data_PCOD9586005
_publ_section_title
;
Structure prediction by ZEFSAII (Michael W. Deem and Ramdas Pophale) SiO2 
 PCOD9586005
Probable space group: P -6 C 2
;
_chemical_formula_sum "Si O2"
_cell_formula_units_Z 52
_cell_length_a 14.413743
_cell_length_b 14.413743
_cell_length_c 14.115747
_cell_angle_alpha 90.000000
_cell_angle_beta 90.000000
_cell_angle_gamma 120.000000
_cell_volume 2539.732906
_symmetry_space_group_name_H-M "P -6 C 2"
_symmetry_group_IT_number 188
_symmetry_cell_setting 'hexagonal'
loop_
_space_group_symop_operation_xyz
x,y,z
-x+y,-x,1/2-z
-y,x-y,z
x,y,1/2-z
-x+y,-x,z
-y,x-y,1/2-z
-y,-x,-z
-x+y,y,-z
x,x-y,-z
-x+y,y,1/2+z
x,x-y,1/2+z
-y,-x,1/2+z
loop_
_atom_site_type_symbol
_atom_site_label
_atom_site_fract_x
_atom_site_fract_y
_atom_site_fract_z
Si Si1 0.426461 0.268435 0.143453
Si Si2 0.756403 0.876303 0.857363
Si Si3 0.000000 0.000000 0.112533
Si Si4 0.481438 0.081997 0.358307
Si Si5 0.694549 0.700878 0.002697
O O1 0.381055 0.253425 0.250000
O O2 0.512631 0.394143 0.131684
O O3 0.475239 0.190831 0.134282
O O4 0.342020 0.097193 0.937452
O O5 0.718638 0.864446 0.750000
O O6 0.757371 0.974262 0.913130
O O7 0.679873 0.772931 0.921943
O O8 0.881173 0.909178 0.856916
O O9 0.000000 0.000000 0.000000
O O10 0.448651 0.040631 0.250000
O O11 0.400889 0.004028 0.438996
#
# Coordination Sequence:
#
# PCOD9586005 Si02
#       5
#    12  12   4  12  12
#     4  10  21  36  56  83 117 155 191 228 272 326
#     4  11  25  40  55  77 110 151 193 238 285 333
#     4  12  22  41  55  76 107 151 196 239 289 328
#     4  10  21  36  56  83 117 155 191 228 272 326
#     4  11  22  35  55  78 109 144 193 236 277 325
#
# _framework density 20.474592999999999
#
# number of rings (size 3 to 8) (size 9 to 14) (size 15 to 20)
#    0.000    1.385    2.308    3.923    6.462    1.846 
#    0.000    2.308    0.000    0.000    0.000    0.000 
#   73.846    0.000   44.308    0.000    0.000    0.000 
#
# Total GULP energy -289861.453242 kJ/mol
# GULP energy per Si atom -5574.258716 kJ/mol
# Density = 2.042799 g / cm^3
# Si number density = 20.474593 Si / 1000 Ang^3
#
#
#
# Elastic Constant Matrix: (Units=GPa)
#
#
# Indices 1 2 3 4 5 6 
#
# 1 45.3307 30.3794 49.3580 0.0000 0.0000 0.0000
# 2 30.3794 45.3307 49.3580 0.0000 0.0000 0.0000
# 3 49.3580 49.3580 198.9045 0.0000 0.0000 0.0000
# 4 0.0000 0.0000 0.0000 25.2693 0.0000 0.0000
# 5 0.0000 0.0000 0.0000 0.0000 25.2693 0.0000
# 6 0.0000 0.0000 0.0000 0.0000 0.0000 7.4756
#
#
#
# Elastic Compliance Matrix: (Units=1/GPa)
#
#
# Indices 1 2 3 4 5 6 
#
# 1 0.043205 -0.023679 -0.004845 0.000000 0.000000 0.000000
# 2 -0.023679 0.043205 -0.004845 0.000000 0.000000 0.000000
# 3 -0.004845 -0.004845 0.007432 0.000000 0.000000 0.000000
# 4 0.000000 0.000000 0.000000 0.039574 0.000000 0.000000
# 5 0.000000 0.000000 0.000000 0.000000 0.039574 0.000000
# 6 0.000000 0.000000 0.000000 0.000000 0.000000 0.133768
#
#
# Mechanical properties :
#
#
# Convention : Reuss Voigt Hill
#
# Bulk Modulus (GPa) = 36.89654 60.86189 48.87922
# Shear Modulus (GPa) = 13.07083 22.30088 17.68586
#
# Velocity S-wave (km/s) = 2.52938 3.30388 2.94223
# Velocity P-wave (km/s) = 5.15656 6.65915 5.95544
#
# Compressibility (1/GPa) = 0.02710281
#
# Stress axis : x y z
#
# Youngs Moduli (GPa) = 23.14548 23.14548 134.54814
#
# Poissons Ratio (x) = 0.54806 0.65193
# Poissons Ratio (y) = 0.54806 0.65193
# Poissons Ratio (z) = 0.11215 0.11215
#
# Static dielectric constant tensor:
#      x y z
#    x 1.759150 0.000000 0.000000 
#    y 0.000000 1.759150 0.000000 
#    z 0.000000 0.000000 1.779780 
# 
# From -- ./inp_files/2189.got.cif
#   From: 2010.05.17/outbox.cif.g08.bks.cpg/sg188_2_cif.got.tgz:2189.got - 2010.05.20 12:11:46.
