data_PCOD9586717
_publ_section_title
;
Structure prediction by ZEFSAII (Michael W. Deem and Ramdas Pophale) SiO2 
 PCOD9586717
Probable space group: P -6 2 C
;
_chemical_formula_sum "Si O2"
_cell_formula_units_Z 90
_cell_length_a 17.746819
_cell_length_b 17.746819
_cell_length_c 17.779364
_cell_angle_alpha 90.000000
_cell_angle_beta 90.000000
_cell_angle_gamma 120.000000
_cell_volume 4849.398715
_symmetry_space_group_name_H-M "P -6 2 C"
_symmetry_group_IT_number 190
_symmetry_cell_setting 'hexagonal'
loop_
_space_group_symop_operation_xyz
x,y,z
-x+y,-x,1/2-z
-y,x-y,z
x,y,1/2-z
-x+y,-x,z
-y,x-y,1/2-z
x-y,-y,-z
-x,-x+y,-z
y,x,-z
y,x,1/2+z
x-y,-y,1/2+z
-x,-x+y,1/2+z
loop_
_atom_site_type_symbol
_atom_site_label
_atom_site_fract_x
_atom_site_fract_y
_atom_site_fract_z
Si Si1 0.777786 0.372135 0.250000
Si Si2 0.673214 0.684418 0.589861
Si Si3 0.030641 0.858866 0.661147
Si Si4 0.624979 0.221484 0.543630
Si Si5 0.821783 0.631701 0.160894
Si Si6 0.619285 0.137662 0.116831
Si Si7 0.032897 0.171327 0.087558
Si Si8 0.468207 0.964891 0.086841
O O1 0.700290 0.275157 0.250000
O O2 0.832112 0.403200 0.175737
O O3 0.676428 0.676428 0.500000
O O4 0.634195 0.745317 0.614565
O O5 0.774754 0.739844 0.611519
O O6 0.611081 0.586643 0.618483
O O7 0.008138 0.851388 0.750000
O O8 0.090095 0.814502 0.648383
O O9 0.946954 0.823744 0.607414
O O10 0.093984 0.959148 0.637610
O O11 0.724604 0.298516 0.553905
O O12 0.618564 0.184548 0.459957
O O13 0.579882 0.134042 0.591793
O O14 0.801952 0.626630 0.250000
O O15 0.835489 0.552893 0.136167
O O16 0.561133 0.033838 0.119328
O O17 0.000000 0.149795 0.000000
O O18 0.481281 0.000000 0.000000
#
# Coordination Sequence:
#
# PCOD9586717 Si02
#       8
#     6  12  12  12  12  12  12  12
#     4  10  22  30  50  88 118 152 188 216 284 366
#     4   9  20  35  57  79 114 152 194 241 290 347
#     4  10  20  35  53  73 108 150 185 227 284 348
#     4   9  20  36  58  82 111 148 197 247 291 350
#     4  10  22  37  55  84 122 159 188 234 298 364
#     4  11  20  34  55  84 120 152 189 231 296 368
#     4  10  19  34  52  81 102 141 191 244 282 330
#     4   9  20  36  53  81 109 151 191 238 294 351
#
# _framework density 18.559000999999999
#
# number of rings (size 3 to 8) (size 9 to 14) (size 15 to 20)
#    0.400    1.867    0.667    1.867    7.467    0.533 
#    2.400    6.667    0.000    0.000    0.000    0.933 
#    0.000    0.000    0.000    0.000    0.000    0.000 
#
# Total GULP energy -501114.546450 kJ/mol
# GULP energy per Si atom -5567.939405 kJ/mol
# Density = 1.851676 g / cm^3
# Si number density = 18.559001 Si / 1000 Ang^3
#
#
#
# Elastic Constant Matrix: (Units=GPa)
#
#
# Indices 1 2 3 4 5 6 
#
# 1 85.2072 41.1108 23.5954 0.0000 0.0000 0.0000
# 2 41.1108 85.2072 23.5954 0.0000 0.0000 0.0000
# 3 23.5954 23.5954 41.6436 0.0000 0.0000 0.0000
# 4 0.0000 0.0000 0.0000 11.0514 0.0000 0.0000
# 5 0.0000 0.0000 0.0000 0.0000 11.0514 0.0000
# 6 0.0000 0.0000 0.0000 0.0000 0.0000 22.0482
#
#
#
# Elastic Compliance Matrix: (Units=1/GPa)
#
#
# Indices 1 2 3 4 5 6 
#
# 1 0.016360 -0.006318 -0.005690 0.000000 0.000000 0.000000
# 2 -0.006318 0.016360 -0.005690 0.000000 0.000000 0.000000
# 3 -0.005690 -0.005690 0.030461 0.000000 0.000000 0.000000
# 4 0.000000 0.000000 0.000000 0.090486 0.000000 0.000000
# 5 0.000000 0.000000 0.000000 0.000000 0.090486 0.000000
# 6 0.000000 0.000000 0.000000 0.000000 0.000000 0.045355
#
#
# Mechanical properties :
#
#
# Convention : Reuss Voigt Hill
#
# Bulk Modulus (GPa) = 35.98957 43.18457 39.58707
# Shear Modulus (GPa) = 14.96262 17.08062 16.02162
#
# Velocity S-wave (km/s) = 2.84248 3.03700 2.94135
# Velocity P-wave (km/s) = 5.49609 5.96801 5.73691
#
# Compressibility (1/GPa) = 0.02778583
#
# Stress axis : x y z
#
# Youngs Moduli (GPa) = 61.12503 61.12503 32.82863
#
# Poissons Ratio (x) = 0.38617 0.18679
# Poissons Ratio (y) = 0.38617 0.18679
# Poissons Ratio (z) = 0.34780 0.34780
#
# Static dielectric constant tensor:
#      x y z
#    x 1.657280 0.000000 0.000000 
#    y 0.000000 1.657280 0.000000 
#    z 0.000000 0.000000 1.672010 
# 
# From -- ./inp_files/3945.got.cif
#   From: 2010.05.17/outbox.cif.g08.bks.cpg/sg190_2_cif.got.tgz:3945.got - 2010.05.20 12:16:56.
