data_PCOD9586729
_publ_section_title
;
Structure prediction by ZEFSAII (Michael W. Deem and Ramdas Pophale) SiO2 
 PCOD9586729
Probable space group: P -6 2 C
;
_chemical_formula_sum "Si O2"
_cell_formula_units_Z 76
_cell_length_a 16.488266
_cell_length_b 16.488266
_cell_length_c 14.614964
_cell_angle_alpha 90.000000
_cell_angle_beta 90.000000
_cell_angle_gamma 120.000000
_cell_volume 3440.949920
_symmetry_space_group_name_H-M "P -6 2 C"
_symmetry_group_IT_number 190
_symmetry_cell_setting 'hexagonal'
loop_
_space_group_symop_operation_xyz
x,y,z
-x+y,-x,1/2-z
-y,x-y,z
x,y,1/2-z
-x+y,-x,z
-y,x-y,1/2-z
x-y,-y,-z
-x,-x+y,-z
y,x,-z
y,x,1/2+z
x-y,-y,1/2+z
-x,-x+y,1/2+z
loop_
_atom_site_type_symbol
_atom_site_label
_atom_site_fract_x
_atom_site_fract_y
_atom_site_fract_z
Si Si1 0.813402 0.648903 0.948182
Si Si2 0.914762 0.552605 0.855734
Si Si3 0.816100 0.163226 0.348150
Si Si4 0.110275 0.503296 0.473365
Si Si5 0.000000 0.000000 0.357782
Si Si6 0.134861 0.616795 0.646838
Si Si7 0.175641 0.194253 0.103794
O O1 0.879575 0.604342 0.925168
O O2 0.708373 0.568102 0.934091
O O3 0.869238 0.741312 0.885262
O O4 0.808527 0.675712 0.054349
O O5 0.891930 0.560352 0.750000
O O6 0.870562 0.448493 0.894422
O O7 0.025312 0.587926 0.861154
O O8 0.862841 0.204583 0.250000
O O9 0.729157 0.181605 0.359533
O O10 0.783612 0.052505 0.342637
O O11 0.155974 0.563593 0.566458
O O12 0.000000 0.442815 0.500000
O O13 0.097573 0.087086 0.387269
O O14 0.000000 0.000000 0.250000
O O15 0.150785 0.592766 0.750000
O O16 0.209440 0.209440 0.000000
#
# Coordination Sequence:
#
# PCOD9586729 Si02
#       7
#    12  12  12  12   4  12  12
#     4  11  22  37  62  92 123 163 207 266 315 392
#     4  10  20  37  60  85 115 155 206 257 306 361
#     4  10  19  35  62  93 116 153 212 264 310 377
#     4  10  22  38  58  85 124 156 203 246 315 377
#     4  12  25  41  58  90 136 176 217 279 331 386
#     4   9  17  34  63  87 112 150 199 257 307 368
#     4  10  22  38  62  88 125 168 214 258 324 379
#
# _framework density 22.086924
#
# number of rings (size 3 to 8) (size 9 to 14) (size 15 to 20)
#    0.000    1.895    3.158    0.947    0.000    4.421 
#    0.947    0.000    0.000    1.895    0.000    0.000 
#    0.000    0.000    0.000    0.000    0.000    0.000 
#
# Total GULP energy -423270.969172 kJ/mol
# GULP energy per Si atom -5569.354858 kJ/mol
# Density = 2.203665 g / cm^3
# Si number density = 22.086924 Si / 1000 Ang^3
#
#
#
# Elastic Constant Matrix: (Units=GPa)
#
#
# Indices 1 2 3 4 5 6 
#
# 1 58.5354 3.7094 4.3058 0.0000 0.0000 0.0000
# 2 3.7094 58.5354 4.3058 0.0000 0.0000 0.0000
# 3 4.3058 4.3058 82.8080 0.0000 0.0000 0.0000
# 4 0.0000 0.0000 0.0000 -36.2640 0.0000 0.0000
# 5 0.0000 0.0000 0.0000 0.0000 -36.2640 0.0000
# 6 0.0000 0.0000 0.0000 0.0000 0.0000 27.4130
#
#
#
# Elastic Compliance Matrix: (Units=1/GPa)
#
#
# Indices 1 2 3 4 5 6 
#
# 1 0.017211 -0.001029 -0.000841 0.000000 0.000000 0.000000
# 2 -0.001029 0.017211 -0.000841 0.000000 0.000000 0.000000
# 3 -0.000841 -0.000841 0.012164 0.000000 0.000000 0.000000
# 4 0.000000 0.000000 0.000000 -0.027576 0.000000 0.000000
# 5 0.000000 0.000000 0.000000 0.000000 -0.027576 0.000000
# 6 0.000000 0.000000 0.000000 0.000000 0.000000 0.036479
#
#
# Mechanical properties :
#
#
# Convention : Reuss Voigt Hill
#
# Bulk Modulus (GPa) = 24.29425 24.94673 24.62049
# Shear Modulus (GPa) = 106.25404 3.48083 54.86744
#
# Velocity S-wave (km/s) = 6.94346 1.25674 4.98954
# Velocity P-wave (km/s) = 8.67787 3.66404 6.66073
#
# Compressibility (1/GPa) = 0.04116201
#
# Stress axis : x y z
#
# Youngs Moduli (GPa) = 58.10314 58.10314 82.21228
#
# Poissons Ratio (x) = 0.05977 0.06917
# Poissons Ratio (y) = 0.05977 0.06917
# Poissons Ratio (z) = 0.04889 0.04889
#
# Static dielectric constant tensor:
#      x y z
#    x 1.854930 0.000000 0.000000 
#    y 0.000000 1.854930 0.000000 
#    z 0.000000 0.000000 1.830620 
# 
# From -- ./inp_files/3108.got.cif
#   From: 2010.05.17/outbox.cif.g08.bks.cpg/sg190_2_cif.got.tgz:3108.got - 2010.05.20 12:16:56.
