data_PCOD9586691
_publ_section_title
;
Structure prediction by ZEFSAII (Michael W. Deem and Ramdas Pophale) SiO2 
 PCOD9586691
Probable space group: P -6 2 C
;
_chemical_formula_sum "Si O2"
_cell_formula_units_Z 72
_cell_length_a 24.264174
_cell_length_b 24.264174
_cell_length_c 8.797355
_cell_angle_alpha 90.000000
_cell_angle_beta 90.000000
_cell_angle_gamma 120.000000
_cell_volume 4485.530070
_symmetry_space_group_name_H-M "P -6 2 C"
_symmetry_group_IT_number 190
_symmetry_cell_setting 'hexagonal'
loop_
_space_group_symop_operation_xyz
x,y,z
-x+y,-x,1/2-z
-y,x-y,z
x,y,1/2-z
-x+y,-x,z
-y,x-y,1/2-z
x-y,-y,-z
-x,-x+y,-z
y,x,-z
y,x,1/2+z
x-y,-y,1/2+z
-x,-x+y,1/2+z
loop_
_atom_site_type_symbol
_atom_site_label
_atom_site_fract_x
_atom_site_fract_y
_atom_site_fract_z
Si Si1 0.070187 0.474888 0.569200
Si Si2 0.738602 0.137530 0.567643
Si Si3 0.267524 0.860467 0.068857
Si Si4 0.069309 0.809458 0.931211
Si Si5 0.257515 0.069511 0.568235
Si Si6 0.070020 0.591864 0.432211
O O1 0.065002 0.475667 0.750000
O O2 0.116153 0.448689 0.519363
O O3 0.091335 0.544408 0.502234
O O4 0.000000 0.428918 0.500000
O O5 0.743682 0.130238 0.750000
O O6 0.789649 0.210630 0.530842
O O7 0.761313 0.093556 0.484499
O O8 0.665966 0.115530 0.532054
O O9 0.279690 0.863521 0.250000
O O10 0.238224 0.906257 0.035798
O O11 0.067406 0.811042 0.750000
O O12 0.121616 0.877927 0.996090
O O13 0.000000 0.785117 0.000000
O O14 0.250649 0.069146 0.750000
O O15 0.214283 0.000000 0.500000
O O16 0.065170 0.584182 0.250000
O O17 0.000000 0.568304 0.500000
#
# Coordination Sequence:
#
# PCOD9586691 Si02
#       6
#    12  12  12  12  12  12
#     4  11  21  32  48  71  98 129 163 199 241 287
#     4   9  19  34  52  74  99 128 162 201 245 293
#     4   9  18  33  51  72  99 128 160 199 241 288
#     4  11  21  33  51  74 102 134 166 202 244 289
#     4  10  20  34  52  75 102 131 165 203 245 292
#     4  10  19  32  50  72  98 128 161 198 242 289
#
# _framework density 16.051615000000002
#
# number of rings (size 3 to 8) (size 9 to 14) (size 15 to 20)
#    0.000    2.000    0.000    7.000    0.000    7.333 
#    0.000    0.000    0.000    1.000    0.000    4.667 
#    0.000    0.000    0.000    0.000    0.000    0.000 
#
# Total GULP energy -401965.712231 kJ/mol
# GULP energy per Si atom -5582.857114 kJ/mol
# Density = 1.601508 g / cm^3
# Si number density = 16.051615 Si / 1000 Ang^3
#
#
#
# Elastic Constant Matrix: (Units=GPa)
#
#
# Indices 1 2 3 4 5 6 
#
# 1 130.7075 89.4910 73.1436 0.0000 0.0000 0.0000
# 2 89.4910 130.7075 73.1436 0.0000 0.0000 0.0000
# 3 73.1436 73.1436 99.0071 0.0000 0.0000 0.0000
# 4 0.0000 0.0000 0.0000 27.0773 0.0000 0.0000
# 5 0.0000 0.0000 0.0000 0.0000 27.0773 0.0000
# 6 0.0000 0.0000 0.0000 0.0000 0.0000 20.6083
#
#
#
# Elastic Compliance Matrix: (Units=1/GPa)
#
#
# Indices 1 2 3 4 5 6 
#
# 1 0.016590 -0.007672 -0.006589 0.000000 0.000000 0.000000
# 2 -0.007672 0.016590 -0.006589 0.000000 0.000000 0.000000
# 3 -0.006589 -0.006589 0.019835 0.000000 0.000000 0.000000
# 4 0.000000 0.000000 0.000000 0.036931 0.000000 0.000000
# 5 0.000000 0.000000 0.000000 0.000000 0.036931 0.000000
# 6 0.000000 0.000000 0.000000 0.000000 0.000000 0.048524
#
#
# Mechanical properties :
#
#
# Convention : Reuss Voigt Hill
#
# Bulk Modulus (GPa) = 88.35873 92.44204 90.40039
# Shear Modulus (GPa) = 22.63733 23.26217 22.94975
#
# Velocity S-wave (km/s) = 3.75945 3.81098 3.78530
# Velocity P-wave (km/s) = 8.60295 8.77954 8.69169
#
# Compressibility (1/GPa) = 0.01131750
#
# Stress axis : x y z
#
# Youngs Moduli (GPa) = 60.27610 60.27610 50.41478
#
# Poissons Ratio (x) = 0.46242 0.33217
# Poissons Ratio (y) = 0.46242 0.33217
# Poissons Ratio (z) = 0.39714 0.39714
#
# Static dielectric constant tensor:
#      x y z
#    x 1.521970 0.000000 0.000000 
#    y 0.000000 1.521970 0.000000 
#    z 0.000000 0.000000 1.535590 
# 
# From -- ./inp_files/1238.got.cif
#   From: 2010.05.17/outbox.cif.g08.bks.cpg/sg190_1_cif.got.tgz:1238.got - 2010.05.20 12:16:56.
