data_PCOD9586342
_publ_section_title
;
Structure prediction by ZEFSAII (Michael W. Deem and Ramdas Pophale) SiO2 
 PCOD9586342
Probable space group: P -6 2 M
;
_chemical_formula_sum "Si O2"
_cell_formula_units_Z 78
_cell_length_a 24.538802
_cell_length_b 24.538802
_cell_length_c 8.323494
_cell_angle_alpha 90.000000
_cell_angle_beta 90.000000
_cell_angle_gamma 120.000000
_cell_volume 4340.532529
_symmetry_space_group_name_H-M "P -6 2 M"
_symmetry_group_IT_number 189
_symmetry_cell_setting 'hexagonal'
loop_
_space_group_symop_operation_xyz
x,y,z
-x+y,-x,-z
-y,x-y,z
x,y,-z
-x+y,-x,z
-y,x-y,-z
x-y,-y,-z
-x,-x+y,-z
y,x,-z
y,x,z
x-y,-y,z
-x,-x+y,z
loop_
_atom_site_type_symbol
_atom_site_label
_atom_site_fract_x
_atom_site_fract_y
_atom_site_fract_z
Si Si1 0.613827 0.474452 0.313376
Si Si2 0.611074 0.802515 0.185008
Si Si3 0.307574 0.927379 0.694351
Si Si4 0.590506 0.322126 0.000000
Si Si5 0.927009 0.523624 0.186724
Si Si6 0.285183 0.357169 0.311570
Si Si7 0.741101 0.474495 0.320729
O O1 0.596789 0.474197 0.500000
O O2 0.647566 0.546928 0.255030
O O3 0.549324 0.432019 0.222579
O O4 0.667548 0.455047 0.309940
O O5 0.641609 0.760331 0.230901
O O6 0.651480 0.876336 0.217484
O O7 0.549557 0.777512 0.297620
O O8 0.590159 0.790602 0.000000
O O9 0.302911 0.922653 0.500000
O O10 0.338772 0.000000 0.739722
O O11 0.613583 0.270217 0.000000
O O12 0.553904 0.311115 0.833522
O O13 0.913086 0.571181 0.285794
O O14 0.000000 0.544467 0.219331
O O15 0.921776 0.536215 0.000000
O O16 0.271058 0.346681 0.500000
O O17 0.313602 0.313602 0.256438
O O18 0.753081 0.457669 0.500000
#
# Coordination Sequence:
#
# PCOD9586342 Si02
#       7
#    12  12  12   6  12  12  12
#     4   9  18  31  50  73  97 132 168 206 258 313
#     4  11  21  35  57  80 107 140 174 217 265 319
#     4   9  18  33  53  78 108 141 178 216 257 315
#     4  10  24  40  54  74  96 122 171 222 274 324
#     4  10  20  31  45  70 100 127 159 206 261 313
#     4  10  21  37  55  75 100 133 176 220 264 321
#     4  10  21  39  57  75 100 131 173 216 266 328
#
# _framework density 17.970144999999999
#
# number of rings (size 3 to 8) (size 9 to 14) (size 15 to 20)
#    0.154    2.000    0.769    3.692    1.077    5.231 
#    0.000    1.538    0.000    0.000    0.000    0.000 
#    0.000    0.000    0.000    0.462    0.000    8.923 
#
# Total GULP energy -435720.749164 kJ/mol
# GULP energy per Si atom -5586.163451 kJ/mol
# Density = 1.792924 g / cm^3
# Si number density = 17.970145 Si / 1000 Ang^3
#
#
#
# Elastic Constant Matrix: (Units=GPa)
#
#
# Indices 1 2 3 4 5 6 
#
# 1 74.0528 28.5879 22.9785 0.0000 0.0000 0.0000
# 2 28.5879 74.0528 22.9785 0.0000 0.0000 0.0000
# 3 22.9785 22.9785 80.1222 0.0000 0.0000 0.0000
# 4 0.0000 0.0000 0.0000 18.1860 0.0000 0.0000
# 5 0.0000 0.0000 0.0000 0.0000 18.1860 0.0000
# 6 0.0000 0.0000 0.0000 0.0000 0.0000 22.7324
#
#
#
# Elastic Compliance Matrix: (Units=1/GPa)
#
#
# Indices 1 2 3 4 5 6 
#
# 1 0.016587 -0.005408 -0.003206 0.000000 0.000000 0.000000
# 2 -0.005408 0.016587 -0.003206 0.000000 0.000000 0.000000
# 3 -0.003206 -0.003206 0.014320 0.000000 0.000000 0.000000
# 4 0.000000 0.000000 0.000000 0.054987 0.000000 0.000000
# 5 0.000000 0.000000 0.000000 0.000000 0.054987 0.000000
# 6 0.000000 0.000000 0.000000 0.000000 0.000000 0.043990
#
#
# Mechanical properties :
#
#
# Convention : Reuss Voigt Hill
#
# Bulk Modulus (GPa) = 41.92389 41.92417 41.92403
# Shear Modulus (GPa) = 21.45477 22.06642 21.76060
#
# Velocity S-wave (km/s) = 3.45905 3.50801 3.48362
# Velocity P-wave (km/s) = 6.27166 6.30783 6.28977
#
# Compressibility (1/GPa) = 0.02385275
#
# Stress axis : x y z
#
# Youngs Moduli (GPa) = 60.28979 60.28979 69.83362
#
# Poissons Ratio (x) = 0.32607 0.22387
# Poissons Ratio (y) = 0.32607 0.22387
# Poissons Ratio (z) = 0.19328 0.19328
#
# Static dielectric constant tensor:
#      x y z
#    x 1.628200 0.000000 0.000000 
#    y 0.000000 1.628200 0.000000 
#    z 0.000000 0.000000 1.629740 
# 
# From -- ./inp_files/1421.got.cif
#   From: 2010.05.17/outbox.cif.g08.bks.cpg/sg189_1_cif.got.tgz:1421.got - 2010.05.20 12:14:34.
