data_PCOD9586400
_publ_section_title
;
Structure prediction by ZEFSAII (Michael W. Deem and Ramdas Pophale) SiO2 
 PCOD9586400
Probable space group: P -6 2 M
;
_chemical_formula_sum "Si O2"
_cell_formula_units_Z 64
_cell_length_a 14.076264
_cell_length_b 14.076264
_cell_length_c 18.010900
_cell_angle_alpha 90.000000
_cell_angle_beta 90.000000
_cell_angle_gamma 120.000000
_cell_volume 3090.586146
_symmetry_space_group_name_H-M "P -6 2 M"
_symmetry_group_IT_number 189
_symmetry_cell_setting 'hexagonal'
loop_
_space_group_symop_operation_xyz
x,y,z
-x+y,-x,-z
-y,x-y,z
x,y,-z
-x+y,-x,z
-y,x-y,-z
x-y,-y,-z
-x,-x+y,-z
y,x,-z
y,x,z
x-y,-y,z
-x,-x+y,z
loop_
_atom_site_type_symbol
_atom_site_label
_atom_site_fract_x
_atom_site_fract_y
_atom_site_fract_z
Si Si1 0.873709 0.126909 0.707724
Si Si2 0.333334 0.666667 0.411701
Si Si3 0.473631 0.275576 0.918261
Si Si4 0.118586 0.883256 0.113573
Si Si5 0.129813 0.652838 0.325516
Si Si6 0.525370 0.120266 0.174854
O O1 0.876991 0.125880 0.797249
O O2 0.777844 0.154166 0.686867
O O3 0.000000 0.207985 0.682565
O O4 0.828959 0.000000 0.683823
O O5 0.333334 0.666668 0.500000
O O6 0.219525 0.654259 0.380806
O O7 0.344064 0.213106 0.919407
O O8 0.519695 0.397780 0.891258
O O9 0.502902 0.214763 0.853343
O O10 0.514090 0.268059 0.000000
O O11 0.000000 0.865191 0.096444
O O12 0.212744 0.000000 0.087596
O O13 0.139800 0.594215 0.250319
O O14 0.000000 0.581784 0.346993
O O15 0.418741 0.000000 0.181184
#
# Coordination Sequence:
#
# PCOD9586400 Si02
#       6
#    12   4  12  12  12  12
#     4   9  17  33  60  95 128 160 202 255 312 368
#     4  12  27  45  66  99 139 170 202 249 315 390
#     4  12  24  37  54  78 111 152 203 257 315 376
#     4  10  20  35  54  79 111 148 191 242 303 368
#     4  10  22  42  68  95 125 166 215 261 310 377
#     4  11  23  41  61  82 110 149 202 260 310 356
#
# _framework density 20.708044000000001
#
# number of rings (size 3 to 8) (size 9 to 14) (size 15 to 20)
#    0.000    1.500    1.875    3.562    0.000    6.375 
#    0.000    0.000    0.000    1.125    0.000    0.000 
#    0.000    1.500    0.000    0.000    0.000    0.000 
#
# Total GULP energy -357247.870173 kJ/mol
# GULP energy per Si atom -5581.997971 kJ/mol
# Density = 2.066091 g / cm^3
# Si number density = 20.708044 Si / 1000 Ang^3
#
#
#
# Elastic Constant Matrix: (Units=GPa)
#
#
# Indices 1 2 3 4 5 6 
#
# 1 116.6808 45.9794 47.5038 0.0000 0.0000 0.0000
# 2 45.9794 116.6812 47.5038 0.0000 0.0000 0.0001
# 3 47.5038 47.5038 86.6800 -0.0002 -0.0001 0.0000
# 4 0.0000 0.0000 -0.0002 26.7854 0.0000 0.0000
# 5 0.0000 0.0000 -0.0001 0.0000 26.7852 0.0000
# 6 0.0000 0.0001 0.0000 0.0000 0.0000 35.3509
#
#
#
# Elastic Compliance Matrix: (Units=1/GPa)
#
#
# Indices 1 2 3 4 5 6 
#
# 1 0.011593 -0.002551 -0.004955 0.000000 0.000000 0.000000
# 2 -0.002551 0.011593 -0.004955 0.000000 0.000000 0.000000
# 3 -0.004955 -0.004955 0.016968 0.000000 0.000000 0.000000
# 4 0.000000 0.000000 0.000000 0.037334 0.000000 0.000000
# 5 0.000000 0.000000 0.000000 0.000000 0.037334 0.000000
# 6 0.000000 0.000000 0.000000 0.000000 0.000000 0.028288
#
#
# Mechanical properties :
#
#
# Convention : Reuss Voigt Hill
#
# Bulk Modulus (GPa) = 65.65645 66.89068 66.27356
# Shear Modulus (GPa) = 28.88328 29.72129 29.30228
#
# Velocity S-wave (km/s) = 3.73873 3.79258 3.76576
# Velocity P-wave (km/s) = 7.10015 7.17984 7.14011
#
# Compressibility (1/GPa) = 0.01523080
#
# Stress axis : x y z
#
# Youngs Moduli (GPa) = 86.25828 86.25868 58.93373
#
# Poissons Ratio (x) = 0.22004 0.29204
# Poissons Ratio (y) = 0.22003 0.29204
# Poissons Ratio (z) = 0.42745 0.42745
#
# Static dielectric constant tensor:
#      x y z
#    x 1.762630 0.000000 0.000000 
#    y 0.000000 1.762630 0.000000 
#    z 0.000000 0.000000 1.695800 
# 
# From -- ./inp_files/3042.got.cif
#   From: 2010.05.17/outbox.cif.g08.bks.cpg/sg189_2_cif.got.tgz:3042.got - 2010.05.20 12:14:34.
