data_PCOD9586552
_publ_section_title
;
Structure prediction by ZEFSAII (Michael W. Deem and Ramdas Pophale) SiO2 
 PCOD9586552
Probable space group: P -6 2 M
;
_chemical_formula_sum "Si O2"
_cell_formula_units_Z 72
_cell_length_a 24.709783
_cell_length_b 24.709783
_cell_length_c 7.920190
_cell_angle_alpha 90.000000
_cell_angle_beta 90.000000
_cell_angle_gamma 120.000000
_cell_volume 4187.975138
_symmetry_space_group_name_H-M "P -6 2 M"
_symmetry_group_IT_number 189
_symmetry_cell_setting 'hexagonal'
loop_
_space_group_symop_operation_xyz
x,y,z
-x+y,-x,-z
-y,x-y,z
x,y,-z
-x+y,-x,z
-y,x-y,-z
x-y,-y,-z
-x,-x+y,-z
y,x,-z
y,x,z
x-y,-y,z
-x,-x+y,z
loop_
_atom_site_type_symbol
_atom_site_label
_atom_site_fract_x
_atom_site_fract_y
_atom_site_fract_z
Si Si1 0.189047 0.258656 0.698982
Si Si2 0.142533 0.407227 0.296313
Si Si3 0.859784 0.600532 0.803574
Si Si4 0.928213 0.527556 0.703929
Si Si5 0.072172 0.477524 0.706155
Si Si6 0.192569 0.929207 0.706826
O O1 0.179433 0.244429 0.500000
O O2 0.219998 0.219998 0.772559
O O3 0.235873 0.333053 0.713157
O O4 0.122469 0.246119 0.767427
O O5 0.141336 0.407703 0.500000
O O6 0.211627 0.423521 0.244055
O O7 0.117151 0.452105 0.234583
O O8 0.096382 0.335360 0.243066
O O9 0.883179 0.552337 0.763566
O O10 0.867407 0.614998 0.000000
O O11 0.927968 0.527648 0.500000
O O12 0.911418 0.458211 0.759828
O O13 0.000000 0.574205 0.758039
O O14 0.073321 0.477914 0.500000
O O15 0.000000 0.430791 0.754397
O O16 0.191684 0.928984 0.500000
O O17 0.218738 0.000000 0.762474
#
# Coordination Sequence:
#
# PCOD9586552 Si02
#       6
#    12  12  12  12  12  12
#     4   9  17  29  45  64  86 115 150 185 221 261
#     4   9  16  28  47  68  89 114 144 178 216 259
#     4  11  21  30  42  63  91 121 151 182 218 259
#     4   9  17  30  48  69  92 116 144 181 223 265
#     4   8  14  26  48  75  94 110 139 179 219 261
#     4   8  13  22  40  65  88 110 138 173 213 258
#
# _framework density 17.192079
#
# number of rings (size 3 to 8) (size 9 to 14) (size 15 to 20)
#    0.000    3.000    0.000    4.500    0.000    4.667 
#    0.000    0.833    0.000   14.500    0.000    4.667 
#    0.000    0.000    0.000    0.500    0.000    2.667 
#
# Total GULP energy -401200.132450 kJ/mol
# GULP energy per Si atom -5572.224062 kJ/mol
# Density = 1.715295 g / cm^3
# Si number density = 17.192079 Si / 1000 Ang^3
#
#
#
# Elastic Constant Matrix: (Units=GPa)
#
#
# Indices 1 2 3 4 5 6 
#
# 1 142.3938 95.6753 3.4199 0.0000 0.0000 0.0000
# 2 95.6753 142.3938 3.4199 0.0000 0.0000 0.0000
# 3 3.4199 3.4199 14.9663 0.0000 0.0000 0.0000
# 4 0.0000 0.0000 0.0000 -16.9276 0.0000 0.0000
# 5 0.0000 0.0000 0.0000 0.0000 -16.9276 0.0000
# 6 0.0000 0.0000 0.0000 0.0000 0.0000 23.3592
#
#
#
# Elastic Compliance Matrix: (Units=1/GPa)
#
#
# Indices 1 2 3 4 5 6 
#
# 1 0.012817 -0.008588 -0.000966 0.000000 0.000000 0.000000
# 2 -0.008588 0.012817 -0.000966 0.000000 0.000000 0.000000
# 3 -0.000966 -0.000966 0.067258 0.000000 0.000000 0.000000
# 4 0.000000 0.000000 0.000000 -0.059075 0.000000 0.000000
# 5 0.000000 0.000000 0.000000 0.000000 -0.059075 0.000000
# 6 0.000000 0.000000 0.000000 0.000000 0.000000 0.042810
#
#
# Mechanical properties :
#
#
# Convention : Reuss Voigt Hill
#
# Bulk Modulus (GPa) = 13.91789 56.08712 35.00251
# Shear Modulus (GPa) = 79.94648 11.05006 45.49827
#
# Velocity S-wave (km/s) = 6.82663 2.53798 5.14996
# Velocity P-wave (km/s) = 8.38154 6.42519 7.46771
#
# Compressibility (1/GPa) = 0.07184996
#
# Stress axis : x y z
#
# Youngs Moduli (GPa) = 78.02430 78.02430 14.86807
#
# Poissons Ratio (x) = 0.67010 0.01437
# Poissons Ratio (y) = 0.67010 0.01437
# Poissons Ratio (z) = 0.07539 0.07539
#
# Static dielectric constant tensor:
#      x y z
#    x 1.581120 0.000000 0.000000 
#    y 0.000000 1.581120 0.000000 
#    z 0.000000 0.000000 1.608270 
# 
# From -- ./inp_files/1298.got.cif
#   From: 2010.05.17/outbox.cif.g08.bks.cpg/sg189_1_cif.got.tgz:1298.got - 2010.05.20 12:14:34.
