data_PCOD9586885
_publ_section_title
;
Structure prediction by ZEFSAII (Michael W. Deem and Ramdas Pophale) SiO2 
 PCOD9586885
Probable space group: P -6 2 C
;
_chemical_formula_sum "Si O2"
_cell_formula_units_Z 84
_cell_length_a 17.138710
_cell_length_b 17.138710
_cell_length_c 16.133061
_cell_angle_alpha 90.000000
_cell_angle_beta 90.000000
_cell_angle_gamma 120.000000
_cell_volume 4103.965187
_symmetry_space_group_name_H-M "P -6 2 C"
_symmetry_group_IT_number 190
_symmetry_cell_setting 'hexagonal'
loop_
_space_group_symop_operation_xyz
x,y,z
-x+y,-x,1/2-z
-y,x-y,z
x,y,1/2-z
-x+y,-x,z
-y,x-y,1/2-z
x-y,-y,-z
-x,-x+y,-z
y,x,-z
y,x,1/2+z
x-y,-y,1/2+z
-x,-x+y,1/2+z
loop_
_atom_site_type_symbol
_atom_site_label
_atom_site_fract_x
_atom_site_fract_y
_atom_site_fract_z
Si Si1 0.361726 0.581082 0.084177
Si Si2 0.426655 0.394719 0.651932
Si Si3 0.231182 0.273111 0.581281
Si Si4 0.844094 0.460562 0.105825
Si Si5 0.762072 0.696787 0.420755
Si Si6 0.186126 0.996713 0.750000
Si Si7 0.811987 0.281848 0.158076
Si Si8 0.998680 0.833144 0.750000
O O1 0.426518 0.689821 0.097213
O O2 0.378920 0.510828 0.135739
O O3 0.373149 0.558242 0.989774
O O4 0.404155 0.380523 0.750000
O O5 0.339214 0.333152 0.594529
O O6 0.442247 0.492407 0.626259
O O7 0.214284 0.214284 0.500000
O O8 0.161030 0.307821 0.566408
O O9 0.202179 0.222132 0.667185
O O10 0.795756 0.365260 0.151103
O O11 0.806603 0.523836 0.139073
O O12 0.734938 0.734938 0.500000
O O13 0.776960 0.753548 0.335539
O O14 0.696029 0.591597 0.401628
O O15 0.076786 0.937304 0.750000
O O16 0.202463 0.096180 0.750000
O O17 0.839053 0.271322 0.250000
#
# Coordination Sequence:
#
# PCOD9586885 Si02
#       8
#    12  12  12  12  12   6  12   6
#     4  10  23  47  70 101 142 191 242 295 365 435
#     4  12  25  42  69 105 137 187 246 299 360 431
#     4  11  22  40  65  98 133 178 233 295 347 423
#     4  12  23  43  71  99 139 178 244 296 360 438
#     4  11  24  41  66  96 142 184 223 287 366 431
#     4  10  21  42  62  95 135 171 229 285 350 427
#     4  12  23  41  66 101 139 183 226 297 364 424
#     4  10  21  38  66  91 129 177 229 287 352 431
#
# _framework density 20.468011000000001
#
# number of rings (size 3 to 8) (size 9 to 14) (size 15 to 20)
#    0.286    0.571    4.286    3.857    0.000    1.714 
#    0.000    0.000    0.000    4.571    0.000    0.000 
#    0.000    0.000    0.000    0.000    0.000    0.000 
#
# Total GULP energy -467926.227058 kJ/mol
# GULP energy per Si atom -5570.550322 kJ/mol
# Density = 2.042142 g / cm^3
# Si number density = 20.468011 Si / 1000 Ang^3
#
#
#
# Elastic Constant Matrix: (Units=GPa)
#
#
# Indices 1 2 3 4 5 6 
#
# 1 87.4738 49.0020 38.4975 0.0000 0.0000 0.0000
# 2 49.0020 87.4738 38.4975 0.0000 0.0000 0.0000
# 3 38.4975 38.4975 112.1862 0.0000 0.0000 0.0000
# 4 0.0000 0.0000 0.0000 18.4118 0.0000 0.0000
# 5 0.0000 0.0000 0.0000 0.0000 18.4118 0.0000
# 6 0.0000 0.0000 0.0000 0.0000 0.0000 19.2359
#
#
#
# Elastic Compliance Matrix: (Units=1/GPa)
#
#
# Indices 1 2 3 4 5 6 
#
# 1 0.017540 -0.008453 -0.003118 0.000000 0.000000 0.000000
# 2 -0.008453 0.017540 -0.003118 0.000000 0.000000 0.000000
# 3 -0.003118 -0.003118 0.011054 0.000000 0.000000 0.000000
# 4 0.000000 0.000000 0.000000 0.054313 0.000000 0.000000
# 5 0.000000 0.000000 0.000000 0.000000 0.054313 0.000000
# 6 0.000000 0.000000 0.000000 0.000000 0.000000 0.051986
#
#
# Mechanical properties :
#
#
# Convention : Reuss Voigt Hill
#
# Bulk Modulus (GPa) = 59.68626 59.90312 59.79469
# Shear Modulus (GPa) = 20.68601 21.95434 21.32017
#
# Velocity S-wave (km/s) = 3.18252 3.27864 3.23094
# Velocity P-wave (km/s) = 6.53672 6.60779 6.57235
#
# Compressibility (1/GPa) = 0.01675428
#
# Stress axis : x y z
#
# Youngs Moduli (GPa) = 57.01340 57.01340 90.46723
#
# Poissons Ratio (x) = 0.48195 0.28208
# Poissons Ratio (y) = 0.48195 0.28208
# Poissons Ratio (z) = 0.17777 0.17777
#
# Static dielectric constant tensor:
#      x y z
#    x 1.785140 0.000000 0.000000 
#    y 0.000000 1.785140 0.000000 
#    z 0.000000 0.000000 1.752870 
# 
# From -- ./inp_files/3200.got.cif
#   From: 2010.05.17/outbox.cif.g08.bks.cpg/sg190_2_cif.got.tgz:3200.got - 2010.05.20 12:16:56.
