data_PCOD9586797
_publ_section_title
;
Structure prediction by ZEFSAII (Michael W. Deem and Ramdas Pophale) SiO2 
 PCOD9586797
Probable space group: P -6 2 C
;
_chemical_formula_sum "Si O2"
_cell_formula_units_Z 84
_cell_length_a 15.282229
_cell_length_b 15.282229
_cell_length_c 23.556612
_cell_angle_alpha 90.000000
_cell_angle_beta 90.000000
_cell_angle_gamma 120.000000
_cell_volume 4764.494904
_symmetry_space_group_name_H-M "P -6 2 C"
_symmetry_group_IT_number 190
_symmetry_cell_setting 'hexagonal'
loop_
_space_group_symop_operation_xyz
x,y,z
-x+y,-x,1/2-z
-y,x-y,z
x,y,1/2-z
-x+y,-x,z
-y,x-y,1/2-z
x-y,-y,-z
-x,-x+y,-z
y,x,-z
y,x,1/2+z
x-y,-y,1/2+z
-x,-x+y,1/2+z
loop_
_atom_site_type_symbol
_atom_site_label
_atom_site_fract_x
_atom_site_fract_y
_atom_site_fract_z
Si Si1 0.447966 0.289816 0.998045
Si Si2 0.343100 0.350685 0.597275
Si Si3 0.630213 0.511510 0.018548
Si Si4 0.039112 0.827851 0.182785
Si Si5 0.503431 0.389879 0.185384
Si Si6 0.166263 0.451031 0.853425
Si Si7 0.219854 0.038858 0.183114
O O1 0.381480 0.279810 0.054248
O O2 0.553039 0.392528 0.009928
O O3 0.456917 0.191658 0.986421
O O4 0.400572 0.315107 0.944603
O O5 0.277994 0.265101 0.642274
O O6 0.415371 0.444423 0.637442
O O7 0.668853 0.527097 0.083439
O O8 0.573657 0.573657 0.000000
O O9 0.046535 0.808863 0.250000
O O10 0.940319 0.839302 0.177134
O O11 0.142870 0.925373 0.164066
O O12 0.463441 0.374535 0.250000
O O13 0.618258 0.478761 0.184953
O O14 0.487441 0.282678 0.162331
O O15 0.099043 0.330953 0.843527
O O16 0.237369 0.034925 0.250000
#
# Coordination Sequence:
#
# PCOD9586797 Si02
#       7
#    12  12  12  12  12  12  12
#     4  11  23  41  61  85 115 152 200 255 297 360
#     4  11  21  40  57  82 117 150 195 244 294 359
#     4  12  22  40  63  87 115 158 202 249 310 353
#     4  10  20  36  59  84 116 157 194 242 298 352
#     4  12  22  36  59  88 125 160 186 241 319 376
#     4  12  22  37  56  91 122 154 197 248 300 381
#     4  10  20  35  56  86 117 151 197 240 288 356
#
# _framework density 17.630410999999999
#
# number of rings (size 3 to 8) (size 9 to 14) (size 15 to 20)
#    0.000    0.857    5.714    2.571    2.000    1.143 
#    0.000    0.000    0.000    0.000    0.000    0.000 
#    0.000    0.000    0.000    0.000    0.000    0.000 
#
# Total GULP energy -468366.724850 kJ/mol
# GULP energy per Si atom -5575.794343 kJ/mol
# Density = 1.759028 g / cm^3
# Si number density = 17.630411 Si / 1000 Ang^3
#
#
#
# Elastic Constant Matrix: (Units=GPa)
#
#
# Indices 1 2 3 4 5 6 
#
# 1 95.5943 42.4862 19.6810 0.0000 0.0000 0.0000
# 2 42.4862 95.5943 19.6810 0.0000 0.0000 0.0000
# 3 19.6810 19.6810 83.1273 0.0000 0.0000 0.0000
# 4 0.0000 0.0000 0.0000 21.0565 0.0000 0.0000
# 5 0.0000 0.0000 0.0000 0.0000 21.0565 0.0000
# 6 0.0000 0.0000 0.0000 0.0000 0.0000 26.5541
#
#
#
# Elastic Compliance Matrix: (Units=1/GPa)
#
#
# Indices 1 2 3 4 5 6 
#
# 1 0.013298 -0.005532 -0.001839 0.000000 0.000000 0.000000
# 2 -0.005532 0.013298 -0.001839 0.000000 0.000000 0.000000
# 3 -0.001839 -0.001839 0.012900 0.000000 0.000000 0.000000
# 4 0.000000 0.000000 0.000000 0.047491 0.000000 0.000000
# 5 0.000000 0.000000 0.000000 0.000000 0.047491 0.000000
# 6 0.000000 0.000000 0.000000 0.000000 0.000000 0.037659
#
#
# Mechanical properties :
#
#
# Convention : Reuss Voigt Hill
#
# Bulk Modulus (GPa) = 47.44259 48.66804 48.05531
# Shear Modulus (GPa) = 25.30598 26.56461 25.93530
#
# Velocity S-wave (km/s) = 3.79272 3.88590 3.83959
# Velocity P-wave (km/s) = 6.79320 6.91362 6.85368
#
# Compressibility (1/GPa) = 0.02107811
#
# Stress axis : x y z
#
# Youngs Moduli (GPa) = 75.19978 75.19978 77.51693
#
# Poissons Ratio (x) = 0.41598 0.14253
# Poissons Ratio (y) = 0.41598 0.14253
# Poissons Ratio (z) = 0.13827 0.13827
#
# Static dielectric constant tensor:
#      x y z
#    x 1.624580 0.000000 0.000000 
#    y 0.000000 1.624580 0.000000 
#    z 0.000000 0.000000 1.611030 
# 
# From -- ./inp_files/4701.got.cif
#   From: 2010.05.17/outbox.cif.g08.bks.cpg/sg190_3_cif.got.tgz:4701.got - 2010.05.20 12:16:56.
