data_PCOD9586185
_publ_section_title
;
Structure prediction by ZEFSAII (Michael W. Deem and Ramdas Pophale) SiO2 
 PCOD9586185
Probable space group: P -6 2 M
;
_chemical_formula_sum "Si O2"
_cell_formula_units_Z 72
_cell_length_a 14.954707
_cell_length_b 14.954707
_cell_length_c 20.719700
_cell_angle_alpha 90.000000
_cell_angle_beta 90.000000
_cell_angle_gamma 120.000000
_cell_volume 4013.006949
_symmetry_space_group_name_H-M "P -6 2 M"
_symmetry_group_IT_number 189
_symmetry_cell_setting 'hexagonal'
loop_
_space_group_symop_operation_xyz
x,y,z
-x+y,-x,-z
-y,x-y,z
x,y,-z
-x+y,-x,z
-y,x-y,-z
x-y,-y,-z
-x,-x+y,-z
y,x,-z
y,x,z
x-y,-y,z
-x,-x+y,z
loop_
_atom_site_type_symbol
_atom_site_label
_atom_site_fract_x
_atom_site_fract_y
_atom_site_fract_z
Si Si1 0.246232 0.122362 0.643027
Si Si2 0.768789 0.191593 0.252218
Si Si3 0.875746 0.446502 0.071266
Si Si4 0.124007 0.773738 0.114269
Si Si5 0.112551 0.232926 0.000000
Si Si6 0.239380 0.118434 0.500000
Si Si7 0.415008 0.877944 0.785182
O O1 0.166742 0.166742 0.642742
O O2 0.338474 0.190751 0.691867
O O3 0.290421 0.132085 0.569982
O O4 0.185374 0.000000 0.659730
O O5 0.808212 0.173254 0.183832
O O6 0.646154 0.139582 0.240854
O O7 0.816807 0.313932 0.257598
O O8 0.859204 0.544282 0.082232
O O9 0.838991 0.388137 0.139825
O O10 0.000000 0.495095 0.069991
O O11 0.835578 0.399434 0.000000
O O12 0.165415 0.866353 0.063981
O O13 0.000000 0.720030 0.123251
O O14 0.196756 0.196756 0.000000
O O15 0.000000 0.136911 0.000000
O O16 0.195156 0.195156 0.500000
O O17 0.146371 0.000000 0.500000
O O18 0.457786 0.000000 0.784985
#
# Coordination Sequence:
#
# PCOD9586185 Si02
#       7
#    12  12  12  12   6   6  12
#     4  10  19  33  56  86 118 148 178 216 265 323
#     4  11  21  36  55  76 106 141 181 224 272 324
#     4   8  13  27  49  66  84 115 156 209 264 306
#     4   9  17  31  50  68  90 125 169 213 264 320
#     4  10  19  30  44  64  94 130 168 210 259 322
#     4   8  15  28  50  82 116 146 176 214 263 316
#     4  10  21  35  51  74 102 133 174 221 270 318
#
# _framework density 17.941658
#
# number of rings (size 3 to 8) (size 9 to 14) (size 15 to 20)
#    0.000    2.500    0.833    3.667    0.000    2.667 
#    1.500    0.000    0.000    3.000    0.000    4.667 
#    0.000    0.000    0.000    0.000    0.000    0.000 
#
# Total GULP energy -401193.828273 kJ/mol
# GULP energy per Si atom -5572.136504 kJ/mol
# Density = 1.790082 g / cm^3
# Si number density = 17.941658 Si / 1000 Ang^3
#
#
#
# Elastic Constant Matrix: (Units=GPa)
#
#
# Indices 1 2 3 4 5 6 
#
# 1 40.7724 0.8802 22.4149 0.0000 0.0000 0.0000
# 2 0.8802 40.7724 22.4149 0.0000 0.0000 0.0000
# 3 22.4149 22.4149 94.6653 0.0000 0.0000 0.0000
# 4 0.0000 0.0000 0.0000 15.7393 0.0000 0.0000
# 5 0.0000 0.0000 0.0000 0.0000 15.7393 0.0000
# 6 0.0000 0.0000 0.0000 0.0000 0.0000 19.9461
#
#
#
# Elastic Compliance Matrix: (Units=1/GPa)
#
#
# Indices 1 2 3 4 5 6 
#
# 1 0.028643 0.003576 -0.007629 0.000000 0.000000 0.000000
# 2 0.003576 0.028643 -0.007629 0.000000 0.000000 0.000000
# 3 -0.007629 -0.007629 0.014176 0.000000 0.000000 0.000000
# 4 0.000000 0.000000 0.000000 0.063535 0.000000 0.000000
# 5 0.000000 0.000000 0.000000 0.000000 0.063535 0.000000
# 6 0.000000 0.000000 0.000000 0.000000 0.000000 0.050135
#
#
# Mechanical properties :
#
#
# Convention : Reuss Voigt Hill
#
# Bulk Modulus (GPa) = 20.79058 29.73668 25.26363
# Shear Modulus (GPa) = 17.35718 18.98493 18.17106
#
# Velocity S-wave (km/s) = 3.11372 3.25645 3.18588
# Velocity P-wave (km/s) = 4.95379 5.54521 5.25782
#
# Compressibility (1/GPa) = 0.04809870
#
# Stress axis : x y z
#
# Youngs Moduli (GPa) = 34.91233 34.91233 70.54062
#
# Poissons Ratio (x) = -0.12483 0.53814
# Poissons Ratio (y) = -0.12483 0.53814
# Poissons Ratio (z) = 0.26634 0.26634
#
# Static dielectric constant tensor:
#      x y z
#    x 1.611150 0.000000 0.000000 
#    y 0.000000 1.611150 0.000000 
#    z 0.000000 0.000000 1.634110 
# 
# From -- ./inp_files/3441.got.cif
#   From: 2010.05.17/outbox.cif.g08.bks.cpg/sg189_2_cif.got.tgz:3441.got - 2010.05.20 12:14:34.
