data_PCOD9586668
_publ_section_title
;
Structure prediction by ZEFSAII (Michael W. Deem and Ramdas Pophale) SiO2 
 PCOD9586668
Probable space group: P -6 2 C
;
_chemical_formula_sum "Si O2"
_cell_formula_units_Z 72
_cell_length_a 21.964958
_cell_length_b 21.964958
_cell_length_c 7.644852
_cell_angle_alpha 90.000000
_cell_angle_beta 90.000000
_cell_angle_gamma 120.000000
_cell_volume 3194.187959
_symmetry_space_group_name_H-M "P -6 2 C"
_symmetry_group_IT_number 190
_symmetry_cell_setting 'hexagonal'
loop_
_space_group_symop_operation_xyz
x,y,z
-x+y,-x,1/2-z
-y,x-y,z
x,y,1/2-z
-x+y,-x,z
-y,x-y,1/2-z
x-y,-y,-z
-x,-x+y,-z
y,x,-z
y,x,1/2+z
x-y,-y,1/2+z
-x,-x+y,1/2+z
loop_
_atom_site_type_symbol
_atom_site_label
_atom_site_fract_x
_atom_site_fract_y
_atom_site_fract_z
Si Si1 0.556185 0.722617 0.047296
Si Si2 0.292096 0.578355 0.462392
Si Si3 0.206364 0.920404 0.944930
Si Si4 0.918199 0.705561 0.461505
Si Si5 0.344889 0.428280 0.540610
Si Si6 0.916469 0.439349 0.460001
O O1 0.571790 0.743464 0.250000
O O2 0.629449 0.751052 0.950745
O O3 0.626286 0.893486 0.027081
O O4 0.514101 0.637888 0.039226
O O5 0.372662 0.630876 0.514605
O O6 0.290405 0.574528 0.250000
O O7 0.243716 0.499656 0.526899
O O8 0.186474 0.927588 0.750000
O O9 0.132946 0.864988 0.034284
O O10 0.255291 0.000000 0.000000
O O11 0.911789 0.699968 0.250000
O O12 0.000000 0.755124 0.500000
O O13 0.341164 0.433647 0.750000
O O14 0.386749 0.386749 0.500000
O O15 0.397706 0.506543 0.473234
O O16 0.908224 0.432965 0.250000
O O17 0.000000 0.476347 0.500000
#
# Coordination Sequence:
#
# PCOD9586668 Si02
#       6
#    12  12  12  12  12  12
#     4  11  21  33  53  78 105 145 193 238 284 332
#     4   7  14  31  51  72 101 136 182 238 286 332
#     4  11  24  41  59  83 117 152 186 225 271 327
#     4   9  19  37  62  89 115 143 177 223 276 332
#     4   8  15  29  49  75 105 136 171 216 269 321
#     4  10  19  31  47  69 103 144 185 230 278 332
#
# _framework density 22.540939999999999
#
# number of rings (size 3 to 8) (size 9 to 14) (size 15 to 20)
#    0.333    2.333    0.000    2.000    0.000    3.333 
#    0.000    0.000    0.000    3.333    0.000    0.000 
#    0.000    0.000    0.000    0.000    0.000    0.000 
#
# Total GULP energy -401651.056371 kJ/mol
# GULP energy per Si atom -5578.486894 kJ/mol
# Density = 2.248964 g / cm^3
# Si number density = 22.540940 Si / 1000 Ang^3
#
#
#
# Elastic Constant Matrix: (Units=GPa)
#
#
# Indices 1 2 3 4 5 6 
#
# 1 116.8638 38.3905 -4.6108 0.0000 0.0000 0.0000
# 2 38.3905 116.8638 -4.6108 0.0000 0.0000 0.0000
# 3 -4.6108 -4.6108 61.0906 0.0000 0.0000 0.0000
# 4 0.0000 0.0000 0.0000 6.8802 0.0000 0.0000
# 5 0.0000 0.0000 0.0000 0.0000 6.8802 0.0000
# 6 0.0000 0.0000 0.0000 0.0000 0.0000 39.2367
#
#
#
# Elastic Compliance Matrix: (Units=1/GPa)
#
#
# Indices 1 2 3 4 5 6 
#
# 1 0.009607 -0.003137 0.000488 0.000000 0.000000 0.000000
# 2 -0.003137 0.009607 0.000488 0.000000 0.000000 0.000000
# 3 0.000488 0.000488 0.016443 0.000000 0.000000 0.000000
# 4 0.000000 0.000000 0.000000 0.145344 0.000000 0.000000
# 5 0.000000 0.000000 0.000000 0.000000 0.145344 0.000000
# 6 0.000000 0.000000 0.000000 0.000000 0.000000 0.025486
#
#
# Mechanical properties :
#
#
# Convention : Reuss Voigt Hill
#
# Bulk Modulus (GPa) = 31.91189 39.23953 35.57571
# Shear Modulus (GPa) = 13.63901 28.30939 20.97420
#
# Velocity S-wave (km/s) = 2.46250 3.54773 3.05371
# Velocity P-wave (km/s) = 4.71945 5.85045 5.31512
#
# Compressibility (1/GPa) = 0.03133628
#
# Stress axis : x y z
#
# Youngs Moduli (GPa) = 104.09494 104.09494 60.81668
#
# Poissons Ratio (x) = 0.32650 -0.02970
# Poissons Ratio (y) = 0.32650 -0.02970
# Poissons Ratio (z) = -0.05083 -0.05083
#
# Static dielectric constant tensor:
#      x y z
#    x 1.881940 0.000000 0.000000 
#    y 0.000000 1.881940 0.000000 
#    z 0.000000 0.000000 1.852210 
# 
# From -- ./inp_files/1185.got.cif
#   From: 2010.05.17/outbox.cif.g08.bks.cpg/sg190_1_cif.got.tgz:1185.got - 2010.05.20 12:16:56.
