data_PCOD9586925
_publ_section_title
;
Structure prediction by ZEFSAII (Michael W. Deem and Ramdas Pophale) SiO2 
 PCOD9586925
Probable space group: P -6 2 C
;
_chemical_formula_sum "Si O2"
_cell_formula_units_Z 60
_cell_length_a 14.479413
_cell_length_b 14.479413
_cell_length_c 14.742245
_cell_angle_alpha 90.000000
_cell_angle_beta 90.000000
_cell_angle_gamma 120.000000
_cell_volume 2676.678236
_symmetry_space_group_name_H-M "P -6 2 C"
_symmetry_group_IT_number 190
_symmetry_cell_setting 'hexagonal'
loop_
_space_group_symop_operation_xyz
x,y,z
-x+y,-x,1/2-z
-y,x-y,z
x,y,1/2-z
-x+y,-x,z
-y,x-y,1/2-z
x-y,-y,-z
-x,-x+y,-z
y,x,-z
y,x,1/2+z
x-y,-y,1/2+z
-x,-x+y,1/2+z
loop_
_atom_site_type_symbol
_atom_site_label
_atom_site_fract_x
_atom_site_fract_y
_atom_site_fract_z
Si Si1 0.278649 0.277514 0.390506
Si Si2 0.244458 0.861175 0.651844
Si Si3 0.478616 0.850793 0.354395
Si Si4 0.942961 0.166473 0.911426
Si Si5 0.831973 0.301865 0.535775
O O1 0.281237 0.281237 0.500000
O O2 0.350580 0.229294 0.358641
O O3 0.330533 0.396406 0.353450
O O4 0.151238 0.209927 0.367423
O O5 0.288804 0.860770 0.750000
O O6 0.310775 0.844114 0.572201
O O7 0.230487 0.965829 0.644143
O O8 0.442463 0.819997 0.250000
O O9 0.471844 0.756558 0.418409
O O10 0.409972 0.893177 0.407004
O O11 0.878054 0.223154 0.947082
O O12 0.000000 0.150920 0.000000
#
# Coordination Sequence:
#
# PCOD9586925 Si02
#       5
#    12  12  12  12  12
#     4  11  20  40  66  94 132 170 210 272 331 388
#     4  11  23  42  63  93 136 177 214 261 323 398
#     4  11  22  38  66  96 125 161 215 277 331 382
#     4   9  19  38  63  87 123 169 214 263 323 380
#     4  10  22  41  63  94 127 164 213 275 327 378
#
# _framework density 22.415842000000001
#
# number of rings (size 3 to 8) (size 9 to 14) (size 15 to 20)
#    0.000    1.600    6.000    1.600    0.000    7.200 
#    1.200    2.000    0.000    0.000    0.000    0.000 
#    0.000    0.000    0.000    0.000    0.000    0.000 
#
# Total GULP energy -334593.465220 kJ/mol
# GULP energy per Si atom -5576.557754 kJ/mol
# Density = 2.236482 g / cm^3
# Si number density = 22.415842 Si / 1000 Ang^3
#
#
#
# Elastic Constant Matrix: (Units=GPa)
#
#
# Indices 1 2 3 4 5 6 
#
# 1 54.3834 15.6560 24.8924 0.0000 0.0000 0.0000
# 2 15.6560 54.3834 24.8924 0.0000 0.0000 0.0000
# 3 24.8924 24.8924 194.1179 0.0000 0.0000 0.0000
# 4 0.0000 0.0000 0.0000 6.3590 0.0000 0.0000
# 5 0.0000 0.0000 0.0000 0.0000 6.3590 0.0000
# 6 0.0000 0.0000 0.0000 0.0000 0.0000 19.3637
#
#
#
# Elastic Compliance Matrix: (Units=1/GPa)
#
#
# Indices 1 2 3 4 5 6 
#
# 1 0.020766 -0.005056 -0.002014 0.000000 0.000000 0.000000
# 2 -0.005056 0.020766 -0.002014 0.000000 0.000000 0.000000
# 3 -0.002014 -0.002014 0.005668 0.000000 0.000000 0.000000
# 4 0.000000 0.000000 0.000000 0.157256 0.000000 0.000000
# 5 0.000000 0.000000 0.000000 0.000000 0.157256 0.000000
# 6 0.000000 0.000000 0.000000 0.000000 0.000000 0.051643
#
#
# Mechanical properties :
#
#
# Convention : Reuss Voigt Hill
#
# Bulk Modulus (GPa) = 34.44785 48.19624 41.32205
# Shear Modulus (GPa) = 11.33269 22.24594 16.78931
#
# Velocity S-wave (km/s) = 2.25092 3.15369 2.73974
# Velocity P-wave (km/s) = 4.70707 5.89989 5.33691
#
# Compressibility (1/GPa) = 0.02902938
#
# Stress axis : x y z
#
# Youngs Moduli (GPa) = 48.15662 48.15662 176.42410
#
# Poissons Ratio (x) = 0.24348 0.35541
# Poissons Ratio (y) = 0.24348 0.35541
# Poissons Ratio (z) = 0.09701 0.09701
#
# Static dielectric constant tensor:
#      x y z
#    x 1.876960 0.000000 0.000000 
#    y 0.000000 1.876960 0.000000 
#    z 0.000000 0.000000 1.901830 
# 
# From -- ./inp_files/2820.got.cif
#   From: 2010.05.17/outbox.cif.g08.bks.cpg/sg190_2_cif.got.tgz:2820.got - 2010.05.20 12:16:56.
