data_PCOD9586006
_publ_section_title
;
Structure prediction by ZEFSAII (Michael W. Deem and Ramdas Pophale) SiO2 
 PCOD9586006
Probable space group: P -6 C 2
;
_chemical_formula_sum "Si O2"
_cell_formula_units_Z 44
_cell_length_a 13.092421
_cell_length_b 13.092421
_cell_length_c 15.156888
_cell_angle_alpha 90.000000
_cell_angle_beta 90.000000
_cell_angle_gamma 120.000000
_cell_volume 2249.990048
_symmetry_space_group_name_H-M "P -6 C 2"
_symmetry_group_IT_number 188
_symmetry_cell_setting 'hexagonal'
loop_
_space_group_symop_operation_xyz
x,y,z
-x+y,-x,1/2-z
-y,x-y,z
x,y,1/2-z
-x+y,-x,z
-y,x-y,1/2-z
-y,-x,-z
-x+y,y,-z
x,x-y,-z
-x+y,y,1/2+z
x,x-y,1/2+z
-y,-x,1/2+z
loop_
_atom_site_type_symbol
_atom_site_label
_atom_site_fract_x
_atom_site_fract_y
_atom_site_fract_z
Si Si1 0.805608 0.051957 0.912842
Si Si2 0.378239 0.469611 0.581684
Si Si3 0.533722 0.475284 0.250000
Si Si4 0.000000 0.000000 0.394467
Si Si5 0.333335 0.666667 0.855995
Si Si6 0.797705 0.597500 0.750000
O O1 0.810648 0.139957 0.837638
O O2 0.876677 0.991184 0.872287
O O3 0.669319 0.959526 0.934170
O O4 0.874366 0.125635 0.000000
O O5 0.463758 0.536243 0.500000
O O6 0.458758 0.478230 0.664922
O O7 0.313524 0.542510 0.607837
O O8 0.442295 0.338146 0.250000
O O9 0.664540 0.492384 0.250000
O O10 0.000000 0.000000 0.500000
O O11 0.333334 0.666668 0.750000
#
# Coordination Sequence:
#
# PCOD9586006 Si02
#       6
#    12  12   6   4   4   6
#     4  10  22  40  62  90 122 159 204 252 306 369
#     4  11  23  40  64  90 124 164 207 257 315 369
#     4  10  21  38  58  90 123 160 206 254 306 372
#     4   9  21  40  59  85 121 149 193 250 296 355
#     4  12  25  44  61  91 128 163 211 263 313 382
#     4  10  21  36  60  86 121 160 200 250 302 362
#
# _framework density 19.555641000000001
#
# number of rings (size 3 to 8) (size 9 to 14) (size 15 to 20)
#    0.000    1.636    1.364    2.727    0.000    9.818 
#    0.000    0.000    0.000    8.727    0.000    0.000 
#    0.000    0.000    0.000    0.000    0.000    0.000 
#
# Total GULP energy -245708.790007 kJ/mol
# GULP energy per Si atom -5584.290682 kJ/mol
# Density = 1.951113 g / cm^3
# Si number density = 19.555641 Si / 1000 Ang^3
#
#
#
# Elastic Constant Matrix: (Units=GPa)
#
#
# Indices 1 2 3 4 5 6 
#
# 1 120.2742 69.0033 27.1812 -0.0001 0.0000 0.0001
# 2 69.0033 120.2745 27.1813 0.0002 0.0000 0.0002
# 3 27.1812 27.1813 104.8920 0.0000 -0.0001 0.0001
# 4 -0.0001 0.0002 0.0000 7.4138 0.0000 0.0000
# 5 0.0000 0.0000 -0.0001 0.0000 7.4137 -0.0001
# 6 0.0001 0.0002 0.0001 0.0000 -0.0001 25.6357
#
#
#
# Elastic Compliance Matrix: (Units=1/GPa)
#
#
# Indices 1 2 3 4 5 6 
#
# 1 0.012606 -0.006898 -0.001479 0.000000 0.000000 0.000000
# 2 -0.006898 0.012606 -0.001479 0.000000 0.000000 0.000000
# 3 -0.001479 -0.001479 0.010300 0.000000 0.000000 0.000000
# 4 0.000000 0.000000 0.000000 0.134884 0.000000 0.000000
# 5 0.000000 0.000000 0.000000 0.000000 0.134886 0.000000
# 6 0.000000 0.000000 0.000000 0.000000 0.000000 0.039008
#
#
# Mechanical properties :
#
#
# Convention : Reuss Voigt Hill
#
# Bulk Modulus (GPa) = 63.29230 65.79694 64.54462
# Shear Modulus (GPa) = 13.54024 22.89762 18.21893
#
# Velocity S-wave (km/s) = 2.63420 3.42555 3.05560
# Velocity P-wave (km/s) = 6.45658 7.02602 6.74731
#
# Compressibility (1/GPa) = 0.01579971
#
# Stress axis : x y z
#
# Youngs Moduli (GPa) = 79.32644 79.32663 97.08525
#
# Poissons Ratio (x) = 0.54720 0.14360
# Poissons Ratio (y) = 0.54720 0.14361
# Poissons Ratio (z) = 0.11734 0.11734
#
# Static dielectric constant tensor:
#      x y z
#    x 1.703230 0.000000 0.000000 
#    y 0.000000 1.703230 0.000000 
#    z 0.000000 0.000000 1.667980 
# 
# From -- ./inp_files/2951.got.cif
#   From: 2010.05.17/outbox.cif.g08.bks.cpg/sg188_2_cif.got.tgz:2951.got - 2010.05.20 12:11:46.
