data_PCOD9586420
_publ_section_title
;
Structure prediction by ZEFSAII (Michael W. Deem and Ramdas Pophale) SiO2 
 PCOD9586420
Probable space group: P -6 2 M
;
_chemical_formula_sum "Si O2"
_cell_formula_units_Z 66
_cell_length_a 22.283600
_cell_length_b 22.283600
_cell_length_c 8.355792
_cell_angle_alpha 90.000000
_cell_angle_beta 90.000000
_cell_angle_gamma 120.000000
_cell_volume 3593.262628
_symmetry_space_group_name_H-M "P -6 2 M"
_symmetry_group_IT_number 189
_symmetry_cell_setting 'hexagonal'
loop_
_space_group_symop_operation_xyz
x,y,z
-x+y,-x,-z
-y,x-y,z
x,y,-z
-x+y,-x,z
-y,x-y,-z
x-y,-y,-z
-x,-x+y,-z
y,x,-z
y,x,z
x-y,-y,z
-x,-x+y,z
loop_
_atom_site_type_symbol
_atom_site_label
_atom_site_fract_x
_atom_site_fract_y
_atom_site_fract_z
Si Si1 0.917156 0.575273 0.317362
Si Si2 0.919910 0.707886 0.191131
Si Si3 0.158497 0.586452 0.816634
Si Si4 0.343200 0.920671 0.808807
Si Si5 0.919924 0.212025 0.309485
Si Si6 0.637873 0.246539 0.500000
O O1 0.892920 0.551971 0.500000
O O2 0.897425 0.632375 0.263721
O O3 0.892364 0.510295 0.200828
O O4 0.000000 0.615721 0.318444
O O5 0.862650 0.728000 0.239884
O O6 0.000000 0.760382 0.242638
O O7 0.920426 0.702525 0.000000
O O8 0.121722 0.504410 0.779885
O O9 0.209609 0.623444 0.669921
O O10 0.185225 0.597444 0.000000
O O11 0.268531 0.896797 0.733250
O O12 0.392748 0.000000 0.754586
O O13 0.334341 0.920772 0.000000
O O14 0.920377 0.206095 0.500000
O O15 0.000000 0.245430 0.251391
O O16 0.591607 0.283495 0.500000
#
# Coordination Sequence:
#
# PCOD9586420 Si02
#       6
#    12  12  12  12  12   6
#     4  10  20  35  58  89 123 154 189 238 298 357
#     4  10  21  37  58  86 119 156 196 240 290 346
#     4  11  22  39  64  87 111 154 202 246 305 364
#     4   9  19  35  56  86 119 147 184 236 292 351
#     4  10  21  36  57  87 120 155 192 236 290 350
#     4  10  26  46  57  74 108 144 194 256 300 344
#
# _framework density 18.367708
#
# number of rings (size 3 to 8) (size 9 to 14) (size 15 to 20)
#    0.182    1.818    0.909    2.182    1.273    6.182 
#    0.000    1.818    0.000    0.364    0.000    0.000 
#    0.000    0.000    0.000    0.000    0.000    0.000 
#
# Total GULP energy -367845.844413 kJ/mol
# GULP energy per Si atom -5573.421885 kJ/mol
# Density = 1.832590 g / cm^3
# Si number density = 18.367708 Si / 1000 Ang^3
#
#
#
# Elastic Constant Matrix: (Units=GPa)
#
#
# Indices 1 2 3 4 5 6 
#
# 1 74.5707 30.5603 20.5828 0.0000 0.0000 0.0000
# 2 30.5603 74.5707 20.5828 0.0000 0.0000 0.0000
# 3 20.5828 20.5828 61.8527 0.0000 0.0000 0.0000
# 4 0.0000 0.0000 0.0000 6.3247 0.0000 0.0000
# 5 0.0000 0.0000 0.0000 0.0000 6.3247 0.0000
# 6 0.0000 0.0000 0.0000 0.0000 0.0000 22.0052
#
#
#
# Elastic Compliance Matrix: (Units=1/GPa)
#
#
# Indices 1 2 3 4 5 6 
#
# 1 0.016829 -0.005892 -0.003640 0.000000 0.000000 0.000000
# 2 -0.005892 0.016829 -0.003640 0.000000 0.000000 0.000000
# 3 -0.003640 -0.003640 0.018590 0.000000 0.000000 0.000000
# 4 0.000000 0.000000 0.000000 0.158110 0.000000 0.000000
# 5 0.000000 0.000000 0.000000 0.000000 0.158110 0.000000
# 6 0.000000 0.000000 0.000000 0.000000 0.000000 0.045444
#
#
# Mechanical properties :
#
#
# Convention : Reuss Voigt Hill
#
# Bulk Modulus (GPa) = 38.60159 39.38288 38.99223
# Shear Modulus (GPa) = 11.13856 16.21546 13.67701
#
# Velocity S-wave (km/s) = 2.46523 2.97446 2.73174
# Velocity P-wave (km/s) = 5.40044 5.76927 5.58790
#
# Compressibility (1/GPa) = 0.02590567
#
# Stress axis : x y z
#
# Youngs Moduli (GPa) = 59.41950 59.41950 53.79325
#
# Poissons Ratio (x) = 0.35013 0.19578
# Poissons Ratio (y) = 0.35013 0.19578
# Poissons Ratio (z) = 0.21626 0.21626
#
# Static dielectric constant tensor:
#      x y z
#    x 1.641660 0.000000 0.000000 
#    y 0.000000 1.641660 0.000000 
#    z 0.000000 0.000000 1.629250 
# 
# From -- ./inp_files/1062.got.cif
#   From: 2010.05.17/outbox.cif.g08.bks.cpg/sg189_1_cif.got.tgz:1062.got - 2010.05.20 12:14:34.
