data_PCOD9586554
_publ_section_title
;
Structure prediction by ZEFSAII (Michael W. Deem and Ramdas Pophale) SiO2 
 PCOD9586554
Probable space group: P -6 2 M
;
_chemical_formula_sum "Si O2"
_cell_formula_units_Z 60
_cell_length_a 21.797393
_cell_length_b 21.797393
_cell_length_c 8.528146
_cell_angle_alpha 90.000000
_cell_angle_beta 90.000000
_cell_angle_gamma 120.000000
_cell_volume 3509.088872
_symmetry_space_group_name_H-M "P -6 2 M"
_symmetry_group_IT_number 189
_symmetry_cell_setting 'hexagonal'
loop_
_space_group_symop_operation_xyz
x,y,z
-x+y,-x,-z
-y,x-y,z
x,y,-z
-x+y,-x,z
-y,x-y,-z
x-y,-y,-z
-x,-x+y,-z
y,x,-z
y,x,z
x-y,-y,z
-x,-x+y,z
loop_
_atom_site_type_symbol
_atom_site_label
_atom_site_fract_x
_atom_site_fract_y
_atom_site_fract_z
Si Si1 0.917096 0.552894 0.309944
Si Si2 0.287454 0.919117 0.187581
Si Si3 0.214933 0.214933 0.689051
Si Si4 0.923466 0.000000 0.689915
Si Si5 0.914255 0.416188 0.320380
Si Si6 0.211728 0.351593 0.188302
O O1 0.916536 0.553147 0.500000
O O2 0.893056 0.472711 0.258883
O O3 0.868647 0.582909 0.246266
O O4 0.000000 0.604198 0.262590
O O5 0.346052 0.896975 0.227634
O O6 0.210879 0.858404 0.245257
O O7 0.317644 0.000000 0.248282
O O8 0.283019 0.922429 0.000000
O O9 0.216472 0.216472 0.500000
O O10 0.144845 0.144845 0.748389
O O11 0.212559 0.282847 0.749083
O O12 0.920260 0.000000 0.500000
O O13 0.933480 0.933480 0.735222
O O14 0.889667 0.397242 0.500000
O O15 0.000000 0.462217 0.323973
O O16 0.211145 0.350966 0.000000
#
# Coordination Sequence:
#
# PCOD9586554 Si02
#       6
#    12  12   6   6  12  12
#     4   9  17  31  51  75 101 128 158 199 253 301
#     4   9  19  35  51  71 102 139 173 210 257 306
#     4  11  21  33  51  73  99 132 171 222 275 313
#     4   7  14  31  51  69  89 118 167 224 271 319
#     4   8  15  29  51  76  98 120 153 198 243 295
#     4  11  22  33  48  73 105 138 174 213 257 311
#
# _framework density 17.098455000000001
#
# number of rings (size 3 to 8) (size 9 to 14) (size 15 to 20)
#    0.200    2.600    1.000    2.100    0.000    3.200 
#    0.000    2.000    0.000    2.600    0.000    0.000 
#    0.000    0.000    0.000    0.000    0.000    0.000 
#
# Total GULP energy -334017.697983 kJ/mol
# GULP energy per Si atom -5566.961633 kJ/mol
# Density = 1.705954 g / cm^3
# Si number density = 17.098455 Si / 1000 Ang^3
#
#
#
# Elastic Constant Matrix: (Units=GPa)
#
#
# Indices 1 2 3 4 5 6 
#
# 1 120.2380 80.1908 18.1684 0.0000 0.0000 0.0000
# 2 80.1908 120.2380 18.1684 0.0000 0.0000 0.0000
# 3 18.1684 18.1684 14.1914 0.0000 0.0000 0.0000
# 4 0.0000 0.0000 0.0000 20.0096 0.0000 0.0000
# 5 0.0000 0.0000 0.0000 0.0000 20.0096 0.0000
# 6 0.0000 0.0000 0.0000 0.0000 0.0000 20.0236
#
#
#
# Elastic Compliance Matrix: (Units=1/GPa)
#
#
# Indices 1 2 3 4 5 6 
#
# 1 0.015734 -0.009237 -0.008318 0.000000 0.000000 0.000000
# 2 -0.009237 0.015734 -0.008318 0.000000 0.000000 0.000000
# 3 -0.008318 -0.008318 0.091763 0.000000 0.000000 0.000000
# 4 0.000000 0.000000 0.000000 0.049976 0.000000 0.000000
# 5 0.000000 0.000000 0.000000 0.000000 0.049976 0.000000
# 6 0.000000 0.000000 0.000000 0.000000 0.000000 0.049941
#
#
# Mechanical properties :
#
#
# Convention : Reuss Voigt Hill
#
# Bulk Modulus (GPa) = 13.98884 54.19141 34.09013
# Shear Modulus (GPa) = 14.33903 21.21788 17.77846
#
# Velocity S-wave (km/s) = 2.89903 3.52650 3.22804
# Velocity P-wave (km/s) = 4.40510 6.95299 5.82018
#
# Compressibility (1/GPa) = 0.07148554
#
# Stress axis : x y z
#
# Youngs Moduli (GPa) = 63.55686 63.55686 10.89759
#
# Poissons Ratio (x) = 0.58705 0.09065
# Poissons Ratio (y) = 0.58705 0.09065
# Poissons Ratio (z) = 0.52867 0.52867
#
# Static dielectric constant tensor:
#      x y z
#    x 1.591160 0.000000 0.000000 
#    y 0.000000 1.591160 0.000000 
#    z 0.000000 0.000000 1.590940 
# 
# From -- ./inp_files/988.got.cif
#   From: 2010.05.17/outbox.cif.g08.bks.cpg/sg189_1_cif.got.tgz:988.got - 2010.05.20 12:14:34.
