data_PCOD9586497
_publ_section_title
;
Structure prediction by ZEFSAII (Michael W. Deem and Ramdas Pophale) SiO2 
 PCOD9586497
Probable space group: P -6 2 M
;
_chemical_formula_sum "Si O2"
_cell_formula_units_Z 72
_cell_length_a 24.074389
_cell_length_b 24.074389
_cell_length_c 9.352425
_cell_angle_alpha 90.000000
_cell_angle_beta 90.000000
_cell_angle_gamma 120.000000
_cell_volume 4694.241334
_symmetry_space_group_name_H-M "P -6 2 M"
_symmetry_group_IT_number 189
_symmetry_cell_setting 'hexagonal'
loop_
_space_group_symop_operation_xyz
x,y,z
-x+y,-x,-z
-y,x-y,z
x,y,-z
-x+y,-x,z
-y,x-y,-z
x-y,-y,-z
-x,-x+y,-z
y,x,-z
y,x,z
x-y,-y,z
-x,-x+y,z
loop_
_atom_site_type_symbol
_atom_site_label
_atom_site_fract_x
_atom_site_fract_y
_atom_site_fract_z
Si Si1 0.151965 0.075967 0.829515
Si Si2 0.073648 0.711840 0.326082
Si Si3 0.593654 0.515788 0.833807
Si Si4 0.639951 0.717195 0.168320
Si Si5 0.592557 0.078223 0.665511
Si Si6 0.139162 0.288157 0.327864
O O1 0.111828 0.111828 0.798871
O O2 0.217600 0.107081 0.740916
O O3 0.109488 0.000000 0.799354
O O4 0.166443 0.082745 0.000000
O O5 0.072653 0.708571 0.500000
O O6 0.097908 0.663253 0.277675
O O7 0.114525 0.785750 0.286954
O O8 0.000000 0.682413 0.278783
O O9 0.554495 0.554495 0.825562
O O10 0.665366 0.567399 0.785290
O O11 0.551296 0.450548 0.748741
O O12 0.596768 0.501947 0.000000
O O13 0.680838 0.680838 0.176432
O O14 0.674202 0.779888 0.263879
O O15 0.638811 0.732708 0.000000
O O16 0.597062 0.096887 0.500000
O O17 0.554383 0.000000 0.669809
O O18 0.134054 0.283566 0.500000
#
# Coordination Sequence:
#
# PCOD9586497 Si02
#       6
#    12  12  12  12  12  12
#     4  10  21  37  54  68  84 112 154 203 255 309
#     4   8  15  28  43  60  87 120 146 172 216 270
#     4   8  14  25  41  61  85 111 137 167 204 244
#     4   9  18  32  46  60  86 123 153 179 220 273
#     4   8  13  23  41  62  83 109 138 164 195 242
#     4  11  21  31  46  68  93 120 152 191 234 281
#
# _framework density 15.337942999999999
#
# number of rings (size 3 to 8) (size 9 to 14) (size 15 to 20)
#    0.000    3.000    0.000    3.667    0.000    5.000 
#    0.000    3.333    0.000    5.000    0.000    0.000 
#    1.667    0.000    1.000    0.000    1.333    0.000 
#
# Total GULP energy -400832.466977 kJ/mol
# GULP energy per Si atom -5567.117597 kJ/mol
# Density = 1.530303 g / cm^3
# Si number density = 15.337943 Si / 1000 Ang^3
#
#
#
# Elastic Constant Matrix: (Units=GPa)
#
#
# Indices 1 2 3 4 5 6 
#
# 1 108.1892 65.6669 51.6226 0.0000 0.0000 0.0000
# 2 65.6669 108.1892 51.6226 0.0000 0.0000 0.0000
# 3 51.6226 51.6226 45.5240 0.0000 0.0000 0.0000
# 4 0.0000 0.0000 0.0000 21.8760 0.0000 0.0000
# 5 0.0000 0.0000 0.0000 0.0000 21.8760 0.0000
# 6 0.0000 0.0000 0.0000 0.0000 0.0000 21.2611
#
#
#
# Elastic Compliance Matrix: (Units=1/GPa)
#
#
# Indices 1 2 3 4 5 6 
#
# 1 0.020565 -0.002953 -0.019971 0.000000 0.000000 0.000000
# 2 -0.002953 0.020565 -0.019971 0.000000 0.000000 0.000000
# 3 -0.019971 -0.019971 0.067260 0.000000 0.000000 0.000000
# 4 0.000000 0.000000 0.000000 0.045712 0.000000 0.000000
# 5 0.000000 0.000000 0.000000 0.000000 0.045712 0.000000
# 6 0.000000 0.000000 0.000000 0.000000 0.000000 0.047034
#
#
# Mechanical properties :
#
#
# Convention : Reuss Voigt Hill
#
# Bulk Modulus (GPa) = 44.25057 66.63630 55.44344
# Shear Modulus (GPa) = 14.69849 19.20197 16.95023
#
# Velocity S-wave (km/s) = 3.09901 3.54210 3.32794
# Velocity P-wave (km/s) = 6.45896 7.76327 7.14096
#
# Compressibility (1/GPa) = 0.02259858
#
# Stress axis : x y z
#
# Youngs Moduli (GPa) = 48.62741 48.62741 14.86767
#
# Poissons Ratio (x) = 0.14358 0.29693
# Poissons Ratio (y) = 0.14358 0.29693
# Poissons Ratio (z) = 0.97115 0.97115
#
# Static dielectric constant tensor:
#      x y z
#    x 1.509950 0.000000 0.000000 
#    y 0.000000 1.509950 0.000000 
#    z 0.000000 0.000000 1.512190 
# 
# From -- ./inp_files/1277.got.cif
#   From: 2010.05.17/outbox.cif.g08.bks.cpg/sg189_1_cif.got.tgz:1277.got - 2010.05.20 12:14:34.
