data_PCOD9586642
_publ_section_title
;
Structure prediction by ZEFSAII (Michael W. Deem and Ramdas Pophale) SiO2 
 PCOD9586642
Probable space group: P -6 2 C
;
_chemical_formula_sum "Si O2"
_cell_formula_units_Z 84
_cell_length_a 17.695348
_cell_length_b 17.695348
_cell_length_c 14.511948
_cell_angle_alpha 90.000000
_cell_angle_beta 90.000000
_cell_angle_gamma 120.000000
_cell_volume 3935.270239
_symmetry_space_group_name_H-M "P -6 2 C"
_symmetry_group_IT_number 190
_symmetry_cell_setting 'hexagonal'
loop_
_space_group_symop_operation_xyz
x,y,z
-x+y,-x,1/2-z
-y,x-y,z
x,y,1/2-z
-x+y,-x,z
-y,x-y,1/2-z
x-y,-y,-z
-x,-x+y,-z
y,x,-z
y,x,1/2+z
x-y,-y,1/2+z
-x,-x+y,1/2+z
loop_
_atom_site_type_symbol
_atom_site_label
_atom_site_fract_x
_atom_site_fract_y
_atom_site_fract_z
Si Si1 0.226276 0.305652 0.137620
Si Si2 0.410214 0.013521 0.103680
Si Si3 0.256532 0.795624 0.647861
Si Si4 0.258114 0.152467 0.144473
Si Si5 0.619326 0.455218 0.852091
Si Si6 0.203496 0.717511 0.048193
Si Si7 0.242259 0.026666 0.638652
O O1 0.240411 0.323234 0.250000
O O2 0.252847 0.234546 0.108699
O O3 0.273798 0.394456 0.079158
O O4 0.123204 0.262861 0.118042
O O5 0.462371 0.114097 0.134071
O O6 0.419690 0.939406 0.154998
O O7 0.308364 0.986250 0.108252
O O8 0.429399 0.000000 0.000000
O O9 0.255090 0.759409 0.750000
O O10 0.182467 0.824030 0.646932
O O11 0.231267 0.734601 0.558683
O O12 0.225881 0.144025 0.250000
O O13 0.208016 0.055439 0.102175
O O14 0.622347 0.423146 0.750000
O O15 0.562635 0.374664 0.917982
O O16 0.715783 0.508436 0.894186
O O17 0.239683 0.018784 0.750000
#
# Coordination Sequence:
#
# PCOD9586642 Si02
#       7
#    12  12  12  12  12  12  12
#     4  10  18  34  57  89 131 172 217 269 333 398
#     4  11  19  37  66  97 125 166 220 271 324 403
#     4  10  21  42  66  91 128 174 221 272 327 397
#     4   8  17  32  54  86 124 169 215 263 321 385
#     4  12  24  42  66  99 135 167 216 278 343 404
#     4  12  25  42  66  96 129 174 219 272 348 413
#     4   9  16  30  56  86 124 172 217 261 319 396
#
# _framework density 21.345420000000001
#
# number of rings (size 3 to 8) (size 9 to 14) (size 15 to 20)
#    0.000    1.714    2.857    3.714    0.000    0.571 
#    3.429    0.714    0.000    0.000    0.000    0.000 
#    0.000    0.000    0.000    0.000    0.000    0.000 
#
# Total GULP energy -468954.173616 kJ/mol
# GULP energy per Si atom -5582.787781 kJ/mol
# Density = 2.129684 g / cm^3
# Si number density = 21.345420 Si / 1000 Ang^3
#
#
#
# Elastic Constant Matrix: (Units=GPa)
#
#
# Indices 1 2 3 4 5 6 
#
# 1 51.6556 -3.8327 20.1489 0.0000 0.0000 0.0000
# 2 -3.8327 51.6556 20.1489 0.0000 0.0000 0.0000
# 3 20.1489 20.1489 124.6456 0.0000 0.0000 0.0000
# 4 0.0000 0.0000 0.0000 21.5633 0.0000 0.0000
# 5 0.0000 0.0000 0.0000 0.0000 21.5633 0.0000
# 6 0.0000 0.0000 0.0000 0.0000 0.0000 27.7442
#
#
#
# Elastic Compliance Matrix: (Units=1/GPa)
#
#
# Indices 1 2 3 4 5 6 
#
# 1 0.021115 0.003093 -0.003913 0.000000 0.000000 0.000000
# 2 0.003093 0.021115 -0.003913 0.000000 0.000000 0.000000
# 3 -0.003913 -0.003913 0.009288 0.000000 0.000000 0.000000
# 4 0.000000 0.000000 0.000000 0.046375 0.000000 0.000000
# 5 0.000000 0.000000 0.000000 0.000000 0.046375 0.000000
# 6 0.000000 0.000000 0.000000 0.000000 0.000000 0.036044
#
#
# Mechanical properties :
#
#
# Convention : Reuss Voigt Hill
#
# Bulk Modulus (GPa) = 23.78067 33.43188 28.60628
# Shear Modulus (GPa) = 24.53446 26.94028 25.73737
#
# Velocity S-wave (km/s) = 3.39396 3.55647 3.47617
# Velocity P-wave (km/s) = 5.15012 5.70622 5.43529
#
# Compressibility (1/GPa) = 0.04205095
#
# Stress axis : x y z
#
# Youngs Moduli (GPa) = 47.35997 47.35997 107.66713
#
# Poissons Ratio (x) = -0.14649 0.42132
# Poissons Ratio (y) = -0.14649 0.42132
# Poissons Ratio (z) = 0.18533 0.18533
#
# Static dielectric constant tensor:
#      x y z
#    x 1.769230 0.000000 0.000000 
#    y 0.000000 1.769230 0.000000 
#    z 0.000000 0.000000 1.824360 
# 
# From -- ./inp_files/3179.got.cif
#   From: 2010.05.17/outbox.cif.g08.bks.cpg/sg190_2_cif.got.tgz:3179.got - 2010.05.20 12:16:56.
