data_PCOD9586768
_publ_section_title
;
Structure prediction by ZEFSAII (Michael W. Deem and Ramdas Pophale) SiO2 
 PCOD9586768
Probable space group: P -6 2 C
;
_chemical_formula_sum "Si O2"
_cell_formula_units_Z 72
_cell_length_a 24.281371
_cell_length_b 24.281371
_cell_length_c 8.770607
_cell_angle_alpha 90.000000
_cell_angle_beta 90.000000
_cell_angle_gamma 120.000000
_cell_volume 4478.233066
_symmetry_space_group_name_H-M "P -6 2 C"
_symmetry_group_IT_number 190
_symmetry_cell_setting 'hexagonal'
loop_
_space_group_symop_operation_xyz
x,y,z
-x+y,-x,1/2-z
-y,x-y,z
x,y,1/2-z
-x+y,-x,z
-y,x-y,1/2-z
x-y,-y,-z
-x,-x+y,-z
y,x,-z
y,x,1/2+z
x-y,-y,1/2+z
-x,-x+y,1/2+z
loop_
_atom_site_type_symbol
_atom_site_label
_atom_site_fract_x
_atom_site_fract_y
_atom_site_fract_z
Si Si1 0.593832 0.733852 0.932036
Si Si2 0.136945 0.735876 0.933077
Si Si3 0.402653 0.930403 0.068517
Si Si4 0.070295 0.598866 0.066867
Si Si5 0.739184 0.930664 0.432684
Si Si6 0.741790 0.811422 0.566572
O O1 0.588170 0.724948 0.750000
O O2 0.580401 0.790826 0.970706
O O3 0.668014 0.760870 0.972104
O O4 0.548864 0.667263 0.010558
O O5 0.129692 0.734836 0.750000
O O6 0.117345 0.666940 0.995773
O O7 0.092098 0.760011 0.007511
O O8 0.402364 0.935170 0.250000
O O9 0.457059 0.913254 0.026691
O O10 0.425652 0.000000 0.000000
O O11 0.068752 0.603271 0.250000
O O12 0.000000 0.574414 0.000000
O O13 0.740196 0.931789 0.250000
O O14 0.755356 0.878025 0.495693
O O15 0.785719 0.000000 0.500000
O O16 0.746529 0.816707 0.750000
O O17 0.786450 0.786450 0.500000
#
# Coordination Sequence:
#
# PCOD9586768 Si02
#       6
#    12  12  12  12  12  12
#     4   9  19  33  50  72  99 128 161 199 241 287
#     4  10  20  34  51  73  99 129 163 202 245 293
#     4  10  20  32  49  72  99 129 162 198 240 287
#     4  10  20  33  49  72  99 129 162 199 242 290
#     4  11  21  34  52  74 101 133 165 203 246 291
#     4  10  20  34  51  75 103 132 166 203 244 292
#
# _framework density 16.077769
#
# number of rings (size 3 to 8) (size 9 to 14) (size 15 to 20)
#    0.000    2.000    0.000    5.500    0.000    7.333 
#    0.000    0.000    0.000    1.000    0.000    2.333 
#    0.000    0.000    0.000    0.000    0.000    0.000 
#
# Total GULP energy -401967.884011 kJ/mol
# GULP energy per Si atom -5582.887278 kJ/mol
# Density = 1.604118 g / cm^3
# Si number density = 16.077769 Si / 1000 Ang^3
#
#
#
# Elastic Constant Matrix: (Units=GPa)
#
#
# Indices 1 2 3 4 5 6 
#
# 1 121.2184 82.2137 57.0212 0.0000 0.0000 0.0000
# 2 82.2137 121.2184 57.0212 0.0000 0.0000 0.0000
# 3 57.0212 57.0212 82.5496 0.0000 0.0000 0.0000
# 4 0.0000 0.0000 0.0000 30.6711 0.0000 0.0000
# 5 0.0000 0.0000 0.0000 0.0000 30.6711 0.0000
# 6 0.0000 0.0000 0.0000 0.0000 0.0000 19.5023
#
#
#
# Elastic Compliance Matrix: (Units=1/GPa)
#
#
# Indices 1 2 3 4 5 6 
#
# 1 0.016830 -0.008808 -0.005541 0.000000 0.000000 0.000000
# 2 -0.008808 0.016830 -0.005541 0.000000 0.000000 0.000000
# 3 -0.005541 -0.005541 0.019769 0.000000 0.000000 0.000000
# 4 0.000000 0.000000 0.000000 0.032604 0.000000 0.000000
# 5 0.000000 0.000000 0.000000 0.000000 0.032604 0.000000
# 6 0.000000 0.000000 0.000000 0.000000 0.000000 0.051276
#
#
# Mechanical properties :
#
#
# Convention : Reuss Voigt Hill
#
# Bulk Modulus (GPa) = 73.26924 79.72209 76.49566
# Shear Modulus (GPa) = 23.33797 24.75093 24.04445
#
# Velocity S-wave (km/s) = 3.81408 3.92784 3.87138
# Velocity P-wave (km/s) = 8.06641 8.38233 8.22589
#
# Compressibility (1/GPa) = 0.01364829
#
# Stress axis : x y z
#
# Youngs Moduli (GPa) = 59.41774 59.41774 50.58397
#
# Poissons Ratio (x) = 0.52335 0.28030
# Poissons Ratio (y) = 0.52335 0.28030
# Poissons Ratio (z) = 0.32925 0.32925
#
# Static dielectric constant tensor:
#      x y z
#    x 1.523380 0.000000 0.000000 
#    y 0.000000 1.523380 0.000000 
#    z 0.000000 0.000000 1.535610 
# 
# From -- ./inp_files/1217.got.cif
#   From: 2010.05.17/outbox.cif.g08.bks.cpg/sg190_1_cif.got.tgz:1217.got - 2010.05.20 12:16:56.
