data_PCOD9586448
_publ_section_title
;
Structure prediction by ZEFSAII (Michael W. Deem and Ramdas Pophale) SiO2 
 PCOD9586448
Probable space group: P -6 2 M
;
_chemical_formula_sum "Si O2"
_cell_formula_units_Z 84
_cell_length_a 14.801217
_cell_length_b 14.801217
_cell_length_c 24.550627
_cell_angle_alpha 90.000000
_cell_angle_beta 90.000000
_cell_angle_gamma 120.000000
_cell_volume 4657.877595
_symmetry_space_group_name_H-M "P -6 2 M"
_symmetry_group_IT_number 189
_symmetry_cell_setting 'hexagonal'
loop_
_space_group_symop_operation_xyz
x,y,z
-x+y,-x,-z
-y,x-y,z
x,y,-z
-x+y,-x,z
-y,x-y,-z
x-y,-y,-z
-x,-x+y,-z
y,x,-z
y,x,z
x-y,-y,z
-x,-x+y,z
loop_
_atom_site_type_symbol
_atom_site_label
_atom_site_fract_x
_atom_site_fract_y
_atom_site_fract_z
Si Si1 0.303397 0.429011 0.061750
Si Si2 0.440269 0.565997 0.846809
Si Si3 0.123727 0.346508 0.857222
Si Si4 0.765357 0.299327 0.438337
Si Si5 0.439102 0.180171 0.674696
Si Si6 0.879381 0.121946 0.255302
Si Si7 0.475983 0.878447 0.727024
O O1 0.370607 0.370607 0.059679
O O2 0.367079 0.529699 0.100499
O O3 0.195781 0.353958 0.092661
O O4 0.288183 0.453681 0.000000
O O5 0.494211 0.494211 0.845638
O O6 0.536376 0.682239 0.848476
O O7 0.381904 0.543070 0.789339
O O8 0.149037 0.304867 0.802087
O O9 0.000000 0.274362 0.867639
O O10 0.774506 0.413399 0.432937
O O11 0.794836 0.289169 0.500000
O O12 0.823090 0.278025 0.389808
O O13 0.323413 0.131842 0.697946
O O14 0.499827 0.129967 0.704944
O O15 0.495902 0.301600 0.691860
O O16 0.000000 0.153789 0.251480
O O17 0.805922 0.000000 0.264647
O O18 0.565121 0.000000 0.725214
#
# Coordination Sequence:
#
# PCOD9586448 Si02
#       7
#    12  12  12  12  12  12  12
#     4  10  21  37  55  76 107 145 181 219 274 343
#     4   9  19  35  51  73 106 139 169 217 273 327
#     4  10  20  37  59  81 106 138 185 238 288 337
#     4   8  15  30  51  79 118 159 190 222 273 341
#     4  12  19  33  56  85 115 154 188 225 285 347
#     4  11  23  39  59  84 115 153 198 251 304 351
#     4  11  21  33  52  82 115 142 180 229 274 336
#
# _framework density 18.033964000000001
#
# number of rings (size 3 to 8) (size 9 to 14) (size 15 to 20)
#    0.286    1.571    2.857    2.571    0.000    2.000 
#    0.857    1.429    0.000    4.571    0.000    0.000 
#    0.000    1.143    0.000    0.000    0.000    0.000 
#
# Total GULP energy -468697.798763 kJ/mol
# GULP energy per Si atom -5579.735700 kJ/mol
# Density = 1.799292 g / cm^3
# Si number density = 18.033964 Si / 1000 Ang^3
#
#
#
# Elastic Constant Matrix: (Units=GPa)
#
#
# Indices 1 2 3 4 5 6 
#
# 1 53.8475 8.2860 22.0323 0.0000 0.0000 0.0000
# 2 8.2860 53.8475 22.0323 0.0000 0.0000 0.0000
# 3 22.0323 22.0323 150.9427 0.0000 0.0000 0.0000
# 4 0.0000 0.0000 0.0000 17.8887 0.0000 0.0000
# 5 0.0000 0.0000 0.0000 0.0000 17.8887 0.0000
# 6 0.0000 0.0000 0.0000 0.0000 0.0000 22.7808
#
#
#
# Elastic Compliance Matrix: (Units=1/GPa)
#
#
# Indices 1 2 3 4 5 6 
#
# 1 0.019951 -0.001998 -0.002620 0.000000 0.000000 0.000000
# 2 -0.001998 0.019951 -0.002620 0.000000 0.000000 0.000000
# 3 -0.002620 -0.002620 0.007390 0.000000 0.000000 0.000000
# 4 0.000000 0.000000 0.000000 0.055901 0.000000 0.000000
# 5 0.000000 0.000000 0.000000 0.000000 0.055901 0.000000
# 6 0.000000 0.000000 0.000000 0.000000 0.000000 0.043897
#
#
# Mechanical properties :
#
#
# Convention : Reuss Voigt Hill
#
# Bulk Modulus (GPa) = 30.47505 40.37100 35.42302
# Shear Modulus (GPa) = 21.89090 25.46413 23.67751
#
# Velocity S-wave (km/s) = 3.48784 3.76175 3.62738
# Velocity P-wave (km/s) = 5.75808 6.42669 6.10155
#
# Compressibility (1/GPa) = 0.03281372
#
# Stress axis : x y z
#
# Youngs Moduli (GPa) = 50.12389 50.12389 135.31753
#
# Poissons Ratio (x) = 0.10014 0.35460
# Poissons Ratio (y) = 0.10014 0.35460
# Poissons Ratio (z) = 0.13135 0.13135
#
# Static dielectric constant tensor:
#      x y z
#    x 1.625110 0.000000 0.000000 
#    y 0.000000 1.625110 0.000000 
#    z 0.000000 0.000000 1.614480 
# 
# From -- ./inp_files/3619.got.cif
#   From: 2010.05.17/outbox.cif.g08.bks.cpg/sg189_2_cif.got.tgz:3619.got - 2010.05.20 12:14:34.
