data_PCOD9586730
_publ_section_title
;
Structure prediction by ZEFSAII (Michael W. Deem and Ramdas Pophale) SiO2 
 PCOD9586730
Probable space group: P -6 2 C
;
_chemical_formula_sum "Si O2"
_cell_formula_units_Z 90
_cell_length_a 17.474487
_cell_length_b 17.474487
_cell_length_c 18.672563
_cell_angle_alpha 90.000000
_cell_angle_beta 90.000000
_cell_angle_gamma 120.000000
_cell_volume 4937.913013
_symmetry_space_group_name_H-M "P -6 2 C"
_symmetry_group_IT_number 190
_symmetry_cell_setting 'hexagonal'
loop_
_space_group_symop_operation_xyz
x,y,z
-x+y,-x,1/2-z
-y,x-y,z
x,y,1/2-z
-x+y,-x,z
-y,x-y,1/2-z
x-y,-y,-z
-x,-x+y,-z
y,x,-z
y,x,1/2+z
x-y,-y,1/2+z
-x,-x+y,1/2+z
loop_
_atom_site_type_symbol
_atom_site_label
_atom_site_fract_x
_atom_site_fract_y
_atom_site_fract_z
Si Si1 0.903681 0.729356 0.328495
Si Si2 0.220712 0.163484 0.563030
Si Si3 0.787005 0.758694 0.836164
Si Si4 0.128051 0.676287 0.633377
Si Si5 0.427059 0.473723 0.421468
Si Si6 0.176560 0.751658 0.477408
Si Si7 0.414180 0.776107 0.750000
Si Si8 0.338892 0.932800 0.067540
O O1 0.939685 0.765459 0.250000
O O2 0.830276 0.755714 0.345616
O O3 0.861663 0.624578 0.329043
O O4 0.982702 0.768303 0.384077
O O5 0.151716 0.151716 0.500000
O O6 0.211016 0.083933 0.613026
O O7 0.318452 0.207629 0.527799
O O8 0.800646 0.752186 0.750000
O O9 0.712344 0.666222 0.870574
O O10 0.170153 0.710647 0.555492
O O11 0.171630 0.631367 0.678880
O O12 0.025159 0.603141 0.627869
O O13 0.446070 0.446070 0.500000
O O14 0.332841 0.468545 0.424979
O O15 0.510239 0.569626 0.406928
O O16 0.271979 0.833084 0.459018
O O17 0.425671 0.689919 0.750000
O O18 0.361137 0.000000 0.000000
#
# Coordination Sequence:
#
# PCOD9586730 Si02
#       8
#    12  12  12  12  12  12   6  12
#     4  11  21  36  60  87 114 164 208 242 314 377
#     4  11  20  37  63  89 120 153 207 265 302 376
#     4  10  24  40  57  90 127 162 201 261 327 374
#     4  11  19  37  61  82 120 164 202 250 304 367
#     4   9  19  36  57  89 116 154 204 254 305 361
#     4  10  19  35  63  88 120 152 205 262 304 365
#     4  10  26  42  52  90 132 162 202 256 314 380
#     4  10  21  37  61  90 121 162 209 261 314 376
#
# _framework density 18.226324000000002
#
# number of rings (size 3 to 8) (size 9 to 14) (size 15 to 20)
#    0.133    1.600    3.333    1.600    1.867    4.267 
#    2.800    0.000    0.000    0.000    0.000    0.000 
#    0.000    0.000    0.000    0.000    0.000    0.000 
#
# Total GULP energy -501621.194596 kJ/mol
# GULP energy per Si atom -5573.568829 kJ/mol
# Density = 1.818484 g / cm^3
# Si number density = 18.226324 Si / 1000 Ang^3
#
#
#
# Elastic Constant Matrix: (Units=GPa)
#
#
# Indices 1 2 3 4 5 6 
#
# 1 80.7614 23.4452 28.1227 0.0000 0.0000 0.0000
# 2 23.4452 80.7614 28.1227 0.0000 0.0000 0.0000
# 3 28.1227 28.1227 69.6756 0.0000 0.0000 0.0000
# 4 0.0000 0.0000 0.0000 -30.7259 0.0000 0.0000
# 5 0.0000 0.0000 0.0000 0.0000 -30.7259 0.0000
# 6 0.0000 0.0000 0.0000 0.0000 0.0000 28.6581
#
#
#
# Elastic Compliance Matrix: (Units=1/GPa)
#
#
# Indices 1 2 3 4 5 6 
#
# 1 0.014858 -0.002589 -0.004952 0.000000 0.000000 0.000000
# 2 -0.002589 0.014858 -0.004952 0.000000 0.000000 0.000000
# 3 -0.004952 -0.004952 0.018350 0.000000 0.000000 0.000000
# 4 0.000000 0.000000 0.000000 -0.032546 0.000000 0.000000
# 5 0.000000 0.000000 0.000000 0.000000 -0.032546 0.000000
# 6 0.000000 0.000000 0.000000 0.000000 0.000000 0.034894
#
#
# Mechanical properties :
#
#
# Convention : Reuss Voigt Hill
#
# Bulk Modulus (GPa) = 43.32809 43.39772 43.36291
# Shear Modulus (GPa) = 98.91551 3.54180 51.22866
#
# Velocity S-wave (km/s) = 7.37486 1.39551 5.30735
# Velocity P-wave (km/s) = 9.81539 5.14381 7.83584
#
# Compressibility (1/GPa) = 0.02307971
#
# Stress axis : x y z
#
# Youngs Moduli (GPa) = 67.30309 67.30309 54.49641
#
# Poissons Ratio (x) = 0.17424 0.26987
# Poissons Ratio (y) = 0.17424 0.26987
# Poissons Ratio (z) = 0.33330 0.33330
#
# Static dielectric constant tensor:
#      x y z
#    x 1.616310 0.000000 0.000000 
#    y 0.000000 1.616310 0.000000 
#    z 0.000000 0.000000 1.666020 
# 
# From -- ./inp_files/3951.got.cif
#   From: 2010.05.17/outbox.cif.g08.bks.cpg/sg190_2_cif.got.tgz:3951.got - 2010.05.20 12:16:56.
