data_PCOD9586265
_publ_section_title
;
Structure prediction by ZEFSAII (Michael W. Deem and Ramdas Pophale) SiO2 
 PCOD9586265
Probable space group: P -6 2 M
;
_chemical_formula_sum "Si O2"
_cell_formula_units_Z 52
_cell_length_a 12.764843
_cell_length_b 12.764843
_cell_length_c 20.247366
_cell_angle_alpha 90.000000
_cell_angle_beta 90.000000
_cell_angle_gamma 120.000000
_cell_volume 2857.130783
_symmetry_space_group_name_H-M "P -6 2 M"
_symmetry_group_IT_number 189
_symmetry_cell_setting 'hexagonal'
loop_
_space_group_symop_operation_xyz
x,y,z
-x+y,-x,-z
-y,x-y,z
x,y,-z
-x+y,-x,z
-y,x-y,-z
x-y,-y,-z
-x,-x+y,-z
y,x,-z
y,x,z
x-y,-y,z
-x,-x+y,z
loop_
_atom_site_type_symbol
_atom_site_label
_atom_site_fract_x
_atom_site_fract_y
_atom_site_fract_z
Si Si1 0.253060 0.506382 0.500000
Si Si2 0.142862 0.858702 0.757759
Si Si3 0.333334 0.666667 0.921295
Si Si4 0.711878 0.143169 0.125642
Si Si5 0.711832 0.855897 0.601290
Si Si6 0.856946 0.144446 0.000000
O O1 0.203176 0.601692 0.500000
O O2 0.206734 0.413826 0.438567
O O3 0.180161 0.782888 0.805390
O O4 0.156570 0.844097 0.679928
O O5 0.000000 0.807923 0.769709
O O6 0.217772 0.000000 0.774123
O O7 0.429301 0.795071 0.892064
O O8 0.333334 0.666668 0.000000
O O9 0.805259 0.174467 0.065198
O O10 0.628009 0.000000 0.126535
O O11 0.790326 0.790326 0.586090
O O12 0.789682 0.000000 0.586148
O O13 0.000000 0.214180 0.000000
O O14 0.802793 0.000000 0.000000
#
# Coordination Sequence:
#
# PCOD9586265 Si02
#       6
#     6  12   4  12  12   6
#     4  10  24  42  56  80 118 168 206 236 280 340
#     4   9  18  35  59  90 121 149 180 228 291 347
#     4  12  24  42  60  78 105 151 191 244 297 330
#     4  10  22  39  56  81 113 145 189 234 279 341
#     4  10  20  37  64  94 121 149 190 246 303 352
#     4  10  19  32  54  82 113 146 184 228 276 332
#
# _framework density 18.200077
#
# number of rings (size 3 to 8) (size 9 to 14) (size 15 to 20)
#    0.231    1.846    1.154    1.962    0.000    5.538 
#    4.154    3.462    0.000    0.000    0.000    0.000 
#    0.000    0.000    0.000    0.000    0.000    0.000 
#
# Total GULP energy -290003.906075 kJ/mol
# GULP energy per Si atom -5576.998194 kJ/mol
# Density = 1.815865 g / cm^3
# Si number density = 18.200077 Si / 1000 Ang^3
#
#
#
# Elastic Constant Matrix: (Units=GPa)
#
#
# Indices 1 2 3 4 5 6 
#
# 1 85.8471 38.0125 44.6285 0.0000 0.0000 0.0000
# 2 38.0125 85.8478 44.6286 0.0000 0.0001 -0.0001
# 3 44.6285 44.6286 89.1316 0.0000 0.0000 -0.0001
# 4 0.0000 0.0000 0.0000 24.7600 0.0000 0.0000
# 5 0.0000 0.0001 0.0000 0.0000 24.7601 0.0000
# 6 0.0000 -0.0001 -0.0001 0.0000 0.0000 23.9176
#
#
#
# Elastic Compliance Matrix: (Units=1/GPa)
#
#
# Indices 1 2 3 4 5 6 
#
# 1 0.016768 -0.004137 -0.006325 0.000000 0.000000 0.000000
# 2 -0.004137 0.016768 -0.006324 0.000000 0.000000 0.000000
# 3 -0.006325 -0.006324 0.017553 0.000000 0.000000 0.000000
# 4 0.000000 0.000000 0.000000 0.040388 0.000000 0.000000
# 5 0.000000 0.000000 0.000000 0.000000 0.040387 0.000000
# 6 0.000000 0.000000 0.000000 0.000000 0.000000 0.041810
#
#
# Mechanical properties :
#
#
# Convention : Reuss Voigt Hill
#
# Bulk Modulus (GPa) = 57.08665 57.26286 57.17475
# Shear Modulus (GPa) = 23.46473 23.59135 23.52804
#
# Velocity S-wave (km/s) = 3.59453 3.60421 3.59938
# Velocity P-wave (km/s) = 6.97580 6.98940 6.98260
#
# Compressibility (1/GPa) = 0.01751723
#
# Stress axis : x y z
#
# Youngs Moduli (GPa) = 59.63629 59.63685 56.97097
#
# Poissons Ratio (x) = 0.24671 0.36032
# Poissons Ratio (y) = 0.24671 0.36031
# Poissons Ratio (z) = 0.37717 0.37717
#
# Static dielectric constant tensor:
#      x y z
#    x 1.614250 0.000000 0.000000 
#    y 0.000000 1.614250 0.000000 
#    z 0.000000 0.000000 1.634700 
# 
# From -- ./inp_files/3366.got.cif
#   From: 2010.05.17/outbox.cif.g08.bks.cpg/sg189_2_cif.got.tgz:3366.got - 2010.05.20 12:14:34.
