data_PCOD9586771
_publ_section_title
;
Structure prediction by ZEFSAII (Michael W. Deem and Ramdas Pophale) SiO2 
 PCOD9586771
Probable space group: P -6 2 C
;
_chemical_formula_sum "Si O2"
_cell_formula_units_Z 72
_cell_length_a 24.302316
_cell_length_b 24.302316
_cell_length_c 8.629254
_cell_angle_alpha 90.000000
_cell_angle_beta 90.000000
_cell_angle_gamma 120.000000
_cell_volume 4413.663421
_symmetry_space_group_name_H-M "P -6 2 C"
_symmetry_group_IT_number 190
_symmetry_cell_setting 'hexagonal'
loop_
_space_group_symop_operation_xyz
x,y,z
-x+y,-x,1/2-z
-y,x-y,z
x,y,1/2-z
-x+y,-x,z
-y,x-y,1/2-z
x-y,-y,-z
-x,-x+y,-z
y,x,-z
y,x,1/2+z
x-y,-y,1/2+z
-x,-x+y,1/2+z
loop_
_atom_site_type_symbol
_atom_site_label
_atom_site_fract_x
_atom_site_fract_y
_atom_site_fract_z
Si Si1 0.855599 0.713068 0.063589
Si Si2 0.071989 0.479130 0.065050
Si Si3 0.639836 0.928671 0.563286
Si Si4 0.072178 0.591266 0.935482
Si Si5 0.856385 0.928207 0.064233
Si Si6 0.642291 0.714035 0.436292
O O1 0.859075 0.719367 0.250000
O O2 0.889547 0.673442 0.013178
O O3 0.890732 0.783296 0.991082
O O4 0.782996 0.673682 0.010211
O O5 0.069097 0.481965 0.250000
O O6 0.098836 0.432232 0.024719
O O7 0.102489 0.550259 0.999555
O O8 0.000000 0.442068 0.000000
O O9 0.642037 0.931587 0.750000
O O10 0.565869 0.901227 0.518959
O O11 0.679693 0.000000 0.500000
O O12 0.070094 0.586597 0.750000
O O13 0.000000 0.556185 0.000000
O O14 0.859058 0.929520 0.250000
O O15 0.892335 0.892335 0.000000
O O16 0.890843 0.000000 0.000000
O O17 0.648071 0.718668 0.250000
O O18 0.680436 0.680436 0.500000
#
# Coordination Sequence:
#
# PCOD9586771 Si02
#       6
#    12  12  12  12  12  12
#     4  11  22  36  52  72  99 131 166 204 252 306
#     4   9  16  26  42  65  92 120 150 182 218 264
#     4   9  19  32  47  68  95 126 158 194 235 285
#     4   9  15  25  42  65  92 120 149 179 216 261
#     4  12  25  42  60  78  98 124 164 215 271 324
#     4  10  20  33  48  68  95 127 161 198 241 290
#
# _framework density 16.31298
#
# number of rings (size 3 to 8) (size 9 to 14) (size 15 to 20)
#    0.000    2.000    0.000    5.667    0.000    5.333 
#    0.000    0.000    0.000    0.000    0.000    0.000 
#    1.667    0.000    1.000    0.000    1.333    0.000 
#
# Total GULP energy -401379.560106 kJ/mol
# GULP energy per Si atom -5574.716113 kJ/mol
# Density = 1.627585 g / cm^3
# Si number density = 16.312980 Si / 1000 Ang^3
#
#
#
# Elastic Constant Matrix: (Units=GPa)
#
#
# Indices 1 2 3 4 5 6 
#
# 1 127.1707 80.2931 43.5372 0.0000 0.0000 0.0000
# 2 80.2931 127.1707 43.5372 0.0000 0.0000 0.0000
# 3 43.5372 43.5372 77.6264 0.0000 0.0000 0.0000
# 4 0.0000 0.0000 0.0000 23.0991 0.0000 0.0000
# 5 0.0000 0.0000 0.0000 0.0000 23.0991 0.0000
# 6 0.0000 0.0000 0.0000 0.0000 0.0000 23.4388
#
#
#
# Elastic Compliance Matrix: (Units=1/GPa)
#
#
# Indices 1 2 3 4 5 6 
#
# 1 0.013818 -0.007514 -0.003536 0.000000 0.000000 0.000000
# 2 -0.007514 0.013818 -0.003536 0.000000 0.000000 0.000000
# 3 -0.003536 -0.003536 0.016848 0.000000 0.000000 0.000000
# 4 0.000000 0.000000 0.000000 0.043292 0.000000 0.000000
# 5 0.000000 0.000000 0.000000 0.000000 0.043292 0.000000
# 6 0.000000 0.000000 0.000000 0.000000 0.000000 0.042664
#
#
# Mechanical properties :
#
#
# Convention : Reuss Voigt Hill
#
# Bulk Modulus (GPa) = 65.30113 74.07807 69.68960
# Shear Modulus (GPa) = 24.03757 24.90073 24.46915
#
# Velocity S-wave (km/s) = 3.84282 3.91120 3.87716
# Velocity P-wave (km/s) = 7.73348 8.11824 7.92819
#
# Compressibility (1/GPa) = 0.01531367
#
# Stress axis : x y z
#
# Youngs Moduli (GPa) = 72.36877 72.36877 59.35344
#
# Poissons Ratio (x) = 0.54378 0.20985
# Poissons Ratio (y) = 0.54378 0.20985
# Poissons Ratio (z) = 0.25587 0.25587
#
# Static dielectric constant tensor:
#      x y z
#    x 1.556100 0.000000 0.000000 
#    y 0.000000 1.556100 0.000000 
#    z 0.000000 0.000000 1.549880 
# 
# From -- ./inp_files/1207.got.cif
#   From: 2010.05.17/outbox.cif.g08.bks.cpg/sg190_1_cif.got.tgz:1207.got - 2010.05.20 12:16:56.
