data_PCOD9586779
_publ_section_title
;
Structure prediction by ZEFSAII (Michael W. Deem and Ramdas Pophale) SiO2 
 PCOD9586779
Probable space group: P -6 2 C
;
_chemical_formula_sum "Si O2"
_cell_formula_units_Z 28
_cell_length_a 12.521757
_cell_length_b 12.521757
_cell_length_c 11.336267
_cell_angle_alpha 90.000000
_cell_angle_beta 90.000000
_cell_angle_gamma 120.000000
_cell_volume 1539.328254
_symmetry_space_group_name_H-M "P -6 2 C"
_symmetry_group_IT_number 190
_symmetry_cell_setting 'hexagonal'
loop_
_space_group_symop_operation_xyz
x,y,z
-x+y,-x,1/2-z
-y,x-y,z
x,y,1/2-z
-x+y,-x,z
-y,x-y,1/2-z
x-y,-y,-z
-x,-x+y,-z
y,x,-z
y,x,1/2+z
x-y,-y,1/2+z
-x,-x+y,1/2+z
loop_
_atom_site_type_symbol
_atom_site_label
_atom_site_fract_x
_atom_site_fract_y
_atom_site_fract_z
Si Si1 0.333335 0.666667 0.111617
Si Si2 0.335667 0.928782 0.622172
Si Si3 0.870536 0.542662 0.454325
O O1 0.333334 0.666668 0.250000
O O2 0.457118 0.781766 0.059754
O O3 0.343250 0.989089 0.750000
O O4 0.211121 0.797505 0.615169
O O5 0.449149 0.901628 0.615077
O O6 0.345865 0.000000 0.500000
O O7 0.000000 0.651558 0.500000
#
# Coordination Sequence:
#
# PCOD9586779 Si02
#       3
#     4  12  12
#     4   9  18  30  46  74 106 126 157 209 250 285
#     4  10  20  34  51  75 104 133 166 206 248 296
#     4   9  19  32  50  73  99 135 169 199 245 301
#
# _framework density 18.189751000000001
#
# number of rings (size 3 to 8) (size 9 to 14) (size 15 to 20)
#    0.000    2.571    0.000    2.143    0.000   17.143 
#    0.000    0.000    0.000    0.857    0.000    0.000 
#    0.000    0.000    0.000    0.000    0.000    0.000 
#
# Total GULP energy -156039.156932 kJ/mol
# GULP energy per Si atom -5572.827033 kJ/mol
# Density = 1.814835 g / cm^3
# Si number density = 18.189751 Si / 1000 Ang^3
#
#
#
# Elastic Constant Matrix: (Units=GPa)
#
#
# Indices 1 2 3 4 5 6 
#
# 1 57.6505 10.8575 26.1399 -0.0001 0.0000 0.0001
# 2 10.8575 57.6508 26.1400 -0.0002 0.0000 0.0001
# 3 26.1399 26.1400 181.8620 0.0001 0.0002 0.0000
# 4 -0.0001 -0.0002 0.0001 12.9658 -0.0003 0.0000
# 5 0.0000 0.0000 0.0002 -0.0003 12.9668 -0.0001
# 6 0.0001 0.0001 0.0000 0.0000 -0.0001 23.3968
#
#
#
# Elastic Compliance Matrix: (Units=1/GPa)
#
#
# Indices 1 2 3 4 5 6 
#
# 1 0.018883 -0.002488 -0.002357 0.000000 0.000000 0.000000
# 2 -0.002488 0.018883 -0.002357 0.000000 0.000000 0.000000
# 3 -0.002357 -0.002357 0.006176 0.000000 0.000000 0.000000
# 4 0.000000 0.000000 0.000000 0.077126 0.000002 0.000000
# 5 0.000000 0.000000 0.000000 0.000002 0.077120 0.000000
# 6 0.000000 0.000000 0.000000 0.000000 0.000000 0.042741
#
#
# Mechanical properties :
#
#
# Convention : Reuss Voigt Hill
#
# Bulk Modulus (GPa) = 33.85224 47.04870 40.45047
# Shear Modulus (GPa) = 18.85533 25.46761 22.16147
#
# Velocity S-wave (km/s) = 3.22311 3.74586 3.49427
# Velocity P-wave (km/s) = 5.70107 6.68059 6.21017
#
# Compressibility (1/GPa) = 0.02954015
#
# Stress axis : x y z
#
# Youngs Moduli (GPa) = 52.95786 52.95814 161.91411
#
# Poissons Ratio (x) = 0.13175 0.38156
# Poissons Ratio (y) = 0.13175 0.38156
# Poissons Ratio (z) = 0.12480 0.12480
#
# Static dielectric constant tensor:
#      x y z
#    x 1.623010 0.000000 0.000000 
#    y 0.000000 1.623000 0.000000 
#    z 0.000000 0.000000 1.689670 
# 
# From -- ./inp_files/350.got.cif
#   From: 2010.05.17/outbox.cif.g08.bks.cpg/sg190_1_cif.got.tgz:350.got - 2010.05.20 12:16:56.
