data_PCOD9586241
_publ_section_title
;
Structure prediction by ZEFSAII (Michael W. Deem and Ramdas Pophale) SiO2 
 PCOD9586241
Probable space group: P -6 2 M
;
_chemical_formula_sum "Si O2"
_cell_formula_units_Z 72
_cell_length_a 24.451469
_cell_length_b 24.451469
_cell_length_c 8.572619
_cell_angle_alpha 90.000000
_cell_angle_beta 90.000000
_cell_angle_gamma 120.000000
_cell_volume 4438.682346
_symmetry_space_group_name_H-M "P -6 2 M"
_symmetry_group_IT_number 189
_symmetry_cell_setting 'hexagonal'
loop_
_space_group_symop_operation_xyz
x,y,z
-x+y,-x,-z
-y,x-y,z
x,y,-z
-x+y,-x,z
-y,x-y,-z
x-y,-y,-z
-x,-x+y,-z
y,x,-z
y,x,z
x-y,-y,z
-x,-x+y,z
loop_
_atom_site_type_symbol
_atom_site_label
_atom_site_fract_x
_atom_site_fract_y
_atom_site_fract_z
Si Si1 0.406530 0.600280 0.186924
Si Si2 0.265174 0.191888 0.686637
Si Si3 0.926635 0.854393 0.811704
Si Si4 0.265641 0.526700 0.315045
Si Si5 0.594660 0.070887 0.810383
Si Si6 0.854383 0.594984 0.186977
O O1 0.333323 0.571503 0.233933
O O2 0.449131 0.667543 0.264928
O O3 0.423215 0.546631 0.237001
O O4 0.411792 0.606847 0.000000
O O5 0.269285 0.193575 0.500000
O O6 0.237678 0.237678 0.736243
O O7 0.213033 0.122133 0.741533
O O8 0.333749 0.216123 0.757864
O O9 0.882969 0.882969 0.761203
O O10 0.000000 0.902176 0.770016
O O11 0.923634 0.849350 0.000000
O O12 0.274652 0.531337 0.500000
O O13 0.243117 0.455691 0.259434
O O14 0.667650 0.097430 0.765919
O O15 0.550134 0.000000 0.753119
O O16 0.593175 0.069502 0.000000
O O17 0.848899 0.591318 0.000000
#
# Coordination Sequence:
#
# PCOD9586241 Si02
#       6
#    12  12  12  12  12  12
#     4  10  19  32  50  72  98 127 161 197 235 285
#     4  10  20  32  47  71 102 132 161 197 244 295
#     4   9  17  30  49  72  97 127 164 204 244 289
#     4  11  21  33  49  71 100 130 161 199 245 291
#     4   8  15  28  48  73  96 119 150 190 234 278
#     4  10  19  32  51  73  97 127 163 201 240 287
#
# _framework density 16.221029999999999
#
# number of rings (size 3 to 8) (size 9 to 14) (size 15 to 20)
#    0.000    2.333    0.000    5.000    0.000    2.667 
#    0.000    0.000    0.000   12.000    0.000    2.333 
#    0.000    0.000    0.000    0.000    0.000    0.000 
#
# Total GULP energy -401683.023164 kJ/mol
# GULP energy per Si atom -5578.930877 kJ/mol
# Density = 1.618411 g / cm^3
# Si number density = 16.221030 Si / 1000 Ang^3
#
#
#
# Elastic Constant Matrix: (Units=GPa)
#
#
# Indices 1 2 3 4 5 6 
#
# 1 110.1971 63.9385 11.1849 0.0000 0.0000 0.0000
# 2 63.9385 110.1971 11.1849 0.0000 0.0000 0.0000
# 3 11.1849 11.1849 29.7422 0.0000 0.0000 0.0000
# 4 0.0000 0.0000 0.0000 14.2574 0.0000 0.0000
# 5 0.0000 0.0000 0.0000 0.0000 14.2574 0.0000
# 6 0.0000 0.0000 0.0000 0.0000 0.0000 23.1293
#
#
#
# Elastic Compliance Matrix: (Units=1/GPa)
#
#
# Indices 1 2 3 4 5 6 
#
# 1 0.013826 -0.007792 -0.002269 0.000000 0.000000 0.000000
# 2 -0.007792 0.013826 -0.002269 0.000000 0.000000 0.000000
# 3 -0.002269 -0.002269 0.035329 0.000000 0.000000 0.000000
# 4 0.000000 0.000000 0.000000 0.070139 0.000000 0.000000
# 5 0.000000 0.000000 0.000000 0.000000 0.070139 0.000000
# 6 0.000000 0.000000 0.000000 0.000000 0.000000 0.043235
#
#
# Mechanical properties :
#
#
# Convention : Reuss Voigt Hill
#
# Bulk Modulus (GPa) = 26.09573 46.97256 36.53414
# Shear Modulus (GPa) = 17.61009 21.25068 19.43038
#
# Velocity S-wave (km/s) = 3.29847 3.62342 3.46475
# Velocity P-wave (km/s) = 5.53435 6.82101 6.21109
#
# Compressibility (1/GPa) = 0.03832045
#
# Stress axis : x y z
#
# Youngs Moduli (GPa) = 72.32814 72.32814 28.30536
#
# Poissons Ratio (x) = 0.56356 0.06423
# Poissons Ratio (y) = 0.56356 0.06423
# Poissons Ratio (z) = 0.16413 0.16413
#
# Static dielectric constant tensor:
#      x y z
#    x 1.529840 0.000000 0.000000 
#    y 0.000000 1.529840 0.000000 
#    z 0.000000 0.000000 1.540590 
# 
# From -- ./inp_files/1283.got.cif
#   From: 2010.05.17/outbox.cif.g08.bks.cpg/sg189_1_cif.got.tgz:1283.got - 2010.05.20 12:14:34.
