data_PCOD9586726
_publ_section_title
;
Structure prediction by ZEFSAII (Michael W. Deem and Ramdas Pophale) SiO2 
 PCOD9586726
Probable space group: P -6 2 C
;
_chemical_formula_sum "Si O2"
_cell_formula_units_Z 60
_cell_length_a 19.038366
_cell_length_b 19.038366
_cell_length_c 10.607415
_cell_angle_alpha 90.000000
_cell_angle_beta 90.000000
_cell_angle_gamma 120.000000
_cell_volume 3329.657289
_symmetry_space_group_name_H-M "P -6 2 C"
_symmetry_group_IT_number 190
_symmetry_cell_setting 'hexagonal'
loop_
_space_group_symop_operation_xyz
x,y,z
-x+y,-x,1/2-z
-y,x-y,z
x,y,1/2-z
-x+y,-x,z
-y,x-y,1/2-z
x-y,-y,-z
-x,-x+y,-z
y,x,-z
y,x,1/2+z
x-y,-y,1/2+z
-x,-x+y,1/2+z
loop_
_atom_site_type_symbol
_atom_site_label
_atom_site_fract_x
_atom_site_fract_y
_atom_site_fract_z
Si Si1 0.095360 0.821836 0.250000
Si Si2 0.760988 0.767437 0.250000
Si Si3 0.101177 0.829665 0.750000
Si Si4 0.000000 0.333118 0.500000
Si Si5 0.507753 0.667702 0.901246
Si Si6 0.905503 0.652261 0.001049
Si Si7 0.664390 0.174335 0.099890
O O1 0.142424 0.917781 0.250000
O O2 0.124871 0.793752 0.371845
O O3 0.997227 0.781835 0.250000
O O4 0.848199 0.773817 0.250000
O O5 0.710885 0.719928 0.375110
O O6 0.128331 0.801407 0.874715
O O7 0.917416 0.337476 0.473929
O O8 0.523694 0.668761 0.750000
O O9 0.495808 0.744976 0.927695
O O10 0.418679 0.591305 0.928043
O O11 0.892620 0.563869 0.019545
O O12 0.000000 0.715222 0.000000
O O13 0.663156 0.159102 0.250000
#
# Coordination Sequence:
#
# PCOD9586726 Si02
#       7
#     6   6   6   6  12  12  12
#     4  10  22  36  55  88 113 145 196 239 292 355
#     4  12  22  38  62  82 120 160 186 248 310 346
#     4  10  20  38  57  82 109 147 202 233 284 359
#     4  12  24  38  60  90 126 152 206 244 306 364
#     4  10  21  37  57  89 117 155 198 248 291 357
#     4  10  20  35  57  81 111 146 192 241 284 337
#     4  10  19  35  60  81 116 151 196 237 296 341
#
# _framework density 18.019870999999998
#
# number of rings (size 3 to 8) (size 9 to 14) (size 15 to 20)
#    0.000    1.600    2.000    4.000    1.400    1.600 
#    0.600    1.000    0.000    0.000    0.000    2.800 
#    0.000    0.000    0.000    0.000    0.000    0.000 
#
# Total GULP energy -334386.566466 kJ/mol
# GULP energy per Si atom -5573.109441 kJ/mol
# Density = 1.797886 g / cm^3
# Si number density = 18.019871 Si / 1000 Ang^3
#
#
#
# Elastic Constant Matrix: (Units=GPa)
#
#
# Indices 1 2 3 4 5 6 
#
# 1 78.1804 18.5152 37.8251 0.0000 0.0000 0.0000
# 2 18.5152 78.1804 37.8251 0.0000 0.0000 0.0000
# 3 37.8251 37.8251 111.2046 0.0000 0.0000 0.0000
# 4 0.0000 0.0000 0.0000 3.1125 0.0000 0.0000
# 5 0.0000 0.0000 0.0000 0.0000 3.1125 0.0000
# 6 0.0000 0.0000 0.0000 0.0000 0.0000 29.8326
#
#
#
# Elastic Compliance Matrix: (Units=1/GPa)
#
#
# Indices 1 2 3 4 5 6 
#
# 1 0.015426 -0.001334 -0.004793 0.000000 0.000000 0.000000
# 2 -0.001334 0.015426 -0.004793 0.000000 0.000000 0.000000
# 3 -0.004793 -0.004793 0.012253 0.000000 0.000000 0.000000
# 4 0.000000 0.000000 0.000000 0.321283 0.000000 0.000000
# 5 0.000000 0.000000 0.000000 0.000000 0.321283 0.000000
# 6 0.000000 0.000000 0.000000 0.000000 0.000000 0.033520
#
#
# Mechanical properties :
#
#
# Convention : Reuss Voigt Hill
#
# Bulk Modulus (GPa) = 47.02812 50.65518 48.84165
# Shear Modulus (GPa) = 6.68342 18.77153 12.72747
#
# Velocity S-wave (km/s) = 1.92794 3.23106 2.66052
# Velocity P-wave (km/s) = 5.57768 6.48779 6.04987
#
# Compressibility (1/GPa) = 0.02126387
#
# Stress axis : x y z
#
# Youngs Moduli (GPa) = 64.82595 64.82595 81.61195
#
# Poissons Ratio (x) = 0.08650 0.39118
# Poissons Ratio (y) = 0.08650 0.39118
# Poissons Ratio (z) = 0.31072 0.31072
#
# Static dielectric constant tensor:
#      x y z
#    x 1.675480 0.000000 0.000000 
#    y 0.000000 1.675480 0.000000 
#    z 0.000000 0.000000 1.617830 
# 
# From -- ./inp_files/2031.got.cif
#   From: 2010.05.17/outbox.cif.g08.bks.cpg/sg190_2_cif.got.tgz:2031.got - 2010.05.20 12:16:56.
