data_PCOD9586395
_publ_section_title
;
Structure prediction by ZEFSAII (Michael W. Deem and Ramdas Pophale) SiO2 
 PCOD9586395
Probable space group: P -6 2 M
;
_chemical_formula_sum "Si O2"
_cell_formula_units_Z 66
_cell_length_a 21.118448
_cell_length_b 21.118448
_cell_length_c 7.584143
_cell_angle_alpha 90.000000
_cell_angle_beta 90.000000
_cell_angle_gamma 120.000000
_cell_volume 2929.281724
_symmetry_space_group_name_H-M "P -6 2 M"
_symmetry_group_IT_number 189
_symmetry_cell_setting 'hexagonal'
loop_
_space_group_symop_operation_xyz
x,y,z
-x+y,-x,-z
-y,x-y,z
x,y,-z
-x+y,-x,z
-y,x-y,-z
x-y,-y,-z
-x,-x+y,-z
y,x,-z
y,x,z
x-y,-y,z
-x,-x+y,z
loop_
_atom_site_type_symbol
_atom_site_label
_atom_site_fract_x
_atom_site_fract_y
_atom_site_fract_z
Si Si1 0.857842 0.191212 0.794504
Si Si2 0.850325 0.456313 0.200523
Si Si3 0.328153 0.582668 0.500000
Si Si4 0.915544 0.354929 0.784790
Si Si5 0.920771 0.614768 0.288019
Si Si6 0.915290 0.084017 0.784600
O O1 0.883101 0.271762 0.720824
O O2 0.770777 0.142374 0.780989
O O3 0.890439 0.141521 0.721634
O O4 0.880178 0.203490 0.000000
O O5 0.788425 0.454594 0.325014
O O6 0.875925 0.400401 0.266310
O O7 0.913236 0.540207 0.214138
O O8 0.824972 0.437863 0.000000
O O9 0.263721 0.600242 0.500000
O O10 0.000000 0.400676 0.732893
O O11 0.912380 0.353433 0.000000
O O12 0.916125 0.609330 0.500000
O O13 0.000000 0.681312 0.239204
O O14 0.000000 0.115041 0.736751
O O15 0.863606 0.000000 0.726184
O O16 0.911788 0.082992 0.000000
#
# Coordination Sequence:
#
# PCOD9586395 Si02
#       6
#    12  12   6  12  12  12
#     4  10  20  34  58  87 118 154 201 255 309 371
#     4  11  23  41  68  93 123 166 214 259 314 380
#     4  10  26  44  63  92 136 168 200 264 312 372
#     4   9  19  36  59  88 120 158 202 253 312 371
#     4  11  24  41  61  86 121 164 205 257 320 379
#     4   9  16  27  47  79 119 159 199 248 306 368
#
# _framework density 22.531120000000001
#
# number of rings (size 3 to 8) (size 9 to 14) (size 15 to 20)
#    0.182    1.818    0.909    2.364    2.545    6.545 
#    0.000    0.000    0.000    1.636    0.000    0.000 
#    0.000    1.455    0.000    0.000    0.000    0.000 
#
# Total GULP energy -368628.050562 kJ/mol
# GULP energy per Si atom -5585.273493 kJ/mol
# Density = 2.247984 g / cm^3
# Si number density = 22.531120 Si / 1000 Ang^3
#
#
#
# Elastic Constant Matrix: (Units=GPa)
#
#
# Indices 1 2 3 4 5 6 
#
# 1 86.3381 4.5689 -4.5266 0.0000 0.0000 0.0000
# 2 4.5689 86.3381 -4.5266 0.0000 0.0000 0.0000
# 3 -4.5266 -4.5266 57.3714 0.0000 0.0000 0.0000
# 4 0.0000 0.0000 0.0000 -2.4506 0.0000 0.0000
# 5 0.0000 0.0000 0.0000 0.0000 -2.4506 0.0000
# 6 0.0000 0.0000 0.0000 0.0000 0.0000 40.8846
#
#
#
# Elastic Compliance Matrix: (Units=1/GPa)
#
#
# Indices 1 2 3 4 5 6 
#
# 1 0.011658 -0.000571 0.000875 0.000000 0.000000 0.000000
# 2 -0.000571 0.011658 0.000875 0.000000 0.000000 0.000000
# 3 0.000875 0.000875 0.017568 0.000000 0.000000 0.000000
# 4 0.000000 0.000000 0.000000 -0.408066 0.000000 0.000000
# 5 0.000000 0.000000 0.000000 0.000000 -0.408066 0.000000
# 6 0.000000 0.000000 0.000000 0.000000 0.000000 0.024459
#
#
# Mechanical properties :
#
#
# Convention : Reuss Voigt Hill
#
# Bulk Modulus (GPa) = 23.12553 24.56433 23.84493
# Shear Modulus (GPa) = -6.76837 22.83213 8.03188
#
# Velocity S-wave (km/s) = -1.73509 3.18678 1.89011
# Velocity P-wave (km/s) = 2.50441 4.94640 3.92039
#
# Compressibility (1/GPa) = 0.04324226
#
# Stress axis : x y z
#
# Youngs Moduli (GPa) = 85.77460 85.77460 56.92059
#
# Poissons Ratio (x) = 0.04899 -0.04979
# Poissons Ratio (y) = 0.04899 -0.04979
# Poissons Ratio (z) = -0.07504 -0.07504
#
# Static dielectric constant tensor:
#      x y z
#    x 1.804250 0.000000 0.000000 
#    y 0.000000 1.804250 0.000000 
#    z 0.000000 0.000000 1.864650 
# 
# From -- ./inp_files/1019.got.cif
#   From: 2010.05.17/outbox.cif.g08.bks.cpg/sg189_1_cif.got.tgz:1019.got - 2010.05.20 12:14:34.
