data_PCOD9586455
_publ_section_title
;
Structure prediction by ZEFSAII (Michael W. Deem and Ramdas Pophale) SiO2 
 PCOD9586455
Probable space group: P -6 2 M
;
_chemical_formula_sum "Si O2"
_cell_formula_units_Z 72
_cell_length_a 14.910428
_cell_length_b 14.910428
_cell_length_c 19.377592
_cell_angle_alpha 90.000000
_cell_angle_beta 90.000000
_cell_angle_gamma 120.000000
_cell_volume 3730.874660
_symmetry_space_group_name_H-M "P -6 2 M"
_symmetry_group_IT_number 189
_symmetry_cell_setting 'hexagonal'
loop_
_space_group_symop_operation_xyz
x,y,z
-x+y,-x,-z
-y,x-y,z
x,y,-z
-x+y,-x,z
-y,x-y,-z
x-y,-y,-z
-x,-x+y,-z
y,x,-z
y,x,z
x-y,-y,z
-x,-x+y,z
loop_
_atom_site_type_symbol
_atom_site_label
_atom_site_fract_x
_atom_site_fract_y
_atom_site_fract_z
Si Si1 0.881279 0.483363 0.417999
Si Si2 0.542663 0.238118 0.782644
Si Si3 0.824829 0.266755 0.647306
Si Si4 0.356416 0.000000 0.917987
Si Si5 0.000000 0.566021 0.083352
Si Si6 0.783946 0.556529 0.918421
Si Si7 0.231832 0.116468 0.419676
O O1 0.859566 0.472595 0.500000
O O2 0.870484 0.377732 0.388618
O O3 0.800942 0.507610 0.379588
O O4 0.000000 0.573440 0.408212
O O5 0.640948 0.225616 0.765902
O O6 0.452494 0.171619 0.729956
O O7 0.526086 0.231219 0.864090
O O8 0.877783 0.202890 0.622878
O O9 0.249244 0.893061 0.904882
O O10 0.461345 0.000000 0.890237
O O11 0.369879 0.000000 0.000000
O O12 0.896815 0.572821 0.100030
O O13 0.000000 0.559923 0.000000
O O14 0.766209 0.529283 0.000000
O O15 0.264963 0.140238 0.500000
O O16 0.195620 0.195620 0.395808
O O17 0.137007 0.000000 0.417580
#
# Coordination Sequence:
#
# PCOD9586455 Si02
#       7
#    12  12  12   6   6  12  12
#     4  11  22  36  57  81 106 146 192 227 271 335
#     4  10  21  38  54  80 120 159 198 238 295 360
#     4  12  21  39  53  80 121 154 189 235 285 346
#     4   9  18  34  56  89 121 153 201 252 303 361
#     4   9  18  34  56  89 121 153 201 252 303 361
#     4  10  20  37  61  87 119 157 203 256 306 373
#     4  10  21  39  64  91 117 149 199 262 317 362
#
# _framework density 19.298423
#
# number of rings (size 3 to 8) (size 9 to 14) (size 15 to 20)
#    0.333    1.333    1.667    4.000    0.000    5.333 
#    7.000    0.000    0.000    0.333    0.000    2.333 
#    0.000    0.000    0.000    0.000    0.000    0.000 
#
# Total GULP energy -400923.860138 kJ/mol
# GULP energy per Si atom -5568.386946 kJ/mol
# Density = 1.925450 g / cm^3
# Si number density = 19.298423 Si / 1000 Ang^3
#
#
#
# Elastic Constant Matrix: (Units=GPa)
#
#
# Indices 1 2 3 4 5 6 
#
# 1 67.4651 12.6622 8.1670 0.0000 0.0000 0.0000
# 2 12.6622 67.4651 8.1670 0.0000 0.0000 0.0000
# 3 8.1670 8.1670 72.5219 0.0000 0.0000 0.0000
# 4 0.0000 0.0000 0.0000 -13.9102 0.0000 0.0000
# 5 0.0000 0.0000 0.0000 0.0000 -13.9102 0.0000
# 6 0.0000 0.0000 0.0000 0.0000 0.0000 27.4015
#
#
#
# Elastic Compliance Matrix: (Units=1/GPa)
#
#
# Indices 1 2 3 4 5 6 
#
# 1 0.015510 -0.002737 -0.001438 0.000000 0.000000 0.000000
# 2 -0.002737 0.015510 -0.001438 0.000000 0.000000 0.000000
# 3 -0.001438 -0.001438 0.014113 0.000000 0.000000 0.000000
# 4 0.000000 0.000000 0.000000 -0.071890 0.000000 0.000000
# 5 0.000000 0.000000 0.000000 0.000000 -0.071890 0.000000
# 6 0.000000 0.000000 0.000000 0.000000 0.000000 0.036494
#
#
# Mechanical properties :
#
#
# Convention : Reuss Voigt Hill
#
# Bulk Modulus (GPa) = 29.49348 29.49385 29.49366
# Shear Modulus (GPa) = -126.19289 11.81328 -57.18980
#
# Velocity S-wave (km/s) = -8.09520 2.47682 -5.44966
# Velocity P-wave (km/s) = 8.48883 4.84724 4.92770
#
# Compressibility (1/GPa) = 0.03390580
#
# Stress axis : x y z
#
# Youngs Moduli (GPa) = 64.47336 64.47336 70.85708
#
# Poissons Ratio (x) = 0.17646 0.10193
# Poissons Ratio (y) = 0.17646 0.10193
# Poissons Ratio (z) = 0.09274 0.09274
#
# Static dielectric constant tensor:
#      x y z
#    x 1.698520 0.000000 0.000000 
#    y 0.000000 1.698520 0.000000 
#    z 0.000000 0.000000 1.669700 
# 
# From -- ./inp_files/3444.got.cif
#   From: 2010.05.17/outbox.cif.g08.bks.cpg/sg189_2_cif.got.tgz:3444.got - 2010.05.20 12:14:34.
