data_PCOD9586089
_publ_section_title
;
Structure prediction by ZEFSAII (Michael W. Deem and Ramdas Pophale) SiO2 
 PCOD9586089
Probable space group: P -6 C 2
;
_chemical_formula_sum "Si O2"
_cell_formula_units_Z 70
_cell_length_a 14.353456
_cell_length_b 14.353456
_cell_length_c 17.440526
_cell_angle_alpha 90.000000
_cell_angle_beta 90.000000
_cell_angle_gamma 120.000000
_cell_volume 3111.739088
_symmetry_space_group_name_H-M "P -6 C 2"
_symmetry_group_IT_number 188
_symmetry_cell_setting 'hexagonal'
loop_
_space_group_symop_operation_xyz
x,y,z
-x+y,-x,1/2-z
-y,x-y,z
x,y,1/2-z
-x+y,-x,z
-y,x-y,1/2-z
-y,-x,-z
-x+y,y,-z
x,x-y,-z
-x+y,y,1/2+z
x,x-y,1/2+z
-y,-x,1/2+z
loop_
_atom_site_type_symbol
_atom_site_label
_atom_site_fract_x
_atom_site_fract_y
_atom_site_fract_z
Si Si1 0.325799 0.447193 0.116215
Si Si2 0.958344 0.817582 0.580103
Si Si3 0.165720 0.111327 0.750000
Si Si4 0.333333 0.666666 0.407066
Si Si5 0.682170 0.841085 0.500000
Si Si6 0.563277 0.092094 0.158717
Si Si7 0.192617 0.281918 0.250000
Si Si8 0.765124 0.202757 0.588792
O O1 0.319180 0.554468 0.121181
O O2 0.276261 0.391414 0.035048
O O3 0.446254 0.472301 0.127743
O O4 0.250660 0.359420 0.178422
O O5 0.924960 0.849920 0.500000
O O6 0.956377 0.870010 0.660410
O O7 0.873276 0.691051 0.592463
O O8 0.075127 0.834299 0.563152
O O9 0.165846 0.227273 0.750000
O O10 0.222166 0.036095 0.750000
O O11 0.333334 0.666667 0.500000
O O12 0.550984 0.088801 0.250000
O O13 0.495064 0.140209 0.121007
O O14 0.688202 0.166219 0.136184
O O15 0.766744 0.233257 0.500000
#
# Coordination Sequence:
#
# PCOD9586089 Si02
#       8
#    12  12   6   4   6  12   6  12
#     4  12  27  50  79 112 162 211 273 338 407 492
#     4  11  26  45  73 107 150 197 258 325 396 488
#     4  12  25  44  78 106 152 206 256 318 410 480
#     4  12  30  52  80 115 159 220 281 334 411 502
#     4  12  24  48  74 108 150 204 264 332 406 472
#     4  12  26  46  78 114 162 206 259 333 408 487
#     4  12  25  50  74 116 158 204 266 342 402 496
#     4  11  25  46  73 109 149 203 259 319 400 485
#
# _framework density 22.495459
#
# number of rings (size 3 to 8) (size 9 to 14) (size 15 to 20)
#    0.000    0.343    3.429    5.657    4.800    2.057 
#    0.514    0.000    0.000    0.000    0.000    0.000 
#    0.000    0.000    0.000    0.000    0.000    0.000 
#
# Total GULP energy -390967.303100 kJ/mol
# GULP energy per Si atom -5585.247187 kJ/mol
# Density = 2.244426 g / cm^3
# Si number density = 22.495459 Si / 1000 Ang^3
#
#
#
# Elastic Constant Matrix: (Units=GPa)
#
#
# Indices 1 2 3 4 5 6 
#
# 1 14.3013 109.2335 33.2123 0.0057 -0.0056 -0.0002
# 2 109.2335 14.3011 33.2115 -0.0046 0.0040 -0.0003
# 3 33.2123 33.2115 155.8173 0.0014 -0.0001 0.0002
# 4 0.0057 -0.0046 0.0014 -67.0094 -0.0051 -0.0048
# 5 -0.0056 0.0040 -0.0001 -0.0051 -67.0153 -0.0044
# 6 -0.0002 -0.0003 0.0002 -0.0048 -0.0044 -47.4554
#
#
#
# Elastic Compliance Matrix: (Units=1/GPa)
#
#
# Indices 1 2 3 4 5 6 
#
# 1 -0.000696 0.009838 -0.001949 -0.000001 0.000001 0.000000
# 2 0.009838 -0.000696 -0.001949 0.000001 -0.000001 0.000000
# 3 -0.001949 -0.001949 0.007249 0.000000 0.000000 0.000000
# 4 -0.000001 0.000001 0.000000 -0.014923 0.000001 0.000002
# 5 0.000001 -0.000001 0.000000 0.000001 -0.014922 0.000001
# 6 0.000000 0.000000 0.000000 0.000002 0.000001 -0.021072
#
#
# Mechanical properties :
#
#
# Convention : Reuss Voigt Hill
#
# Bulk Modulus (GPa) = 56.37299 59.52603 57.94951
# Shear Modulus (GPa) = -97.98379 -35.71187 -66.84783
#
# Velocity S-wave (km/s) = -6.60694 -3.98869 -5.45717
# Velocity P-wave (km/s) = 5.75223 2.30347 3.72707
#
# Compressibility (1/GPa) = 0.01773899
#
# Stress axis : x y z
#
# Youngs Moduli (GPa) = -1437.69420 -1437.71096 137.95946
#
# Poissons Ratio (x) = 14.14459 0.26884
# Poissons Ratio (y) = 14.14443 0.26885
# Poissons Ratio (z) = -2.80165 -2.80176
#
# Static dielectric constant tensor:
#      x y z
#    x 1.936690 0.000000 0.000000 
#    y 0.000000 1.936710 0.000000 
#    z 0.000000 0.000000 1.833250 
# 
# From -- ./inp_files/3265.got.cif
#   From: 2010.05.17/outbox.cif.g08.bks.cpg/sg188_2_cif.got.tgz:3265.got - 2010.05.20 12:11:46.
