data_PCOD9586060
_publ_section_title
;
Structure prediction by ZEFSAII (Michael W. Deem and Ramdas Pophale) SiO2 
 PCOD9586060
Probable space group: P -6 C 2
;
_chemical_formula_sum "Si O2"
_cell_formula_units_Z 48
_cell_length_a 16.687207
_cell_length_b 16.687207
_cell_length_c 9.302529
_cell_angle_alpha 90.000000
_cell_angle_beta 90.000000
_cell_angle_gamma 120.000000
_cell_volume 2243.359994
_symmetry_space_group_name_H-M "P -6 C 2"
_symmetry_group_IT_number 188
_symmetry_cell_setting 'hexagonal'
loop_
_space_group_symop_operation_xyz
x,y,z
-x+y,-x,1/2-z
-y,x-y,z
x,y,1/2-z
-x+y,-x,z
-y,x-y,1/2-z
-y,-x,-z
-x+y,y,-z
x,x-y,-z
-x+y,y,1/2+z
x,x-y,1/2+z
-y,-x,1/2+z
loop_
_atom_site_type_symbol
_atom_site_label
_atom_site_fract_x
_atom_site_fract_y
_atom_site_fract_z
Si Si1 0.337036 0.821724 0.914466
Si Si2 0.333135 0.999602 0.589145
Si Si3 0.643625 0.423847 0.250000
Si Si4 0.545615 0.091229 0.500000
Si Si5 0.000140 0.826927 0.924874
O O1 0.350729 0.804316 0.750000
O O2 0.295973 0.890050 0.916047
O O3 0.269526 0.730474 0.000000
O O4 0.432685 0.865369 0.000000
O O5 0.317754 0.025377 0.750000
O O6 0.443330 0.039728 0.568905
O O7 0.275512 0.020558 0.472776
O O8 0.741163 0.428222 0.250000
O O9 0.621817 0.464620 0.113610
O O10 0.002786 0.836228 0.750000
O O11 0.096217 0.903784 0.000000
O O12 0.920330 0.840660 0.000000
#
# Coordination Sequence:
#
# PCOD9586060 Si02
#       5
#    12  12   6   6  12
#     4  11  23  40  63  91 129 173 226 283 348 422
#     4  11  25  44  68 104 142 187 237 294 361 434
#     4  10  24  42  64  96 130 186 238 290 356 418
#     4  12  22  44  70  98 148 186 240 304 360 434
#     4  12  27  49  78 110 148 191 241 300 364 433
#
# _framework density 21.396477000000001
#
# number of rings (size 3 to 8) (size 9 to 14) (size 15 to 20)
#    0.250    0.500    2.500    5.000    1.750    6.000 
#    0.000    0.000    0.000    0.000    0.000    0.000 
#    0.000    0.000    0.000    0.000    0.000    0.000 
#
# Total GULP energy -267828.049729 kJ/mol
# GULP energy per Si atom -5579.751036 kJ/mol
# Density = 2.134778 g / cm^3
# Si number density = 21.396477 Si / 1000 Ang^3
#
#
#
# Elastic Constant Matrix: (Units=GPa)
#
#
# Indices 1 2 3 4 5 6 
#
# 1 71.5801 8.1304 32.7774 0.0001 0.0000 0.0000
# 2 8.1304 71.5801 32.7774 -0.0001 0.0000 0.0000
# 3 32.7774 32.7774 188.6741 0.0000 0.0000 0.0000
# 4 0.0001 -0.0001 0.0000 26.3151 0.0000 0.0000
# 5 0.0000 0.0000 0.0000 0.0000 26.3151 0.0001
# 6 0.0000 0.0000 0.0000 0.0000 0.0001 31.7249
#
#
#
# Elastic Compliance Matrix: (Units=1/GPa)
#
#
# Indices 1 2 3 4 5 6 
#
# 1 0.015199 -0.000562 -0.002543 0.000000 0.000000 0.000000
# 2 -0.000562 0.015199 -0.002543 0.000000 0.000000 0.000000
# 3 -0.002543 -0.002543 0.006184 0.000000 0.000000 0.000000
# 4 0.000000 0.000000 0.000000 0.038001 0.000000 0.000000
# 5 0.000000 0.000000 0.000000 0.000000 0.038001 0.000000
# 6 0.000000 0.000000 0.000000 0.000000 0.000000 0.031521
#
#
# Mechanical properties :
#
#
# Convention : Reuss Voigt Hill
#
# Bulk Modulus (GPa) = 39.54786 53.24496 46.39641
# Shear Modulus (GPa) = 30.51999 34.08098 32.30049
#
# Velocity S-wave (km/s) = 3.78087 3.99536 3.88959
# Velocity P-wave (km/s) = 6.13054 6.79874 6.47326
#
# Compressibility (1/GPa) = 0.02528582
#
# Stress axis : x y z
#
# Youngs Moduli (GPa) = 65.79579 65.79579 161.71766
#
# Poissons Ratio (x) = 0.03697 0.41121
# Poissons Ratio (y) = 0.03697 0.41121
# Poissons Ratio (z) = 0.16730 0.16730
#
# Static dielectric constant tensor:
#      x y z
#    x 1.787210 0.000000 0.000000 
#    y 0.000000 1.787210 0.000000 
#    z 0.000000 0.000000 1.738100 
# 
# From -- ./inp_files/412.got.cif
#   From: 2010.05.17/outbox.cif.g08.bks.cpg/sg188_1_cif.got.tgz:412.got - 2010.05.20 12:11:46.
