data_PCOD9586980
_publ_section_title
;
Structure prediction by ZEFSAII (Michael W. Deem and Ramdas Pophale) SiO2 
 PCOD9586980
Probable space group: P -6 2 C
;
_chemical_formula_sum "Si O2"
_cell_formula_units_Z 36
_cell_length_a 17.018015
_cell_length_b 17.018015
_cell_length_c 8.703900
_cell_angle_alpha 90.000000
_cell_angle_beta 90.000000
_cell_angle_gamma 120.000000
_cell_volume 2183.043193
_symmetry_space_group_name_H-M "P -6 2 C"
_symmetry_group_IT_number 190
_symmetry_cell_setting 'hexagonal'
loop_
_space_group_symop_operation_xyz
x,y,z
-x+y,-x,1/2-z
-y,x-y,z
x,y,1/2-z
-x+y,-x,z
-y,x-y,1/2-z
x-y,-y,-z
-x,-x+y,-z
y,x,-z
y,x,1/2+z
x-y,-y,1/2+z
-x,-x+y,1/2+z
loop_
_atom_site_type_symbol
_atom_site_label
_atom_site_fract_x
_atom_site_fract_y
_atom_site_fract_z
Si Si1 0.270597 0.901564 0.067838
Si Si2 0.899449 0.098714 0.066130
Si Si3 0.242763 0.557444 0.932488
O O1 0.263810 0.909354 0.250000
O O2 0.174611 0.876068 0.990782
O O3 0.298732 0.827528 0.025903
O O4 0.341855 0.000000 0.000000
O O5 0.901770 0.097115 0.250000
O O6 0.000000 0.131905 0.000000
O O7 0.831608 0.000000 0.000000
O O8 0.349037 0.590813 0.963712
O O9 0.227376 0.538878 0.750000
#
# Coordination Sequence:
#
# PCOD9586980 Si02
#       3
#    12  12  12
#     4  11  21  34  54  80 110 142 179 220 265 314
#     4  11  21  35  53  75 105 140 180 220 266 318
#     4   8  17  35  58  79 104 138 173 214 264 314
#
# _framework density 16.490741
#
# number of rings (size 3 to 8) (size 9 to 14) (size 15 to 20)
#    0.667    1.333    0.000    8.333    0.000    1.333 
#    0.000    1.667    0.000    8.000    0.000    0.000 
#    0.000    0.000    0.000    0.000    0.000    0.000 
#
# Total GULP energy -200698.475566 kJ/mol
# GULP energy per Si atom -5574.957655 kJ/mol
# Density = 1.645321 g / cm^3
# Si number density = 16.490741 Si / 1000 Ang^3
#
#
#
# Elastic Constant Matrix: (Units=GPa)
#
#
# Indices 1 2 3 4 5 6 
#
# 1 83.0772 56.9350 54.6618 0.0000 0.0000 0.0000
# 2 56.9350 83.0772 54.6618 0.0000 0.0000 0.0000
# 3 54.6618 54.6618 159.4904 0.0000 0.0000 0.0000
# 4 0.0000 0.0000 0.0000 29.2137 0.0000 0.0000
# 5 0.0000 0.0000 0.0000 0.0000 29.2137 0.0000
# 6 0.0000 0.0000 0.0000 0.0000 0.0000 13.0711
#
#
#
# Elastic Compliance Matrix: (Units=1/GPa)
#
#
# Indices 1 2 3 4 5 6 
#
# 1 0.024002 -0.014250 -0.003342 0.000000 0.000000 0.000000
# 2 -0.014250 0.024002 -0.003342 0.000000 0.000000 0.000000
# 3 -0.003342 -0.003342 0.008561 0.000000 0.000000 0.000000
# 4 0.000000 0.000000 0.000000 0.034230 0.000000 0.000000
# 5 0.000000 0.000000 0.000000 0.000000 0.034230 0.000000
# 6 0.000000 0.000000 0.000000 0.000000 0.000000 0.076504
#
#
# Mechanical properties :
#
#
# Convention : Reuss Voigt Hill
#
# Bulk Modulus (GPa) = 68.04685 73.12909 70.58797
# Shear Modulus (GPa) = 20.13708 24.92549 22.53128
#
# Velocity S-wave (km/s) = 3.49824 3.89200 3.70036
# Velocity P-wave (km/s) = 7.59408 8.03982 7.82013
#
# Compressibility (1/GPa) = 0.01469576
#
# Stress axis : x y z
#
# Youngs Moduli (GPa) = 41.66310 41.66310 116.80969
#
# Poissons Ratio (x) = 0.59371 0.39041
# Poissons Ratio (y) = 0.59371 0.39041
# Poissons Ratio (z) = 0.13925 0.13925
#
# Static dielectric constant tensor:
#      x y z
#    x 1.543840 0.000000 0.000000 
#    y 0.000000 1.543840 0.000000 
#    z 0.000000 0.000000 1.548690 
# 
# From -- ./inp_files/458.got.cif
#   From: 2010.05.17/outbox.cif.g08.bks.cpg/sg190_1_cif.got.tgz:458.got - 2010.05.20 12:16:56.
