data_PCOD9586763
_publ_section_title
;
Structure prediction by ZEFSAII (Michael W. Deem and Ramdas Pophale) SiO2 
 PCOD9586763
Probable space group: P -6 2 C
;
_chemical_formula_sum "Si O2"
_cell_formula_units_Z 72
_cell_length_a 24.305982
_cell_length_b 24.305982
_cell_length_c 8.935729
_cell_angle_alpha 90.000000
_cell_angle_beta 90.000000
_cell_angle_gamma 120.000000
_cell_volume 4571.797278
_symmetry_space_group_name_H-M "P -6 2 C"
_symmetry_group_IT_number 190
_symmetry_cell_setting 'hexagonal'
loop_
_space_group_symop_operation_xyz
x,y,z
-x+y,-x,1/2-z
-y,x-y,z
x,y,1/2-z
-x+y,-x,z
-y,x-y,1/2-z
x-y,-y,-z
-x,-x+y,-z
y,x,-z
y,x,1/2+z
x-y,-y,1/2+z
-x,-x+y,1/2+z
loop_
_atom_site_type_symbol
_atom_site_label
_atom_site_fract_x
_atom_site_fract_y
_atom_site_fract_z
Si Si1 0.068987 0.372007 0.071035
Si Si2 0.486294 0.859866 0.073638
Si Si3 0.862745 0.374047 0.428920
Si Si4 0.363344 0.294253 0.571261
Si Si5 0.635129 0.815303 0.578284
Si Si6 0.744778 0.481136 0.420109
O O1 0.066421 0.371310 0.250000
O O2 0.097091 0.444097 0.011048
O O3 0.117401 0.349511 0.012478
O O4 0.000000 0.329604 0.000000
O O5 0.477055 0.863264 0.250000
O O6 0.561352 0.902200 0.039721
O O7 0.443784 0.881304 0.982138
O O8 0.465598 0.787896 0.025704
O O9 0.869368 0.370642 0.250000
O O10 0.787925 0.326597 0.465332
O O11 0.355911 0.289084 0.750000
O O12 0.323891 0.323891 0.500000
O O13 0.344318 0.226167 0.500621
O O14 0.657059 0.822936 0.750000
O O15 0.558019 0.779354 0.582352
O O16 0.745473 0.459420 0.250000
#
# Coordination Sequence:
#
# PCOD9586763 Si02
#       6
#    12  12  12  12  12  12
#     4  11  21  34  52  74  99 127 161 197 237 289
#     4  10  20  32  47  67  91 119 155 202 252 299
#     4  10  20  34  50  67  90 121 157 200 250 300
#     4  10  20  33  50  73  98 128 163 199 240 291
#     4   9  17  32  52  72  95 123 154 191 233 279
#     4   8  16  31  48  63  81 112 150 189 238 296
#
# _framework density 15.74873
#
# number of rings (size 3 to 8) (size 9 to 14) (size 15 to 20)
#    0.000    2.333    0.000    4.500    0.000    7.333 
#    1.000    1.667    0.000    0.000    0.000    0.000 
#    0.000    0.000    0.000    0.500    0.000    7.000 
#
# Total GULP energy -401579.380129 kJ/mol
# GULP energy per Si atom -5577.491391 kJ/mol
# Density = 1.571289 g / cm^3
# Si number density = 15.748730 Si / 1000 Ang^3
#
#
#
# Elastic Constant Matrix: (Units=GPa)
#
#
# Indices 1 2 3 4 5 6 
#
# 1 79.2375 56.1533 61.8132 0.0000 0.0000 0.0000
# 2 56.1533 79.2375 61.8132 0.0000 0.0000 0.0000
# 3 61.8132 61.8132 113.5653 0.0000 0.0000 0.0000
# 4 0.0000 0.0000 0.0000 22.6769 0.0000 0.0000
# 5 0.0000 0.0000 0.0000 0.0000 22.6769 0.0000
# 6 0.0000 0.0000 0.0000 0.0000 0.0000 11.5421
#
#
#
# Elastic Compliance Matrix: (Units=1/GPa)
#
#
# Indices 1 2 3 4 5 6 
#
# 1 0.029002 -0.014318 -0.007992 0.000000 0.000000 0.000000
# 2 -0.014318 0.029002 -0.007992 0.000000 0.000000 0.000000
# 3 -0.007992 -0.007992 0.017506 0.000000 0.000000 0.000000
# 4 0.000000 0.000000 0.000000 0.044098 0.000000 0.000000
# 5 0.000000 0.000000 0.000000 0.000000 0.044098 0.000000
# 6 0.000000 0.000000 0.000000 0.000000 0.000000 0.086639
#
#
# Mechanical properties :
#
#
# Convention : Reuss Voigt Hill
#
# Bulk Modulus (GPa) = 67.09507 70.17777 68.63642
# Shear Modulus (GPa) = 15.82690 17.52990 16.67840
#
# Velocity S-wave (km/s) = 3.17356 3.33993 3.25781
# Velocity P-wave (km/s) = 7.49163 7.71565 7.60446
#
# Compressibility (1/GPa) = 0.01490422
#
# Stress axis : x y z
#
# Youngs Moduli (GPa) = 34.48059 34.48059 57.12313
#
# Poissons Ratio (x) = 0.49369 0.45655
# Poissons Ratio (y) = 0.49369 0.45655
# Poissons Ratio (z) = 0.27558 0.27558
#
# Static dielectric constant tensor:
#      x y z
#    x 1.518430 0.000000 0.000000 
#    y 0.000000 1.518430 0.000000 
#    z 0.000000 0.000000 1.525030 
# 
# From -- ./inp_files/1182.got.cif
#   From: 2010.05.17/outbox.cif.g08.bks.cpg/sg190_1_cif.got.tgz:1182.got - 2010.05.20 12:16:56.
