data_PCOD9586126
_publ_section_title
;
Structure prediction by ZEFSAII (Michael W. Deem and Ramdas Pophale) SiO2 
 PCOD9586126
Probable space group: P -6 2 M
;
_chemical_formula_sum "Si O2"
_cell_formula_units_Z 78
_cell_length_a 25.620579
_cell_length_b 25.620579
_cell_length_c 8.370674
_cell_angle_alpha 90.000000
_cell_angle_beta 90.000000
_cell_angle_gamma 120.000000
_cell_volume 4758.487584
_symmetry_space_group_name_H-M "P -6 2 M"
_symmetry_group_IT_number 189
_symmetry_cell_setting 'hexagonal'
loop_
_space_group_symop_operation_xyz
x,y,z
-x+y,-x,-z
-y,x-y,z
x,y,-z
-x+y,-x,z
-y,x-y,-z
x-y,-y,-z
-x,-x+y,-z
y,x,-z
y,x,z
x-y,-y,z
-x,-x+y,z
loop_
_atom_site_type_symbol
_atom_site_label
_atom_site_fract_x
_atom_site_fract_y
_atom_site_fract_z
Si Si1 0.382657 0.806123 0.692384
Si Si2 0.467909 0.752595 0.693705
Si Si3 0.809914 0.926503 0.174343
Si Si4 0.068594 0.555573 0.192816
Si Si5 0.066607 0.136916 0.500000
Si Si6 0.429002 0.305973 0.189867
Si Si7 0.296781 0.224709 0.682092
O O1 0.382621 0.808426 0.500000
O O2 0.415740 0.768281 0.737564
O O3 0.313330 0.767451 0.745743
O O4 0.423395 0.874874 0.751960
O O5 0.472385 0.755184 0.500000
O O6 0.527558 0.807258 0.767723
O O7 0.828448 0.904707 0.333172
O O8 0.741276 0.910280 0.201041
O O9 0.850053 0.000000 0.173958
O O10 0.818403 0.905993 0.000000
O O11 0.086989 0.623837 0.242896
O O12 0.000000 0.508796 0.246782
O O13 0.068303 0.554497 0.000000
O O14 0.115746 0.115746 0.500000
O O15 0.000000 0.080652 0.500000
O O16 0.365692 0.266036 0.273712
O O17 0.420097 0.305235 0.000000
O O18 0.289423 0.202142 0.500000
O O19 0.265492 0.265492 0.691259
#
# Coordination Sequence:
#
# PCOD9586126 Si02
#       7
#    12  12  12  12   6  12  12
#     4   9  17  29  47  66  88 120 156 193 233 281
#     4   9  17  30  45  65  91 119 153 193 236 279
#     4   9  17  30  47  67  94 126 160 196 232 278
#     4   9  18  31  44  62  92 125 154 188 230 277
#     4  10  19  32  48  70  98 128 162 198 236 276
#     4  10  19  29  43  66  95 124 154 188 230 281
#     4  10  18  29  46  68  94 125 157 189 230 282
#
# _framework density 16.391762
#
# number of rings (size 3 to 8) (size 9 to 14) (size 15 to 20)
#    0.000    2.615    0.769    1.769    0.000    4.615 
#    0.000    0.000    0.000    2.769    0.000    1.077 
#    0.000    1.231    0.000    0.000    0.000    0.000 
#
# Total GULP energy -434428.704592 kJ/mol
# GULP energy per Si atom -5569.598777 kJ/mol
# Density = 1.635445 g / cm^3
# Si number density = 16.391762 Si / 1000 Ang^3
#
#
#
# Elastic Constant Matrix: (Units=GPa)
#
#
# Indices 1 2 3 4 5 6 
#
# 1 65.4862 20.3180 23.6679 0.0000 0.0000 0.0000
# 2 20.3180 65.4862 23.6679 0.0000 0.0000 0.0000
# 3 23.6679 23.6679 64.8405 0.0000 0.0000 0.0000
# 4 0.0000 0.0000 0.0000 10.7599 0.0000 0.0000
# 5 0.0000 0.0000 0.0000 0.0000 10.7599 0.0000
# 6 0.0000 0.0000 0.0000 0.0000 0.0000 22.5841
#
#
#
# Elastic Compliance Matrix: (Units=1/GPa)
#
#
# Indices 1 2 3 4 5 6 
#
# 1 0.018366 -0.003773 -0.005327 0.000000 0.000000 0.000000
# 2 -0.003773 0.018366 -0.005327 0.000000 0.000000 0.000000
# 3 -0.005327 -0.005327 0.019311 0.000000 0.000000 0.000000
# 4 0.000000 0.000000 0.000000 0.092938 0.000000 0.000000
# 5 0.000000 0.000000 0.000000 0.000000 0.092938 0.000000
# 6 0.000000 0.000000 0.000000 0.000000 0.000000 0.044279
#
#
# Mechanical properties :
#
#
# Convention : Reuss Voigt Hill
#
# Bulk Modulus (GPa) = 36.77770 36.79115 36.78442
# Shear Modulus (GPa) = 15.42664 17.36473 16.39568
#
# Velocity S-wave (km/s) = 3.07110 3.25831 3.16609
# Velocity P-wave (km/s) = 5.92123 6.05385 5.98790
#
# Compressibility (1/GPa) = 0.02719039
#
# Stress axis : x y z
#
# Youngs Moduli (GPa) = 54.44774 54.44774 51.78362
#
# Poissons Ratio (x) = 0.20544 0.27584
# Poissons Ratio (y) = 0.20544 0.27584
# Poissons Ratio (z) = 0.29003 0.29003
#
# Static dielectric constant tensor:
#      x y z
#    x 1.537280 0.000000 0.000000 
#    y 0.000000 1.537280 0.000000 
#    z 0.000000 0.000000 1.589010 
# 
# From -- ./inp_files/1404.got.cif
#   From: 2010.05.17/outbox.cif.g08.bks.cpg/sg189_1_cif.got.tgz:1404.got - 2010.05.20 12:14:34.
