data_PCOD9586910
_publ_section_title
;
Structure prediction by ZEFSAII (Michael W. Deem and Ramdas Pophale) SiO2 
 PCOD9586910
Probable space group: P -6 2 C
;
_chemical_formula_sum "Si O2"
_cell_formula_units_Z 48
_cell_length_a 10.604275
_cell_length_b 10.604275
_cell_length_c 28.622651
_cell_angle_alpha 90.000000
_cell_angle_beta 90.000000
_cell_angle_gamma 120.000000
_cell_volume 2787.420247
_symmetry_space_group_name_H-M "P -6 2 C"
_symmetry_group_IT_number 190
_symmetry_cell_setting 'hexagonal'
loop_
_space_group_symop_operation_xyz
x,y,z
-x+y,-x,1/2-z
-y,x-y,z
x,y,1/2-z
-x+y,-x,z
-y,x-y,1/2-z
x-y,-y,-z
-x,-x+y,-z
y,x,-z
y,x,1/2+z
x-y,-y,1/2+z
-x,-x+y,1/2+z
loop_
_atom_site_type_symbol
_atom_site_label
_atom_site_fract_x
_atom_site_fract_y
_atom_site_fract_z
Si Si1 0.339067 0.189185 0.527773
Si Si2 0.640736 0.156183 0.697101
Si Si3 0.889079 0.272597 0.066157
Si Si4 0.589331 0.985998 0.896094
O O1 0.228846 0.228846 0.500000
O O2 0.434364 0.178995 0.485796
O O3 0.422136 0.313612 0.565745
O O4 0.267349 0.035877 0.554899
O O5 0.790372 0.311874 0.692520
O O6 0.632706 0.102174 0.750000
O O7 0.621871 0.050034 0.655621
O O8 0.769300 0.140314 0.096388
O O9 0.927065 0.422963 0.089924
#
# Coordination Sequence:
#
# PCOD9586910 Si02
#       4
#    12  12  12  12
#     4   9  21  37  50  76 114 157 190 226 280 341
#     4   8  17  35  61  88 111 143 192 238 284 350
#     4  10  22  35  52  82 113 146 198 232 279 348
#     4  11  20  38  56  82 115 154 188 246 290 336
#
# _framework density 17.220224999999999
#
# number of rings (size 3 to 8) (size 9 to 14) (size 15 to 20)
#    0.500    2.000    0.000    2.000   10.500    0.000 
#   40.500    1.250    0.000    1.500    0.000    0.000 
#    0.000    0.000    0.000    0.000    0.000    0.000 
#
# Total GULP energy -267286.271818 kJ/mol
# GULP energy per Si atom -5568.463996 kJ/mol
# Density = 1.718103 g / cm^3
# Si number density = 17.220225 Si / 1000 Ang^3
#
#
#
# Elastic Constant Matrix: (Units=GPa)
#
#
# Indices 1 2 3 4 5 6 
#
# 1 48.5121 18.4254 59.7035 0.0000 0.0000 0.0000
# 2 18.4254 48.5121 59.7035 0.0000 0.0000 0.0000
# 3 59.7035 59.7035 164.1920 0.0000 0.0000 0.0000
# 4 0.0000 0.0000 0.0000 29.8246 0.0000 0.0000
# 5 0.0000 0.0000 0.0000 0.0000 29.8246 0.0000
# 6 0.0000 0.0000 0.0000 0.0000 0.0000 15.0434
#
#
#
# Elastic Compliance Matrix: (Units=1/GPa)
#
#
# Indices 1 2 3 4 5 6 
#
# 1 0.037878 0.004641 -0.015461 0.000000 0.000000 0.000000
# 2 0.004641 0.037878 -0.015461 0.000000 0.000000 0.000000
# 3 -0.015461 -0.015461 0.017334 0.000000 0.000000 0.000000
# 4 0.000000 0.000000 0.000000 0.033529 0.000000 0.000000
# 5 0.000000 0.000000 0.000000 0.000000 0.033529 0.000000
# 6 0.000000 0.000000 0.000000 0.000000 0.000000 0.066475
#
#
# Mechanical properties :
#
#
# Convention : Reuss Voigt Hill
#
# Bulk Modulus (GPa) = 24.67345 59.65342 42.16344
# Shear Modulus (GPa) = 17.08262 23.16411 20.12336
#
# Velocity S-wave (km/s) = 3.15303 3.67163 3.42217
# Velocity P-wave (km/s) = 5.25498 7.25887 6.33664
#
# Compressibility (1/GPa) = 0.04052939
#
# Stress axis : x y z
#
# Youngs Moduli (GPa) = 26.40034 26.40034 57.68946
#
# Poissons Ratio (x) = -0.12253 0.89193
# Poissons Ratio (y) = -0.12253 0.89193
# Poissons Ratio (z) = 0.40817 0.40817
#
# Static dielectric constant tensor:
#      x y z
#    x 1.613440 0.000000 0.000000 
#    y 0.000000 1.613440 0.000000 
#    z 0.000000 0.000000 1.570450 
# 
# From -- ./inp_files/4829.got.cif
#   From: 2010.05.17/outbox.cif.g08.bks.cpg/sg190_3_cif.got.tgz:4829.got - 2010.05.20 12:16:56.
