data_PCOD9586825
_publ_section_title
;
Structure prediction by ZEFSAII (Michael W. Deem and Ramdas Pophale) SiO2 
 PCOD9586825
Probable space group: P -6 2 C
;
_chemical_formula_sum "Si O2"
_cell_formula_units_Z 64
_cell_length_a 14.240101
_cell_length_b 14.240101
_cell_length_c 18.754844
_cell_angle_alpha 90.000000
_cell_angle_beta 90.000000
_cell_angle_gamma 120.000000
_cell_volume 3293.595245
_symmetry_space_group_name_H-M "P -6 2 C"
_symmetry_group_IT_number 190
_symmetry_cell_setting 'hexagonal'
loop_
_space_group_symop_operation_xyz
x,y,z
-x+y,-x,1/2-z
-y,x-y,z
x,y,1/2-z
-x+y,-x,z
-y,x-y,1/2-z
x-y,-y,-z
-x,-x+y,-z
y,x,-z
y,x,1/2+z
x-y,-y,1/2+z
-x,-x+y,1/2+z
loop_
_atom_site_type_symbol
_atom_site_label
_atom_site_fract_x
_atom_site_fract_y
_atom_site_fract_z
Si Si1 0.887531 0.775182 0.535896
Si Si2 0.573643 0.478233 0.832575
Si Si3 0.413634 0.166827 0.436135
Si Si4 0.499451 0.917773 0.935491
Si Si5 0.666668 0.333334 0.661729
Si Si6 0.249312 0.977483 0.333657
O O1 0.863398 0.863398 0.500000
O O2 0.795069 0.659465 0.506743
O O3 0.860946 0.772813 0.619746
O O4 0.000000 0.798952 0.500000
O O5 0.549408 0.453243 0.750000
O O6 0.472659 0.476784 0.868602
O O7 0.601083 0.390641 0.863914
O O8 0.679932 0.597120 0.837646
O O9 0.507570 0.137389 0.446276
O O10 0.463421 0.293874 0.423629
O O11 0.328898 0.091403 0.374292
O O12 0.561549 0.000000 0.000000
O O13 0.666667 0.333334 0.750000
O O14 0.232091 0.990425 0.250000
#
# Coordination Sequence:
#
# PCOD9586825 Si02
#       6
#    12  12  12  12   4  12
#     4  10  20  37  58  81 111 151 194 243 299 349
#     4   9  19  35  55  81 115 152 193 240 289 343
#     4  10  21  37  57  83 118 153 192 240 293 351
#     4  11  22  36  56  84 115 152 193 234 286 349
#     4   9  18  33  54  81 111 144 181 230 289 339
#     4   9  19  38  60  82 112 152 196 243 292 349
#
# _framework density 19.431653000000001
#
# number of rings (size 3 to 8) (size 9 to 14) (size 15 to 20)
#    0.000    2.250    0.000    3.938    0.000    5.250 
#    0.000    3.750    0.000    2.250    0.000    0.000 
#    0.000    0.000    0.000    0.000    0.000    0.000 
#
# Total GULP energy -357007.186505 kJ/mol
# GULP energy per Si atom -5578.237289 kJ/mol
# Density = 1.938743 g / cm^3
# Si number density = 19.431653 Si / 1000 Ang^3
#
#
#
# Elastic Constant Matrix: (Units=GPa)
#
#
# Indices 1 2 3 4 5 6 
#
# 1 98.6429 47.9316 29.0258 -0.0001 0.0000 0.0002
# 2 47.9316 98.6436 29.0263 0.0000 0.0000 0.0002
# 3 29.0258 29.0263 109.2733 -0.0001 0.0000 0.0002
# 4 -0.0001 0.0000 -0.0001 4.6571 0.0003 0.0000
# 5 0.0000 0.0000 0.0000 0.0003 4.6570 0.0000
# 6 0.0002 0.0002 0.0002 0.0000 0.0000 25.3558
#
#
#
# Elastic Compliance Matrix: (Units=1/GPa)
#
#
# Indices 1 2 3 4 5 6 
#
# 1 0.013672 -0.006047 -0.002025 0.000000 0.000000 0.000000
# 2 -0.006047 0.013672 -0.002025 0.000000 0.000000 0.000000
# 3 -0.002025 -0.002025 0.010227 0.000000 0.000000 0.000000
# 4 0.000000 0.000000 0.000000 0.214726 -0.000012 0.000000
# 5 0.000000 0.000000 0.000000 -0.000012 0.214731 0.000000
# 6 0.000000 0.000000 0.000000 0.000000 0.000000 0.039439
#
#
# Mechanical properties :
#
#
# Convention : Reuss Voigt Hill
#
# Bulk Modulus (GPa) = 57.55304 57.61415 57.58359
# Shear Modulus (GPa) = 9.39048 20.30572 14.84810
#
# Velocity S-wave (km/s) = 2.20070 3.23612 2.76727
# Velocity P-wave (km/s) = 6.01165 6.60888 6.31733
#
# Compressibility (1/GPa) = 0.01737528
#
# Stress axis : x y z
#
# Youngs Moduli (GPa) = 73.14217 73.14257 97.77733
#
# Poissons Ratio (x) = 0.44232 0.19803
# Poissons Ratio (y) = 0.44232 0.19803
# Poissons Ratio (z) = 0.14813 0.14814
#
# Static dielectric constant tensor:
#      x y z
#    x 1.692860 0.000000 0.000000 
#    y 0.000000 1.692860 0.000000 
#    z 0.000000 0.000000 1.704650 
# 
# From -- ./inp_files/3663.got.cif
#   From: 2010.05.17/outbox.cif.g08.bks.cpg/sg190_2_cif.got.tgz:3663.got - 2010.05.20 12:16:56.
