data_PCOD9586663
_publ_section_title
;
Structure prediction by ZEFSAII (Michael W. Deem and Ramdas Pophale) SiO2 
 PCOD9586663
Probable space group: P -6 2 C
;
_chemical_formula_sum "Si O2"
_cell_formula_units_Z 72
_cell_length_a 18.128612
_cell_length_b 18.128612
_cell_length_c 17.421619
_cell_angle_alpha 90.000000
_cell_angle_beta 90.000000
_cell_angle_gamma 120.000000
_cell_volume 4958.476411
_symmetry_space_group_name_H-M "P -6 2 C"
_symmetry_group_IT_number 190
_symmetry_cell_setting 'hexagonal'
loop_
_space_group_symop_operation_xyz
x,y,z
-x+y,-x,1/2-z
-y,x-y,z
x,y,1/2-z
-x+y,-x,z
-y,x-y,1/2-z
x-y,-y,-z
-x,-x+y,-z
y,x,-z
y,x,1/2+z
x-y,-y,1/2+z
-x,-x+y,1/2+z
loop_
_atom_site_type_symbol
_atom_site_label
_atom_site_fract_x
_atom_site_fract_y
_atom_site_fract_z
Si Si1 0.253157 0.923211 0.558883
Si Si2 0.494837 0.160423 0.160982
Si Si3 0.753103 0.079371 0.058693
Si Si4 0.995533 0.146918 0.907444
Si Si5 0.492001 0.332591 0.339649
Si Si6 0.156615 0.159636 0.840706
O O1 0.309156 0.893306 0.605165
O O2 0.167859 0.836554 0.528286
O O3 0.212597 0.966778 0.611962
O O4 0.308625 0.000000 0.500000
O O5 0.470475 0.135512 0.250000
O O6 0.515868 0.257956 0.154262
O O7 0.576991 0.151907 0.144116
O O8 0.692021 0.107027 0.101443
O O9 0.792071 0.044811 0.123000
O O10 0.704947 0.000000 0.000000
O O11 0.059380 0.121660 0.868302
O O12 0.901273 0.088148 0.877961
O O13 0.000000 0.140968 0.000000
O O14 0.466471 0.332083 0.250000
O O15 0.162155 0.160808 0.750000
#
# Coordination Sequence:
#
# PCOD9586663 Si02
#       6
#    12  12  12  12  12  12
#     4   9  18  30  44  61  84 113 143 173 206 249
#     4   9  17  29  47  67  88 110 135 169 212 255
#     4  10  19  31  45  62  86 117 146 174 213 253
#     4  10  19  31  43  57  82 116 149 182 217 253
#     4   9  17  30  47  68  89 111 138 172 213 260
#     4  11  20  29  42  61  83 111 149 188 217 248
#
# _framework density 14.520588999999999
#
# number of rings (size 3 to 8) (size 9 to 14) (size 15 to 20)
#    0.000    2.333    0.000    5.167    0.000    6.667 
#    0.000    0.000    0.000    0.333    0.000    0.000 
#    0.000    0.000    0.000    0.000    0.000   10.000 
#
# Total GULP energy -400868.845555 kJ/mol
# GULP energy per Si atom -5567.622855 kJ/mol
# Density = 1.448754 g / cm^3
# Si number density = 14.520589 Si / 1000 Ang^3
#
#
#
# Elastic Constant Matrix: (Units=GPa)
#
#
# Indices 1 2 3 4 5 6 
#
# 1 105.2056 54.6914 55.4330 0.0000 0.0000 0.0000
# 2 54.6914 105.2056 55.4330 0.0000 0.0000 0.0000
# 3 55.4330 55.4330 94.0834 0.0000 0.0000 0.0000
# 4 0.0000 0.0000 0.0000 8.9585 0.0000 0.0000
# 5 0.0000 0.0000 0.0000 0.0000 8.9585 0.0000
# 6 0.0000 0.0000 0.0000 0.0000 0.0000 25.2571
#
#
#
# Elastic Compliance Matrix: (Units=1/GPa)
#
#
# Indices 1 2 3 4 5 6 
#
# 1 0.015185 -0.004611 -0.006230 0.000000 0.000000 0.000000
# 2 -0.004611 0.015185 -0.006230 0.000000 0.000000 0.000000
# 3 -0.006230 -0.006230 0.017970 0.000000 0.000000 0.000000
# 4 0.000000 0.000000 0.000000 0.111625 0.000000 0.000000
# 5 0.000000 0.000000 0.000000 0.000000 0.111625 0.000000
# 6 0.000000 0.000000 0.000000 0.000000 0.000000 0.039593
#
#
# Mechanical properties :
#
#
# Convention : Reuss Voigt Hill
#
# Bulk Modulus (GPa) = 70.43375 70.62330 70.52852
# Shear Modulus (GPa) = 14.28333 17.89730 16.09032
#
# Velocity S-wave (km/s) = 3.13974 3.51457 3.33243
# Velocity P-wave (km/s) = 7.85846 8.07539 7.96766
#
# Compressibility (1/GPa) = 0.01419774
#
# Stress axis : x y z
#
# Youngs Moduli (GPa) = 65.85455 65.85455 55.64840
#
# Poissons Ratio (x) = 0.30369 0.34668
# Poissons Ratio (y) = 0.30369 0.34668
# Poissons Ratio (z) = 0.41026 0.41026
#
# Static dielectric constant tensor:
#      x y z
#    x 1.484700 0.000000 0.000000 
#    y 0.000000 1.484700 0.000000 
#    z 0.000000 0.000000 1.473890 
# 
# From -- ./inp_files/3855.got.cif
#   From: 2010.05.17/outbox.cif.g08.bks.cpg/sg190_2_cif.got.tgz:3855.got - 2010.05.20 12:16:56.
