data_PCOD9586436
_publ_section_title
;
Structure prediction by ZEFSAII (Michael W. Deem and Ramdas Pophale) SiO2 
 PCOD9586436
Probable space group: P -6 2 M
;
_chemical_formula_sum "Si O2"
_cell_formula_units_Z 84
_cell_length_a 13.973363
_cell_length_b 13.973363
_cell_length_c 23.555389
_cell_angle_alpha 90.000000
_cell_angle_beta 90.000000
_cell_angle_gamma 120.000000
_cell_volume 3983.114537
_symmetry_space_group_name_H-M "P -6 2 M"
_symmetry_group_IT_number 189
_symmetry_cell_setting 'hexagonal'
loop_
_space_group_symop_operation_xyz
x,y,z
-x+y,-x,-z
-y,x-y,z
x,y,-z
-x+y,-x,z
-y,x-y,-z
x-y,-y,-z
-x,-x+y,-z
y,x,-z
y,x,z
x-y,-y,z
-x,-x+y,z
loop_
_atom_site_type_symbol
_atom_site_label
_atom_site_fract_x
_atom_site_fract_y
_atom_site_fract_z
Si Si1 0.738804 0.868660 0.631787
Si Si2 0.873476 0.670871 0.935580
Si Si3 0.428497 0.875317 0.672707
Si Si4 0.438336 0.869430 0.062573
Si Si5 0.875126 0.294924 0.154952
Si Si6 0.576085 0.800377 0.271001
Si Si7 0.865900 0.323309 0.563609
O O1 0.824028 0.824028 0.622284
O O2 0.689917 0.837964 0.695731
O O3 0.630756 0.793640 0.592496
O O4 0.796504 0.000000 0.622048
O O5 0.863346 0.549594 0.933222
O O6 0.786243 0.665268 0.891652
O O7 0.000000 0.757902 0.922036
O O8 0.850590 0.688765 0.000000
O O9 0.530182 0.874474 0.702079
O O10 0.320809 0.804033 0.709111
O O11 0.394239 0.837042 0.607602
O O12 0.452878 0.000000 0.673935
O O13 0.363498 0.830094 0.118828
O O14 0.479581 0.000000 0.061036
O O15 0.386539 0.823631 0.000000
O O16 0.796860 0.215770 0.204438
O O17 0.000000 0.377955 0.176996
O O18 0.821426 0.310468 0.500000
O O19 0.000000 0.390349 0.559491
#
# Coordination Sequence:
#
# PCOD9586436 Si02
#       7
#    12  12  12  12  12  12  12
#     4  10  20  36  58  87 125 166 205 248 300 360
#     4   9  19  36  56  80 112 149 193 246 303 366
#     4  10  21  39  60  81 115 158 194 244 306 355
#     4   8  16  33  54  77 109 146 185 238 302 363
#     4  11  22  35  56  83 114 151 198 249 305 366
#     4  11  23  38  56  83 116 154 208 257 303 362
#     4   8  16  34  60  88 118 153 195 242 291 348
#
# _framework density 21.089023999999998
#
# number of rings (size 3 to 8) (size 9 to 14) (size 15 to 20)
#    0.000    2.429    0.000    4.286    2.000    2.286 
#    0.857    2.857    0.000    4.571    0.000    0.000 
#    0.000    0.000    0.000    0.000    0.000    0.000 
#
# Total GULP energy -468342.282058 kJ/mol
# GULP energy per Si atom -5575.503358 kJ/mol
# Density = 2.104102 g / cm^3
# Si number density = 21.089024 Si / 1000 Ang^3
#
#
#
# Elastic Constant Matrix: (Units=GPa)
#
#
# Indices 1 2 3 4 5 6 
#
# 1 63.2556 6.7596 30.0634 0.0000 0.0000 0.0000
# 2 6.7596 63.2556 30.0634 0.0000 0.0000 0.0000
# 3 30.0634 30.0634 117.6039 0.0000 0.0000 0.0000
# 4 0.0000 0.0000 0.0000 16.1845 0.0000 0.0000
# 5 0.0000 0.0000 0.0000 0.0000 16.1845 0.0000
# 6 0.0000 0.0000 0.0000 0.0000 0.0000 28.2480
#
#
#
# Elastic Compliance Matrix: (Units=1/GPa)
#
#
# Indices 1 2 3 4 5 6 
#
# 1 0.018000 0.000300 -0.004678 0.000000 0.000000 0.000000
# 2 0.000300 0.018000 -0.004678 0.000000 0.000000 0.000000
# 3 -0.004678 -0.004678 0.010895 0.000000 0.000000 0.000000
# 4 0.000000 0.000000 0.000000 0.061788 0.000000 0.000000
# 5 0.000000 0.000000 0.000000 0.000000 0.061788 0.000000
# 6 0.000000 0.000000 0.000000 0.000000 0.000000 0.035401
#
#
# Mechanical properties :
#
#
# Convention : Reuss Voigt Hill
#
# Bulk Modulus (GPa) = 34.74329 41.98755 38.36542
# Shear Modulus (GPa) = 21.40614 23.93865 22.67240
#
# Velocity S-wave (km/s) = 3.18942 3.37282 3.28240
# Velocity P-wave (km/s) = 5.48394 5.92627 5.70939
#
# Compressibility (1/GPa) = 0.02878253
#
# Stress axis : x y z
#
# Youngs Moduli (GPa) = 55.55502 55.55502 91.78641
#
# Poissons Ratio (x) = -0.01666 0.42938
# Poissons Ratio (y) = -0.01666 0.42938
# Poissons Ratio (z) = 0.25989 0.25989
#
# Static dielectric constant tensor:
#      x y z
#    x 1.795750 0.000000 0.000000 
#    y 0.000000 1.795750 0.000000 
#    z 0.000000 0.000000 1.798810 
# 
# From -- ./inp_files/3631.got.cif
#   From: 2010.05.17/outbox.cif.g08.bks.cpg/sg189_2_cif.got.tgz:3631.got - 2010.05.20 12:14:34.
