data_PCOD9586682
_publ_section_title
;
Structure prediction by ZEFSAII (Michael W. Deem and Ramdas Pophale) SiO2 
 PCOD9586682
Probable space group: P -6 2 C
;
_chemical_formula_sum "Si O2"
_cell_formula_units_Z 72
_cell_length_a 23.566848
_cell_length_b 23.566848
_cell_length_c 8.559910
_cell_angle_alpha 90.000000
_cell_angle_beta 90.000000
_cell_angle_gamma 120.000000
_cell_volume 4117.208224
_symmetry_space_group_name_H-M "P -6 2 C"
_symmetry_group_IT_number 190
_symmetry_cell_setting 'hexagonal'
loop_
_space_group_symop_operation_xyz
x,y,z
-x+y,-x,1/2-z
-y,x-y,z
x,y,1/2-z
-x+y,-x,z
-y,x-y,1/2-z
x-y,-y,-z
-x,-x+y,-z
y,x,-z
y,x,1/2+z
x-y,-y,1/2+z
-x,-x+y,1/2+z
loop_
_atom_site_type_symbol
_atom_site_label
_atom_site_fract_x
_atom_site_fract_y
_atom_site_fract_z
Si Si1 0.207584 0.820811 0.436911
Si Si2 0.198072 0.267326 0.061763
Si Si3 0.932521 0.069038 0.935925
Si Si4 0.421590 0.074502 0.437870
Si Si5 0.184712 0.565868 0.560971
Si Si6 0.711072 0.235059 0.439140
O O1 0.211707 0.828947 0.250000
O O2 0.136752 0.807453 0.490576
O O3 0.271021 0.884128 0.508692
O O4 0.210833 0.756911 0.485503
O O5 0.201310 0.268274 0.250000
O O6 0.130080 0.203882 0.011927
O O7 0.256032 0.256032 0.000000
O O8 0.934071 0.068486 0.750000
O O9 0.000000 0.126541 0.000000
O O10 0.920295 0.000000 0.000000
O O11 0.421267 0.072444 0.250000
O O12 0.498047 0.120809 0.491247
O O13 0.386006 0.000000 0.500000
O O14 0.180649 0.565644 0.750000
O O15 0.250354 0.563014 0.523657
O O16 0.196211 0.635858 0.507104
O O17 0.712400 0.229906 0.250000
#
# Coordination Sequence:
#
# PCOD9586682 Si02
#       6
#    12  12  12  12  12  12
#     4  10  20  35  52  75 104 133 168 214 258 303
#     4   9  20  36  53  71  95 126 163 204 247 290
#     4  10  19  32  48  68  91 118 149 186 231 282
#     4  10  20  35  54  77 104 140 178 216 261 311
#     4   8  15  28  50  76 101 129 168 209 248 297
#     4   9  16  30  52  77 102 134 170 205 246 299
#
# _framework density 17.487579
#
# number of rings (size 3 to 8) (size 9 to 14) (size 15 to 20)
#    0.000    2.667    0.000    3.000    0.000    4.000 
#    0.000    6.667    0.000    4.000    0.000    0.000 
#    0.000    0.000    0.000    0.000    0.000    0.000 
#
# Total GULP energy -401131.347885 kJ/mol
# GULP energy per Si atom -5571.268721 kJ/mol
# Density = 1.744778 g / cm^3
# Si number density = 17.487579 Si / 1000 Ang^3
#
#
#
# Elastic Constant Matrix: (Units=GPa)
#
#
# Indices 1 2 3 4 5 6 
#
# 1 122.8336 83.2007 24.8136 0.0000 0.0000 0.0000
# 2 83.2007 122.8336 24.8136 0.0000 0.0000 0.0000
# 3 24.8136 24.8136 27.4059 0.0000 0.0000 0.0000
# 4 0.0000 0.0000 0.0000 24.8856 0.0000 0.0000
# 5 0.0000 0.0000 0.0000 0.0000 24.8856 0.0000
# 6 0.0000 0.0000 0.0000 0.0000 0.0000 19.8165
#
#
#
# Elastic Compliance Matrix: (Units=1/GPa)
#
#
# Indices 1 2 3 4 5 6 
#
# 1 0.015719 -0.009512 -0.005620 0.000000 0.000000 0.000000
# 2 -0.009512 0.015719 -0.005620 0.000000 0.000000 0.000000
# 3 -0.005620 -0.005620 0.046666 0.000000 0.000000 0.000000
# 4 0.000000 0.000000 0.000000 0.040184 0.000000 0.000000
# 5 0.000000 0.000000 0.000000 0.000000 0.040184 0.000000
# 6 0.000000 0.000000 0.000000 0.000000 0.000000 0.050463
#
#
# Mechanical properties :
#
#
# Convention : Reuss Voigt Hill
#
# Bulk Modulus (GPa) = 27.32270 59.85878 43.59074
# Shear Modulus (GPa) = 19.03746 23.26721 21.15234
#
# Velocity S-wave (km/s) = 3.30302 3.65156 3.48165
# Velocity P-wave (km/s) = 5.49586 7.21679 6.41431
#
# Compressibility (1/GPa) = 0.03659960
#
# Stress axis : x y z
#
# Youngs Moduli (GPa) = 63.61568 63.61568 21.42904
#
# Poissons Ratio (x) = 0.60512 0.12043
# Poissons Ratio (y) = 0.60512 0.12043
# Poissons Ratio (z) = 0.35753 0.35753
#
# Static dielectric constant tensor:
#      x y z
#    x 1.607090 0.000000 0.000000 
#    y 0.000000 1.607090 0.000000 
#    z 0.000000 0.000000 1.597750 
# 
# From -- ./inp_files/1191.got.cif
#   From: 2010.05.17/outbox.cif.g08.bks.cpg/sg190_1_cif.got.tgz:1191.got - 2010.05.20 12:16:56.
