data_PCOD9586892
_publ_section_title
;
Structure prediction by ZEFSAII (Michael W. Deem and Ramdas Pophale) SiO2 
 PCOD9586892
Probable space group: P -6 2 C
;
_chemical_formula_sum "Si O2"
_cell_formula_units_Z 36
_cell_length_a 15.346336
_cell_length_b 15.346336
_cell_length_c 10.286675
_cell_angle_alpha 90.000000
_cell_angle_beta 90.000000
_cell_angle_gamma 120.000000
_cell_volume 2098.046241
_symmetry_space_group_name_H-M "P -6 2 C"
_symmetry_group_IT_number 190
_symmetry_cell_setting 'hexagonal'
loop_
_space_group_symop_operation_xyz
x,y,z
-x+y,-x,1/2-z
-y,x-y,z
x,y,1/2-z
-x+y,-x,z
-y,x-y,1/2-z
x-y,-y,-z
-x,-x+y,-z
y,x,-z
y,x,1/2+z
x-y,-y,1/2+z
-x,-x+y,1/2+z
loop_
_atom_site_type_symbol
_atom_site_label
_atom_site_fract_x
_atom_site_fract_y
_atom_site_fract_z
Si Si1 0.561665 0.739540 0.596338
Si Si2 0.989645 0.108098 0.750000
Si Si3 0.233098 0.000000 0.500000
Si Si4 0.505029 0.408752 0.404886
O O1 0.586733 0.748147 0.750000
O O2 0.658207 0.755667 0.518271
O O3 0.531658 0.823805 0.567446
O O4 0.472430 0.625559 0.574968
O O5 0.986885 0.165514 0.624029
O O6 0.089842 0.098158 0.750000
O O7 0.486675 0.417934 0.250000
O O8 0.451917 0.451917 0.500000
#
# Coordination Sequence:
#
# PCOD9586892 Si02
#       4
#    12   6   6  12
#     4  10  21  39  64  91 120 159 200 243 304 359
#     4  10  24  40  58  82 120 158 204 252 302 358
#     4  12  20  40  64  86 120 158 202 252 294 358
#     4  10  21  40  62  89 122 158 200 248 297 366
#
# _framework density 17.158822000000001
#
# number of rings (size 3 to 8) (size 9 to 14) (size 15 to 20)
#    0.333    1.333    3.333    1.667    0.000    5.333 
#    3.000    0.000    0.000    0.000    0.000    0.000 
#    0.000    0.000    0.000    0.000    0.000    0.000 
#
# Total GULP energy -200868.090929 kJ/mol
# GULP energy per Si atom -5579.669192 kJ/mol
# Density = 1.711977 g / cm^3
# Si number density = 17.158822 Si / 1000 Ang^3
#
#
#
# Elastic Constant Matrix: (Units=GPa)
#
#
# Indices 1 2 3 4 5 6 
#
# 1 154.5261 80.4180 82.0144 0.0000 0.0000 0.0000
# 2 80.4180 154.5261 82.0144 0.0000 0.0000 0.0000
# 3 82.0144 82.0144 115.8458 0.0000 0.0000 0.0000
# 4 0.0000 0.0000 0.0000 19.4753 0.0000 0.0000
# 5 0.0000 0.0000 0.0000 0.0000 19.4753 0.0000
# 6 0.0000 0.0000 0.0000 0.0000 0.0000 37.0541
#
#
#
# Elastic Compliance Matrix: (Units=1/GPa)
#
#
# Indices 1 2 3 4 5 6 
#
# 1 0.010955 -0.002539 -0.005958 0.000000 0.000000 0.000000
# 2 -0.002539 0.010955 -0.005958 0.000000 0.000000 0.000000
# 3 -0.005958 -0.005958 0.017069 0.000000 0.000000 0.000000
# 4 0.000000 0.000000 0.000000 0.051347 0.000000 0.000000
# 5 0.000000 0.000000 0.000000 0.000000 0.051347 0.000000
# 6 0.000000 0.000000 0.000000 0.000000 0.000000 0.026988
#
#
# Mechanical properties :
#
#
# Convention : Reuss Voigt Hill
#
# Bulk Modulus (GPa) = 99.32712 101.53241 100.42976
# Shear Modulus (GPa) = 24.88457 27.23100 26.05779
#
# Velocity S-wave (km/s) = 3.81235 3.98804 3.90118
# Velocity P-wave (km/s) = 8.79723 8.97254 8.88532
#
# Compressibility (1/GPa) = 0.01006774
#
# Stress axis : x y z
#
# Youngs Moduli (GPa) = 91.28240 91.28240 58.58655
#
# Poissons Ratio (x) = 0.23175 0.34908
# Poissons Ratio (y) = 0.23175 0.34908
# Poissons Ratio (z) = 0.54389 0.54389
#
# Static dielectric constant tensor:
#      x y z
#    x 1.569410 0.000000 0.000000 
#    y 0.000000 1.569410 0.000000 
#    z 0.000000 0.000000 1.559510 
# 
# From -- ./inp_files/1691.got.cif
#   From: 2010.05.17/outbox.cif.g08.bks.cpg/sg190_1_cif.got.tgz:1691.got - 2010.05.20 12:16:56.
