data_PCOD9586107
_publ_section_title
;
Structure prediction by ZEFSAII (Michael W. Deem and Ramdas Pophale) SiO2 
 PCOD9586107
Probable space group: P -6 2 M
;
_chemical_formula_sum "Si O2"
_cell_formula_units_Z 30
_cell_length_a 13.888378
_cell_length_b 13.888378
_cell_length_c 11.657283
_cell_angle_alpha 90.000000
_cell_angle_beta 90.000000
_cell_angle_gamma 120.000000
_cell_volume 1947.291768
_symmetry_space_group_name_H-M "P -6 2 M"
_symmetry_group_IT_number 189
_symmetry_cell_setting 'hexagonal'
loop_
_space_group_symop_operation_xyz
x,y,z
-x+y,-x,-z
-y,x-y,z
x,y,-z
-x+y,-x,z
-y,x-y,-z
x-y,-y,-z
-x,-x+y,-z
y,x,-z
y,x,z
x-y,-y,z
-x,-x+y,z
loop_
_atom_site_type_symbol
_atom_site_label
_atom_site_fract_x
_atom_site_fract_y
_atom_site_fract_z
Si Si1 0.789214 0.325274 0.500000
Si Si2 0.871310 0.327665 0.751460
Si Si3 0.869809 0.535793 0.863982
O O1 0.660176 0.226239 0.500000
O O2 0.848299 0.322616 0.615809
O O3 0.847710 0.421589 0.804721
O O4 0.784636 0.212008 0.809135
O O5 0.000000 0.369026 0.774184
O O6 0.000000 0.623468 0.846176
O O7 0.849884 0.517600 0.000000
#
# Coordination Sequence:
#
# PCOD9586107 Si02
#       3
#     6  12  12
#     4  10  17  32  52  70 103 136 162 204 250 294
#     4  11  20  33  52  74 102 134 167 206 251 299
#     4  10  20  33  50  73 101 133 168 207 250 296
#
# _framework density 15.406013
#
# number of rings (size 3 to 8) (size 9 to 14) (size 15 to 20)
#    0.400    1.200    4.000    2.600    0.000    2.400 
#    0.000    1.000    0.000    0.800    0.000    0.000 
#    0.000    0.000    0.000    0.000    0.000    0.000 
#
# Total GULP energy -167365.521180 kJ/mol
# GULP energy per Si atom -5578.850706 kJ/mol
# Density = 1.537095 g / cm^3
# Si number density = 15.406013 Si / 1000 Ang^3
#
#
#
# Elastic Constant Matrix: (Units=GPa)
#
#
# Indices 1 2 3 4 5 6 
#
# 1 70.0189 32.5697 49.2414 0.0000 0.0000 0.0000
# 2 32.5697 70.0189 49.2414 0.0000 0.0000 0.0000
# 3 49.2414 49.2414 122.7893 0.0000 0.0000 0.0000
# 4 0.0000 0.0000 0.0000 17.2044 0.0000 0.0000
# 5 0.0000 0.0000 0.0000 0.0000 17.2044 0.0000
# 6 0.0000 0.0000 0.0000 0.0000 0.0000 18.7246
#
#
#
# Elastic Compliance Matrix: (Units=1/GPa)
#
#
# Indices 1 2 3 4 5 6 
#
# 1 0.021276 -0.005427 -0.006356 0.000000 0.000000 0.000000
# 2 -0.005427 0.021276 -0.006356 0.000000 0.000000 0.000000
# 3 -0.006356 -0.006356 0.013242 0.000000 0.000000 0.000000
# 4 0.000000 0.000000 0.000000 0.058125 0.000000 0.000000
# 5 0.000000 0.000000 0.000000 0.000000 0.058125 0.000000
# 6 0.000000 0.000000 0.000000 0.000000 0.000000 0.053406
#
#
# Mechanical properties :
#
#
# Convention : Reuss Voigt Hill
#
# Bulk Modulus (GPa) = 51.23857 58.32578 54.78218
# Shear Modulus (GPa) = 18.64061 19.41165 19.02613
#
# Velocity S-wave (km/s) = 3.48222 3.55351 3.51804
# Velocity P-wave (km/s) = 7.03554 7.40120 7.22069
#
# Compressibility (1/GPa) = 0.01951655
#
# Stress axis : x y z
#
# Youngs Moduli (GPa) = 47.00134 47.00134 75.51877
#
# Poissons Ratio (x) = 0.25507 0.47999
# Poissons Ratio (y) = 0.25507 0.47999
# Poissons Ratio (z) = 0.29873 0.29873
#
# Static dielectric constant tensor:
#      x y z
#    x 1.500200 0.000000 0.000000 
#    y 0.000000 1.500200 0.000000 
#    z 0.000000 0.000000 1.508580 
# 
# From -- ./inp_files/352.got.cif
#   From: 2010.05.17/outbox.cif.g08.bks.cpg/sg189_1_cif.got.tgz:352.got - 2010.05.20 12:14:34.
