data_PCOD9586440
_publ_section_title
;
Structure prediction by ZEFSAII (Michael W. Deem and Ramdas Pophale) SiO2 
 PCOD9586440
Probable space group: P -6 2 M
;
_chemical_formula_sum "Si O2"
_cell_formula_units_Z 84
_cell_length_a 15.368595
_cell_length_b 15.368595
_cell_length_c 22.797444
_cell_angle_alpha 90.000000
_cell_angle_beta 90.000000
_cell_angle_gamma 120.000000
_cell_volume 4663.211586
_symmetry_space_group_name_H-M "P -6 2 M"
_symmetry_group_IT_number 189
_symmetry_cell_setting 'hexagonal'
loop_
_space_group_symop_operation_xyz
x,y,z
-x+y,-x,-z
-y,x-y,z
x,y,-z
-x+y,-x,z
-y,x-y,-z
x-y,-y,-z
-x,-x+y,-z
y,x,-z
y,x,z
x-y,-y,z
-x,-x+y,z
loop_
_atom_site_type_symbol
_atom_site_label
_atom_site_fract_x
_atom_site_fract_y
_atom_site_fract_z
Si Si1 0.880352 0.589636 0.751427
Si Si2 0.115868 0.885291 0.429790
Si Si3 0.882271 0.409794 0.430726
Si Si4 0.644134 0.879299 0.066253
Si Si5 0.743968 0.192872 0.379223
Si Si6 0.774854 0.451345 0.138395
Si Si7 0.117903 0.236782 0.177150
O O1 0.830075 0.548751 0.689000
O O2 0.828463 0.506313 0.801709
O O3 0.867700 0.683046 0.773042
O O4 0.000000 0.632237 0.748653
O O5 0.127926 0.879702 0.500000
O O6 0.141932 0.808507 0.398862
O O7 0.000000 0.851394 0.418926
O O8 0.188224 0.000000 0.411291
O O9 0.866068 0.385779 0.500000
O O10 0.811022 0.310208 0.394342
O O11 0.853835 0.494227 0.415069
O O12 0.000000 0.453248 0.418160
O O13 0.529394 0.832591 0.086775
O O14 0.701789 0.852392 0.115702
O O15 0.696858 0.000000 0.068506
O O16 0.652177 0.849735 0.000000
O O17 0.657929 0.422561 0.135844
O O18 0.156185 0.156185 0.174340
O O19 0.000000 0.183366 0.187117
#
# Coordination Sequence:
#
# PCOD9586440 Si02
#       7
#    12  12  12  12  12  12  12
#     4  10  22  40  59  82 116 152 191 236 294 354
#     4  10  20  36  59  86 116 149 187 234 292 358
#     4  11  24  40  59  86 116 149 192 242 300 362
#     4   9  18  35  57  83 120 160 193 235 294 349
#     4  12  24  39  62  84 114 154 196 243 298 359
#     4   9  20  35  59  83 109 147 191 239 283 330
#     4   9  18  34  56  83 116 157 201 246 292 347
#
# _framework density 18.013337
#
# number of rings (size 3 to 8) (size 9 to 14) (size 15 to 20)
#    0.286    1.714    0.000    4.857    2.000    4.857 
#    0.000    5.714    0.000    2.571    0.000    0.000 
#    0.000    0.000    0.000    0.000    0.000    0.000 
#
# Total GULP energy -468784.822853 kJ/mol
# GULP energy per Si atom -5580.771701 kJ/mol
# Density = 1.797234 g / cm^3
# Si number density = 18.013337 Si / 1000 Ang^3
#
#
#
# Elastic Constant Matrix: (Units=GPa)
#
#
# Indices 1 2 3 4 5 6 
#
# 1 48.8405 -4.5168 3.4831 0.0000 0.0000 0.0000
# 2 -4.5168 48.8405 3.4831 0.0000 0.0000 0.0000
# 3 3.4831 3.4831 23.2356 0.0000 0.0000 0.0000
# 4 0.0000 0.0000 0.0000 18.5145 0.0000 0.0000
# 5 0.0000 0.0000 0.0000 0.0000 18.5145 0.0000
# 6 0.0000 0.0000 0.0000 0.0000 0.0000 26.6786
#
#
#
# Elastic Compliance Matrix: (Units=1/GPa)
#
#
# Indices 1 2 3 4 5 6 
#
# 1 0.020924 0.002182 -0.003464 0.000000 0.000000 0.000000
# 2 0.002182 0.020924 -0.003464 0.000000 0.000000 0.000000
# 3 -0.003464 -0.003464 0.044076 0.000000 0.000000 0.000000
# 4 0.000000 0.000000 0.000000 0.054012 0.000000 0.000000
# 5 0.000000 0.000000 0.000000 0.000000 0.054012 0.000000
# 6 0.000000 0.000000 0.000000 0.000000 0.000000 0.037483
#
#
# Mechanical properties :
#
#
# Convention : Reuss Voigt Hill
#
# Bulk Modulus (GPa) = 13.08343 13.97951 13.53147
# Shear Modulus (GPa) = 18.76892 20.63934 19.70413
#
# Velocity S-wave (km/s) = 3.23142 3.38861 3.31095
# Velocity P-wave (km/s) = 4.60453 4.80497 4.70582
#
# Compressibility (1/GPa) = 0.07643253
#
# Stress axis : x y z
#
# Youngs Moduli (GPa) = 47.79285 47.79285 22.68816
#
# Poissons Ratio (x) = -0.10429 0.07858
# Poissons Ratio (y) = -0.10429 0.07858
# Poissons Ratio (z) = 0.16554 0.16554
#
# Static dielectric constant tensor:
#      x y z
#    x 1.604010 0.000000 0.000000 
#    y 0.000000 1.604010 0.000000 
#    z 0.000000 0.000000 1.614540 
# 
# From -- ./inp_files/3588.got.cif
#   From: 2010.05.17/outbox.cif.g08.bks.cpg/sg189_2_cif.got.tgz:3588.got - 2010.05.20 12:14:34.
