data_PCOD9586997
_publ_section_title
;
Structure prediction by ZEFSAII (Michael W. Deem and Ramdas Pophale) SiO2 
 PCOD9586997
Probable space group: P -6 2 C
;
_chemical_formula_sum "Si O2"
_cell_formula_units_Z 40
_cell_length_a 11.519044
_cell_length_b 11.519044
_cell_length_c 16.599053
_cell_angle_alpha 90.000000
_cell_angle_beta 90.000000
_cell_angle_gamma 120.000000
_cell_volume 1907.422133
_symmetry_space_group_name_H-M "P -6 2 C"
_symmetry_group_IT_number 190
_symmetry_cell_setting 'hexagonal'
loop_
_space_group_symop_operation_xyz
x,y,z
-x+y,-x,1/2-z
-y,x-y,z
x,y,1/2-z
-x+y,-x,z
-y,x-y,1/2-z
x-y,-y,-z
-x,-x+y,-z
y,x,-z
y,x,1/2+z
x-y,-y,1/2+z
-x,-x+y,1/2+z
loop_
_atom_site_type_symbol
_atom_site_label
_atom_site_fract_x
_atom_site_fract_y
_atom_site_fract_z
Si Si1 0.174811 0.383809 0.584875
Si Si2 0.333333 0.666666 0.844800
Si Si3 0.952269 0.573285 0.657551
Si Si4 0.717519 0.603896 0.898032
O O1 0.216200 0.527979 0.621824
O O2 0.294176 0.359254 0.612043
O O3 0.161269 0.393739 0.489205
O O4 0.025092 0.282526 0.615793
O O5 0.333334 0.666668 0.750000
O O6 0.995720 0.573169 0.750000
O O7 0.919705 0.435020 0.614243
O O8 0.816697 0.580538 0.656887
#
# Coordination Sequence:
#
# PCOD9586997 Si02
#       4
#    12   4  12  12
#     4  11  24  42  69 100 133 185 232 288 341 428
#     4  12  21  36  66  99 136 173 232 297 348 405
#     4  12  25  43  70 102 142 181 232 295 356 411
#     4  11  25  44  69  99 139 183 236 284 349 422
#
# _framework density 20.970711000000001
#
# number of rings (size 3 to 8) (size 9 to 14) (size 15 to 20)
#    0.000    0.600    3.000    5.100    4.200    3.600 
#    1.800    0.000    0.000    0.000    0.000    0.000 
#    0.000    0.000    0.000    0.000    0.000    0.000 
#
# Total GULP energy -223684.607522 kJ/mol
# GULP energy per Si atom -5592.115188 kJ/mol
# Density = 2.092298 g / cm^3
# Si number density = 20.970711 Si / 1000 Ang^3
#
#
#
# Elastic Constant Matrix: (Units=GPa)
#
#
# Indices 1 2 3 4 5 6 
#
# 1 128.1873 52.3168 28.4462 -0.0002 -0.0002 0.0002
# 2 52.3168 128.1875 28.4465 0.0003 0.0002 -0.0001
# 3 28.4462 28.4465 68.2993 -0.0002 0.0001 0.0000
# 4 -0.0002 0.0003 -0.0002 44.4669 0.0001 -0.0002
# 5 -0.0002 0.0002 0.0001 0.0001 44.4681 0.0002
# 6 0.0002 -0.0001 0.0000 -0.0002 0.0002 37.9353
#
#
#
# Elastic Compliance Matrix: (Units=1/GPa)
#
#
# Indices 1 2 3 4 5 6 
#
# 1 0.009779 -0.003402 -0.002656 0.000000 0.000000 0.000000
# 2 -0.003402 0.009779 -0.002656 0.000000 0.000000 0.000000
# 3 -0.002656 -0.002656 0.016854 0.000000 0.000000 0.000000
# 4 0.000000 0.000000 0.000000 0.022489 0.000000 0.000000
# 5 0.000000 0.000000 0.000000 0.000000 0.022488 0.000000
# 6 0.000000 0.000000 0.000000 0.000000 0.000000 0.026361
#
#
# Mechanical properties :
#
#
# Convention : Reuss Voigt Hill
#
# Bulk Modulus (GPa) = 52.67586 60.34367 56.50976
# Shear Modulus (GPa) = 38.02160 39.73837 38.87998
#
# Velocity S-wave (km/s) = 4.26265 4.35782 4.31050
# Velocity P-wave (km/s) = 7.02853 7.35924 7.19579
#
# Compressibility (1/GPa) = 0.01898403
#
# Stress axis : x y z
#
# Youngs Moduli (GPa) = 102.26239 102.26236 59.33339
#
# Poissons Ratio (x) = 0.34785 0.15759
# Poissons Ratio (y) = 0.34785 0.15760
# Poissons Ratio (z) = 0.27161 0.27162
#
# Static dielectric constant tensor:
#      x y z
#    x 1.779920 0.000000 0.000000 
#    y 0.000000 1.779920 0.000000 
#    z 0.000000 0.000000 1.763300 
# 
# From -- ./inp_files/3392.got.cif
#   From: 2010.05.17/outbox.cif.g08.bks.cpg/sg190_2_cif.got.tgz:3392.got - 2010.05.20 12:16:56.
