data_PCOD9586618
_publ_section_title
;
Structure prediction by ZEFSAII (Michael W. Deem and Ramdas Pophale) SiO2 
 PCOD9586618
Probable space group: P -6 2 C
;
_chemical_formula_sum "Si O2"
_cell_formula_units_Z 72
_cell_length_a 24.560385
_cell_length_b 24.560385
_cell_length_c 8.600146
_cell_angle_alpha 90.000000
_cell_angle_beta 90.000000
_cell_angle_gamma 120.000000
_cell_volume 4492.693555
_symmetry_space_group_name_H-M "P -6 2 C"
_symmetry_group_IT_number 190
_symmetry_cell_setting 'hexagonal'
loop_
_space_group_symop_operation_xyz
x,y,z
-x+y,-x,1/2-z
-y,x-y,z
x,y,1/2-z
-x+y,-x,z
-y,x-y,1/2-z
x-y,-y,-z
-x,-x+y,-z
y,x,-z
y,x,1/2+z
x-y,-y,1/2+z
-x,-x+y,1/2+z
loop_
_atom_site_type_symbol
_atom_site_label
_atom_site_fract_x
_atom_site_fract_y
_atom_site_fract_z
Si Si1 0.141141 0.733604 0.061961
Si Si2 0.929991 0.525228 0.064917
Si Si3 0.738698 0.807846 0.437646
Si Si4 0.930852 0.738468 0.562949
Si Si5 0.523156 0.593357 0.437256
Si Si6 0.142088 0.405918 0.060953
O O1 0.139894 0.728352 0.250000
O O2 0.095177 0.760823 0.018118
O O3 0.211108 0.787685 0.014075
O O4 0.116458 0.665921 0.988844
O O5 0.933457 0.524291 0.250000
O O6 0.911193 0.456776 0.998841
O O7 0.000000 0.572062 0.000000
O O8 0.739614 0.807122 0.250000
O O9 0.783754 0.783754 0.500000
O O10 0.755131 0.877685 0.487337
O O11 0.666266 0.761386 0.487367
O O12 0.932592 0.740264 0.750000
O O13 0.000000 0.782975 0.500000
O O14 0.522874 0.591043 0.250000
O O15 0.569341 0.569341 0.500000
O O16 0.548645 0.664886 0.489081
O O17 0.142075 0.405686 0.250000
#
# Coordination Sequence:
#
# PCOD9586618 Si02
#       6
#    12  12  12  12  12  12
#     4   9  17  32  50  69  93 121 151 188 228 273
#     4  11  21  32  46  68  95 124 155 191 231 272
#     4   9  17  30  46  68  94 120 147 182 223 265
#     4   9  18  30  46  67  93 120 149 184 225 267
#     4  10  18  30  48  70  94 124 156 188 226 272
#     4   8  16  30  49  70  94 121 150 183 225 271
#
# _framework density 16.026021
#
# number of rings (size 3 to 8) (size 9 to 14) (size 15 to 20)
#    0.000    2.667    0.000    6.000    0.000    2.667 
#    0.000    5.000    0.000    1.000    0.000    2.333 
#    0.000    0.000    0.000    0.000    0.000    0.000 
#
# Total GULP energy -401407.570189 kJ/mol
# GULP energy per Si atom -5575.105142 kJ/mol
# Density = 1.598954 g / cm^3
# Si number density = 16.026021 Si / 1000 Ang^3
#
#
#
# Elastic Constant Matrix: (Units=GPa)
#
#
# Indices 1 2 3 4 5 6 
#
# 1 143.5910 99.1703 35.5123 0.0000 0.0000 0.0000
# 2 99.1703 143.5910 35.5123 0.0000 0.0000 0.0000
# 3 35.5123 35.5123 43.6551 0.0000 0.0000 0.0000
# 4 0.0000 0.0000 0.0000 19.5099 0.0000 0.0000
# 5 0.0000 0.0000 0.0000 0.0000 19.5099 0.0000
# 6 0.0000 0.0000 0.0000 0.0000 0.0000 22.2104
#
#
#
# Elastic Compliance Matrix: (Units=1/GPa)
#
#
# Indices 1 2 3 4 5 6 
#
# 1 0.013959 -0.008553 -0.004398 0.000000 0.000000 0.000000
# 2 -0.008553 0.013959 -0.004398 0.000000 0.000000 0.000000
# 3 -0.004398 -0.004398 0.030061 0.000000 0.000000 0.000000
# 4 0.000000 0.000000 0.000000 0.051256 0.000000 0.000000
# 5 0.000000 0.000000 0.000000 0.000000 0.051256 0.000000
# 6 0.000000 0.000000 0.000000 0.000000 0.000000 0.045024
#
#
# Mechanical properties :
#
#
# Convention : Reuss Voigt Hill
#
# Bulk Modulus (GPa) = 42.94985 74.58078 58.76531
# Shear Modulus (GPa) = 20.16353 22.95552 21.55952
#
# Velocity S-wave (km/s) = 3.55092 3.78880 3.67179
# Velocity P-wave (km/s) = 6.60835 8.11038 7.39759
#
# Compressibility (1/GPa) = 0.02328297
#
# Stress axis : x y z
#
# Youngs Moduli (GPa) = 71.63871 71.63871 33.26532
#
# Poissons Ratio (x) = 0.61273 0.14628
# Poissons Ratio (y) = 0.61273 0.14628
# Poissons Ratio (z) = 0.31503 0.31503
#
# Static dielectric constant tensor:
#      x y z
#    x 1.527290 0.000000 0.000000 
#    y 0.000000 1.527290 0.000000 
#    z 0.000000 0.000000 1.547460 
# 
# From -- ./inp_files/1236.got.cif
#   From: 2010.05.17/outbox.cif.g08.bks.cpg/sg190_1_cif.got.tgz:1236.got - 2010.05.20 12:16:56.
