data_PCOD9586758
_publ_section_title
;
Structure prediction by ZEFSAII (Michael W. Deem and Ramdas Pophale) SiO2 
 PCOD9586758
Probable space group: P -6 2 C
;
_chemical_formula_sum "Si O2"
_cell_formula_units_Z 78
_cell_length_a 24.583419
_cell_length_b 24.583419
_cell_length_c 8.567050
_cell_angle_alpha 90.000000
_cell_angle_beta 90.000000
_cell_angle_gamma 120.000000
_cell_volume 4483.802760
_symmetry_space_group_name_H-M "P -6 2 C"
_symmetry_group_IT_number 190
_symmetry_cell_setting 'hexagonal'
loop_
_space_group_symop_operation_xyz
x,y,z
-x+y,-x,1/2-z
-y,x-y,z
x,y,1/2-z
-x+y,-x,z
-y,x-y,1/2-z
x-y,-y,-z
-x,-x+y,-z
y,x,-z
y,x,1/2+z
x-y,-y,1/2+z
-x,-x+y,1/2+z
loop_
_atom_site_type_symbol
_atom_site_label
_atom_site_fract_x
_atom_site_fract_y
_atom_site_fract_z
Si Si1 0.192083 0.815447 0.430786
Si Si2 0.857369 0.389927 0.931670
Si Si3 0.408815 0.476544 0.564256
Si Si4 0.714906 0.066952 0.435071
Si Si5 0.589300 0.318668 0.250000
Si Si6 0.388317 0.070041 0.560477
Si Si7 0.528007 0.267817 0.926931
O O1 0.180228 0.822531 0.250000
O O2 0.126423 0.780183 0.517662
O O3 0.246901 0.882329 0.491603
O O4 0.222753 0.770336 0.434531
O O5 0.872943 0.405414 0.750000
O O6 0.899360 0.360264 0.991613
O O7 0.785522 0.333935 0.936570
O O8 0.878578 0.455068 0.014947
O O9 0.408892 0.473506 0.750000
O O10 0.461392 0.461392 0.500000
O O11 0.342025 0.419655 0.505254
O O12 0.710203 0.062726 0.250000
O O13 0.700081 0.000000 0.500000
O O14 0.653920 0.384697 0.250000
O O15 0.553408 0.307602 0.414009
O O16 0.389168 0.071205 0.750000
O O17 0.347361 0.000000 0.500000
O O18 0.546078 0.296813 0.750000
#
# Coordination Sequence:
#
# PCOD9586758 Si02
#       7
#    12  12  12  12   6  12  12
#     4   9  19  36  55  74 100 135 167 209 255 310
#     4   9  18  32  49  70  96 128 162 202 256 314
#     4  10  20  31  44  67  95 122 155 201 251 301
#     4  10  21  35  51  74 100 129 168 211 255 311
#     4  10  24  38  50  72  94 124 166 228 252 316
#     4   9  18  32  49  74 104 130 165 202 246 303
#     4   9  20  38  55  72  98 129 168 209 265 320
#
# _framework density 17.395948000000001
#
# number of rings (size 3 to 8) (size 9 to 14) (size 15 to 20)
#    0.154    2.462    0.000    3.231    2.154    6.154 
#    2.769    3.077    0.000    0.000    0.000    0.000 
#    0.000    0.000    0.000    0.462    0.000    7.385 
#
# Total GULP energy -435227.196059 kJ/mol
# GULP energy per Si atom -5579.835847 kJ/mol
# Density = 1.735635 g / cm^3
# Si number density = 17.395948 Si / 1000 Ang^3
#
#
#
# Elastic Constant Matrix: (Units=GPa)
#
#
# Indices 1 2 3 4 5 6 
#
# 1 68.7855 29.8276 29.3234 0.0000 0.0000 0.0000
# 2 29.8276 68.7855 29.3234 0.0000 0.0000 0.0000
# 3 29.3234 29.3234 70.7266 0.0000 0.0000 0.0000
# 4 0.0000 0.0000 0.0000 8.3799 0.0000 0.0000
# 5 0.0000 0.0000 0.0000 0.0000 8.3799 0.0000
# 6 0.0000 0.0000 0.0000 0.0000 0.0000 19.4789
#
#
#
# Elastic Compliance Matrix: (Units=1/GPa)
#
#
# Indices 1 2 3 4 5 6 
#
# 1 0.019564 -0.006105 -0.005580 0.000000 0.000000 0.000000
# 2 -0.006105 0.019564 -0.005580 0.000000 0.000000 0.000000
# 3 -0.005580 -0.005580 0.018766 0.000000 0.000000 0.000000
# 4 0.000000 0.000000 0.000000 0.119334 0.000000 0.000000
# 5 0.000000 0.000000 0.000000 0.000000 0.119334 0.000000
# 6 0.000000 0.000000 0.000000 0.000000 0.000000 0.051337
#
#
# Mechanical properties :
#
#
# Convention : Reuss Voigt Hill
#
# Bulk Modulus (GPa) = 42.80139 42.80513 42.80326
# Shear Modulus (GPa) = 12.81338 15.23595 14.02466
#
# Velocity S-wave (km/s) = 2.71693 2.96266 2.84245
# Velocity P-wave (km/s) = 5.87366 6.03017 5.95243
#
# Compressibility (1/GPa) = 0.02336373
#
# Stress axis : x y z
#
# Youngs Moduli (GPa) = 51.11422 51.11422 53.28750
#
# Poissons Ratio (x) = 0.31204 0.29736
# Poissons Ratio (y) = 0.31204 0.29736
# Poissons Ratio (z) = 0.28523 0.28523
#
# Static dielectric constant tensor:
#      x y z
#    x 1.599420 0.000000 0.000000 
#    y 0.000000 1.599420 0.000000 
#    z 0.000000 0.000000 1.612660 
# 
# From -- ./inp_files/1384.got.cif
#   From: 2010.05.17/outbox.cif.g08.bks.cpg/sg190_1_cif.got.tgz:1384.got - 2010.05.20 12:16:56.
