data_PCOD9586023
_publ_section_title
;
Structure prediction by ZEFSAII (Michael W. Deem and Ramdas Pophale) SiO2 
 PCOD9586023
Probable space group: P -6 C 2
;
_chemical_formula_sum "Si O2"
_cell_formula_units_Z 58
_cell_length_a 15.363155
_cell_length_b 15.363155
_cell_length_c 14.537577
_cell_angle_alpha 90.000000
_cell_angle_beta 90.000000
_cell_angle_gamma 120.000000
_cell_volume 2971.553024
_symmetry_space_group_name_H-M "P -6 C 2"
_symmetry_group_IT_number 188
_symmetry_cell_setting 'hexagonal'
loop_
_space_group_symop_operation_xyz
x,y,z
-x+y,-x,1/2-z
-y,x-y,z
x,y,1/2-z
-x+y,-x,z
-y,x-y,1/2-z
-y,-x,-z
-x+y,y,-z
x,x-y,-z
-x+y,y,1/2+z
x,x-y,1/2+z
-y,-x,1/2+z
loop_
_atom_site_type_symbol
_atom_site_label
_atom_site_fract_x
_atom_site_fract_y
_atom_site_fract_z
Si Si1 0.776512 0.324426 0.750000
Si Si2 0.865585 0.580430 0.067271
Si Si3 0.202563 0.020638 0.854625
Si Si4 0.178531 0.813025 0.640175
Si Si5 0.000000 0.000000 0.891174
Si Si6 0.082538 0.442413 0.509426
O O1 0.658987 0.235625 0.750000
O O2 0.831666 0.316491 0.840165
O O3 0.907003 0.698280 0.089550
O O4 0.771349 0.542697 0.000000
O O5 0.962927 0.584129 0.023251
O O6 0.237137 0.027208 0.750000
O O7 0.113916 0.045406 0.859272
O O8 0.155206 0.903143 0.880911
O O9 0.171252 0.794579 0.750000
O O10 0.291277 0.863693 0.599001
O O11 0.113500 0.715081 0.577990
O O12 0.000000 0.000000 0.000000
O O13 0.116175 0.558088 0.500000
#
# Coordination Sequence:
#
# PCOD9586023 Si02
#       6
#     6  12  12  12   4  12
#     4  10  26  46  68  94 128 170 228 278 334 406
#     4  11  24  43  66  96 131 174 212 279 332 386
#     4  10  21  40  61  89 131 171 214 260 317 389
#     4   9  21  43  64  92 133 172 210 271 326 389
#     4  12  25  32  58  96 130 170 217 253 317 397
#     4  10  23  40  67  97 127 167 222 269 326 394
#
# _framework density 19.518414
#
# number of rings (size 3 to 8) (size 9 to 14) (size 15 to 20)
#    0.207    1.655    1.034    1.241   13.034    0.828 
#    6.828    0.000    0.000    0.000    0.000    0.000 
#    0.000    0.000    0.000    0.000    0.000    0.000 
#
# Total GULP energy -323609.257870 kJ/mol
# GULP energy per Si atom -5579.469963 kJ/mol
# Density = 1.947399 g / cm^3
# Si number density = 19.518414 Si / 1000 Ang^3
#
#
#
# Elastic Constant Matrix: (Units=GPa)
#
#
# Indices 1 2 3 4 5 6 
#
# 1 67.2528 28.3783 28.1208 -0.0002 0.0000 0.0000
# 2 28.3783 67.2528 28.1208 0.0002 0.0000 0.0000
# 3 28.1208 28.1208 121.3064 0.0000 0.0000 0.0000
# 4 -0.0002 0.0002 0.0000 28.0379 0.0000 0.0000
# 5 0.0000 0.0000 0.0000 0.0000 28.0379 -0.0002
# 6 0.0000 0.0000 0.0000 0.0000 -0.0002 19.4373
#
#
#
# Elastic Compliance Matrix: (Units=1/GPa)
#
#
# Indices 1 2 3 4 5 6 
#
# 1 0.018916 -0.006808 -0.002807 0.000000 0.000000 0.000000
# 2 -0.006808 0.018916 -0.002807 0.000000 0.000000 0.000000
# 3 -0.002807 -0.002807 0.009545 0.000000 0.000000 0.000000
# 4 0.000000 0.000000 0.000000 0.035666 0.000000 0.000000
# 5 0.000000 0.000000 0.000000 0.000000 0.035666 0.000000
# 6 0.000000 0.000000 0.000000 0.000000 0.000000 0.051448
#
#
# Mechanical properties :
#
#
# Convention : Reuss Voigt Hill
#
# Bulk Modulus (GPa) = 44.37933 47.22799 45.80366
# Shear Modulus (GPa) = 24.69016 26.51543 25.60280
#
# Velocity S-wave (km/s) = 3.56050 3.68976 3.62570
# Velocity P-wave (km/s) = 6.29995 6.51165 6.40667
#
# Compressibility (1/GPa) = 0.02253302
#
# Stress axis : x y z
#
# Youngs Moduli (GPa) = 52.86628 52.86628 104.76829
#
# Poissons Ratio (x) = 0.35992 0.29406
# Poissons Ratio (y) = 0.35992 0.29406
# Poissons Ratio (z) = 0.14838 0.14838
#
# Static dielectric constant tensor:
#      x y z
#    x 1.689380 0.000000 0.000000 
#    y 0.000000 1.689380 0.000000 
#    z 0.000000 0.000000 1.694760 
# 
# From -- ./inp_files/2300.got.cif
#   From: 2010.05.17/outbox.cif.g08.bks.cpg/sg188_2_cif.got.tgz:2300.got - 2010.05.20 12:11:46.
