data_PCOD9586844
_publ_section_title
;
Structure prediction by ZEFSAII (Michael W. Deem and Ramdas Pophale) SiO2 
 PCOD9586844
Probable space group: P -6 2 C
;
_chemical_formula_sum "Si O2"
_cell_formula_units_Z 48
_cell_length_a 11.201567
_cell_length_b 11.201567
_cell_length_c 19.797383
_cell_angle_alpha 90.000000
_cell_angle_beta 90.000000
_cell_angle_gamma 120.000000
_cell_volume 2151.275239
_symmetry_space_group_name_H-M "P -6 2 C"
_symmetry_group_IT_number 190
_symmetry_cell_setting 'hexagonal'
loop_
_space_group_symop_operation_xyz
x,y,z
-x+y,-x,1/2-z
-y,x-y,z
x,y,1/2-z
-x+y,-x,z
-y,x-y,1/2-z
x-y,-y,-z
-x,-x+y,-z
y,x,-z
y,x,1/2+z
x-y,-y,1/2+z
-x,-x+y,1/2+z
loop_
_atom_site_type_symbol
_atom_site_label
_atom_site_fract_x
_atom_site_fract_y
_atom_site_fract_z
Si Si1 0.015211 0.444720 0.826550
Si Si2 0.687327 0.498425 0.943659
Si Si3 0.139734 0.272081 0.535351
Si Si4 0.120015 0.763446 0.674742
O O1 0.956600 0.407489 0.750000
O O2 0.051843 0.601283 0.840005
O O3 0.159338 0.445726 0.825315
O O4 0.911263 0.333657 0.881056
O O5 0.548981 0.350447 0.939342
O O6 0.731908 0.584446 0.012990
O O7 0.262163 0.262163 0.500000
O O8 0.157903 0.254151 0.613668
O O9 0.000000 0.160419 0.500000
O O10 0.076424 0.779368 0.750000
#
# Coordination Sequence:
#
# PCOD9586844 Si02
#       4
#    12  12  12  12
#     4  10  20  39  66 101 139 179 228 279 342 415
#     4  10  24  40  61  99 134 174 223 285 351 406
#     4  12  25  44  69  96 132 176 231 286 345 413
#     4  10  22  40  66  97 135 179 222 274 338 411
#
# _framework density 22.312346999999999
#
# number of rings (size 3 to 8) (size 9 to 14) (size 15 to 20)
#    0.500    1.000    2.500    2.250    3.500    4.000 
#    0.000    2.500    0.000    0.000    0.000    0.000 
#    0.000    0.000    0.000    0.000    0.000    0.000 
#
# Total GULP energy -267258.711014 kJ/mol
# GULP energy per Si atom -5567.889813 kJ/mol
# Density = 2.226156 g / cm^3
# Si number density = 22.312347 Si / 1000 Ang^3
#
#
#
# Elastic Constant Matrix: (Units=GPa)
#
#
# Indices 1 2 3 4 5 6 
#
# 1 47.9064 13.0323 36.3166 0.0000 0.0000 0.0000
# 2 13.0323 47.9064 36.3166 0.0000 0.0000 0.0000
# 3 36.3166 36.3166 173.3522 0.0000 0.0000 0.0000
# 4 0.0000 0.0000 0.0000 22.0486 0.0000 0.0000
# 5 0.0000 0.0000 0.0000 0.0000 22.0486 0.0000
# 6 0.0000 0.0000 0.0000 0.0000 0.0000 17.4370
#
#
#
# Elastic Compliance Matrix: (Units=1/GPa)
#
#
# Indices 1 2 3 4 5 6 
#
# 1 0.025273 -0.003402 -0.004582 0.000000 0.000000 0.000000
# 2 -0.003402 0.025273 -0.004582 0.000000 0.000000 0.000000
# 3 -0.004582 -0.004582 0.007688 0.000000 0.000000 0.000000
# 4 0.000000 0.000000 0.000000 0.045354 0.000000 0.000000
# 5 0.000000 0.000000 0.000000 0.000000 0.045354 0.000000
# 6 0.000000 0.000000 0.000000 0.000000 0.000000 0.057349
#
#
# Mechanical properties :
#
#
# Convention : Reuss Voigt Hill
#
# Bulk Modulus (GPa) = 30.20876 48.94400 39.57638
# Shear Modulus (GPa) = 20.62218 24.54015 22.58116
#
# Velocity S-wave (km/s) = 3.04345 3.31999 3.18472
# Velocity P-wave (km/s) = 5.09102 6.05639 5.59457
#
# Compressibility (1/GPa) = 0.03310298
#
# Stress axis : x y z
#
# Youngs Moduli (GPa) = 39.56816 39.56816 130.06641
#
# Poissons Ratio (x) = 0.13460 0.59595
# Poissons Ratio (y) = 0.13460 0.59595
# Poissons Ratio (z) = 0.18130 0.18130
#
# Static dielectric constant tensor:
#      x y z
#    x 1.877360 0.000000 0.000000 
#    y 0.000000 1.877360 0.000000 
#    z 0.000000 0.000000 1.869160 
# 
# From -- ./inp_files/4131.got.cif
#   From: 2010.05.17/outbox.cif.g08.bks.cpg/sg190_3_cif.got.tgz:4131.got - 2010.05.20 12:16:56.
