data_PCOD9586029
_publ_section_title
;
Structure prediction by ZEFSAII (Michael W. Deem and Ramdas Pophale) SiO2 
 PCOD9586029
Probable space group: P -6 C 2
;
_chemical_formula_sum "Si O2"
_cell_formula_units_Z 66
_cell_length_a 19.765447
_cell_length_b 19.765447
_cell_length_c 9.696830
_cell_angle_alpha 90.000000
_cell_angle_beta 90.000000
_cell_angle_gamma 120.000000
_cell_volume 3280.754207
_symmetry_space_group_name_H-M "P -6 C 2"
_symmetry_group_IT_number 188
_symmetry_cell_setting 'hexagonal'
loop_
_space_group_symop_operation_xyz
x,y,z
-x+y,-x,1/2-z
-y,x-y,z
x,y,1/2-z
-x+y,-x,z
-y,x-y,1/2-z
-y,-x,-z
-x+y,y,-z
x,x-y,-z
-x+y,y,1/2+z
x,x-y,1/2+z
-y,-x,1/2+z
loop_
_atom_site_type_symbol
_atom_site_label
_atom_site_fract_x
_atom_site_fract_y
_atom_site_fract_z
Si Si1 0.800831 0.199170 0.000000
Si Si2 0.064699 0.601064 0.585667
Si Si3 0.627448 0.878231 0.410790
Si Si4 0.493922 0.118955 0.093532
Si Si5 0.996913 0.832167 0.750000
Si Si6 0.000814 0.871286 0.250000
Si Si7 0.257558 0.220769 0.035856
O O1 0.827554 0.282128 0.071544
O O2 0.784170 0.118461 0.073002
O O3 0.081745 0.604673 0.750000
O O4 0.072263 0.536132 0.500000
O O5 0.118833 0.680629 0.504337
O O6 0.972037 0.573004 0.574532
O O7 0.607689 0.854218 0.250000
O O8 0.653072 0.826536 0.500000
O O9 0.697544 0.966582 0.415507
O O10 0.521270 0.127040 0.250000
O O11 0.567829 0.135658 0.000000
O O12 0.960771 0.891634 0.750000
O O13 0.974264 0.772822 0.621589
O O14 0.085264 0.904591 0.750000
O O15 0.973911 0.816587 0.382577
#
# Coordination Sequence:
#
# PCOD9586029 Si02
#       7
#     6  12  12  12   6   6  12
#     4  12  24  44  72 100 136 180 236 292 348 432
#     4  10  21  41  67  98 135 173 218 274 340 413
#     4  12  25  41  64  98 137 180 228 291 353 403
#     4  10  24  44  68 100 133 171 217 279 348 419
#     4  12  25  40  62  84 132 180 240 304 364 422
#     4  12  23  44  56  90 124 186 238 302 360 424
#     4  12  26  40  62  95 131 175 242 296 352 417
#
# _framework density 20.117325999999998
#
# number of rings (size 3 to 8) (size 9 to 14) (size 15 to 20)
#    0.000    0.727    4.545    2.909    5.091    1.455 
#    0.545    1.818    0.000    0.364    0.000    2.545 
#    0.000    0.000    0.000    0.000    0.000    0.000 
#
# Total GULP energy -367590.106081 kJ/mol
# GULP energy per Si atom -5569.547062 kJ/mol
# Density = 2.007154 g / cm^3
# Si number density = 20.117326 Si / 1000 Ang^3
#
#
#
# Elastic Constant Matrix: (Units=GPa)
#
#
# Indices 1 2 3 4 5 6 
#
# 1 69.4427 4.5724 29.6774 -0.0003 0.0000 0.0000
# 2 4.5724 69.4427 29.6774 0.0003 0.0000 0.0000
# 3 29.6774 29.6774 163.7964 0.0000 0.0000 0.0000
# 4 -0.0003 0.0003 0.0000 26.1413 0.0000 0.0000
# 5 0.0000 0.0000 0.0000 0.0000 26.1413 -0.0003
# 6 0.0000 0.0000 0.0000 0.0000 -0.0003 32.4352
#
#
#
# Elastic Compliance Matrix: (Units=1/GPa)
#
#
# Indices 1 2 3 4 5 6 
#
# 1 0.015611 0.000196 -0.002864 0.000000 0.000000 0.000000
# 2 0.000196 0.015611 -0.002864 0.000000 0.000000 0.000000
# 3 -0.002864 -0.002864 0.007143 0.000000 0.000000 0.000000
# 4 0.000000 0.000000 0.000000 0.038254 0.000000 0.000000
# 5 0.000000 0.000000 0.000000 0.000000 0.038254 0.000000
# 6 0.000000 0.000000 0.000000 0.000000 0.000000 0.030831
#
#
# Mechanical properties :
#
#
# Convention : Reuss Voigt Hill
#
# Bulk Modulus (GPa) = 36.62769 47.83735 42.23252
# Shear Modulus (GPa) = 30.14432 32.86053 31.50242
#
# Velocity S-wave (km/s) = 3.87515 4.04597 3.96148
# Velocity P-wave (km/s) = 6.18619 6.75702 6.47790
#
# Compressibility (1/GPa) = 0.02730175
#
# Stress axis : x y z
#
# Youngs Moduli (GPa) = 64.05552 64.05552 139.99731
#
# Poissons Ratio (x) = -0.01256 0.40096
# Poissons Ratio (y) = -0.01256 0.40096
# Poissons Ratio (z) = 0.18346 0.18346
#
# Static dielectric constant tensor:
#      x y z
#    x 1.811140 0.000000 0.000000 
#    y 0.000000 1.811140 0.000000 
#    z 0.000000 0.000000 1.694590 
# 
# From -- ./inp_files/844.got.cif
#   From: 2010.05.17/outbox.cif.g08.bks.cpg/sg188_1_cif.got.tgz:844.got - 2010.05.20 12:11:46.
