data_PCOD9586453
_publ_section_title
;
Structure prediction by ZEFSAII (Michael W. Deem and Ramdas Pophale) SiO2 
 PCOD9586453
Probable space group: P -6 2 M
;
_chemical_formula_sum "Si O2"
_cell_formula_units_Z 96
_cell_length_a 14.399926
_cell_length_b 14.399926
_cell_length_c 27.473096
_cell_angle_alpha 90.000000
_cell_angle_beta 90.000000
_cell_angle_gamma 120.000000
_cell_volume 4933.541162
_symmetry_space_group_name_H-M "P -6 2 M"
_symmetry_group_IT_number 189
_symmetry_cell_setting 'hexagonal'
loop_
_space_group_symop_operation_xyz
x,y,z
-x+y,-x,-z
-y,x-y,z
x,y,-z
-x+y,-x,z
-y,x-y,-z
x-y,-y,-z
-x,-x+y,-z
y,x,-z
y,x,z
x-y,-y,z
-x,-x+y,z
loop_
_atom_site_type_symbol
_atom_site_label
_atom_site_fract_x
_atom_site_fract_y
_atom_site_fract_z
Si Si1 0.833458 0.563135 0.792372
Si Si2 0.870797 0.308974 0.554964
Si Si3 0.533637 0.657255 0.057991
Si Si4 0.389308 0.876740 0.252506
Si Si5 0.875388 0.551814 0.094624
Si Si6 0.879470 0.121228 0.273129
Si Si7 0.436252 0.564959 0.357359
Si Si8 0.126748 0.779797 0.628188
O O1 0.705945 0.507333 0.783350
O O2 0.875533 0.494882 0.763909
O O3 0.865133 0.567111 0.848070
O O4 0.877444 0.676317 0.766237
O O5 0.829673 0.297518 0.500000
O O6 0.833054 0.369134 0.592815
O O7 0.836771 0.196764 0.581056
O O8 0.000000 0.378310 0.552980
O O9 0.623833 0.623833 0.070458
O O10 0.562205 0.778076 0.070900
O O11 0.423627 0.567331 0.083513
O O12 0.515793 0.643102 0.000000
O O13 0.367882 0.832155 0.307675
O O14 0.417066 0.000000 0.251401
O O15 0.000000 0.633674 0.079230
O O16 0.856391 0.157628 0.325094
O O17 0.000000 0.196343 0.257706
O O18 0.852510 0.000000 0.279531
O O19 0.513921 0.513921 0.355469
O O20 0.318379 0.463788 0.358356
O O21 0.000000 0.728205 0.619656
#
# Coordination Sequence:
#
# PCOD9586453 Si02
#       8
#    12  12  12  12  12  12  12  12
#     4  12  23  37  58  87 122 162 201 241 298 362
#     4  10  21  37  56  80 110 142 180 230 296 367
#     4  10  22  41  66  94 125 167 217 265 318 377
#     4  11  22  38  57  81 115 154 197 245 292 349
#     4  11  23  39  62  95 133 169 208 261 321 376
#     4  11  22  38  59  86 120 162 209 255 300 354
#     4   9  19  36  56  77 105 143 183 234 289 346
#     4  10  20  37  60  83 110 145 193 244 292 352
#
# _framework density 19.458641
#
# number of rings (size 3 to 8) (size 9 to 14) (size 15 to 20)
#    0.000    1.500    1.250    4.375    0.000    4.500 
#    0.750    1.250    0.000    0.500    0.000    0.000 
#    0.000    0.000    0.000    0.000    0.000    0.000 
#
# Total GULP energy -536247.049681 kJ/mol
# GULP energy per Si atom -5585.906768 kJ/mol
# Density = 1.941435 g / cm^3
# Si number density = 19.458641 Si / 1000 Ang^3
#
#
#
# Elastic Constant Matrix: (Units=GPa)
#
#
# Indices 1 2 3 4 5 6 
#
# 1 159.3397 -23.0836 23.7016 0.0000 0.0000 0.0000
# 2 -23.0836 159.3397 23.7016 0.0000 0.0000 0.0000
# 3 23.7016 23.7016 80.6739 0.0000 0.0000 0.0000
# 4 0.0000 0.0000 0.0000 23.0809 0.0000 0.0000
# 5 0.0000 0.0000 0.0000 0.0000 23.0809 0.0000
# 6 0.0000 0.0000 0.0000 0.0000 0.0000 91.2117
#
#
#
# Elastic Compliance Matrix: (Units=1/GPa)
#
#
# Indices 1 2 3 4 5 6 
#
# 1 0.006828 0.001346 -0.002402 0.000000 0.000000 0.000000
# 2 0.001346 0.006828 -0.002402 0.000000 0.000000 0.000000
# 3 -0.002402 -0.002402 0.013807 0.000000 0.000000 0.000000
# 4 0.000000 0.000000 0.000000 0.043326 0.000000 0.000000
# 5 0.000000 0.000000 0.000000 0.000000 0.043326 0.000000
# 6 0.000000 0.000000 0.000000 0.000000 0.000000 0.010964
#
#
# Mechanical properties :
#
#
# Convention : Reuss Voigt Hill
#
# Bulk Modulus (GPa) = 48.66323 49.77695 49.22009
# Shear Modulus (GPa) = 36.01216 52.47695 44.24455
#
# Velocity S-wave (km/s) = 4.30665 5.19875 4.77358
# Velocity P-wave (km/s) = 7.05638 7.85318 7.46542
#
# Compressibility (1/GPa) = 0.02054940
#
# Stress axis : x y z
#
# Youngs Moduli (GPa) = 146.45129 146.45129 72.42817
#
# Poissons Ratio (x) = -0.19719 0.17395
# Poissons Ratio (y) = -0.19719 0.17395
# Poissons Ratio (z) = 0.35173 0.35173
#
# Static dielectric constant tensor:
#      x y z
#    x 1.607360 0.000000 0.000000 
#    y 0.000000 1.607360 0.000000 
#    z 0.000000 0.000000 1.667230 
# 
# From -- ./inp_files/3733.got.cif
#   From: 2010.05.17/outbox.cif.g08.bks.cpg/sg189_2_cif.got.tgz:3733.got - 2010.05.20 12:14:34.
