data_PCOD9586557
_publ_section_title
;
Structure prediction by ZEFSAII (Michael W. Deem and Ramdas Pophale) SiO2 
 PCOD9586557
Probable space group: P -6 2 M
;
_chemical_formula_sum "Si O2"
_cell_formula_units_Z 60
_cell_length_a 16.398453
_cell_length_b 16.398453
_cell_length_c 13.093664
_cell_angle_alpha 90.000000
_cell_angle_beta 90.000000
_cell_angle_gamma 120.000000
_cell_volume 3049.281948
_symmetry_space_group_name_H-M "P -6 2 M"
_symmetry_group_IT_number 189
_symmetry_cell_setting 'hexagonal'
loop_
_space_group_symop_operation_xyz
x,y,z
-x+y,-x,-z
-y,x-y,z
x,y,-z
-x+y,-x,z
-y,x-y,-z
x-y,-y,-z
-x,-x+y,-z
y,x,-z
y,x,z
x-y,-y,z
-x,-x+y,z
loop_
_atom_site_type_symbol
_atom_site_label
_atom_site_fract_x
_atom_site_fract_y
_atom_site_fract_z
Si Si1 0.712115 0.109753 0.114774
Si Si2 0.421900 0.888850 0.382083
Si Si3 0.843646 0.739259 0.613436
Si Si4 0.213653 0.746180 0.319806
Si Si5 0.897615 0.102139 0.159848
O O1 0.717147 0.177697 0.203923
O O2 0.813447 0.115698 0.120038
O O3 0.636692 0.000000 0.137358
O O4 0.695515 0.131583 0.000000
O O5 0.395043 0.890485 0.500000
O O6 0.325684 0.816376 0.324349
O O7 0.482589 0.836131 0.377009
O O8 0.480659 0.000000 0.348416
O O9 0.885210 0.772772 0.500000
O O10 0.750495 0.750495 0.615507
O O11 0.824866 0.635285 0.631202
O O12 0.897489 0.791858 0.716054
O O13 0.000000 0.182371 0.128191
O O14 0.876006 0.000000 0.126283
#
# Coordination Sequence:
#
# PCOD9586557 Si02
#       5
#    12  12  12  12  12
#     4   9  19  37  59  80 103 137 184 236 285 332
#     4  11  23  37  57  88 121 154 195 241 296 368
#     4   9  17  30  49  72  99 137 184 230 279 339
#     4  11  21  37  58  80 111 149 186 233 293 353
#     4   9  17  28  44  69 101 135 171 213 264 322
#
# _framework density 19.676763000000001
#
# number of rings (size 3 to 8) (size 9 to 14) (size 15 to 20)
#    0.000    2.200    0.000    3.600    0.000    4.000 
#    0.000    1.000    0.000    3.600    0.000    0.000 
#    0.000    0.000    0.000    0.000    0.000    0.000 
#
# Total GULP energy -334188.388847 kJ/mol
# GULP energy per Si atom -5569.806481 kJ/mol
# Density = 1.963198 g / cm^3
# Si number density = 19.676763 Si / 1000 Ang^3
#
#
#
# Elastic Constant Matrix: (Units=GPa)
#
#
# Indices 1 2 3 4 5 6 
#
# 1 78.3620 39.3767 24.5021 0.0000 0.0000 0.0000
# 2 39.3767 78.3620 24.5021 0.0000 0.0000 0.0000
# 3 24.5021 24.5021 125.5429 0.0000 0.0000 0.0000
# 4 0.0000 0.0000 0.0000 11.5512 0.0000 0.0000
# 5 0.0000 0.0000 0.0000 0.0000 11.5512 0.0000
# 6 0.0000 0.0000 0.0000 0.0000 0.0000 19.4926
#
#
#
# Elastic Compliance Matrix: (Units=1/GPa)
#
#
# Indices 1 2 3 4 5 6 
#
# 1 0.017448 -0.008203 -0.001804 0.000000 0.000000 0.000000
# 2 -0.008203 0.017448 -0.001804 0.000000 0.000000 0.000000
# 3 -0.001804 -0.001804 0.008670 0.000000 0.000000 0.000000
# 4 0.000000 0.000000 0.000000 0.086571 0.000000 0.000000
# 5 0.000000 0.000000 0.000000 0.000000 0.086571 0.000000
# 6 0.000000 0.000000 0.000000 0.000000 0.000000 0.051301
#
#
# Mechanical properties :
#
#
# Convention : Reuss Voigt Hill
#
# Bulk Modulus (GPa) = 50.14677 51.00320 50.57498
# Shear Modulus (GPa) = 16.76286 21.44474 19.10380
#
# Velocity S-wave (km/s) = 2.92192 3.30487 3.11928
# Velocity P-wave (km/s) = 6.07652 6.36708 6.22349
#
# Compressibility (1/GPa) = 0.01994146
#
# Stress axis : x y z
#
# Youngs Moduli (GPa) = 57.31475 57.31475 115.34484
#
# Poissons Ratio (x) = 0.47016 0.20811
# Poissons Ratio (y) = 0.47016 0.20811
# Poissons Ratio (z) = 0.10341 0.10341
#
# Static dielectric constant tensor:
#      x y z
#    x 1.702520 0.000000 0.000000 
#    y 0.000000 1.702520 0.000000 
#    z 0.000000 0.000000 1.722230 
# 
# From -- ./inp_files/1901.got.cif
#   From: 2010.05.17/outbox.cif.g08.bks.cpg/sg189_1_cif.got.tgz:1901.got - 2010.05.20 12:14:34.
