data_PCOD9586737
_publ_section_title
;
Structure prediction by ZEFSAII (Michael W. Deem and Ramdas Pophale) SiO2 
 PCOD9586737
Probable space group: P -6 2 C
;
_chemical_formula_sum "Si O2"
_cell_formula_units_Z 56
_cell_length_a 13.845247
_cell_length_b 13.845247
_cell_length_c 14.763803
_cell_angle_alpha 90.000000
_cell_angle_beta 90.000000
_cell_angle_gamma 120.000000
_cell_volume 2450.926510
_symmetry_space_group_name_H-M "P -6 2 C"
_symmetry_group_IT_number 190
_symmetry_cell_setting 'hexagonal'
loop_
_space_group_symop_operation_xyz
x,y,z
-x+y,-x,1/2-z
-y,x-y,z
x,y,1/2-z
-x+y,-x,z
-y,x-y,1/2-z
x-y,-y,-z
-x,-x+y,-z
y,x,-z
y,x,1/2+z
x-y,-y,1/2+z
-x,-x+y,1/2+z
loop_
_atom_site_type_symbol
_atom_site_label
_atom_site_fract_x
_atom_site_fract_y
_atom_site_fract_z
Si Si1 0.333335 0.666668 0.639430
Si Si2 0.274865 0.432844 0.140913
Si Si3 0.240705 0.192680 0.360637
Si Si4 0.000000 0.000000 0.139203
Si Si5 0.852235 0.283254 0.147043
Si Si6 0.077301 0.471408 0.410738
O O1 0.333334 0.666668 0.750000
O O2 0.329588 0.775271 0.607350
O O3 0.258349 0.434739 0.250000
O O4 0.260376 0.313440 0.115502
O O5 0.182315 0.452052 0.091945
O O6 0.401741 0.524881 0.118470
O O7 0.239884 0.188377 0.250000
O O8 0.336960 0.169052 0.394970
O O9 0.120776 0.095594 0.390673
O O10 0.000000 0.000000 0.250000
O O11 0.811044 0.252490 0.250000
O O12 0.980835 0.376707 0.151493
O O13 0.000000 0.441222 0.500000
#
# Coordination Sequence:
#
# PCOD9586737 Si02
#       6
#     4  12  12   4  12  12
#     4   9  18  30  54  87 117 150 199 266 349 423
#     4  11  23  44  70  97 133 188 246 298 363 460
#     4   9  18  32  59  92 121 156 211 277 345 419
#     4   9  15  27  48  84 121 146 181 249 328 398
#     4  10  19  36  60  90 126 172 229 295 362 436
#     4  12  27  43  65  98 136 182 241 311 379 442
#
# _framework density 22.848503000000001
#
# number of rings (size 3 to 8) (size 9 to 14) (size 15 to 20)
#    0.000    1.714    0.000    4.929    0.000   10.286 
#    0.000    0.000    0.000    0.000    0.000    0.000 
#    0.000    0.000    0.000    0.000    0.000    0.000 
#
# Total GULP energy -313006.137461 kJ/mol
# GULP energy per Si atom -5589.395312 kJ/mol
# Density = 2.279650 g / cm^3
# Si number density = 22.848503 Si / 1000 Ang^3
#
#
#
# Elastic Constant Matrix: (Units=GPa)
#
#
# Indices 1 2 3 4 5 6 
#
# 1 216.9963 114.8060 12.3891 0.0009 0.0007 -0.0002
# 2 114.8060 216.9961 12.3891 0.0011 -0.0002 -0.0004
# 3 12.3891 12.3891 71.3182 0.0005 -0.0001 0.0000
# 4 0.0009 0.0011 0.0005 -130.2723 -0.0015 0.0004
# 5 0.0007 -0.0002 -0.0001 -0.0015 -130.2707 0.0001
# 6 -0.0002 -0.0004 0.0000 0.0004 0.0001 51.0948
#
#
#
# Elastic Compliance Matrix: (Units=1/GPa)
#
#
# Indices 1 2 3 4 5 6 
#
# 1 0.006420 -0.003366 -0.000530 0.000000 0.000000 0.000000
# 2 -0.003366 0.006420 -0.000530 0.000000 0.000000 0.000000
# 3 -0.000530 -0.000530 0.014206 0.000000 0.000000 0.000000
# 4 0.000000 0.000000 0.000000 -0.007676 0.000000 0.000000
# 5 0.000000 0.000000 0.000000 0.000000 -0.007676 0.000000
# 6 0.000000 0.000000 0.000000 0.000000 0.000000 0.019571
#
#
# Mechanical properties :
#
#
# Convention : Reuss Voigt Hill
#
# Bulk Modulus (GPa) = 54.97185 87.16433 71.06809
# Shear Modulus (GPa) = 108.26814 -17.50788 45.38013
#
# Velocity S-wave (km/s) = 6.89116 -2.77114 4.46144
# Velocity P-wave (km/s) = 9.35035 5.29081 7.59676
#
# Compressibility (1/GPa) = 0.01819113
#
# Stress axis : x y z
#
# Youngs Moduli (GPa) = 155.77385 155.77375 70.39306
#
# Poissons Ratio (x) = 0.52435 0.03734
# Poissons Ratio (y) = 0.52435 0.03734
# Poissons Ratio (z) = 0.08263 0.08263
#
# Static dielectric constant tensor:
#      x y z
#    x 1.798560 0.000000 0.000000 
#    y 0.000000 1.798560 0.000000 
#    z 0.000000 0.000000 2.089800 
# 
# From -- ./inp_files/3633.got.cif
#   From: 2010.05.17/outbox.cif.g08.bks.cpg/sg190_2_cif.got.tgz:3633.got - 2010.05.20 12:16:56.
