data_PCOD9586912
_publ_section_title
;
Structure prediction by ZEFSAII (Michael W. Deem and Ramdas Pophale) SiO2 
 PCOD9586912
Probable space group: P -6 2 C
;
_chemical_formula_sum "Si O2"
_cell_formula_units_Z 84
_cell_length_a 16.196708
_cell_length_b 16.196708
_cell_length_c 14.738735
_cell_angle_alpha 90.000000
_cell_angle_beta 90.000000
_cell_angle_gamma 120.000000
_cell_volume 3348.454079
_symmetry_space_group_name_H-M "P -6 2 C"
_symmetry_group_IT_number 190
_symmetry_cell_setting 'hexagonal'
loop_
_space_group_symop_operation_xyz
x,y,z
-x+y,-x,1/2-z
-y,x-y,z
x,y,1/2-z
-x+y,-x,z
-y,x-y,1/2-z
x-y,-y,-z
-x,-x+y,-z
y,x,-z
y,x,1/2+z
x-y,-y,1/2+z
-x,-x+y,1/2+z
loop_
_atom_site_type_symbol
_atom_site_label
_atom_site_fract_x
_atom_site_fract_y
_atom_site_fract_z
Si Si1 0.538902 0.382928 0.648634
Si Si2 0.596113 0.694547 0.852378
Si Si3 0.659793 0.021448 0.105401
Si Si4 0.464831 0.249004 0.485578
Si Si5 0.589809 0.713115 0.146894
Si Si6 0.020861 0.844462 0.347341
Si Si7 0.967245 0.168047 0.403654
O O1 0.527458 0.338032 0.750000
O O2 0.447620 0.399812 0.640152
O O3 0.535996 0.329054 0.555339
O O4 0.640108 0.477343 0.649562
O O5 0.558639 0.676271 0.750000
O O6 0.640090 0.627372 0.874154
O O7 0.697162 0.794474 0.856969
O O8 0.524181 0.695911 0.925904
O O9 0.730505 0.990318 0.149478
O O10 0.700976 0.134556 0.093032
O O11 0.661109 0.000000 0.000000
O O12 0.392166 0.179721 0.566133
O O13 0.622059 0.750487 0.250000
O O14 0.983325 0.854881 0.250000
O O15 0.944339 0.844326 0.415751
O O16 0.125575 0.934193 0.357298
O O17 0.000000 0.217405 0.500000
#
# Coordination Sequence:
#
# PCOD9586912 Si02
#       7
#    12  12  12  12  12  12  12
#     4  10  23  44  70 102 134 170 218 274 338 406
#     4  11  24  40  63  96 131 176 227 275 326 391
#     4  10  22  37  58  91 126 171 217 265 317 388
#     4  11  22  40  69  97 135 176 215 274 339 402
#     4  10  23  44  70 101 134 169 218 277 337 406
#     4  12  24  38  56  83 125 174 227 277 328 383
#     4  12  24  39  57  84 124 176 227 282 332 378
#
# _framework density 25.086203999999999
#
# number of rings (size 3 to 8) (size 9 to 14) (size 15 to 20)
#    0.000    1.143    1.429    5.000    6.000    4.000 
#    0.857    0.000    0.000    0.857    0.000    0.000 
#    0.000    0.000    0.000    0.000    0.000    0.000 
#
# Total GULP energy -468497.998377 kJ/mol
# GULP energy per Si atom -5577.357124 kJ/mol
# Density = 2.502911 g / cm^3
# Si number density = 25.086204 Si / 1000 Ang^3
#
#
#
# Elastic Constant Matrix: (Units=GPa)
#
#
# Indices 1 2 3 4 5 6 
#
# 1 77.3495 19.1315 22.3974 0.0000 0.0000 0.0000
# 2 19.1315 77.3495 22.3974 0.0000 0.0000 0.0000
# 3 22.3974 22.3974 120.5047 0.0000 0.0000 0.0000
# 4 0.0000 0.0000 0.0000 32.6638 0.0000 0.0000
# 5 0.0000 0.0000 0.0000 0.0000 32.6638 0.0000
# 6 0.0000 0.0000 0.0000 0.0000 0.0000 29.1090
#
#
#
# Elastic Compliance Matrix: (Units=1/GPa)
#
#
# Indices 1 2 3 4 5 6 
#
# 1 0.014260 -0.002917 -0.002108 0.000000 0.000000 0.000000
# 2 -0.002917 0.014260 -0.002108 0.000000 0.000000 0.000000
# 3 -0.002108 -0.002108 0.009082 0.000000 0.000000 0.000000
# 4 0.000000 0.000000 0.000000 0.030615 0.000000 0.000000
# 5 0.000000 0.000000 0.000000 0.000000 0.030615 0.000000
# 6 0.000000 0.000000 0.000000 0.000000 0.000000 0.034354
#
#
# Mechanical properties :
#
#
# Convention : Reuss Voigt Hill
#
# Bulk Modulus (GPa) = 42.85233 44.78403 43.81818
# Shear Modulus (GPa) = 32.20997 32.97247 32.59122
#
# Velocity S-wave (km/s) = 3.58714 3.62935 3.60831
# Velocity P-wave (km/s) = 5.85456 5.95430 5.90464
#
# Compressibility (1/GPa) = 0.02333595
#
# Stress axis : x y z
#
# Youngs Moduli (GPa) = 70.12516 70.12516 110.10588
#
# Poissons Ratio (x) = 0.20453 0.23214
# Poissons Ratio (y) = 0.20453 0.23214
# Poissons Ratio (z) = 0.14785 0.14785
#
# Static dielectric constant tensor:
#      x y z
#    x 2.094390 0.000000 0.000000 
#    y 0.000000 2.094390 0.000000 
#    z 0.000000 0.000000 1.988840 
# 
# From -- ./inp_files/3149.got.cif
#   From: 2010.05.17/outbox.cif.g08.bks.cpg/sg190_2_cif.got.tgz:3149.got - 2010.05.20 12:16:56.
