data_PCOD9586197
_publ_section_title
;
Structure prediction by ZEFSAII (Michael W. Deem and Ramdas Pophale) SiO2 
 PCOD9586197
Probable space group: P -6 2 M
;
_chemical_formula_sum "Si O2"
_cell_formula_units_Z 58
_cell_length_a 13.911830
_cell_length_b 13.911830
_cell_length_c 14.641288
_cell_angle_alpha 90.000000
_cell_angle_beta 90.000000
_cell_angle_gamma 120.000000
_cell_volume 2454.021929
_symmetry_space_group_name_H-M "P -6 2 M"
_symmetry_group_IT_number 189
_symmetry_cell_setting 'hexagonal'
loop_
_space_group_symop_operation_xyz
x,y,z
-x+y,-x,-z
-y,x-y,z
x,y,-z
-x+y,-x,z
-y,x-y,-z
x-y,-y,-z
-x,-x+y,-z
y,x,-z
y,x,z
x-y,-y,z
-x,-x+y,z
loop_
_atom_site_type_symbol
_atom_site_label
_atom_site_fract_x
_atom_site_fract_y
_atom_site_fract_z
Si Si1 0.433725 0.559690 0.289813
Si Si2 0.666666 0.333333 0.395440
Si Si3 0.320057 0.187418 0.899545
Si Si4 0.550922 0.418583 0.094998
Si Si5 0.259246 0.127043 0.500000
Si Si6 0.671297 0.871014 0.698269
O O1 0.530128 0.530128 0.301654
O O2 0.426000 0.640175 0.360518
O O3 0.437887 0.610965 0.190272
O O4 0.318367 0.442639 0.296140
O O5 0.666667 0.333334 0.500000
O O6 0.232347 0.232347 0.898898
O O7 0.440601 0.298788 0.903332
O O8 0.315698 0.139725 0.797180
O O9 0.306488 0.131352 0.000000
O O10 0.503881 0.503881 0.095780
O O11 0.612401 0.433220 0.000000
O O12 0.211818 0.211818 0.500000
O O13 0.321348 0.146857 0.401598
O O14 0.162238 0.000000 0.500000
O O15 0.768819 0.000000 0.698340
#
# Coordination Sequence:
#
# PCOD9586197 Si02
#       6
#    12   4  12  12   6  12
#     4   9  19  38  59  79 111 148 182 234 290 337
#     4  12  27  39  55  83 112 153 213 249 283 350
#     4   7   9  16  35  66  95 116 153 207 254 309
#     4   7  10  21  47  79 106 136 173 215 274 340
#     4  10  19  30  46  70 100 132 173 224 280 338
#     4   8  15  28  50  73  93 129 172 210 267 330
#
# _framework density 23.634668999999999
#
# number of rings (size 3 to 8) (size 9 to 14) (size 15 to 20)
#    0.000    3.724    0.000    3.828    1.448    0.414 
#    0.000    2.069    0.000    0.621    0.000    0.000 
#    0.000    3.310    0.000    0.621    0.000    0.000 
#
# Total GULP energy -323066.302814 kJ/mol
# GULP energy per Si atom -5570.108669 kJ/mol
# Density = 2.358088 g / cm^3
# Si number density = 23.634669 Si / 1000 Ang^3
#
#
#
# Elastic Constant Matrix: (Units=GPa)
#
#
# Indices 1 2 3 4 5 6 
#
# 1 47.0801 27.5930 36.5082 0.0001 0.0000 0.0000
# 2 27.5930 47.0799 36.5085 0.0000 0.0000 -0.0001
# 3 36.5082 36.5085 290.5213 -0.0001 -0.0002 0.0001
# 4 0.0001 0.0000 -0.0001 17.8817 0.0000 0.0000
# 5 0.0000 0.0000 -0.0002 0.0000 17.8820 0.0000
# 6 0.0000 -0.0001 0.0001 0.0000 0.0000 9.7433
#
#
#
# Elastic Compliance Matrix: (Units=1/GPa)
#
#
# Indices 1 2 3 4 5 6 
#
# 1 0.033292 -0.018024 -0.001919 0.000000 0.000000 0.000000
# 2 -0.018024 0.033292 -0.001919 0.000000 0.000000 0.000000
# 3 -0.001919 -0.001919 0.003924 0.000000 0.000000 0.000000
# 4 0.000000 0.000000 0.000000 0.055923 0.000000 0.000000
# 5 0.000000 0.000000 0.000000 0.000000 0.055922 0.000000
# 6 0.000000 0.000000 0.000000 0.000000 0.000000 0.102635
#
#
# Mechanical properties :
#
#
# Convention : Reuss Voigt Hill
#
# Bulk Modulus (GPa) = 37.33380 65.10008 51.21694
# Shear Modulus (GPa) = 14.80867 28.03950 21.42409
#
# Velocity S-wave (km/s) = 2.50585 3.44811 3.01403
# Velocity P-wave (km/s) = 4.91964 6.59217 5.81634
#
# Compressibility (1/GPa) = 0.02678538
#
# Stress axis : x y z
#
# Youngs Moduli (GPa) = 30.03732 30.03717 254.82275
#
# Poissons Ratio (x) = 0.54140 0.48890
# Poissons Ratio (y) = 0.54140 0.48892
# Poissons Ratio (z) = 0.05763 0.05763
#
# Static dielectric constant tensor:
#      x y z
#    x 1.988620 0.000000 0.000000 
#    y 0.000000 1.988620 0.000000 
#    z 0.000000 0.000000 1.974290 
# 
# From -- ./inp_files/2574.got.cif
#   From: 2010.05.17/outbox.cif.g08.bks.cpg/sg189_2_cif.got.tgz:2574.got - 2010.05.20 12:14:34.
