data_PCOD9586145
_publ_section_title
;
Structure prediction by ZEFSAII (Michael W. Deem and Ramdas Pophale) SiO2 
 PCOD9586145
Probable space group: P -6 2 M
;
_chemical_formula_sum "Si O2"
_cell_formula_units_Z 64
_cell_length_a 14.627288
_cell_length_b 14.627288
_cell_length_c 18.580249
_cell_angle_alpha 90.000000
_cell_angle_beta 90.000000
_cell_angle_gamma 120.000000
_cell_volume 3442.784082
_symmetry_space_group_name_H-M "P -6 2 M"
_symmetry_group_IT_number 189
_symmetry_cell_setting 'hexagonal'
loop_
_space_group_symop_operation_xyz
x,y,z
-x+y,-x,-z
-y,x-y,z
x,y,-z
-x+y,-x,z
-y,x-y,-z
x-y,-y,-z
-x,-x+y,-z
y,x,-z
y,x,z
x-y,-y,z
-x,-x+y,z
loop_
_atom_site_type_symbol
_atom_site_label
_atom_site_fract_x
_atom_site_fract_y
_atom_site_fract_z
Si Si1 0.760361 0.880177 0.701318
Si Si2 0.242029 0.768414 0.688232
Si Si3 0.452505 0.128715 0.919569
Si Si4 0.666668 0.333334 0.414879
Si Si5 0.559252 0.122585 0.781407
Si Si6 0.877850 0.754336 0.875609
O O1 0.804586 0.804586 0.679595
O O2 0.645439 0.841187 0.670524
O O3 0.749636 0.875212 0.788578
O O4 0.841473 0.000000 0.682284
O O5 0.278374 0.727913 0.620252
O O6 0.192151 0.673582 0.746552
O O7 0.343815 0.862870 0.727176
O O8 0.540293 0.160365 0.858439
O O9 0.363509 0.160737 0.903047
O O10 0.386201 0.000000 0.916440
O O11 0.494094 0.161217 0.000000
O O12 0.666667 0.333334 0.500000
O O13 0.525530 0.000000 0.785907
O O14 0.829698 0.829698 0.896844
O O15 0.000000 0.805691 0.898379
#
# Coordination Sequence:
#
# PCOD9586145 Si02
#       6
#    12  12  12   4  12  12
#     4  10  18  30  51  83 117 149 185 227 270 317
#     4  10  19  33  59  84 107 143 184 216 272 335
#     4   9  17  30  47  65  95 140 182 229 287 331
#     4   9  21  39  60  90 121 140 166 225 282 330
#     4  10  19  34  53  76 105 137 183 235 274 321
#     4   9  16  26  43  69 103 142 185 230 277 329
#
# _framework density 18.589607000000001
#
# number of rings (size 3 to 8) (size 9 to 14) (size 15 to 20)
#    0.000    2.438    1.875    1.875    0.000    1.875 
#    0.000    0.938    0.000   21.375    0.000    0.000 
#    0.000    1.500    0.000    0.000    0.000    0.000 
#
# Total GULP energy -357124.406337 kJ/mol
# GULP energy per Si atom -5580.068849 kJ/mol
# Density = 1.854730 g / cm^3
# Si number density = 18.589607 Si / 1000 Ang^3
#
#
#
# Elastic Constant Matrix: (Units=GPa)
#
#
# Indices 1 2 3 4 5 6 
#
# 1 62.1562 22.0602 38.1417 -0.0001 -0.0002 0.0001
# 2 22.0602 62.1556 38.1416 0.0000 -0.0001 -0.0001
# 3 38.1417 38.1416 101.2941 -0.0002 -0.0001 0.0001
# 4 -0.0001 0.0000 -0.0002 10.7726 0.0000 0.0000
# 5 -0.0002 -0.0001 -0.0001 0.0000 10.7725 0.0000
# 6 0.0001 -0.0001 0.0001 0.0000 0.0000 20.0479
#
#
#
# Elastic Compliance Matrix: (Units=1/GPa)
#
#
# Indices 1 2 3 4 5 6 
#
# 1 0.021480 -0.003460 -0.006785 0.000000 0.000000 0.000000
# 2 -0.003460 0.021481 -0.006786 0.000000 0.000000 0.000000
# 3 -0.006785 -0.006786 0.014982 0.000000 0.000000 0.000000
# 4 0.000000 0.000000 0.000000 0.092828 0.000000 0.000000
# 5 0.000000 0.000000 0.000000 0.000000 0.092829 0.000000
# 6 0.000000 0.000000 0.000000 0.000000 0.000000 0.049880
#
#
# Mechanical properties :
#
#
# Convention : Reuss Voigt Hill
#
# Bulk Modulus (GPa) = 41.87364 46.92143 44.39753
# Shear Modulus (GPa) = 14.90297 16.80275 15.85286
#
# Velocity S-wave (km/s) = 2.83447 3.00972 2.92341
# Velocity P-wave (km/s) = 5.76945 6.11337 5.94390
#
# Compressibility (1/GPa) = 0.02388137
#
# Stress axis : x y z
#
# Youngs Moduli (GPa) = 46.55420 46.55368 66.74525
#
# Poissons Ratio (x) = 0.16107 0.45290
# Poissons Ratio (y) = 0.16107 0.45290
# Poissons Ratio (z) = 0.31589 0.31589
#
# Static dielectric constant tensor:
#      x y z
#    x 1.648010 0.000000 0.000000 
#    y 0.000000 1.648010 0.000000 
#    z 0.000000 0.000000 1.620860 
# 
# From -- ./inp_files/3041.got.cif
#   From: 2010.05.17/outbox.cif.g08.bks.cpg/sg189_2_cif.got.tgz:3041.got - 2010.05.20 12:14:34.
