data_PCOD9586933
_publ_section_title
;
Structure prediction by ZEFSAII (Michael W. Deem and Ramdas Pophale) SiO2 
 PCOD9586933
Probable space group: P -6 2 C
;
_chemical_formula_sum "Si O2"
_cell_formula_units_Z 52
_cell_length_a 12.479072
_cell_length_b 12.479072
_cell_length_c 16.392425
_cell_angle_alpha 90.000000
_cell_angle_beta 90.000000
_cell_angle_gamma 120.000000
_cell_volume 2210.743811
_symmetry_space_group_name_H-M "P -6 2 C"
_symmetry_group_IT_number 190
_symmetry_cell_setting 'hexagonal'
loop_
_space_group_symop_operation_xyz
x,y,z
-x+y,-x,1/2-z
-y,x-y,z
x,y,1/2-z
-x+y,-x,z
-y,x-y,1/2-z
x-y,-y,-z
-x,-x+y,-z
y,x,-z
y,x,1/2+z
x-y,-y,1/2+z
-x,-x+y,1/2+z
loop_
_atom_site_type_symbol
_atom_site_label
_atom_site_fract_x
_atom_site_fract_y
_atom_site_fract_z
Si Si1 0.879785 0.582313 0.349270
Si Si2 0.477578 0.124085 0.444842
Si Si3 0.258599 0.155622 0.843088
Si Si4 0.517998 0.230208 0.616402
Si Si5 0.000000 0.000000 0.905849
O O1 0.879512 0.568989 0.250000
O O2 0.880868 0.467962 0.395533
O O3 0.757748 0.585138 0.379745
O O4 0.999098 0.711366 0.377279
O O5 0.514929 0.222270 0.518953
O O6 0.233677 0.851198 0.350511
O O7 0.227568 0.158956 0.750000
O O8 0.138009 0.041979 0.879090
O O9 0.625938 0.202376 0.642782
O O10 0.401593 0.000000 0.500000
O O11 0.000000 0.000000 0.000000
#
# Coordination Sequence:
#
# PCOD9586933 Si02
#       5
#    12  12  12  12   4
#     4  11  25  45  71 106 151 198 251 320 394 470
#     4  12  24  41  72 109 149 194 251 318 391 469
#     4  11  27  49  73 105 150 198 252 316 385 464
#     4  10  22  43  73 114 145 193 248 317 389 461
#     4  12  31  50  79 108 145 206 268 318 385 464
#
# _framework density 23.521494000000001
#
# number of rings (size 3 to 8) (size 9 to 14) (size 15 to 20)
#    0.462    0.462    2.308    3.231    6.462    0.923 
#    0.000    1.154    0.000    0.000    0.000    0.000 
#    0.000    0.000    0.000    0.000    0.000    0.000 
#
# Total GULP energy -290281.562048 kJ/mol
# GULP energy per Si atom -5582.337732 kJ/mol
# Density = 2.346796 g / cm^3
# Si number density = 23.521494 Si / 1000 Ang^3
#
#
#
# Elastic Constant Matrix: (Units=GPa)
#
#
# Indices 1 2 3 4 5 6 
#
# 1 85.0911 26.3210 9.2644 0.0000 0.0000 0.0000
# 2 26.3210 85.0911 9.2644 0.0000 0.0000 0.0000
# 3 9.2644 9.2644 63.0922 0.0000 0.0000 0.0000
# 4 0.0000 0.0000 0.0000 31.3069 0.0000 0.0000
# 5 0.0000 0.0000 0.0000 0.0000 31.3069 0.0000
# 6 0.0000 0.0000 0.0000 0.0000 0.0000 29.3850
#
#
#
# Elastic Compliance Matrix: (Units=1/GPa)
#
#
# Indices 1 2 3 4 5 6 
#
# 1 0.013108 -0.003908 -0.001351 0.000000 0.000000 0.000000
# 2 -0.003908 0.013108 -0.001351 0.000000 0.000000 0.000000
# 3 -0.001351 -0.001351 0.016247 0.000000 0.000000 0.000000
# 4 0.000000 0.000000 0.000000 0.031942 0.000000 0.000000
# 5 0.000000 0.000000 0.000000 0.000000 0.031942 0.000000
# 6 0.000000 0.000000 0.000000 0.000000 0.000000 0.034031
#
#
# Mechanical properties :
#
#
# Convention : Reuss Voigt Hill
#
# Bulk Modulus (GPa) = 34.19572 35.88598 35.04085
# Shear Modulus (GPa) = 30.61027 30.96139 30.78583
#
# Velocity S-wave (km/s) = 3.61137 3.63202 3.62171
# Velocity P-wave (km/s) = 5.65323 5.73399 5.69375
#
# Compressibility (1/GPa) = 0.02924343
#
# Stress axis : x y z
#
# Youngs Moduli (GPa) = 76.28979 76.28979 61.55143
#
# Poissons Ratio (x) = 0.29811 0.08315
# Poissons Ratio (y) = 0.29811 0.08315
# Poissons Ratio (z) = 0.10307 0.10307
#
# Static dielectric constant tensor:
#      x y z
#    x 1.958350 0.000000 0.000000 
#    y 0.000000 1.958350 0.000000 
#    z 0.000000 0.000000 1.836300 
# 
# From -- ./inp_files/4208.got.cif
#   From: 2010.05.17/outbox.cif.g08.bks.cpg/sg190_3_cif.got.tgz:4208.got - 2010.05.20 12:16:56.
