data_PCOD9586916
_publ_section_title
;
Structure prediction by ZEFSAII (Michael W. Deem and Ramdas Pophale) SiO2 
 PCOD9586916
Probable space group: P -6 2 C
;
_chemical_formula_sum "Si O2"
_cell_formula_units_Z 30
_cell_length_a 7.327999
_cell_length_b 7.327999
_cell_length_c 27.126747
_cell_angle_alpha 90.000000
_cell_angle_beta 90.000000
_cell_angle_gamma 120.000000
_cell_volume 1261.534557
_symmetry_space_group_name_H-M "P -6 2 C"
_symmetry_group_IT_number 190
_symmetry_cell_setting 'hexagonal'
loop_
_space_group_symop_operation_xyz
x,y,z
-x+y,-x,1/2-z
-y,x-y,z
x,y,1/2-z
-x+y,-x,z
-y,x-y,1/2-z
x-y,-y,-z
-x,-x+y,-z
y,x,-z
y,x,1/2+z
x-y,-y,1/2+z
-x,-x+y,1/2+z
loop_
_atom_site_type_symbol
_atom_site_label
_atom_site_fract_x
_atom_site_fract_y
_atom_site_fract_z
Si Si1 0.283291 0.876502 0.047747
Si Si2 0.334776 0.906940 0.851901
Si Si3 0.968014 0.219908 0.750000
O O1 0.120714 0.628479 0.045948
O O2 0.291590 0.976589 0.100386
O O3 0.275498 0.000000 0.000000
O O4 0.138421 0.667755 0.853290
O O5 0.354285 0.025431 0.801088
O O6 0.184692 0.208733 0.750000
#
# Coordination Sequence:
#
# PCOD9586916 Si02
#       3
#    12  12   6
#     4  10  22  38  64  94 127 168 214 254 315 377
#     4  10  22  40  67  89 130 168 208 262 322 374
#     4  10  24  38  64  90 130 156 216 256 318 374
#
# _framework density 23.780559
#
# number of rings (size 3 to 8) (size 9 to 14) (size 15 to 20)
#    2.000    0.000    0.000    3.600    5.600    0.000 
#    0.000    0.000    0.000    3.200    0.000    0.000 
#    0.000    0.000    0.000    0.000    0.000    0.000 
#
# Total GULP energy -167353.217021 kJ/mol
# GULP energy per Si atom -5578.440567 kJ/mol
# Density = 2.372643 g / cm^3
# Si number density = 23.780559 Si / 1000 Ang^3
#
#
#
# Elastic Constant Matrix: (Units=GPa)
#
#
# Indices 1 2 3 4 5 6 
#
# 1 50.1552 -7.8134 28.1032 0.0000 0.0000 0.0000
# 2 -7.8134 50.1552 28.1032 0.0000 0.0000 0.0000
# 3 28.1032 28.1032 227.3075 0.0000 0.0000 0.0000
# 4 0.0000 0.0000 0.0000 33.2290 0.0000 0.0000
# 5 0.0000 0.0000 0.0000 0.0000 33.2290 0.0000
# 6 0.0000 0.0000 0.0000 0.0000 0.0000 28.9843
#
#
#
# Elastic Compliance Matrix: (Units=1/GPa)
#
#
# Indices 1 2 3 4 5 6 
#
# 1 0.022753 0.005502 -0.003493 0.000000 0.000000 0.000000
# 2 0.005502 0.022753 -0.003493 0.000000 0.000000 0.000000
# 3 -0.003493 -0.003493 0.005263 0.000000 0.000000 0.000000
# 4 0.000000 0.000000 0.000000 0.030094 0.000000 0.000000
# 5 0.000000 0.000000 0.000000 0.000000 0.030094 0.000000
# 6 0.000000 0.000000 0.000000 0.000000 0.000000 0.034501
#
#
# Mechanical properties :
#
#
# Convention : Reuss Voigt Hill
#
# Bulk Modulus (GPa) = 20.92093 47.15596 34.03845
# Shear Modulus (GPa) = 30.42097 37.70345 34.06221
#
# Velocity S-wave (km/s) = 3.58052 3.98612 3.78875
# Velocity P-wave (km/s) = 5.09020 6.40767 5.78655
#
# Compressibility (1/GPa) = 0.04779902
#
# Stress axis : x y z
#
# Youngs Moduli (GPa) = 43.95107 43.95107 190.00203
#
# Poissons Ratio (x) = -0.24181 0.66372
# Poissons Ratio (y) = -0.24181 0.66372
# Poissons Ratio (z) = 0.15353 0.15353
#
# Static dielectric constant tensor:
#      x y z
#    x 1.919310 0.000000 0.000000 
#    y 0.000000 1.919310 0.000000 
#    z 0.000000 0.000000 1.837920 
# 
# From -- ./inp_files/4479.got.cif
#   From: 2010.05.17/outbox.cif.g08.bks.cpg/sg190_3_cif.got.tgz:4479.got - 2010.05.20 12:16:56.
