data_PCOD9586747
_publ_section_title
;
Structure prediction by ZEFSAII (Michael W. Deem and Ramdas Pophale) SiO2 
 PCOD9586747
Probable space group: P -6 2 C
;
_chemical_formula_sum "Si O2"
_cell_formula_units_Z 58
_cell_length_a 14.392591
_cell_length_b 14.392591
_cell_length_c 15.303367
_cell_angle_alpha 90.000000
_cell_angle_beta 90.000000
_cell_angle_gamma 120.000000
_cell_volume 2745.336557
_symmetry_space_group_name_H-M "P -6 2 C"
_symmetry_group_IT_number 190
_symmetry_cell_setting 'hexagonal'
loop_
_space_group_symop_operation_xyz
x,y,z
-x+y,-x,1/2-z
-y,x-y,z
x,y,1/2-z
-x+y,-x,z
-y,x-y,1/2-z
x-y,-y,-z
-x,-x+y,-z
y,x,-z
y,x,1/2+z
x-y,-y,1/2+z
-x,-x+y,1/2+z
loop_
_atom_site_type_symbol
_atom_site_label
_atom_site_fract_x
_atom_site_fract_y
_atom_site_fract_z
Si Si1 0.366731 0.889990 0.151174
Si Si2 0.756592 0.766463 0.096286
Si Si3 0.444135 0.203178 0.145513
Si Si4 0.052220 0.137913 0.250000
Si Si5 0.481934 0.921190 0.584893
Si Si6 0.666668 0.333335 0.856408
O O1 0.322062 0.870220 0.250000
O O2 0.296811 0.924155 0.092906
O O3 0.362919 0.784451 0.115924
O O4 0.487187 0.987944 0.154798
O O5 0.783134 0.677328 0.133021
O O6 0.794944 0.862784 0.163684
O O7 0.801848 0.801848 0.000000
O O8 0.469582 0.215763 0.250000
O O9 0.516960 0.162880 0.095040
O O10 0.460698 0.313802 0.105834
O O11 0.114445 0.072353 0.250000
O O12 0.526214 0.000000 0.500000
O O13 0.666667 0.333334 0.750000
#
# Coordination Sequence:
#
# PCOD9586747 Si02
#       6
#    12  12  12   6  12   4
#     4  10  19  39  62  92 137 182 227 279 353 423
#     4  11  22  43  68  95 129 174 221 288 350 412
#     4  11  21  42  68  95 135 185 236 282 349 435
#     4  10  24  48  68  92 122 166 218 280 354 410
#     4  11  24  39  62 102 137 181 237 299 359 422
#     4   9  21  36  60  96 129 184 230 277 354 432
#
# _framework density 21.126735
#
# number of rings (size 3 to 8) (size 9 to 14) (size 15 to 20)
#    0.207    1.241    2.069    6.000    0.000    4.138 
#    7.448    0.000    0.000    0.000    0.000    0.000 
#    0.000    0.000    0.000    0.000    0.000    0.000 
#
# Total GULP energy -323689.965450 kJ/mol
# GULP energy per Si atom -5580.861473 kJ/mol
# Density = 2.107865 g / cm^3
# Si number density = 21.126735 Si / 1000 Ang^3
#
#
#
# Elastic Constant Matrix: (Units=GPa)
#
#
# Indices 1 2 3 4 5 6 
#
# 1 93.8164 45.6128 16.5765 0.0000 0.0000 -0.0001
# 2 45.6128 93.8156 16.5764 0.0001 0.0000 -0.0002
# 3 16.5765 16.5764 120.8989 0.0001 0.0000 0.0004
# 4 0.0000 0.0001 0.0001 22.8779 0.0000 0.0000
# 5 0.0000 0.0000 0.0000 0.0000 22.8778 0.0000
# 6 -0.0001 -0.0002 0.0004 0.0000 0.0000 24.1018
#
#
#
# Elastic Compliance Matrix: (Units=1/GPa)
#
#
# Indices 1 2 3 4 5 6 
#
# 1 0.014080 -0.006666 -0.001017 0.000000 0.000000 0.000000
# 2 -0.006666 0.014080 -0.001017 0.000000 0.000000 0.000000
# 3 -0.001017 -0.001017 0.008550 0.000000 0.000000 0.000000
# 4 0.000000 0.000000 0.000000 0.043710 0.000000 0.000000
# 5 0.000000 0.000000 0.000000 0.000000 0.043710 0.000000
# 6 0.000000 0.000000 0.000000 0.000000 0.000000 0.041491
#
#
# Mechanical properties :
#
#
# Convention : Reuss Voigt Hill
#
# Bulk Modulus (GPa) = 51.78200 51.78469 51.78334
# Shear Modulus (GPa) = 26.39137 29.28918 27.84028
#
# Velocity S-wave (km/s) = 3.53823 3.72742 3.63405
# Velocity P-wave (km/s) = 6.42304 6.56426 6.49404
#
# Compressibility (1/GPa) = 0.01931173
#
# Stress axis : x y z
#
# Youngs Moduli (GPa) = 71.02471 71.02409 116.95744
#
# Poissons Ratio (x) = 0.47344 0.11889
# Poissons Ratio (y) = 0.47344 0.11889
# Poissons Ratio (z) = 0.07220 0.07220
#
# Static dielectric constant tensor:
#      x y z
#    x 1.737510 0.000000 0.000000 
#    y 0.000000 1.737510 0.000000 
#    z 0.000000 0.000000 1.834630 
# 
# From -- ./inp_files/2843.got.cif
#   From: 2010.05.17/outbox.cif.g08.bks.cpg/sg190_2_cif.got.tgz:2843.got - 2010.05.20 12:16:56.
