data_PCOD9586435
_publ_section_title
;
Structure prediction by ZEFSAII (Michael W. Deem and Ramdas Pophale) SiO2 
 PCOD9586435
Probable space group: P -6 2 M
;
_chemical_formula_sum "Si O2"
_cell_formula_units_Z 84
_cell_length_a 14.143001
_cell_length_b 14.143001
_cell_length_c 23.407928
_cell_angle_alpha 90.000000
_cell_angle_beta 90.000000
_cell_angle_gamma 120.000000
_cell_volume 4054.868260
_symmetry_space_group_name_H-M "P -6 2 M"
_symmetry_group_IT_number 189
_symmetry_cell_setting 'hexagonal'
loop_
_space_group_symop_operation_xyz
x,y,z
-x+y,-x,-z
-y,x-y,z
x,y,-z
-x+y,-x,z
-y,x-y,-z
x-y,-y,-z
-x,-x+y,-z
y,x,-z
y,x,z
x-y,-y,z
-x,-x+y,z
loop_
_atom_site_type_symbol
_atom_site_label
_atom_site_fract_x
_atom_site_fract_y
_atom_site_fract_z
Si Si1 0.129016 0.871090 0.135090
Si Si2 0.571294 0.442140 0.437594
Si Si3 0.569464 0.123971 0.168182
Si Si4 0.875557 0.576050 0.654795
Si Si5 0.231053 0.799559 0.772694
Si Si6 0.126032 0.328756 0.564986
Si Si7 0.313153 0.866989 0.064520
O O1 0.164445 0.850975 0.197622
O O2 0.196771 0.837341 0.091813
O O3 0.000000 0.801653 0.127116
O O4 0.175044 0.000000 0.127396
O O5 0.565685 0.390376 0.500000
O O6 0.482796 0.482796 0.439213
O O7 0.534629 0.365332 0.382554
O O8 0.686802 0.552138 0.432876
O O9 0.483409 0.125593 0.212983
O O10 0.687897 0.196331 0.193340
O O11 0.544399 0.163125 0.108326
O O12 0.542260 0.000000 0.161239
O O13 0.800769 0.566775 0.707787
O O14 0.875017 0.662987 0.610701
O O15 0.000000 0.618621 0.674677
O O16 0.150990 0.312218 0.500000
O O17 0.000000 0.241529 0.577201
O O18 0.380317 0.000000 0.064091
O O19 0.304443 0.827537 0.000000
#
# Coordination Sequence:
#
# PCOD9586435 Si02
#       7
#    12  12  12  12  12  12  12
#     4  10  20  36  58  86 122 160 195 237 291 354
#     4   8  16  33  53  74 103 136 171 220 280 337
#     4  10  21  39  60  80 113 155 188 239 301 347
#     4  11  22  34  54  81 110 143 185 232 282 342
#     4  11  23  38  56  83 115 151 201 245 291 352
#     4   9  19  36  56  78 107 143 183 229 283 343
#     4   8  16  33  57  83 109 143 189 234 281 337
#
# _framework density 20.715838000000002
#
# number of rings (size 3 to 8) (size 9 to 14) (size 15 to 20)
#    0.000    2.429    0.000    4.286    2.000    2.286 
#    0.857    2.857    0.000    4.571    0.000    0.000 
#    0.000    0.000    0.000    0.000    0.000    0.000 
#
# Total GULP energy -468992.378336 kJ/mol
# GULP energy per Si atom -5583.242599 kJ/mol
# Density = 2.066869 g / cm^3
# Si number density = 20.715838 Si / 1000 Ang^3
#
#
#
# Elastic Constant Matrix: (Units=GPa)
#
#
# Indices 1 2 3 4 5 6 
#
# 1 59.1019 4.4808 15.3070 0.0000 0.0000 0.0000
# 2 4.4808 59.1019 15.3070 0.0000 0.0000 0.0000
# 3 15.3070 15.3070 113.4357 0.0000 0.0000 0.0000
# 4 0.0000 0.0000 0.0000 9.8363 0.0000 0.0000
# 5 0.0000 0.0000 0.0000 0.0000 9.8363 0.0000
# 6 0.0000 0.0000 0.0000 0.0000 0.0000 27.3105
#
#
#
# Elastic Compliance Matrix: (Units=1/GPa)
#
#
# Indices 1 2 3 4 5 6 
#
# 1 0.017564 -0.000744 -0.002270 0.000000 0.000000 0.000000
# 2 -0.000744 0.017564 -0.002270 0.000000 0.000000 0.000000
# 3 -0.002270 -0.002270 0.009428 0.000000 0.000000 0.000000
# 4 0.000000 0.000000 0.000000 0.101664 0.000000 0.000000
# 5 0.000000 0.000000 0.000000 0.000000 0.101664 0.000000
# 6 0.000000 0.000000 0.000000 0.000000 0.000000 0.036616
#
#
# Mechanical properties :
#
#
# Convention : Reuss Voigt Hill
#
# Bulk Modulus (GPa) = 29.42050 33.53660 31.47855
# Shear Modulus (GPa) = 16.31871 22.49961 19.40916
#
# Velocity S-wave (km/s) = 2.80972 3.29919 3.06424
# Velocity P-wave (km/s) = 4.97582 5.54408 5.26762
#
# Compressibility (1/GPa) = 0.03398990
#
# Stress axis : x y z
#
# Youngs Moduli (GPa) = 56.93411 56.93411 106.06564
#
# Poissons Ratio (x) = 0.04235 0.24074
# Poissons Ratio (y) = 0.04235 0.24074
# Poissons Ratio (z) = 0.12923 0.12923
#
# Static dielectric constant tensor:
#      x y z
#    x 1.745210 0.000000 0.000000 
#    y 0.000000 1.745210 0.000000 
#    z 0.000000 0.000000 1.754000 
# 
# From -- ./inp_files/3625.got.cif
#   From: 2010.05.17/outbox.cif.g08.bks.cpg/sg189_2_cif.got.tgz:3625.got - 2010.05.20 12:14:34.
