data_PCOD9586014
_publ_section_title
;
Structure prediction by ZEFSAII (Michael W. Deem and Ramdas Pophale) SiO2 
 PCOD9586014
Probable space group: P -6 C 2
;
_chemical_formula_sum "Si O2"
_cell_formula_units_Z 46
_cell_length_a 13.728858
_cell_length_b 13.728858
_cell_length_c 14.375435
_cell_angle_alpha 90.000000
_cell_angle_beta 90.000000
_cell_angle_gamma 120.000000
_cell_volume 2346.499430
_symmetry_space_group_name_H-M "P -6 C 2"
_symmetry_group_IT_number 188
_symmetry_cell_setting 'hexagonal'
loop_
_space_group_symop_operation_xyz
x,y,z
-x+y,-x,1/2-z
-y,x-y,z
x,y,1/2-z
-x+y,-x,z
-y,x-y,1/2-z
-y,-x,-z
-x+y,y,-z
x,x-y,-z
-x+y,y,1/2+z
x,x-y,1/2+z
-y,-x,1/2+z
loop_
_atom_site_type_symbol
_atom_site_label
_atom_site_fract_x
_atom_site_fract_y
_atom_site_fract_z
Si Si1 0.797252 0.202745 0.361619
Si Si2 0.396943 0.369388 0.500001
Si Si3 0.855792 0.927896 0.139894
Si Si4 0.172896 0.827105 0.000000
Si Si5 0.666668 0.333335 0.639353
O O1 0.806155 0.193842 0.250000
O O2 0.714937 0.085053 0.412049
O O3 0.914945 0.285064 0.412048
O O4 0.730925 0.269069 0.387114
O O5 0.523688 0.476313 0.500000
O O6 0.306782 0.411117 0.500001
O O7 0.839150 0.919576 0.250000
O O8 0.939280 0.060721 0.117302
O O9 0.741403 0.870701 0.085892
O O10 0.666667 0.333334 0.750000
#
# Coordination Sequence:
#
# PCOD9586014 Si02
#       5
#    12  12  12   6   4
#     4  10  21  37  64  96 126 151 185 244 310 378
#     4  11  25  40  59  89 121 159 210 251 296 358
#     4   8  18  34  55  84 120 150 183 230 289 357
#     4  12  24  38  56  82 120 164 204 250 288 342
#     4   9  15  31  59  91 121 146 172 229 311 373
#
# _framework density 19.603670000000001
#
# number of rings (size 3 to 8) (size 9 to 14) (size 15 to 20)
#    0.522    1.565    2.609    0.783    7.304    2.087 
#    0.783    0.000    0.000    0.000    0.000    0.000 
#    0.000    0.000    0.000    0.000    0.000    0.000 
#
# Total GULP energy -256453.253813 kJ/mol
# GULP energy per Si atom -5575.070735 kJ/mol
# Density = 1.955905 g / cm^3
# Si number density = 19.603670 Si / 1000 Ang^3
#
#
#
# Elastic Constant Matrix: (Units=GPa)
#
#
# Indices 1 2 3 4 5 6 
#
# 1 90.9076 21.1394 23.2929 0.0000 0.0000 0.0001
# 2 21.1394 90.9082 23.2928 0.0000 0.0000 0.0000
# 3 23.2929 23.2928 126.1594 0.0000 0.0000 0.0000
# 4 0.0000 0.0000 0.0000 21.5744 0.0000 0.0000
# 5 0.0000 0.0000 0.0000 0.0000 21.5743 0.0000
# 6 0.0001 0.0000 0.0000 0.0000 0.0000 34.8840
#
#
#
# Elastic Compliance Matrix: (Units=1/GPa)
#
#
# Indices 1 2 3 4 5 6 
#
# 1 0.012000 -0.002333 -0.001785 0.000000 0.000000 0.000000
# 2 -0.002333 0.012000 -0.001785 0.000000 0.000000 0.000000
# 3 -0.001785 -0.001785 0.008586 0.000000 0.000000 0.000000
# 4 0.000000 0.000000 0.000000 0.046351 0.000000 0.000000
# 5 0.000000 0.000000 0.000000 0.000000 0.046352 0.000000
# 6 0.000000 0.000000 0.000000 0.000000 0.000000 0.028666
#
#
# Mechanical properties :
#
#
# Convention : Reuss Voigt Hill
#
# Bulk Modulus (GPa) = 48.12302 49.26949 48.69626
# Shear Modulus (GPa) = 28.95414 31.62320 30.28867
#
# Velocity S-wave (km/s) = 3.84731 4.02073 3.93498
# Velocity P-wave (km/s) = 6.65860 6.83684 6.74831
#
# Compressibility (1/GPa) = 0.02078008
#
# Stress axis : x y z
#
# Youngs Moduli (GPa) = 83.33312 83.33370 116.47496
#
# Poissons Ratio (x) = 0.19443 0.20789
# Poissons Ratio (y) = 0.19443 0.20788
# Poissons Ratio (z) = 0.14873 0.14873
#
# Static dielectric constant tensor:
#      x y z
#    x 1.737410 0.000000 0.000000 
#    y 0.000000 1.737410 0.000000 
#    z 0.000000 0.000000 1.689310 
# 
# From -- ./inp_files/2124.got.cif
#   From: 2010.05.17/outbox.cif.g08.bks.cpg/sg188_2_cif.got.tgz:2124.got - 2010.05.20 12:11:46.
