data_PCOD9586597
_publ_section_title
;
Structure prediction by ZEFSAII (Michael W. Deem and Ramdas Pophale) SiO2 
 PCOD9586597
Probable space group: P -6 2 M
;
_chemical_formula_sum "Si O2"
_cell_formula_units_Z 48
_cell_length_a 18.000000
_cell_length_b 18.000000
_cell_length_c 9.000000
_cell_angle_alpha 90.000000
_cell_angle_beta 90.000000
_cell_angle_gamma 120.000000
_cell_volume 2525.330077
_symmetry_space_group_name_H-M "P -6 2 M"
_symmetry_group_IT_number 189
_symmetry_cell_setting 'hexagonal'
loop_
_space_group_symop_operation_xyz
x,y,z
-x+y,-x,-z
-y,x-y,z
x,y,-z
-x+y,-x,z
-y,x-y,-z
x-y,-y,-z
-x,-x+y,-z
y,x,-z
y,x,z
x-y,-y,z
-x,-x+y,z
loop_
_atom_site_type_symbol
_atom_site_label
_atom_site_fract_x
_atom_site_fract_y
_atom_site_fract_z
Si Si1 0.000000 0.374512 0.176445
Si Si2 0.723831 0.196968 0.323285
Si Si3 0.203010 0.000000 0.180153
Si Si4 0.388847 0.849261 0.323477
Si Si5 0.097776 0.809771 0.820331
O O1 0.080955 0.457757 0.238356
O O2 0.000000 0.289293 0.225606
O O3 0.000000 0.374196 0.000000
O O4 0.726149 0.182854 0.500000
O O5 0.762612 0.298584 0.302553
O O6 0.625669 0.153143 0.272861
O O7 0.777970 0.160375 0.242954
O O8 0.219727 0.092825 0.228185
O O9 0.198348 0.000000 0.000000
O O10 0.398103 0.867525 0.500000
O O11 0.000000 0.745826 0.775420
O O12 0.102711 0.809806 0.000000
#
# Coordination Sequence:
#
# PCOD9586597 Si02
#       5
#     6  12   6  12  12
#     4  11  21  35  57  81 110 147 186 230 279 331
#     4  10  21  37  58  81 112 149 187 230 276 327
#     4   9  18  37  59  81 110 143 182 230 283 335
#     4  10  21  37  56  81 111 147 190 231 274 329
#     4  10  21  38  59  83 113 147 185 233 285 337
#
# _framework density 19.007415999999999
#
# number of rings (size 3 to 8) (size 9 to 14) (size 15 to 20)
#    0.000    2.000    2.500    0.875    1.750    3.500 
#    0.750    0.625    0.000    3.000    0.000    0.000 
#    0.000    0.000    0.000    0.000    0.000    0.000 
#
# Total GULP energy -267598.616396 kJ/mol
# GULP energy per Si atom -5574.971175 kJ/mol
# Density = 1.896415 g / cm^3
# Si number density = 19.007416 Si / 1000 Ang^3
#
#
#
# Elastic Constant Matrix: (Units=GPa)
#
#
# Indices 1 2 3 4 5 6 
#
# 1 39.8877 47.3452 14.2588 0.0000 0.0000 0.0000
# 2 47.3452 39.8877 14.2588 0.0000 0.0000 0.0000
# 3 14.2588 14.2588 1.4375 0.0000 0.0000 0.0000
# 4 0.0000 0.0000 0.0000 24.2631 0.0000 0.0000
# 5 0.0000 0.0000 0.0000 0.0000 24.2631 0.0000
# 6 0.0000 0.0000 0.0000 0.0000 0.0000 -3.7287
#
#
#
# Elastic Compliance Matrix: (Units=1/GPa)
#
#
# Indices 1 2 3 4 5 6 
#
# 1 -0.069602 0.064491 0.050702 0.000000 0.000000 0.000000
# 2 0.064491 -0.069602 0.050702 0.000000 0.000000 0.000000
# 3 0.050702 0.050702 -0.310185 0.000000 0.000000 0.000000
# 4 0.000000 0.000000 0.000000 0.041215 0.000000 0.000000
# 5 0.000000 0.000000 0.000000 0.000000 0.041215 0.000000
# 6 0.000000 0.000000 0.000000 0.000000 0.000000 -0.268187
#
#
# Mechanical properties :
#
#
# Convention : Reuss Voigt Hill
#
# Bulk Modulus (GPa) = -8.50333 25.88204 8.68936
# Shear Modulus (GPa) = -4.96950 9.31616 2.17333
#
# Velocity S-wave (km/s) = -1.61870 2.21630 1.07046
# Velocity P-wave (km/s) = 2.82435 4.49396 2.47171
#
# Compressibility (1/GPa) = -0.11760102
#
# Stress axis : x y z
#
# Youngs Moduli (GPa) = -14.36731 -14.36731 -3.22388
#
# Poissons Ratio (x) = 0.92656 0.16346
# Poissons Ratio (y) = 0.92656 0.16346
# Poissons Ratio (z) = 0.72845 0.72845
#
# Static dielectric constant tensor:
#      x y z
#    x 1.748960 0.000000 0.000000 
#    y 0.000000 1.748960 0.000000 
#    z 0.000000 0.000000 1.636240 
# 
# From -- ./inp_files/626.got.cif
#   From: 2010.05.17/outbox.ucp.g08.bks.cvg/sg189_1_cif.got.tgz:626.got - 2010.06.11 15:22:13.
