data_PCOD9586349
_publ_section_title
;
Structure prediction by ZEFSAII (Michael W. Deem and Ramdas Pophale) SiO2 
 PCOD9586349
Probable space group: P -6 2 M
;
_chemical_formula_sum "Si O2"
_cell_formula_units_Z 84
_cell_length_a 18.708208
_cell_length_b 18.708208
_cell_length_c 15.418347
_cell_angle_alpha 90.000000
_cell_angle_beta 90.000000
_cell_angle_gamma 120.000000
_cell_volume 4673.398629
_symmetry_space_group_name_H-M "P -6 2 M"
_symmetry_group_IT_number 189
_symmetry_cell_setting 'hexagonal'
loop_
_space_group_symop_operation_xyz
x,y,z
-x+y,-x,-z
-y,x-y,z
x,y,-z
-x+y,-x,z
-y,x-y,-z
x-y,-y,-z
-x,-x+y,-z
y,x,-z
y,x,z
x-y,-y,z
-x,-x+y,z
loop_
_atom_site_type_symbol
_atom_site_label
_atom_site_fract_x
_atom_site_fract_y
_atom_site_fract_z
Si Si1 0.520215 0.342517 0.675785
Si Si2 0.097481 0.584350 0.148828
Si Si3 0.807401 0.327798 0.401355
Si Si4 0.671571 0.906392 0.289235
Si Si5 0.614662 0.851038 0.099469
Si Si6 0.417888 0.090249 0.101007
Si Si7 0.903222 0.232868 0.601616
O O1 0.543194 0.388021 0.767361
O O2 0.540793 0.269688 0.660539
O O3 0.576257 0.415050 0.609814
O O4 0.420943 0.298473 0.675160
O O5 0.129202 0.669215 0.097292
O O6 0.102590 0.508967 0.107426
O O7 0.000000 0.547620 0.169733
O O8 0.777981 0.302622 0.500000
O O9 0.875605 0.301426 0.383665
O O10 0.667240 0.900363 0.183971
O O11 0.692882 0.842183 0.333829
O O12 0.732549 0.000000 0.314349
O O13 0.586302 0.756909 0.127953
O O14 0.649015 0.866669 0.000000
O O15 0.355920 0.000000 0.142572
O O16 0.396782 0.083202 0.000000
O O17 0.884027 0.207434 0.500000
O O18 0.000000 0.273435 0.614632
#
# Coordination Sequence:
#
# PCOD9586349 Si02
#       7
#    12  12  12  12  12  12  12
#     4  10  20  32  50  75 105 144 184 227 263 323
#     4  10  21  34  52  75 104 143 185 231 281 323
#     4  10  20  34  51  73 106 146 182 223 273 322
#     4  10  22  38  56  84 113 142 182 230 280 329
#     4  10  20  35  54  78 108 147 189 231 275 329
#     4   9  19  35  52  74 106 143 183 227 275 322
#     4   9  20  38  59  83 109 141 181 224 277 338
#
# _framework density 17.974072
#
# number of rings (size 3 to 8) (size 9 to 14) (size 15 to 20)
#    0.000    2.286    0.000    2.857    6.000    4.286 
#    0.857    0.000    0.000    4.143    0.000    0.000 
#    0.000    0.000    0.000    0.000    0.000    0.000 
#
# Total GULP energy -467737.683019 kJ/mol
# GULP energy per Si atom -5568.305750 kJ/mol
# Density = 1.793316 g / cm^3
# Si number density = 17.974072 Si / 1000 Ang^3
#
#
#
# Elastic Constant Matrix: (Units=GPa)
#
#
# Indices 1 2 3 4 5 6 
#
# 1 74.1787 38.8039 40.0274 0.0000 0.0000 0.0000
# 2 38.8039 74.1787 40.0274 0.0000 0.0000 0.0000
# 3 40.0274 40.0274 64.2612 0.0000 0.0000 0.0000
# 4 0.0000 0.0000 0.0000 3.8639 0.0000 0.0000
# 5 0.0000 0.0000 0.0000 0.0000 3.8639 0.0000
# 6 0.0000 0.0000 0.0000 0.0000 0.0000 17.6874
#
#
#
# Elastic Compliance Matrix: (Units=1/GPa)
#
#
# Indices 1 2 3 4 5 6 
#
# 1 0.022056 -0.006213 -0.009869 0.000000 0.000000 0.000000
# 2 -0.006213 0.022056 -0.009869 0.000000 0.000000 0.000000
# 3 -0.009869 -0.009869 0.027856 0.000000 0.000000 0.000000
# 4 0.000000 0.000000 0.000000 0.258805 0.000000 0.000000
# 5 0.000000 0.000000 0.000000 0.000000 0.258805 0.000000
# 6 0.000000 0.000000 0.000000 0.000000 0.000000 0.056537
#
#
# Mechanical properties :
#
#
# Convention : Reuss Voigt Hill
#
# Bulk Modulus (GPa) = 49.83098 50.03734 49.93416
# Shear Modulus (GPa) = 7.09517 11.33370 9.21444
#
# Velocity S-wave (km/s) = 1.98897 2.51382 2.26664
# Velocity P-wave (km/s) = 5.74967 6.02700 5.88997
#
# Compressibility (1/GPa) = 0.02006784
#
# Stress axis : x y z
#
# Youngs Moduli (GPa) = 45.33895 45.33895 35.89936
#
# Poissons Ratio (x) = 0.28167 0.35428
# Poissons Ratio (y) = 0.28167 0.35428
# Poissons Ratio (z) = 0.44744 0.44744
#
# Static dielectric constant tensor:
#      x y z
#    x 1.620220 0.000000 0.000000 
#    y 0.000000 1.620220 0.000000 
#    z 0.000000 0.000000 1.676840 
# 
# From -- ./inp_files/2808.got.cif
#   From: 2010.05.17/outbox.cif.g08.bks.cpg/sg189_2_cif.got.tgz:2808.got - 2010.05.20 12:14:34.
