data_PCOD9586295
_publ_section_title
;
Structure prediction by ZEFSAII (Michael W. Deem and Ramdas Pophale) SiO2 
 PCOD9586295
Probable space group: P -6 2 M
;
_chemical_formula_sum "Si O2"
_cell_formula_units_Z 96
_cell_length_a 14.966179
_cell_length_b 14.966179
_cell_length_c 27.471848
_cell_angle_alpha 90.000000
_cell_angle_beta 90.000000
_cell_angle_gamma 120.000000
_cell_volume 5328.934436
_symmetry_space_group_name_H-M "P -6 2 M"
_symmetry_group_IT_number 189
_symmetry_cell_setting 'hexagonal'
loop_
_space_group_symop_operation_xyz
x,y,z
-x+y,-x,-z
-y,x-y,z
x,y,-z
-x+y,-x,z
-y,x-y,-z
x-y,-y,-z
-x,-x+y,-z
y,x,-z
y,x,z
x-y,-y,z
-x,-x+y,z
loop_
_atom_site_type_symbol
_atom_site_label
_atom_site_fract_x
_atom_site_fract_y
_atom_site_fract_z
Si Si1 0.121199 0.543035 0.699300
Si Si2 0.453696 0.182146 0.099920
Si Si3 0.881559 0.484517 0.943245
Si Si4 0.118116 0.235588 0.942561
Si Si5 0.121265 0.877362 0.442491
Si Si6 0.620486 0.877299 0.725133
Si Si7 0.120563 0.413800 0.207788
Si Si8 0.123976 0.377537 0.641024
O O1 0.160176 0.661929 0.709817
O O2 0.130466 0.492290 0.749495
O O3 0.158446 0.495763 0.655901
O O4 0.000000 0.495236 0.689301
O O5 0.506857 0.135542 0.065747
O O6 0.503643 0.303149 0.089065
O O7 0.333979 0.134637 0.087046
O O8 0.464392 0.155200 0.155201
O O9 0.000000 0.567314 0.931436
O O10 0.863796 0.497249 0.000000
O O11 0.194697 0.194697 0.927919
O O12 0.000000 0.145926 0.937718
O O13 0.136093 0.263565 0.000000
O O14 0.130907 0.862964 0.500000
O O15 0.193644 0.849279 0.410046
O O16 0.000000 0.810805 0.429460
O O17 0.164179 0.000000 0.434972
O O18 0.625451 0.822600 0.774359
O O19 0.661229 0.833649 0.682457
O O20 0.682866 0.000000 0.728872
O O21 0.000000 0.327137 0.206118
O O22 0.000000 0.315569 0.645255
#
# Coordination Sequence:
#
# PCOD9586295 Si02
#       8
#    12  12  12  12  12  12  12  12
#     4   8  17  34  52  72 102 135 175 226 268 317
#     4  12  24  39  60  81 111 146 178 220 274 331
#     4  11  24  41  60  83 110 141 179 221 267 328
#     4  10  20  36  59  85 110 139 178 222 268 321
#     4   9  16  26  45  76 114 154 196 240 285 336
#     4  10  19  33  56  79 104 140 182 228 275 329
#     4  10  22  39  56  79 112 140 172 216 271 330
#     4   9  17  32  51  75 110 147 185 231 282 333
#
# _framework density 18.014858
#
# number of rings (size 3 to 8) (size 9 to 14) (size 15 to 20)
#    0.000    2.125    0.000    4.625    1.750    4.000 
#    6.000    0.000    0.000    3.500    0.000    3.500 
#    0.000    0.000    0.000    0.000    0.000    0.000 
#
# Total GULP energy -535147.386077 kJ/mol
# GULP energy per Si atom -5574.451938 kJ/mol
# Density = 1.797386 g / cm^3
# Si number density = 18.014858 Si / 1000 Ang^3
#
#
#
# Elastic Constant Matrix: (Units=GPa)
#
#
# Indices 1 2 3 4 5 6 
#
# 1 68.5990 23.2472 23.7418 0.0000 0.0000 0.0000
# 2 23.2472 68.5990 23.7418 0.0000 0.0000 0.0000
# 3 23.7418 23.7418 55.4057 0.0000 0.0000 0.0000
# 4 0.0000 0.0000 0.0000 22.0215 0.0000 0.0000
# 5 0.0000 0.0000 0.0000 0.0000 22.0215 0.0000
# 6 0.0000 0.0000 0.0000 0.0000 0.0000 22.6759
#
#
#
# Elastic Compliance Matrix: (Units=1/GPa)
#
#
# Indices 1 2 3 4 5 6 
#
# 1 0.018018 -0.004032 -0.005993 0.000000 0.000000 0.000000
# 2 -0.004032 0.018018 -0.005993 0.000000 0.000000 0.000000
# 3 -0.005993 -0.005993 0.023185 0.000000 0.000000 0.000000
# 4 0.000000 0.000000 0.000000 0.045410 0.000000 0.000000
# 5 0.000000 0.000000 0.000000 0.000000 0.045410 0.000000
# 6 0.000000 0.000000 0.000000 0.000000 0.000000 0.044100
#
#
# Mechanical properties :
#
#
# Convention : Reuss Voigt Hill
#
# Bulk Modulus (GPa) = 36.78563 37.11839 36.95201
# Shear Modulus (GPa) = 21.25498 21.46864 21.36181
#
# Velocity S-wave (km/s) = 3.43863 3.45587 3.44726
# Velocity P-wave (km/s) = 6.01910 6.04757 6.03335
#
# Compressibility (1/GPa) = 0.02718453
#
# Stress axis : x y z
#
# Youngs Moduli (GPa) = 55.49997 55.49997 43.13136
#
# Poissons Ratio (x) = 0.22377 0.25850
# Poissons Ratio (y) = 0.22377 0.25850
# Poissons Ratio (z) = 0.33262 0.33262
#
# Static dielectric constant tensor:
#      x y z
#    x 1.635220 0.000000 0.000000 
#    y 0.000000 1.635220 0.000000 
#    z 0.000000 0.000000 1.612820 
# 
# From -- ./inp_files/3702.got.cif
#   From: 2010.05.17/outbox.cif.g08.bks.cpg/sg189_2_cif.got.tgz:3702.got - 2010.05.20 12:14:34.
