data_PCOD9586786
_publ_section_title
;
Structure prediction by ZEFSAII (Michael W. Deem and Ramdas Pophale) SiO2 
 PCOD9586786
Probable space group: P -6 2 C
;
_chemical_formula_sum "Si O2"
_cell_formula_units_Z 66
_cell_length_a 15.200214
_cell_length_b 15.200214
_cell_length_c 17.055101
_cell_angle_alpha 90.000000
_cell_angle_beta 90.000000
_cell_angle_gamma 120.000000
_cell_volume 3412.591714
_symmetry_space_group_name_H-M "P -6 2 C"
_symmetry_group_IT_number 190
_symmetry_cell_setting 'hexagonal'
loop_
_space_group_symop_operation_xyz
x,y,z
-x+y,-x,1/2-z
-y,x-y,z
x,y,1/2-z
-x+y,-x,z
-y,x-y,1/2-z
x-y,-y,-z
-x,-x+y,-z
y,x,-z
y,x,1/2+z
x-y,-y,1/2+z
-x,-x+y,1/2+z
loop_
_atom_site_type_symbol
_atom_site_label
_atom_site_fract_x
_atom_site_fract_y
_atom_site_fract_z
Si Si1 0.540956 0.630270 0.563212
Si Si2 0.607619 0.119516 0.836222
Si Si3 0.902333 0.561606 0.114367
Si Si4 0.073331 0.374836 0.340094
Si Si5 0.430767 0.239166 0.537222
Si Si6 0.534022 0.290223 0.250000
O O1 0.570762 0.570762 0.500000
O O2 0.434878 0.549605 0.597645
O O3 0.636286 0.675674 0.622731
O O4 0.525547 0.710770 0.516672
O O5 0.649770 0.162241 0.750000
O O6 0.493868 0.101308 0.839373
O O7 0.671849 0.185047 0.908967
O O8 0.612219 0.015189 0.848113
O O9 0.813409 0.537583 0.176148
O O10 0.893521 0.608177 0.031532
O O11 0.076058 0.345894 0.250000
O O12 0.151024 0.363415 0.398622
O O13 0.633273 0.406409 0.250000
#
# Coordination Sequence:
#
# PCOD9586786 Si02
#       6
#    12  12  12  12  12   6
#     4   9  19  33  49  68  93 132 168 211 269 317
#     4  10  20  35  52  68  98 140 172 208 271 328
#     4  11  19  35  48  68 100 135 170 217 277 319
#     4   9  19  36  52  68  95 134 176 213 266 320
#     4  11  19  30  50  72  92 119 175 219 254 307
#     4  10  22  32  44  70  98 126 182 232 266 294
#
# _framework density 19.340139000000001
#
# number of rings (size 3 to 8) (size 9 to 14) (size 15 to 20)
#    0.182    1.818    0.909    5.455    1.273    0.000 
#   10.364    0.000    0.000    0.000    0.000    0.000 
#    0.000    0.000    0.000  117.818    0.000  114.545 
#
# Total GULP energy -367464.973927 kJ/mol
# GULP energy per Si atom -5567.651120 kJ/mol
# Density = 1.929612 g / cm^3
# Si number density = 19.340139 Si / 1000 Ang^3
#
#
#
# Elastic Constant Matrix: (Units=GPa)
#
#
# Indices 1 2 3 4 5 6 
#
# 1 42.6878 10.0325 23.5564 0.0000 0.0000 0.0000
# 2 10.0325 42.6878 23.5564 0.0000 0.0000 0.0000
# 3 23.5564 23.5564 142.6221 0.0000 0.0000 0.0000
# 4 0.0000 0.0000 0.0000 19.0330 0.0000 0.0000
# 5 0.0000 0.0000 0.0000 0.0000 19.0330 0.0000
# 6 0.0000 0.0000 0.0000 0.0000 0.0000 16.3276
#
#
#
# Elastic Compliance Matrix: (Units=1/GPa)
#
#
# Indices 1 2 3 4 5 6 
#
# 1 0.026438 -0.004185 -0.003675 0.000000 0.000000 0.000000
# 2 -0.004185 0.026438 -0.003675 0.000000 0.000000 0.000000
# 3 -0.003675 -0.003675 0.008226 0.000000 0.000000 0.000000
# 4 0.000000 0.000000 0.000000 0.052540 0.000000 0.000000
# 5 0.000000 0.000000 0.000000 0.000000 0.052540 0.000000
# 6 0.000000 0.000000 0.000000 0.000000 0.000000 0.061246
#
#
# Mechanical properties :
#
#
# Convention : Reuss Voigt Hill
#
# Bulk Modulus (GPa) = 26.29564 38.03201 32.16383
# Shear Modulus (GPa) = 18.99869 22.26887 20.63378
#
# Velocity S-wave (km/s) = 3.13764 3.39696 3.26987
# Velocity P-wave (km/s) = 5.17226 5.92396 5.56083
#
# Compressibility (1/GPa) = 0.03802912
#
# Stress axis : x y z
#
# Youngs Moduli (GPa) = 37.82477 37.82477 121.57128
#
# Poissons Ratio (x) = 0.15831 0.44682
# Poissons Ratio (y) = 0.15831 0.44682
# Poissons Ratio (z) = 0.13902 0.13902
#
# Static dielectric constant tensor:
#      x y z
#    x 1.721170 0.000000 0.000000 
#    y 0.000000 1.721170 0.000000 
#    z 0.000000 0.000000 1.786260 
# 
# From -- ./inp_files/4336.got.cif
#   From: 2010.05.17/outbox.cif.g08.bks.cpg/sg190_3_cif.got.tgz:4336.got - 2010.05.20 12:16:56.
