data_PCOD9586024
_publ_section_title
;
Structure prediction by ZEFSAII (Michael W. Deem and Ramdas Pophale) SiO2 
 PCOD9586024
Probable space group: P -6 C 2
;
_chemical_formula_sum "Si O2"
_cell_formula_units_Z 42
_cell_length_a 9.909517
_cell_length_b 9.909517
_cell_length_c 20.985361
_cell_angle_alpha 90.000000
_cell_angle_beta 90.000000
_cell_angle_gamma 120.000000
_cell_volume 1784.645866
_symmetry_space_group_name_H-M "P -6 C 2"
_symmetry_group_IT_number 188
_symmetry_cell_setting 'hexagonal'
loop_
_space_group_symop_operation_xyz
x,y,z
-x+y,-x,1/2-z
-y,x-y,z
x,y,1/2-z
-x+y,-x,z
-y,x-y,1/2-z
-y,-x,-z
-x+y,y,-z
x,x-y,-z
-x+y,y,1/2+z
x,x-y,1/2+z
-y,-x,1/2+z
loop_
_atom_site_type_symbol
_atom_site_label
_atom_site_fract_x
_atom_site_fract_y
_atom_site_fract_z
Si Si1 0.146272 0.292543 0.500000
Si Si2 0.344674 0.079061 0.179893
Si Si3 0.061342 0.771705 0.128535
Si Si4 0.967705 0.448267 0.434227
O O1 0.165881 0.203738 0.440240
O O2 0.310462 0.399421 0.535968
O O3 0.411685 0.091363 0.250000
O O4 0.263170 0.182531 0.174079
O O5 0.460751 0.132953 0.120228
O O6 0.216760 0.900133 0.163401
O O7 0.051603 0.612375 0.103691
O O8 0.882504 0.441252 0.500000
#
# Coordination Sequence:
#
# PCOD9586024 Si02
#       4
#     6  12  12  12
#     4   8  18  38  66  96 122 158 204 264 330 378
#     4  11  23  39  63  92 127 170 209 261 327 386
#     4  10  21  40  62  93 125 164 211 265 319 389
#     4   9  20  40  62  92 123 164 209 264 318 383
#
# _framework density 23.534079999999999
#
# number of rings (size 3 to 8) (size 9 to 14) (size 15 to 20)
#    0.000    2.286    0.000    1.429    0.000   12.571 
#   70.286    2.857    0.000    0.000    0.000    0.000 
#    0.000    0.000    0.000    0.000    0.000    0.000 
#
# Total GULP energy -234061.451669 kJ/mol
# GULP energy per Si atom -5572.891706 kJ/mol
# Density = 2.348051 g / cm^3
# Si number density = 23.534080 Si / 1000 Ang^3
#
#
#
# Elastic Constant Matrix: (Units=GPa)
#
#
# Indices 1 2 3 4 5 6 
#
# 1 56.8199 8.8062 23.3566 0.0000 0.0000 0.0000
# 2 8.8062 56.8199 23.3566 0.0000 0.0000 0.0000
# 3 23.3566 23.3566 203.8438 0.0000 0.0000 0.0000
# 4 0.0000 0.0000 0.0000 17.9995 0.0000 0.0000
# 5 0.0000 0.0000 0.0000 0.0000 17.9995 0.0000
# 6 0.0000 0.0000 0.0000 0.0000 0.0000 24.0068
#
#
#
# Elastic Compliance Matrix: (Units=1/GPa)
#
#
# Indices 1 2 3 4 5 6 
#
# 1 0.018709 -0.002118 -0.001901 0.000000 0.000000 0.000000
# 2 -0.002118 0.018709 -0.001901 0.000000 0.000000 0.000000
# 3 -0.001901 -0.001901 0.005341 0.000000 0.000000 0.000000
# 4 0.000000 0.000000 0.000000 0.055557 0.000000 0.000000
# 5 0.000000 0.000000 0.000000 0.000000 0.055557 0.000000
# 6 0.000000 0.000000 0.000000 0.000000 0.000000 0.041655
#
#
# Mechanical properties :
#
#
# Convention : Reuss Voigt Hill
#
# Bulk Modulus (GPa) = 32.34225 47.61359 39.97792
# Shear Modulus (GPa) = 22.96993 29.46543 26.21768
#
# Velocity S-wave (km/s) = 3.12753 3.54225 3.34133
# Velocity P-wave (km/s) = 5.17827 6.08323 5.64890
#
# Compressibility (1/GPa) = 0.03091930
#
# Stress axis : x y z
#
# Youngs Moduli (GPa) = 53.44964 53.44964 187.21850
#
# Poissons Ratio (x) = 0.11322 0.35590
# Poissons Ratio (y) = 0.11322 0.35590
# Poissons Ratio (z) = 0.10161 0.10161
#
# Static dielectric constant tensor:
#      x y z
#    x 1.986550 0.000000 0.000000 
#    y 0.000000 1.986550 0.000000 
#    z 0.000000 0.000000 1.928830 
# 
# From -- ./inp_files/2915.got.cif
#   From: 2010.05.17/outbox.cif.g08.bks.cpg/sg188_2_cif.got.tgz:2915.got - 2010.05.20 12:11:46.
