data_PCOD9586664
_publ_section_title
;
Structure prediction by ZEFSAII (Michael W. Deem and Ramdas Pophale) SiO2 
 PCOD9586664
Probable space group: P -6 2 C
;
_chemical_formula_sum "Si O2"
_cell_formula_units_Z 72
_cell_length_a 24.631207
_cell_length_b 24.631207
_cell_length_c 8.450454
_cell_angle_alpha 90.000000
_cell_angle_beta 90.000000
_cell_angle_gamma 120.000000
_cell_volume 4439.990714
_symmetry_space_group_name_H-M "P -6 2 C"
_symmetry_group_IT_number 190
_symmetry_cell_setting 'hexagonal'
loop_
_space_group_symop_operation_xyz
x,y,z
-x+y,-x,1/2-z
-y,x-y,z
x,y,1/2-z
-x+y,-x,z
-y,x-y,1/2-z
x-y,-y,-z
-x,-x+y,-z
y,x,-z
y,x,1/2+z
x-y,-y,1/2+z
-x,-x+y,1/2+z
loop_
_atom_site_type_symbol
_atom_site_label
_atom_site_fract_x
_atom_site_fract_y
_atom_site_fract_z
Si Si1 0.070188 0.139236 0.060568
Si Si2 0.070123 0.262130 0.058754
Si Si3 0.524597 0.264253 0.557525
Si Si4 0.930242 0.403112 0.438130
Si Si5 0.858346 0.261760 0.941532
Si Si6 0.593779 0.188338 0.558320
O O1 0.069214 0.137699 0.250000
O O2 0.085938 0.208614 0.007510
O O3 0.117373 0.117373 0.000000
O O4 0.000000 0.091901 0.000000
O O5 0.069543 0.262227 0.250000
O O6 0.116820 0.332672 0.004169
O O7 0.000000 0.239221 0.000000
O O8 0.524577 0.266019 0.750000
O O9 0.455125 0.211568 0.505974
O O10 0.569995 0.236877 0.513217
O O11 0.550540 0.335039 0.503169
O O12 0.930986 0.401199 0.250000
O O13 0.904685 0.332750 0.503472
O O14 0.879314 0.421949 0.494236
O O15 0.000000 0.448498 0.500000
O O16 0.858499 0.262266 0.750000
O O17 0.592219 0.184975 0.750000
#
# Coordination Sequence:
#
# PCOD9586664 Si02
#       6
#    12  12  12  12  12  12
#     4  10  19  31  46  66  90 118 148 182 221 265
#     4   9  18  30  46  67  92 119 150 184 222 265
#     4   8  14  25  46  70  92 118 151 184 217 261
#     4  11  21  32  46  67  93 123 155 192 233 274
#     4   9  17  31  49  71  95 121 151 185 224 273
#     4   9  16  29  48  71  95 123 155 187 223 270
#
# _framework density 16.216251
#
# number of rings (size 3 to 8) (size 9 to 14) (size 15 to 20)
#    0.000    2.667    0.000    4.000    0.000    4.000 
#    0.000    3.333    0.000    1.000    0.000    2.333 
#    0.000    0.000    0.000    0.000    0.000    0.000 
#
# Total GULP energy -401355.837536 kJ/mol
# GULP energy per Si atom -5574.386632 kJ/mol
# Density = 1.617934 g / cm^3
# Si number density = 16.216251 Si / 1000 Ang^3
#
#
#
# Elastic Constant Matrix: (Units=GPa)
#
#
# Indices 1 2 3 4 5 6 
#
# 1 140.5406 94.9129 20.4717 0.0000 0.0000 0.0000
# 2 94.9129 140.5406 20.4717 0.0000 0.0000 0.0000
# 3 20.4717 20.4717 21.3751 0.0000 0.0000 0.0000
# 4 0.0000 0.0000 0.0000 16.0849 0.0000 0.0000
# 5 0.0000 0.0000 0.0000 0.0000 16.0849 0.0000
# 6 0.0000 0.0000 0.0000 0.0000 0.0000 22.8139
#
#
#
# Elastic Compliance Matrix: (Units=1/GPa)
#
#
# Indices 1 2 3 4 5 6 
#
# 1 0.013506 -0.008410 -0.004880 0.000000 0.000000 0.000000
# 2 -0.008410 0.013506 -0.004880 0.000000 0.000000 0.000000
# 3 -0.004880 -0.004880 0.056132 0.000000 0.000000 0.000000
# 4 0.000000 0.000000 0.000000 0.062170 0.000000 0.000000
# 5 0.000000 0.000000 0.000000 0.000000 0.062170 0.000000
# 6 0.000000 0.000000 0.000000 0.000000 0.000000 0.043833
#
#
# Mechanical properties :
#
#
# Convention : Reuss Voigt Hill
#
# Bulk Modulus (GPa) = 21.36681 63.79656 42.58168
# Shear Modulus (GPa) = 16.48751 22.10341 19.29546
#
# Velocity S-wave (km/s) = 3.19208 3.69594 3.45321
# Velocity P-wave (km/s) = 5.17596 7.59209 6.49732
#
# Compressibility (1/GPa) = 0.04680156
#
# Stress axis : x y z
#
# Youngs Moduli (GPa) = 74.04034 74.04034 17.81525
#
# Poissons Ratio (x) = 0.62271 0.08695
# Poissons Ratio (y) = 0.62271 0.08695
# Poissons Ratio (z) = 0.36135 0.36135
#
# Static dielectric constant tensor:
#      x y z
#    x 1.539190 0.000000 0.000000 
#    y 0.000000 1.539190 0.000000 
#    z 0.000000 0.000000 1.553410 
# 
# From -- ./inp_files/1194.got.cif
#   From: 2010.05.17/outbox.cif.g08.bks.cpg/sg190_1_cif.got.tgz:1194.got - 2010.05.20 12:16:56.
