data_PCOD9586976
_publ_section_title
;
Structure prediction by ZEFSAII (Michael W. Deem and Ramdas Pophale) SiO2 
 PCOD9586976
Probable space group: P -6 2 C
;
_chemical_formula_sum "Si O2"
_cell_formula_units_Z 72
_cell_length_a 14.917526
_cell_length_b 14.917526
_cell_length_c 18.437199
_cell_angle_alpha 90.000000
_cell_angle_beta 90.000000
_cell_angle_gamma 120.000000
_cell_volume 3553.196142
_symmetry_space_group_name_H-M "P -6 2 C"
_symmetry_group_IT_number 190
_symmetry_cell_setting 'hexagonal'
loop_
_space_group_symop_operation_xyz
x,y,z
-x+y,-x,1/2-z
-y,x-y,z
x,y,1/2-z
-x+y,-x,z
-y,x-y,1/2-z
x-y,-y,-z
-x,-x+y,-z
y,x,-z
y,x,1/2+z
x-y,-y,1/2+z
-x,-x+y,1/2+z
loop_
_atom_site_type_symbol
_atom_site_label
_atom_site_fract_x
_atom_site_fract_y
_atom_site_fract_z
Si Si1 0.490678 0.080351 0.569257
Si Si2 0.878196 0.107679 0.581868
Si Si3 0.820245 0.552800 0.386349
Si Si4 0.728574 0.175244 0.943504
Si Si5 0.878723 0.775280 0.405800
Si Si6 0.399527 0.889189 0.833536
O O1 0.468024 0.174897 0.560212
O O2 0.613901 0.138801 0.583996
O O3 0.452898 0.000000 0.500000
O O4 0.430094 0.000402 0.633726
O O5 0.775129 0.112013 0.596830
O O6 0.887519 0.123928 0.494081
O O7 0.987154 0.192981 0.613333
O O8 0.861847 0.997275 0.604743
O O9 0.848185 0.556118 0.470851
O O10 0.856913 0.670843 0.367498
O O11 0.870412 0.496105 0.343990
O O12 0.696490 0.493520 0.376434
O O13 0.370134 0.880167 0.750000
#
# Coordination Sequence:
#
# PCOD9586976 Si02
#       6
#    12  12  12  12  12  12
#     4  12  23  40  63  91 125 161 208 265 316 377
#     4   9  17  27  47  79 117 150 183 232 295 349
#     4  11  20  36  58  86 124 154 200 255 308 369
#     4  11  21  35  61  91 117 151 204 259 308 354
#     4   9  17  28  48  76 115 152 185 234 289 346
#     4  12  25  40  60  91 130 171 206 251 322 395
#
# _framework density 20.263445999999998
#
# number of rings (size 3 to 8) (size 9 to 14) (size 15 to 20)
#    0.000    1.333    3.333    3.500    4.667    1.333 
#    0.000    0.833    0.000    0.000    0.000    3.500 
#    0.000    0.000    0.000    0.000    0.000    0.000 
#
# Total GULP energy -401527.420466 kJ/mol
# GULP energy per Si atom -5576.769729 kJ/mol
# Density = 2.021733 g / cm^3
# Si number density = 20.263446 Si / 1000 Ang^3
#
#
#
# Elastic Constant Matrix: (Units=GPa)
#
#
# Indices 1 2 3 4 5 6 
#
# 1 73.9964 6.5207 -0.1026 0.0000 0.0000 0.0000
# 2 6.5207 73.9964 -0.1026 0.0000 0.0000 0.0000
# 3 -0.1026 -0.1026 18.4631 0.0000 0.0000 0.0000
# 4 0.0000 0.0000 0.0000 0.9222 0.0000 0.0000
# 5 0.0000 0.0000 0.0000 0.0000 0.9222 0.0000
# 6 0.0000 0.0000 0.0000 0.0000 0.0000 33.7379
#
#
#
# Elastic Compliance Matrix: (Units=1/GPa)
#
#
# Indices 1 2 3 4 5 6 
#
# 1 0.013620 -0.001200 0.000069 0.000000 0.000000 0.000000
# 2 -0.001200 0.013620 0.000069 0.000000 0.000000 0.000000
# 3 0.000069 0.000069 0.054163 0.000000 0.000000 0.000000
# 4 0.000000 0.000000 0.000000 1.084394 0.000000 0.000000
# 5 0.000000 0.000000 0.000000 0.000000 1.084394 0.000000
# 6 0.000000 0.000000 0.000000 0.000000 0.000000 0.029640
#
#
# Mechanical properties :
#
#
# Convention : Reuss Voigt Hill
#
# Bulk Modulus (GPa) = 12.61371 19.89855 16.25613
# Shear Modulus (GPa) = 2.16602 17.79246 9.97924
#
# Velocity S-wave (km/s) = 1.03501 2.96642 2.22159
# Velocity P-wave (km/s) = 2.76888 4.64479 3.82366
#
# Compressibility (1/GPa) = 0.07927879
#
# Stress axis : x y z
#
# Youngs Moduli (GPa) = 73.42132 73.42132 18.46281
#
# Poissons Ratio (x) = 0.08811 -0.00127
# Poissons Ratio (y) = 0.08811 -0.00127
# Poissons Ratio (z) = -0.00507 -0.00507
#
# Static dielectric constant tensor:
#      x y z
#    x 1.753320 0.000000 0.000000 
#    y 0.000000 1.753320 0.000000 
#    z 0.000000 0.000000 1.691940 
# 
# From -- ./inp_files/3771.got.cif
#   From: 2010.05.17/outbox.cif.g08.bks.cpg/sg190_2_cif.got.tgz:3771.got - 2010.05.20 12:16:56.
