data_PCOD9586138
_publ_section_title
;
Structure prediction by ZEFSAII (Michael W. Deem and Ramdas Pophale) SiO2 
 PCOD9586138
Probable space group: P -6 2 M
;
_chemical_formula_sum "Si O2"
_cell_formula_units_Z 60
_cell_length_a 20.871512
_cell_length_b 20.871512
_cell_length_c 7.374922
_cell_angle_alpha 90.000000
_cell_angle_beta 90.000000
_cell_angle_gamma 120.000000
_cell_volume 2782.248308
_symmetry_space_group_name_H-M "P -6 2 M"
_symmetry_group_IT_number 189
_symmetry_cell_setting 'hexagonal'
loop_
_space_group_symop_operation_xyz
x,y,z
-x+y,-x,-z
-y,x-y,z
x,y,-z
-x+y,-x,z
-y,x-y,-z
x-y,-y,-z
-x,-x+y,-z
y,x,-z
y,x,z
x-y,-y,z
-x,-x+y,z
loop_
_atom_site_type_symbol
_atom_site_label
_atom_site_fract_x
_atom_site_fract_y
_atom_site_fract_z
Si Si1 0.166757 0.083520 0.715999
Si Si2 0.184672 0.851499 0.216856
Si Si3 0.328054 0.000000 0.221215
Si Si4 0.476481 0.000000 0.779465
Si Si5 0.245493 0.749136 0.221421
Si Si6 0.419905 0.583532 0.778646
O O1 0.156973 0.077192 0.500000
O O2 0.117058 0.117058 0.787071
O O3 0.253630 0.139130 0.745570
O O4 0.138443 0.000000 0.785592
O O5 0.255602 0.926762 0.283882
O O6 0.194930 0.783804 0.280636
O O7 0.190256 0.851073 0.000000
O O8 0.401914 0.000000 0.273242
O O9 0.326811 0.000000 0.000000
O O10 0.544202 0.078377 0.720406
O O11 0.478887 0.000000 0.000000
O O12 0.212718 0.664773 0.279677
O O13 0.330886 0.800871 0.277169
O O14 0.245862 0.748638 0.000000
O O15 0.420497 0.584286 0.000000
#
# Coordination Sequence:
#
# PCOD9586138 Si02
#       6
#    12  12   6   6  12  12
#     4  10  21  37  55  73  94 123 159 197 238 288
#     4  10  18  30  49  73  99 125 157 199 243 286
#     4   9  14  24  43  65  91 120 149 188 240 289
#     4   9  14  22  36  53  81 122 157 182 224 283
#     4   9  16  25  39  62  94 128 161 197 237 280
#     4   9  15  23  35  54  84 122 157 189 228 274
#
# _framework density 21.565293
#
# number of rings (size 3 to 8) (size 9 to 14) (size 15 to 20)
#    0.000    2.600    3.000    0.600    0.000    2.800 
#    1.800    0.000    0.000    1.200    0.000    1.400 
#    0.000    3.200    0.000    0.000    0.000    0.000 
#
# Total GULP energy -334921.240859 kJ/mol
# GULP energy per Si atom -5582.020681 kJ/mol
# Density = 2.151621 g / cm^3
# Si number density = 21.565293 Si / 1000 Ang^3
#
#
#
# Elastic Constant Matrix: (Units=GPa)
#
#
# Indices 1 2 3 4 5 6 
#
# 1 138.9116 62.8963 1.7334 0.0000 0.0000 0.0000
# 2 62.8963 138.9116 1.7334 0.0000 0.0000 0.0000
# 3 1.7334 1.7334 75.6194 0.0000 0.0000 0.0000
# 4 0.0000 0.0000 0.0000 10.3722 0.0000 0.0000
# 5 0.0000 0.0000 0.0000 0.0000 10.3722 0.0000
# 6 0.0000 0.0000 0.0000 0.0000 0.0000 38.0076
#
#
#
# Elastic Compliance Matrix: (Units=1/GPa)
#
#
# Indices 1 2 3 4 5 6 
#
# 1 0.009056 -0.004099 -0.000114 0.000000 0.000000 0.000000
# 2 -0.004099 0.009056 -0.000114 0.000000 0.000000 0.000000
# 3 -0.000114 -0.000114 0.013229 0.000000 0.000000 0.000000
# 4 0.000000 0.000000 0.000000 0.096412 0.000000 0.000000
# 5 0.000000 0.000000 0.000000 0.000000 0.096412 0.000000
# 6 0.000000 0.000000 0.000000 0.000000 0.000000 0.026311
#
#
# Mechanical properties :
#
#
# Convention : Reuss Voigt Hill
#
# Bulk Modulus (GPa) = 44.07400 54.01877 49.04639
# Shear Modulus (GPa) = 18.74828 30.88902 24.81865
#
# Velocity S-wave (km/s) = 2.95171 3.78874 3.39611
# Velocity P-wave (km/s) = 5.66557 6.65152 6.17824
#
# Compressibility (1/GPa) = 0.02268911
#
# Stress axis : x y z
#
# Youngs Moduli (GPa) = 110.42149 110.42149 75.58962
#
# Poissons Ratio (x) = 0.45262 0.00859
# Poissons Ratio (y) = 0.45262 0.00859
# Poissons Ratio (z) = 0.01255 0.01255
#
# Static dielectric constant tensor:
#      x y z
#    x 1.752270 0.000000 0.000000 
#    y 0.000000 1.752270 0.000000 
#    z 0.000000 0.000000 1.850970 
# 
# From -- ./inp_files/936.got.cif
#   From: 2010.05.17/outbox.cif.g08.bks.cpg/sg189_1_cif.got.tgz:936.got - 2010.05.20 12:14:34.
