data_PCOD9586464
_publ_section_title
;
Structure prediction by ZEFSAII (Michael W. Deem and Ramdas Pophale) SiO2 
 PCOD9586464
Probable space group: P -6 2 M
;
_chemical_formula_sum "Si O2"
_cell_formula_units_Z 72
_cell_length_a 14.818016
_cell_length_b 14.818016
_cell_length_c 18.932430
_cell_angle_alpha 90.000000
_cell_angle_beta 90.000000
_cell_angle_gamma 120.000000
_cell_volume 3600.121104
_symmetry_space_group_name_H-M "P -6 2 M"
_symmetry_group_IT_number 189
_symmetry_cell_setting 'hexagonal'
loop_
_space_group_symop_operation_xyz
x,y,z
-x+y,-x,-z
-y,x-y,z
x,y,-z
-x+y,-x,z
-y,x-y,-z
x-y,-y,-z
-x,-x+y,-z
y,x,-z
y,x,z
x-y,-y,z
-x,-x+y,z
loop_
_atom_site_type_symbol
_atom_site_label
_atom_site_fract_x
_atom_site_fract_y
_atom_site_fract_z
Si Si1 0.559025 0.873984 0.920030
Si Si2 0.522338 0.400617 0.637120
Si Si3 0.827192 0.254869 0.418372
Si Si4 0.123325 0.349626 0.173428
Si Si5 0.879912 0.119824 0.314352
Si Si6 0.432200 0.874461 0.207432
O O1 0.630798 0.828506 0.892550
O O2 0.467727 0.839377 0.862188
O O3 0.625108 0.000000 0.918746
O O4 0.522141 0.841304 0.000000
O O5 0.433901 0.433901 0.635927
O O6 0.489014 0.297490 0.592787
O O7 0.627942 0.497354 0.607819
O O8 0.545084 0.383278 0.718238
O O9 0.853478 0.254259 0.500000
O O10 0.869598 0.196149 0.369405
O O11 0.147034 0.293163 0.237175
O O12 0.146296 0.462173 0.201044
O O13 0.000000 0.283064 0.157429
O O14 0.000000 0.149631 0.312452
O O15 0.805029 0.000000 0.332413
O O16 0.503338 0.000000 0.209986
#
# Coordination Sequence:
#
# PCOD9586464 Si02
#       6
#    12  12  12  12  12  12
#     4  10  21  37  58  88 126 162 197 244 305 371
#     4  11  23  42  64  87 120 161 204 255 310 367
#     4  12  25  40  62  92 124 161 206 258 324 394
#     4  10  20  38  63  89 118 157 210 259 305 364
#     4  11  23  41  64  92 126 168 218 270 320 377
#     4   9  19  37  60  84 112 153 198 243 297 357
#
# _framework density 19.999327999999998
#
# number of rings (size 3 to 8) (size 9 to 14) (size 15 to 20)
#    0.000    1.500    1.667    3.500    0.000    5.667 
#    1.000    1.667    0.000    1.333    0.000    0.000 
#    0.000    0.000    0.000    0.000    0.000    0.000 
#
# Total GULP energy -402571.217433 kJ/mol
# GULP energy per Si atom -5591.266909 kJ/mol
# Density = 1.995381 g / cm^3
# Si number density = 19.999328 Si / 1000 Ang^3
#
#
#
# Elastic Constant Matrix: (Units=GPa)
#
#
# Indices 1 2 3 4 5 6 
#
# 1 57.4665 6.9338 6.4139 0.0000 0.0000 0.0000
# 2 6.9338 57.4665 6.4139 0.0000 0.0000 0.0000
# 3 6.4139 6.4139 85.7271 0.0000 0.0000 0.0000
# 4 0.0000 0.0000 0.0000 14.1552 0.0000 0.0000
# 5 0.0000 0.0000 0.0000 0.0000 14.1552 0.0000
# 6 0.0000 0.0000 0.0000 0.0000 0.0000 25.2663
#
#
#
# Elastic Compliance Matrix: (Units=1/GPa)
#
#
# Indices 1 2 3 4 5 6 
#
# 1 0.017776 -0.002013 -0.001179 0.000000 0.000000 0.000000
# 2 -0.002013 0.017776 -0.001179 0.000000 0.000000 0.000000
# 3 -0.001179 -0.001179 0.011841 0.000000 0.000000 0.000000
# 4 0.000000 0.000000 0.000000 0.070645 0.000000 0.000000
# 5 0.000000 0.000000 0.000000 0.000000 0.070645 0.000000
# 6 0.000000 0.000000 0.000000 0.000000 0.000000 0.039578
#
#
# Mechanical properties :
#
#
# Convention : Reuss Voigt Hill
#
# Bulk Modulus (GPa) = 25.87345 26.68702 26.28024
# Shear Modulus (GPa) = 20.00885 22.77525 21.39205
#
# Velocity S-wave (km/s) = 3.16646 3.37827 3.27408
# Velocity P-wave (km/s) = 5.13166 5.34695 5.24041
#
# Compressibility (1/GPa) = 0.03864965
#
# Stress axis : x y z
#
# Youngs Moduli (GPa) = 56.25568 56.25568 84.44954
#
# Poissons Ratio (x) = 0.11325 0.09959
# Poissons Ratio (y) = 0.11325 0.09959
# Poissons Ratio (z) = 0.06634 0.06634
#
# Static dielectric constant tensor:
#      x y z
#    x 1.700750 0.000000 0.000000 
#    y 0.000000 1.700750 0.000000 
#    z 0.000000 0.000000 1.680770 
# 
# From -- ./inp_files/3092.got.cif
#   From: 2010.05.17/outbox.cif.g08.bks.cpg/sg189_2_cif.got.tgz:3092.got - 2010.05.20 12:14:34.
