data_PCOD9586989
_publ_section_title
;
Structure prediction by ZEFSAII (Michael W. Deem and Ramdas Pophale) SiO2 
 PCOD9586989
Probable space group: P -6 2 C
;
_chemical_formula_sum "Si O2"
_cell_formula_units_Z 68
_cell_length_a 12.472837
_cell_length_b 12.472837
_cell_length_c 23.493735
_cell_angle_alpha 90.000000
_cell_angle_beta 90.000000
_cell_angle_gamma 120.000000
_cell_volume 3165.287708
_symmetry_space_group_name_H-M "P -6 2 C"
_symmetry_group_IT_number 190
_symmetry_cell_setting 'hexagonal'
loop_
_space_group_symop_operation_xyz
x,y,z
-x+y,-x,1/2-z
-y,x-y,z
x,y,1/2-z
-x+y,-x,z
-y,x-y,1/2-z
x-y,-y,-z
-x,-x+y,-z
y,x,-z
y,x,1/2+z
x-y,-y,1/2+z
-x,-x+y,1/2+z
loop_
_atom_site_type_symbol
_atom_site_label
_atom_site_fract_x
_atom_site_fract_y
_atom_site_fract_z
Si Si1 0.738650 0.973950 0.250000
Si Si2 0.877440 0.150704 0.930102
Si Si3 0.000000 0.000000 0.931506
Si Si4 0.280423 0.032180 0.250000
Si Si5 0.529471 0.614771 0.643848
Si Si6 0.333334 0.666667 0.684063
Si Si7 0.033368 0.649847 0.368554
Si Si8 0.651622 0.812234 0.938126
O O1 0.739711 0.843728 0.250000
O O2 0.871658 0.100326 0.250000
O O3 0.668259 0.980952 0.194576
O O4 0.018408 0.252777 0.919164
O O5 0.894235 0.031826 0.915847
O O6 0.772455 0.151971 0.892816
O O7 0.843568 0.158485 0.995524
O O8 0.000000 0.000000 0.000000
O O9 0.368337 0.057649 0.306352
O O10 0.397366 0.588063 0.667482
O O11 0.509577 0.480062 0.630267
O O12 0.535284 0.688812 0.586159
O O13 0.333334 0.666668 0.750000
O O14 0.923890 0.643351 0.408731
#
# Coordination Sequence:
#
# PCOD9586989 Si02
#       8
#     6  12   4   6  12   4  12  12
#     4  12  26  42  70 108 140 176 224 281 387 417
#     4  11  23  40  65 100 144 186 225 286 362 432
#     4  12  15  33  69  97 128 181 225 258 340 446
#     4  12  24  46  66 106 148 182 220 305 359 457
#     4  12  24  42  68 101 137 184 248 287 358 413
#     4  12  21  39  69  87 135 186 243 292 335 424
#     4  12  24  42  68 102 142 186 229 296 355 437
#     4  11  22  40  65  99 132 187 240 289 348 421
#
# _framework density 21.483038000000001
#
# number of rings (size 3 to 8) (size 9 to 14) (size 15 to 20)
#    0.000    0.353    7.941    2.294    0.000    0.000 
#    6.353    0.000    0.000    9.882    0.000    0.000 
#    0.000    0.000    0.000    0.000    0.000    0.000 
#
# Total GULP energy -378655.629011 kJ/mol
# GULP energy per Si atom -5568.465133 kJ/mol
# Density = 2.143414 g / cm^3
# Si number density = 21.483038 Si / 1000 Ang^3
#
#
#
# Elastic Constant Matrix: (Units=GPa)
#
#
# Indices 1 2 3 4 5 6 
#
# 1 177.6321 -101.9469 14.9080 -0.0024 -0.0025 0.0237
# 2 -101.9469 177.6500 14.9015 0.0024 0.0026 -0.0203
# 3 14.9080 14.9015 91.7914 0.0000 0.0000 0.0008
# 4 -0.0024 0.0024 0.0000 18.0232 0.0000 -0.0026
# 5 -0.0025 0.0026 0.0000 0.0000 18.0228 0.0024
# 6 0.0237 -0.0203 0.0008 -0.0026 0.0024 139.9656
#
#
#
# Elastic Compliance Matrix: (Units=1/GPa)
#
#
# Indices 1 2 3 4 5 6 
#
# 1 0.008846 0.005268 -0.002292 0.000000 0.000000 -0.000001
# 2 0.005268 0.008845 -0.002292 0.000000 -0.000001 0.000000
# 3 -0.002292 -0.002292 0.011639 0.000000 0.000000 0.000000
# 4 0.000000 0.000000 0.000000 0.055484 0.000000 0.000001
# 5 0.000000 -0.000001 0.000000 0.000000 0.055485 -0.000001
# 6 -0.000001 0.000000 0.000000 0.000001 -0.000001 0.007145
#
#
# Mechanical properties :
#
#
# Convention : Reuss Voigt Hill
#
# Bulk Modulus (GPa) = 32.57458 33.64432 33.10945
# Shear Modulus (GPa) = 31.98863 69.81638 50.90251
#
# Velocity S-wave (km/s) = 3.86297 5.70692 4.87296
# Velocity P-wave (km/s) = 5.92389 7.68896 6.86340
#
# Compressibility (1/GPa) = 0.03069879
#
# Stress axis : x y z
#
# Youngs Moduli (GPa) = 113.05011 113.06302 85.92168
#
# Poissons Ratio (x) = -0.59567 0.19693
# Poissons Ratio (y) = -0.59560 0.19689
# Poissons Ratio (z) = 0.25910 0.25908
#
# Static dielectric constant tensor:
#      x y z
#    x -0.182150 0.001030 -0.000020 
#    y 0.001030 -0.183610 0.000010 
#    z -0.000020 0.000010 1.819110 
# 
# From -- ./inp_files/5169.got.cif
#   From: 2010.05.17/outbox.cif.g08.bks.cpg/sg190_3_cif.got.tgz:5169.got - 2010.05.20 12:16:56.
