data_PCOD9586988
_publ_section_title
;
Structure prediction by ZEFSAII (Michael W. Deem and Ramdas Pophale) SiO2 
 PCOD9586988
Probable space group: P -6 2 C
;
_chemical_formula_sum "Si O2"
_cell_formula_units_Z 84
_cell_length_a 17.446651
_cell_length_b 17.446651
_cell_length_c 14.269910
_cell_angle_alpha 90.000000
_cell_angle_beta 90.000000
_cell_angle_gamma 120.000000
_cell_volume 3761.629459
_symmetry_space_group_name_H-M "P -6 2 C"
_symmetry_group_IT_number 190
_symmetry_cell_setting 'hexagonal'
loop_
_space_group_symop_operation_xyz
x,y,z
-x+y,-x,1/2-z
-y,x-y,z
x,y,1/2-z
-x+y,-x,z
-y,x-y,1/2-z
x-y,-y,-z
-x,-x+y,-z
y,x,-z
y,x,1/2+z
x-y,-y,1/2+z
-x,-x+y,1/2+z
loop_
_atom_site_type_symbol
_atom_site_label
_atom_site_fract_x
_atom_site_fract_y
_atom_site_fract_z
Si Si1 0.706166 0.800441 0.103038
Si Si2 0.728788 0.830064 0.618369
Si Si3 0.757435 0.009248 0.886643
Si Si4 0.556343 0.952290 0.854539
Si Si5 0.759128 0.236343 0.357243
Si Si6 0.383891 0.524715 0.138033
Si Si7 0.797721 0.288084 0.938841
O O1 0.767672 0.766867 0.148022
O O2 0.603774 0.725259 0.094991
O O3 0.722141 0.892877 0.143040
O O4 0.730722 0.824886 0.994042
O O5 0.778808 0.933233 0.643952
O O6 0.627063 0.793954 0.646069
O O7 0.660855 0.984574 0.851489
O O8 0.746777 0.000000 0.000000
O O9 0.519705 0.945163 0.750000
O O10 0.514815 0.850252 0.884759
O O11 0.560455 0.039170 0.898900
O O12 0.752913 0.264739 0.250000
O O13 0.789847 0.298507 0.448996
O O14 0.374156 0.511775 0.250000
O O15 0.434519 0.627745 0.113560
O O16 0.287975 0.484604 0.091926
#
# Coordination Sequence:
#
# PCOD9586988 Si02
#       7
#    12  12  12  12  12  12  12
#     4   9  16  31  52  83 118 160 209 249 308 382
#     4   8  16  29  52  79 118 159 201 254 307 358
#     4   9  15  28  53  81 112 158 205 248 300 370
#     4   9  18  33  57  86 116 153 205 256 301 368
#     4   9  19  38  62  88 118 161 213 257 307 372
#     4  11  23  39  60  93 128 160 204 258 323 394
#     4  11  22  39  64  87 125 169 204 259 331 379
#
# _framework density 22.330749000000001
#
# number of rings (size 3 to 8) (size 9 to 14) (size 15 to 20)
#    0.000    2.571    1.429    1.571    0.000    0.000 
#    0.857    8.571    0.000    1.714    0.000    1.000 
#    0.000    0.000    0.000    0.000    0.000    0.000 
#
# Total GULP energy -468200.805650 kJ/mol
# GULP energy per Si atom -5573.819115 kJ/mol
# Density = 2.227992 g / cm^3
# Si number density = 22.330749 Si / 1000 Ang^3
#
#
#
# Elastic Constant Matrix: (Units=GPa)
#
#
# Indices 1 2 3 4 5 6 
#
# 1 41.9656 1.4287 7.2163 0.0000 0.0000 0.0000
# 2 1.4287 41.9656 7.2163 0.0000 0.0000 0.0000
# 3 7.2163 7.2163 131.3373 0.0000 0.0000 0.0000
# 4 0.0000 0.0000 0.0000 -3.4828 0.0000 0.0000
# 5 0.0000 0.0000 0.0000 0.0000 -3.4828 0.0000
# 6 0.0000 0.0000 0.0000 0.0000 0.0000 20.2684
#
#
#
# Elastic Compliance Matrix: (Units=1/GPa)
#
#
# Indices 1 2 3 4 5 6 
#
# 1 0.024071 -0.000598 -0.001290 0.000000 0.000000 0.000000
# 2 -0.000598 0.024071 -0.001290 0.000000 0.000000 0.000000
# 3 -0.001290 -0.001290 0.007756 0.000000 0.000000 0.000000
# 4 0.000000 0.000000 0.000000 -0.287129 0.000000 0.000000
# 5 0.000000 0.000000 0.000000 0.000000 -0.287129 0.000000
# 6 0.000000 0.000000 0.000000 0.000000 0.000000 0.049338
#
#
# Mechanical properties :
#
#
# Convention : Reuss Voigt Hill
#
# Bulk Modulus (GPa) = 20.18423 27.44346 23.81384
# Shear Modulus (GPa) = -11.20692 15.95440 2.37374
#
# Velocity S-wave (km/s) = -2.24265 2.67584 1.03213
# Velocity P-wave (km/s) = 1.53375 4.67579 3.47961
#
# Compressibility (1/GPa) = 0.04954363
#
# Stress axis : x y z
#
# Youngs Moduli (GPa) = 41.54348 41.54348 128.93725
#
# Poissons Ratio (x) = 0.02483 0.16630
# Poissons Ratio (y) = 0.02483 0.16630
# Poissons Ratio (z) = 0.05358 0.05358
#
# Static dielectric constant tensor:
#      x y z
#    x 1.828560 0.000000 0.000000 
#    y 0.000000 1.828560 0.000000 
#    z 0.000000 0.000000 1.910360 
# 
# From -- ./inp_files/3176.got.cif
#   From: 2010.05.17/outbox.cif.g08.bks.cpg/sg190_2_cif.got.tgz:3176.got - 2010.05.20 12:16:56.
