data_PCOD9586966
_publ_section_title
;
Structure prediction by ZEFSAII (Michael W. Deem and Ramdas Pophale) SiO2 
 PCOD9586966
Probable space group: P -6 2 C
;
_chemical_formula_sum "Si O2"
_cell_formula_units_Z 74
_cell_length_a 13.112712
_cell_length_b 13.112712
_cell_length_c 27.110695
_cell_angle_alpha 90.000000
_cell_angle_beta 90.000000
_cell_angle_gamma 120.000000
_cell_volume 4036.977494
_symmetry_space_group_name_H-M "P -6 2 C"
_symmetry_group_IT_number 190
_symmetry_cell_setting 'hexagonal'
loop_
_space_group_symop_operation_xyz
x,y,z
-x+y,-x,1/2-z
-y,x-y,z
x,y,1/2-z
-x+y,-x,z
-y,x-y,1/2-z
x-y,-y,-z
-x,-x+y,-z
y,x,-z
y,x,1/2+z
x-y,-y,1/2+z
-x,-x+y,1/2+z
loop_
_atom_site_type_symbol
_atom_site_label
_atom_site_fract_x
_atom_site_fract_y
_atom_site_fract_z
Si Si1 0.681955 0.958779 0.084268
Si Si2 0.333334 0.666667 0.972581
Si Si3 0.026774 0.246746 0.305117
Si Si4 0.134582 0.134582 0.500000
Si Si5 0.666668 0.333334 0.591986
Si Si6 0.757185 0.976174 0.692606
Si Si7 0.306933 0.879508 0.390562
Si Si8 0.454950 0.939610 0.948704
O O1 0.703781 0.992318 0.142601
O O2 0.604516 0.013215 0.064438
O O3 0.618183 0.816281 0.080154
O O4 0.796295 0.002949 0.048885
O O5 0.333334 0.666667 0.032413
O O6 0.384594 0.799738 0.953998
O O7 0.029777 0.288307 0.250000
O O8 0.106186 0.184591 0.307087
O O9 0.088884 0.358210 0.339856
O O10 0.893818 0.150477 0.316737
O O11 0.110049 0.000000 0.500000
O O12 0.567283 0.206449 0.611007
O O13 0.715772 0.977829 0.750000
O O14 0.405176 0.003374 0.412180
O O15 0.457821 0.000000 0.000000
#
# Coordination Sequence:
#
# PCOD9586966 Si02
#       8
#    12   4  12   6   4  12  12  12
#     4  11  23  40  63  90 125 164 213 256 314 383
#     4  12  27  42  63  91 125 166 228 258 312 394
#     4   9  19  36  60  94 123 161 203 249 315 381
#     4  10  26  38  54  94 136 162 188 246 332 380
#     4  12  21  45  58  88 117 163 211 261 312 373
#     4   9  19  35  60  89 124 157 200 252 308 377
#     4  11  23  40  64  87 123 163 205 263 315 365
#     4  12  25  42  63  90 122 168 218 261 308 381
#
# _framework density 18.330546999999999
#
# number of rings (size 3 to 8) (size 9 to 14) (size 15 to 20)
#    0.162    1.297    4.054    0.324    6.811    1.946 
#    0.000    1.622    0.000    0.000    0.000    0.000 
#    0.000    0.000    0.000    0.000    0.000    0.000 
#
# Total GULP energy -412270.907297 kJ/mol
# GULP energy per Si atom -5571.228477 kJ/mol
# Density = 1.828883 g / cm^3
# Si number density = 18.330547 Si / 1000 Ang^3
#
#
#
# Elastic Constant Matrix: (Units=GPa)
#
#
# Indices 1 2 3 4 5 6 
#
# 1 82.5662 33.1125 27.8253 0.0001 0.0000 -0.0002
# 2 33.1125 82.5644 27.8255 0.0000 -0.0001 -0.0002
# 3 27.8253 27.8255 62.3416 0.0000 0.0000 0.0001
# 4 0.0001 0.0000 0.0000 19.3215 0.0000 0.0000
# 5 0.0000 -0.0001 0.0000 0.0000 19.3216 -0.0001
# 6 -0.0002 -0.0002 0.0001 0.0000 -0.0001 24.7262
#
#
#
# Elastic Compliance Matrix: (Units=1/GPa)
#
#
# Indices 1 2 3 4 5 6 
#
# 1 0.015615 -0.004606 -0.004913 0.000000 0.000000 0.000000
# 2 -0.004606 0.015615 -0.004914 0.000000 0.000000 0.000000
# 3 -0.004913 -0.004914 0.020427 0.000000 0.000000 0.000000
# 4 0.000000 0.000000 0.000000 0.051756 0.000000 0.000000
# 5 0.000000 0.000000 0.000000 0.000000 0.051756 0.000000
# 6 0.000000 0.000000 0.000000 0.000000 0.000000 0.040443
#
#
# Mechanical properties :
#
#
# Convention : Reuss Voigt Hill
#
# Bulk Modulus (GPa) = 43.87926 44.99986 44.43956
# Shear Modulus (GPa) = 21.54483 21.92113 21.73298
#
# Velocity S-wave (km/s) = 3.43206 3.46190 3.44701
# Velocity P-wave (km/s) = 6.30041 6.37041 6.33550
#
# Compressibility (1/GPa) = 0.02278981
#
# Stress axis : x y z
#
# Youngs Moduli (GPa) = 64.04225 64.04051 48.95527
#
# Poissons Ratio (x) = 0.29500 0.24054
# Poissons Ratio (y) = 0.29500 0.24055
# Poissons Ratio (z) = 0.31466 0.31467
#
# Static dielectric constant tensor:
#      x y z
#    x 1.648050 0.000000 0.000000 
#    y 0.000000 1.648060 0.000000 
#    z 0.000000 0.000000 1.654340 
# 
# From -- ./inp_files/5182.got.cif
#   From: 2010.05.17/outbox.cif.g08.bks.cpg/sg190_3_cif.got.tgz:5182.got - 2010.05.20 12:16:56.
