data_PCOD9586027
_publ_section_title
;
Structure prediction by ZEFSAII (Michael W. Deem and Ramdas Pophale) SiO2 
 PCOD9586027
Probable space group: P -6 C 2
;
_chemical_formula_sum "Si O2"
_cell_formula_units_Z 72
_cell_length_a 14.757547
_cell_length_b 14.757547
_cell_length_c 17.487985
_cell_angle_alpha 90.000000
_cell_angle_beta 90.000000
_cell_angle_gamma 120.000000
_cell_volume 3298.365308
_symmetry_space_group_name_H-M "P -6 C 2"
_symmetry_group_IT_number 188
_symmetry_cell_setting 'hexagonal'
loop_
_space_group_symop_operation_xyz
x,y,z
-x+y,-x,1/2-z
-y,x-y,z
x,y,1/2-z
-x+y,-x,z
-y,x-y,1/2-z
-y,-x,-z
-x+y,y,-z
x,x-y,-z
-x+y,y,1/2+z
x,x-y,1/2+z
-y,-x,1/2+z
loop_
_atom_site_type_symbol
_atom_site_label
_atom_site_fract_x
_atom_site_fract_y
_atom_site_fract_z
Si Si1 0.531259 0.381683 0.420751
Si Si2 0.000423 0.211323 0.981718
Si Si3 0.726828 0.187161 0.665517
Si Si4 0.473823 0.901686 0.415905
Si Si5 0.304837 0.953177 0.125985
Si Si6 0.097269 0.341189 0.663652
O O1 0.593607 0.406394 0.500000
O O2 0.457790 0.262262 0.399157
O O3 0.617679 0.435429 0.354532
O O4 0.467997 0.442833 0.424931
O O5 0.016332 0.255013 0.895543
O O6 0.887905 0.112095 0.000000
O O7 0.091492 0.182983 0.000000
O O8 0.028477 0.308571 0.038753
O O9 0.764711 0.228207 0.750000
O O10 0.702337 0.068875 0.659949
O O11 0.428454 0.856908 0.500000
O O12 0.379455 0.902797 0.371215
O O13 0.543148 0.862437 0.372300
O O14 0.195834 0.872964 0.163425
O O15 0.057946 0.335428 0.750000
#
# Coordination Sequence:
#
# PCOD9586027 Si02
#       6
#    12  12  12  12  12  12
#     4  10  22  37  58  88 127 171 217 257 317 393
#     4  10  22  42  70  99 135 182 231 272 335 421
#     4  11  22  37  60  90 132 171 216 270 326 389
#     4  10  21  40  66  91 127 171 223 269 333 412
#     4  10  23  42  68  97 134 178 229 277 339 412
#     4  11  24  43  68 101 138 172 227 297 348 394
#
# _framework density 21.828994000000002
#
# number of rings (size 3 to 8) (size 9 to 14) (size 15 to 20)
#    0.000    1.667    1.667    2.000    2.333    4.000 
#    1.000    3.333    0.000    0.000    0.000    0.000 
#    0.000    0.000    0.000    0.000    0.000    0.000 
#
# Total GULP energy -402319.687420 kJ/mol
# GULP energy per Si atom -5587.773436 kJ/mol
# Density = 2.177931 g / cm^3
# Si number density = 21.828994 Si / 1000 Ang^3
#
#
#
# Elastic Constant Matrix: (Units=GPa)
#
#
# Indices 1 2 3 4 5 6 
#
# 1 85.6144 30.4648 28.8596 -0.0001 0.0000 0.0000
# 2 30.4648 85.6144 28.8596 0.0001 0.0000 0.0000
# 3 28.8596 28.8596 151.4116 0.0000 0.0000 0.0000
# 4 -0.0001 0.0001 0.0000 13.2112 0.0000 0.0000
# 5 0.0000 0.0000 0.0000 0.0000 13.2112 -0.0001
# 6 0.0000 0.0000 0.0000 0.0000 -0.0001 27.5748
#
#
#
# Elastic Compliance Matrix: (Units=1/GPa)
#
#
# Indices 1 2 3 4 5 6 
#
# 1 0.013825 -0.004308 -0.001814 0.000000 0.000000 0.000000
# 2 -0.004308 0.013825 -0.001814 0.000000 0.000000 0.000000
# 3 -0.001814 -0.001814 0.007296 0.000000 0.000000 0.000000
# 4 0.000000 0.000000 0.000000 0.075693 0.000000 0.000000
# 5 0.000000 0.000000 0.000000 0.000000 0.075693 0.000000
# 6 0.000000 0.000000 0.000000 0.000000 0.000000 0.036265
#
#
# Mechanical properties :
#
#
# Convention : Reuss Voigt Hill
#
# Bulk Modulus (GPa) = 52.42792 55.44539 53.93665
# Shear Modulus (GPa) = 20.42265 26.42986 23.42626
#
# Velocity S-wave (km/s) = 3.06203 3.48339 3.27948
# Velocity P-wave (km/s) = 6.04740 6.45241 6.25319
#
# Compressibility (1/GPa) = 0.01907381
#
# Stress axis : x y z
#
# Youngs Moduli (GPa) = 72.33461 72.33461 137.06147
#
# Poissons Ratio (x) = 0.31161 0.24862
# Poissons Ratio (y) = 0.31161 0.24862
# Poissons Ratio (z) = 0.13121 0.13121
#
# Static dielectric constant tensor:
#      x y z
#    x 1.804640 0.000000 0.000000 
#    y 0.000000 1.804640 0.000000 
#    z 0.000000 0.000000 1.823160 
# 
# From -- ./inp_files/3174.got.cif
#   From: 2010.05.17/outbox.cif.g08.bks.cpg/sg188_2_cif.got.tgz:3174.got - 2010.05.20 12:11:46.
