data_PCOD9586061
_publ_section_title
;
Structure prediction by ZEFSAII (Michael W. Deem and Ramdas Pophale) SiO2 
 PCOD9586061
Probable space group: P -6 C 2
;
_chemical_formula_sum "Si O2"
_cell_formula_units_Z 48
_cell_length_a 16.912122
_cell_length_b 16.912122
_cell_length_c 9.284612
_cell_angle_alpha 90.000000
_cell_angle_beta 90.000000
_cell_angle_gamma 120.000000
_cell_volume 2299.802792
_symmetry_space_group_name_H-M "P -6 C 2"
_symmetry_group_IT_number 188
_symmetry_cell_setting 'hexagonal'
loop_
_space_group_symop_operation_xyz
x,y,z
-x+y,-x,1/2-z
-y,x-y,z
x,y,1/2-z
-x+y,-x,z
-y,x-y,1/2-z
-y,-x,-z
-x+y,y,-z
x,x-y,-z
-x+y,y,1/2+z
x,x-y,1/2+z
-y,-x,1/2+z
loop_
_atom_site_type_symbol
_atom_site_label
_atom_site_fract_x
_atom_site_fract_y
_atom_site_fract_z
Si Si1 0.997504 0.692442 0.087296
Si Si2 0.553813 0.244143 0.250000
Si Si3 0.787293 0.212708 0.000000
Si Si4 0.332612 0.833412 0.579427
Si Si5 0.842744 0.001465 0.580097
O O1 0.014643 0.733153 0.250000
O O2 0.062941 0.649604 0.071508
O O3 0.887993 0.629991 0.070176
O O4 0.028417 0.768758 0.964066
O O5 0.593704 0.354020 0.250000
O O6 0.490912 0.203240 0.386237
O O7 0.327652 0.810801 0.750000
O O8 0.238418 0.761583 0.500000
O O9 0.413545 0.827089 0.500000
O O10 0.857441 0.006475 0.750000
O O11 0.903142 0.096859 0.500000
O O12 0.868627 0.934314 0.500000
#
# Coordination Sequence:
#
# PCOD9586061 Si02
#       5
#    12   6   6  12  12
#     4  11  25  44  67 103 139 181 231 288 352 421
#     4  10  24  42  66  94 132 182 238 286 344 406
#     4  12  22  44  68 100 144 184 232 294 352 414
#     4  11  25  47  73 105 142 184 236 292 356 424
#     4  12  25  42  67  95 133 176 226 281 343 414
#
# _framework density 20.871355999999999
#
# number of rings (size 3 to 8) (size 9 to 14) (size 15 to 20)
#    0.250    0.500    2.500    5.000    1.750    6.000 
#    0.000    0.000    0.000    0.000    0.000    0.000 
#    0.000    0.000    0.000    0.000    0.000    0.000 
#
# Total GULP energy -267927.609075 kJ/mol
# GULP energy per Si atom -5581.825189 kJ/mol
# Density = 2.082385 g / cm^3
# Si number density = 20.871356 Si / 1000 Ang^3
#
#
#
# Elastic Constant Matrix: (Units=GPa)
#
#
# Indices 1 2 3 4 5 6 
#
# 1 84.1400 19.0295 33.7034 -0.0001 0.0000 0.0000
# 2 19.0295 84.1400 33.7034 0.0001 0.0000 0.0000
# 3 33.7034 33.7034 180.0082 0.0000 0.0000 0.0000
# 4 -0.0001 0.0001 0.0000 19.5618 0.0000 0.0000
# 5 0.0000 0.0000 0.0000 0.0000 19.5618 -0.0001
# 6 0.0000 0.0000 0.0000 0.0000 -0.0001 32.5552
#
#
#
# Elastic Compliance Matrix: (Units=1/GPa)
#
#
# Indices 1 2 3 4 5 6 
#
# 1 0.013201 -0.002157 -0.002068 0.000000 0.000000 0.000000
# 2 -0.002157 0.013201 -0.002068 0.000000 0.000000 0.000000
# 3 -0.002068 -0.002068 0.006330 0.000000 0.000000 0.000000
# 4 0.000000 0.000000 0.000000 0.051120 0.000000 0.000000
# 5 0.000000 0.000000 0.000000 0.000000 0.051120 0.000000
# 6 0.000000 0.000000 0.000000 0.000000 0.000000 0.030717
#
#
# Mechanical properties :
#
#
# Convention : Reuss Voigt Hill
#
# Bulk Modulus (GPa) = 49.63729 57.90673 53.77201
# Shear Modulus (GPa) = 27.02846 31.79255 29.41051
#
# Velocity S-wave (km/s) = 3.60252 3.90713 3.75791
# Velocity P-wave (km/s) = 6.41392 6.93967 6.68197
#
# Compressibility (1/GPa) = 0.02014614
#
# Stress axis : x y z
#
# Youngs Moduli (GPa) = 75.75100 75.75100 157.98777
#
# Poissons Ratio (x) = 0.16342 0.32668
# Poissons Ratio (y) = 0.16342 0.32668
# Poissons Ratio (z) = 0.15663 0.15663
#
# Static dielectric constant tensor:
#      x y z
#    x 1.775950 0.000000 0.000000 
#    y 0.000000 1.775950 0.000000 
#    z 0.000000 0.000000 1.712930 
# 
# From -- ./inp_files/413.got.cif
#   From: 2010.05.17/outbox.cif.g08.bks.cpg/sg188_1_cif.got.tgz:413.got - 2010.05.20 12:11:46.
