data_PCOD9586699
_publ_section_title
;
Structure prediction by ZEFSAII (Michael W. Deem and Ramdas Pophale) SiO2 
 PCOD9586699
Probable space group: P -6 2 C
;
_chemical_formula_sum "Si O2"
_cell_formula_units_Z 44
_cell_length_a 10.704732
_cell_length_b 10.704732
_cell_length_c 19.867046
_cell_angle_alpha 90.000000
_cell_angle_beta 90.000000
_cell_angle_gamma 120.000000
_cell_volume 1971.585098
_symmetry_space_group_name_H-M "P -6 2 C"
_symmetry_group_IT_number 190
_symmetry_cell_setting 'hexagonal'
loop_
_space_group_symop_operation_xyz
x,y,z
-x+y,-x,1/2-z
-y,x-y,z
x,y,1/2-z
-x+y,-x,z
-y,x-y,1/2-z
x-y,-y,-z
-x,-x+y,-z
y,x,-z
y,x,1/2+z
x-y,-y,1/2+z
-x,-x+y,1/2+z
loop_
_atom_site_type_symbol
_atom_site_label
_atom_site_fract_x
_atom_site_fract_y
_atom_site_fract_z
Si Si1 0.328525 0.198165 0.174616
Si Si2 0.666667 0.333334 0.154211
Si Si3 0.100586 0.659790 0.400241
Si Si4 0.333335 0.666668 0.494934
Si Si5 0.924405 0.332032 0.826696
O O1 0.284754 0.222445 0.250000
O O2 0.501407 0.263651 0.177074
O O3 0.298447 0.276820 0.112991
O O4 0.265770 0.028483 0.164075
O O5 0.666668 0.333334 0.073759
O O6 0.196334 0.677301 0.465761
O O7 0.220317 0.760795 0.345569
O O8 0.030856 0.494964 0.377098
O O9 0.939039 0.380937 0.750000
#
# Coordination Sequence:
#
# PCOD9586699 Si02
#       5
#    12   4  12   4  12
#     4  11  21  35  59  90 119 151 196 254 315 356
#     4  12  22  37  60  88 121 150 193 257 295 369
#     4  10  20  38  55  81 119 155 201 242 289 367
#     4   9  24  40  59  85 114 165 208 227 298 360
#     4  10  19  32  56  85 115 155 195 246 308 357
#
# _framework density 22.317067000000002
#
# number of rings (size 3 to 8) (size 9 to 14) (size 15 to 20)
#    0.000    1.636    2.727    3.818    0.000    1.091 
#    1.636    0.000    0.000    0.000    0.000    0.000 
#    0.000    0.000    0.000    0.000    0.000    0.000 
#
# Total GULP energy -245485.563627 kJ/mol
# GULP energy per Si atom -5579.217355 kJ/mol
# Density = 2.226627 g / cm^3
# Si number density = 22.317067 Si / 1000 Ang^3
#
#
#
# Elastic Constant Matrix: (Units=GPa)
#
#
# Indices 1 2 3 4 5 6 
#
# 1 60.3737 -9.4595 19.8227 0.0000 0.0001 0.0001
# 2 -9.4595 60.3745 19.8225 0.0000 0.0000 0.0002
# 3 19.8227 19.8225 129.3060 0.0000 0.0003 0.0001
# 4 0.0000 0.0000 0.0000 13.1135 0.0001 0.0000
# 5 0.0001 0.0000 0.0003 0.0001 13.1133 0.0000
# 6 0.0001 0.0002 0.0001 0.0000 0.0000 34.9167
#
#
#
# Elastic Compliance Matrix: (Units=1/GPa)
#
#
# Indices 1 2 3 4 5 6 
#
# 1 0.018312 0.003992 -0.003419 0.000000 0.000000 0.000000
# 2 0.003992 0.018311 -0.003419 0.000000 0.000000 0.000000
# 3 -0.003419 -0.003419 0.008782 0.000000 0.000000 0.000000
# 4 0.000000 0.000000 0.000000 0.076257 0.000000 0.000000
# 5 0.000000 0.000000 0.000000 0.000000 0.076259 0.000000
# 6 0.000000 0.000000 0.000000 0.000000 0.000000 0.028640
#
#
# Mechanical properties :
#
#
# Convention : Reuss Voigt Hill
#
# Bulk Modulus (GPa) = 25.18151 34.49173 29.83662
# Shear Modulus (GPa) = 20.36740 26.88659 23.62699
#
# Velocity S-wave (km/s) = 3.02427 3.47472 3.25729
# Velocity P-wave (km/s) = 4.84798 5.62024 5.24834
#
# Compressibility (1/GPa) = 0.03971168
#
# Stress axis : x y z
#
# Youngs Moduli (GPa) = 54.61045 54.61123 113.87092
#
# Poissons Ratio (x) = -0.21799 0.38933
# Poissons Ratio (y) = -0.21798 0.38933
# Poissons Ratio (z) = 0.18672 0.18672
#
# Static dielectric constant tensor:
#      x y z
#    x 1.869390 0.000000 0.000000 
#    y 0.000000 1.869390 0.000000 
#    z 0.000000 0.000000 1.763630 
# 
# From -- ./inp_files/3509.got.cif
#   From: 2010.05.17/outbox.cif.g08.bks.cpg/sg190_2_cif.got.tgz:3509.got - 2010.05.20 12:16:56.
