data_PCOD9586701
_publ_section_title
;
Structure prediction by ZEFSAII (Michael W. Deem and Ramdas Pophale) SiO2 
 PCOD9586701
Probable space group: P -6 2 C
;
_chemical_formula_sum "Si O2"
_cell_formula_units_Z 76
_cell_length_a 18.477491
_cell_length_b 18.477491
_cell_length_c 14.958283
_cell_angle_alpha 90.000000
_cell_angle_beta 90.000000
_cell_angle_gamma 120.000000
_cell_volume 4422.810949
_symmetry_space_group_name_H-M "P -6 2 C"
_symmetry_group_IT_number 190
_symmetry_cell_setting 'hexagonal'
loop_
_space_group_symop_operation_xyz
x,y,z
-x+y,-x,1/2-z
-y,x-y,z
x,y,1/2-z
-x+y,-x,z
-y,x-y,1/2-z
x-y,-y,-z
-x,-x+y,-z
y,x,-z
y,x,1/2+z
x-y,-y,1/2+z
-x,-x+y,1/2+z
loop_
_atom_site_type_symbol
_atom_site_label
_atom_site_fract_x
_atom_site_fract_y
_atom_site_fract_z
Si Si1 0.158909 0.637523 0.145563
Si Si2 0.834021 0.844914 0.150914
Si Si3 0.170685 0.303964 0.848975
Si Si4 0.000000 0.000000 0.606583
Si Si5 0.693659 0.031512 0.599019
Si Si6 0.133622 0.323470 0.453331
Si Si7 0.514169 0.694628 0.141093
O O1 0.175773 0.636832 0.250000
O O2 0.075038 0.643168 0.136370
O O3 0.238004 0.724093 0.112788
O O4 0.156842 0.554771 0.110675
O O5 0.795498 0.832548 0.250000
O O6 0.878248 0.788591 0.146712
O O7 0.763765 0.818923 0.076250
O O8 0.906505 0.939436 0.139125
O O9 0.167008 0.337890 0.750000
O O10 0.259226 0.306496 0.855128
O O11 0.156223 0.340908 0.941290
O O12 0.000000 0.000000 0.500000
O O13 0.788170 0.107740 0.590516
O O14 0.660483 0.000000 0.500000
O O15 0.126260 0.397353 0.406677
O O16 0.523764 0.698045 0.250000
#
# Coordination Sequence:
#
# PCOD9586701 Si02
#       7
#    12  12  12   4  12  12  12
#     4   9  16  28  48  74 102 127 153 192 243 298
#     4  11  22  34  48  68  95 128 167 206 245 286
#     4  10  20  33  49  68  93 129 171 209 242 284
#     4  12  22  32  46  66  94 128 167 209 241 273
#     4   9  18  31  48  70  96 128 168 205 242 287
#     4  10  19  33  49  69  97 130 163 203 250 297
#     4   9  17  29  49  77 104 128 155 192 245 305
#
# _framework density 17.183641000000001
#
# number of rings (size 3 to 8) (size 9 to 14) (size 15 to 20)
#    0.000    2.211    0.000    4.105    0.000    5.684 
#    0.000    1.579    0.000    0.000    0.000    9.947 
#    0.000    0.000    0.000    0.947    0.000   14.211 
#
# Total GULP energy -423114.702037 kJ/mol
# GULP energy per Si atom -5567.298711 kJ/mol
# Density = 1.714453 g / cm^3
# Si number density = 17.183641 Si / 1000 Ang^3
#
#
#
# Elastic Constant Matrix: (Units=GPa)
#
#
# Indices 1 2 3 4 5 6 
#
# 1 85.9019 43.0110 26.4258 0.0000 0.0000 0.0000
# 2 43.0110 85.9019 26.4258 0.0000 0.0000 0.0000
# 3 26.4258 26.4258 87.3026 0.0000 0.0000 0.0000
# 4 0.0000 0.0000 0.0000 21.3788 0.0000 0.0000
# 5 0.0000 0.0000 0.0000 0.0000 21.3788 0.0000
# 6 0.0000 0.0000 0.0000 0.0000 0.0000 21.4455
#
#
#
# Elastic Compliance Matrix: (Units=1/GPa)
#
#
# Indices 1 2 3 4 5 6 
#
# 1 0.016086 -0.007229 -0.002681 0.000000 0.000000 0.000000
# 2 -0.007229 0.016086 -0.002681 0.000000 0.000000 0.000000
# 3 -0.002681 -0.002681 0.013077 0.000000 0.000000 0.000000
# 4 0.000000 0.000000 0.000000 0.046775 0.000000 0.000000
# 5 0.000000 0.000000 0.000000 0.000000 0.046775 0.000000
# 6 0.000000 0.000000 0.000000 0.000000 0.000000 0.046630
#
#
# Mechanical properties :
#
#
# Convention : Reuss Voigt Hill
#
# Bulk Modulus (GPa) = 49.83337 50.09238 49.96287
# Shear Modulus (GPa) = 23.00973 23.72354 23.36664
#
# Velocity S-wave (km/s) = 3.66327 3.71966 3.69157
# Velocity P-wave (km/s) = 6.85246 6.90379 6.87817
#
# Compressibility (1/GPa) = 0.02006688
#
# Stress axis : x y z
#
# Youngs Moduli (GPa) = 62.16746 62.16746 76.46861
#
# Poissons Ratio (x) = 0.44943 0.20499
# Poissons Ratio (y) = 0.44943 0.20499
# Poissons Ratio (z) = 0.16665 0.16665
#
# Static dielectric constant tensor:
#      x y z
#    x 1.591600 0.000000 0.000000 
#    y 0.000000 1.591600 0.000000 
#    z 0.000000 0.000000 1.630480 
# 
# From -- ./inp_files/3072.got.cif
#   From: 2010.05.17/outbox.cif.g08.bks.cpg/sg190_2_cif.got.tgz:3072.got - 2010.05.20 12:16:56.
