data_PCOD9586309
_publ_section_title
;
Structure prediction by ZEFSAII (Michael W. Deem and Ramdas Pophale) SiO2 
 PCOD9586309
Probable space group: P -6 2 M
;
_chemical_formula_sum "Si O2"
_cell_formula_units_Z 84
_cell_length_a 19.859737
_cell_length_b 19.859737
_cell_length_c 13.446552
_cell_angle_alpha 90.000000
_cell_angle_beta 90.000000
_cell_angle_gamma 120.000000
_cell_volume 4592.916534
_symmetry_space_group_name_H-M "P -6 2 M"
_symmetry_group_IT_number 189
_symmetry_cell_setting 'hexagonal'
loop_
_space_group_symop_operation_xyz
x,y,z
-x+y,-x,-z
-y,x-y,z
x,y,-z
-x+y,-x,z
-y,x-y,-z
x-y,-y,-z
-x,-x+y,-z
y,x,-z
y,x,z
x-y,-y,z
-x,-x+y,z
loop_
_atom_site_type_symbol
_atom_site_label
_atom_site_fract_x
_atom_site_fract_y
_atom_site_fract_z
Si Si1 0.906631 0.453588 0.387770
Si Si2 0.089028 0.226334 0.890821
Si Si3 0.411764 0.198364 0.886695
Si Si4 0.854370 0.663073 0.388225
Si Si5 0.830615 0.916262 0.326858
Si Si6 0.311255 0.906546 0.284375
Si Si7 0.574137 0.908076 0.757230
O O1 0.875576 0.448769 0.500000
O O2 0.892802 0.371278 0.349030
O O3 0.882747 0.495140 0.303804
O O4 0.000000 0.508491 0.393865
O O5 0.150032 0.317327 0.885267
O O6 0.097426 0.186903 0.791849
O O7 0.000000 0.208452 0.887791
O O8 0.098279 0.197900 0.000000
O O9 0.432549 0.145824 0.815572
O O10 0.436652 0.283581 0.843368
O O11 0.437514 0.202293 0.000000
O O12 0.845702 0.633928 0.500000
O O13 0.904081 0.755310 0.382594
O O14 0.770361 0.640648 0.342827
O O15 0.896238 0.628948 0.320673
O O16 0.849500 0.849500 0.352706
O O17 0.901958 0.000000 0.348752
O O18 0.351054 0.000000 0.267388
O O19 0.615728 0.000000 0.786232
#
# Coordination Sequence:
#
# PCOD9586309 Si02
#       7
#    12  12  12  12  12  12  12
#     4   9  18  33  55  81 109 138 166 208 267 324
#     4   9  17  31  51  73  99 136 184 235 284 326
#     4  10  20  33  53  81 113 147 181 223 272 322
#     4  11  22  34  53  78 105 140 184 233 280 334
#     4  11  22  35  48  69 102 144 193 243 292 335
#     4  10  19  34  56  83 110 137 176 224 275 330
#     4  10  20  35  54  80 111 142 179 222 271 328
#
# _framework density 18.289031999999999
#
# number of rings (size 3 to 8) (size 9 to 14) (size 15 to 20)
#    0.000    2.000    2.857    2.286    0.000    4.857 
#    0.000    2.143    0.000    8.857    0.000    8.000 
#    0.000    0.000    0.000    0.000    0.000    0.000 
#
# Total GULP energy -468159.138372 kJ/mol
# GULP energy per Si atom -5573.323076 kJ/mol
# Density = 1.824741 g / cm^3
# Si number density = 18.289032 Si / 1000 Ang^3
#
#
#
# Elastic Constant Matrix: (Units=GPa)
#
#
# Indices 1 2 3 4 5 6 
#
# 1 47.2170 9.4493 0.5380 0.0000 0.0000 0.0000
# 2 9.4493 47.2170 0.5380 0.0000 0.0000 0.0000
# 3 0.5380 0.5380 73.2311 0.0000 0.0000 0.0000
# 4 0.0000 0.0000 0.0000 1.1716 0.0000 0.0000
# 5 0.0000 0.0000 0.0000 0.0000 1.1716 0.0000
# 6 0.0000 0.0000 0.0000 0.0000 0.0000 18.8838
#
#
#
# Elastic Compliance Matrix: (Units=1/GPa)
#
#
# Indices 1 2 3 4 5 6 
#
# 1 0.022064 -0.004414 -0.000130 0.000000 0.000000 0.000000
# 2 -0.004414 0.022064 -0.000130 0.000000 0.000000 0.000000
# 3 -0.000130 -0.000130 0.013657 0.000000 0.000000 0.000000
# 4 0.000000 0.000000 0.000000 0.853527 0.000000 0.000000
# 5 0.000000 0.000000 0.000000 0.000000 0.853527 0.000000
# 6 0.000000 0.000000 0.000000 0.000000 0.000000 0.052955
#
#
# Mechanical properties :
#
#
# Convention : Reuss Voigt Hill
#
# Bulk Modulus (GPa) = 20.64498 20.96840 20.80669
# Shear Modulus (GPa) = 2.71255 14.72140 8.71697
#
# Velocity S-wave (km/s) = 1.21917 2.84021 2.18554
# Velocity P-wave (km/s) = 3.64616 4.71653 4.21546
#
# Compressibility (1/GPa) = 0.04843793
#
# Stress axis : x y z
#
# Youngs Moduli (GPa) = 45.32343 45.32343 73.22088
#
# Poissons Ratio (x) = 0.20006 0.00949
# Poissons Ratio (y) = 0.20006 0.00949
# Poissons Ratio (z) = 0.00588 0.00588
#
# Static dielectric constant tensor:
#      x y z
#    x 1.616140 0.000000 0.000000 
#    y 0.000000 1.616140 0.000000 
#    z 0.000000 0.000000 1.676610 
# 
# From -- ./inp_files/2798.got.cif
#   From: 2010.05.17/outbox.cif.g08.bks.cpg/sg189_2_cif.got.tgz:2798.got - 2010.05.20 12:14:34.
