data_PCOD9586370
_publ_section_title
;
Structure prediction by ZEFSAII (Michael W. Deem and Ramdas Pophale) SiO2 
 PCOD9586370
Probable space group: P -6 2 M
;
_chemical_formula_sum "Si O2"
_cell_formula_units_Z 52
_cell_length_a 13.781351
_cell_length_b 13.781351
_cell_length_c 18.137866
_cell_angle_alpha 90.000000
_cell_angle_beta 90.000000
_cell_angle_gamma 120.000000
_cell_volume 2983.323910
_symmetry_space_group_name_H-M "P -6 2 M"
_symmetry_group_IT_number 189
_symmetry_cell_setting 'hexagonal'
loop_
_space_group_symop_operation_xyz
x,y,z
-x+y,-x,-z
-y,x-y,z
x,y,-z
-x+y,-x,z
-y,x-y,-z
x-y,-y,-z
-x,-x+y,-z
y,x,-z
y,x,z
x-y,-y,z
-x,-x+y,z
loop_
_atom_site_type_symbol
_atom_site_label
_atom_site_fract_x
_atom_site_fract_y
_atom_site_fract_z
Si Si1 0.129937 0.261612 0.087315
Si Si2 0.540258 0.671397 0.412604
Si Si3 0.666667 0.333335 0.087588
Si Si4 0.131420 0.668050 0.336933
Si Si5 0.467148 0.335276 0.162852
O O1 0.170771 0.170771 0.097138
O O2 0.215116 0.370110 0.133235
O O3 0.000000 0.208003 0.107420
O O4 0.142217 0.290004 0.000000
O O5 0.525345 0.677873 0.500000
O O6 0.628587 0.628587 0.401233
O O7 0.424252 0.576710 0.376711
O O8 0.574453 0.787845 0.373791
O O9 0.579704 0.368326 0.119220
O O10 0.666667 0.333334 0.000000
O O11 0.154566 0.670304 0.249971
O O12 0.000000 0.626037 0.345878
O O13 0.420974 0.420974 0.150575
#
# Coordination Sequence:
#
# PCOD9586370 Si02
#       5
#    12  12   4  12  12
#     4   9  17  31  52  77 104 135 174 220 265 305
#     4  10  20  33  52  79 107 135 170 212 255 303
#     4  12  24  36  54  75 100 140 178 213 261 309
#     4  10  20  35  56  79 105 138 171 209 259 307
#     4  10  22  38  54  76 106 137 173 216 257 305
#
# _framework density 17.430223999999999
#
# number of rings (size 3 to 8) (size 9 to 14) (size 15 to 20)
#    0.000    2.077    0.000    3.462    0.000    5.538 
#    0.000    0.000    0.000    0.462    0.000    0.000 
#    0.000    0.000    0.000    0.000    0.000    0.000 
#
# Total GULP energy -290393.356122 kJ/mol
# GULP energy per Si atom -5584.487618 kJ/mol
# Density = 1.739055 g / cm^3
# Si number density = 17.430224 Si / 1000 Ang^3
#
#
#
# Elastic Constant Matrix: (Units=GPa)
#
#
# Indices 1 2 3 4 5 6 
#
# 1 65.9401 44.9094 64.9450 0.0188 -0.0185 0.0073
# 2 44.9094 65.9262 64.9418 -0.0209 0.0235 -0.0089
# 3 64.9450 64.9418 119.7444 -0.0058 -0.0004 -0.0013
# 4 0.0188 -0.0209 -0.0058 152.5279 -0.0091 -0.0212
# 5 -0.0185 0.0235 -0.0004 -0.0091 152.3127 -0.0198
# 6 0.0073 -0.0089 -0.0013 -0.0212 -0.0198 10.4904
#
#
#
# Elastic Compliance Matrix: (Units=1/GPa)
#
#
# Indices 1 2 3 4 5 6 
#
# 1 0.036153 -0.011406 -0.013422 -0.000007 0.000006 -0.000036
# 2 -0.011406 0.036166 -0.013428 0.000006 -0.000007 0.000037
# 3 -0.013422 -0.013428 0.022913 0.000001 0.000000 0.000001
# 4 -0.000007 0.000006 0.000001 0.006556 0.000000 0.000013
# 5 0.000006 -0.000007 0.000000 0.000000 0.006565 0.000012
# 6 -0.000036 0.000037 0.000001 0.000013 0.000012 0.095326
#
#
# Mechanical properties :
#
#
# Convention : Reuss Voigt Hill
#
# Bulk Modulus (GPa) = 53.41880 66.80034 60.10957
# Shear Modulus (GPa) = 17.45620 68.18715 42.82167
#
# Velocity S-wave (km/s) = 3.16807 6.26139 4.96194
# Velocity P-wave (km/s) = 6.64048 9.52265 8.20905
#
# Compressibility (1/GPa) = 0.01872000
#
# Stress axis : x y z
#
# Youngs Moduli (GPa) = 27.66006 27.65065 43.64294
#
# Poissons Ratio (x) = 0.31538 0.58579
# Poissons Ratio (y) = 0.31549 0.58602
# Poissons Ratio (z) = 0.37126 0.37128
#
# Static dielectric constant tensor:
#      x y z
#    x 1.582510 0.000000 0.000000 
#    y 0.000000 1.582520 0.000000 
#    z 0.000000 0.000000 1.570850 
# 
# From -- ./inp_files/3362.got.cif
#   From: 2010.05.17/outbox.cif.g08.bks.cpg/sg189_2_cif.got.tgz:3362.got - 2010.05.20 12:14:34.
