data_PCOD9586293
_publ_section_title
;
Structure prediction by ZEFSAII (Michael W. Deem and Ramdas Pophale) SiO2 
 PCOD9586293
Probable space group: P -6 2 M
;
_chemical_formula_sum "Si O2"
_cell_formula_units_Z 96
_cell_length_a 13.891413
_cell_length_b 13.891413
_cell_length_c 26.556296
_cell_angle_alpha 90.000000
_cell_angle_beta 90.000000
_cell_angle_gamma 120.000000
_cell_volume 4438.037618
_symmetry_space_group_name_H-M "P -6 2 M"
_symmetry_group_IT_number 189
_symmetry_cell_setting 'hexagonal'
loop_
_space_group_symop_operation_xyz
x,y,z
-x+y,-x,-z
-y,x-y,z
x,y,-z
-x+y,-x,z
-y,x-y,-z
x-y,-y,-z
-x,-x+y,-z
y,x,-z
y,x,z
x-y,-y,z
-x,-x+y,z
loop_
_atom_site_type_symbol
_atom_site_label
_atom_site_fract_x
_atom_site_fract_y
_atom_site_fract_z
Si Si1 0.126998 0.871916 0.926199
Si Si2 0.124053 0.325544 0.817079
Si Si3 0.579977 0.447774 0.843243
Si Si4 0.871722 0.199578 0.443519
Si Si5 0.436795 0.305254 0.361579
Si Si6 0.864345 0.519710 0.945312
Si Si7 0.456146 0.326660 0.249777
Si Si8 0.440243 0.570709 0.553295
O O1 0.129896 0.868015 0.865451
O O2 0.162917 0.782936 0.942805
O O3 0.000000 0.825906 0.942439
O O4 0.208075 0.000000 0.940946
O O5 0.139692 0.441695 0.838590
O O6 0.218930 0.356878 0.776804
O O7 0.000000 0.257642 0.795512
O O8 0.490733 0.490733 0.843950
O O9 0.556600 0.380980 0.895536
O O10 0.553742 0.376605 0.791968
O O11 0.833877 0.148544 0.500000
O O12 0.797459 0.142176 0.394670
O O13 0.870200 0.315216 0.444539
O O14 0.000000 0.232917 0.437778
O O15 0.386030 0.386030 0.355168
O O16 0.470432 0.289989 0.305479
O O17 0.542808 0.364521 0.398288
O O18 0.000000 0.583667 0.944435
O O19 0.828666 0.463100 0.000000
O O20 0.418921 0.418921 0.255257
O O21 0.382962 0.563364 0.500000
O O22 0.477039 0.477039 0.552058
#
# Coordination Sequence:
#
# PCOD9586293 Si02
#       8
#    12  12  12  12  12  12  12  12
#     4  10  19  33  55  86 122 157 194 234 282 345
#     4  10  20  34  56  82 106 143 192 234 284 341
#     4   9  18  35  55  74 100 136 182 232 278 329
#     4   9  18  33  53  76 105 142 181 223 275 332
#     4  10  20  32  52  80 107 140 183 226 272 333
#     4   9  17  32  56  80 105 144 186 227 281 336
#     4  10  20  36  55  77 109 146 182 228 286 343
#     4   8  15  30  50  71  99 133 168 213 267 320
#
# _framework density 21.631181000000002
#
# number of rings (size 3 to 8) (size 9 to 14) (size 15 to 20)
#    0.000    2.625    1.250    1.625    0.000    2.500 
#    1.500    3.125    0.000    3.500    0.000    0.000 
#    0.000    0.000    0.000    0.000    0.000    0.000 
#
# Total GULP energy -535212.772946 kJ/mol
# GULP energy per Si atom -5575.133052 kJ/mol
# Density = 2.158195 g / cm^3
# Si number density = 21.631181 Si / 1000 Ang^3
#
#
#
# Elastic Constant Matrix: (Units=GPa)
#
#
# Indices 1 2 3 4 5 6 
#
# 1 51.7455 2.8003 26.0938 0.0000 0.0000 0.0000
# 2 2.8003 51.7455 26.0938 0.0000 0.0000 0.0000
# 3 26.0938 26.0938 189.3107 0.0000 0.0000 0.0000
# 4 0.0000 0.0000 0.0000 -10.0728 0.0000 0.0000
# 5 0.0000 0.0000 0.0000 0.0000 -10.0728 0.0000
# 6 0.0000 0.0000 0.0000 0.0000 0.0000 24.4726
#
#
#
# Elastic Compliance Matrix: (Units=1/GPa)
#
#
# Indices 1 2 3 4 5 6 
#
# 1 0.020775 0.000344 -0.002911 0.000000 0.000000 0.000000
# 2 0.000344 0.020775 -0.002911 0.000000 0.000000 0.000000
# 3 -0.002911 -0.002911 0.006085 0.000000 0.000000 0.000000
# 4 0.000000 0.000000 0.000000 -0.099278 0.000000 0.000000
# 5 0.000000 0.000000 0.000000 0.000000 -0.099278 0.000000
# 6 0.000000 0.000000 0.000000 0.000000 0.000000 0.040862
#
#
# Mechanical properties :
#
#
# Convention : Reuss Voigt Hill
#
# Bulk Modulus (GPa) = 27.26448 44.75310 36.00879
# Shear Modulus (GPa) = -57.55269 16.71966 -20.41651
#
# Velocity S-wave (km/s) = -5.16373 2.78320 -3.07554
# Velocity P-wave (km/s) = 4.78754 5.57336 2.01765
#
# Compressibility (1/GPa) = 0.03667775
#
# Stress axis : x y z
#
# Youngs Moduli (GPa) = 48.13569 48.13569 164.34501
#
# Poissons Ratio (x) = -0.01654 0.47838
# Poissons Ratio (y) = -0.01654 0.47838
# Poissons Ratio (z) = 0.14012 0.14012
#
# Static dielectric constant tensor:
#      x y z
#    x 1.807120 0.000000 0.000000 
#    y 0.000000 1.807120 0.000000 
#    z 0.000000 0.000000 1.840450 
# 
# From -- ./inp_files/3726.got.cif
#   From: 2010.05.17/outbox.cif.g08.bks.cpg/sg189_2_cif.got.tgz:3726.got - 2010.05.20 12:14:34.
