data_PCOD9586175
_publ_section_title
;
Structure prediction by ZEFSAII (Michael W. Deem and Ramdas Pophale) SiO2 
 PCOD9586175
Probable space group: P -6 2 M
;
_chemical_formula_sum "Si O2"
_cell_formula_units_Z 48
_cell_length_a 18.480249
_cell_length_b 18.480249
_cell_length_c 7.389435
_cell_angle_alpha 90.000000
_cell_angle_beta 90.000000
_cell_angle_gamma 120.000000
_cell_volume 2185.533673
_symmetry_space_group_name_H-M "P -6 2 M"
_symmetry_group_IT_number 189
_symmetry_cell_setting 'hexagonal'
loop_
_space_group_symop_operation_xyz
x,y,z
-x+y,-x,-z
-y,x-y,z
x,y,-z
-x+y,-x,z
-y,x-y,-z
x-y,-y,-z
-x,-x+y,-z
y,x,-z
y,x,z
x-y,-y,z
-x,-x+y,z
loop_
_atom_site_type_symbol
_atom_site_label
_atom_site_fract_x
_atom_site_fract_y
_atom_site_fract_z
Si Si1 0.000000 0.205547 0.295426
Si Si2 0.371267 0.000000 0.786653
Si Si3 0.477010 0.281238 0.721542
Si Si4 0.716562 0.903051 0.278647
Si Si5 0.544871 0.163868 0.712566
O O1 0.000000 0.175826 0.500000
O O2 0.000000 0.292822 0.302284
O O3 0.909745 0.140367 0.215071
O O4 0.457774 0.079996 0.734894
O O5 0.358566 0.000000 0.000000
O O6 0.472778 0.278158 0.500000
O O7 0.380426 0.231771 0.780466
O O8 0.527705 0.235682 0.783624
O O9 0.533487 0.377090 0.781237
O O10 0.715534 0.899356 0.500000
O O11 0.760143 0.000000 0.227310
O O12 0.562095 0.182125 0.500000
#
# Coordination Sequence:
#
# PCOD9586175 Si02
#       5
#     6   6  12  12  12
#     4  10  18  36  60  78 105 144 182 227 280 329
#     4  12  24  36  52  78 109 148 192 225 260 321
#     4   9  17  29  52  81 107 133 172 223 270 323
#     4   9  17  29  49  82 112 133 168 222 279 325
#     4  10  19  34  56  82 107 138 180 226 276 328
#
# _framework density 21.962599000000001
#
# number of rings (size 3 to 8) (size 9 to 14) (size 15 to 20)
#    0.000    2.250    2.500    1.625    1.750    2.000 
#    0.750    1.250    0.000    0.750    0.000    0.000 
#    0.000    0.000    0.000    0.000    0.000    0.000 
#
# Total GULP energy -267991.216172 kJ/mol
# GULP energy per Si atom -5583.150337 kJ/mol
# Density = 2.191261 g / cm^3
# Si number density = 21.962599 Si / 1000 Ang^3
#
#
#
# Elastic Constant Matrix: (Units=GPa)
#
#
# Indices 1 2 3 4 5 6 
#
# 1 89.0733 63.0858 19.0373 0.0000 0.0000 0.0000
# 2 63.0858 89.0733 19.0373 0.0000 0.0000 0.0000
# 3 19.0373 19.0373 59.9810 0.0000 0.0000 0.0000
# 4 0.0000 0.0000 0.0000 -5.0302 0.0000 0.0000
# 5 0.0000 0.0000 0.0000 0.0000 -5.0302 0.0000
# 6 0.0000 0.0000 0.0000 0.0000 0.0000 12.9938
#
#
#
# Elastic Compliance Matrix: (Units=1/GPa)
#
#
# Indices 1 2 3 4 5 6 
#
# 1 0.022810 -0.015670 -0.002266 0.000000 0.000000 0.000000
# 2 -0.015670 0.022810 -0.002266 0.000000 0.000000 0.000000
# 3 -0.002266 -0.002266 0.018110 0.000000 0.000000 0.000000
# 4 0.000000 0.000000 0.000000 -0.198798 0.000000 0.000000
# 5 0.000000 0.000000 0.000000 0.000000 -0.198798 0.000000
# 6 0.000000 0.000000 0.000000 0.000000 0.000000 0.076960
#
#
# Mechanical properties :
#
#
# Convention : Reuss Voigt Hill
#
# Bulk Modulus (GPa) = 42.87259 48.93874 45.90566
# Shear Modulus (GPa) = -23.95467 9.71781 -7.11843
#
# Velocity S-wave (km/s) = -3.30616 2.10578 -1.80228
# Velocity P-wave (km/s) = 2.23357 5.31447 4.07630
#
# Compressibility (1/GPa) = 0.02332492
#
# Stress axis : x y z
#
# Youngs Moduli (GPa) = 43.84136 43.84136 55.21735
#
# Poissons Ratio (x) = 0.68701 0.12511
# Poissons Ratio (y) = 0.68701 0.12511
# Poissons Ratio (z) = 0.09934 0.09934
#
# Static dielectric constant tensor:
#      x y z
#    x 1.811620 0.000000 0.000000 
#    y 0.000000 1.811620 0.000000 
#    z 0.000000 0.000000 1.844460 
# 
# From -- ./inp_files/628.got.cif
#   From: 2010.05.17/outbox.cif.g08.bks.cpg/sg189_1_cif.got.tgz:628.got - 2010.05.20 12:14:34.
