data_PCOD9586684
_publ_section_title
;
Structure prediction by ZEFSAII (Michael W. Deem and Ramdas Pophale) SiO2 
 PCOD9586684
Probable space group: P -6 2 C
;
_chemical_formula_sum "Si O2"
_cell_formula_units_Z 72
_cell_length_a 24.446238
_cell_length_b 24.446238
_cell_length_c 8.654561
_cell_angle_alpha 90.000000
_cell_angle_beta 90.000000
_cell_angle_gamma 120.000000
_cell_volume 4479.192695
_symmetry_space_group_name_H-M "P -6 2 C"
_symmetry_group_IT_number 190
_symmetry_cell_setting 'hexagonal'
loop_
_space_group_symop_operation_xyz
x,y,z
-x+y,-x,1/2-z
-y,x-y,z
x,y,1/2-z
-x+y,-x,z
-y,x-y,1/2-z
x-y,-y,-z
-x,-x+y,-z
y,x,-z
y,x,1/2+z
x-y,-y,1/2+z
-x,-x+y,1/2+z
loop_
_atom_site_type_symbol
_atom_site_label
_atom_site_fract_x
_atom_site_fract_y
_atom_site_fract_z
Si Si1 0.594212 0.403847 0.437276
Si Si2 0.262763 0.742439 0.937464
Si Si3 0.931870 0.069605 0.434671
Si Si4 0.930601 0.531693 0.064179
Si Si5 0.143578 0.742050 0.065783
Si Si6 0.805649 0.069854 0.064694
O O1 0.596414 0.405405 0.250000
O O2 0.568256 0.330809 0.480532
O O3 0.665176 0.450435 0.490429
O O4 0.539902 0.419382 0.483941
O O5 0.260130 0.744771 0.750000
O O6 0.213063 0.760303 0.006467
O O7 0.934734 0.067628 0.250000
O O8 0.875834 0.083734 0.476768
O O9 0.000000 0.118814 0.500000
O O10 0.910085 0.000000 0.500000
O O11 0.931867 0.534835 0.250000
O O12 0.903060 0.575173 0.001714
O O13 0.000000 0.556415 0.000000
O O14 0.141415 0.739397 0.250000
O O15 0.119402 0.787993 0.004610
O O16 0.800408 0.068794 0.250000
O O17 0.757839 0.000000 0.000000
#
# Coordination Sequence:
#
# PCOD9586684 Si02
#       6
#    12  12  12  12  12  12
#     4   8  15  27  48  72  93 120 155 192 231 276
#     4   9  16  30  50  72  96 124 159 196 234 283
#     4  10  20  33  51  73  99 127 158 193 234 279
#     4  10  19  32  49  71  97 127 160 196 237 284
#     4  11  21  32  47  70  98 128 159 197 240 283
#     4  10  20  34  51  72  96 126 159 196 238 283
#
# _framework density 16.074325999999999
#
# number of rings (size 3 to 8) (size 9 to 14) (size 15 to 20)
#    0.000    2.333    0.000    5.000    0.000    3.333 
#    0.000    4.167    0.000    1.000    0.000    2.333 
#    0.000    0.000    0.000    0.000    0.000    0.000 
#
# Total GULP energy -401657.860643 kJ/mol
# GULP energy per Si atom -5578.581398 kJ/mol
# Density = 1.603774 g / cm^3
# Si number density = 16.074326 Si / 1000 Ang^3
#
#
#
# Elastic Constant Matrix: (Units=GPa)
#
#
# Indices 1 2 3 4 5 6 
#
# 1 124.0189 79.9845 39.9588 0.0000 0.0000 0.0000
# 2 79.9845 124.0189 39.9588 0.0000 0.0000 0.0000
# 3 39.9588 39.9588 58.9123 0.0000 0.0000 0.0000
# 4 0.0000 0.0000 0.0000 20.3631 0.0000 0.0000
# 5 0.0000 0.0000 0.0000 0.0000 20.3631 0.0000
# 6 0.0000 0.0000 0.0000 0.0000 0.0000 22.0172
#
#
#
# Elastic Compliance Matrix: (Units=1/GPa)
#
#
# Indices 1 2 3 4 5 6 
#
# 1 0.014693 -0.008017 -0.004528 0.000000 0.000000 0.000000
# 2 -0.008017 0.014693 -0.004528 0.000000 0.000000 0.000000
# 3 -0.004528 -0.004528 0.023117 0.000000 0.000000 0.000000
# 4 0.000000 0.000000 0.000000 0.049108 0.000000 0.000000
# 5 0.000000 0.000000 0.000000 0.000000 0.049108 0.000000
# 6 0.000000 0.000000 0.000000 0.000000 0.000000 0.045419
#
#
# Mechanical properties :
#
#
# Convention : Reuss Voigt Hill
#
# Bulk Modulus (GPa) = 54.47709 69.63934 62.05822
# Shear Modulus (GPa) = 21.15039 22.35188 21.75113
#
# Velocity S-wave (km/s) = 3.63131 3.73303 3.68252
# Velocity P-wave (km/s) = 7.17957 7.87389 7.53473
#
# Compressibility (1/GPa) = 0.01835634
#
# Stress axis : x y z
#
# Youngs Moduli (GPa) = 68.06145 68.06145 43.25858
#
# Poissons Ratio (x) = 0.54564 0.19587
# Poissons Ratio (y) = 0.54564 0.19587
# Poissons Ratio (z) = 0.30818 0.30818
#
# Static dielectric constant tensor:
#      x y z
#    x 1.528150 0.000000 0.000000 
#    y 0.000000 1.528150 0.000000 
#    z 0.000000 0.000000 1.541100 
# 
# From -- ./inp_files/1220.got.cif
#   From: 2010.05.17/outbox.cif.g08.bks.cpg/sg190_1_cif.got.tgz:1220.got - 2010.05.20 12:16:56.
