data_PCOD9586960
_publ_section_title
;
Structure prediction by ZEFSAII (Michael W. Deem and Ramdas Pophale) SiO2 
 PCOD9586960
Probable space group: P -6 2 C
;
_chemical_formula_sum "Si O2"
_cell_formula_units_Z 48
_cell_length_a 11.862935
_cell_length_b 11.862935
_cell_length_c 19.885572
_cell_angle_alpha 90.000000
_cell_angle_beta 90.000000
_cell_angle_gamma 120.000000
_cell_volume 2423.555787
_symmetry_space_group_name_H-M "P -6 2 C"
_symmetry_group_IT_number 190
_symmetry_cell_setting 'hexagonal'
loop_
_space_group_symop_operation_xyz
x,y,z
-x+y,-x,1/2-z
-y,x-y,z
x,y,1/2-z
-x+y,-x,z
-y,x-y,1/2-z
x-y,-y,-z
-x,-x+y,-z
y,x,-z
y,x,1/2+z
x-y,-y,1/2+z
-x,-x+y,1/2+z
loop_
_atom_site_type_symbol
_atom_site_label
_atom_site_fract_x
_atom_site_fract_y
_atom_site_fract_z
Si Si1 0.171903 0.806246 0.674102
Si Si2 0.172272 0.542674 0.250000
Si Si3 0.419017 0.419017 0.500000
Si Si4 0.467373 0.960984 0.643572
Si Si5 0.867790 0.134299 0.469728
O O1 0.166292 0.850041 0.750000
O O2 0.320679 0.847774 0.656637
O O3 0.084353 0.650559 0.670567
O O4 0.133009 0.865383 0.611183
O O5 0.230679 0.698825 0.250000
O O6 0.083503 0.483755 0.314770
O O7 0.491445 0.494058 0.566524
O O8 0.391724 0.269699 0.493503
O O9 0.000000 0.249168 0.500000
O O10 0.847866 0.000000 0.500000
#
# Coordination Sequence:
#
# PCOD9586960 Si02
#       5
#    12   6   6  12  12
#     4  11  21  37  65  94 121 171 213 277 317 394
#     4  10  24  42  62  90 126 184 202 262 334 392
#     4   8  22  38  60  92 126 170 206 274 312 398
#     4  11  21  43  62  94 134 162 230 261 340 386
#     4   9  20  39  61  88 123 164 211 258 330 376
#
# _framework density 19.805609
#
# number of rings (size 3 to 8) (size 9 to 14) (size 15 to 20)
#    1.000    1.000    2.500    0.750    1.750    2.000 
#    4.500    1.250    0.000    0.000    0.000    0.000 
#    0.000    0.000    0.000    0.000    0.000    0.000 
#
# Total GULP energy -267352.120044 kJ/mol
# GULP energy per Si atom -5569.835834 kJ/mol
# Density = 1.976053 g / cm^3
# Si number density = 19.805609 Si / 1000 Ang^3
#
#
#
# Elastic Constant Matrix: (Units=GPa)
#
#
# Indices 1 2 3 4 5 6 
#
# 1 28.3793 7.2919 27.4272 0.0000 0.0000 0.0000
# 2 7.2919 28.3793 27.4272 0.0000 0.0000 0.0000
# 3 27.4272 27.4272 198.0430 0.0000 0.0000 0.0000
# 4 0.0000 0.0000 0.0000 10.2729 0.0000 0.0000
# 5 0.0000 0.0000 0.0000 0.0000 10.2729 0.0000
# 6 0.0000 0.0000 0.0000 0.0000 0.0000 10.5437
#
#
#
# Elastic Compliance Matrix: (Units=1/GPa)
#
#
# Indices 1 2 3 4 5 6 
#
# 1 0.041521 -0.005901 -0.004933 0.000000 0.000000 0.000000
# 2 -0.005901 0.041521 -0.004933 0.000000 0.000000 0.000000
# 3 -0.004933 -0.004933 0.006416 0.000000 0.000000 0.000000
# 4 0.000000 0.000000 0.000000 0.097343 0.000000 0.000000
# 5 0.000000 0.000000 0.000000 0.000000 0.097343 0.000000
# 6 0.000000 0.000000 0.000000 0.000000 0.000000 0.094843
#
#
# Mechanical properties :
#
#
# Convention : Reuss Voigt Hill
#
# Bulk Modulus (GPa) = 17.26429 42.12157 29.69293
# Shear Modulus (GPa) = 11.63255 19.06161 15.34708
#
# Velocity S-wave (km/s) = 2.42613 3.10568 2.78670
# Velocity P-wave (km/s) = 4.07234 5.84585 5.03775
#
# Compressibility (1/GPa) = 0.05792304
#
# Stress axis : x y z
#
# Youngs Moduli (GPa) = 24.08440 24.08440 155.86611
#
# Poissons Ratio (x) = 0.14212 0.76889
# Poissons Ratio (y) = 0.14212 0.76889
# Poissons Ratio (z) = 0.11881 0.11881
#
# Static dielectric constant tensor:
#      x y z
#    x 1.701420 0.000000 0.000000 
#    y 0.000000 1.701420 0.000000 
#    z 0.000000 0.000000 1.699910 
# 
# From -- ./inp_files/4153.got.cif
#   From: 2010.05.17/outbox.cif.g08.bks.cpg/sg190_3_cif.got.tgz:4153.got - 2010.05.20 12:16:56.
