data_PCOD9586578
_publ_section_title
;
Structure prediction by ZEFSAII (Michael W. Deem and Ramdas Pophale) SiO2 
 PCOD9586578
Probable space group: P -6 2 M
;
_chemical_formula_sum "Si O2"
_cell_formula_units_Z 72
_cell_length_a 24.809263
_cell_length_b 24.809263
_cell_length_c 7.348839
_cell_angle_alpha 90.000000
_cell_angle_beta 90.000000
_cell_angle_gamma 120.000000
_cell_volume 3917.212130
_symmetry_space_group_name_H-M "P -6 2 M"
_symmetry_group_IT_number 189
_symmetry_cell_setting 'hexagonal'
loop_
_space_group_symop_operation_xyz
x,y,z
-x+y,-x,-z
-y,x-y,z
x,y,-z
-x+y,-x,z
-y,x-y,-z
x-y,-y,-z
-x,-x+y,-z
y,x,-z
y,x,z
x-y,-y,z
-x,-x+y,z
loop_
_atom_site_type_symbol
_atom_site_label
_atom_site_fract_x
_atom_site_fract_y
_atom_site_fract_z
Si Si1 0.929727 0.404387 0.221531
Si Si2 0.808698 0.404725 0.778378
Si Si3 0.524317 0.263354 0.778320
Si Si4 0.071152 0.141144 0.717831
Si Si5 0.597059 0.739472 0.778296
Si Si6 0.070934 0.263034 0.783393
O O1 0.877877 0.421781 0.279027
O O2 0.903650 0.332459 0.273652
O O3 0.000000 0.448489 0.283713
O O4 0.930486 0.405343 0.000000
O O5 0.762762 0.332871 0.725569
O O6 0.783000 0.449270 0.716584
O O7 0.808837 0.405539 0.000000
O O8 0.455025 0.211577 0.720259
O O9 0.524151 0.264061 0.000000
O O10 0.068121 0.134535 0.500000
O O11 0.114574 0.114574 0.785863
O O12 0.092844 0.212811 0.754531
O O13 0.000000 0.100285 0.786505
O O14 0.667427 0.782981 0.714495
O O15 0.597165 0.740740 0.000000
O O16 0.000000 0.231858 0.711718
O O17 0.066917 0.268731 0.000000
#
# Coordination Sequence:
#
# PCOD9586578 Si02
#       6
#    12  12  12  12  12  12
#     4   8  12  17  25  37  53  75 105 140 174 206
#     4   8  12  16  23  35  51  74 106 142 174 207
#     4   8  12  17  25  38  57  83 115 148 181 215
#     4   9  17  29  44  60  77  97 120 147 181 219
#     4   8  13  20  30  44  63  88 116 145 177 213
#     4   9  16  25  38  56  76  98 124 152 181 216
#
# _framework density 18.380417999999999
#
# number of rings (size 3 to 8) (size 9 to 14) (size 15 to 20)
#    0.000    3.667    0.000    3.000    0.000    4.333 
#    0.000    0.000    0.000    2.000    0.000    4.667 
#    0.000    0.000    0.000    6.000    0.000   40.500 
#
# Total GULP energy -401286.645427 kJ/mol
# GULP energy per Si atom -5573.425631 kJ/mol
# Density = 1.833858 g / cm^3
# Si number density = 18.380418 Si / 1000 Ang^3
#
#
#
# Elastic Constant Matrix: (Units=GPa)
#
#
# Indices 1 2 3 4 5 6 
#
# 1 173.1229 122.3482 4.3626 0.0000 0.0000 0.0000
# 2 122.3482 173.1229 4.3626 0.0000 0.0000 0.0000
# 3 4.3626 4.3626 68.0351 0.0000 0.0000 0.0000
# 4 0.0000 0.0000 0.0000 18.3621 0.0000 0.0000
# 5 0.0000 0.0000 0.0000 0.0000 18.3621 0.0000
# 6 0.0000 0.0000 0.0000 0.0000 0.0000 25.3874
#
#
#
# Elastic Compliance Matrix: (Units=1/GPa)
#
#
# Indices 1 2 3 4 5 6 
#
# 1 0.011543 -0.008152 -0.000217 0.000000 0.000000 0.000000
# 2 -0.008152 0.011543 -0.000217 0.000000 0.000000 0.000000
# 3 -0.000217 -0.000217 0.014726 0.000000 0.000000 0.000000
# 4 0.000000 0.000000 0.000000 0.054460 0.000000 0.000000
# 5 0.000000 0.000000 0.000000 0.000000 0.054460 0.000000
# 6 0.000000 0.000000 0.000000 0.000000 0.000000 0.039390
#
#
# Mechanical properties :
#
#
# Convention : Reuss Voigt Hill
#
# Bulk Modulus (GPa) = 48.45398 75.15865 61.80631
# Shear Modulus (GPa) = 23.78974 31.30281 27.54628
#
# Velocity S-wave (km/s) = 3.60154 4.13128 3.87547
# Velocity P-wave (km/s) = 6.61164 7.98349 7.32973
#
# Compressibility (1/GPa) = 0.02063814
#
# Stress axis : x y z
#
# Youngs Moduli (GPa) = 86.63379 86.63379 67.90628
#
# Poissons Ratio (x) = 0.70624 0.01477
# Poissons Ratio (y) = 0.70624 0.01477
# Poissons Ratio (z) = 0.01884 0.01884
#
# Static dielectric constant tensor:
#      x y z
#    x 1.618900 0.000000 0.000000 
#    y 0.000000 1.618900 0.000000 
#    z 0.000000 0.000000 1.713170 
# 
# From -- ./inp_files/1240.got.cif
#   From: 2010.05.17/outbox.cif.g08.bks.cpg/sg189_1_cif.got.tgz:1240.got - 2010.05.20 12:14:34.
