data_PCOD9586766
_publ_section_title
;
Structure prediction by ZEFSAII (Michael W. Deem and Ramdas Pophale) SiO2 
 PCOD9586766
Probable space group: P -6 2 C
;
_chemical_formula_sum "Si O2"
_cell_formula_units_Z 72
_cell_length_a 24.336709
_cell_length_b 24.336709
_cell_length_c 8.655748
_cell_angle_alpha 90.000000
_cell_angle_beta 90.000000
_cell_angle_gamma 120.000000
_cell_volume 4439.754275
_symmetry_space_group_name_H-M "P -6 2 C"
_symmetry_group_IT_number 190
_symmetry_cell_setting 'hexagonal'
loop_
_space_group_symop_operation_xyz
x,y,z
-x+y,-x,1/2-z
-y,x-y,z
x,y,1/2-z
-x+y,-x,z
-y,x-y,1/2-z
x-y,-y,-z
-x,-x+y,-z
y,x,-z
y,x,1/2+z
x-y,-y,1/2+z
-x,-x+y,1/2+z
loop_
_atom_site_type_symbol
_atom_site_label
_atom_site_fract_x
_atom_site_fract_y
_atom_site_fract_z
Si Si1 0.070012 0.597337 0.434428
Si Si2 0.812515 0.407442 0.063930
Si Si3 0.260028 0.190031 0.065444
Si Si4 0.859949 0.929433 0.064860
Si Si5 0.742621 0.262092 0.436716
Si Si6 0.144363 0.745368 0.434996
O O1 0.068313 0.594639 0.250000
O O2 0.119620 0.577169 0.495639
O O3 0.098941 0.671302 0.480259
O O4 0.000000 0.555427 0.500000
O O5 0.816949 0.409115 0.250000
O O6 0.784469 0.335004 0.014175
O O7 0.764808 0.433456 0.022341
O O8 0.254256 0.187726 0.250000
O O9 0.239081 0.239081 0.000000
O O10 0.209270 0.122151 0.994825
O O11 0.331236 0.212906 0.013661
O O12 0.861607 0.930884 0.250000
O O13 0.882396 0.882396 0.000000
O O14 0.907232 0.000000 0.000000
O O15 0.745875 0.259125 0.250000
O O16 0.762414 0.214259 0.510736
O O17 0.142378 0.750140 0.250000
#
# Coordination Sequence:
#
# PCOD9586766 Si02
#       6
#    12  12  12  12  12  12
#     4  10  20  32  48  70  97 128 163 200 243 289
#     4   9  17  30  49  72  99 128 161 197 238 286
#     4  11  21  34  52  75 101 131 165 203 246 293
#     4  11  21  35  53  76 104 134 167 203 244 290
#     4   9  17  30  49  73  99 130 163 199 241 290
#     4  10  20  33  49  72 100 131 164 202 245 292
#
# _framework density 16.217115
#
# number of rings (size 3 to 8) (size 9 to 14) (size 15 to 20)
#    0.000    2.000    0.000    6.000    0.000    5.333 
#    0.000    0.000    0.000    3.000    0.000    2.333 
#    0.000    0.000    0.000    0.000    0.000    0.000 
#
# Total GULP energy -401965.395018 kJ/mol
# GULP energy per Si atom -5582.852709 kJ/mol
# Density = 1.618020 g / cm^3
# Si number density = 16.217115 Si / 1000 Ang^3
#
#
#
# Elastic Constant Matrix: (Units=GPa)
#
#
# Indices 1 2 3 4 5 6 
#
# 1 125.0180 81.5517 50.2867 0.0000 0.0000 0.0000
# 2 81.5517 125.0180 50.2867 0.0000 0.0000 0.0000
# 3 50.2867 50.2867 89.2003 0.0000 0.0000 0.0000
# 4 0.0000 0.0000 0.0000 25.8250 0.0000 0.0000
# 5 0.0000 0.0000 0.0000 0.0000 25.8250 0.0000
# 6 0.0000 0.0000 0.0000 0.0000 0.0000 21.7331
#
#
#
# Elastic Compliance Matrix: (Units=1/GPa)
#
#
# Indices 1 2 3 4 5 6 
#
# 1 0.014839 -0.008167 -0.003762 0.000000 0.000000 0.000000
# 2 -0.008167 0.014839 -0.003762 0.000000 0.000000 0.000000
# 3 -0.003762 -0.003762 0.015452 0.000000 0.000000 0.000000
# 4 0.000000 0.000000 0.000000 0.038722 0.000000 0.000000
# 5 0.000000 0.000000 0.000000 0.000000 0.038722 0.000000
# 6 0.000000 0.000000 0.000000 0.000000 0.000000 0.046013
#
#
# Mechanical properties :
#
#
# Convention : Reuss Voigt Hill
#
# Bulk Modulus (GPa) = 72.72508 78.16519 75.44514
# Shear Modulus (GPa) = 24.44373 25.15069 24.79721
#
# Velocity S-wave (km/s) = 3.88658 3.94238 3.91458
# Velocity P-wave (km/s) = 8.06738 8.30825 8.18870
#
# Compressibility (1/GPa) = 0.01375042
#
# Stress axis : x y z
#
# Youngs Moduli (GPa) = 67.38834 67.38834 64.71699
#
# Poissons Ratio (x) = 0.55036 0.24344
# Poissons Ratio (y) = 0.55036 0.24344
# Poissons Ratio (z) = 0.25349 0.25349
#
# Static dielectric constant tensor:
#      x y z
#    x 1.526230 0.000000 0.000000 
#    y 0.000000 1.526230 0.000000 
#    z 0.000000 0.000000 1.544090 
# 
# From -- ./inp_files/1180.got.cif
#   From: 2010.05.17/outbox.cif.g08.bks.cpg/sg190_1_cif.got.tgz:1180.got - 2010.05.20 12:16:56.
