data_PCOD9586329
_publ_section_title
;
Structure prediction by ZEFSAII (Michael W. Deem and Ramdas Pophale) SiO2 
 PCOD9586329
Probable space group: P -6 2 M
;
_chemical_formula_sum "Si O2"
_cell_formula_units_Z 72
_cell_length_a 24.757717
_cell_length_b 24.757717
_cell_length_c 7.489501
_cell_angle_alpha 90.000000
_cell_angle_beta 90.000000
_cell_angle_gamma 120.000000
_cell_volume 3975.618505
_symmetry_space_group_name_H-M "P -6 2 M"
_symmetry_group_IT_number 189
_symmetry_cell_setting 'hexagonal'
loop_
_space_group_symop_operation_xyz
x,y,z
-x+y,-x,-z
-y,x-y,z
x,y,-z
-x+y,-x,z
-y,x-y,-z
x-y,-y,-z
-x,-x+y,-z
y,x,-z
y,x,z
x-y,-y,z
-x,-x+y,z
loop_
_atom_site_type_symbol
_atom_site_label
_atom_site_fract_x
_atom_site_fract_y
_atom_site_fract_z
Si Si1 0.070751 0.466957 0.211446
Si Si2 0.809420 0.402634 0.714302
Si Si3 0.525170 0.265907 0.719189
Si Si4 0.071778 0.141858 0.717652
Si Si5 0.598123 0.748363 0.292710
Si Si6 0.928416 0.191854 0.281590
O O1 0.120178 0.539808 0.243002
O O2 0.102665 0.428735 0.286847
O O3 0.000000 0.440153 0.277808
O O4 0.067532 0.457348 0.000000
O O5 0.805412 0.401622 0.500000
O O6 0.762825 0.331469 0.774334
O O7 0.784613 0.447916 0.778668
O O8 0.524643 0.265384 0.500000
O O9 0.455890 0.215706 0.782172
O O10 0.072495 0.141817 0.500000
O O11 0.116638 0.116638 0.779520
O O12 0.088483 0.211012 0.772964
O O13 0.000000 0.095447 0.770226
O O14 0.604467 0.766726 0.500000
O O15 0.667180 0.784356 0.214866
O O16 0.928250 0.192885 0.500000
O O17 0.000000 0.238226 0.227932
#
# Coordination Sequence:
#
# PCOD9586329 Si02
#       6
#    12  12  12  12  12  12
#     4  10  20  31  42  60  86 111 138 175 211 240
#     4   9  16  28  46  65  86 111 137 164 201 251
#     4   8  14  24  41  63  81 100 128 162 196 235
#     4   8  12  17  26  43  70 104 137 166 198 237
#     4   9  16  27  44  63  83 108 136 166 204 251
#     4   8  13  20  32  52  76 103 136 168 196 234
#
# _framework density 18.110389999999999
#
# number of rings (size 3 to 8) (size 9 to 14) (size 15 to 20)
#    0.000    3.333    0.000    3.500    0.000    4.000 
#    0.000    3.333    0.000    1.000    0.000    4.667 
#    0.000    0.667    0.000    0.500    0.000    5.333 
#
# Total GULP energy -401223.584989 kJ/mol
# GULP energy per Si atom -5572.549792 kJ/mol
# Density = 1.806917 g / cm^3
# Si number density = 18.110390 Si / 1000 Ang^3
#
#
#
# Elastic Constant Matrix: (Units=GPa)
#
#
# Indices 1 2 3 4 5 6 
#
# 1 149.4102 97.2977 -1.4491 0.0000 0.0000 0.0000
# 2 97.2977 149.4102 -1.4491 0.0000 0.0000 0.0000
# 3 -1.4491 -1.4491 48.4748 0.0000 0.0000 0.0000
# 4 0.0000 0.0000 0.0000 3041.8281 -0.0011 0.0000
# 5 0.0000 0.0000 0.0000 -0.0011 3041.8294 0.0000
# 6 0.0000 0.0000 0.0000 0.0000 0.0000 26.0562
#
#
#
# Elastic Compliance Matrix: (Units=1/GPa)
#
#
# Indices 1 2 3 4 5 6 
#
# 1 0.011622 -0.007567 0.000121 0.000000 0.000000 0.000000
# 2 -0.007567 0.011622 0.000121 0.000000 0.000000 0.000000
# 3 0.000121 0.000121 0.020637 0.000000 0.000000 0.000000
# 4 0.000000 0.000000 0.000000 0.000329 0.000000 0.000000
# 5 0.000000 0.000000 0.000000 0.000000 0.000329 0.000000
# 6 0.000000 0.000000 0.000000 0.000000 0.000000 0.038379
#
#
# Mechanical properties :
#
#
# Convention : Reuss Voigt Hill
#
# Bulk Modulus (GPa) = 34.21026 59.56601 46.88814
# Shear Modulus (GPa) = 46.59403 1238.80246 642.69824
#
# Velocity S-wave (km/s) = 5.07776 26.18231 18.85865
# Velocity P-wave (km/s) = 7.30131 30.77304 22.36391
#
# Compressibility (1/GPa) = 0.02923099
#
# Stress axis : x y z
#
# Youngs Moduli (GPa) = 86.04348 86.04348 48.45776
#
# Poissons Ratio (x) = 0.65111 -0.00587
# Poissons Ratio (y) = 0.65111 -0.00587
# Poissons Ratio (z) = -0.01043 -0.01043
#
# Static dielectric constant tensor:
#      x y z
#    x 1.615400 0.000000 0.000000 
#    y 0.000000 1.615400 0.000000 
#    z 0.000000 0.000000 1.665280 
# 
# From -- ./inp_files/1239.got.cif
#   From: 2010.05.17/outbox.cif.g08.bks.cpg/sg189_1_cif.got.tgz:1239.got - 2010.05.20 12:14:34.
