data_PCOD9586609
_publ_section_title
;
Structure prediction by ZEFSAII (Michael W. Deem and Ramdas Pophale) SiO2 
 PCOD9586609
Probable space group: P -6 2 C
;
_chemical_formula_sum "Si O2"
_cell_formula_units_Z 72
_cell_length_a 24.273611
_cell_length_b 24.273611
_cell_length_c 8.640821
_cell_angle_alpha 90.000000
_cell_angle_beta 90.000000
_cell_angle_gamma 120.000000
_cell_volume 4409.145350
_symmetry_space_group_name_H-M "P -6 2 C"
_symmetry_group_IT_number 190
_symmetry_cell_setting 'hexagonal'
loop_
_space_group_symop_operation_xyz
x,y,z
-x+y,-x,1/2-z
-y,x-y,z
x,y,1/2-z
-x+y,-x,z
-y,x-y,1/2-z
x-y,-y,-z
-x,-x+y,-z
y,x,-z
y,x,1/2+z
x-y,-y,1/2+z
-x,-x+y,1/2+z
loop_
_atom_site_type_symbol
_atom_site_label
_atom_site_fract_x
_atom_site_fract_y
_atom_site_fract_z
Si Si1 0.363903 0.071366 0.935311
Si Si2 0.288868 0.360233 0.063560
Si Si3 0.927616 0.405768 0.434266
Si Si4 0.143485 0.071759 0.064823
Si Si5 0.072245 0.590837 0.435672
Si Si6 0.144038 0.857466 0.062779
O O1 0.367869 0.068811 0.750000
O O2 0.327239 0.108771 0.976048
O O3 0.434756 0.100384 0.004090
O O4 0.322730 0.000000 0.000000
O O5 0.289504 0.357752 0.250000
O O6 0.335469 0.434451 0.021307
O O7 0.216064 0.326827 0.013197
O O8 0.320291 0.320291 0.000000
O O9 0.929948 0.407012 0.250000
O O10 0.898002 0.448171 0.494661
O O11 0.000000 0.441710 0.500000
O O12 0.139957 0.070059 0.250000
O O13 0.109762 0.109762 0.000000
O O14 0.216882 0.107076 0.011378
O O15 0.107303 0.000000 0.000000
O O16 0.070566 0.584943 0.250000
O O17 0.000000 0.556491 0.500000
O O18 0.138704 0.859757 0.250000
#
# Coordination Sequence:
#
# PCOD9586609 Si02
#       6
#    12  12  12  12  12  12
#     4  10  19  31  47  66  93 125 158 195 237 286
#     4   9  18  31  47  68  95 126 158 193 234 283
#     4  10  17  26  42  64  91 119 150 183 218 264
#     4  12  25  41  59  77  97 124 164 216 271 324
#     4   9  15  25  42  64  91 120 149 179 217 261
#     4  10  21  36  52  73 100 130 164 202 250 306
#
# _framework density 16.329695000000001
#
# number of rings (size 3 to 8) (size 9 to 14) (size 15 to 20)
#    0.000    2.000    0.000    7.167    0.000    5.333 
#    0.000    0.000    0.000    0.000    0.000    0.000 
#    1.667    0.000    3.000    0.000    1.000    0.000 
#
# Total GULP energy -401459.955777 kJ/mol
# GULP energy per Si atom -5575.832719 kJ/mol
# Density = 1.629253 g / cm^3
# Si number density = 16.329695 Si / 1000 Ang^3
#
#
#
# Elastic Constant Matrix: (Units=GPa)
#
#
# Indices 1 2 3 4 5 6 
#
# 1 127.1592 79.8765 49.5134 0.0000 0.0000 0.0000
# 2 79.8765 127.1592 49.5134 0.0000 0.0000 0.0000
# 3 49.5134 49.5134 81.6434 0.0000 0.0000 0.0000
# 4 0.0000 0.0000 0.0000 18.6875 0.0000 0.0000
# 5 0.0000 0.0000 0.0000 0.0000 18.6875 0.0000
# 6 0.0000 0.0000 0.0000 0.0000 0.0000 23.6414
#
#
#
# Elastic Compliance Matrix: (Units=1/GPa)
#
#
# Indices 1 2 3 4 5 6 
#
# 1 0.013977 -0.007173 -0.004126 0.000000 0.000000 0.000000
# 2 -0.007173 0.013977 -0.004126 0.000000 0.000000 0.000000
# 3 -0.004126 -0.004126 0.017253 0.000000 0.000000 0.000000
# 4 0.000000 0.000000 0.000000 0.053512 0.000000 0.000000
# 5 0.000000 0.000000 0.000000 0.000000 0.053512 0.000000
# 6 0.000000 0.000000 0.000000 0.000000 0.000000 0.042299
#
#
# Mechanical properties :
#
#
# Convention : Reuss Voigt Hill
#
# Bulk Modulus (GPa) = 69.65821 77.08536 73.37178
# Shear Modulus (GPa) = 21.72366 22.67384 22.19875
#
# Velocity S-wave (km/s) = 3.65131 3.73031 3.69102
# Velocity P-wave (km/s) = 7.77985 8.11552 7.94946
#
# Compressibility (1/GPa) = 0.01435581
#
# Stress axis : x y z
#
# Youngs Moduli (GPa) = 71.54858 71.54858 57.96074
#
# Poissons Ratio (x) = 0.51321 0.23915
# Poissons Ratio (y) = 0.51321 0.23915
# Poissons Ratio (z) = 0.29522 0.29522
#
# Static dielectric constant tensor:
#      x y z
#    x 1.560200 0.000000 0.000000 
#    y 0.000000 1.560200 0.000000 
#    z 0.000000 0.000000 1.549150 
# 
# From -- ./inp_files/1248.got.cif
#   From: 2010.05.17/outbox.cif.g08.bks.cpg/sg190_1_cif.got.tgz:1248.got - 2010.05.20 12:16:56.
