data_PCOD9586030
_publ_section_title
;
Structure prediction by ZEFSAII (Michael W. Deem and Ramdas Pophale) SiO2 
 PCOD9586030
Probable space group: P -6 C 2
;
_chemical_formula_sum "Si O2"
_cell_formula_units_Z 60
_cell_length_a 9.524605
_cell_length_b 9.524605
_cell_length_c 28.736865
_cell_angle_alpha 90.000000
_cell_angle_beta 90.000000
_cell_angle_gamma 120.000000
_cell_volume 2257.688221
_symmetry_space_group_name_H-M "P -6 C 2"
_symmetry_group_IT_number 188
_symmetry_cell_setting 'hexagonal'
loop_
_space_group_symop_operation_xyz
x,y,z
-x+y,-x,1/2-z
-y,x-y,z
x,y,1/2-z
-x+y,-x,z
-y,x-y,1/2-z
-y,-x,-z
-x+y,y,-z
x,x-y,-z
-x+y,y,1/2+z
x,x-y,1/2+z
-y,-x,1/2+z
loop_
_atom_site_type_symbol
_atom_site_label
_atom_site_fract_x
_atom_site_fract_y
_atom_site_fract_z
Si Si1 0.580129 0.946260 0.972351
Si Si2 0.851333 0.608411 0.837234
Si Si3 0.029530 0.596138 0.199173
Si Si4 0.742787 0.630653 0.933781
Si Si5 0.612650 0.798424 0.117842
O O1 0.521533 0.859695 0.920975
O O2 0.759579 0.094572 0.959776
O O3 0.564458 0.782229 0.000000
O O4 0.580681 0.032355 0.032112
O O5 0.758672 0.672155 0.805570
O O6 0.748645 0.543364 0.885944
O O7 0.898988 0.491119 0.810452
O O8 0.025071 0.747241 0.853365
O O9 0.103082 0.618886 0.250000
O O10 0.150927 0.673235 0.156002
O O11 0.733945 0.779182 0.912551
#
# Coordination Sequence:
#
# PCOD9586030 Si02
#       5
#    12  12  12  12  12
#     4  10  21  41  70 103 148 196 247 298 374 457
#     4  10  23  44  73 103 150 191 255 320 388 459
#     4  11  24  45  75 109 146 198 263 330 394 457
#     4   9  21  41  66 104 144 188 243 294 378 455
#     4  10  23  43  68 102 152 192 247 314 387 465
#
# _framework density 26.575856999999999
#
# number of rings (size 3 to 8) (size 9 to 14) (size 15 to 20)
#    0.000    2.000    0.000    1.600   11.200    1.600 
#   38.400    0.000    0.000    0.000    0.000    0.000 
#    0.000    0.000    0.000    0.000    0.000    0.000 
#
# Total GULP energy -334212.302820 kJ/mol
# GULP energy per Si atom -5570.205047 kJ/mol
# Density = 2.651537 g / cm^3
# Si number density = 26.575857 Si / 1000 Ang^3
#
#
#
# Elastic Constant Matrix: (Units=GPa)
#
#
# Indices 1 2 3 4 5 6 
#
# 1 118.8406 31.6818 61.5253 0.0000 0.0000 0.0000
# 2 31.6818 118.8406 61.5253 0.0000 0.0000 0.0000
# 3 61.5253 61.5253 230.1870 0.0000 0.0000 0.0000
# 4 0.0000 0.0000 0.0000 22.3603 0.0000 0.0000
# 5 0.0000 0.0000 0.0000 0.0000 22.3603 0.0000
# 6 0.0000 0.0000 0.0000 0.0000 0.0000 43.5794
#
#
#
# Elastic Compliance Matrix: (Units=1/GPa)
#
#
# Indices 1 2 3 4 5 6 
#
# 1 0.009987 -0.001486 -0.002272 0.000000 0.000000 0.000000
# 2 -0.001486 0.009987 -0.002272 0.000000 0.000000 0.000000
# 3 -0.002272 -0.002272 0.005559 0.000000 0.000000 0.000000
# 4 0.000000 0.000000 0.000000 0.044722 0.000000 0.000000
# 5 0.000000 0.000000 0.000000 0.000000 0.044722 0.000000
# 6 0.000000 0.000000 0.000000 0.000000 0.000000 0.022947
#
#
# Mechanical properties :
#
#
# Convention : Reuss Voigt Hill
#
# Bulk Modulus (GPa) = 74.22678 86.37032 80.29855
# Shear Modulus (GPa) = 32.36754 38.53574 35.45164
#
# Velocity S-wave (km/s) = 3.49367 3.81205 3.65633
# Velocity P-wave (km/s) = 6.65320 7.20734 6.93581
#
# Compressibility (1/GPa) = 0.01347223
#
# Stress axis : x y z
#
# Youngs Moduli (GPa) = 100.12854 100.12854 179.89068
#
# Poissons Ratio (x) = 0.14881 0.40875
# Poissons Ratio (y) = 0.14881 0.40875
# Poissons Ratio (z) = 0.22751 0.22751
#
# Static dielectric constant tensor:
#      x y z
#    x 2.134060 0.000000 0.000000 
#    y 0.000000 2.134060 0.000000 
#    z 0.000000 0.000000 2.213150 
# 
# From -- ./inp_files/4449.got.cif
#   From: 2010.05.17/outbox.cif.g08.bks.cpg/sg188_3_cif.got.tgz:4449.got - 2010.05.20 12:11:46.
