data_PCOD9586583
_publ_section_title
;
Structure prediction by ZEFSAII (Michael W. Deem and Ramdas Pophale) SiO2 
 PCOD9586583
Probable space group: P -6 2 M
;
_chemical_formula_sum "Si O2"
_cell_formula_units_Z 48
_cell_length_a 15.169210
_cell_length_b 15.169210
_cell_length_c 11.023416
_cell_angle_alpha 90.000000
_cell_angle_beta 90.000000
_cell_angle_gamma 120.000000
_cell_volume 2196.710147
_symmetry_space_group_name_H-M "P -6 2 M"
_symmetry_group_IT_number 189
_symmetry_cell_setting 'hexagonal'
loop_
_space_group_symop_operation_xyz
x,y,z
-x+y,-x,-z
-y,x-y,z
x,y,-z
-x+y,-x,z
-y,x-y,-z
x-y,-y,-z
-x,-x+y,-z
y,x,-z
y,x,z
x-y,-y,z
-x,-x+y,z
loop_
_atom_site_type_symbol
_atom_site_label
_atom_site_fract_x
_atom_site_fract_y
_atom_site_fract_z
Si Si1 0.571532 0.121524 0.130490
Si Si2 0.446026 0.786040 0.371888
Si Si3 0.123548 0.365242 0.134217
Si Si4 0.243816 0.122001 0.637851
O O1 0.643691 0.158885 0.245909
O O2 0.481699 0.148850 0.140620
O O3 0.515346 0.000000 0.128914
O O4 0.622786 0.161504 0.000000
O O5 0.326816 0.757515 0.373718
O O6 0.493123 0.838553 0.500000
O O7 0.153379 0.324446 0.252933
O O8 0.000000 0.300550 0.134138
O O9 0.156191 0.347719 0.000000
O O10 0.287417 0.140112 0.500000
O O11 0.181104 0.181104 0.649294
O O12 0.167864 0.000000 0.647474
#
# Coordination Sequence:
#
# PCOD9586583 Si02
#       4
#    12  12  12  12
#     4   9  17  29  47  72  97 120 151 191 232 276
#     4   8  17  32  48  70  99 125 152 187 227 272
#     4   8  15  27  40  57  83 110 138 178 223 264
#     4   9  16  25  37  54  77 106 142 184 228 273
#
# _framework density 21.850857999999999
#
# number of rings (size 3 to 8) (size 9 to 14) (size 15 to 20)
#    0.500    3.000    0.000    1.750    0.000    4.000 
#    0.000    2.500    0.000    3.000    0.000    0.000 
#    0.000    0.000    0.000    0.000    0.000    0.000 
#
# Total GULP energy -267434.086672 kJ/mol
# GULP energy per Si atom -5571.543472 kJ/mol
# Density = 2.180112 g / cm^3
# Si number density = 21.850858 Si / 1000 Ang^3
#
#
#
# Elastic Constant Matrix: (Units=GPa)
#
#
# Indices 1 2 3 4 5 6 
#
# 1 67.1316 24.1013 59.2378 0.0000 0.0000 0.0000
# 2 24.1013 67.1316 59.2378 0.0000 0.0000 0.0000
# 3 59.2378 59.2378 249.6214 0.0000 0.0000 0.0000
# 4 0.0000 0.0000 0.0000 -5.0262 0.0000 0.0000
# 5 0.0000 0.0000 0.0000 0.0000 -5.0262 0.0000
# 6 0.0000 0.0000 0.0000 0.0000 0.0000 21.5151
#
#
#
# Elastic Compliance Matrix: (Units=1/GPa)
#
#
# Indices 1 2 3 4 5 6 
#
# 1 0.019541 -0.003698 -0.003760 0.000000 0.000000 0.000000
# 2 -0.003698 0.019541 -0.003760 0.000000 0.000000 0.000000
# 3 -0.003760 -0.003760 0.005791 0.000000 0.000000 0.000000
# 4 0.000000 0.000000 0.000000 -0.198959 0.000000 0.000000
# 5 0.000000 0.000000 0.000000 0.000000 -0.198959 0.000000
# 6 0.000000 0.000000 0.000000 0.000000 0.000000 0.046479
#
#
# Mechanical properties :
#
#
# Convention : Reuss Voigt Hill
#
# Bulk Modulus (GPa) = 44.56679 74.33761 59.45220
# Shear Modulus (GPa) = -18.07335 18.37974 0.15319
#
# Velocity S-wave (km/s) = -2.87910 2.90340 0.26507
# Velocity P-wave (km/s) = 3.06397 6.73305 5.23077
#
# Compressibility (1/GPa) = 0.02243823
#
# Stress axis : x y z
#
# Youngs Moduli (GPa) = 51.17322 51.17322 172.69483
#
# Poissons Ratio (x) = 0.18924 0.64930
# Poissons Ratio (y) = 0.18924 0.64930
# Poissons Ratio (z) = 0.19240 0.19240
#
# Static dielectric constant tensor:
#      x y z
#    x 1.790260 0.000000 0.000000 
#    y 0.000000 1.790260 0.000000 
#    z 0.000000 0.000000 1.861050 
# 
# From -- ./inp_files/758.got.cif
#   From: 2010.05.17/outbox.cif.g08.bks.cpg/sg189_1_cif.got.tgz:758.got - 2010.05.20 12:14:34.
