data_PCOD9586320
_publ_section_title
;
Structure prediction by ZEFSAII (Michael W. Deem and Ramdas Pophale) SiO2 
 PCOD9586320
Probable space group: P -6 2 M
;
_chemical_formula_sum "Si O2"
_cell_formula_units_Z 72
_cell_length_a 15.333296
_cell_length_b 15.333296
_cell_length_c 18.439421
_cell_angle_alpha 90.000000
_cell_angle_beta 90.000000
_cell_angle_gamma 120.000000
_cell_volume 3754.472700
_symmetry_space_group_name_H-M "P -6 2 M"
_symmetry_group_IT_number 189
_symmetry_cell_setting 'hexagonal'
loop_
_space_group_symop_operation_xyz
x,y,z
-x+y,-x,-z
-y,x-y,z
x,y,-z
-x+y,-x,z
-y,x-y,-z
x-y,-y,-z
-x,-x+y,-z
y,x,-z
y,x,z
x-y,-y,z
-x,-x+y,z
loop_
_atom_site_type_symbol
_atom_site_label
_atom_site_fract_x
_atom_site_fract_y
_atom_site_fract_z
Si Si1 0.662575 0.774494 0.866087
Si Si2 0.237560 0.880056 0.580166
Si Si3 0.881348 0.119439 0.285515
Si Si4 0.878988 0.551651 0.920749
Si Si5 0.469916 0.586578 0.805903
Si Si6 0.341737 0.782489 0.652275
O O1 0.742811 0.742811 0.893804
O O2 0.701133 0.825182 0.787131
O O3 0.634703 0.845534 0.911203
O O4 0.557467 0.671332 0.855116
O O5 0.197326 0.839462 0.500000
O O6 0.157941 0.844964 0.645675
O O7 0.325559 0.857143 0.602388
O O8 0.286685 0.000000 0.578095
O O9 0.000000 0.157288 0.295861
O O10 0.817247 0.000000 0.277664
O O11 0.843350 0.473943 0.853762
O O12 0.000000 0.606523 0.918965
O O13 0.844790 0.502493 0.000000
O O14 0.510413 0.510413 0.783641
O O15 0.460729 0.641196 0.734966
O O16 0.242521 0.673142 0.639291
#
# Coordination Sequence:
#
# PCOD9586320 Si02
#       6
#    12  12  12  12  12  12
#     4  10  20  36  60  85 113 153 196 237 284 344
#     4  10  21  39  60  82 114 154 193 238 293 347
#     4  10  20  36  59  88 118 151 192 240 292 349
#     4  10  22  38  56  83 119 153 189 240 293 340
#     4  10  19  35  58  81 111 146 188 234 285 344
#     4  10  21  34  56  83 110 146 190 237 283 340
#
# _framework density 19.177126999999999
#
# number of rings (size 3 to 8) (size 9 to 14) (size 15 to 20)
#    0.333    1.667    1.667    2.167    0.000    2.000 
#    1.000    2.500    0.000    1.333    0.000    0.000 
#    0.000    0.000    0.000    0.000    0.000    0.000 
#
# Total GULP energy -401192.744207 kJ/mol
# GULP energy per Si atom -5572.121447 kJ/mol
# Density = 1.913348 g / cm^3
# Si number density = 19.177127 Si / 1000 Ang^3
#
#
#
# Elastic Constant Matrix: (Units=GPa)
#
#
# Indices 1 2 3 4 5 6 
#
# 1 52.2653 13.1815 18.9964 0.0000 0.0000 0.0000
# 2 13.1815 52.2653 18.9964 0.0000 0.0000 0.0000
# 3 18.9964 18.9964 53.9020 0.0000 0.0000 0.0000
# 4 0.0000 0.0000 0.0000 15.9054 0.0000 0.0000
# 5 0.0000 0.0000 0.0000 0.0000 15.9054 0.0000
# 6 0.0000 0.0000 0.0000 0.0000 0.0000 19.5419
#
#
#
# Elastic Compliance Matrix: (Units=1/GPa)
#
#
# Indices 1 2 3 4 5 6 
#
# 1 0.022398 -0.003188 -0.006770 0.000000 0.000000 0.000000
# 2 -0.003188 0.022398 -0.006770 0.000000 0.000000 0.000000
# 3 -0.006770 -0.006770 0.023324 0.000000 0.000000 0.000000
# 4 0.000000 0.000000 0.000000 0.062872 0.000000 0.000000
# 5 0.000000 0.000000 0.000000 0.000000 0.062872 0.000000
# 6 0.000000 0.000000 0.000000 0.000000 0.000000 0.051172
#
#
# Mechanical properties :
#
#
# Convention : Reuss Voigt Hill
#
# Bulk Modulus (GPa) = 28.84887 28.97573 28.91230
# Shear Modulus (GPa) = 17.23864 17.42108 17.32986
#
# Velocity S-wave (km/s) = 3.00145 3.01729 3.00938
# Velocity P-wave (km/s) = 5.20458 5.22312 5.21386
#
# Compressibility (1/GPa) = 0.03466340
#
# Stress axis : x y z
#
# Youngs Moduli (GPa) = 44.64717 44.64717 42.87431
#
# Poissons Ratio (x) = 0.14234 0.29026
# Poissons Ratio (y) = 0.14234 0.29026
# Poissons Ratio (z) = 0.30226 0.30226
#
# Static dielectric constant tensor:
#      x y z
#    x 1.673990 0.000000 0.000000 
#    y 0.000000 1.673990 0.000000 
#    z 0.000000 0.000000 1.684140 
# 
# From -- ./inp_files/3106.got.cif
#   From: 2010.05.17/outbox.cif.g08.bks.cpg/sg189_2_cif.got.tgz:3106.got - 2010.05.20 12:14:34.
