data_PCOD9586536
_publ_section_title
;
Structure prediction by ZEFSAII (Michael W. Deem and Ramdas Pophale) SiO2 
 PCOD9586536
Probable space group: P -6 2 M
;
_chemical_formula_sum "Si O2"
_cell_formula_units_Z 48
_cell_length_a 17.802064
_cell_length_b 17.802064
_cell_length_c 8.823553
_cell_angle_alpha 90.000000
_cell_angle_beta 90.000000
_cell_angle_gamma 120.000000
_cell_volume 2421.669357
_symmetry_space_group_name_H-M "P -6 2 M"
_symmetry_group_IT_number 189
_symmetry_cell_setting 'hexagonal'
loop_
_space_group_symop_operation_xyz
x,y,z
-x+y,-x,-z
-y,x-y,z
x,y,-z
-x+y,-x,z
-y,x-y,-z
x-y,-y,-z
-x,-x+y,-z
y,x,-z
y,x,z
x-y,-y,z
-x,-x+y,z
loop_
_atom_site_type_symbol
_atom_site_label
_atom_site_fract_x
_atom_site_fract_y
_atom_site_fract_z
Si Si1 0.363013 0.000000 0.669742
Si Si2 0.449116 0.617718 0.676242
Si Si3 0.000000 0.207727 0.177657
Si Si4 0.898152 0.713070 0.318941
Si Si5 0.479429 0.280712 0.819473
O O1 0.327909 0.000000 0.500000
O O2 0.373631 0.916661 0.681696
O O3 0.297424 0.000000 0.791626
O O4 0.426385 0.619443 0.500000
O O5 0.377459 0.529471 0.752817
O O6 0.462088 0.702176 0.763714
O O7 0.089024 0.224689 0.253891
O O8 0.000000 0.191415 0.000000
O O9 0.885964 0.705617 0.500000
O O10 0.842656 0.617285 0.247749
O O11 0.000000 0.753580 0.285662
O O12 0.475022 0.280454 0.000000
#
# Coordination Sequence:
#
# PCOD9586536 Si02
#       5
#     6  12   6  12  12
#     4  10  22  40  66  92 121 166 221 262 306 384
#     4  11  23  41  64  91 125 172 221 262 311 384
#     4  12  24  42  72 102 133 166 209 270 338 396
#     4  11  25  46  71  97 130 174 222 268 323 397
#     4  12  25  41  63  96 135 171 214 273 331 380
#
# _framework density 19.821037
#
# number of rings (size 3 to 8) (size 9 to 14) (size 15 to 20)
#    0.000    0.750    2.500    5.375    1.750    3.000 
#    0.750    0.000    0.000    0.000    0.000    0.000 
#    0.000    0.000    0.000    0.000    0.000    0.000 
#
# Total GULP energy -268553.472800 kJ/mol
# GULP energy per Si atom -5594.864017 kJ/mol
# Density = 1.977592 g / cm^3
# Si number density = 19.821037 Si / 1000 Ang^3
#
#
#
# Elastic Constant Matrix: (Units=GPa)
#
#
# Indices 1 2 3 4 5 6 
#
# 1 76.4509 29.2529 42.2706 0.0000 0.0000 0.0000
# 2 29.2529 76.4509 42.2706 0.0000 0.0000 0.0000
# 3 42.2706 42.2706 143.2444 0.0000 0.0000 0.0000
# 4 0.0000 0.0000 0.0000 20.5269 0.0000 0.0000
# 5 0.0000 0.0000 0.0000 0.0000 20.5269 0.0000
# 6 0.0000 0.0000 0.0000 0.0000 0.0000 23.5990
#
#
#
# Elastic Compliance Matrix: (Units=1/GPa)
#
#
# Indices 1 2 3 4 5 6 
#
# 1 0.016785 -0.004402 -0.003654 0.000000 0.000000 0.000000
# 2 -0.004402 0.016785 -0.003654 0.000000 0.000000 0.000000
# 3 -0.003654 -0.003654 0.009138 0.000000 0.000000 0.000000
# 4 0.000000 0.000000 0.000000 0.048717 0.000000 0.000000
# 5 0.000000 0.000000 0.000000 0.000000 0.048717 0.000000
# 6 0.000000 0.000000 0.000000 0.000000 0.000000 0.042375
#
#
# Mechanical properties :
#
#
# Convention : Reuss Voigt Hill
#
# Bulk Modulus (GPa) = 51.84821 58.19269 55.02045
# Shear Modulus (GPa) = 23.54428 25.08737 24.31583
#
# Velocity S-wave (km/s) = 3.45025 3.56152 3.50633
# Velocity P-wave (km/s) = 6.48747 6.80701 6.64916
#
# Compressibility (1/GPa) = 0.01928707
#
# Stress axis : x y z
#
# Youngs Moduli (GPa) = 59.57649 59.57649 109.43671
#
# Poissons Ratio (x) = 0.26227 0.39990
# Poissons Ratio (y) = 0.26227 0.39990
# Poissons Ratio (z) = 0.21770 0.21770
#
# Static dielectric constant tensor:
#      x y z
#    x 1.699110 0.000000 0.000000 
#    y 0.000000 1.699110 0.000000 
#    z 0.000000 0.000000 1.671200 
# 
# From -- ./inp_files/652.got.cif
#   From: 2010.05.17/outbox.cif.g08.bks.cpg/sg189_1_cif.got.tgz:652.got - 2010.05.20 12:14:34.
