data_PCOD9586274
_publ_section_title
;
Structure prediction by ZEFSAII (Michael W. Deem and Ramdas Pophale) SiO2 
 PCOD9586274
Probable space group: P -6 2 M
;
_chemical_formula_sum "Si O2"
_cell_formula_units_Z 72
_cell_length_a 26.091295
_cell_length_b 26.091295
_cell_length_c 7.965488
_cell_angle_alpha 90.000000
_cell_angle_beta 90.000000
_cell_angle_gamma 120.000000
_cell_volume 4696.067056
_symmetry_space_group_name_H-M "P -6 2 M"
_symmetry_group_IT_number 189
_symmetry_cell_setting 'hexagonal'
loop_
_space_group_symop_operation_xyz
x,y,z
-x+y,-x,-z
-y,x-y,z
x,y,-z
-x+y,-x,z
-y,x-y,-z
x-y,-y,-z
-x,-x+y,-z
y,x,-z
y,x,z
x-y,-y,z
-x,-x+y,z
loop_
_atom_site_type_symbol
_atom_site_label
_atom_site_fract_x
_atom_site_fract_y
_atom_site_fract_z
Si Si1 0.828549 0.250703 0.298109
Si Si2 0.564351 0.634889 0.193798
Si Si3 0.071778 0.513769 0.500000
Si Si4 0.331900 0.566800 0.817214
Si Si5 0.428449 0.287152 0.809411
Si Si6 0.436667 0.365831 0.500000
Si Si7 0.224222 0.557428 0.688408
O O1 0.827510 0.246430 0.500000
O O2 0.894871 0.294709 0.235267
O O3 0.782914 0.185722 0.228076
O O4 0.800703 0.291918 0.247755
O O5 0.606939 0.606939 0.208396
O O6 0.512679 0.599554 0.333381
O O7 0.543031 0.626200 0.000000
O O8 0.091293 0.583711 0.500000
O O9 0.000000 0.480684 0.500000
O O10 0.315507 0.499534 0.801813
O O11 0.294411 0.581677 0.689347
O O12 0.400568 0.610536 0.795301
O O13 0.312269 0.575253 0.000000
O O14 0.418151 0.323089 0.662914
O O15 0.412625 0.294659 0.000000
O O16 0.401746 0.401746 0.500000
O O17 0.203680 0.556287 0.500000
#
# Coordination Sequence:
#
# PCOD9586274 Si02
#       7
#    12  12   6  12  12   6  12
#     4  10  19  33  52  70  92 120 149 183 227 277
#     4  10  20  33  51  74  99 127 156 187 228 279
#     4   9  20  35  48  68  96 122 154 195 234 278
#     4  10  20  31  42  58  82 108 138 178 218 267
#     4  10  22  37  53  71  92 117 148 188 235 284
#     4  11  24  39  56  72  91 118 155 199 241 288
#     4  10  20  29  43  59  77 107 139 175 218 268
#
# _framework density 15.331979
#
# number of rings (size 3 to 8) (size 9 to 14) (size 15 to 20)
#    0.000    2.000    1.667    1.833    4.667    3.000 
#    0.000    1.667    0.000    0.000    0.000    0.000 
#    0.000    0.000    0.000    0.000    0.000    0.000 
#
# Total GULP energy -401225.134886 kJ/mol
# GULP energy per Si atom -5572.571318 kJ/mol
# Density = 1.529708 g / cm^3
# Si number density = 15.331979 Si / 1000 Ang^3
#
#
#
# Elastic Constant Matrix: (Units=GPa)
#
#
# Indices 1 2 3 4 5 6 
#
# 1 50.1163 15.1636 34.1779 0.0000 0.0000 0.0000
# 2 15.1636 50.1163 34.1779 0.0000 0.0000 0.0000
# 3 34.1779 34.1779 111.1629 0.0000 0.0000 0.0000
# 4 0.0000 0.0000 0.0000 14.3899 0.0000 0.0000
# 5 0.0000 0.0000 0.0000 0.0000 14.3899 0.0000
# 6 0.0000 0.0000 0.0000 0.0000 0.0000 17.4764
#
#
#
# Elastic Compliance Matrix: (Units=1/GPa)
#
#
# Indices 1 2 3 4 5 6 
#
# 1 0.025601 -0.003009 -0.006946 0.000000 0.000000 0.000000
# 2 -0.003009 0.025601 -0.006946 0.000000 0.000000 0.000000
# 3 -0.006946 -0.006946 0.013267 0.000000 0.000000 0.000000
# 4 0.000000 0.000000 0.000000 0.069493 0.000000 0.000000
# 5 0.000000 0.000000 0.000000 0.000000 0.069493 0.000000
# 6 0.000000 0.000000 0.000000 0.000000 0.000000 0.057220
#
#
# Mechanical properties :
#
#
# Convention : Reuss Voigt Hill
#
# Bulk Modulus (GPa) = 32.60860 42.04827 37.32844
# Shear Modulus (GPa) = 16.40956 17.77630 17.09293
#
# Velocity S-wave (km/s) = 3.27507 3.40873 3.34257
# Velocity P-wave (km/s) = 5.96791 6.55571 6.26870
#
# Compressibility (1/GPa) = 0.03066676
#
# Stress axis : x y z
#
# Youngs Moduli (GPa) = 39.06089 39.06089 75.37447
#
# Poissons Ratio (x) = 0.11753 0.52356
# Poissons Ratio (y) = 0.11753 0.52356
# Poissons Ratio (z) = 0.27132 0.27132
#
# Static dielectric constant tensor:
#      x y z
#    x 1.546630 0.000000 0.000000 
#    y 0.000000 1.546630 0.000000 
#    z 0.000000 0.000000 1.547740 
# 
# From -- ./inp_files/1352.got.cif
#   From: 2010.05.17/outbox.cif.g08.bks.cpg/sg189_1_cif.got.tgz:1352.got - 2010.05.20 12:14:34.
