data_PCOD9586037
_publ_section_title
;
Structure prediction by ZEFSAII (Michael W. Deem and Ramdas Pophale) SiO2 
 PCOD9586037
Probable space group: P -6 C 2
;
_chemical_formula_sum "Si O2"
_cell_formula_units_Z 84
_cell_length_a 18.114865
_cell_length_b 18.114865
_cell_length_c 15.125201
_cell_angle_alpha 90.000000
_cell_angle_beta 90.000000
_cell_angle_gamma 120.000000
_cell_volume 4298.352122
_symmetry_space_group_name_H-M "P -6 C 2"
_symmetry_group_IT_number 188
_symmetry_cell_setting 'hexagonal'
loop_
_space_group_symop_operation_xyz
x,y,z
-x+y,-x,1/2-z
-y,x-y,z
x,y,1/2-z
-x+y,-x,z
-y,x-y,1/2-z
-y,-x,-z
-x+y,y,-z
x,x-y,-z
-x+y,y,1/2+z
x,x-y,1/2+z
-y,-x,1/2+z
loop_
_atom_site_type_symbol
_atom_site_label
_atom_site_fract_x
_atom_site_fract_y
_atom_site_fract_z
Si Si1 0.834448 0.070167 0.610675
Si Si2 0.648446 0.511554 0.518032
Si Si3 0.238287 0.352890 0.150364
Si Si4 0.389448 0.942340 0.515839
Si Si5 0.065877 0.714455 0.844244
Si Si6 0.011892 0.842704 0.061841
Si Si7 0.805090 0.230569 0.353492
O O1 0.828181 0.151166 0.641143
O O2 0.933628 0.093012 0.617014
O O3 0.752221 0.990328 0.653980
O O4 0.810834 0.042603 0.508733
O O5 0.588052 0.411949 0.500000
O O6 0.590342 0.550867 0.546768
O O7 0.693809 0.552231 0.424015
O O8 0.715043 0.531724 0.596483
O O9 0.269520 0.356292 0.250000
O O10 0.313245 0.415320 0.085683
O O11 0.163664 0.375785 0.151299
O O12 0.190178 0.254962 0.116311
O O13 0.452372 0.904744 0.500000
O O14 0.346669 0.948430 0.425126
O O15 0.046285 0.668414 0.750000
O O16 0.075226 0.924775 0.000000
O O17 0.803309 0.252145 0.250000
#
# Coordination Sequence:
#
# PCOD9586037 Si02
#       7
#    12  12  12  12  12  12  12
#     4  11  21  35  62  89 119 167 222 265 308 359
#     4  10  22  39  58  86 119 150 197 259 305 359
#     4  11  22  38  61  90 126 162 202 253 311 378
#     4  11  22  39  64  89 119 153 196 254 313 374
#     4  11  22  39  65  92 125 165 207 259 312 373
#     4  11  20  37  57  86 126 173 219 265 309 360
#     4  11  22  39  63  86 116 162 208 253 312 375
#
# _framework density 19.542373000000001
#
# number of rings (size 3 to 8) (size 9 to 14) (size 15 to 20)
#    0.000    1.143    4.286    3.429    0.000    4.000 
#    6.857    2.857    0.000    2.286    0.000    0.000 
#    0.000    0.000    0.000    0.000    0.000    0.000 
#
# Total GULP energy -467827.386562 kJ/mol
# GULP energy per Si atom -5569.373650 kJ/mol
# Density = 1.949789 g / cm^3
# Si number density = 19.542373 Si / 1000 Ang^3
#
#
#
# Elastic Constant Matrix: (Units=GPa)
#
#
# Indices 1 2 3 4 5 6 
#
# 1 88.3247 38.8674 33.8939 0.0001 0.0000 0.0000
# 2 38.8674 88.3247 33.8939 -0.0001 0.0000 0.0000
# 3 33.8939 33.8939 115.8503 0.0000 0.0000 0.0000
# 4 0.0001 -0.0001 0.0000 -7.4219 0.0000 0.0000
# 5 0.0000 0.0000 0.0000 0.0000 -7.4219 0.0001
# 6 0.0000 0.0000 0.0000 0.0000 0.0001 24.7287
#
#
#
# Elastic Compliance Matrix: (Units=1/GPa)
#
#
# Indices 1 2 3 4 5 6 
#
# 1 0.014767 -0.005452 -0.002725 0.000000 0.000000 0.000000
# 2 -0.005452 0.014767 -0.002725 0.000000 0.000000 0.000000
# 3 -0.002725 -0.002725 0.010226 0.000000 0.000000 0.000000
# 4 0.000000 0.000000 0.000000 -0.134736 0.000000 0.000000
# 5 0.000000 0.000000 0.000000 0.000000 -0.134736 0.000000
# 6 0.000000 0.000000 0.000000 0.000000 0.000000 0.040439
#
#
# Mechanical properties :
#
#
# Convention : Reuss Voigt Hill
#
# Bulk Modulus (GPa) = 55.69501 56.20111 55.94806
# Shear Modulus (GPa) = -30.96327 14.36659 -8.29834
#
# Velocity S-wave (km/s) = -3.98479 2.71431 -2.06290
# Velocity P-wave (km/s) = 2.71847 6.21645 4.79762
#
# Compressibility (1/GPa) = 0.01795493
#
# Stress axis : x y z
#
# Youngs Moduli (GPa) = 67.71871 67.71871 97.78633
#
# Poissons Ratio (x) = 0.36924 0.26648
# Poissons Ratio (y) = 0.36924 0.26648
# Poissons Ratio (z) = 0.18454 0.18454
#
# Static dielectric constant tensor:
#      x y z
#    x 1.725360 0.000000 0.000000 
#    y 0.000000 1.725360 0.000000 
#    z 0.000000 0.000000 1.739680 
# 
# From -- ./inp_files/2622.got.cif
#   From: 2010.05.17/outbox.cif.g08.bks.cpg/sg188_2_cif.got.tgz:2622.got - 2010.05.20 12:11:46.
