data_PCOD9586851
_publ_section_title
;
Structure prediction by ZEFSAII (Michael W. Deem and Ramdas Pophale) SiO2 
 PCOD9586851
Probable space group: P -6 2 C
;
_chemical_formula_sum "Si O2"
_cell_formula_units_Z 42
_cell_length_a 10.905285
_cell_length_b 10.905285
_cell_length_c 18.865326
_cell_angle_alpha 90.000000
_cell_angle_beta 90.000000
_cell_angle_gamma 120.000000
_cell_volume 1942.982934
_symmetry_space_group_name_H-M "P -6 2 C"
_symmetry_group_IT_number 190
_symmetry_cell_setting 'hexagonal'
loop_
_space_group_symop_operation_xyz
x,y,z
-x+y,-x,1/2-z
-y,x-y,z
x,y,1/2-z
-x+y,-x,z
-y,x-y,1/2-z
x-y,-y,-z
-x,-x+y,-z
y,x,-z
y,x,1/2+z
x-y,-y,1/2+z
-x,-x+y,1/2+z
loop_
_atom_site_type_symbol
_atom_site_label
_atom_site_fract_x
_atom_site_fract_y
_atom_site_fract_z
Si Si1 0.934692 0.256815 0.405074
Si Si2 0.698858 0.942946 0.091797
Si Si3 0.494603 0.494603 0.000000
Si Si4 0.384682 0.015241 0.750000
Si Si5 0.617549 0.916235 0.250000
O O1 0.823038 0.098566 0.428849
O O2 0.912418 0.370134 0.449552
O O3 0.089884 0.278894 0.420671
O O4 0.942423 0.295626 0.321332
O O5 0.555965 0.919686 0.054310
O O6 0.698035 0.961481 0.176267
O O7 0.534324 0.022332 0.750000
O O8 0.434423 0.183098 0.750000
#
# Coordination Sequence:
#
# PCOD9586851 Si02
#       5
#    12  12   6   6   6
#     4  11  24  45  70  99 131 172 223 276 331 389
#     4  11  24  45  70  99 131 172 223 276 331 389
#     4  12  24  42  62  96 136 174 212 260 324 402
#     4  10  20  40  66  98 132 169 217 272 332 390
#     4  10  20  40  66  98 132 169 217 272 332 390
#
# _framework density 21.616249
#
# number of rings (size 3 to 8) (size 9 to 14) (size 15 to 20)
#    0.000    1.143    2.857    3.429    0.000    0.000 
#   13.714    5.714    0.000    0.000    0.000    0.000 
#    0.000    0.000    0.000    0.000    0.000    0.000 
#
# Total GULP energy -234403.297076 kJ/mol
# GULP energy per Si atom -5581.030883 kJ/mol
# Density = 2.156705 g / cm^3
# Si number density = 21.616249 Si / 1000 Ang^3
#
#
#
# Elastic Constant Matrix: (Units=GPa)
#
#
# Indices 1 2 3 4 5 6 
#
# 1 89.6567 48.2063 20.9187 0.0000 0.0000 0.0000
# 2 48.2063 89.6567 20.9187 0.0000 0.0000 0.0000
# 3 20.9187 20.9187 144.4374 0.0000 0.0000 0.0000
# 4 0.0000 0.0000 0.0000 53.2499 0.0000 0.0000
# 5 0.0000 0.0000 0.0000 0.0000 53.2499 0.0000
# 6 0.0000 0.0000 0.0000 0.0000 0.0000 20.7252
#
#
#
# Elastic Compliance Matrix: (Units=1/GPa)
#
#
# Indices 1 2 3 4 5 6 
#
# 1 0.015856 -0.008269 -0.001099 0.000000 0.000000 0.000000
# 2 -0.008269 0.015856 -0.001099 0.000000 0.000000 0.000000
# 3 -0.001099 -0.001099 0.007242 0.000000 0.000000 0.000000
# 4 0.000000 0.000000 0.000000 0.018779 0.000000 0.000000
# 5 0.000000 0.000000 0.000000 0.000000 0.018779 0.000000
# 6 0.000000 0.000000 0.000000 0.000000 0.000000 0.048250
#
#
# Mechanical properties :
#
#
# Convention : Reuss Voigt Hill
#
# Bulk Modulus (GPa) = 55.49240 55.98202 55.73721
# Shear Modulus (GPa) = 32.95903 41.02546 36.99225
#
# Velocity S-wave (km/s) = 3.90902 4.36121 4.14129
# Velocity P-wave (km/s) = 6.78979 7.16342 6.97911
#
# Compressibility (1/GPa) = 0.01802048
#
# Stress axis : x y z
#
# Youngs Moduli (GPa) = 63.06710 63.06710 138.08924
#
# Poissons Ratio (x) = 0.52151 0.15174
# Poissons Ratio (y) = 0.52151 0.15174
# Poissons Ratio (z) = 0.06930 0.06930
#
# Static dielectric constant tensor:
#      x y z
#    x 1.764500 0.000000 0.000000 
#    y 0.000000 1.764500 0.000000 
#    z 0.000000 0.000000 1.889360 
# 
# From -- ./inp_files/4105.got.cif
#   From: 2010.05.17/outbox.cif.g08.bks.cpg/sg190_3_cif.got.tgz:4105.got - 2010.05.20 12:16:56.
