data_PCOD9586302
_publ_section_title
;
Structure prediction by ZEFSAII (Michael W. Deem and Ramdas Pophale) SiO2 
 PCOD9586302
Probable space group: P -6 2 M
;
_chemical_formula_sum "Si O2"
_cell_formula_units_Z 66
_cell_length_a 23.220335
_cell_length_b 23.220335
_cell_length_c 7.925050
_cell_angle_alpha 90.000000
_cell_angle_beta 90.000000
_cell_angle_gamma 120.000000
_cell_volume 3700.578358
_symmetry_space_group_name_H-M "P -6 2 M"
_symmetry_group_IT_number 189
_symmetry_cell_setting 'hexagonal'
loop_
_space_group_symop_operation_xyz
x,y,z
-x+y,-x,-z
-y,x-y,z
x,y,-z
-x+y,-x,z
-y,x-y,-z
x-y,-y,-z
-x,-x+y,-z
y,x,-z
y,x,z
x-y,-y,z
-x,-x+y,z
loop_
_atom_site_type_symbol
_atom_site_label
_atom_site_fract_x
_atom_site_fract_y
_atom_site_fract_z
Si Si1 0.655816 0.579649 0.203606
Si Si2 0.242806 0.166460 0.198331
Si Si3 0.185487 0.384495 0.795152
Si Si4 0.922900 0.075966 0.500000
Si Si5 0.701099 0.225694 0.804654
Si Si6 0.807318 0.366914 0.693875
O O1 0.616439 0.616439 0.265953
O O2 0.732962 0.613045 0.261594
O O3 0.623961 0.502061 0.250610
O O4 0.656727 0.583424 0.000000
O O5 0.225784 0.225784 0.213542
O O6 0.317295 0.185238 0.244152
O O7 0.195264 0.111324 0.331599
O O8 0.231280 0.145294 0.000000
O O9 0.251194 0.450518 0.734778
O O10 0.186164 0.389707 0.000000
O O11 0.000000 0.126735 0.500000
O O12 0.906638 0.000000 0.500000
O O13 0.748297 0.305555 0.794231
O O14 0.631333 0.200154 0.715140
O O15 0.686039 0.206226 0.000000
O O16 0.797007 0.345965 0.500000
#
# Coordination Sequence:
#
# PCOD9586302 Si02
#       6
#    12  12  12   6  12  12
#     4   9  18  34  54  73  99 139 179 214 258 314
#     4   9  18  35  57  80 109 142 177 220 267 314
#     4   8  16  32  54  78 101 130 173 221 262 305
#     4  10  21  36  54  80 110 142 176 212 258 312
#     4  10  19  34  54  73  97 135 179 217 260 319
#     4  11  21  33  49  75 107 134 165 215 273 316
#
# _framework density 17.835049000000001
#
# number of rings (size 3 to 8) (size 9 to 14) (size 15 to 20)
#    0.000    2.545    0.000    3.727    0.000    1.455 
#    8.182    2.727    0.000    4.364    0.000    0.000 
#    0.000    0.000    0.000    0.000    0.000    0.000 
#
# Total GULP energy -367865.770254 kJ/mol
# GULP energy per Si atom -5573.723792 kJ/mol
# Density = 1.779446 g / cm^3
# Si number density = 17.835049 Si / 1000 Ang^3
#
#
#
# Elastic Constant Matrix: (Units=GPa)
#
#
# Indices 1 2 3 4 5 6 
#
# 1 121.7374 95.2349 20.6339 0.0000 0.0000 0.0000
# 2 95.2349 121.7374 20.6339 0.0000 0.0000 0.0000
# 3 20.6339 20.6339 47.0303 0.0000 0.0000 0.0000
# 4 0.0000 0.0000 0.0000 5.3624 0.0000 0.0000
# 5 0.0000 0.0000 0.0000 0.0000 5.3624 0.0000
# 6 0.0000 0.0000 0.0000 0.0000 0.0000 13.2513
#
#
#
# Elastic Compliance Matrix: (Units=1/GPa)
#
#
# Indices 1 2 3 4 5 6 
#
# 1 0.021380 -0.016352 -0.002206 0.000000 0.000000 0.000000
# 2 -0.016352 0.021380 -0.002206 0.000000 0.000000 0.000000
# 3 -0.002206 -0.002206 0.023199 0.000000 0.000000 0.000000
# 4 0.000000 0.000000 0.000000 0.186483 0.000000 0.000000
# 5 0.000000 0.000000 0.000000 0.000000 0.186483 0.000000
# 6 0.000000 0.000000 0.000000 0.000000 0.000000 0.075465
#
#
# Mechanical properties :
#
#
# Convention : Reuss Voigt Hill
#
# Bulk Modulus (GPa) = 40.93162 62.61230 51.77196
# Shear Modulus (GPa) = 8.86428 15.06205 11.96316
#
# Velocity S-wave (km/s) = 2.23180 2.90921 2.59273
# Velocity P-wave (km/s) = 5.44437 6.81669 6.16881
#
# Compressibility (1/GPa) = 0.02443099
#
# Stress axis : x y z
#
# Youngs Moduli (GPa) = 46.77185 46.77185 43.10580
#
# Poissons Ratio (x) = 0.76481 0.09510
# Poissons Ratio (y) = 0.76481 0.09510
# Poissons Ratio (z) = 0.10319 0.10319
#
# Static dielectric constant tensor:
#      x y z
#    x 1.601940 0.000000 0.000000 
#    y 0.000000 1.601940 0.000000 
#    z 0.000000 0.000000 1.615850 
# 
# From -- ./inp_files/1031.got.cif
#   From: 2010.05.17/outbox.cif.g08.bks.cpg/sg189_1_cif.got.tgz:1031.got - 2010.05.20 12:14:34.
