data_PCOD9586640
_publ_section_title
;
Structure prediction by ZEFSAII (Michael W. Deem and Ramdas Pophale) SiO2 
 PCOD9586640
Probable space group: P -6 2 C
;
_chemical_formula_sum "Si O2"
_cell_formula_units_Z 72
_cell_length_a 14.200758
_cell_length_b 14.200758
_cell_length_c 22.774601
_cell_angle_alpha 90.000000
_cell_angle_beta 90.000000
_cell_angle_gamma 120.000000
_cell_volume 3977.447554
_symmetry_space_group_name_H-M "P -6 2 C"
_symmetry_group_IT_number 190
_symmetry_cell_setting 'hexagonal'
loop_
_space_group_symop_operation_xyz
x,y,z
-x+y,-x,1/2-z
-y,x-y,z
x,y,1/2-z
-x+y,-x,z
-y,x-y,1/2-z
x-y,-y,-z
-x,-x+y,-z
y,x,-z
y,x,1/2+z
x-y,-y,1/2+z
-x,-x+y,1/2+z
loop_
_atom_site_type_symbol
_atom_site_label
_atom_site_fract_x
_atom_site_fract_y
_atom_site_fract_z
Si Si1 0.660601 0.785084 0.124141
Si Si2 0.851239 0.790166 0.446836
Si Si3 0.446030 0.155676 0.507032
Si Si4 0.757844 0.940393 0.750000
Si Si5 0.258924 0.063639 0.750000
Si Si6 0.276122 0.302510 0.623804
Si Si7 0.517080 0.893507 0.534511
O O1 0.777330 0.807454 0.100060
O O2 0.573868 0.702889 0.076540
O O3 0.665746 0.759161 0.192109
O O4 0.655005 0.895821 0.121211
O O5 0.872948 0.872948 0.500000
O O6 0.778576 0.672508 0.477839
O O7 0.942456 0.775088 0.414372
O O8 0.514627 0.112020 0.472769
O O9 0.498500 0.283428 0.495704
O O10 0.780408 0.840229 0.750000
O O11 0.696891 0.936377 0.690076
O O12 0.862694 0.062933 0.750000
O O13 0.335561 0.423350 0.596789
O O14 0.605306 0.000000 0.500000
#
# Coordination Sequence:
#
# PCOD9586640 Si02
#       7
#    12  12  12   6   6  12  12
#     4  10  18  34  50  79 113 152 193 234 280 351
#     4   9  18  30  49  76 113 142 187 232 287 348
#     4  10  21  34  57  83 109 146 192 243 311 359
#     4  10  19  34  52  81 115 167 207 236 286 356
#     4  10  19  30  56  75 117 159 203 234 274 348
#     4  10  20  33  54  79 117 158 194 236 294 353
#     4  11  20  37  59  84 117 150 191 254 312 368
#
# _framework density 18.102060999999999
#
# number of rings (size 3 to 8) (size 9 to 14) (size 15 to 20)
#    0.000    2.000    3.333    2.000    0.000    0.000 
#    1.000    0.000    0.000    9.000    0.000    0.000 
#    0.000    0.000    0.000    0.000    0.000    0.000 
#
# Total GULP energy -401091.661571 kJ/mol
# GULP energy per Si atom -5570.717522 kJ/mol
# Density = 1.806086 g / cm^3
# Si number density = 18.102061 Si / 1000 Ang^3
#
#
#
# Elastic Constant Matrix: (Units=GPa)
#
#
# Indices 1 2 3 4 5 6 
#
# 1 63.4874 15.2707 33.1117 0.0000 0.0000 0.0000
# 2 15.2707 63.4874 33.1117 0.0000 0.0000 0.0000
# 3 33.1117 33.1117 154.2529 0.0000 0.0000 0.0000
# 4 0.0000 0.0000 0.0000 20.2124 0.0000 0.0000
# 5 0.0000 0.0000 0.0000 0.0000 20.2124 0.0000
# 6 0.0000 0.0000 0.0000 0.0000 0.0000 24.1084
#
#
#
# Elastic Compliance Matrix: (Units=1/GPa)
#
#
# Indices 1 2 3 4 5 6 
#
# 1 0.018117 -0.002623 -0.003326 0.000000 0.000000 0.000000
# 2 -0.002623 0.018117 -0.003326 0.000000 0.000000 0.000000
# 3 -0.003326 -0.003326 0.007911 0.000000 0.000000 0.000000
# 4 0.000000 0.000000 0.000000 0.049475 0.000000 0.000000
# 5 0.000000 0.000000 0.000000 0.000000 0.049475 0.000000
# 6 0.000000 0.000000 0.000000 0.000000 0.000000 0.041479
#
#
# Mechanical properties :
#
#
# Convention : Reuss Voigt Hill
#
# Bulk Modulus (GPa) = 39.07072 49.35730 44.21401
# Shear Modulus (GPa) = 23.62352 26.22221 24.92287
#
# Velocity S-wave (km/s) = 3.61642 3.81015 3.71455
# Velocity P-wave (km/s) = 6.25048 6.83239 6.54790
#
# Compressibility (1/GPa) = 0.02559461
#
# Stress axis : x y z
#
# Youngs Moduli (GPa) = 55.19778 55.19778 126.41104
#
# Poissons Ratio (x) = 0.14479 0.42042
# Poissons Ratio (y) = 0.14479 0.42042
# Poissons Ratio (z) = 0.18358 0.18358
#
# Static dielectric constant tensor:
#      x y z
#    x 1.658030 0.000000 0.000000 
#    y 0.000000 1.658030 0.000000 
#    z 0.000000 0.000000 1.648220 
# 
# From -- ./inp_files/4396.got.cif
#   From: 2010.05.17/outbox.cif.g08.bks.cpg/sg190_3_cif.got.tgz:4396.got - 2010.05.20 12:16:56.
