data_PCOD9586000
_publ_section_title
;
Structure prediction by ZEFSAII (Michael W. Deem and Ramdas Pophale) SiO2 
 PCOD9586000
Probable space group: P -6 C 2
;
_chemical_formula_sum "Si O2"
_cell_formula_units_Z 58
_cell_length_a 14.550027
_cell_length_b 14.550027
_cell_length_c 15.137624
_cell_angle_alpha 90.000000
_cell_angle_beta 90.000000
_cell_angle_gamma 120.000000
_cell_volume 2775.338395
_symmetry_space_group_name_H-M "P -6 C 2"
_symmetry_group_IT_number 188
_symmetry_cell_setting 'hexagonal'
loop_
_space_group_symop_operation_xyz
x,y,z
-x+y,-x,1/2-z
-y,x-y,z
x,y,1/2-z
-x+y,-x,z
-y,x-y,1/2-z
-y,-x,-z
-x+y,y,-z
x,x-y,-z
-x+y,y,1/2+z
x,x-y,1/2+z
-y,-x,1/2+z
loop_
_atom_site_type_symbol
_atom_site_label
_atom_site_fract_x
_atom_site_fract_y
_atom_site_fract_z
Si Si1 0.000367 0.626091 0.648778
Si Si2 0.459504 0.677437 0.750000
Si Si3 0.179968 0.401992 0.591736
Si Si4 0.611867 0.509757 0.855073
Si Si5 0.666667 0.333333 0.143120
Si Si6 0.949043 0.703516 0.476777
O O1 0.962697 0.619836 0.750000
O O2 0.114328 0.732058 0.637632
O O3 0.987155 0.511084 0.628760
O O4 0.940245 0.646246 0.569998
O O5 0.343459 0.573868 0.750000
O O6 0.527882 0.690766 0.663716
O O7 0.231157 0.462314 0.500000
O O8 0.070977 0.298890 0.558567
O O9 0.629688 0.525940 0.750000
O O10 0.620510 0.407998 0.883630
O O11 0.703576 0.609585 0.905333
O O12 0.666667 0.333334 0.250000
O O13 0.879221 0.758441 0.500000
#
# Coordination Sequence:
#
# PCOD9586000 Si02
#       6
#    12   6  12  12   4  12
#     4  10  21  40  62  88 124 169 215 278 346 416
#     4  10  24  38  64  98 140 184 234 284 340 424
#     4  10  23  41  63  90 132 176 228 288 346 415
#     4  10  21  34  61  89 132 173 218 266 330 402
#     4   9  18  36  52  89 131 173 214 264 313 395
#     4  11  24  39  60  93 125 174 230 281 342 405
#
# _framework density 20.898353
#
# number of rings (size 3 to 8) (size 9 to 14) (size 15 to 20)
#    0.207    1.655    1.034    1.862    4.345    3.310 
#    0.000    2.069    0.000   11.172    0.000    0.000 
#    0.000    0.000    0.000    0.000    0.000    0.000 
#
# Total GULP energy -323041.420865 kJ/mol
# GULP energy per Si atom -5569.679670 kJ/mol
# Density = 2.085079 g / cm^3
# Si number density = 20.898353 Si / 1000 Ang^3
#
#
#
# Elastic Constant Matrix: (Units=GPa)
#
#
# Indices 1 2 3 4 5 6 
#
# 1 108.2716 50.3342 24.3598 -0.0001 0.0000 0.0001
# 2 50.3342 108.2720 24.3599 0.0001 0.0000 0.0001
# 3 24.3598 24.3599 121.4000 0.0000 0.0000 0.0000
# 4 -0.0001 0.0001 0.0000 23.8979 0.0000 0.0000
# 5 0.0000 0.0000 0.0000 0.0000 23.8978 -0.0001
# 6 0.0001 0.0001 0.0000 0.0000 -0.0001 28.9689
#
#
#
# Elastic Compliance Matrix: (Units=1/GPa)
#
#
# Indices 1 2 3 4 5 6 
#
# 1 0.011990 -0.005270 -0.001348 0.000000 0.000000 0.000000
# 2 -0.005270 0.011989 -0.001348 0.000000 0.000000 0.000000
# 3 -0.001348 -0.001348 0.008778 0.000000 0.000000 0.000000
# 4 0.000000 0.000000 0.000000 0.041845 0.000000 0.000000
# 5 0.000000 0.000000 0.000000 0.000000 0.041845 0.000000
# 6 0.000000 0.000000 0.000000 0.000000 0.000000 0.034520
#
#
# Mechanical properties :
#
#
# Convention : Reuss Voigt Hill
#
# Bulk Modulus (GPa) = 59.44063 59.56127 59.50095
# Shear Modulus (GPa) = 28.98409 31.27888 30.13148
#
# Velocity S-wave (km/s) = 3.72816 3.87294 3.80124
# Velocity P-wave (km/s) = 6.85833 6.96863 6.91370
#
# Compressibility (1/GPa) = 0.01682351
#
# Stress axis : x y z
#
# Youngs Moduli (GPa) = 83.40607 83.40638 113.91722
#
# Poissons Ratio (x) = 0.43959 0.15359
# Poissons Ratio (y) = 0.43959 0.15359
# Poissons Ratio (z) = 0.11245 0.11245
#
# Static dielectric constant tensor:
#      x y z
#    x 1.803590 0.000000 0.000000 
#    y 0.000000 1.803590 0.000000 
#    z 0.000000 0.000000 1.775420 
# 
# From -- ./inp_files/2336.got.cif
#   From: 2010.05.17/outbox.cif.g08.bks.cpg/sg188_2_cif.got.tgz:2336.got - 2010.05.20 12:11:46.
