data_PCOD9586163
_publ_section_title
;
Structure prediction by ZEFSAII (Michael W. Deem and Ramdas Pophale) SiO2 
 PCOD9586163
Probable space group: P -6 2 M
;
_chemical_formula_sum "Si O2"
_cell_formula_units_Z 60
_cell_length_a 20.851374
_cell_length_b 20.851374
_cell_length_c 7.450113
_cell_angle_alpha 90.000000
_cell_angle_beta 90.000000
_cell_angle_gamma 120.000000
_cell_volume 2805.193654
_symmetry_space_group_name_H-M "P -6 2 M"
_symmetry_group_IT_number 189
_symmetry_cell_setting 'hexagonal'
loop_
_space_group_symop_operation_xyz
x,y,z
-x+y,-x,-z
-y,x-y,z
x,y,-z
-x+y,-x,z
-y,x-y,-z
x-y,-y,-z
-x,-x+y,-z
y,x,-z
y,x,z
x-y,-y,z
-x,-x+y,z
loop_
_atom_site_type_symbol
_atom_site_label
_atom_site_fract_x
_atom_site_fract_y
_atom_site_fract_z
Si Si1 0.000000 0.327779 0.283132
Si Si2 0.752689 0.248405 0.779022
Si Si3 0.668232 0.819990 0.792381
Si Si4 0.525236 0.525236 0.713178
Si Si5 0.416049 0.582484 0.211871
Si Si6 0.830405 0.915295 0.780264
O O1 0.000000 0.326374 0.500000
O O2 0.073109 0.328842 0.216268
O O3 0.000000 0.401305 0.219528
O O4 0.789153 0.200241 0.715573
O O5 0.801859 0.333839 0.718981
O O6 0.667779 0.211682 0.719531
O O7 0.754545 0.248438 0.000000
O O8 0.746350 0.882107 0.715545
O O9 0.667582 0.840332 0.000000
O O10 0.528273 0.528273 0.500000
O O11 0.454931 0.533038 0.765341
O O12 0.410046 0.591027 0.000000
O O13 0.864321 0.864321 0.722701
O O14 0.882390 0.000000 0.727300
O O15 0.828699 0.913030 0.000000
#
# Coordination Sequence:
#
# PCOD9586163 Si02
#       6
#     6  12  12   6  12  12
#     4  11  21  33  53  79 105 134 175 222 260 304
#     4   9  18  31  53  81 105 132 171 215 264 319
#     4  10  18  32  53  79 105 132 169 215 264 312
#     4  11  23  37  53  79 109 142 185 224 262 318
#     4  10  19  35  57  81 109 140 174 221 275 324
#     4   9  16  26  44  72 104 132 163 206 254 302
#
# _framework density 21.388895999999999
#
# number of rings (size 3 to 8) (size 9 to 14) (size 15 to 20)
#    0.000    2.200    3.000    1.200    0.000    3.200 
#    1.800    2.000    0.000    0.600    0.000    0.000 
#    0.000    0.000    0.000    0.000    0.000    0.000 
#
# Total GULP energy -335051.780703 kJ/mol
# GULP energy per Si atom -5584.196345 kJ/mol
# Density = 2.134021 g / cm^3
# Si number density = 21.388896 Si / 1000 Ang^3
#
#
#
# Elastic Constant Matrix: (Units=GPa)
#
#
# Indices 1 2 3 4 5 6 
#
# 1 137.9910 66.0259 -0.6051 0.0000 0.0000 0.0000
# 2 66.0259 137.9910 -0.6051 0.0000 0.0000 0.0000
# 3 -0.6051 -0.6051 66.0242 0.0000 0.0000 0.0000
# 4 0.0000 0.0000 0.0000 -31.5316 0.0000 0.0000
# 5 0.0000 0.0000 0.0000 0.0000 -31.5316 0.0000
# 6 0.0000 0.0000 0.0000 0.0000 0.0000 35.9826
#
#
#
# Elastic Compliance Matrix: (Units=1/GPa)
#
#
# Indices 1 2 3 4 5 6 
#
# 1 0.009399 -0.004497 0.000045 0.000000 0.000000 0.000000
# 2 -0.004497 0.009399 0.000045 0.000000 0.000000 0.000000
# 3 0.000045 0.000045 0.015147 0.000000 0.000000 0.000000
# 4 0.000000 0.000000 0.000000 -0.031714 0.000000 0.000000
# 5 0.000000 0.000000 0.000000 0.000000 -0.031714 0.000000
# 6 0.000000 0.000000 0.000000 0.000000 0.000000 0.027791
#
#
# Mechanical properties :
#
#
# Convention : Reuss Voigt Hill
#
# Bulk Modulus (GPa) = 39.79286 52.40417 46.09852
# Shear Modulus (GPa) = 322.62496 13.06324 167.84410
#
# Velocity S-wave (km/s) = 12.29492 2.47401 8.86808
# Velocity P-wave (km/s) = 14.83908 5.71969 11.24529
#
# Compressibility (1/GPa) = 0.02513014
#
# Stress axis : x y z
#
# Youngs Moduli (GPa) = 106.39744 106.39744 66.02058
#
# Poissons Ratio (x) = 0.47846 -0.00297
# Poissons Ratio (y) = 0.47846 -0.00297
# Poissons Ratio (z) = -0.00478 -0.00478
#
# Static dielectric constant tensor:
#      x y z
#    x 1.771540 0.000000 0.000000 
#    y 0.000000 1.771540 0.000000 
#    z 0.000000 0.000000 1.795970 
# 
# From -- ./inp_files/952.got.cif
#   From: 2010.05.17/outbox.cif.g08.bks.cpg/sg189_1_cif.got.tgz:952.got - 2010.05.20 12:14:34.
