data_PCOD9586553
_publ_section_title
;
Structure prediction by ZEFSAII (Michael W. Deem and Ramdas Pophale) SiO2 
 PCOD9586553
Probable space group: P -6 2 M
;
_chemical_formula_sum "Si O2"
_cell_formula_units_Z 72
_cell_length_a 23.974980
_cell_length_b 23.974980
_cell_length_c 8.885485
_cell_angle_alpha 90.000000
_cell_angle_beta 90.000000
_cell_angle_gamma 120.000000
_cell_volume 4423.115466
_symmetry_space_group_name_H-M "P -6 2 M"
_symmetry_group_IT_number 189
_symmetry_cell_setting 'hexagonal'
loop_
_space_group_symop_operation_xyz
x,y,z
-x+y,-x,-z
-y,x-y,z
x,y,-z
-x+y,-x,z
-y,x-y,-z
x-y,-y,-z
-x,-x+y,-z
y,x,-z
y,x,z
x-y,-y,z
-x,-x+y,z
loop_
_atom_site_type_symbol
_atom_site_label
_atom_site_fract_x
_atom_site_fract_y
_atom_site_fract_z
Si Si1 0.074125 0.339959 0.818631
Si Si2 0.589629 0.123215 0.180120
Si Si3 0.519231 0.665705 0.320924
Si Si4 0.410957 0.410957 0.319037
Si Si5 0.670522 0.865943 0.820434
Si Si6 0.000000 0.719678 0.320704
Si Si7 0.784550 0.519793 0.820708
O O1 0.099049 0.409146 0.742496
O O2 0.124538 0.316376 0.777132
O O3 0.000000 0.291371 0.780769
O O4 0.079070 0.349457 0.000000
O O5 0.532356 0.130956 0.247891
O O6 0.589745 0.062229 0.252560
O O7 0.660016 0.184594 0.211306
O O8 0.582776 0.115261 0.000000
O O9 0.518798 0.660434 0.500000
O O10 0.503265 0.720830 0.269885
O O11 0.414344 0.414344 0.500000
O O12 0.345797 0.345797 0.274951
O O13 0.712574 0.934083 0.741727
O O14 0.594435 0.837041 0.786234
O O15 0.678239 0.875064 0.000000
O O16 0.000000 0.722302 0.500000
O O17 0.770964 0.517225 0.000000
#
# Coordination Sequence:
#
# PCOD9586553 Si02
#       7
#    12  12  12   6  12   6  12
#     4   9  19  37  58  78 103 139 179 215 254 304
#     4  11  22  38  58  76 100 137 180 223 266 320
#     4  11  23  36  53  77 106 135 170 220 273 321
#     4  11  23  35  51  79 111 137 169 216 271 322
#     4   9  17  32  54  78 103 133 172 210 248 299
#     4  11  21  31  49  79 113 143 165 200 255 312
#     4   9  19  37  57  74  94 130 177 218 262 316
#
# _framework density 16.278119
#
# number of rings (size 3 to 8) (size 9 to 14) (size 15 to 20)
#    0.000    2.000    1.667    3.500    1.167    5.000 
#    1.000    0.000    0.000    0.000    0.000    0.000 
#    0.833    0.000    1.500    0.000    0.500    0.000 
#
# Total GULP energy -401893.686405 kJ/mol
# GULP energy per Si atom -5581.856756 kJ/mol
# Density = 1.624107 g / cm^3
# Si number density = 16.278119 Si / 1000 Ang^3
#
#
#
# Elastic Constant Matrix: (Units=GPa)
#
#
# Indices 1 2 3 4 5 6 
#
# 1 112.2048 74.8773 48.2211 0.0000 0.0000 0.0000
# 2 74.8773 112.2048 48.2211 0.0000 0.0000 0.0000
# 3 48.2211 48.2211 51.4271 0.0000 0.0000 0.0000
# 4 0.0000 0.0000 0.0000 12.3076 0.0000 0.0000
# 5 0.0000 0.0000 0.0000 0.0000 12.3076 0.0000
# 6 0.0000 0.0000 0.0000 0.0000 0.0000 18.6638
#
#
#
# Elastic Compliance Matrix: (Units=1/GPa)
#
#
# Indices 1 2 3 4 5 6 
#
# 1 0.018568 -0.008222 -0.009701 0.000000 0.000000 0.000000
# 2 -0.008222 0.018568 -0.009701 0.000000 0.000000 0.000000
# 3 -0.009701 -0.009701 0.037638 0.000000 0.000000 0.000000
# 4 0.000000 0.000000 0.000000 0.081251 0.000000 0.000000
# 5 0.000000 0.000000 0.000000 0.000000 0.081251 0.000000
# 6 0.000000 0.000000 0.000000 0.000000 0.000000 0.053580
#
#
# Mechanical properties :
#
#
# Convention : Reuss Voigt Hill
#
# Bulk Modulus (GPa) = 51.21531 68.71952 59.96742
# Shear Modulus (GPa) = 14.17987 15.62362 14.90174
#
# Velocity S-wave (km/s) = 2.95464 3.10141 3.02892
# Velocity P-wave (km/s) = 6.57045 7.42513 7.01083
#
# Compressibility (1/GPa) = 0.01952541
#
# Stress axis : x y z
#
# Youngs Moduli (GPa) = 53.85575 53.85575 26.56885
#
# Poissons Ratio (x) = 0.44279 0.25775
# Poissons Ratio (y) = 0.44279 0.25775
# Poissons Ratio (z) = 0.52247 0.52247
#
# Static dielectric constant tensor:
#      x y z
#    x 1.535400 0.000000 0.000000 
#    y 0.000000 1.535400 0.000000 
#    z 0.000000 0.000000 1.540590 
# 
# From -- ./inp_files/1335.got.cif
#   From: 2010.05.17/outbox.cif.g08.bks.cpg/sg189_1_cif.got.tgz:1335.got - 2010.05.20 12:14:34.
