data_PCOD9586431
_publ_section_title
;
Structure prediction by ZEFSAII (Michael W. Deem and Ramdas Pophale) SiO2 
 PCOD9586431
Probable space group: P -6 2 M
;
_chemical_formula_sum "Si O2"
_cell_formula_units_Z 72
_cell_length_a 22.761215
_cell_length_b 22.761215
_cell_length_c 8.244961
_cell_angle_alpha 90.000000
_cell_angle_beta 90.000000
_cell_angle_gamma 120.000000
_cell_volume 3699.219652
_symmetry_space_group_name_H-M "P -6 2 M"
_symmetry_group_IT_number 189
_symmetry_cell_setting 'hexagonal'
loop_
_space_group_symop_operation_xyz
x,y,z
-x+y,-x,-z
-y,x-y,z
x,y,-z
-x+y,-x,z
-y,x-y,-z
x-y,-y,-z
-x,-x+y,-z
y,x,-z
y,x,z
x-y,-y,z
-x,-x+y,z
loop_
_atom_site_type_symbol
_atom_site_label
_atom_site_fract_x
_atom_site_fract_y
_atom_site_fract_z
Si Si1 0.346305 0.572608 0.674224
Si Si2 0.372808 0.145254 0.197603
Si Si3 0.352271 0.000000 0.803363
Si Si4 0.464765 0.361462 0.811923
Si Si5 0.314975 0.785490 0.817513
Si Si6 0.073742 0.759235 0.806746
Si Si7 0.510298 0.510298 0.695723
O O1 0.325758 0.585320 0.500000
O O2 0.333346 0.497680 0.687837
O O3 0.296107 0.572816 0.808035
O O4 0.425195 0.621165 0.706788
O O5 0.453020 0.187596 0.239080
O O6 0.331515 0.182815 0.255000
O O7 0.350533 0.068051 0.246160
O O8 0.370279 0.146522 0.000000
O O9 0.420483 0.000000 0.742630
O O10 0.355802 0.000000 0.000000
O O11 0.384728 0.312627 0.794014
O O12 0.500778 0.440674 0.771371
O O13 0.480067 0.353836 0.000000
O O14 0.336460 0.810155 0.000000
O O15 0.000000 0.743968 0.741305
O O16 0.073909 0.772612 0.000000
O O17 0.505880 0.505880 0.500000
#
# Coordination Sequence:
#
# PCOD9586431 Si02
#       7
#    12  12   6  12  12  12   6
#     4  12  24  36  49  73 104 135 178 238 299 341
#     4   9  18  33  55  82 107 138 185 237 280 333
#     4  10  20  36  58  82 112 148 189 236 286 345
#     4  11  20  35  56  75 100 140 186 229 279 339
#     4  11  21  36  54  70  97 143 195 234 277 347
#     4   9  16  30  55  84 108 134 178 234 281 331
#     4  12  24  36  52  80 114 144 187 238 286 337
#
# _framework density 19.463566
#
# number of rings (size 3 to 8) (size 9 to 14) (size 15 to 20)
#    0.000    1.500    2.500    4.583    0.000    1.333 
#    0.000    0.833    0.000    0.000    0.000    0.000 
#    0.833    0.000    2.500    0.000    0.000    0.000 
#
# Total GULP energy -400871.239573 kJ/mol
# GULP energy per Si atom -5567.656105 kJ/mol
# Density = 1.941927 g / cm^3
# Si number density = 19.463566 Si / 1000 Ang^3
#
#
#
# Elastic Constant Matrix: (Units=GPa)
#
#
# Indices 1 2 3 4 5 6 
#
# 1 124.2912 39.4907 10.7824 0.0000 0.0000 0.0000
# 2 39.4907 124.2912 10.7824 0.0000 0.0000 0.0000
# 3 10.7824 10.7824 48.9011 0.0000 0.0000 0.0000
# 4 0.0000 0.0000 0.0000 -38.6728 0.0000 0.0000
# 5 0.0000 0.0000 0.0000 0.0000 -38.6728 0.0000
# 6 0.0000 0.0000 0.0000 0.0000 0.0000 42.4003
#
#
#
# Elastic Compliance Matrix: (Units=1/GPa)
#
#
# Indices 1 2 3 4 5 6 
#
# 1 0.009040 -0.002752 -0.001387 0.000000 0.000000 0.000000
# 2 -0.002752 0.009040 -0.001387 0.000000 0.000000 0.000000
# 3 -0.001387 -0.001387 0.021061 0.000000 0.000000 0.000000
# 4 0.000000 0.000000 0.000000 -0.025858 0.000000 0.000000
# 5 0.000000 0.000000 0.000000 0.000000 -0.025858 0.000000
# 6 0.000000 0.000000 0.000000 0.000000 0.000000 0.023585
#
#
# Mechanical properties :
#
#
# Convention : Reuss Voigt Hill
#
# Bulk Modulus (GPa) = 35.59822 46.62161 41.10991
# Shear Modulus (GPa) = 159.11258 8.77280 83.94269
#
# Velocity S-wave (km/s) = 9.05132 2.12534 6.57432
# Velocity P-wave (km/s) = 11.29445 5.47979 8.87673
#
# Compressibility (1/GPa) = 0.02809129
#
# Stress axis : x y z
#
# Youngs Moduli (GPa) = 110.61570 110.61570 47.48141
#
# Poissons Ratio (x) = 0.30442 0.06583
# Poissons Ratio (y) = 0.30442 0.06583
# Poissons Ratio (z) = 0.15337 0.15337
#
# Static dielectric constant tensor:
#      x y z
#    x 1.337140 0.000000 0.000000 
#    y 0.000000 1.337140 0.000000 
#    z 0.000000 0.000000 1.672770 
# 
# From -- ./inp_files/1323.got.cif
#   From: 2010.05.17/outbox.cif.g08.bks.cpg/sg189_1_cif.got.tgz:1323.got - 2010.05.20 12:14:34.
