data_PCOD9586857
_publ_section_title
;
Structure prediction by ZEFSAII (Michael W. Deem and Ramdas Pophale) SiO2 
 PCOD9586857
Probable space group: P -6 2 C
;
_chemical_formula_sum "Si O2"
_cell_formula_units_Z 42
_cell_length_a 8.733611
_cell_length_b 8.733611
_cell_length_c 33.403980
_cell_angle_alpha 90.000000
_cell_angle_beta 90.000000
_cell_angle_gamma 120.000000
_cell_volume 2206.564035
_symmetry_space_group_name_H-M "P -6 2 C"
_symmetry_group_IT_number 190
_symmetry_cell_setting 'hexagonal'
loop_
_space_group_symop_operation_xyz
x,y,z
-x+y,-x,1/2-z
-y,x-y,z
x,y,1/2-z
-x+y,-x,z
-y,x-y,1/2-z
x-y,-y,-z
-x,-x+y,-z
y,x,-z
y,x,1/2+z
x-y,-y,1/2+z
-x,-x+y,1/2+z
loop_
_atom_site_type_symbol
_atom_site_label
_atom_site_fract_x
_atom_site_fract_y
_atom_site_fract_z
Si Si1 0.995774 0.664012 0.370395
Si Si2 0.535009 0.664416 0.250000
Si Si3 0.003208 0.335711 0.162626
Si Si4 0.204375 0.200034 0.044943
O O1 0.989459 0.678948 0.418249
O O2 0.951318 0.473151 0.355619
O O3 0.858491 0.714244 0.350729
O O4 0.189134 0.808349 0.355307
O O5 0.331531 0.500806 0.250000
O O6 0.634106 0.663255 0.210097
O O7 0.162644 0.996535 0.048522
O O8 0.266420 0.266420 0.000000
#
# Coordination Sequence:
#
# PCOD9586857 Si02
#       4
#    12   6  12  12
#     4  12  22  42  60 101 118 173 206 256 311 376
#     4  10  20  42  62  92 122 162 204 258 318 368
#     4  12  24  39  68  86 134 160 211 258 309 374
#     4   8  15  33  63  91 124 163 204 256 312 374
#
# _framework density 19.034119
#
# number of rings (size 3 to 8) (size 9 to 14) (size 15 to 20)
#    0.857    0.571    5.714    1.714    0.000    2.286 
#    0.000    2.857    0.000    0.000    0.000    0.000 
#    0.000    0.000    0.000    0.000    0.000    0.000 
#
# Total GULP energy -234270.367604 kJ/mol
# GULP energy per Si atom -5577.865895 kJ/mol
# Density = 1.899080 g / cm^3
# Si number density = 19.034119 Si / 1000 Ang^3
#
#
#
# Elastic Constant Matrix: (Units=GPa)
#
#
# Indices 1 2 3 4 5 6 
#
# 1 39.4343 -10.1755 24.3133 0.0000 0.0000 0.0000
# 2 -10.1755 39.4343 24.3133 0.0000 0.0000 0.0000
# 3 24.3133 24.3133 209.4279 0.0000 0.0000 0.0000
# 4 0.0000 0.0000 0.0000 12.0571 0.0000 0.0000
# 5 0.0000 0.0000 0.0000 0.0000 12.0571 0.0000
# 6 0.0000 0.0000 0.0000 0.0000 0.0000 24.8049
#
#
#
# Elastic Compliance Matrix: (Units=1/GPa)
#
#
# Indices 1 2 3 4 5 6 
#
# 1 0.031253 0.011096 -0.004916 0.000000 0.000000 0.000000
# 2 0.011096 0.031253 -0.004916 0.000000 0.000000 0.000000
# 3 -0.004916 -0.004916 0.005916 0.000000 0.000000 0.000000
# 4 0.000000 0.000000 0.000000 0.082939 0.000000 0.000000
# 5 0.000000 0.000000 0.000000 0.000000 0.082939 0.000000
# 6 0.000000 0.000000 0.000000 0.000000 0.000000 0.040315
#
#
# Mechanical properties :
#
#
# Convention : Reuss Voigt Hill
#
# Bulk Modulus (GPa) = 14.09485 40.57766 27.33626
# Shear Modulus (GPa) = 16.90687 26.44018 21.67352
#
# Velocity S-wave (km/s) = 2.98357 3.73110 3.37807
# Velocity P-wave (km/s) = 4.39204 6.31871 5.44133
#
# Compressibility (1/GPa) = 0.07094789
#
# Stress axis : x y z
#
# Youngs Moduli (GPa) = 31.99699 31.99699 169.02040
#
# Poissons Ratio (x) = -0.35503 0.83097
# Poissons Ratio (y) = -0.35503 0.83097
# Poissons Ratio (z) = 0.15731 0.15731
#
# Static dielectric constant tensor:
#      x y z
#    x 1.636510 0.000000 0.000000 
#    y 0.000000 1.636510 0.000000 
#    z 0.000000 0.000000 1.645950 
# 
# From -- ./inp_files/5085.got.cif
#   From: 2010.05.17/outbox.cif.g08.bks.cpg/sg190_3_cif.got.tgz:5085.got - 2010.05.20 12:16:56.
