data_PCOD9586987
_publ_section_title
;
Structure prediction by ZEFSAII (Michael W. Deem and Ramdas Pophale) SiO2 
 PCOD9586987
Probable space group: P -6 2 C
;
_chemical_formula_sum "Si O2"
_cell_formula_units_Z 40
_cell_length_a 16.872186
_cell_length_b 16.872186
_cell_length_c 8.501462
_cell_angle_alpha 90.000000
_cell_angle_beta 90.000000
_cell_angle_gamma 120.000000
_cell_volume 2095.882631
_symmetry_space_group_name_H-M "P -6 2 C"
_symmetry_group_IT_number 190
_symmetry_cell_setting 'hexagonal'
loop_
_space_group_symop_operation_xyz
x,y,z
-x+y,-x,1/2-z
-y,x-y,z
x,y,1/2-z
-x+y,-x,z
-y,x-y,1/2-z
x-y,-y,-z
-x,-x+y,-z
y,x,-z
y,x,1/2+z
x-y,-y,1/2+z
-x,-x+y,1/2+z
loop_
_atom_site_type_symbol
_atom_site_label
_atom_site_fract_x
_atom_site_fract_y
_atom_site_fract_z
Si Si1 0.287531 0.901148 0.938500
Si Si2 0.359581 0.264104 0.935475
Si Si3 0.666667 0.333334 0.559828
Si Si4 0.865091 0.451838 0.438073
O O1 0.287628 0.899804 0.750000
O O2 0.374950 0.890452 0.990220
O O3 0.189777 0.818782 0.995043
O O4 0.309407 0.000000 0.000000
O O5 0.351307 0.252643 0.750000
O O6 0.276526 0.276526 0.000000
O O7 0.451287 0.359339 0.977198
O O8 0.666667 0.333334 0.750000
O O9 0.760369 0.409866 0.487096
O O10 0.878176 0.464474 0.250000
#
# Coordination Sequence:
#
# PCOD9586987 Si02
#       4
#    12  12   4  12
#     4  11  24  41  63  89 122 159 202 250 304 359
#     4  12  25  41  63  89 122 159 205 252 304 360
#     4  12  22  32  55  87 124 167 208 246 295 350
#     4  11  22  38  60  87 125 165 206 249 295 352
#
# _framework density 19.085038999999998
#
# number of rings (size 3 to 8) (size 9 to 14) (size 15 to 20)
#    0.000    0.600    3.000    6.300    0.000    6.000 
#    0.000    0.000    0.000    0.600    0.000    4.200 
#    0.000    0.000    0.000    0.000    0.000    0.000 
#
# Total GULP energy -223429.220554 kJ/mol
# GULP energy per Si atom -5585.730514 kJ/mol
# Density = 1.904160 g / cm^3
# Si number density = 19.085039 Si / 1000 Ang^3
#
#
#
# Elastic Constant Matrix: (Units=GPa)
#
#
# Indices 1 2 3 4 5 6 
#
# 1 93.4650 46.9743 23.6116 -0.0001 -0.0002 0.0003
# 2 46.9743 93.4681 23.6121 0.0000 -0.0002 0.0004
# 3 23.6116 23.6121 85.2950 -0.0001 0.0001 0.0001
# 4 -0.0001 0.0000 -0.0001 51.9924 -0.0001 0.0000
# 5 -0.0002 -0.0002 0.0001 -0.0001 51.9930 0.0001
# 6 0.0003 0.0004 0.0001 0.0000 0.0001 23.2463
#
#
#
# Elastic Compliance Matrix: (Units=1/GPa)
#
#
# Indices 1 2 3 4 5 6 
#
# 1 0.014680 -0.006829 -0.002173 0.000000 0.000000 0.000000
# 2 -0.006829 0.014680 -0.002173 0.000000 0.000000 0.000000
# 3 -0.002173 -0.002173 0.012927 0.000000 0.000000 0.000000
# 4 0.000000 0.000000 0.000000 0.019234 0.000000 0.000000
# 5 0.000000 0.000000 0.000000 0.000000 0.019233 0.000000
# 6 0.000000 0.000000 0.000000 0.000000 0.000000 0.043018
#
#
# Mechanical properties :
#
#
# Convention : Reuss Voigt Hill
#
# Bulk Modulus (GPa) = 50.16017 51.18045 50.67031
# Shear Modulus (GPa) = 32.72916 37.31500 35.02208
#
# Velocity S-wave (km/s) = 4.14564 4.42656 4.28840
# Velocity P-wave (km/s) = 7.01816 7.28019 7.15038
#
# Compressibility (1/GPa) = 0.01993614
#
# Stress axis : x y z
#
# Youngs Moduli (GPa) = 68.11827 68.12054 77.35538
#
# Poissons Ratio (x) = 0.46518 0.16813
# Poissons Ratio (y) = 0.46517 0.16813
# Poissons Ratio (z) = 0.14805 0.14805
#
# Static dielectric constant tensor:
#      x y z
#    x 1.637440 0.000000 0.000000 
#    y 0.000000 1.637430 0.000000 
#    z 0.000000 0.000000 1.638790 
# 
# From -- ./inp_files/524.got.cif
#   From: 2010.05.17/outbox.cif.g08.bks.cpg/sg190_1_cif.got.tgz:524.got - 2010.05.20 12:16:56.
