data_PCOD9586823
_publ_section_title
;
Structure prediction by ZEFSAII (Michael W. Deem and Ramdas Pophale) SiO2 
 PCOD9586823
Probable space group: P -6 2 C
;
_chemical_formula_sum "Si O2"
_cell_formula_units_Z 22
_cell_length_a 6.940748
_cell_length_b 6.940748
_cell_length_c 24.752841
_cell_angle_alpha 90.000000
_cell_angle_beta 90.000000
_cell_angle_gamma 120.000000
_cell_volume 1032.685876
_symmetry_space_group_name_H-M "P -6 2 C"
_symmetry_group_IT_number 190
_symmetry_cell_setting 'hexagonal'
loop_
_space_group_symop_operation_xyz
x,y,z
-x+y,-x,1/2-z
-y,x-y,z
x,y,1/2-z
-x+y,-x,z
-y,x-y,1/2-z
x-y,-y,-z
-x,-x+y,-z
y,x,-z
y,x,1/2+z
x-y,-y,1/2+z
-x,-x+y,1/2+z
loop_
_atom_site_type_symbol
_atom_site_label
_atom_site_fract_x
_atom_site_fract_y
_atom_site_fract_z
Si Si1 0.000000 0.000000 0.436074
Si Si2 0.889574 0.279839 0.250000
Si Si3 0.732066 0.611445 0.861060
O O1 0.013345 0.218897 0.409806
O O2 0.000000 0.000000 0.500000
O O3 0.625493 0.108969 0.250000
O O4 0.011597 0.275018 0.195753
O O5 0.491899 0.387463 0.863713
#
# Coordination Sequence:
#
# PCOD9586823 Si02
#       3
#     4   6  12
#     4  12  27  46  68  97 135 186 244 296 331 381
#     4  10  20  36  72 102 138 170 206 270 348 422
#     4  10  23  43  67 102 135 176 226 272 345 418
#
# _framework density 21.303671999999999
#
# number of rings (size 3 to 8) (size 9 to 14) (size 15 to 20)
#    1.636    0.000    0.000    4.909    0.000    4.364 
#    3.273    0.000    0.000    0.000    0.000    0.000 
#    0.000    0.000    0.000    0.000    0.000    0.000 
#
# Total GULP energy -122742.377185 kJ/mol
# GULP energy per Si atom -5579.198963 kJ/mol
# Density = 2.125518 g / cm^3
# Si number density = 21.303672 Si / 1000 Ang^3
#
#
#
# Elastic Constant Matrix: (Units=GPa)
#
#
# Indices 1 2 3 4 5 6 
#
# 1 96.5544 29.3284 66.9147 0.0000 0.0000 0.0000
# 2 29.3284 96.5544 66.9147 0.0000 0.0000 0.0000
# 3 66.9147 66.9147 244.6905 0.0000 0.0000 0.0000
# 4 0.0000 0.0000 0.0000 17.1399 0.0000 0.0000
# 5 0.0000 0.0000 0.0000 0.0000 17.1399 0.0000
# 6 0.0000 0.0000 0.0000 0.0000 0.0000 33.6130
#
#
#
# Elastic Compliance Matrix: (Units=1/GPa)
#
#
# Indices 1 2 3 4 5 6 
#
# 1 0.013038 -0.001838 -0.003063 0.000000 0.000000 0.000000
# 2 -0.001838 0.013038 -0.003063 0.000000 0.000000 0.000000
# 3 -0.003063 -0.003063 0.005762 0.000000 0.000000 0.000000
# 4 0.000000 0.000000 0.000000 0.058343 0.000000 0.000000
# 5 0.000000 0.000000 0.000000 0.000000 0.058343 0.000000
# 6 0.000000 0.000000 0.000000 0.000000 0.000000 0.029750
#
#
# Mechanical properties :
#
#
# Convention : Reuss Voigt Hill
#
# Bulk Modulus (GPa) = 62.85056 84.90165 73.87611
# Shear Modulus (GPa) = 25.06210 31.88801 28.47506
#
# Velocity S-wave (km/s) = 3.43362 3.87309 3.65996
# Velocity P-wave (km/s) = 6.72948 7.74214 7.25350
#
# Compressibility (1/GPa) = 0.01591076
#
# Stress axis : x y z
#
# Youngs Moduli (GPa) = 76.70099 76.70099 173.55174
#
# Poissons Ratio (x) = 0.14094 0.53156
# Poissons Ratio (y) = 0.14094 0.53156
# Poissons Ratio (z) = 0.23492 0.23492
#
# Static dielectric constant tensor:
#      x y z
#    x 1.821270 0.000000 0.000000 
#    y 0.000000 1.821270 0.000000 
#    z 0.000000 0.000000 1.674400 
# 
# From -- ./inp_files/3283.got.cif
#   From: 2010.05.17/outbox.cif.g08.bks.cpg/sg190_2_cif.got.tgz:3283.got - 2010.05.20 12:16:56.
