data_PCOD9586848
_publ_section_title
;
Structure prediction by ZEFSAII (Michael W. Deem and Ramdas Pophale) SiO2 
 PCOD9586848
Probable space group: P -6 2 C
;
_chemical_formula_sum "Si O2"
_cell_formula_units_Z 30
_cell_length_a 11.838186
_cell_length_b 11.838186
_cell_length_c 14.010282
_cell_angle_alpha 90.000000
_cell_angle_beta 90.000000
_cell_angle_gamma 120.000000
_cell_volume 1700.387200
_symmetry_space_group_name_H-M "P -6 2 C"
_symmetry_group_IT_number 190
_symmetry_cell_setting 'hexagonal'
loop_
_space_group_symop_operation_xyz
x,y,z
-x+y,-x,1/2-z
-y,x-y,z
x,y,1/2-z
-x+y,-x,z
-y,x-y,1/2-z
x-y,-y,-z
-x,-x+y,-z
y,x,-z
y,x,1/2+z
x-y,-y,1/2+z
-x,-x+y,1/2+z
loop_
_atom_site_type_symbol
_atom_site_label
_atom_site_fract_x
_atom_site_fract_y
_atom_site_fract_z
Si Si1 0.822264 0.776122 0.750000
Si Si2 0.333333 0.666667 0.386450
Si Si3 0.000000 0.000000 0.387034
Si Si4 0.666668 0.333334 0.112668
Si Si5 0.333579 0.457093 0.250000
Si Si6 0.489087 0.109771 0.250000
O O1 0.878576 0.871555 0.658933
O O2 0.880728 0.679458 0.750000
O O3 0.666562 0.691660 0.750000
O O4 0.333334 0.666667 0.499564
O O5 0.333829 0.541704 0.340887
O O6 0.000000 0.000000 0.500000
O O7 0.545207 0.205024 0.158761
O O8 0.465517 0.452125 0.250000
#
# Coordination Sequence:
#
# PCOD9586848 Si02
#       6
#     6   4   4   4   6   6
#     4  10  21  42  65  79 126 160 191 243 298 349
#     4  10  20  40  55  98 112 154 203 235 292 350
#     4  10  26  40  61  92 115 157 209 241 286 353
#     4  10  26  34  61  92 121 145 200 244 292 350
#     4  10  20  40  62  84 124 158 192 240 298 352
#     4  10  21  42  59  85 124 158 187 245 302 347
#
# _framework density 17.643039000000002
#
# number of rings (size 3 to 8) (size 9 to 14) (size 15 to 20)
#    0.000    2.400    4.000    0.000   11.200    4.800 
#    0.000    0.000    0.000    0.000    0.000    0.000 
#    0.000    0.000    0.000    0.000    0.000    0.000 
#
# Total GULP energy -167382.289892 kJ/mol
# GULP energy per Si atom -5579.409663 kJ/mol
# Density = 1.760288 g / cm^3
# Si number density = 17.643039 Si / 1000 Ang^3
#
#
#
# Elastic Constant Matrix: (Units=GPa)
#
#
# Indices 1 2 3 4 5 6 
#
# 1 101.3642 50.0034 39.4964 -0.0001 0.0000 -0.0001
# 2 50.0034 101.3636 39.4964 0.0000 0.0000 -0.0002
# 3 39.4964 39.4964 188.7321 0.0002 -0.0001 0.0000
# 4 -0.0001 0.0000 0.0002 0.7765 0.0000 0.0000
# 5 0.0000 0.0000 -0.0001 0.0000 0.7765 0.0000
# 6 -0.0001 -0.0002 0.0000 0.0000 0.0000 25.6801
#
#
#
# Elastic Compliance Matrix: (Units=1/GPa)
#
#
# Indices 1 2 3 4 5 6 
#
# 1 0.013443 -0.006027 -0.001552 0.000001 0.000000 0.000000
# 2 -0.006027 0.013443 -0.001552 0.000001 0.000001 0.000000
# 3 -0.001552 -0.001552 0.005948 -0.000002 0.000000 0.000000
# 4 0.000001 0.000001 -0.000002 1.287860 0.000023 -0.000001
# 5 0.000000 0.000001 0.000000 0.000023 1.287800 0.000000
# 6 0.000000 0.000000 0.000000 -0.000001 0.000000 0.038941
#
#
# Mechanical properties :
#
#
# Convention : Reuss Voigt Hill
#
# Bulk Modulus (GPa) = 68.62132 72.16137 70.39135
# Shear Modulus (GPa) = 1.87227 22.94420 12.40823
#
# Velocity S-wave (km/s) = 1.03126 3.61011 2.65485
# Velocity P-wave (km/s) = 6.35584 7.63981 7.02721
#
# Compressibility (1/GPa) = 0.01457273
#
# Stress axis : x y z
#
# Youngs Moduli (GPa) = 74.38670 74.38622 168.12042
#
# Poissons Ratio (x) = 0.44832 0.26093
# Poissons Ratio (y) = 0.44832 0.26093
# Poissons Ratio (z) = 0.11545 0.11545
#
# Static dielectric constant tensor:
#      x y z
#    x 1.606960 0.000000 0.000000 
#    y 0.000000 1.606970 0.000000 
#    z 0.000000 0.000000 1.562040 
# 
# From -- ./inp_files/2335.got.cif
#   From: 2010.05.17/outbox.cif.g08.bks.cpg/sg190_2_cif.got.tgz:2335.got - 2010.05.20 12:16:56.
