data_PCOD9586917
_publ_section_title
;
Structure prediction by ZEFSAII (Michael W. Deem and Ramdas Pophale) SiO2 
 PCOD9586917
Probable space group: P -6 2 C
;
_chemical_formula_sum "Si O2"
_cell_formula_units_Z 42
_cell_length_a 11.719400
_cell_length_b 11.719400
_cell_length_c 17.147955
_cell_angle_alpha 90.000000
_cell_angle_beta 90.000000
_cell_angle_gamma 120.000000
_cell_volume 2039.640947
_symmetry_space_group_name_H-M "P -6 2 C"
_symmetry_group_IT_number 190
_symmetry_cell_setting 'hexagonal'
loop_
_space_group_symop_operation_xyz
x,y,z
-x+y,-x,1/2-z
-y,x-y,z
x,y,1/2-z
-x+y,-x,z
-y,x-y,1/2-z
x-y,-y,-z
-x,-x+y,-z
y,x,-z
y,x,1/2+z
x-y,-y,1/2+z
-x,-x+y,1/2+z
loop_
_atom_site_type_symbol
_atom_site_label
_atom_site_fract_x
_atom_site_fract_y
_atom_site_fract_z
Si Si1 0.499545 0.712071 0.750000
Si Si2 0.153140 0.287481 0.343268
Si Si3 0.760760 0.257074 0.964804
Si Si4 0.833497 0.694703 0.390577
O O1 0.371864 0.567226 0.750000
O O2 0.587450 0.743209 0.674014
O O3 0.142000 0.283419 0.250000
O O4 0.205834 0.431100 0.380123
O O5 0.250230 0.235285 0.369358
O O6 0.009548 0.196296 0.381003
O O7 0.808540 0.411502 0.975606
O O8 0.824408 0.204397 0.027372
#
# Coordination Sequence:
#
# PCOD9586917 Si02
#       4
#     6  12  12  12
#     4  10  22  38  66 104 124 180 228 270 322 396
#     4  12  25  43  70 106 139 182 219 294 356 400
#     4  10  26  48  66  99 137 185 236 286 337 406
#     4  12  23  46  70 100 141 178 234 278 340 414
#
# _framework density 20.591858999999999
#
# number of rings (size 3 to 8) (size 9 to 14) (size 15 to 20)
#    0.857    0.000    2.857    4.000    0.000    8.000 
#    0.000    2.857    0.000    0.000    0.000    0.000 
#    0.000    0.000    0.000    0.000    0.000    0.000 
#
# Total GULP energy -234656.210304 kJ/mol
# GULP energy per Si atom -5587.052626 kJ/mol
# Density = 2.054499 g / cm^3
# Si number density = 20.591859 Si / 1000 Ang^3
#
#
#
# Elastic Constant Matrix: (Units=GPa)
#
#
# Indices 1 2 3 4 5 6 
#
# 1 60.2939 -3.1018 28.8950 0.0000 0.0000 0.0000
# 2 -3.1018 60.2939 28.8950 0.0000 0.0000 0.0000
# 3 28.8950 28.8950 72.4550 0.0000 0.0000 0.0000
# 4 0.0000 0.0000 0.0000 -67.9179 0.0000 0.0000
# 5 0.0000 0.0000 0.0000 0.0000 -67.9179 0.0000
# 6 0.0000 0.0000 0.0000 0.0000 0.0000 31.6979
#
#
#
# Elastic Compliance Matrix: (Units=1/GPa)
#
#
# Indices 1 2 3 4 5 6 
#
# 1 0.022530 0.006756 -0.011679 0.000000 0.000000 0.000000
# 2 0.006756 0.022530 -0.011679 0.000000 0.000000 0.000000
# 3 -0.011679 -0.011679 0.023117 0.000000 0.000000 0.000000
# 4 0.000000 0.000000 0.000000 -0.014724 0.000000 0.000000
# 5 0.000000 0.000000 0.000000 0.000000 -0.014724 0.000000
# 6 0.000000 0.000000 0.000000 0.000000 0.000000 0.031548
#
#
# Mechanical properties :
#
#
# Convention : Reuss Voigt Hill
#
# Bulk Modulus (GPa) = 28.59401 33.60213 31.09807
# Shear Modulus (GPa) = 43.42523 -11.60393 15.91065
#
# Velocity S-wave (km/s) = 4.59721 -2.37643 2.78270
# Velocity P-wave (km/s) = 6.48809 2.97047 5.04574
#
# Compressibility (1/GPa) = 0.03497235
#
# Stress axis : x y z
#
# Youngs Moduli (GPa) = 44.38498 44.38498 43.25801
#
# Poissons Ratio (x) = -0.29987 0.50523
# Poissons Ratio (y) = -0.29987 0.50523
# Poissons Ratio (z) = 0.51839 0.51839
#
# Static dielectric constant tensor:
#      x y z
#    x 1.722920 0.000000 0.000000 
#    y 0.000000 1.722920 0.000000 
#    z 0.000000 0.000000 1.714430 
# 
# From -- ./inp_files/3482.got.cif
#   From: 2010.05.17/outbox.cif.g08.bks.cpg/sg190_2_cif.got.tgz:3482.got - 2010.05.20 12:16:56.
