data_PCOD9586234
_publ_section_title
;
Structure prediction by ZEFSAII (Michael W. Deem and Ramdas Pophale) SiO2 
 PCOD9586234
Probable space group: P -6 2 M
;
_chemical_formula_sum "Si O2"
_cell_formula_units_Z 48
_cell_length_a 19.368515
_cell_length_b 19.368515
_cell_length_c 8.288188
_cell_angle_alpha 90.000000
_cell_angle_beta 90.000000
_cell_angle_gamma 120.000000
_cell_volume 2692.668401
_symmetry_space_group_name_H-M "P -6 2 M"
_symmetry_group_IT_number 189
_symmetry_cell_setting 'hexagonal'
loop_
_space_group_symop_operation_xyz
x,y,z
-x+y,-x,-z
-y,x-y,z
x,y,-z
-x+y,-x,z
-y,x-y,-z
x-y,-y,-z
-x,-x+y,-z
y,x,-z
y,x,z
x-y,-y,z
-x,-x+y,z
loop_
_atom_site_type_symbol
_atom_site_label
_atom_site_fract_x
_atom_site_fract_y
_atom_site_fract_z
Si Si1 0.486669 0.813203 0.811467
Si Si2 0.336380 0.246558 0.695383
Si Si3 0.754872 0.665318 0.696912
Si Si4 0.176135 0.517122 0.690010
O O1 0.574004 0.880081 0.754302
O O2 0.466550 0.732074 0.718882
O O3 0.419133 0.835561 0.777293
O O4 0.489118 0.798006 0.000000
O O5 0.337675 0.247067 0.500000
O O6 0.276654 0.276654 0.749367
O O7 0.315585 0.158193 0.748687
O O8 0.755224 0.665862 0.500000
O O9 0.724612 0.724612 0.752076
O O10 0.693129 0.574035 0.745074
O O11 0.163583 0.521486 0.500000
#
# Coordination Sequence:
#
# PCOD9586234 Si02
#       4
#    12  12  12  12
#     4  11  21  32  47  70 100 132 167 209 251 286
#     4   9  18  33  52  72  95 128 167 202 243 301
#     4   8  15  29  50  73  93 117 154 199 242 285
#     4  10  19  32  49  69  96 132 170 204 240 290
#
# _framework density 17.826184000000001
#
# number of rings (size 3 to 8) (size 9 to 14) (size 15 to 20)
#    0.000    2.500    0.000    5.000    0.000    1.500 
#    0.000    2.500    0.000   18.500    0.000    3.500 
#    0.000    0.000    0.000    0.750    0.000    4.000 
#
# Total GULP energy -267753.488504 kJ/mol
# GULP energy per Si atom -5578.197677 kJ/mol
# Density = 1.778561 g / cm^3
# Si number density = 17.826184 Si / 1000 Ang^3
#
#
#
# Elastic Constant Matrix: (Units=GPa)
#
#
# Indices 1 2 3 4 5 6 
#
# 1 107.8262 93.4408 -1.7809 0.0000 0.0000 0.0000
# 2 93.4408 107.8262 -1.7809 0.0000 0.0000 0.0000
# 3 -1.7809 -1.7809 11.8858 0.0000 0.0000 0.0000
# 4 0.0000 0.0000 0.0000 -10.8400 0.0000 0.0000
# 5 0.0000 0.0000 0.0000 0.0000 -10.8400 0.0000
# 6 0.0000 0.0000 0.0000 0.0000 0.0000 7.1927
#
#
#
# Elastic Compliance Matrix: (Units=1/GPa)
#
#
# Indices 1 2 3 4 5 6 
#
# 1 0.037248 -0.032267 0.000746 0.000000 0.000000 0.000000
# 2 -0.032267 0.037248 0.000746 0.000000 0.000000 0.000000
# 3 0.000746 0.000746 0.084357 0.000000 0.000000 0.000000
# 4 0.000000 0.000000 0.000000 -0.092251 0.000000 0.000000
# 5 0.000000 0.000000 0.000000 0.000000 -0.092251 0.000000
# 6 0.000000 0.000000 0.000000 0.000000 0.000000 0.139030
#
#
# Mechanical properties :
#
#
# Convention : Reuss Voigt Hill
#
# Bulk Modulus (GPa) = 10.27679 45.25515 27.76597
# Shear Modulus (GPa) = 24.11206 6.27983 15.19594
#
# Velocity S-wave (km/s) = 3.68179 1.87895 2.92284
# Velocity P-wave (km/s) = 4.88381 5.49084 5.19620
#
# Compressibility (1/GPa) = 0.09730662
#
# Stress axis : x y z
#
# Youngs Moduli (GPa) = 26.84684 26.84684 11.85432
#
# Poissons Ratio (x) = 0.86626 -0.00885
# Poissons Ratio (y) = 0.86626 -0.00885
# Poissons Ratio (z) = -0.02004 -0.02004
#
# Static dielectric constant tensor:
#      x y z
#    x 1.602090 0.000000 0.000000 
#    y 0.000000 1.602090 0.000000 
#    z 0.000000 0.000000 1.593840 
# 
# From -- ./inp_files/537.got.cif
#   From: 2010.05.17/outbox.cif.g08.bks.cpg/sg189_1_cif.got.tgz:537.got - 2010.05.20 12:14:34.
