data_PCOD9586855
_publ_section_title
;
Structure prediction by ZEFSAII (Michael W. Deem and Ramdas Pophale) SiO2 
 PCOD9586855
Probable space group: P -6 2 C
;
_chemical_formula_sum "Si O2"
_cell_formula_units_Z 84
_cell_length_a 17.172028
_cell_length_b 17.172028
_cell_length_c 16.820846
_cell_angle_alpha 90.000000
_cell_angle_beta 90.000000
_cell_angle_gamma 120.000000
_cell_volume 4295.578325
_symmetry_space_group_name_H-M "P -6 2 C"
_symmetry_group_IT_number 190
_symmetry_cell_setting 'hexagonal'
loop_
_space_group_symop_operation_xyz
x,y,z
-x+y,-x,1/2-z
-y,x-y,z
x,y,1/2-z
-x+y,-x,z
-y,x-y,1/2-z
x-y,-y,-z
-x,-x+y,-z
y,x,-z
y,x,1/2+z
x-y,-y,1/2+z
-x,-x+y,1/2+z
loop_
_atom_site_type_symbol
_atom_site_label
_atom_site_fract_x
_atom_site_fract_y
_atom_site_fract_z
Si Si1 0.468261 0.416896 0.654915
Si Si2 0.105623 0.209037 0.516000
Si Si3 0.145461 0.590384 0.659832
Si Si4 0.221982 0.482484 0.894609
Si Si5 0.414542 0.079692 0.654268
Si Si6 0.217389 0.920552 0.839064
Si Si7 0.767894 0.171689 0.561077
O O1 0.469006 0.398190 0.750000
O O2 0.405292 0.461139 0.643262
O O3 0.568097 0.499645 0.632876
O O4 0.432695 0.326827 0.603406
O O5 0.139540 0.139540 0.500000
O O6 0.106799 0.238049 0.606933
O O7 0.171108 0.298917 0.465192
O O8 0.000000 0.164915 0.500000
O O9 0.135118 0.554375 0.750000
O O10 0.232179 0.686800 0.650981
O O11 0.159238 0.526382 0.600226
O O12 0.167122 0.393859 0.842932
O O13 0.245203 0.458477 0.979843
O O14 0.412514 0.079425 0.750000
O O15 0.425331 0.170797 0.618968
O O16 0.314759 0.999642 0.628657
O O17 0.206652 0.944912 0.750000
#
# Coordination Sequence:
#
# PCOD9586855 Si02
#       7
#    12  12  12  12  12  12  12
#     4  10  23  42  66  96 130 174 221 271 334 401
#     4  11  24  44  67  97 132 174 219 284 353 407
#     4  11  22  40  63  90 126 171 219 272 327 389
#     4  11  24  37  60  91 127 169 213 270 331 389
#     4  10  20  42  71  92 124 175 221 267 322 399
#     4  10  20  41  68  96 125 169 226 269 328 414
#     4  11  25  41  63  97 134 165 220 271 340 401
#
# _framework density 19.554994000000001
#
# number of rings (size 3 to 8) (size 9 to 14) (size 15 to 20)
#    0.000    1.429    2.857    2.143    6.000    0.000 
#    0.857    1.429    0.000    0.000    0.000    0.000 
#    0.000    0.000    0.000    0.000    0.000    0.000 
#
# Total GULP energy -468565.804831 kJ/mol
# GULP energy per Si atom -5578.164343 kJ/mol
# Density = 1.951049 g / cm^3
# Si number density = 19.554994 Si / 1000 Ang^3
#
#
#
# Elastic Constant Matrix: (Units=GPa)
#
#
# Indices 1 2 3 4 5 6 
#
# 1 105.1373 34.1135 51.4237 0.0000 0.0000 0.0000
# 2 34.1135 105.1373 51.4237 0.0000 0.0000 0.0000
# 3 51.4237 51.4237 63.1294 0.0000 0.0000 0.0000
# 4 0.0000 0.0000 0.0000 23.1936 0.0000 0.0000
# 5 0.0000 0.0000 0.0000 0.0000 23.1936 0.0000
# 6 0.0000 0.0000 0.0000 0.0000 0.0000 35.5119
#
#
#
# Elastic Compliance Matrix: (Units=1/GPa)
#
#
# Indices 1 2 3 4 5 6 
#
# 1 0.016053 0.001973 -0.014684 0.000000 0.000000 0.000000
# 2 0.001973 0.016053 -0.014684 0.000000 0.000000 0.000000
# 3 -0.014684 -0.014684 0.039763 0.000000 0.000000 0.000000
# 4 0.000000 0.000000 0.000000 0.043115 0.000000 0.000000
# 5 0.000000 0.000000 0.000000 0.000000 0.043115 0.000000
# 6 0.000000 0.000000 0.000000 0.000000 0.000000 0.028160
#
#
# Mechanical properties :
#
#
# Convention : Reuss Voigt Hill
#
# Bulk Modulus (GPa) = 58.54781 60.81398 59.68090
# Shear Modulus (GPa) = 20.26406 25.47601 22.87003
#
# Velocity S-wave (km/s) = 3.22259 3.61333 3.42354
# Velocity P-wave (km/s) = 6.62207 6.96955 6.79803
#
# Compressibility (1/GPa) = 0.01708006
#
# Stress axis : x y z
#
# Youngs Moduli (GPa) = 62.29299 62.29299 25.14903
#
# Poissons Ratio (x) = -0.12293 0.36929
# Poissons Ratio (y) = -0.12293 0.36929
# Poissons Ratio (z) = 0.91471 0.91471
#
# Static dielectric constant tensor:
#      x y z
#    x 1.688740 0.000000 0.000000 
#    y 0.000000 1.688740 0.000000 
#    z 0.000000 0.000000 1.706240 
# 
# From -- ./inp_files/3168.got.cif
#   From: 2010.05.17/outbox.cif.g08.bks.cpg/sg190_2_cif.got.tgz:3168.got - 2010.05.20 12:16:56.
