data_PCOD9586939
_publ_section_title
;
Structure prediction by ZEFSAII (Michael W. Deem and Ramdas Pophale) SiO2 
 PCOD9586939
Probable space group: P -6 2 C
;
_chemical_formula_sum "Si O2"
_cell_formula_units_Z 52
_cell_length_a 14.272041
_cell_length_b 14.272041
_cell_length_c 16.710042
_cell_angle_alpha 90.000000
_cell_angle_beta 90.000000
_cell_angle_gamma 120.000000
_cell_volume 2947.680052
_symmetry_space_group_name_H-M "P -6 2 C"
_symmetry_group_IT_number 190
_symmetry_cell_setting 'hexagonal'
loop_
_space_group_symop_operation_xyz
x,y,z
-x+y,-x,1/2-z
-y,x-y,z
x,y,1/2-z
-x+y,-x,z
-y,x-y,1/2-z
x-y,-y,-z
-x,-x+y,-z
y,x,-z
y,x,1/2+z
x-y,-y,1/2+z
-x,-x+y,1/2+z
loop_
_atom_site_type_symbol
_atom_site_label
_atom_site_fract_x
_atom_site_fract_y
_atom_site_fract_z
Si Si1 0.471628 0.761329 0.250000
Si Si2 0.488640 0.000000 0.500000
Si Si3 0.361398 0.109172 0.039743
Si Si4 0.592948 0.882203 0.091547
Si Si5 0.000000 0.000000 0.403887
Si Si6 0.175067 0.238693 0.845271
O O1 0.412044 0.631028 0.250000
O O2 0.540306 0.811960 0.170658
O O3 0.377163 0.922004 0.547309
O O4 0.521646 0.932064 0.442108
O O5 0.319470 0.137427 0.119222
O O6 0.396426 0.205770 0.976952
O O7 0.263852 0.000000 0.000000
O O8 0.711251 0.979665 0.114111
O O9 0.117827 0.087291 0.371549
O O10 0.000000 0.000000 0.500000
O O11 0.185984 0.245604 0.750000
#
# Coordination Sequence:
#
# PCOD9586939 Si02
#       6
#     6   6  12  12   4  12
#     4  10  24  38  62  96 122 164 214 284 320 372
#     4  10  24  40  68  92 120 180 214 264 324 380
#     4  10  23  41  64  96 122 172 218 265 319 386
#     4  12  20  44  64  93 132 165 218 266 327 386
#     4  12  25  41  64 102 133 179 217 262 335 406
#     4  12  23  40  65  95 137 169 212 270 332 392
#
# _framework density 17.640991
#
# number of rings (size 3 to 8) (size 9 to 14) (size 15 to 20)
#    0.923    0.000    3.462    5.538    0.000    0.000 
#    5.538    0.000    0.000    0.000    0.000    0.000 
#    0.000    0.000    0.000    0.000    0.000    0.000 
#
# Total GULP energy -290257.422731 kJ/mol
# GULP energy per Si atom -5581.873514 kJ/mol
# Density = 1.760084 g / cm^3
# Si number density = 17.640991 Si / 1000 Ang^3
#
#
#
# Elastic Constant Matrix: (Units=GPa)
#
#
# Indices 1 2 3 4 5 6 
#
# 1 112.2927 45.3813 26.3119 0.0000 0.0000 0.0000
# 2 45.3813 112.2927 26.3119 0.0000 0.0000 0.0000
# 3 26.3119 26.3119 30.4322 0.0000 0.0000 0.0000
# 4 0.0000 0.0000 0.0000 9.5800 0.0000 0.0000
# 5 0.0000 0.0000 0.0000 0.0000 9.5800 0.0000
# 6 0.0000 0.0000 0.0000 0.0000 0.0000 33.4557
#
#
#
# Elastic Compliance Matrix: (Units=1/GPa)
#
#
# Indices 1 2 3 4 5 6 
#
# 1 0.011930 -0.003015 -0.007708 0.000000 0.000000 0.000000
# 2 -0.003015 0.011930 -0.007708 0.000000 0.000000 0.000000
# 3 -0.007708 -0.007708 0.046188 0.000000 0.000000 0.000000
# 4 0.000000 0.000000 0.000000 0.104384 0.000000 0.000000
# 5 0.000000 0.000000 0.000000 0.000000 0.104384 0.000000
# 6 0.000000 0.000000 0.000000 0.000000 0.000000 0.029890
#
#
# Mechanical properties :
#
#
# Convention : Reuss Voigt Hill
#
# Bulk Modulus (GPa) = 30.13252 50.11421 40.12336
# Shear Modulus (GPa) = 14.02013 20.99064 17.50538
#
# Velocity S-wave (km/s) = 2.82218 3.45320 3.15352
# Velocity P-wave (km/s) = 5.26666 6.66100 6.00444
#
# Compressibility (1/GPa) = 0.03318674
#
# Stress axis : x y z
#
# Youngs Moduli (GPa) = 83.82316 83.82316 21.65064
#
# Poissons Ratio (x) = 0.25275 0.16688
# Poissons Ratio (y) = 0.25275 0.16688
# Poissons Ratio (z) = 0.64608 0.64608
#
# Static dielectric constant tensor:
#      x y z
#    x 1.596930 0.000000 0.000000 
#    y 0.000000 1.596930 0.000000 
#    z 0.000000 0.000000 1.569070 
# 
# From -- ./inp_files/2758.got.cif
#   From: 2010.05.17/outbox.cif.g08.bks.cpg/sg190_2_cif.got.tgz:2758.got - 2010.05.20 12:16:56.
