data_PCOD9586528
_publ_section_title
;
Structure prediction by ZEFSAII (Michael W. Deem and Ramdas Pophale) SiO2 
 PCOD9586528
Probable space group: P -6 2 M
;
_chemical_formula_sum "Si O2"
_cell_formula_units_Z 75
_cell_length_a 18.701170
_cell_length_b 18.701170
_cell_length_c 14.566231
_cell_angle_alpha 90.000000
_cell_angle_beta 90.000000
_cell_angle_gamma 120.000000
_cell_volume 4411.795577
_symmetry_space_group_name_H-M "P -6 2 M"
_symmetry_group_IT_number 189
_symmetry_cell_setting 'hexagonal'
loop_
_space_group_symop_operation_xyz
x,y,z
-x+y,-x,-z
-y,x-y,z
x,y,-z
-x+y,-x,z
-y,x-y,-z
x-y,-y,-z
-x,-x+y,-z
y,x,-z
y,x,z
x-y,-y,z
-x,-x+y,z
loop_
_atom_site_type_symbol
_atom_site_label
_atom_site_fract_x
_atom_site_fract_y
_atom_site_fract_z
Si Si1 0.404708 0.906109 0.108347
Si Si2 0.091977 0.906128 0.641797
Si Si3 0.137994 0.907107 0.852771
Si Si4 0.647460 0.745121 0.602299
Si Si5 0.827427 0.239071 0.794131
Si Si6 0.573787 0.903189 0.891767
Si Si7 0.000000 0.798261 0.000000
O O1 0.323254 0.842315 0.161070
O O2 0.483932 0.894499 0.118798
O O3 0.435102 0.000000 0.138929
O O4 0.386587 0.900594 0.000000
O O5 0.099388 0.900226 0.751987
O O6 0.164172 0.892919 0.602446
O O7 0.000000 0.842802 0.611930
O O8 0.116737 0.000000 0.620381
O O9 0.215090 0.892971 0.836132
O O10 0.170447 0.000000 0.886784
O O11 0.072276 0.840281 0.920446
O O12 0.610648 0.727423 0.500000
O O13 0.682327 0.682327 0.621304
O O14 0.593019 0.746721 0.685997
O O15 0.740972 0.160769 0.824699
O O16 0.640623 0.000000 0.875619
O O17 0.583278 0.887287 0.000000
#
# Coordination Sequence:
#
# PCOD9586528 Si02
#       7
#    12  12  12  12  12  12   3
#     4   9  18  34  52  77 107 139 170 206 252 310
#     4   9  16  29  42  57  86 126 173 220 264 305
#     4  10  22  33  42  66  97 141 186 223 259 305
#     4   9  19  34  51  73 100 129 170 225 274 310
#     4  11  20  33  59  78  99 134 179 225 258 315
#     4   9  20  35  52  76 113 147 171 206 270 327
#     4  12  22  32  40  64 106 140 176 234 264 304
#
# _framework density 16.999880999999998
#
# number of rings (size 3 to 8) (size 9 to 14) (size 15 to 20)
#    0.000    2.400    0.800    4.240    3.360    0.960 
#    2.880    0.000    0.000    1.920    0.000    2.240 
#    0.000    0.000    0.000    0.000    0.000    0.000 
#
# Total GULP energy -417550.620429 kJ/mol
# GULP energy per Si atom -5567.341606 kJ/mol
# Density = 1.696119 g / cm^3
# Si number density = 16.999881 Si / 1000 Ang^3
#
#
#
# Elastic Constant Matrix: (Units=GPa)
#
#
# Indices 1 2 3 4 5 6 
#
# 1 59.1442 25.4660 36.4285 0.0000 0.0000 0.0000
# 2 25.4660 59.1442 36.4285 0.0000 0.0000 0.0000
# 3 36.4285 36.4285 112.8713 0.0000 0.0000 0.0000
# 4 0.0000 0.0000 0.0000 -1.9621 0.0000 0.0000
# 5 0.0000 0.0000 0.0000 0.0000 -1.9621 0.0000
# 6 0.0000 0.0000 0.0000 0.0000 0.0000 16.8391
#
#
#
# Elastic Compliance Matrix: (Units=1/GPa)
#
#
# Indices 1 2 3 4 5 6 
#
# 1 0.023030 -0.006663 -0.005283 0.000000 0.000000 0.000000
# 2 -0.006663 0.023030 -0.005283 0.000000 0.000000 0.000000
# 3 -0.005283 -0.005283 0.012269 0.000000 0.000000 0.000000
# 4 0.000000 0.000000 0.000000 -0.509668 0.000000 0.000000
# 5 0.000000 0.000000 0.000000 0.000000 -0.509668 0.000000
# 6 0.000000 0.000000 0.000000 0.000000 0.000000 0.059386
#
#
# Mechanical properties :
#
#
# Convention : Reuss Voigt Hill
#
# Bulk Modulus (GPa) = 41.88561 47.53398 44.70979
# Shear Modulus (GPa) = -5.81932 11.43878 2.80973
#
# Velocity S-wave (km/s) = -1.85218 2.59680 1.28700
# Velocity P-wave (km/s) = 4.48532 6.08385 5.34469
#
# Compressibility (1/GPa) = 0.02387455
#
# Stress axis : x y z
#
# Youngs Moduli (GPa) = 43.42118 43.42118 81.50316
#
# Poissons Ratio (x) = 0.28930 0.43054
# Poissons Ratio (y) = 0.28930 0.43054
# Poissons Ratio (z) = 0.22937 0.22937
#
# Static dielectric constant tensor:
#      x y z
#    x 1.578430 0.000000 0.000000 
#    y 0.000000 1.578430 0.000000 
#    z 0.000000 0.000000 1.590940 
# 
# From -- ./inp_files/2712.got.cif
#   From: 2010.05.17/outbox.cif.g08.bks.cpg/sg189_2_cif.got.tgz:2712.got - 2010.05.20 12:14:34.
