data_PCOD9586562
_publ_section_title
;
Structure prediction by ZEFSAII (Michael W. Deem and Ramdas Pophale) SiO2 
 PCOD9586562
Probable space group: P -6 2 M
;
_chemical_formula_sum "Si O2"
_cell_formula_units_Z 72
_cell_length_a 15.370246
_cell_length_b 15.370246
_cell_length_c 15.812733
_cell_angle_alpha 90.000000
_cell_angle_beta 90.000000
_cell_angle_gamma 120.000000
_cell_volume 3235.185641
_symmetry_space_group_name_H-M "P -6 2 M"
_symmetry_group_IT_number 189
_symmetry_cell_setting 'hexagonal'
loop_
_space_group_symop_operation_xyz
x,y,z
-x+y,-x,-z
-y,x-y,z
x,y,-z
-x+y,-x,z
-y,x-y,-z
x-y,-y,-z
-x,-x+y,-z
y,x,-z
y,x,z
x-y,-y,z
-x,-x+y,z
loop_
_atom_site_type_symbol
_atom_site_label
_atom_site_fract_x
_atom_site_fract_y
_atom_site_fract_z
Si Si1 0.111164 0.855456 0.406637
Si Si2 0.113099 0.520366 0.131239
Si Si3 0.705276 0.180712 0.404963
Si Si4 0.493692 0.111433 0.670242
Si Si5 0.180426 0.750917 0.095299
Si Si6 0.114628 0.235826 0.212375
O O1 0.157089 0.897785 0.500000
O O2 0.106855 0.749375 0.406967
O O3 0.150993 0.893532 0.312269
O O4 0.000000 0.839866 0.407777
O O5 0.112097 0.491661 0.229192
O O6 0.141264 0.635933 0.122236
O O7 0.192997 0.494495 0.092253
O O8 0.000000 0.451151 0.098338
O O9 0.683388 0.200102 0.500000
O O10 0.604232 0.134045 0.353265
O O11 0.796756 0.282457 0.367672
O O12 0.411860 0.000000 0.638847
O O13 0.149281 0.812161 0.160298
O O14 0.143149 0.751366 0.000000
O O15 0.164382 0.164382 0.208575
O O16 0.000000 0.179962 0.178917
#
# Coordination Sequence:
#
# PCOD9586562 Si02
#       6
#    12  12  12  12  12  12
#     4   9  19  37  61  88 120 162 212 265 318 370
#     4  11  24  43  68  95 125 164 211 264 319 379
#     4  11  22  35  54  83 123 166 209 261 317 378
#     4  11  23  39  60  86 119 163 213 263 316 377
#     4  12  26  44  68  98 132 168 209 263 324 387
#     4  11  24  43  67  96 131 172 218 266 318 378
#
# _framework density 22.255292000000001
#
# number of rings (size 3 to 8) (size 9 to 14) (size 15 to 20)
#    0.000    1.167    0.000    6.333    0.000   10.333 
#    0.000    1.667    0.000    2.000    0.000    0.000 
#    0.000    0.000    0.000    0.000    0.000    0.000 
#
# Total GULP energy -402035.693482 kJ/mol
# GULP energy per Si atom -5583.829076 kJ/mol
# Density = 2.220464 g / cm^3
# Si number density = 22.255292 Si / 1000 Ang^3
#
#
#
# Elastic Constant Matrix: (Units=GPa)
#
#
# Indices 1 2 3 4 5 6 
#
# 1 66.2355 7.8139 -8.0063 0.0000 0.0000 0.0000
# 2 7.8139 66.2355 -8.0063 0.0000 0.0000 0.0000
# 3 -8.0063 -8.0063 88.7000 0.0000 0.0000 0.0000
# 4 0.0000 0.0000 0.0000 -32.6798 0.0000 0.0000
# 5 0.0000 0.0000 0.0000 0.0000 -32.6798 0.0000
# 6 0.0000 0.0000 0.0000 0.0000 0.0000 29.2108
#
#
#
# Elastic Compliance Matrix: (Units=1/GPa)
#
#
# Indices 1 2 3 4 5 6 
#
# 1 0.015445 -0.001672 0.001243 0.000000 0.000000 0.000000
# 2 -0.001672 0.015445 0.001243 0.000000 0.000000 0.000000
# 3 0.001243 0.001243 0.011498 0.000000 0.000000 0.000000
# 4 0.000000 0.000000 0.000000 -0.030600 0.000000 0.000000
# 5 0.000000 0.000000 0.000000 0.000000 -0.030600 0.000000
# 6 0.000000 0.000000 0.000000 0.000000 0.000000 0.034234
#
#
# Mechanical properties :
#
#
# Convention : Reuss Voigt Hill
#
# Bulk Modulus (GPa) = 22.71801 22.75262 22.73532
# Shear Modulus (GPa) = 175.64711 8.06153 91.85432
#
# Velocity S-wave (km/s) = 8.89354 1.90530 6.43138
# Velocity P-wave (km/s) = 10.75594 3.88405 8.08629
#
# Compressibility (1/GPa) = 0.04401793
#
# Stress axis : x y z
#
# Youngs Moduli (GPa) = 64.74524 64.74524 86.96870
#
# Poissons Ratio (x) = 0.10824 -0.10812
# Poissons Ratio (y) = 0.10824 -0.10812
# Poissons Ratio (z) = -0.08049 -0.08049
#
# Static dielectric constant tensor:
#      x y z
#    x 1.807800 0.000000 0.000000 
#    y 0.000000 1.807800 0.000000 
#    z 0.000000 0.000000 1.837710 
# 
# From -- ./inp_files/3104.got.cif
#   From: 2010.05.17/outbox.cif.g08.bks.cpg/sg189_2_cif.got.tgz:3104.got - 2010.05.20 12:14:34.
