data_PCOD9586796
_publ_section_title
;
Structure prediction by ZEFSAII (Michael W. Deem and Ramdas Pophale) SiO2 
 PCOD9586796
Probable space group: P -6 2 C
;
_chemical_formula_sum "Si O2"
_cell_formula_units_Z 84
_cell_length_a 18.785881
_cell_length_b 18.785881
_cell_length_c 13.564797
_cell_angle_alpha 90.000000
_cell_angle_beta 90.000000
_cell_angle_gamma 120.000000
_cell_volume 4145.787755
_symmetry_space_group_name_H-M "P -6 2 C"
_symmetry_group_IT_number 190
_symmetry_cell_setting 'hexagonal'
loop_
_space_group_symop_operation_xyz
x,y,z
-x+y,-x,1/2-z
-y,x-y,z
x,y,1/2-z
-x+y,-x,z
-y,x-y,1/2-z
x-y,-y,-z
-x,-x+y,-z
y,x,-z
y,x,1/2+z
x-y,-y,1/2+z
-x,-x+y,1/2+z
loop_
_atom_site_type_symbol
_atom_site_label
_atom_site_fract_x
_atom_site_fract_y
_atom_site_fract_z
Si Si1 0.831993 0.503198 0.506139
Si Si2 0.514992 0.215682 0.639602
Si Si3 0.289744 0.341798 0.130668
Si Si4 0.125345 0.317634 0.139661
Si Si5 0.500703 0.592651 0.522702
Si Si6 0.140184 0.778303 0.634084
Si Si7 0.331731 0.051460 0.131872
O O1 0.752582 0.454116 0.576198
O O2 0.906716 0.570092 0.575563
O O3 0.859654 0.451553 0.437740
O O4 0.812476 0.557945 0.432875
O O5 0.548402 0.227609 0.750000
O O6 0.416462 0.179048 0.646845
O O7 0.515508 0.143551 0.577996
O O8 0.292885 0.354753 0.250000
O O9 0.193786 0.298766 0.097380
O O10 0.323634 0.279880 0.111663
O O11 0.106254 0.281662 0.250000
O O12 0.037810 0.297249 0.096658
O O13 0.523746 0.523746 0.500000
O O14 0.579436 0.659837 0.582859
O O15 0.150104 0.768299 0.750000
O O16 0.186725 0.876095 0.616406
O O17 0.340715 0.043326 0.250000
#
# Coordination Sequence:
#
# PCOD9586796 Si02
#       7
#    12  12  12  12  12  12  12
#     4  11  22  38  56  81 115 149 196 247 302 357
#     4  10  21  39  59  81 114 152 193 245 304 370
#     4   9  18  34  57  84 114 152 192 238 294 355
#     4   8  15  31  56  81 110 145 185 230 285 350
#     4  12  23  36  59  89 115 150 199 257 308 358
#     4  10  20  35  56  82 114 152 197 241 290 354
#     4  10  20  36  57  84 116 152 193 243 298 356
#
# _framework density 20.26153
#
# number of rings (size 3 to 8) (size 9 to 14) (size 15 to 20)
#    0.000    2.000    2.857    2.571    0.000    1.714 
#    0.857    0.000    0.000    0.571    0.000    4.000 
#    0.000    0.286    0.000    0.143    0.000    0.286 
#
# Total GULP energy -468023.497360 kJ/mol
# GULP energy per Si atom -5571.708302 kJ/mol
# Density = 2.021541 g / cm^3
# Si number density = 20.261530 Si / 1000 Ang^3
#
#
#
# Elastic Constant Matrix: (Units=GPa)
#
#
# Indices 1 2 3 4 5 6 
#
# 1 70.1841 9.7199 17.8897 0.0000 0.0000 0.0000
# 2 9.7199 70.1841 17.8897 0.0000 0.0000 0.0000
# 3 17.8897 17.8897 67.5036 0.0000 0.0000 0.0000
# 4 0.0000 0.0000 0.0000 21.0641 0.0000 0.0000
# 5 0.0000 0.0000 0.0000 0.0000 21.0641 0.0000
# 6 0.0000 0.0000 0.0000 0.0000 0.0000 30.2321
#
#
#
# Elastic Compliance Matrix: (Units=1/GPa)
#
#
# Indices 1 2 3 4 5 6 
#
# 1 0.015369 -0.001169 -0.003763 0.000000 0.000000 0.000000
# 2 -0.001169 0.015369 -0.003763 0.000000 0.000000 0.000000
# 3 -0.003763 -0.003763 0.016809 0.000000 0.000000 0.000000
# 4 0.000000 0.000000 0.000000 0.047474 0.000000 0.000000
# 5 0.000000 0.000000 0.000000 0.000000 0.047474 0.000000
# 6 0.000000 0.000000 0.000000 0.000000 0.000000 0.033077
#
#
# Mechanical properties :
#
#
# Convention : Reuss Voigt Hill
#
# Bulk Modulus (GPa) = 33.16114 33.20786 33.18450
# Shear Modulus (GPa) = 24.62845 25.29687 24.96266
#
# Velocity S-wave (km/s) = 3.49022 3.53727 3.51383
# Velocity P-wave (km/s) = 5.71352 5.75397 5.73378
#
# Compressibility (1/GPa) = 0.03015577
#
# Stress axis : x y z
#
# Youngs Moduli (GPa) = 65.06422 65.06422 59.49298
#
# Poissons Ratio (x) = 0.07608 0.22389
# Poissons Ratio (y) = 0.07608 0.22389
# Poissons Ratio (z) = 0.24486 0.24486
#
# Static dielectric constant tensor:
#      x y z
#    x 1.755100 0.000000 0.000000 
#    y 0.000000 1.755100 0.000000 
#    z 0.000000 0.000000 1.803700 
# 
# From -- ./inp_files/3191.got.cif
#   From: 2010.05.17/outbox.cif.g08.bks.cpg/sg190_2_cif.got.tgz:3191.got - 2010.05.20 12:16:56.
