data_PCOD9586477
_publ_section_title
;
Structure prediction by ZEFSAII (Michael W. Deem and Ramdas Pophale) SiO2 
 PCOD9586477
Probable space group: P -6 2 M
;
_chemical_formula_sum "Si O2"
_cell_formula_units_Z 60
_cell_length_a 16.241704
_cell_length_b 16.241704
_cell_length_c 14.454854
_cell_angle_alpha 90.000000
_cell_angle_beta 90.000000
_cell_angle_gamma 120.000000
_cell_volume 3302.231561
_symmetry_space_group_name_H-M "P -6 2 M"
_symmetry_group_IT_number 189
_symmetry_cell_setting 'hexagonal'
loop_
_space_group_symop_operation_xyz
x,y,z
-x+y,-x,-z
-y,x-y,z
x,y,-z
-x+y,-x,z
-y,x-y,-z
x-y,-y,-z
-x,-x+y,-z
y,x,-z
y,x,z
x-y,-y,z
-x,-x+y,z
loop_
_atom_site_type_symbol
_atom_site_label
_atom_site_fract_x
_atom_site_fract_y
_atom_site_fract_z
Si Si1 0.742691 0.549922 0.890396
Si Si2 0.464761 0.579703 0.394681
Si Si3 0.286026 0.396188 0.388881
Si Si4 0.634575 0.743171 0.289595
Si Si5 0.480796 0.890452 0.110891
O O1 0.755004 0.631160 0.820056
O O2 0.632877 0.468069 0.876095
O O3 0.820744 0.520446 0.861524
O O4 0.753730 0.572742 0.000000
O O5 0.465612 0.614054 0.500000
O O6 0.515455 0.515455 0.400072
O O7 0.357509 0.506972 0.363859
O O8 0.529913 0.663822 0.326348
O O9 0.277597 0.394913 0.500000
O O10 0.338655 0.338655 0.363095
O O11 0.184903 0.348791 0.341515
O O12 0.705195 0.705195 0.314856
O O13 0.534636 0.000000 0.148891
O O14 0.493960 0.900027 0.000000
#
# Coordination Sequence:
#
# PCOD9586477 Si02
#       5
#    12  12  12  12  12
#     4  10  21  35  51  75 109 148 192 235 279 329
#     4   8  16  33  53  74 103 135 169 214 267 323
#     4   9  19  37  58  78 105 141 178 221 276 334
#     4  11  22  33  53  82 109 142 182 224 273 325
#     4   9  18  34  54  73 100 143 190 236 282 327
#
# _framework density 18.169530999999999
#
# number of rings (size 3 to 8) (size 9 to 14) (size 15 to 20)
#    0.000    2.600    0.000    2.800    2.800    4.800 
#    1.200    0.000    0.000    0.400    0.000    0.000 
#    0.000    0.000    0.000    0.000    0.000    0.000 
#
# Total GULP energy -334450.526967 kJ/mol
# GULP energy per Si atom -5574.175449 kJ/mol
# Density = 1.812818 g / cm^3
# Si number density = 18.169531 Si / 1000 Ang^3
#
#
#
# Elastic Constant Matrix: (Units=GPa)
#
#
# Indices 1 2 3 4 5 6 
#
# 1 82.7473 39.3425 23.3238 0.0000 0.0000 0.0000
# 2 39.3425 82.7473 23.3238 0.0000 0.0000 0.0000
# 3 23.3238 23.3238 63.6131 0.0000 0.0000 0.0000
# 4 0.0000 0.0000 0.0000 16.9918 0.0000 0.0000
# 5 0.0000 0.0000 0.0000 0.0000 16.9918 0.0000
# 6 0.0000 0.0000 0.0000 0.0000 0.0000 21.7024
#
#
#
# Elastic Compliance Matrix: (Units=1/GPa)
#
#
# Indices 1 2 3 4 5 6 
#
# 1 0.016282 -0.006757 -0.003492 0.000000 0.000000 0.000000
# 2 -0.006757 0.016282 -0.003492 0.000000 0.000000 0.000000
# 3 -0.003492 -0.003492 0.018281 0.000000 0.000000 0.000000
# 4 0.000000 0.000000 0.000000 0.058852 0.000000 0.000000
# 5 0.000000 0.000000 0.000000 0.000000 0.058852 0.000000
# 6 0.000000 0.000000 0.000000 0.000000 0.000000 0.046078
#
#
# Mechanical properties :
#
#
# Convention : Reuss Voigt Hill
#
# Bulk Modulus (GPa) = 42.80529 44.56534 43.68531
# Shear Modulus (GPa) = 20.00823 20.67837 20.34330
#
# Velocity S-wave (km/s) = 3.32203 3.37720 3.34973
# Velocity P-wave (km/s) = 6.19068 6.30778 6.24950
#
# Compressibility (1/GPa) = 0.02336160
#
# Stress axis : x y z
#
# Youngs Moduli (GPa) = 61.41753 61.41753 54.70166
#
# Poissons Ratio (x) = 0.41500 0.19104
# Poissons Ratio (y) = 0.41500 0.19104
# Poissons Ratio (z) = 0.21449 0.21449
#
# Static dielectric constant tensor:
#      x y z
#    x 1.630010 0.000000 0.000000 
#    y 0.000000 1.630010 0.000000 
#    z 0.000000 0.000000 1.667460 
# 
# From -- ./inp_files/2515.got.cif
#   From: 2010.05.17/outbox.cif.g08.bks.cpg/sg189_2_cif.got.tgz:2515.got - 2010.05.20 12:14:34.
