data_PCOD9586902
_publ_section_title
;
Structure prediction by ZEFSAII (Michael W. Deem and Ramdas Pophale) SiO2 
 PCOD9586902
Probable space group: P -6 2 C
;
_chemical_formula_sum "Si O2"
_cell_formula_units_Z 60
_cell_length_a 15.778751
_cell_length_b 15.778751
_cell_length_c 13.497026
_cell_angle_alpha 90.000000
_cell_angle_beta 90.000000
_cell_angle_gamma 120.000000
_cell_volume 2910.140531
_symmetry_space_group_name_H-M "P -6 2 C"
_symmetry_group_IT_number 190
_symmetry_cell_setting 'hexagonal'
loop_
_space_group_symop_operation_xyz
x,y,z
-x+y,-x,1/2-z
-y,x-y,z
x,y,1/2-z
-x+y,-x,z
-y,x-y,1/2-z
x-y,-y,-z
-x,-x+y,-z
y,x,-z
y,x,1/2+z
x-y,-y,1/2+z
-x,-x+y,1/2+z
loop_
_atom_site_type_symbol
_atom_site_label
_atom_site_fract_x
_atom_site_fract_y
_atom_site_fract_z
Si Si1 0.378822 0.512839 0.062885
Si Si2 0.167605 0.452920 0.367771
Si Si3 0.214407 0.149356 0.130110
Si Si4 0.773367 0.841664 0.371147
Si Si5 0.926250 0.585191 0.134106
O O1 0.282965 0.507381 0.108676
O O2 0.480531 0.608747 0.085740
O O3 0.382031 0.420701 0.110693
O O4 0.364274 0.498612 0.944974
O O5 0.154243 0.451301 0.250000
O O6 0.113893 0.339701 0.402460
O O7 0.206770 0.144963 0.250000
O O8 0.137480 0.182978 0.097793
O O9 0.323214 0.235473 0.107928
O O10 0.194178 0.043092 0.098874
O O11 0.771067 0.840884 0.250000
O O12 0.905500 0.561329 0.250000
#
# Coordination Sequence:
#
# PCOD9586902 Si02
#       5
#    12  12  12  12  12
#     4  11  23  40  67  95 125 165 223 276 338 390
#     4  11  21  38  64  97 128 165 221 284 331 380
#     4   9  16  32  59  92 131 176 210 257 321 390
#     4   9  17  30  58  97 134 170 219 263 318 392
#     4  10  21  42  65  87 128 176 212 259 334 407
#
# _framework density 20.617560999999998
#
# number of rings (size 3 to 8) (size 9 to 14) (size 15 to 20)
#    0.000    2.000    2.000    2.600    0.000    1.600 
#    7.200    1.000    0.000    0.000    0.000    0.000 
#    0.000    0.000    0.000    0.000    0.000    0.000 
#
# Total GULP energy -335443.534482 kJ/mol
# GULP energy per Si atom -5590.725575 kJ/mol
# Density = 2.057063 g / cm^3
# Si number density = 20.617561 Si / 1000 Ang^3
#
#
#
# Elastic Constant Matrix: (Units=GPa)
#
#
# Indices 1 2 3 4 5 6 
#
# 1 121.1504 81.7120 55.4505 0.0000 0.0000 0.0000
# 2 81.7120 121.1504 55.4505 0.0000 0.0000 0.0000
# 3 55.4505 55.4505 116.3277 0.0000 0.0000 0.0000
# 4 0.0000 0.0000 0.0000 29.7274 0.0000 0.0000
# 5 0.0000 0.0000 0.0000 0.0000 29.7274 0.0000
# 6 0.0000 0.0000 0.0000 0.0000 0.0000 19.7192
#
#
#
# Elastic Compliance Matrix: (Units=1/GPa)
#
#
# Indices 1 2 3 4 5 6 
#
# 1 0.016011 -0.009345 -0.003178 0.000000 0.000000 0.000000
# 2 -0.009345 0.016011 -0.003178 0.000000 0.000000 0.000000
# 3 -0.003178 -0.003178 0.011626 0.000000 0.000000 0.000000
# 4 0.000000 0.000000 0.000000 0.033639 0.000000 0.000000
# 5 0.000000 0.000000 0.000000 0.000000 0.033639 0.000000
# 6 0.000000 0.000000 0.000000 0.000000 0.000000 0.050712
#
#
# Mechanical properties :
#
#
# Convention : Reuss Voigt Hill
#
# Bulk Modulus (GPa) = 81.64582 82.65050 82.14816
# Shear Modulus (GPa) = 25.36498 26.90249 26.13374
#
# Velocity S-wave (km/s) = 3.51131 3.61617 3.56413
# Velocity P-wave (km/s) = 7.49168 7.59013 7.54106
#
# Compressibility (1/GPa) = 0.01224802
#
# Stress axis : x y z
#
# Youngs Moduli (GPa) = 62.45567 62.45567 86.01396
#
# Poissons Ratio (x) = 0.58363 0.27334
# Poissons Ratio (y) = 0.58363 0.27334
# Poissons Ratio (z) = 0.19848 0.19848
#
# Static dielectric constant tensor:
#      x y z
#    x 1.747260 0.000000 0.000000 
#    y 0.000000 1.747260 0.000000 
#    z 0.000000 0.000000 1.805570 
# 
# From -- ./inp_files/2799.got.cif
#   From: 2010.05.17/outbox.cif.g08.bks.cpg/sg190_2_cif.got.tgz:2799.got - 2010.05.20 12:16:56.
