data_PCOD9586068
_publ_section_title
;
Structure prediction by ZEFSAII (Michael W. Deem and Ramdas Pophale) SiO2 
 PCOD9586068
Probable space group: P -6 C 2
;
_chemical_formula_sum "Si O2"
_cell_formula_units_Z 74
_cell_length_a 13.107728
_cell_length_b 13.107728
_cell_length_c 26.843622
_cell_angle_alpha 90.000000
_cell_angle_beta 90.000000
_cell_angle_gamma 120.000000
_cell_volume 3994.170390
_symmetry_space_group_name_H-M "P -6 C 2"
_symmetry_group_IT_number 188
_symmetry_cell_setting 'hexagonal'
loop_
_space_group_symop_operation_xyz
x,y,z
-x+y,-x,1/2-z
-y,x-y,z
x,y,1/2-z
-x+y,-x,z
-y,x-y,1/2-z
-y,-x,-z
-x+y,y,-z
x,x-y,-z
-x+y,y,1/2+z
x,x-y,1/2+z
-y,-x,1/2+z
loop_
_atom_site_type_symbol
_atom_site_label
_atom_site_fract_x
_atom_site_fract_y
_atom_site_fract_z
Si Si1 0.333334 0.666667 0.810867
Si Si2 0.507941 0.077833 0.649333
Si Si3 0.666668 0.333334 0.189917
Si Si4 0.464515 0.939953 0.057287
Si Si5 0.133180 0.130590 0.250000
Si Si6 0.071750 0.301088 0.659544
Si Si7 0.341714 0.446603 0.691393
Si Si8 0.200209 0.387225 0.058421
O O1 0.333334 0.666668 0.750000
O O2 0.202671 0.626784 0.827829
O O3 0.564109 0.209145 0.668772
O O4 0.506264 0.052362 0.590907
O O5 0.370870 0.997517 0.664492
O O6 0.582654 0.019995 0.670627
O O7 0.666667 0.333334 0.250000
O O8 0.507946 0.844282 0.062442
O O9 0.326000 0.883325 0.069862
O O10 0.487043 0.974086 0.000000
O O11 0.190807 0.193505 0.302055
O O12 0.001341 0.112071 0.250000
O O13 0.204575 0.367545 0.680472
O O14 0.099924 0.294697 0.600424
O O15 0.357584 0.454717 0.750000
O O16 0.174176 0.348351 0.000000
#
# Coordination Sequence:
#
# PCOD9586068 Si02
#       8
#     4  12   4  12   6  12  12  12
#     4   9  18  27  45  81 124 146 178 249 315 376
#     4  11  24  40  59  88 124 164 211 251 303 369
#     4  12  30  48  58  83 121 180 222 255 301 371
#     4   9  17  32  56  91 130 163 197 248 315 377
#     4  10  26  46  60  84 114 150 204 258 324 376
#     4  11  21  37  63  89 119 161 200 253 308 375
#     4  11  19  30  55  88 120 151 193 251 313 370
#     4   9  17  30  54  91 131 162 196 245 310 374
#
# _framework density 18.527000999999998
#
# number of rings (size 3 to 8) (size 9 to 14) (size 15 to 20)
#    0.162    1.622    4.054    0.811    2.270    2.595 
#    0.000    0.811    0.000    0.973    0.000    0.000 
#    0.000    0.000    0.000    0.000    0.000    0.000 
#
# Total GULP energy -411989.848248 kJ/mol
# GULP energy per Si atom -5567.430382 kJ/mol
# Density = 1.848483 g / cm^3
# Si number density = 18.527001 Si / 1000 Ang^3
#
#
#
# Elastic Constant Matrix: (Units=GPa)
#
#
# Indices 1 2 3 4 5 6 
#
# 1 51.6482 11.5730 25.6709 0.0000 0.0001 0.0002
# 2 11.5730 51.6492 25.6708 0.0000 0.0000 0.0002
# 3 25.6709 25.6708 119.4500 0.0000 0.0000 0.0000
# 4 0.0000 0.0000 0.0000 23.5053 0.0000 0.0000
# 5 0.0001 0.0000 0.0000 0.0000 23.5052 0.0000
# 6 0.0002 0.0002 0.0000 0.0000 0.0000 20.0380
#
#
#
# Elastic Compliance Matrix: (Units=1/GPa)
#
#
# Indices 1 2 3 4 5 6 
#
# 1 0.022057 -0.002896 -0.004118 0.000000 0.000000 0.000000
# 2 -0.002896 0.022057 -0.004118 0.000000 0.000000 0.000000
# 3 -0.004118 -0.004118 0.010142 0.000000 0.000000 0.000000
# 4 0.000000 0.000000 0.000000 0.042544 0.000000 0.000000
# 5 0.000000 0.000000 0.000000 0.000000 0.042544 0.000000
# 6 0.000000 0.000000 0.000000 0.000000 0.000000 0.049905
#
#
# Mechanical properties :
#
#
# Convention : Reuss Voigt Hill
#
# Bulk Modulus (GPa) = 31.25700 38.73073 34.99387
# Shear Modulus (GPa) = 22.50468 24.06521 23.28494
#
# Velocity S-wave (km/s) = 3.48903 3.60797 3.54900
# Velocity P-wave (km/s) = 5.75663 6.18927 5.97686
#
# Compressibility (1/GPa) = 0.03199284
#
# Stress axis : x y z
#
# Youngs Moduli (GPa) = 45.33629 45.33728 98.60297
#
# Poissons Ratio (x) = 0.13128 0.40605
# Poissons Ratio (y) = 0.13128 0.40604
# Poissons Ratio (z) = 0.18670 0.18670
#
# Static dielectric constant tensor:
#      x y z
#    x 1.638510 0.000000 0.000000 
#    y 0.000000 1.638510 0.000000 
#    z 0.000000 0.000000 1.701630 
# 
# From -- ./inp_files/4538.got.cif
#   From: 2010.05.17/outbox.cif.g08.bks.cpg/sg188_3_cif.got.tgz:4538.got - 2010.05.20 12:11:46.
