data_PCOD9586019
_publ_section_title
;
Structure prediction by ZEFSAII (Michael W. Deem and Ramdas Pophale) SiO2 
 PCOD9586019
Probable space group: P -6 C 2
;
_chemical_formula_sum "Si O2"
_cell_formula_units_Z 84
_cell_length_a 17.575847
_cell_length_b 17.575847
_cell_length_c 15.340039
_cell_angle_alpha 90.000000
_cell_angle_beta 90.000000
_cell_angle_gamma 120.000000
_cell_volume 4103.832459
_symmetry_space_group_name_H-M "P -6 C 2"
_symmetry_group_IT_number 188
_symmetry_cell_setting 'hexagonal'
loop_
_space_group_symop_operation_xyz
x,y,z
-x+y,-x,1/2-z
-y,x-y,z
x,y,1/2-z
-x+y,-x,z
-y,x-y,1/2-z
-y,-x,-z
-x+y,y,-z
x,x-y,-z
-x+y,y,1/2+z
x,x-y,1/2+z
-y,-x,1/2+z
loop_
_atom_site_type_symbol
_atom_site_label
_atom_site_fract_x
_atom_site_fract_y
_atom_site_fract_z
Si Si1 0.919303 0.127598 0.250000
Si Si2 0.457246 0.582471 0.902783
Si Si3 0.810480 0.071355 0.933583
Si Si4 0.131302 0.308429 0.404053
Si Si5 0.926217 0.451731 0.647423
Si Si6 0.231930 0.491891 0.348673
Si Si7 0.075110 0.205045 0.750000
Si Si8 0.683913 0.542484 0.007381
O O1 0.891506 0.157821 0.162974
O O2 0.025179 0.169638 0.250000
O O3 0.873513 0.023081 0.250000
O O4 0.497849 0.531158 0.851911
O O5 0.358428 0.557769 0.877555
O O6 0.509319 0.688038 0.898131
O O7 0.451217 0.548784 0.000000
O O8 0.742140 0.096686 0.972813
O O9 0.762814 0.968167 0.922699
O O10 0.891246 0.108755 0.000000
O O11 0.168407 0.336814 0.500000
O O12 0.146704 0.395711 0.356125
O O13 0.168165 0.264051 0.337073
O O14 0.898264 0.438055 0.750000
O O15 0.892917 0.366046 0.585138
O O16 0.888398 0.503190 0.588367
O O17 0.263210 0.512056 0.250000
O O18 0.753886 0.507772 0.000000
#
# Coordination Sequence:
#
# PCOD9586019 Si02
#       8
#     6  12  12  12  12  12   6  12
#     4  10  21  38  64  90 126 178 210 278 332 397
#     4  12  24  44  65  97 139 191 234 290 340 397
#     4  10  22  40  61  95 128 169 220 264 333 397
#     4  11  22  37  62  89 128 171 213 272 327 380
#     4  11  24  45  73 102 138 178 226 278 350 407
#     4  12  25  41  62  96 132 180 236 281 329 397
#     4  10  21  40  58  94 124 160 226 264 332 395
#     4  10  23  45  69  97 134 168 217 276 335 419
#
# _framework density 20.468672000000002
#
# number of rings (size 3 to 8) (size 9 to 14) (size 15 to 20)
#    0.000    1.143    2.143    4.714    3.000    0.571 
#    7.286    0.000    0.000    4.571    0.000    0.000 
#    0.000    0.000    0.000    0.000    0.000    0.000 
#
# Total GULP energy -468444.311735 kJ/mol
# GULP energy per Si atom -5576.717997 kJ/mol
# Density = 2.042208 g / cm^3
# Si number density = 20.468672 Si / 1000 Ang^3
#
#
#
# Elastic Constant Matrix: (Units=GPa)
#
#
# Indices 1 2 3 4 5 6 
#
# 1 52.5856 -4.1187 11.2150 0.0001 0.0000 0.0000
# 2 -4.1187 52.5856 11.2150 -0.0001 0.0000 0.0000
# 3 11.2150 11.2150 144.7864 0.0000 0.0000 0.0000
# 4 0.0001 -0.0001 0.0000 25.8149 0.0000 0.0000
# 5 0.0000 0.0000 0.0000 0.0000 25.8149 0.0001
# 6 0.0000 0.0000 0.0000 0.0000 0.0001 28.3521
#
#
#
# Elastic Compliance Matrix: (Units=1/GPa)
#
#
# Indices 1 2 3 4 5 6 
#
# 1 0.019518 0.001882 -0.001658 0.000000 0.000000 0.000000
# 2 0.001882 0.019518 -0.001658 0.000000 0.000000 0.000000
# 3 -0.001658 -0.001658 0.007164 0.000000 0.000000 0.000000
# 4 0.000000 0.000000 0.000000 0.038737 0.000000 0.000000
# 5 0.000000 0.000000 0.000000 0.000000 0.038737 0.000000
# 6 0.000000 0.000000 0.000000 0.000000 0.000000 0.035271
#
#
# Mechanical properties :
#
#
# Convention : Reuss Voigt Hill
#
# Bulk Modulus (GPa) = 23.07729 31.84225 27.45977
# Shear Modulus (GPa) = 28.36810 31.43946 29.90378
#
# Velocity S-wave (km/s) = 3.72684 3.92341 3.82639
# Velocity P-wave (km/s) = 5.46059 6.00954 5.74163
#
# Compressibility (1/GPa) = 0.04333265
#
# Stress axis : x y z
#
# Youngs Moduli (GPa) = 51.23589 51.23589 139.59616
#
# Poissons Ratio (x) = -0.09644 0.23140
# Poissons Ratio (y) = -0.09644 0.23140
# Poissons Ratio (z) = 0.08493 0.08493
#
# Static dielectric constant tensor:
#      x y z
#    x 1.776520 0.000000 0.000000 
#    y 0.000000 1.776520 0.000000 
#    z 0.000000 0.000000 1.772850 
# 
# From -- ./inp_files/2636.got.cif
#   From: 2010.05.17/outbox.cif.g08.bks.cpg/sg188_2_cif.got.tgz:2636.got - 2010.05.20 12:11:46.
