data_PCOD9586118
_publ_section_title
;
Structure prediction by ZEFSAII (Michael W. Deem and Ramdas Pophale) SiO2 
 PCOD9586118
Probable space group: P -6 2 M
;
_chemical_formula_sum "Si O2"
_cell_formula_units_Z 78
_cell_length_a 25.316117
_cell_length_b 25.316117
_cell_length_c 8.519041
_cell_angle_alpha 90.000000
_cell_angle_beta 90.000000
_cell_angle_gamma 120.000000
_cell_volume 4728.414368
_symmetry_space_group_name_H-M "P -6 2 M"
_symmetry_group_IT_number 189
_symmetry_cell_setting 'hexagonal'
loop_
_space_group_symop_operation_xyz
x,y,z
-x+y,-x,-z
-y,x-y,z
x,y,-z
-x+y,-x,z
-y,x-y,-z
x-y,-y,-z
-x,-x+y,-z
y,x,-z
y,x,z
x-y,-y,z
-x,-x+y,z
loop_
_atom_site_type_symbol
_atom_site_label
_atom_site_fract_x
_atom_site_fract_y
_atom_site_fract_z
Si Si1 0.809560 0.883834 0.326375
Si Si2 0.447920 0.931000 0.689771
Si Si3 0.707371 0.457085 0.683271
Si Si4 0.702300 0.775269 0.178557
Si Si5 0.690976 0.571993 0.684552
Si Si6 0.067577 0.928923 0.000000
Si Si7 0.195691 0.622156 0.184983
O O1 0.816941 0.912014 0.500000
O O2 0.850904 0.850904 0.327601
O O3 0.740289 0.830495 0.297297
O O4 0.827709 0.923551 0.167068
O O5 0.448806 0.928631 0.500000
O O6 0.379989 0.917208 0.734729
O O7 0.452061 0.873184 0.751952
O O8 0.497271 0.000000 0.739019
O O9 0.695882 0.439952 0.500000
O O10 0.713438 0.523085 0.700419
O O11 0.645780 0.411422 0.775399
O O12 0.766531 0.455213 0.738608
O O13 0.733292 0.733292 0.187145
O O14 0.632242 0.733671 0.220566
O O15 0.710821 0.798890 0.000000
O O16 0.692754 0.587465 0.500000
O O17 0.000000 0.918398 0.000000
O O18 0.117850 0.000000 0.000000
O O19 0.193075 0.628245 0.000000
#
# Coordination Sequence:
#
# PCOD9586118 Si02
#       7
#    12  12  12  12  12   6  12
#     4   9  17  30  47  66  93 127 162 197 231 279
#     4   9  18  33  50  69  97 133 168 198 235 292
#     4  10  20  35  50  66  93 129 167 201 241 295
#     4  10  18  28  44  68  98 130 159 189 232 286
#     4   9  18  30  46  69  95 124 159 197 235 282
#     4  10  19  32  48  70  98 126 160 198 240 282
#     4  11  21  32  49  72  98 126 162 208 255 297
#
# _framework density 16.496016999999998
#
# number of rings (size 3 to 8) (size 9 to 14) (size 15 to 20)
#    0.000    2.308    0.769    4.077    0.000    5.231 
#    0.000    0.000    0.000    0.923    0.000    1.077 
#    0.000    1.231    0.000    0.000    0.000    0.000 
#
# Total GULP energy -434653.383015 kJ/mol
# GULP energy per Si atom -5572.479269 kJ/mol
# Density = 1.645847 g / cm^3
# Si number density = 16.496017 Si / 1000 Ang^3
#
#
#
# Elastic Constant Matrix: (Units=GPa)
#
#
# Indices 1 2 3 4 5 6 
#
# 1 47.4886 12.8285 15.0749 0.0000 0.0000 0.0000
# 2 12.8285 47.4886 15.0749 0.0000 0.0000 0.0000
# 3 15.0749 15.0749 74.8505 0.0000 0.0000 0.0000
# 4 0.0000 0.0000 0.0000 16.5011 0.0000 0.0000
# 5 0.0000 0.0000 0.0000 0.0000 16.5011 0.0000
# 6 0.0000 0.0000 0.0000 0.0000 0.0000 17.3301
#
#
#
# Elastic Compliance Matrix: (Units=1/GPa)
#
#
# Indices 1 2 3 4 5 6 
#
# 1 0.023643 -0.005208 -0.003713 0.000000 0.000000 0.000000
# 2 -0.005208 0.023643 -0.003713 0.000000 0.000000 0.000000
# 3 -0.003713 -0.003713 0.014855 0.000000 0.000000 0.000000
# 4 0.000000 0.000000 0.000000 0.060602 0.000000 0.000000
# 5 0.000000 0.000000 0.000000 0.000000 0.060602 0.000000
# 6 0.000000 0.000000 0.000000 0.000000 0.000000 0.057703
#
#
# Mechanical properties :
#
#
# Convention : Reuss Voigt Hill
#
# Bulk Modulus (GPa) = 27.11931 28.42049 27.76990
# Shear Modulus (GPa) = 17.94634 18.52310 18.23472
#
# Velocity S-wave (km/s) = 3.30194 3.35458 3.32836
# Velocity P-wave (km/s) = 5.56890 5.68070 5.62508
#
# Compressibility (1/GPa) = 0.03687410
#
# Stress axis : x y z
#
# Youngs Moduli (GPa) = 42.29539 42.29539 67.31531
#
# Poissons Ratio (x) = 0.22029 0.24993
# Poissons Ratio (y) = 0.22029 0.24993
# Poissons Ratio (z) = 0.15703 0.15703
#
# Static dielectric constant tensor:
#      x y z
#    x 1.541110 0.000000 0.000000 
#    y 0.000000 1.541110 0.000000 
#    z 0.000000 0.000000 1.586770 
# 
# From -- ./inp_files/1403.got.cif
#   From: 2010.05.17/outbox.cif.g08.bks.cpg/sg189_1_cif.got.tgz:1403.got - 2010.05.20 12:14:34.
