data_PCOD9586460
_publ_section_title
;
Structure prediction by ZEFSAII (Michael W. Deem and Ramdas Pophale) SiO2 
 PCOD9586460
Probable space group: P -6 2 M
;
_chemical_formula_sum "Si O2"
_cell_formula_units_Z 44
_cell_length_a 16.781492
_cell_length_b 16.781492
_cell_length_c 9.803045
_cell_angle_alpha 90.000000
_cell_angle_beta 90.000000
_cell_angle_gamma 120.000000
_cell_volume 2390.852415
_symmetry_space_group_name_H-M "P -6 2 M"
_symmetry_group_IT_number 189
_symmetry_cell_setting 'hexagonal'
loop_
_space_group_symop_operation_xyz
x,y,z
-x+y,-x,-z
-y,x-y,z
x,y,-z
-x+y,-x,z
-y,x-y,-z
x-y,-y,-z
-x,-x+y,-z
y,x,-z
y,x,z
x-y,-y,z
-x,-x+y,z
loop_
_atom_site_type_symbol
_atom_site_label
_atom_site_fract_x
_atom_site_fract_y
_atom_site_fract_z
Si Si1 0.599091 0.111193 0.846918
Si Si2 0.000000 0.839623 0.159944
Si Si3 0.458265 0.110295 0.653886
Si Si4 0.187245 0.362752 0.157553
Si Si5 0.000000 0.000000 0.333639
O O1 0.552675 0.145408 0.737044
O O2 0.705251 0.143032 0.824870
O O3 0.543981 0.000000 0.843687
O O4 0.588503 0.139442 0.000000
O O5 0.910085 0.739398 0.178384
O O6 0.000000 0.911706 0.266753
O O7 0.000000 0.867196 0.000000
O O8 0.472936 0.146472 0.500000
O O9 0.390721 0.132937 0.738508
O O10 0.410520 0.000000 0.647248
O O11 0.161971 0.368114 0.000000
O O12 0.000000 0.000000 0.500000
#
# Coordination Sequence:
#
# PCOD9586460 Si02
#       5
#    12   6  12  12   2
#     4   9  17  35  60  84 108 138 184 236 284 335
#     4  10  22  42  66  91 118 155 206 259 306 355
#     4  10  22  37  54  81 118 153 187 229 282 349
#     4  10  20  37  63  90 113 147 196 248 296 348
#     4  12  28  44  58  87 130 167 202 249 304 359
#
# _framework density 18.403476999999999
#
# number of rings (size 3 to 8) (size 9 to 14) (size 15 to 20)
#    0.000    2.182    1.364    1.227    1.909    3.818 
#    1.636    0.000    0.000    0.000    0.000    0.000 
#    0.000    0.000    0.000    0.000    0.000    0.000 
#
# Total GULP energy -245500.933952 kJ/mol
# GULP energy per Si atom -5579.566681 kJ/mol
# Density = 1.836159 g / cm^3
# Si number density = 18.403477 Si / 1000 Ang^3
#
#
#
# Elastic Constant Matrix: (Units=GPa)
#
#
# Indices 1 2 3 4 5 6 
#
# 1 66.3228 17.9871 69.6082 0.0000 0.0000 0.0000
# 2 17.9871 66.3228 69.6082 0.0000 0.0000 0.0000
# 3 69.6082 69.6082 160.7448 0.0000 0.0000 0.0000
# 4 0.0000 0.0000 0.0000 17.0279 0.0000 0.0000
# 5 0.0000 0.0000 0.0000 0.0000 17.0279 0.0000
# 6 0.0000 0.0000 0.0000 0.0000 0.0000 24.1679
#
#
#
# Elastic Compliance Matrix: (Units=1/GPa)
#
#
# Indices 1 2 3 4 5 6 
#
# 1 0.031157 0.010468 -0.018025 0.000000 0.000000 0.000000
# 2 0.010468 0.031157 -0.018025 0.000000 0.000000 0.000000
# 3 -0.018025 -0.018025 0.021832 0.000000 0.000000 0.000000
# 4 0.000000 0.000000 0.000000 0.058727 0.000000 0.000000
# 5 0.000000 0.000000 0.000000 0.000000 0.058727 0.000000
# 6 0.000000 0.000000 0.000000 0.000000 0.000000 0.041377
#
#
# Mechanical properties :
#
#
# Convention : Reuss Voigt Hill
#
# Bulk Modulus (GPa) = 30.32023 67.53305 48.92664
# Shear Modulus (GPa) = 16.38627 20.72388 18.55508
#
# Velocity S-wave (km/s) = 2.98718 3.35936 3.17872
# Velocity P-wave (km/s) = 5.32998 7.19879 6.33369
#
# Compressibility (1/GPa) = 0.03298128
#
# Stress axis : x y z
#
# Youngs Moduli (GPa) = 32.09602 32.09602 45.80472
#
# Poissons Ratio (x) = -0.33598 0.82562
# Poissons Ratio (y) = -0.33598 0.82562
# Poissons Ratio (z) = 0.57853 0.57853
#
# Static dielectric constant tensor:
#      x y z
#    x 1.620440 0.000000 0.000000 
#    y 0.000000 1.620440 0.000000 
#    z 0.000000 0.000000 1.638220 
# 
# From -- ./inp_files/586.got.cif
#   From: 2010.05.17/outbox.cif.g08.bks.cpg/sg189_1_cif.got.tgz:586.got - 2010.05.20 12:14:34.
