data_PCOD9586654
_publ_section_title
;
Structure prediction by ZEFSAII (Michael W. Deem and Ramdas Pophale) SiO2 
 PCOD9586654
Probable space group: P -6 2 C
;
_chemical_formula_sum "Si O2"
_cell_formula_units_Z 78
_cell_length_a 24.724996
_cell_length_b 24.724996
_cell_length_c 8.485639
_cell_angle_alpha 90.000000
_cell_angle_beta 90.000000
_cell_angle_gamma 120.000000
_cell_volume 4492.495426
_symmetry_space_group_name_H-M "P -6 2 C"
_symmetry_group_IT_number 190
_symmetry_cell_setting 'hexagonal'
loop_
_space_group_symop_operation_xyz
x,y,z
-x+y,-x,1/2-z
-y,x-y,z
x,y,1/2-z
-x+y,-x,z
-y,x-y,1/2-z
x-y,-y,-z
-x,-x+y,-z
y,x,-z
y,x,1/2+z
x-y,-y,1/2+z
-x,-x+y,1/2+z
loop_
_atom_site_type_symbol
_atom_site_label
_atom_site_fract_x
_atom_site_fract_y
_atom_site_fract_z
Si Si1 0.470138 0.611929 0.067750
Si Si2 0.591145 0.068320 0.061773
Si Si3 0.678781 0.269848 0.250000
Si Si4 0.390031 0.189707 0.058974
Si Si5 0.610473 0.679780 0.936662
Si Si6 0.528014 0.267266 0.929937
Si Si7 0.066940 0.714651 0.938570
O O1 0.476218 0.600636 0.250000
O O2 0.451504 0.665766 0.061050
O O3 0.424689 0.545090 0.993174
O O4 0.538685 0.640624 0.992011
O O5 0.591011 0.067432 0.250000
O O6 0.657914 0.077946 0.005797
O O7 0.539550 0.000000 0.000000
O O8 0.614164 0.270013 0.250000
O O9 0.689305 0.245647 0.416073
O O10 0.403484 0.197824 0.250000
O O11 0.366003 0.117841 0.020225
O O12 0.347486 0.219934 0.020730
O O13 0.454174 0.229524 0.963628
O O14 0.610240 0.675900 0.750000
O O15 0.651240 0.651240 0.000000
O O16 0.541823 0.293525 0.750000
O O17 0.063226 0.710583 0.750000
O O18 0.000000 0.699562 0.000000
#
# Coordination Sequence:
#
# PCOD9586654 Si02
#       7
#    12  12   6  12  12  12  12
#     4  10  20  32  48  71  97 125 160 205 252 306
#     4  10  19  30  45  66  93 122 154 198 247 299
#     4  10  24  40  54  70  94 132 160 220 262 312
#     4   9  18  35  56  75 101 137 170 206 255 311
#     4  10  19  31  50  73 101 133 166 206 248 303
#     4  10  21  37  56  76  97 125 172 211 256 320
#     4   9  19  34  51  74  99 128 167 207 250 306
#
# _framework density 17.362287999999999
#
# number of rings (size 3 to 8) (size 9 to 14) (size 15 to 20)
#    0.154    2.154    0.769    1.846    2.154    3.692 
#    0.000    1.538    0.000    0.000    0.000    0.000 
#    0.000    0.000    0.000    0.462    0.000    5.538 
#
# Total GULP energy -435240.296421 kJ/mol
# GULP energy per Si atom -5580.003800 kJ/mol
# Density = 1.732277 g / cm^3
# Si number density = 17.362288 Si / 1000 Ang^3
#
#
#
# Elastic Constant Matrix: (Units=GPa)
#
#
# Indices 1 2 3 4 5 6 
#
# 1 74.3174 26.5272 33.5713 0.0000 0.0000 0.0000
# 2 26.5272 74.3174 33.5713 0.0000 0.0000 0.0000
# 3 33.5713 33.5713 73.0191 0.0000 0.0000 0.0000
# 4 0.0000 0.0000 0.0000 7.1593 0.0000 0.0000
# 5 0.0000 0.0000 0.0000 0.0000 7.1593 0.0000
# 6 0.0000 0.0000 0.0000 0.0000 0.0000 23.8951
#
#
#
# Elastic Compliance Matrix: (Units=1/GPa)
#
#
# Indices 1 2 3 4 5 6 
#
# 1 0.017608 -0.003317 -0.006570 0.000000 0.000000 0.000000
# 2 -0.003317 0.017608 -0.006570 0.000000 0.000000 0.000000
# 3 -0.006570 -0.006570 0.019737 0.000000 0.000000 0.000000
# 4 0.000000 0.000000 0.000000 0.139678 0.000000 0.000000
# 5 0.000000 0.000000 0.000000 0.000000 0.139678 0.000000
# 6 0.000000 0.000000 0.000000 0.000000 0.000000 0.041850
#
#
# Mechanical properties :
#
#
# Convention : Reuss Voigt Hill
#
# Bulk Modulus (GPa) = 45.37857 45.44372 45.41114
# Shear Modulus (GPa) = 12.00717 16.17504 14.09111
#
# Velocity S-wave (km/s) = 2.63262 3.05556 2.85194
# Velocity P-wave (km/s) = 5.95264 6.21926 6.08741
#
# Compressibility (1/GPa) = 0.02203684
#
# Stress axis : x y z
#
# Youngs Moduli (GPa) = 56.79307 56.79307 50.66728
#
# Poissons Ratio (x) = 0.18838 0.33290
# Poissons Ratio (y) = 0.18838 0.33290
# Poissons Ratio (z) = 0.37315 0.37315
#
# Static dielectric constant tensor:
#      x y z
#    x 1.610880 0.000000 0.000000 
#    y 0.000000 1.610880 0.000000 
#    z 0.000000 0.000000 1.610630 
# 
# From -- ./inp_files/1345.got.cif
#   From: 2010.05.17/outbox.cif.g08.bks.cpg/sg190_1_cif.got.tgz:1345.got - 2010.05.20 12:16:56.
