data_PCOD9586953
_publ_section_title
;
Structure prediction by ZEFSAII (Michael W. Deem and Ramdas Pophale) SiO2 
 PCOD9586953
Probable space group: P -6 2 C
;
_chemical_formula_sum "Si O2"
_cell_formula_units_Z 28
_cell_length_a 7.226357
_cell_length_b 7.226357
_cell_length_c 29.707944
_cell_angle_alpha 90.000000
_cell_angle_beta 90.000000
_cell_angle_gamma 120.000000
_cell_volume 1343.513561
_symmetry_space_group_name_H-M "P -6 2 C"
_symmetry_group_IT_number 190
_symmetry_cell_setting 'hexagonal'
loop_
_space_group_symop_operation_xyz
x,y,z
-x+y,-x,1/2-z
-y,x-y,z
x,y,1/2-z
-x+y,-x,z
-y,x-y,1/2-z
x-y,-y,-z
-x,-x+y,-z
y,x,-z
y,x,1/2+z
x-y,-y,1/2+z
-x,-x+y,1/2+z
loop_
_atom_site_type_symbol
_atom_site_label
_atom_site_fract_x
_atom_site_fract_y
_atom_site_fract_z
Si Si1 0.799486 0.065884 0.359698
Si Si2 0.666668 0.333334 0.303357
Si Si3 0.428194 0.339906 0.950757
O O1 0.681991 0.135826 0.324343
O O2 0.054638 0.220845 0.354035
O O3 0.711977 0.056989 0.409870
O O4 0.666667 0.333334 0.250000
O O5 0.464936 0.136977 0.947276
O O6 0.341690 0.341690 0.000000
#
# Coordination Sequence:
#
# PCOD9586953 Si02
#       3
#    12   4  12
#     4  10  25  45  72  98 140 183 234 287 357 421
#     4  12  27  48  75 102 135 177 231 303 361 419
#     4  10  24  36  63 103 144 195 238 283 344 417
#
# _framework density 20.840876999999999
#
# number of rings (size 3 to 8) (size 9 to 14) (size 15 to 20)
#    1.714    0.000    0.000    2.571   12.000    1.714 
#    2.571    0.000    0.000    0.000    0.000    0.000 
#    0.000    0.000    0.000    0.000    0.000    0.000 
#
# Total GULP energy -156101.915435 kJ/mol
# GULP energy per Si atom -5575.068408 kJ/mol
# Density = 2.079344 g / cm^3
# Si number density = 20.840877 Si / 1000 Ang^3
#
#
#
# Elastic Constant Matrix: (Units=GPa)
#
#
# Indices 1 2 3 4 5 6 
#
# 1 83.0125 44.6839 63.2627 0.0002 -0.0001 0.0001
# 2 44.6839 83.0128 63.2632 0.0000 -0.0002 0.0001
# 3 63.2627 63.2632 194.6282 0.0005 0.0001 0.0002
# 4 0.0002 0.0000 0.0005 15.2405 0.0001 0.0001
# 5 -0.0001 -0.0002 0.0001 0.0001 15.2405 -0.0001
# 6 0.0001 0.0001 0.0002 0.0001 -0.0001 19.1643
#
#
#
# Elastic Compliance Matrix: (Units=1/GPa)
#
#
# Indices 1 2 3 4 5 6 
#
# 1 0.018821 -0.007269 -0.003755 0.000000 0.000000 0.000000
# 2 -0.007269 0.018821 -0.003755 0.000000 0.000000 0.000000
# 3 -0.003755 -0.003755 0.007579 0.000000 0.000000 0.000000
# 4 0.000000 0.000000 0.000000 0.065615 -0.000001 0.000000
# 5 0.000000 0.000000 0.000000 -0.000001 0.065615 0.000000
# 6 0.000000 0.000000 0.000000 0.000000 0.000000 0.052180
#
#
# Mechanical properties :
#
#
# Convention : Reuss Voigt Hill
#
# Bulk Modulus (GPa) = 63.84570 78.11924 70.98247
# Shear Modulus (GPa) = 18.98193 22.55864 20.77028
#
# Velocity S-wave (km/s) = 3.02122 3.29359 3.16034
# Velocity P-wave (km/s) = 6.54765 7.21309 6.88841
#
# Compressibility (1/GPa) = 0.01566276
#
# Stress axis : x y z
#
# Youngs Moduli (GPa) = 53.13292 53.13289 131.94525
#
# Poissons Ratio (x) = 0.38624 0.49541
# Poissons Ratio (y) = 0.38624 0.49542
# Poissons Ratio (z) = 0.19950 0.19950
#
# Static dielectric constant tensor:
#      x y z
#    x 1.789330 0.000000 0.000000 
#    y 0.000000 1.789330 0.000000 
#    z 0.000000 0.000000 1.664380 
# 
# From -- ./inp_files/4786.got.cif
#   From: 2010.05.17/outbox.cif.g08.bks.cpg/sg190_3_cif.got.tgz:4786.got - 2010.05.20 12:16:56.
