data_PCOD9586677
_publ_section_title
;
Structure prediction by ZEFSAII (Michael W. Deem and Ramdas Pophale) SiO2 
 PCOD9586677
Probable space group: P -6 2 C
;
_chemical_formula_sum "Si O2"
_cell_formula_units_Z 96
_cell_length_a 15.157749
_cell_length_b 15.157749
_cell_length_c 28.564162
_cell_angle_alpha 90.000000
_cell_angle_beta 90.000000
_cell_angle_gamma 120.000000
_cell_volume 5683.574298
_symmetry_space_group_name_H-M "P -6 2 C"
_symmetry_group_IT_number 190
_symmetry_cell_setting 'hexagonal'
loop_
_space_group_symop_operation_xyz
x,y,z
-x+y,-x,1/2-z
-y,x-y,z
x,y,1/2-z
-x+y,-x,z
-y,x-y,1/2-z
x-y,-y,-z
-x,-x+y,-z
y,x,-z
y,x,1/2+z
x-y,-y,1/2+z
-x,-x+y,1/2+z
loop_
_atom_site_type_symbol
_atom_site_label
_atom_site_fract_x
_atom_site_fract_y
_atom_site_fract_z
Si Si1 0.021409 0.194355 0.804073
Si Si2 0.683004 0.987502 0.923683
Si Si3 0.815196 0.026452 0.836520
Si Si4 0.066572 0.555947 0.375030
Si Si5 0.112103 0.510970 0.477242
Si Si6 0.834800 0.569469 0.997799
Si Si7 0.440100 0.267890 0.803652
Si Si8 0.640915 0.599474 0.803984
O O1 0.989100 0.165763 0.750000
O O2 0.131171 0.207978 0.811543
O O3 0.935830 0.103990 0.834979
O O4 0.015239 0.295384 0.813404
O O5 0.769333 0.999680 0.888358
O O6 0.595534 0.992699 0.893806
O O7 0.632783 0.887240 0.955365
O O8 0.725922 0.087355 0.956777
O O9 0.764374 0.086014 0.811407
O O10 0.106048 0.525321 0.421244
O O11 0.151560 0.648544 0.343222
O O12 0.013305 0.461303 0.340330
O O13 0.179213 0.459270 0.488516
O O14 0.158680 0.624884 0.497922
O O15 0.000000 0.446538 0.500000
O O16 0.471074 0.304113 0.750000
O O17 0.440868 0.162603 0.809604
O O18 0.607274 0.583198 0.750000
#
# Coordination Sequence:
#
# PCOD9586677 Si02
#       8
#    12  12  12  12  12  12  12  12
#     4  10  19  31  50  77 110 136 175 224 258 308
#     4   9  20  39  55  75 113 141 179 226 277 334
#     4  10  19  32  54  79 102 149 180 216 266 320
#     4  10  19  32  54  74 104 141 181 220 268 333
#     4  11  22  36  60  87 106 146 195 234 291 356
#     4  10  20  41  57  79 115 141 177 245 288 326
#     4   9  18  33  51  75 111 148 179 212 269 334
#     4   9  19  32  46  75 111 138 173 224 263 316
#
# _framework density 16.890781
#
# number of rings (size 3 to 8) (size 9 to 14) (size 15 to 20)
#    0.000    2.250    2.500    2.750    7.000    1.000 
#    0.750    0.000    0.000    0.000    0.000    0.000 
#    0.000    0.000    1.500    0.000    0.000    0.000 
#
# Total GULP energy -535251.900225 kJ/mol
# GULP energy per Si atom -5575.540627 kJ/mol
# Density = 1.685234 g / cm^3
# Si number density = 16.890781 Si / 1000 Ang^3
#
#
#
# Elastic Constant Matrix: (Units=GPa)
#
#
# Indices 1 2 3 4 5 6 
#
# 1 68.4451 36.7220 33.7299 0.0000 0.0000 0.0000
# 2 36.7220 68.4451 33.7299 0.0000 0.0000 0.0000
# 3 33.7299 33.7299 86.3463 0.0000 0.0000 0.0000
# 4 0.0000 0.0000 0.0000 15.2208 0.0000 0.0000
# 5 0.0000 0.0000 0.0000 0.0000 15.2208 0.0000
# 6 0.0000 0.0000 0.0000 0.0000 0.0000 15.8616
#
#
#
# Elastic Compliance Matrix: (Units=1/GPa)
#
#
# Indices 1 2 3 4 5 6 
#
# 1 0.022105 -0.009417 -0.004956 0.000000 0.000000 0.000000
# 2 -0.009417 0.022105 -0.004956 0.000000 0.000000 0.000000
# 3 -0.004956 -0.004956 0.015454 0.000000 0.000000 0.000000
# 4 0.000000 0.000000 0.000000 0.065700 0.000000 0.000000
# 5 0.000000 0.000000 0.000000 0.000000 0.065700 0.000000
# 6 0.000000 0.000000 0.000000 0.000000 0.000000 0.063046
#
#
# Mechanical properties :
#
#
# Convention : Reuss Voigt Hill
#
# Bulk Modulus (GPa) = 47.60996 47.95553 47.78274
# Shear Modulus (GPa) = 16.67942 17.19760 16.93851
#
# Velocity S-wave (km/s) = 3.14584 3.19433 3.17018
# Velocity P-wave (km/s) = 6.43764 6.48523 6.46148
#
# Compressibility (1/GPa) = 0.02100401
#
# Stress axis : x y z
#
# Youngs Moduli (GPa) = 45.23791 45.23791 64.71019
#
# Poissons Ratio (x) = 0.42602 0.32073
# Poissons Ratio (y) = 0.42602 0.32073
# Poissons Ratio (z) = 0.22422 0.22422
#
# Static dielectric constant tensor:
#      x y z
#    x 1.564560 0.000000 0.000000 
#    y 0.000000 1.564560 0.000000 
#    z 0.000000 0.000000 1.587150 
# 
# From -- ./inp_files/4997.got.cif
#   From: 2010.05.17/outbox.cif.g08.bks.cpg/sg190_3_cif.got.tgz:4997.got - 2010.05.20 12:16:56.
