data_PCOD9586250
_publ_section_title
;
Structure prediction by ZEFSAII (Michael W. Deem and Ramdas Pophale) SiO2 
 PCOD9586250
Probable space group: P -6 2 M
;
_chemical_formula_sum "Si O2"
_cell_formula_units_Z 84
_cell_length_a 13.874461
_cell_length_b 13.874461
_cell_length_c 27.664362
_cell_angle_alpha 90.000000
_cell_angle_beta 90.000000
_cell_angle_gamma 120.000000
_cell_volume 4611.938757
_symmetry_space_group_name_H-M "P -6 2 M"
_symmetry_group_IT_number 189
_symmetry_cell_setting 'hexagonal'
loop_
_space_group_symop_operation_xyz
x,y,z
-x+y,-x,-z
-y,x-y,z
x,y,-z
-x+y,-x,z
-y,x-y,-z
x-y,-y,-z
-x,-x+y,-z
y,x,-z
y,x,z
x-y,-y,z
-x,-x+y,z
loop_
_atom_site_type_symbol
_atom_site_label
_atom_site_fract_x
_atom_site_fract_y
_atom_site_fract_z
Si Si1 0.740781 0.870808 0.943664
Si Si2 0.871690 0.552695 0.557848
Si Si3 0.583217 0.457578 0.185480
Si Si4 0.773227 0.183127 0.854585
Si Si5 0.332256 0.865428 0.285061
Si Si6 0.342318 0.867307 0.394388
Si Si7 0.131417 0.262159 0.762304
O O1 0.792406 0.792406 0.931748
O O2 0.641963 0.847654 0.907325
O O3 0.834570 0.000000 0.938396
O O4 0.706821 0.853173 0.000000
O O5 0.861359 0.550336 0.500000
O O6 0.778336 0.572548 0.581984
O O7 0.851440 0.433631 0.576470
O O8 0.000000 0.641797 0.570632
O O9 0.558157 0.558157 0.187084
O O10 0.475715 0.351022 0.165690
O O11 0.687742 0.498110 0.150789
O O12 0.618189 0.447535 0.240261
O O13 0.843593 0.153669 0.816910
O O14 0.337149 0.828144 0.338951
O O15 0.208304 0.837564 0.270184
O O16 0.406329 0.000000 0.286929
O O17 0.386835 0.000000 0.394889
O O18 0.203605 0.203605 0.751806
O O19 0.000000 0.177349 0.756636
#
# Coordination Sequence:
#
# PCOD9586250 Si02
#       7
#    12  12  12  12  12  12  12
#     4  10  20  35  56  83 112 137 165 208 265 326
#     4  10  21  35  54  82 110 140 183 230 276 328
#     4  10  20  35  52  72 103 134 168 218 260 295
#     4  11  21  35  54  75  99 139 184 217 258 313
#     4   8  18  34  50  74 105 138 175 212 257 314
#     4  10  20  36  57  79 109 145 179 223 279 335
#     4  10  19  32  52  79 111 142 175 215 261 318
#
# _framework density 18.213597
#
# number of rings (size 3 to 8) (size 9 to 14) (size 15 to 20)
#    0.000    2.143    0.000    4.714    0.000    4.286 
#    0.000    3.571    0.000    2.857    0.000    0.000 
#    0.000    0.000    0.000    0.000    0.000    0.000 
#
# Total GULP energy -468634.324679 kJ/mol
# GULP energy per Si atom -5578.980056 kJ/mol
# Density = 1.817214 g / cm^3
# Si number density = 18.213597 Si / 1000 Ang^3
#
#
#
# Elastic Constant Matrix: (Units=GPa)
#
#
# Indices 1 2 3 4 5 6 
#
# 1 96.4180 13.5773 40.5125 0.0000 0.0000 0.0000
# 2 13.5773 96.4180 40.5125 0.0000 0.0000 0.0000
# 3 40.5125 40.5125 94.9265 0.0000 0.0000 0.0000
# 4 0.0000 0.0000 0.0000 16.8250 0.0000 0.0000
# 5 0.0000 0.0000 0.0000 0.0000 16.8250 0.0000
# 6 0.0000 0.0000 0.0000 0.0000 0.0000 41.4204
#
#
#
# Elastic Compliance Matrix: (Units=1/GPa)
#
#
# Indices 1 2 3 4 5 6 
#
# 1 0.012666 0.000594 -0.005659 0.000000 0.000000 0.000000
# 2 0.000594 0.012666 -0.005659 0.000000 0.000000 0.000000
# 3 -0.005659 -0.005659 0.015365 0.000000 0.000000 0.000000
# 4 0.000000 0.000000 0.000000 0.059435 0.000000 0.000000
# 5 0.000000 0.000000 0.000000 0.000000 0.059435 0.000000
# 6 0.000000 0.000000 0.000000 0.000000 0.000000 0.024143
#
#
# Mechanical properties :
#
#
# Convention : Reuss Voigt Hill
#
# Bulk Modulus (GPa) = 51.95234 52.99635 52.47434
# Shear Modulus (GPa) = 23.63248 27.89142 25.76195
#
# Velocity S-wave (km/s) = 3.60602 3.91749 3.76498
# Velocity P-wave (km/s) = 6.77670 7.04433 6.91181
#
# Compressibility (1/GPa) = 0.01924841
#
# Stress axis : x y z
#
# Youngs Moduli (GPa) = 78.95402 78.95402 65.08411
#
# Poissons Ratio (x) = -0.04692 0.36831
# Poissons Ratio (y) = -0.04692 0.36831
# Poissons Ratio (z) = 0.44680 0.44680
#
# Static dielectric constant tensor:
#      x y z
#    x 1.282540 0.000000 0.000000 
#    y 0.000000 1.282540 0.000000 
#    z 0.000000 0.000000 1.621170 
# 
# From -- ./inp_files/3622.got.cif
#   From: 2010.05.17/outbox.cif.g08.bks.cpg/sg189_2_cif.got.tgz:3622.got - 2010.05.20 12:14:34.
