data_PCOD9586652
_publ_section_title
;
Structure prediction by ZEFSAII (Michael W. Deem and Ramdas Pophale) SiO2 
 PCOD9586652
Probable space group: P -6 2 C
;
_chemical_formula_sum "Si O2"
_cell_formula_units_Z 72
_cell_length_a 24.808375
_cell_length_b 24.808375
_cell_length_c 7.602483
_cell_angle_alpha 90.000000
_cell_angle_beta 90.000000
_cell_angle_gamma 120.000000
_cell_volume 4052.123987
_symmetry_space_group_name_H-M "P -6 2 C"
_symmetry_group_IT_number 190
_symmetry_cell_setting 'hexagonal'
loop_
_space_group_symop_operation_xyz
x,y,z
-x+y,-x,1/2-z
-y,x-y,z
x,y,1/2-z
-x+y,-x,z
-y,x-y,1/2-z
x-y,-y,-z
-x,-x+y,-z
y,x,-z
y,x,1/2+z
x-y,-y,1/2+z
-x,-x+y,1/2+z
loop_
_atom_site_type_symbol
_atom_site_label
_atom_site_fract_x
_atom_site_fract_y
_atom_site_fract_z
Si Si1 0.857285 0.928609 0.543062
Si Si2 0.928486 0.404768 0.039624
Si Si3 0.737615 0.475444 0.464386
Si Si4 0.072246 0.263202 0.961558
Si Si5 0.596969 0.737140 0.965250
Si Si6 0.593751 0.402483 0.464803
O O1 0.849703 0.923279 0.750000
O O2 0.907937 0.907937 0.500000
O O3 0.790953 0.875667 0.467196
O O4 0.882284 0.000000 0.500000
O O5 0.922495 0.400581 0.250000
O O6 0.905772 0.334337 0.977772
O O7 0.877658 0.422888 0.976439
O O8 0.000000 0.451425 0.000000
O O9 0.738677 0.475702 0.250000
O O10 0.753984 0.544502 0.519317
O O11 0.665807 0.428758 0.514588
O O12 0.782487 0.450268 0.526069
O O13 0.079238 0.265732 0.750000
O O14 0.115599 0.333137 0.027694
O O15 0.000000 0.239351 0.000000
O O16 0.597947 0.737513 0.750000
O O17 0.592026 0.400997 0.250000
#
# Coordination Sequence:
#
# PCOD9586652 Si02
#       6
#    12  12  12  12  12  12
#     4  10  19  30  44  61  81 103 128 158 192 231
#     4   9  16  25  38  58  82 105 130 159 192 232
#     4   8  12  19  33  54  81 106 127 159 200 234
#     4   9  17  28  42  60  80 103 130 159 193 231
#     4   8  14  24  38  57  80 104 130 161 195 230
#     4   8  13  20  33  56  81 103 128 160 198 234
#
# _framework density 17.768460999999999
#
# number of rings (size 3 to 8) (size 9 to 14) (size 15 to 20)
#    0.000    3.333    0.000    3.500    0.000    2.000 
#    0.000    0.000    0.000    1.000    0.000    5.833 
#    0.000    0.000    0.000    0.000    0.000    0.000 
#
# Total GULP energy -401118.935990 kJ/mol
# GULP energy per Si atom -5571.096333 kJ/mol
# Density = 1.772802 g / cm^3
# Si number density = 17.768461 Si / 1000 Ang^3
#
#
#
# Elastic Constant Matrix: (Units=GPa)
#
#
# Indices 1 2 3 4 5 6 
#
# 1 162.1059 108.7304 5.5907 0.0000 0.0000 0.0000
# 2 108.7304 162.1059 5.5907 0.0000 0.0000 0.0000
# 3 5.5907 5.5907 35.1406 0.0000 0.0000 0.0000
# 4 0.0000 0.0000 0.0000 -0.0649 0.0000 0.0000
# 5 0.0000 0.0000 0.0000 0.0000 -0.0649 0.0000
# 6 0.0000 0.0000 0.0000 0.0000 0.0000 26.6878
#
#
#
# Elastic Compliance Matrix: (Units=1/GPa)
#
#
# Indices 1 2 3 4 5 6 
#
# 1 0.011226 -0.007509 -0.000591 0.000000 0.000000 0.000000
# 2 -0.007509 0.011226 -0.000591 0.000000 0.000000 0.000000
# 3 -0.000591 -0.000591 0.028645 0.000000 0.000000 0.000000
# 4 0.000000 0.000000 0.000000-15.409901 -0.000010 0.000000
# 5 0.000000 0.000000 0.000000 -0.000010-15.409889 0.000000
# 6 0.000000 0.000000 0.000000 0.000000 0.000000 0.037470
#
#
# Mechanical properties :
#
#
# Convention : Reuss Voigt Hill
#
# Bulk Modulus (GPa) = 29.66182 66.57512 48.11847
# Shear Modulus (GPa) = -0.16285 21.27431 10.55573
#
# Velocity S-wave (km/s) = -0.30307 3.46397 2.44000
# Velocity P-wave (km/s) = 4.07520 7.31767 5.92265
#
# Compressibility (1/GPa) = 0.03371338
#
# Stress axis : x y z
#
# Youngs Moduli (GPa) = 89.07946 89.07946 34.90982
#
# Poissons Ratio (x) = 0.66892 0.02064
# Poissons Ratio (y) = 0.66892 0.02064
# Poissons Ratio (z) = 0.05267 0.05267
#
# Static dielectric constant tensor:
#      x y z
#    x 1.596490 0.000000 0.000000 
#    y 0.000000 1.596490 0.000000 
#    z 0.000000 0.000000 1.670740 
# 
# From -- ./inp_files/1226.got.cif
#   From: 2010.05.17/outbox.cif.g08.bks.cpg/sg190_1_cif.got.tgz:1226.got - 2010.05.20 12:16:56.
