data_PCOD9586607
_publ_section_title
;
Structure prediction by ZEFSAII (Michael W. Deem and Ramdas Pophale) SiO2 
 PCOD9586607
Probable space group: P -6 2 C
;
_chemical_formula_sum "Si O2"
_cell_formula_units_Z 74
_cell_length_a 14.363580
_cell_length_b 14.363580
_cell_length_c 22.573180
_cell_angle_alpha 90.000000
_cell_angle_beta 90.000000
_cell_angle_gamma 120.000000
_cell_volume 4033.190835
_symmetry_space_group_name_H-M "P -6 2 C"
_symmetry_group_IT_number 190
_symmetry_cell_setting 'hexagonal'
loop_
_space_group_symop_operation_xyz
x,y,z
-x+y,-x,1/2-z
-y,x-y,z
x,y,1/2-z
-x+y,-x,z
-y,x-y,1/2-z
x-y,-y,-z
-x,-x+y,-z
y,x,-z
y,x,1/2+z
x-y,-y,1/2+z
-x,-x+y,1/2+z
loop_
_atom_site_type_symbol
_atom_site_label
_atom_site_fract_x
_atom_site_fract_y
_atom_site_fract_z
Si Si1 0.354621 0.356731 0.628797
Si Si2 0.316761 0.876532 0.503045
Si Si3 0.765596 0.560459 0.134147
Si Si4 0.333334 0.666668 0.178533
Si Si5 0.438605 0.207038 0.876993
Si Si6 0.437668 0.437668 0.500000
Si Si7 0.567967 0.563004 0.681189
Si Si8 0.333334 0.666668 0.820974
O O1 0.245943 0.355883 0.645913
O O2 0.356605 0.247599 0.640172
O O3 0.374507 0.380877 0.558760
O O4 0.459878 0.459616 0.657090
O O5 0.265127 0.825002 0.565557
O O6 0.248822 0.806427 0.447657
O O7 0.439426 0.899363 0.498405
O O8 0.340019 0.000000 0.500000
O O9 0.673405 0.567229 0.170593
O O10 0.753388 0.447174 0.153003
O O11 0.333334 0.666668 0.250000
O O12 0.253979 0.703401 0.151336
O O13 0.422290 0.095650 0.851760
O O14 0.576522 0.545159 0.750000
O O15 0.333334 0.666668 0.750000
#
# Coordination Sequence:
#
# PCOD9586607 Si02
#       8
#    12  12  12   4  12   6  12   4
#     4  12  24  38  64  97 121 162 212 253 310 377
#     4  10  19  38  63  85 123 163 207 249 317 372
#     4  12  23  40  62  92 129 168 208 259 309 371
#     4  12  24  37  59  94 132 174 208 245 307 369
#     4  12  23  40  62  92 129 168 208 259 309 371
#     4  10  16  40  60  94 124 158 200 248 316 380
#     4  12  24  42  62  87 129 170 210 258 312 368
#     4  12  24  37  59  94 132 174 208 245 307 369
#
# _framework density 18.347756
#
# number of rings (size 3 to 8) (size 9 to 14) (size 15 to 20)
#    0.486    0.000    8.108    1.946    0.000    2.595 
#    0.000    0.000    0.000    0.649    0.000    0.000 
#    0.000    0.000    0.000    0.000    0.000    0.000 
#
# Total GULP energy -413145.147212 kJ/mol
# GULP energy per Si atom -5583.042530 kJ/mol
# Density = 1.830600 g / cm^3
# Si number density = 18.347756 Si / 1000 Ang^3
#
#
#
# Elastic Constant Matrix: (Units=GPa)
#
#
# Indices 1 2 3 4 5 6 
#
# 1 62.6042 6.7996 1.2933 0.0003 0.0000 -0.0001
# 2 6.7996 62.6041 1.2939 0.0000 0.0000 0.0003
# 3 1.2933 1.2939 78.0928 -0.0001 0.0001 0.0001
# 4 0.0003 0.0000 -0.0001 -17.1680 -0.0002 0.0000
# 5 0.0000 0.0000 0.0001 -0.0002 -17.1694 -0.0001
# 6 -0.0001 0.0003 0.0001 0.0000 -0.0001 27.9028
#
#
#
# Elastic Compliance Matrix: (Units=1/GPa)
#
#
# Indices 1 2 3 4 5 6 
#
# 1 0.016169 -0.001751 -0.000239 0.000000 0.000000 0.000000
# 2 -0.001751 0.016169 -0.000239 0.000000 0.000000 0.000000
# 3 -0.000239 -0.000239 0.012813 0.000000 0.000000 0.000000
# 4 0.000000 0.000000 0.000000 -0.058248 0.000001 0.000000
# 5 0.000000 0.000000 0.000000 0.000001 -0.058243 0.000000
# 6 0.000000 0.000000 0.000000 0.000000 0.000000 0.035839
#
#
# Mechanical properties :
#
#
# Convention : Reuss Voigt Hill
#
# Bulk Modulus (GPa) = 24.57449 24.67496 24.62473
# Shear Modulus (GPa) = -286.03601 11.64070 -137.19765
#
# Velocity S-wave (km/s) = -12.49942 2.52156 -8.65671
# Velocity P-wave (km/s) = 13.96034 4.68565 9.29881
#
# Compressibility (1/GPa) = 0.04069260
#
# Stress axis : x y z
#
# Youngs Moduli (GPa) = 61.84863 61.84855 78.04454
#
# Poissons Ratio (x) = 0.10831 0.01863
# Poissons Ratio (y) = 0.10831 0.01864
# Poissons Ratio (z) = 0.01477 0.01478
#
# Static dielectric constant tensor:
#      x y z
#    x 1.656110 0.000000 0.000000 
#    y 0.000000 1.656110 0.000000 
#    z 0.000000 0.000000 1.628030 
# 
# From -- ./inp_files/4410.got.cif
#   From: 2010.05.17/outbox.cif.g08.bks.cpg/sg190_3_cif.got.tgz:4410.got - 2010.05.20 12:16:56.
