data_PCOD9586626
_publ_section_title
;
Structure prediction by ZEFSAII (Michael W. Deem and Ramdas Pophale) SiO2 
 PCOD9586626
Probable space group: P -6 2 C
;
_chemical_formula_sum "Si O2"
_cell_formula_units_Z 76
_cell_length_a 17.620425
_cell_length_b 17.620425
_cell_length_c 15.756647
_cell_angle_alpha 90.000000
_cell_angle_beta 90.000000
_cell_angle_gamma 120.000000
_cell_volume 4236.694956
_symmetry_space_group_name_H-M "P -6 2 C"
_symmetry_group_IT_number 190
_symmetry_cell_setting 'hexagonal'
loop_
_space_group_symop_operation_xyz
x,y,z
-x+y,-x,1/2-z
-y,x-y,z
x,y,1/2-z
-x+y,-x,z
-y,x-y,1/2-z
x-y,-y,-z
-x,-x+y,-z
y,x,-z
y,x,1/2+z
x-y,-y,1/2+z
-x,-x+y,1/2+z
loop_
_atom_site_type_symbol
_atom_site_label
_atom_site_fract_x
_atom_site_fract_y
_atom_site_fract_z
Si Si1 0.365604 0.521628 0.411286
Si Si2 0.333334 0.666668 0.852515
Si Si3 0.100818 0.355148 0.997673
Si Si4 0.485455 0.187546 0.651214
Si Si5 0.502704 0.660701 0.849329
Si Si6 0.965948 0.546846 0.156123
Si Si7 0.627368 0.902774 0.538853
O O1 0.428806 0.624352 0.395691
O O2 0.282680 0.493302 0.350102
O O3 0.427006 0.479137 0.397694
O O4 0.316920 0.469882 0.496588
O O5 0.333334 0.666668 0.750000
O O6 0.428655 0.683997 0.876955
O O7 0.125289 0.406155 0.088309
O O8 0.117400 0.421462 0.919271
O O9 0.172984 0.326797 0.978356
O O10 0.000000 0.281308 0.000000
O O11 0.479765 0.158541 0.750000
O O12 0.528972 0.688211 0.750000
O O13 0.454463 0.555509 0.849972
O O14 0.000859 0.569270 0.250000
O O15 0.920321 0.603044 0.131639
O O16 0.683617 0.000000 0.500000
#
# Coordination Sequence:
#
# PCOD9586626 Si02
#       7
#    12   4  12  12  12  12  12
#     4  10  20  33  49  70 100 138 178 210 242 287
#     4   9  18  33  51  75 103 134 172 213 255 300
#     4  11  23  36  52  75 100 128 163 202 251 308
#     4  11  21  33  48  70 102 139 174 208 240 278
#     4  10  20  33  51  75 106 138 170 209 251 291
#     4  10  18  31  51  74  99 132 172 211 250 294
#     4   9  20  37  54  71  95 127 163 207 253 298
#
# _framework density 17.938510999999998
#
# number of rings (size 3 to 8) (size 9 to 14) (size 15 to 20)
#    0.000    1.895    0.000    4.579    0.000    6.316 
#    0.000    0.000    0.000    0.316    0.000    0.000 
#    0.000    0.000    0.000    4.737    0.000    0.000 
#
# Total GULP energy -423386.568505 kJ/mol
# GULP energy per Si atom -5570.875901 kJ/mol
# Density = 1.789768 g / cm^3
# Si number density = 17.938511 Si / 1000 Ang^3
#
#
#
# Elastic Constant Matrix: (Units=GPa)
#
#
# Indices 1 2 3 4 5 6 
#
# 1 71.0454 29.9653 19.4481 0.0000 0.0000 0.0000
# 2 29.9653 71.0446 19.4483 0.0000 0.0000 -0.0001
# 3 19.4481 19.4483 33.8281 0.0000 0.0000 0.0000
# 4 0.0000 0.0000 0.0000 15.7443 0.0000 0.0000
# 5 0.0000 0.0000 0.0000 0.0000 15.7444 0.0000
# 6 0.0000 -0.0001 0.0000 0.0000 0.0000 20.5398
#
#
#
# Elastic Compliance Matrix: (Units=1/GPa)
#
#
# Indices 1 2 3 4 5 6 
#
# 1 0.018529 -0.005814 -0.007310 0.000000 0.000000 0.000000
# 2 -0.005814 0.018529 -0.007310 0.000000 0.000000 0.000000
# 3 -0.007310 -0.007310 0.037966 0.000000 0.000000 0.000000
# 4 0.000000 0.000000 0.000000 0.063515 0.000000 0.000000
# 5 0.000000 0.000000 0.000000 0.000000 0.063515 0.000000
# 6 0.000000 0.000000 0.000000 0.000000 0.000000 0.048686
#
#
# Mechanical properties :
#
#
# Convention : Reuss Voigt Hill
#
# Bulk Modulus (GPa) = 29.27713 34.84907 32.06310
# Shear Modulus (GPa) = 16.50200 17.54277 17.02239
#
# Velocity S-wave (km/s) = 3.03631 3.13059 3.08381
# Velocity P-wave (km/s) = 5.35243 5.70409 5.53105
#
# Compressibility (1/GPa) = 0.03415636
#
# Stress axis : x y z
#
# Youngs Moduli (GPa) = 53.97025 53.96928 26.33904
#
# Poissons Ratio (x) = 0.31378 0.19253
# Poissons Ratio (y) = 0.31379 0.19254
# Poissons Ratio (z) = 0.39451 0.39452
#
# Static dielectric constant tensor:
#      x y z
#    x 1.624470 0.000000 0.000000 
#    y 0.000000 1.624470 0.000000 
#    z 0.000000 0.000000 1.691850 
# 
# From -- ./inp_files/3095.got.cif
#   From: 2010.05.17/outbox.cif.g08.bks.cpg/sg190_2_cif.got.tgz:3095.got - 2010.05.20 12:16:56.
