data_PCOD9586251
_publ_section_title
;
Structure prediction by ZEFSAII (Michael W. Deem and Ramdas Pophale) SiO2 
 PCOD9586251
Probable space group: P -6 2 M
;
_chemical_formula_sum "Si O2"
_cell_formula_units_Z 54
_cell_length_a 18.127876
_cell_length_b 18.127876
_cell_length_c 10.722087
_cell_angle_alpha 90.000000
_cell_angle_beta 90.000000
_cell_angle_gamma 120.000000
_cell_volume 3051.432744
_symmetry_space_group_name_H-M "P -6 2 M"
_symmetry_group_IT_number 189
_symmetry_cell_setting 'hexagonal'
loop_
_space_group_symop_operation_xyz
x,y,z
-x+y,-x,-z
-y,x-y,z
x,y,-z
-x+y,-x,z
-y,x-y,-z
x-y,-y,-z
-x,-x+y,-z
y,x,-z
y,x,z
x-y,-y,z
-x,-x+y,z
loop_
_atom_site_type_symbol
_atom_site_label
_atom_site_fract_x
_atom_site_fract_y
_atom_site_fract_z
Si Si1 0.901908 0.267539 0.135801
Si Si2 0.160363 0.501215 0.646278
Si Si3 0.693774 0.902445 0.257577
Si Si4 0.508507 0.836030 0.355256
Si Si5 0.896784 0.101436 0.500000
O O1 0.885696 0.312637 0.253215
O O2 0.845809 0.167112 0.155552
O O3 0.000000 0.295756 0.137020
O O4 0.882061 0.291920 0.000000
O O5 0.134430 0.478140 0.500000
O O6 0.258523 0.523191 0.653029
O O7 0.149117 0.580856 0.682297
O O8 0.599328 0.885824 0.288655
O O9 0.735288 0.883478 0.379518
O O10 0.754348 0.000000 0.222992
O O11 0.525800 0.860270 0.500000
O O12 0.000000 0.159407 0.500000
O O13 0.865666 0.000000 0.500000
#
# Coordination Sequence:
#
# PCOD9586251 Si02
#       5
#    12  12  12  12   6
#     4  10  22  39  55  75 106 142 181 227 276 328
#     4   9  18  32  55  82 107 142 183 222 264 319
#     4  10  20  34  54  80 109 142 179 225 279 334
#     4   9  16  30  51  80 114 141 175 222 267 310
#     4  10  19  32  52  80 112 144 180 226 281 338
#
# _framework density 17.696605000000002
#
# number of rings (size 3 to 8) (size 9 to 14) (size 15 to 20)
#    0.000    2.444    1.111    1.222    1.556    3.556 
#    0.000    6.667    0.000    0.444    0.000    0.000 
#    0.000    0.000    0.000    0.000    0.000    0.000 
#
# Total GULP energy -300855.158038 kJ/mol
# GULP energy per Si atom -5571.391816 kJ/mol
# Density = 1.765633 g / cm^3
# Si number density = 17.696605 Si / 1000 Ang^3
#
#
#
# Elastic Constant Matrix: (Units=GPa)
#
#
# Indices 1 2 3 4 5 6 
#
# 1 84.9378 47.7672 46.5917 0.0000 0.0000 0.0000
# 2 47.7672 84.9378 46.5917 0.0000 0.0000 0.0000
# 3 46.5917 46.5917 78.6545 0.0000 0.0000 0.0000
# 4 0.0000 0.0000 0.0000 9.6833 0.0000 0.0000
# 5 0.0000 0.0000 0.0000 0.0000 9.6833 0.0000
# 6 0.0000 0.0000 0.0000 0.0000 0.0000 18.5853
#
#
#
# Elastic Compliance Matrix: (Units=1/GPa)
#
#
# Indices 1 2 3 4 5 6 
#
# 1 0.019903 -0.007000 -0.007643 0.000000 0.000000 0.000000
# 2 -0.007000 0.019903 -0.007643 0.000000 0.000000 0.000000
# 3 -0.007643 -0.007643 0.021768 0.000000 0.000000 0.000000
# 4 0.000000 0.000000 0.000000 0.103270 0.000000 0.000000
# 5 0.000000 0.000000 0.000000 0.000000 0.103270 0.000000
# 6 0.000000 0.000000 0.000000 0.000000 0.000000 0.053806
#
#
# Mechanical properties :
#
#
# Convention : Reuss Voigt Hill
#
# Bulk Modulus (GPa) = 58.81751 58.93679 58.87715
# Shear Modulus (GPa) = 13.43515 14.76237 14.09876
#
# Velocity S-wave (km/s) = 2.75834 2.89137 2.82564
# Velocity P-wave (km/s) = 6.59191 6.67256 6.63236
#
# Compressibility (1/GPa) = 0.01700174
#
# Stress axis : x y z
#
# Youngs Moduli (GPa) = 50.24490 50.24490 45.93862
#
# Poissons Ratio (x) = 0.35174 0.35109
# Poissons Ratio (y) = 0.35174 0.35109
# Poissons Ratio (z) = 0.38400 0.38400
#
# Static dielectric constant tensor:
#      x y z
#    x 1.607470 0.000000 0.000000 
#    y 0.000000 1.607470 0.000000 
#    z 0.000000 0.000000 1.607140 
# 
# From -- ./inp_files/1832.got.cif
#   From: 2010.05.17/outbox.cif.g08.bks.cpg/sg189_1_cif.got.tgz:1832.got - 2010.05.20 12:14:34.
