data_PCOD9586408
_publ_section_title
;
Structure prediction by ZEFSAII (Michael W. Deem and Ramdas Pophale) SiO2 
 PCOD9586408
Probable space group: P -6 2 M
;
_chemical_formula_sum "Si O2"
_cell_formula_units_Z 72
_cell_length_a 14.294840
_cell_length_b 14.294840
_cell_length_c 18.324777
_cell_angle_alpha 90.000000
_cell_angle_beta 90.000000
_cell_angle_gamma 120.000000
_cell_volume 3242.857966
_symmetry_space_group_name_H-M "P -6 2 M"
_symmetry_group_IT_number 189
_symmetry_cell_setting 'hexagonal'
loop_
_space_group_symop_operation_xyz
x,y,z
-x+y,-x,-z
-y,x-y,z
x,y,-z
-x+y,-x,z
-y,x-y,-z
x-y,-y,-z
-x,-x+y,-z
y,x,-z
y,x,z
x-y,-y,z
-x,-x+y,z
loop_
_atom_site_type_symbol
_atom_site_label
_atom_site_fract_x
_atom_site_fract_y
_atom_site_fract_z
Si Si1 0.872449 0.205493 0.731692
Si Si2 0.872650 0.122857 0.117314
Si Si3 0.585841 0.774549 0.579281
Si Si4 0.409318 0.868923 0.215678
Si Si5 0.131830 0.665851 0.080428
Si Si6 0.459863 0.877604 0.376294
O O1 0.857523 0.122595 0.794902
O O2 0.821815 0.167689 0.651912
O O3 0.838312 0.286433 0.769863
O O4 0.000000 0.277491 0.717986
O O5 0.790576 0.160859 0.087503
O O6 0.000000 0.201405 0.101240
O O7 0.829857 0.000000 0.092507
O O8 0.639877 0.798163 0.500000
O O9 0.522975 0.647725 0.596990
O O10 0.491704 0.804217 0.578532
O O11 0.446045 0.829703 0.145001
O O12 0.444206 0.840743 0.292070
O O13 0.474950 0.000000 0.211461
O O14 0.000000 0.600240 0.084421
O O15 0.163594 0.647970 0.000000
O O16 0.555151 0.000000 0.380664
#
# Coordination Sequence:
#
# PCOD9586408 Si02
#       6
#    12  12  12  12  12  12
#     4   9  19  34  52  76 105 141 187 233 279 336
#     4  10  20  35  55  80 113 153 197 240 281 331
#     4  11  21  32  50  76 106 140 177 223 285 345
#     4   8  15  31  53  74 100 135 173 218 272 325
#     4   9  17  30  51  79 108 139 177 222 272 323
#     4  10  21  36  53  75 106 144 184 225 271 334
#
# _framework density 22.202638
#
# number of rings (size 3 to 8) (size 9 to 14) (size 15 to 20)
#    0.000    2.500    0.000    3.500    0.000    4.667 
#    0.000    0.833    0.000    4.667    0.000    0.000 
#    0.000    1.333    0.000    0.000    0.000    0.167 
#
# Total GULP energy -401740.408729 kJ/mol
# GULP energy per Si atom -5579.727899 kJ/mol
# Density = 2.215210 g / cm^3
# Si number density = 22.202638 Si / 1000 Ang^3
#
#
#
# Elastic Constant Matrix: (Units=GPa)
#
#
# Indices 1 2 3 4 5 6 
#
# 1 49.9690 14.5934 17.5075 0.0000 0.0000 0.0000
# 2 14.5934 49.9690 17.5075 0.0000 0.0000 0.0000
# 3 17.5075 17.5075 150.2533 0.0000 0.0000 0.0000
# 4 0.0000 0.0000 0.0000 23.3108 0.0000 0.0000
# 5 0.0000 0.0000 0.0000 0.0000 23.3108 0.0000
# 6 0.0000 0.0000 0.0000 0.0000 0.0000 17.6878
#
#
#
# Elastic Compliance Matrix: (Units=1/GPa)
#
#
# Indices 1 2 3 4 5 6 
#
# 1 0.022401 -0.005867 -0.001927 0.000000 0.000000 0.000000
# 2 -0.005867 0.022401 -0.001927 0.000000 0.000000 0.000000
# 3 -0.001927 -0.001927 0.007104 0.000000 0.000000 0.000000
# 4 0.000000 0.000000 0.000000 0.042899 0.000000 0.000000
# 5 0.000000 0.000000 0.000000 0.000000 0.042899 0.000000
# 6 0.000000 0.000000 0.000000 0.000000 0.000000 0.056536
#
#
# Mechanical properties :
#
#
# Convention : Reuss Voigt Hill
#
# Bulk Modulus (GPa) = 30.80167 38.82313 34.81240
# Shear Modulus (GPa) = 22.27155 26.23408 24.25282
#
# Velocity S-wave (km/s) = 3.17062 3.44113 3.30864
# Velocity P-wave (km/s) = 5.22560 5.77168 5.50541
#
# Compressibility (1/GPa) = 0.03246577
#
# Stress axis : x y z
#
# Youngs Moduli (GPa) = 44.64110 44.64110 140.75817
#
# Poissons Ratio (x) = 0.26192 0.27117
# Poissons Ratio (y) = 0.26192 0.27117
# Poissons Ratio (z) = 0.08600 0.08600
#
# Static dielectric constant tensor:
#      x y z
#    x 1.807590 0.000000 0.000000 
#    y 0.000000 1.807590 0.000000 
#    z 0.000000 0.000000 1.868210 
# 
# From -- ./inp_files/3120.got.cif
#   From: 2010.05.17/outbox.cif.g08.bks.cpg/sg189_2_cif.got.tgz:3120.got - 2010.05.20 12:14:34.
