data_PCOD9586360
_publ_section_title
;
Structure prediction by ZEFSAII (Michael W. Deem and Ramdas Pophale) SiO2 
 PCOD9586360
Probable space group: P -6 2 M
;
_chemical_formula_sum "Si O2"
_cell_formula_units_Z 76
_cell_length_a 18.219596
_cell_length_b 18.219596
_cell_length_c 16.145334
_cell_angle_alpha 90.000000
_cell_angle_beta 90.000000
_cell_angle_gamma 120.000000
_cell_volume 4641.465759
_symmetry_space_group_name_H-M "P -6 2 M"
_symmetry_group_IT_number 189
_symmetry_cell_setting 'hexagonal'
loop_
_space_group_symop_operation_xyz
x,y,z
-x+y,-x,-z
-y,x-y,z
x,y,-z
-x+y,-x,z
-y,x-y,-z
x-y,-y,-z
-x,-x+y,-z
y,x,-z
y,x,z
x-y,-y,z
-x,-x+y,z
loop_
_atom_site_type_symbol
_atom_site_label
_atom_site_fract_x
_atom_site_fract_y
_atom_site_fract_z
Si Si1 0.635422 0.097726 0.788176
Si Si2 0.504150 0.102838 0.674981
Si Si3 0.333334 0.666667 0.099914
Si Si4 0.897128 0.634072 0.500000
Si Si5 0.641787 0.742484 0.227939
Si Si6 0.315139 0.217079 0.319771
Si Si7 0.524405 0.758746 0.901188
Si Si8 0.896156 0.463490 0.500000
O O1 0.578963 0.129707 0.741371
O O2 0.702424 0.099799 0.721027
O O3 0.688869 0.154172 0.864849
O O4 0.575225 0.000000 0.812719
O O5 0.434389 0.124728 0.706471
O O6 0.541072 0.132341 0.583568
O O7 0.456675 0.000000 0.673317
O O8 0.262144 0.572041 0.123768
O O9 0.333334 0.666668 0.000000
O O10 0.873534 0.662529 0.584977
O O11 0.869013 0.535093 0.500000
O O12 0.000000 0.682713 0.500000
O O13 0.693541 0.693541 0.217249
O O14 0.698149 0.836085 0.265549
O O15 0.594082 0.744290 0.144859
O O16 0.241142 0.241142 0.316622
O O17 0.532464 0.759916 0.000000
O O18 0.000000 0.515486 0.500000
#
# Coordination Sequence:
#
# PCOD9586360 Si02
#       8
#    12  12   4   6  12  12  12   6
#     4   9  16  28  47  71  98 126 161 203 246 294
#     4   9  16  27  44  69  98 128 156 189 236 289
#     4   9  18  33  48  66  93 124 164 202 237 288
#     4   9  14  25  47  73  95 124 167 199 229 287
#     4  10  21  34  48  71 101 130 165 213 268 310
#     4   9  17  30  49  71  95 128 169 208 244 293
#     4  10  20  33  50  69  92 129 171 211 256 304
#     4   9  14  23  44  71  98 128 160 187 224 283
#
# _framework density 16.374137999999999
#
# number of rings (size 3 to 8) (size 9 to 14) (size 15 to 20)
#    0.000    2.684    1.579    0.947    0.000    1.263 
#    0.000    1.184    0.000    6.000    0.000    0.000 
#    0.000    0.000    0.000    0.474    0.000    0.000 
#
# Total GULP energy -423359.521233 kJ/mol
# GULP energy per Si atom -5570.520016 kJ/mol
# Density = 1.633687 g / cm^3
# Si number density = 16.374138 Si / 1000 Ang^3
#
#
#
# Elastic Constant Matrix: (Units=GPa)
#
#
# Indices 1 2 3 4 5 6 
#
# 1 66.9448 31.3831 44.5873 0.0000 0.0000 0.0000
# 2 31.3831 66.9446 44.5873 0.0000 0.0000 -0.0001
# 3 44.5873 44.5873 112.9203 0.0000 0.0000 0.0000
# 4 0.0000 0.0000 0.0000 15.9386 0.0000 0.0000
# 5 0.0000 0.0000 0.0000 0.0000 15.9386 0.0000
# 6 0.0000 -0.0001 0.0000 0.0000 0.0000 17.7808
#
#
#
# Elastic Compliance Matrix: (Units=1/GPa)
#
#
# Indices 1 2 3 4 5 6 
#
# 1 0.021982 -0.006138 -0.006256 0.000000 0.000000 0.000000
# 2 -0.006138 0.021982 -0.006256 0.000000 0.000000 0.000000
# 3 -0.006256 -0.006256 0.013796 0.000000 0.000000 0.000000
# 4 0.000000 0.000000 0.000000 0.062741 0.000000 0.000000
# 5 0.000000 0.000000 0.000000 0.000000 0.062741 0.000000
# 6 0.000000 0.000000 0.000000 0.000000 0.000000 0.056240
#
#
# Mechanical properties :
#
#
# Convention : Reuss Voigt Hill
#
# Bulk Modulus (GPa) = 48.87663 54.21391 51.54527
# Shear Modulus (GPa) = 17.63031 18.34839 17.98935
#
# Velocity S-wave (km/s) = 3.28490 3.35113 3.31818
# Velocity P-wave (km/s) = 6.65598 6.93936 6.79915
#
# Compressibility (1/GPa) = 0.02045968
#
# Stress axis : x y z
#
# Youngs Moduli (GPa) = 45.49196 45.49175 72.48358
#
# Poissons Ratio (x) = 0.27924 0.45345
# Poissons Ratio (y) = 0.27924 0.45346
# Poissons Ratio (z) = 0.28460 0.28460
#
# Static dielectric constant tensor:
#      x y z
#    x 1.556610 0.000000 0.000000 
#    y 0.000000 1.556610 0.000000 
#    z 0.000000 0.000000 1.550240 
# 
# From -- ./inp_files/2768.got.cif
#   From: 2010.05.17/outbox.cif.g08.bks.cpg/sg189_2_cif.got.tgz:2768.got - 2010.05.20 12:14:34.
