data_PCOD9586174
_publ_section_title
;
Structure prediction by ZEFSAII (Michael W. Deem and Ramdas Pophale) SiO2 
 PCOD9586174
Probable space group: P -6 2 M
;
_chemical_formula_sum "Si O2"
_cell_formula_units_Z 54
_cell_length_a 14.422487
_cell_length_b 14.422487
_cell_length_c 16.396690
_cell_angle_alpha 90.000000
_cell_angle_beta 90.000000
_cell_angle_gamma 120.000000
_cell_volume 2953.705080
_symmetry_space_group_name_H-M "P -6 2 M"
_symmetry_group_IT_number 189
_symmetry_cell_setting 'hexagonal'
loop_
_space_group_symop_operation_xyz
x,y,z
-x+y,-x,-z
-y,x-y,z
x,y,-z
-x+y,-x,z
-y,x-y,-z
x-y,-y,-z
-x,-x+y,-z
y,x,-z
y,x,z
x-y,-y,z
-x,-x+y,z
loop_
_atom_site_type_symbol
_atom_site_label
_atom_site_fract_x
_atom_site_fract_y
_atom_site_fract_z
Si Si1 0.750315 0.560391 0.674613
Si Si2 0.127955 0.874025 0.789818
Si Si3 0.574115 0.870447 0.908347
Si Si4 0.302786 0.771550 0.500000
Si Si5 0.876521 0.464655 0.757268
O O1 0.829233 0.679923 0.705394
O O2 0.715853 0.537696 0.581021
O O3 0.806335 0.490755 0.696181
O O4 0.646199 0.512243 0.732001
O O5 0.155189 0.810823 0.859142
O O6 0.000000 0.820893 0.788142
O O7 0.186438 0.000000 0.805226
O O8 0.474409 0.840096 0.848304
O O9 0.636659 0.000000 0.914326
O O10 0.549085 0.826962 0.000000
O O11 0.417968 0.776519 0.500000
O O12 0.000000 0.556012 0.749915
#
# Coordination Sequence:
#
# PCOD9586174 Si02
#       5
#    12  12  12   6  12
#     4  11  19  35  55  83 113 144 180 227 286 348
#     4  10  21  37  57  80 112 154 200 243 282 326
#     4   8  16  32  54  80 108 139 178 226 278 330
#     4  10  18  34  56  88 114 140 168 234 292 344
#     4  10  19  33  54  78 110 148 180 221 280 340
#
# _framework density 18.282122000000001
#
# number of rings (size 3 to 8) (size 9 to 14) (size 15 to 20)
#    0.222    2.000    2.222    3.333    0.000    0.444 
#    0.000   10.000    0.000    6.667    0.000    1.556 
#    0.000    0.000    0.000    0.000    0.000    0.000 
#
# Total GULP energy -300972.761344 kJ/mol
# GULP energy per Si atom -5573.569655 kJ/mol
# Density = 1.824051 g / cm^3
# Si number density = 18.282122 Si / 1000 Ang^3
#
#
#
# Elastic Constant Matrix: (Units=GPa)
#
#
# Indices 1 2 3 4 5 6 
#
# 1 55.0690 2.9836 43.6240 0.0000 0.0000 0.0000
# 2 2.9836 55.0690 43.6240 0.0000 0.0000 0.0000
# 3 43.6240 43.6240 162.4004 0.0000 0.0000 0.0000
# 4 0.0000 0.0000 0.0000 15.1353 0.0000 0.0000
# 5 0.0000 0.0000 0.0000 0.0000 15.1353 0.0000
# 6 0.0000 0.0000 0.0000 0.0000 0.0000 26.0427
#
#
#
# Elastic Compliance Matrix: (Units=1/GPa)
#
#
# Indices 1 2 3 4 5 6 
#
# 1 0.024044 0.004845 -0.007760 0.000000 0.000000 0.000000
# 2 0.004845 0.024044 -0.007760 0.000000 0.000000 0.000000
# 3 -0.007760 -0.007760 0.010327 0.000000 0.000000 0.000000
# 4 0.000000 0.000000 0.000000 0.066071 0.000000 0.000000
# 5 0.000000 0.000000 0.000000 0.000000 0.066071 0.000000
# 6 0.000000 0.000000 0.000000 0.000000 0.000000 0.038399
#
#
# Mechanical properties :
#
#
# Convention : Reuss Voigt Hill
#
# Bulk Modulus (GPa) = 26.98081 50.33351 38.65716
# Shear Modulus (GPa) = 19.03606 23.41644 21.22625
#
# Velocity S-wave (km/s) = 3.23032 3.58276 3.41110
# Velocity P-wave (km/s) = 5.35756 6.68627 6.05845
#
# Compressibility (1/GPa) = 0.03706337
#
# Stress axis : x y z
#
# Youngs Moduli (GPa) = 41.59072 41.59072 96.83725
#
# Poissons Ratio (x) = -0.20149 0.75146
# Poissons Ratio (y) = -0.20149 0.75146
# Poissons Ratio (z) = 0.32274 0.32274
#
# Static dielectric constant tensor:
#      x y z
#    x 1.642420 0.000000 0.000000 
#    y 0.000000 1.642420 0.000000 
#    z 0.000000 0.000000 1.637800 
# 
# From -- ./inp_files/2442.got.cif
#   From: 2010.05.17/outbox.cif.g08.bks.cpg/sg189_2_cif.got.tgz:2442.got - 2010.05.20 12:14:34.
