data_PCOD9586097
_publ_section_title
;
Structure prediction by ZEFSAII (Michael W. Deem and Ramdas Pophale) SiO2 
 PCOD9586097
Probable space group: P -6 C 2
;
_chemical_formula_sum "Si O2"
_cell_formula_units_Z 72
_cell_length_a 24.000000
_cell_length_b 24.000000
_cell_length_c 9.000000
_cell_angle_alpha 90.000000
_cell_angle_beta 90.000000
_cell_angle_gamma 120.000000
_cell_volume 4489.475693
_symmetry_space_group_name_H-M "P -6 C 2"
_symmetry_group_IT_number 188
_symmetry_cell_setting 'hexagonal'
loop_
_space_group_symop_operation_xyz
x,y,z
-x+y,-x,1/2-z
-y,x-y,z
x,y,1/2-z
-x+y,-x,z
-y,x-y,1/2-z
-y,-x,-z
-x+y,y,-z
x,x-y,-z
-x+y,y,1/2+z
x,x-y,1/2+z
-y,-x,1/2+z
loop_
_atom_site_type_symbol
_atom_site_label
_atom_site_fract_x
_atom_site_fract_y
_atom_site_fract_z
Si Si1 0.592223 0.735599 0.929974
Si Si2 0.454652 0.665824 0.068930
Si Si3 0.943951 0.530230 0.068874
Si Si4 0.813717 0.516729 0.081720
Si Si5 0.892859 0.219629 0.578484
Si Si6 0.007761 0.671457 0.571412
O O1 0.588153 0.735354 0.750000
O O2 0.605207 0.802604 0.000000
O O3 0.523999 0.683952 0.003245
O O4 0.644064 0.718308 0.990327
O O5 0.454225 0.666935 0.250000
O O6 0.400920 0.599081 0.000000
O O7 0.441983 0.720992 0.000000
O O8 0.948151 0.534142 0.250000
O O9 0.869064 0.503307 0.023697
O O10 0.965556 0.482778 0.000000
O O11 0.983829 0.600569 0.996910
O O12 0.799645 0.493667 0.250000
O O13 0.850796 0.594964 0.082722
O O14 0.746849 0.493698 0.000000
O O15 0.908672 0.214473 0.750000
O O16 0.848156 0.151845 0.500000
O O17 0.954367 0.265202 0.480037
O O18 0.013250 0.671279 0.750000
#
# Coordination Sequence:
#
# PCOD9586097 Si02
#       6
#    12  12  12  12  12  12
#     4  11  22  38  55  73  96 126 163 203 245 299
#     4  11  21  35  52  72  93 118 154 202 257 311
#     4  10  20  33  47  68  94 122 156 200 248 298
#     4   8  15  26  42  62  85 111 144 180 221 271
#     4   9  16  28  46  71  98 124 152 186 223 266
#     4  11  21  34  51  72  97 129 162 197 240 289
#
# _framework density 16.037507000000002
#
# number of rings (size 3 to 8) (size 9 to 14) (size 15 to 20)
#    0.000    2.000    0.000    7.667    0.000    5.333 
#    0.000    3.333    0.000    0.333    0.000    0.000 
#    0.000    0.000    0.000    0.500    0.000    7.000 
#
# Total GULP energy -401421.355639 kJ/mol
# GULP energy per Si atom -5575.296606 kJ/mol
# Density = 1.600101 g / cm^3
# Si number density = 16.037507 Si / 1000 Ang^3
#
#
#
# Elastic Constant Matrix: (Units=GPa)
#
#
# Indices 1 2 3 4 5 6 
#
# 1 47.2719 55.3532 36.9317 -0.0002 0.0000 0.0000
# 2 55.3532 47.2719 36.9317 0.0002 0.0000 0.0000
# 3 36.9317 36.9317 150.1853 0.0000 0.0000 0.0000
# 4 -0.0002 0.0002 0.0000 23.7707 0.0000 0.0000
# 5 0.0000 0.0000 0.0000 0.0000 23.7707 -0.0002
# 6 0.0000 0.0000 0.0000 0.0000 -0.0002 -4.0407
#
#
#
# Elastic Compliance Matrix: (Units=1/GPa)
#
#
# Indices 1 2 3 4 5 6 
#
# 1 -0.055951 0.067790 -0.002911 -0.000001 0.000000 0.000000
# 2 0.067790 -0.055951 -0.002911 0.000001 0.000000 0.000000
# 3 -0.002911 -0.002911 0.008090 0.000000 0.000000 0.000000
# 4 -0.000001 0.000001 0.000000 0.042069 0.000000 0.000000
# 5 0.000000 0.000000 0.000000 0.000000 0.042069 -0.000002
# 6 0.000000 0.000000 0.000000 0.000000 -0.000002 -0.247482
#
#
# Mechanical properties :
#
#
# Convention : Reuss Voigt Hill
#
# Bulk Modulus (GPa) = 49.69224 55.90694 52.79959
# Shear Modulus (GPa) = -13.00784 16.40097 1.69657
#
# Velocity S-wave (km/s) = -2.85105 3.20138 1.02965
# Velocity P-wave (km/s) = 4.49603 6.97144 5.86580
#
# Compressibility (1/GPa) = 0.02012387
#
# Stress axis : x y z
#
# Youngs Moduli (GPa) = -17.87286 -17.87286 123.60404
#
# Poissons Ratio (x) = 1.21161 0.35987
# Poissons Ratio (y) = 1.21161 0.35987
# Poissons Ratio (z) = -0.05204 -0.05204
#
# Static dielectric constant tensor:
#      x y z
#    x 1.556920 0.000000 0.000000 
#    y 0.000000 1.556920 0.000000 
#    z 0.000000 0.000000 1.532680 
# 
# From -- ./inp_files/988.got.cif
#   From: 2010.05.17/outbox.ucp.g08.bks.cvg/sg188_1_cif.got.tgz:988.got - 2010.06.11 15:21:59.
