data_PCOD9586812
_publ_section_title
;
Structure prediction by ZEFSAII (Michael W. Deem and Ramdas Pophale) SiO2 
 PCOD9586812
Probable space group: P -6 2 C
;
_chemical_formula_sum "Si O2"
_cell_formula_units_Z 84
_cell_length_a 14.921268
_cell_length_b 14.921268
_cell_length_c 19.700565
_cell_angle_alpha 90.000000
_cell_angle_beta 90.000000
_cell_angle_gamma 120.000000
_cell_volume 3798.575606
_symmetry_space_group_name_H-M "P -6 2 C"
_symmetry_group_IT_number 190
_symmetry_cell_setting 'hexagonal'
loop_
_space_group_symop_operation_xyz
x,y,z
-x+y,-x,1/2-z
-y,x-y,z
x,y,1/2-z
-x+y,-x,z
-y,x-y,1/2-z
x-y,-y,-z
-x,-x+y,-z
y,x,-z
y,x,1/2+z
x-y,-y,1/2+z
-x,-x+y,1/2+z
loop_
_atom_site_type_symbol
_atom_site_label
_atom_site_fract_x
_atom_site_fract_y
_atom_site_fract_z
Si Si1 0.521603 0.085903 0.832937
Si Si2 0.542135 0.674795 0.672825
Si Si3 0.117327 0.304741 0.001381
Si Si4 0.896661 0.131592 0.148883
Si Si5 0.098488 0.868598 0.352457
Si Si6 0.536439 0.786839 0.173861
Si Si7 0.747329 0.283980 0.462331
O O1 0.512748 0.080683 0.750000
O O2 0.639585 0.123396 0.853687
O O3 0.507837 0.181596 0.857942
O O4 0.427939 0.972547 0.852945
O O5 0.500529 0.656953 0.750000
O O6 0.659708 0.770641 0.674513
O O7 0.485936 0.709358 0.617685
O O8 0.122717 0.252624 0.931890
O O9 0.194518 0.426873 0.998383
O O10 0.134408 0.251849 0.066621
O O11 0.000000 0.282944 0.000000
O O12 0.011620 0.154451 0.163509
O O13 0.814510 0.017666 0.171675
O O14 0.170195 0.827770 0.322571
O O15 0.491460 0.767144 0.250000
O O16 0.777272 0.402139 0.477914
#
# Coordination Sequence:
#
# PCOD9586812 Si02
#       7
#    12  12  12  12  12  12  12
#     4   9  18  34  55  81 119 159 196 246 302 352
#     4  10  20  37  60  83 118 165 198 242 310 371
#     4   9  20  40  61  84 114 158 198 241 307 364
#     4  10  21  37  58  84 124 158 203 252 302 359
#     4  11  21  37  60  89 119 161 206 247 306 369
#     4  10  20  36  58  88 121 155 203 256 304 360
#     4   9  21  41  61  84 120 147 193 255 304 358
#
# _framework density 22.113551999999999
#
# number of rings (size 3 to 8) (size 9 to 14) (size 15 to 20)
#    0.286    2.000    1.429    1.000    0.000    4.571 
#    2.571    5.714    0.000    1.714    0.000    0.000 
#    0.000    0.000    0.000    0.000    0.000    0.000 
#
# Total GULP energy -468486.545079 kJ/mol
# GULP energy per Si atom -5577.220775 kJ/mol
# Density = 2.206322 g / cm^3
# Si number density = 22.113552 Si / 1000 Ang^3
#
#
#
# Elastic Constant Matrix: (Units=GPa)
#
#
# Indices 1 2 3 4 5 6 
#
# 1 73.4138 10.5086 -5.7598 0.0000 0.0000 0.0000
# 2 10.5086 73.4138 -5.7598 0.0000 0.0000 0.0000
# 3 -5.7598 -5.7598 73.8447 0.0000 0.0000 0.0000
# 4 0.0000 0.0000 0.0000 35.8793 0.0000 0.0000
# 5 0.0000 0.0000 0.0000 0.0000 35.8793 0.0000
# 6 0.0000 0.0000 0.0000 0.0000 0.0000 31.4526
#
#
#
# Elastic Compliance Matrix: (Units=1/GPa)
#
#
# Indices 1 2 3 4 5 6 
#
# 1 0.013971 -0.001926 0.000939 0.000000 0.000000 0.000000
# 2 -0.001926 0.013971 0.000939 0.000000 0.000000 0.000000
# 3 0.000939 0.000939 0.013688 0.000000 0.000000 0.000000
# 4 0.000000 0.000000 0.000000 0.027871 0.000000 0.000000
# 5 0.000000 0.000000 0.000000 0.000000 0.027871 0.000000
# 6 0.000000 0.000000 0.000000 0.000000 0.000000 0.031794
#
#
# Mechanical properties :
#
#
# Convention : Reuss Voigt Hill
#
# Bulk Modulus (GPa) = 24.07561 24.29449 24.18505
# Shear Modulus (GPa) = 34.93913 35.42113 35.18013
#
# Velocity S-wave (km/s) = 3.97922 4.00657 3.99292
# Velocity P-wave (km/s) = 5.65890 5.69329 5.67612
#
# Compressibility (1/GPa) = 0.04153581
#
# Stress axis : x y z
#
# Youngs Moduli (GPa) = 71.57773 71.57773 73.05408
#
# Poissons Ratio (x) = 0.13787 -0.06863
# Poissons Ratio (y) = 0.13787 -0.06863
# Poissons Ratio (z) = -0.06725 -0.06725
#
# Static dielectric constant tensor:
#      x y z
#    x 1.773330 0.000000 0.000000 
#    y 0.000000 1.773330 0.000000 
#    z 0.000000 0.000000 1.909510 
# 
# From -- ./inp_files/4709.got.cif
#   From: 2010.05.17/outbox.cif.g08.bks.cpg/sg190_3_cif.got.tgz:4709.got - 2010.05.20 12:16:56.
