data_PCOD9586063
_publ_section_title
;
Structure prediction by ZEFSAII (Michael W. Deem and Ramdas Pophale) SiO2 
 PCOD9586063
Probable space group: P -6 C 2
;
_chemical_formula_sum "Si O2"
_cell_formula_units_Z 48
_cell_length_a 16.938221
_cell_length_b 16.938221
_cell_length_c 8.963419
_cell_angle_alpha 90.000000
_cell_angle_beta 90.000000
_cell_angle_gamma 120.000000
_cell_volume 2227.101036
_symmetry_space_group_name_H-M "P -6 C 2"
_symmetry_group_IT_number 188
_symmetry_cell_setting 'hexagonal'
loop_
_space_group_symop_operation_xyz
x,y,z
-x+y,-x,1/2-z
-y,x-y,z
x,y,1/2-z
-x+y,-x,z
-y,x-y,1/2-z
-y,-x,-z
-x+y,y,-z
x,x-y,-z
-x+y,y,1/2+z
x,x-y,1/2+z
-y,-x,1/2+z
loop_
_atom_site_type_symbol
_atom_site_label
_atom_site_fract_x
_atom_site_fract_y
_atom_site_fract_z
Si Si1 0.002149 0.680008 0.924562
Si Si2 0.554700 0.311081 0.250000
Si Si3 0.788894 0.211107 0.000000
Si Si4 0.333939 0.840406 0.568174
Si Si5 0.999778 0.160539 0.572561
O O1 0.026703 0.694347 0.750000
O O2 0.891243 0.630938 0.933496
O O3 0.034641 0.773327 0.014245
O O4 0.058767 0.639415 0.006093
O O5 0.646957 0.406730 0.250000
O O6 0.490021 0.288297 0.387633
O O7 0.332360 0.838289 0.750000
O O8 0.236027 0.763973 0.500000
O O9 0.409478 0.818955 0.500000
O O10 0.996803 0.154742 0.750000
O O11 0.901998 0.098003 0.500000
O O12 0.063618 0.127235 0.500000
#
# Coordination Sequence:
#
# PCOD9586063 Si02
#       5
#    12   6   6  12  12
#     4  12  26  45  70 106 146 192 242 302 371 441
#     4  10  24  44  68  98 134 188 242 298 356 426
#     4  12  24  44  72 102 150 190 244 304 370 432
#     4  12  27  50  79 112 151 195 248 307 374 444
#     4  12  25  43  68  97 136 181 235 293 360 436
#
# _framework density 21.552679999999999
#
# number of rings (size 3 to 8) (size 9 to 14) (size 15 to 20)
#    0.250    0.000    2.500    7.250    3.500    2.000 
#    0.000    0.000    0.000    0.000    0.000    0.000 
#    0.000    0.000    0.000    0.000    0.000    0.000 
#
# Total GULP energy -267862.994627 kJ/mol
# GULP energy per Si atom -5580.479055 kJ/mol
# Density = 2.150363 g / cm^3
# Si number density = 21.552680 Si / 1000 Ang^3
#
#
#
# Elastic Constant Matrix: (Units=GPa)
#
#
# Indices 1 2 3 4 5 6 
#
# 1 88.6422 14.3422 35.4825 0.0005 0.0000 0.0000
# 2 14.3422 88.6422 35.4825 -0.0005 0.0000 0.0000
# 3 35.4825 35.4825 227.8700 0.0000 0.0000 0.0000
# 4 0.0005 -0.0005 0.0000 -89.7114 0.0000 0.0000
# 5 0.0000 0.0000 0.0000 0.0000 -89.7114 0.0005
# 6 0.0000 0.0000 0.0000 0.0000 0.0005 37.1500
#
#
#
# Elastic Compliance Matrix: (Units=1/GPa)
#
#
# Indices 1 2 3 4 5 6 
#
# 1 0.012168 -0.001291 -0.001694 0.000000 0.000000 0.000000
# 2 -0.001291 0.012168 -0.001694 0.000000 0.000000 0.000000
# 3 -0.001694 -0.001694 0.004916 0.000000 0.000000 0.000000
# 4 0.000000 0.000000 0.000000 -0.011147 0.000000 0.000000
# 5 0.000000 0.000000 0.000000 0.000000 -0.011147 0.000000
# 6 0.000000 0.000000 0.000000 0.000000 0.000000 0.026918
#
#
# Mechanical properties :
#
#
# Convention : Reuss Voigt Hill
#
# Bulk Modulus (GPa) = 50.26229 63.97430 57.11830
# Shear Modulus (GPa) = 100.27082 -7.13143 46.56969
#
# Velocity S-wave (km/s) = 6.82822 -1.82099 4.65342
# Velocity P-wave (km/s) = 9.24864 5.03248 7.44524
#
# Compressibility (1/GPa) = 0.01989563
#
# Stress axis : x y z
#
# Youngs Moduli (GPa) = 82.18176 82.18176 203.41965
#
# Poissons Ratio (x) = 0.10608 0.34454
# Poissons Ratio (y) = 0.10608 0.34454
# Poissons Ratio (z) = 0.13920 0.13920
#
# Static dielectric constant tensor:
#      x y z
#    x 1.641390 0.000000 0.000000 
#    y 0.000000 1.641390 0.000000 
#    z 0.000000 0.000000 1.724610 
# 
# From -- ./inp_files/411.got.cif
#   From: 2010.05.17/outbox.cif.g08.bks.cpg/sg188_1_cif.got.tgz:411.got - 2010.05.20 12:11:46.
