data_PCOD9586463
_publ_section_title
;
Structure prediction by ZEFSAII (Michael W. Deem and Ramdas Pophale) SiO2 
 PCOD9586463
Probable space group: P -6 2 M
;
_chemical_formula_sum "Si O2"
_cell_formula_units_Z 24
_cell_length_a 13.722787
_cell_length_b 13.722787
_cell_length_c 8.802282
_cell_angle_alpha 90.000000
_cell_angle_beta 90.000000
_cell_angle_gamma 120.000000
_cell_volume 1435.524320
_symmetry_space_group_name_H-M "P -6 2 M"
_symmetry_group_IT_number 189
_symmetry_cell_setting 'hexagonal'
loop_
_space_group_symop_operation_xyz
x,y,z
-x+y,-x,-z
-y,x-y,z
x,y,-z
-x+y,-x,z
-y,x-y,-z
x-y,-y,-z
-x,-x+y,-z
y,x,-z
y,x,z
x-y,-y,z
-x,-x+y,z
loop_
_atom_site_type_symbol
_atom_site_label
_atom_site_fract_x
_atom_site_fract_y
_atom_site_fract_z
Si Si1 0.677711 0.552279 0.820920
Si Si2 0.000000 0.000000 0.818112
Si Si3 0.333334 0.666668 0.318881
Si Si4 0.784557 0.784557 0.681452
O O1 0.568315 0.568315 0.806075
O O2 0.664203 0.442094 0.743751
O O3 0.772476 0.667168 0.741660
O O4 0.701211 0.553130 0.000000
O O5 0.000000 0.109766 0.754877
O O6 0.000000 0.000000 0.000000
O O7 0.333334 0.666668 0.500000
O O8 0.789831 0.789831 0.500000
#
# Coordination Sequence:
#
# PCOD9586463 Si02
#       4
#    12   2   4   6
#     4   9  20  39  59  82 115 150 189 233 279 340
#     4  12  22  38  61  84 115 158 190 222 286 344
#     4  12  22  35  61  87 115 152 187 234 289 332
#     4  10  20  38  59  86 117 144 188 242 282 328
#
# _framework density 16.718627999999999
#
# number of rings (size 3 to 8) (size 9 to 14) (size 15 to 20)
#    1.500    0.500    0.000    5.250    0.000    0.000 
#    4.500    0.000    0.000    0.000    0.000    0.000 
#    0.000    0.000    0.000    0.000    0.000    0.000 
#
# Total GULP energy -133614.124953 kJ/mol
# GULP energy per Si atom -5567.255206 kJ/mol
# Density = 1.668058 g / cm^3
# Si number density = 16.718628 Si / 1000 Ang^3
#
#
#
# Elastic Constant Matrix: (Units=GPa)
#
#
# Indices 1 2 3 4 5 6 
#
# 1 128.8243 78.2208 89.7685 -0.0001 0.0000 0.0001
# 2 78.2208 128.8251 89.7687 -0.0001 0.0000 -0.0003
# 3 89.7685 89.7687 209.2267 -0.0001 0.0000 0.0000
# 4 -0.0001 -0.0001 -0.0001 30.9460 -0.0001 0.0000
# 5 0.0000 0.0000 0.0000 -0.0001 30.9461 0.0000
# 6 0.0001 -0.0003 0.0000 0.0000 0.0000 25.3015
#
#
#
# Elastic Compliance Matrix: (Units=1/GPa)
#
#
# Indices 1 2 3 4 5 6 
#
# 1 0.013726 -0.006035 -0.003300 0.000000 0.000000 0.000000
# 2 -0.006035 0.013726 -0.003300 0.000000 0.000000 0.000000
# 3 -0.003300 -0.003300 0.007611 0.000000 0.000000 0.000000
# 4 0.000000 0.000000 0.000000 0.032314 0.000000 0.000000
# 5 0.000000 0.000000 0.000000 0.000000 0.032314 0.000000
# 6 0.000000 0.000000 0.000000 0.000000 0.000000 0.039523
#
#
# Mechanical properties :
#
#
# Convention : Reuss Voigt Hill
#
# Bulk Modulus (GPa) = 102.10263 109.15467 105.62865
# Shear Modulus (GPa) = 29.80619 31.37994 30.59307
#
# Velocity S-wave (km/s) = 4.22692 4.33707 4.28235
# Velocity P-wave (km/s) = 9.22097 9.51374 9.36850
#
# Compressibility (1/GPa) = 0.00979407
#
# Stress axis : x y z
#
# Youngs Moduli (GPa) = 72.85229 72.85280 131.38489
#
# Poissons Ratio (x) = 0.43966 0.43357
# Poissons Ratio (y) = 0.43966 0.43357
# Poissons Ratio (z) = 0.24041 0.24041
#
# Static dielectric constant tensor:
#      x y z
#    x 1.548150 0.000000 0.000000 
#    y 0.000000 1.548150 0.000000 
#    z 0.000000 0.000000 1.550320 
# 
# From -- ./inp_files/251.got.cif
#   From: 2010.05.17/outbox.cif.g08.bks.cpg/sg189_1_cif.got.tgz:251.got - 2010.05.20 12:14:34.
