data_PCOD9586655
_publ_section_title
;
Structure prediction by ZEFSAII (Michael W. Deem and Ramdas Pophale) SiO2 
 PCOD9586655
Probable space group: P -6 2 C
;
_chemical_formula_sum "Si O2"
_cell_formula_units_Z 96
_cell_length_a 26.918887
_cell_length_b 26.918887
_cell_length_c 7.420449
_cell_angle_alpha 90.000000
_cell_angle_beta 90.000000
_cell_angle_gamma 120.000000
_cell_volume 4656.665205
_symmetry_space_group_name_H-M "P -6 2 C"
_symmetry_group_IT_number 190
_symmetry_cell_setting 'hexagonal'
loop_
_space_group_symop_operation_xyz
x,y,z
-x+y,-x,1/2-z
-y,x-y,z
x,y,1/2-z
-x+y,-x,z
-y,x-y,1/2-z
x-y,-y,-z
-x,-x+y,-z
y,x,-z
y,x,1/2+z
x-y,-y,1/2+z
-x,-x+y,1/2+z
loop_
_atom_site_type_symbol
_atom_site_label
_atom_site_fract_x
_atom_site_fract_y
_atom_site_fract_z
Si Si1 0.420192 0.235880 0.969432
Si Si2 0.466084 0.067539 0.965713
Si Si3 0.060659 0.733078 0.465169
Si Si4 0.547930 0.298313 0.968692
Si Si5 0.728976 0.623566 0.529989
Si Si6 0.374901 0.805565 0.470136
Si Si7 0.215476 0.154712 0.965433
Si Si8 0.064540 0.249274 0.464449
O O1 0.417495 0.233432 0.750000
O O2 0.378253 0.257983 0.034014
O O3 0.484040 0.280532 0.020559
O O4 0.403815 0.171893 0.024547
O O5 0.468863 0.071723 0.750000
O O6 0.413572 0.076735 0.030164
O O7 0.524428 0.127595 0.026577
O O8 0.447587 0.000000 0.000000
O O9 0.065920 0.738319 0.250000
O O10 0.056514 0.787028 0.537494
O O11 0.000000 0.676623 0.500000
O O12 0.553517 0.299577 0.750000
O O13 0.554227 0.243690 0.025314
O O14 0.588010 0.363937 0.027343
O O15 0.726767 0.622833 0.750000
O O16 0.765345 0.689217 0.467052
O O17 0.375185 0.807505 0.250000
O O18 0.220073 0.154753 0.750000
O O19 0.225594 0.104720 0.035540
O O20 0.159076 0.159076 0.000000
O O21 0.074781 0.257653 0.250000
O O22 0.000000 0.203299 0.500000
#
# Coordination Sequence:
#
# PCOD9586655 Si02
#       8
#    12  12  12  12  12  12  12  12
#     4   9  14  24  43  64  87 121 157 186 225 282
#     4  10  19  31  48  70  99 134 167 198 238 295
#     4   9  16  27  44  64  86 115 149 181 216 263
#     4   9  15  24  41  66  95 124 155 200 251 289
#     4   9  15  27  45  65  92 125 158 188 227 281
#     4   9  16  26  42  69  99 124 158 207 258 294
#     4   9  17  29  45  63  84 111 143 179 218 262
#     4  10  19  30  45  67  93 118 148 187 227 270
#
# _framework density 20.615611000000001
#
# number of rings (size 3 to 8) (size 9 to 14) (size 15 to 20)
#    0.000    2.750    2.500    0.625    0.000    1.500 
#    0.000    0.625    0.000    1.000    0.000    0.875 
#    0.000    0.000    0.000    0.000    0.000    0.000 
#
# Total GULP energy -534487.399891 kJ/mol
# GULP energy per Si atom -5567.577082 kJ/mol
# Density = 2.056869 g / cm^3
# Si number density = 20.615611 Si / 1000 Ang^3
#
#
#
# Elastic Constant Matrix: (Units=GPa)
#
#
# Indices 1 2 3 4 5 6 
#
# 1 140.7964 81.1963 -0.1578 0.0000 0.0000 0.0000
# 2 81.1963 140.7964 -0.1578 0.0000 0.0000 0.0000
# 3 -0.1578 -0.1578 65.7955 0.0000 0.0000 0.0000
# 4 0.0000 0.0000 0.0000 -75.9802 0.0000 0.0000
# 5 0.0000 0.0000 0.0000 0.0000 -75.9802 0.0000
# 6 0.0000 0.0000 0.0000 0.0000 0.0000 29.8000
#
#
#
# Elastic Compliance Matrix: (Units=1/GPa)
#
#
# Indices 1 2 3 4 5 6 
#
# 1 0.010642 -0.006137 0.000011 0.000000 0.000000 0.000000
# 2 -0.006137 0.010642 0.000011 0.000000 0.000000 0.000000
# 3 0.000011 0.000011 0.015199 0.000000 0.000000 0.000000
# 4 0.000000 0.000000 0.000000 -0.013161 0.000000 0.000000
# 5 0.000000 0.000000 0.000000 0.000000 -0.013161 0.000000
# 6 0.000000 0.000000 0.000000 0.000000 0.000000 0.033557
#
#
# Mechanical properties :
#
#
# Convention : Reuss Voigt Hill
#
# Bulk Modulus (GPa) = 41.23507 56.57220 48.90363
# Shear Modulus (GPa) = 78.08777 -6.66489 35.71144
#
# Velocity S-wave (km/s) = 6.16119 -1.79999 4.16655
# Velocity P-wave (km/s) = 8.40588 4.81467 6.84982
#
# Compressibility (1/GPa) = 0.02425120
#
# Stress axis : x y z
#
# Youngs Moduli (GPa) = 93.97098 93.97098 65.79530
#
# Poissons Ratio (x) = 0.57669 -0.00071
# Poissons Ratio (y) = 0.57669 -0.00071
# Poissons Ratio (z) = -0.00102 -0.00102
#
# Static dielectric constant tensor:
#      x y z
#    x 1.757520 0.000000 0.000000 
#    y 0.000000 1.757520 0.000000 
#    z 0.000000 0.000000 1.781690 
# 
# From -- ./inp_files/2179.got.cif
#   From: 2010.05.17/outbox.cif.g08.bks.cpg/sg190_2_cif.got.tgz:2179.got - 2010.05.20 12:16:56.
