data_PCOD9586687
_publ_section_title
;
Structure prediction by ZEFSAII (Michael W. Deem and Ramdas Pophale) SiO2 
 PCOD9586687
Probable space group: P -6 2 C
;
_chemical_formula_sum "Si O2"
_cell_formula_units_Z 72
_cell_length_a 24.348584
_cell_length_b 24.348584
_cell_length_c 8.729067
_cell_angle_alpha 90.000000
_cell_angle_beta 90.000000
_cell_angle_gamma 120.000000
_cell_volume 4481.731951
_symmetry_space_group_name_H-M "P -6 2 C"
_symmetry_group_IT_number 190
_symmetry_cell_setting 'hexagonal'
loop_
_space_group_symop_operation_xyz
x,y,z
-x+y,-x,1/2-z
-y,x-y,z
x,y,1/2-z
-x+y,-x,z
-y,x-y,1/2-z
x-y,-y,-z
-x,-x+y,-z
y,x,-z
y,x,1/2+z
x-y,-y,1/2+z
-x,-x+y,1/2+z
loop_
_atom_site_type_symbol
_atom_site_label
_atom_site_fract_x
_atom_site_fract_y
_atom_site_fract_z
Si Si1 0.736272 0.804581 0.433881
Si Si2 0.400682 0.262235 0.433983
Si Si3 0.862046 0.266046 0.433891
Si Si4 0.474282 0.070385 0.933142
Si Si5 0.522731 0.929974 0.565527
Si Si6 0.261568 0.193398 0.932512
O O1 0.732378 0.798118 0.250000
O O2 0.784997 0.784997 0.500000
O O3 0.667051 0.758536 0.505233
O O4 0.753039 0.875907 0.474190
O O5 0.393129 0.260016 0.250000
O O6 0.418942 0.208868 0.475174
O O7 0.450978 0.334133 0.476081
O O8 0.332427 0.240575 0.506887
O O9 0.866854 0.272041 0.250000
O O10 0.882808 0.333357 0.508466
O O11 0.473342 0.067048 0.750000
O O12 0.543588 0.089027 0.996058
O O13 0.427646 0.000000 0.000000
O O14 0.520187 0.933568 0.750000
O O15 0.570309 0.000000 0.500000
O O16 0.261748 0.197755 0.750000
O O17 0.213555 0.213555 0.000000
#
# Coordination Sequence:
#
# PCOD9586687 Si02
#       6
#    12  12  12  12  12  12
#     4  10  20  33  49  72  98 127 160 197 238 284
#     4   9  19  33  51  73  98 127 159 194 237 283
#     4  10  19  33  51  72  98 128 159 196 238 284
#     4  11  21  33  49  71  97 128 161 197 239 283
#     4  10  19  32  49  72  98 126 159 195 235 282
#     4  10  20  32  49  72  99 128 160 195 236 282
#
# _framework density 16.065218000000002
#
# number of rings (size 3 to 8) (size 9 to 14) (size 15 to 20)
#    0.000    2.000    0.000    5.500    0.000    5.333 
#    0.000    0.000    0.000    1.000    0.000    2.333 
#    0.000    0.000    0.000    0.000    0.000    0.000 
#
# Total GULP energy -401904.772349 kJ/mol
# GULP energy per Si atom -5582.010727 kJ/mol
# Density = 1.602865 g / cm^3
# Si number density = 16.065218 Si / 1000 Ang^3
#
#
#
# Elastic Constant Matrix: (Units=GPa)
#
#
# Indices 1 2 3 4 5 6 
#
# 1 123.8911 84.4202 50.7455 0.0000 0.0000 0.0000
# 2 84.4202 123.8911 50.7455 0.0000 0.0000 0.0000
# 3 50.7455 50.7455 71.4883 0.0000 0.0000 0.0000
# 4 0.0000 0.0000 0.0000 25.2592 0.0000 0.0000
# 5 0.0000 0.0000 0.0000 0.0000 25.2592 0.0000
# 6 0.0000 0.0000 0.0000 0.0000 0.0000 19.7354
#
#
#
# Elastic Compliance Matrix: (Units=1/GPa)
#
#
# Indices 1 2 3 4 5 6 
#
# 1 0.016337 -0.008998 -0.005209 0.000000 0.000000 0.000000
# 2 -0.008998 0.016337 -0.005209 0.000000 0.000000 0.000000
# 3 -0.005209 -0.005209 0.021384 0.000000 0.000000 0.000000
# 4 0.000000 0.000000 0.000000 0.039590 0.000000 0.000000
# 5 0.000000 0.000000 0.000000 0.000000 0.039590 0.000000
# 6 0.000000 0.000000 0.000000 0.000000 0.000000 0.050670
#
#
# Mechanical properties :
#
#
# Convention : Reuss Voigt Hill
#
# Bulk Modulus (GPa) = 65.68593 76.78809 71.23701
# Shear Modulus (GPa) = 21.94768 22.94138 22.44453
#
# Velocity S-wave (km/s) = 3.70017 3.78301 3.74182
# Velocity P-wave (km/s) = 7.69616 8.18432 7.94399
#
# Compressibility (1/GPa) = 0.01522396
#
# Stress axis : x y z
#
# Youngs Moduli (GPa) = 61.21151 61.21151 46.76469
#
# Poissons Ratio (x) = 0.55080 0.24360
# Poissons Ratio (y) = 0.55080 0.24360
# Poissons Ratio (z) = 0.31886 0.31886
#
# Static dielectric constant tensor:
#      x y z
#    x 1.526130 0.000000 0.000000 
#    y 0.000000 1.526130 0.000000 
#    z 0.000000 0.000000 1.537230 
# 
# From -- ./inp_files/1211.got.cif
#   From: 2010.05.17/outbox.cif.g08.bks.cpg/sg190_1_cif.got.tgz:1211.got - 2010.05.20 12:16:56.
