data_PCOD9586404
_publ_section_title
;
Structure prediction by ZEFSAII (Michael W. Deem and Ramdas Pophale) SiO2 
 PCOD9586404
Probable space group: P -6 2 M
;
_chemical_formula_sum "Si O2"
_cell_formula_units_Z 60
_cell_length_a 14.392701
_cell_length_b 14.392701
_cell_length_c 17.206990
_cell_angle_alpha 90.000000
_cell_angle_beta 90.000000
_cell_angle_gamma 120.000000
_cell_volume 3086.882826
_symmetry_space_group_name_H-M "P -6 2 M"
_symmetry_group_IT_number 189
_symmetry_cell_setting 'hexagonal'
loop_
_space_group_symop_operation_xyz
x,y,z
-x+y,-x,-z
-y,x-y,z
x,y,-z
-x+y,-x,z
-y,x-y,-z
x-y,-y,-z
-x,-x+y,-z
y,x,-z
y,x,z
x-y,-y,z
-x,-x+y,z
loop_
_atom_site_type_symbol
_atom_site_label
_atom_site_fract_x
_atom_site_fract_y
_atom_site_fract_z
Si Si1 0.454911 0.123801 0.406616
Si Si2 0.539754 0.874323 0.655941
Si Si3 0.826940 0.546747 0.834570
Si Si4 0.612290 0.489491 0.910929
Si Si5 0.879836 0.119090 0.910232
O O1 0.457955 0.127136 0.500000
O O2 0.570201 0.144034 0.376284
O O3 0.434980 0.218981 0.377190
O O4 0.368170 0.000000 0.383187
O O5 0.530890 0.856692 0.748542
O O6 0.626459 0.000000 0.639057
O O7 0.700845 0.496444 0.851605
O O8 0.870709 0.493300 0.894694
O O9 0.874488 0.670042 0.855146
O O10 0.581554 0.581554 0.899589
O O11 0.647692 0.494006 0.000000
O O12 0.000000 0.202945 0.888424
O O13 0.860602 0.000000 0.908158
O O14 0.861904 0.139769 0.000000
#
# Coordination Sequence:
#
# PCOD9586404 Si02
#       5
#    12  12  12  12  12
#     4  10  22  41  65  92 121 154 193 237 286 346
#     4  11  23  39  62  93 126 158 192 236 294 356
#     4  12  23  37  55  80 115 151 188 234 289 345
#     4  11  23  38  56  78 108 151 201 248 291 337
#     4  10  20  35  55  78 106 145 196 250 297 339
#
# _framework density 19.437085
#
# number of rings (size 3 to 8) (size 9 to 14) (size 15 to 20)
#    0.000    1.200    0.000    7.000    0.000    8.400 
#    0.000    0.000    0.000    0.400    0.000    0.000 
#    0.000    0.000    0.000    0.000    0.000    0.000 
#
# Total GULP energy -335250.188340 kJ/mol
# GULP energy per Si atom -5587.503139 kJ/mol
# Density = 1.939285 g / cm^3
# Si number density = 19.437085 Si / 1000 Ang^3
#
#
#
# Elastic Constant Matrix: (Units=GPa)
#
#
# Indices 1 2 3 4 5 6 
#
# 1 121.9922 64.3672 36.0739 0.0000 0.0000 0.0000
# 2 64.3672 121.9922 36.0739 0.0000 0.0000 0.0000
# 3 36.0739 36.0739 53.1354 0.0000 0.0000 0.0000
# 4 0.0000 0.0000 0.0000 9.7877 0.0000 0.0000
# 5 0.0000 0.0000 0.0000 0.0000 9.7877 0.0000
# 6 0.0000 0.0000 0.0000 0.0000 0.0000 28.8125
#
#
#
# Elastic Compliance Matrix: (Units=1/GPa)
#
#
# Indices 1 2 3 4 5 6 
#
# 1 0.012316 -0.005037 -0.004942 0.000000 0.000000 0.000000
# 2 -0.005037 0.012316 -0.004942 0.000000 0.000000 0.000000
# 3 -0.004942 -0.004942 0.025530 0.000000 0.000000 0.000000
# 4 0.000000 0.000000 0.000000 0.102169 0.000000 0.000000
# 5 0.000000 0.000000 0.000000 0.000000 0.102169 0.000000
# 6 0.000000 0.000000 0.000000 0.000000 0.000000 0.034707
#
#
# Mechanical properties :
#
#
# Convention : Reuss Voigt Hill
#
# Bulk Modulus (GPa) = 49.21055 63.34999 56.28027
# Shear Modulus (GPa) = 15.34574 20.38458 17.86516
#
# Velocity S-wave (km/s) = 2.81287 3.24195 3.03500
# Velocity P-wave (km/s) = 5.99353 6.83204 6.42648
#
# Compressibility (1/GPa) = 0.02032084
#
# Stress axis : x y z
#
# Youngs Moduli (GPa) = 81.19270 81.19270 39.16960
#
# Poissons Ratio (x) = 0.40898 0.19357
# Poissons Ratio (y) = 0.40898 0.19357
# Poissons Ratio (z) = 0.40125 0.40125
#
# Static dielectric constant tensor:
#      x y z
#    x 1.714250 0.000000 0.000000 
#    y 0.000000 1.714250 0.000000 
#    z 0.000000 0.000000 1.665830 
# 
# From -- ./inp_files/2516.got.cif
#   From: 2010.05.17/outbox.cif.g08.bks.cpg/sg189_2_cif.got.tgz:2516.got - 2010.05.20 12:14:34.
