data_PCOD9586067
_publ_section_title
;
Structure prediction by ZEFSAII (Michael W. Deem and Ramdas Pophale) SiO2 
 PCOD9586067
Probable space group: P -6 C 2
;
_chemical_formula_sum "Si O2"
_cell_formula_units_Z 74
_cell_length_a 12.068236
_cell_length_b 12.068236
_cell_length_c 27.479101
_cell_angle_alpha 90.000000
_cell_angle_beta 90.000000
_cell_angle_gamma 120.000000
_cell_volume 3465.937611
_symmetry_space_group_name_H-M "P -6 C 2"
_symmetry_group_IT_number 188
_symmetry_cell_setting 'hexagonal'
loop_
_space_group_symop_operation_xyz
x,y,z
-x+y,-x,1/2-z
-y,x-y,z
x,y,1/2-z
-x+y,-x,z
-y,x-y,1/2-z
-y,-x,-z
-x+y,y,-z
x,x-y,-z
-x+y,y,1/2+z
x,x-y,1/2+z
-y,-x,1/2+z
loop_
_atom_site_type_symbol
_atom_site_label
_atom_site_fract_x
_atom_site_fract_y
_atom_site_fract_z
Si Si1 0.666667 0.333334 0.558179
Si Si2 0.711026 0.925127 0.695253
Si Si3 0.647376 0.576561 0.581931
Si Si4 0.738837 0.739174 0.009937
Si Si5 0.696001 0.204401 0.250000
Si Si6 0.284990 0.073414 0.673945
Si Si7 0.353218 0.916683 0.399017
Si Si8 0.333334 0.666667 0.942015
O O1 0.666668 0.333334 0.500000
O O2 0.684792 0.467437 0.575665
O O3 0.668305 0.930448 0.750000
O O4 0.746098 0.813588 0.692400
O O5 0.609879 0.902336 0.653572
O O6 0.835105 0.061571 0.683195
O O7 0.646375 0.635244 0.529582
O O8 0.746987 0.684448 0.617926
O O9 0.506018 0.511050 0.603788
O O10 0.681645 0.692387 0.063528
O O11 0.874711 0.749421 0.000000
O O12 0.746951 0.873475 0.000000
O O13 0.561785 0.203786 0.250000
O O14 0.718724 0.137527 0.296380
O O15 0.311627 0.779399 0.422293
O O16 0.333334 0.666667 0.000000
#
# Coordination Sequence:
#
# PCOD9586067 Si02
#       8
#     4  12  12  12   6  12  12   4
#     4  12  24  42  69 106 149 187 228 294 372 445
#     4  12  25  46  70 103 141 191 246 303 369 436
#     4  12  26  42  70 103 142 184 235 302 374 443
#     4  12  24  44  68 101 137 180 231 297 366 444
#     4  10  26  42  72 108 146 188 242 298 376 444
#     4  12  25  47  72 105 143 196 248 308 371 451
#     4  12  26  44  70 101 136 185 239 294 369 441
#     4  12  24  48  73  95 133 186 240 285 346 452
#
# _framework density 21.350645
#
# number of rings (size 3 to 8) (size 9 to 14) (size 15 to 20)
#    0.162    0.000    1.622    9.730    4.541    0.000 
#    0.000    4.054    0.000    0.000    0.000    0.000 
#    0.000    0.000    0.000    0.000    0.000    0.000 
#
# Total GULP energy -414660.216877 kJ/mol
# GULP energy per Si atom -5603.516444 kJ/mol
# Density = 2.130205 g / cm^3
# Si number density = 21.350645 Si / 1000 Ang^3
#
#
#
# Elastic Constant Matrix: (Units=GPa)
#
#
# Indices 1 2 3 4 5 6 
#
# 1 116.2992 41.9354 54.7282 -0.0006 0.0011 0.0000
# 2 41.9354 116.2989 54.7285 0.0021 -0.0012 -0.0002
# 3 54.7282 54.7285 160.6294 0.0003 0.0001 0.0000
# 4 -0.0006 0.0021 0.0003 41.6885 -0.0035 0.0011
# 5 0.0011 -0.0012 0.0001 -0.0035 41.6918 0.0013
# 6 0.0000 -0.0002 0.0000 0.0011 0.0013 37.1830
#
#
#
# Elastic Compliance Matrix: (Units=1/GPa)
#
#
# Indices 1 2 3 4 5 6 
#
# 1 0.010858 -0.002589 -0.002817 0.000000 0.000000 0.000000
# 2 -0.002589 0.010858 -0.002817 -0.000001 0.000000 0.000000
# 3 -0.002817 -0.002817 0.008145 0.000000 0.000000 0.000000
# 4 0.000000 -0.000001 0.000000 0.023987 0.000002 -0.000001
# 5 0.000000 0.000000 0.000000 0.000002 0.023986 -0.000001
# 6 0.000000 0.000000 0.000000 -0.000001 -0.000001 0.026894
#
#
# Mechanical properties :
#
#
# Convention : Reuss Voigt Hill
#
# Bulk Modulus (GPa) = 74.55188 77.33462 75.94325
# Shear Modulus (GPa) = 39.79408 40.23503 40.01455
#
# Velocity S-wave (km/s) = 4.32190 4.34578 4.33386
# Velocity P-wave (km/s) = 7.73943 7.84098 7.79037
#
# Compressibility (1/GPa) = 0.01341348
#
# Stress axis : x y z
#
# Youngs Moduli (GPa) = 92.09866 92.09813 122.77174
#
# Poissons Ratio (x) = 0.23849 0.34587
# Poissons Ratio (y) = 0.23849 0.34587
# Poissons Ratio (z) = 0.25946 0.25946
#
# Static dielectric constant tensor:
#      x y z
#    x 1.758430 0.000000 0.000000 
#    y 0.000000 1.758430 0.000000 
#    z 0.000000 0.000000 1.770870 
# 
# From -- ./inp_files/4536.got.cif
#   From: 2010.05.17/outbox.cif.g08.bks.cpg/sg188_3_cif.got.tgz:4536.got - 2010.05.20 12:11:46.
