data_PCOD9586712
_publ_section_title
;
Structure prediction by ZEFSAII (Michael W. Deem and Ramdas Pophale) SiO2 
 PCOD9586712
Probable space group: P -6 2 C
;
_chemical_formula_sum "Si O2"
_cell_formula_units_Z 60
_cell_length_a 20.746402
_cell_length_b 20.746402
_cell_length_c 9.170484
_cell_angle_alpha 90.000000
_cell_angle_beta 90.000000
_cell_angle_gamma 120.000000
_cell_volume 3418.286556
_symmetry_space_group_name_H-M "P -6 2 C"
_symmetry_group_IT_number 190
_symmetry_cell_setting 'hexagonal'
loop_
_space_group_symop_operation_xyz
x,y,z
-x+y,-x,1/2-z
-y,x-y,z
x,y,1/2-z
-x+y,-x,z
-y,x-y,1/2-z
x-y,-y,-z
-x,-x+y,-z
y,x,-z
y,x,1/2+z
x-y,-y,1/2+z
-x,-x+y,1/2+z
loop_
_atom_site_type_symbol
_atom_site_label
_atom_site_fract_x
_atom_site_fract_y
_atom_site_fract_z
Si Si1 0.505390 0.425414 0.423274
Si Si2 0.081504 0.434532 0.925718
Si Si3 0.000000 0.176783 0.500000
Si Si4 0.028877 0.095800 0.750000
Si Si5 0.863315 0.198628 0.579876
Si Si6 0.080814 0.716559 0.574787
O O1 0.499395 0.432098 0.250000
O O2 0.465477 0.465477 0.500000
O O3 0.592741 0.477263 0.457049
O O4 0.452939 0.338320 0.456686
O O5 0.075740 0.423286 0.750000
O O6 0.123725 0.396375 0.998027
O O7 0.000000 0.393119 0.000000
O O8 0.962388 0.109127 0.386188
O O9 0.937320 0.191729 0.567052
O O10 0.077815 0.055109 0.750000
O O11 0.846915 0.200259 0.750000
O O12 0.795892 0.130554 0.497621
O O13 0.075400 0.721616 0.750000
O O14 0.000000 0.677903 0.500000
#
# Coordination Sequence:
#
# PCOD9586712 Si02
#       6
#    12  12   6   6  12  12
#     4   8  16  32  55  83 108 137 173 217 268 335
#     4  10  19  33  57  83 113 145 183 227 284 348
#     4  12  24  42  60  82 116 144 198 266 314 360
#     4  10  24  44  64  78  98 146 208 258 310 376
#     4  12  25  38  55  85 120 157 197 247 306 359
#     4  10  21  38  59  84 116 151 193 241 299 359
#
# _framework density 17.552654
#
# number of rings (size 3 to 8) (size 9 to 14) (size 15 to 20)
#    0.200    1.600    2.000    2.400    2.800    3.200 
#    0.000    0.000    0.000    0.800    0.000    2.800 
#    0.000    0.000    0.000    0.000    0.000    0.000 
#
# Total GULP energy -334251.086422 kJ/mol
# GULP energy per Si atom -5570.851440 kJ/mol
# Density = 1.751270 g / cm^3
# Si number density = 17.552654 Si / 1000 Ang^3
#
#
#
# Elastic Constant Matrix: (Units=GPa)
#
#
# Indices 1 2 3 4 5 6 
#
# 1 75.5330 34.6465 29.3821 0.0000 0.0000 0.0000
# 2 34.6465 75.5330 29.3821 0.0000 0.0000 0.0000
# 3 29.3821 29.3821 93.4847 0.0000 0.0000 0.0000
# 4 0.0000 0.0000 0.0000 20.5351 0.0000 0.0000
# 5 0.0000 0.0000 0.0000 0.0000 20.5351 0.0000
# 6 0.0000 0.0000 0.0000 0.0000 0.0000 20.4433
#
#
#
# Elastic Compliance Matrix: (Units=1/GPa)
#
#
# Indices 1 2 3 4 5 6 
#
# 1 0.017681 -0.006777 -0.003427 0.000000 0.000000 0.000000
# 2 -0.006777 0.017681 -0.003427 0.000000 0.000000 0.000000
# 3 -0.003427 -0.003427 0.012851 0.000000 0.000000 0.000000
# 4 0.000000 0.000000 0.000000 0.048697 0.000000 0.000000
# 5 0.000000 0.000000 0.000000 0.000000 0.048697 0.000000
# 6 0.000000 0.000000 0.000000 0.000000 0.000000 0.048916
#
#
# Mechanical properties :
#
#
# Convention : Reuss Voigt Hill
#
# Bulk Modulus (GPa) = 47.73109 47.93024 47.83067
# Shear Modulus (GPa) = 21.85608 22.37868 22.11738
#
# Velocity S-wave (km/s) = 3.53253 3.57451 3.55358
# Velocity P-wave (km/s) = 6.62499 6.66348 6.64426
#
# Compressibility (1/GPa) = 0.02095070
#
# Stress axis : x y z
#
# Youngs Moduli (GPa) = 56.55811 56.55811 77.81375
#
# Poissons Ratio (x) = 0.38329 0.26667
# Poissons Ratio (y) = 0.38329 0.26667
# Poissons Ratio (z) = 0.19383 0.19383
#
# Static dielectric constant tensor:
#      x y z
#    x 1.606580 0.000000 0.000000 
#    y 0.000000 1.606580 0.000000 
#    z 0.000000 0.000000 1.153830 
# 
# From -- ./inp_files/975.got.cif
#   From: 2010.05.17/outbox.cif.g08.bks.cpg/sg190_1_cif.got.tgz:975.got - 2010.05.20 12:16:56.
