data_PCOD9586121
_publ_section_title
;
Structure prediction by ZEFSAII (Michael W. Deem and Ramdas Pophale) SiO2 
 PCOD9586121
Probable space group: P -6 2 M
;
_chemical_formula_sum "Si O2"
_cell_formula_units_Z 72
_cell_length_a 24.244873
_cell_length_b 24.244873
_cell_length_c 7.692433
_cell_angle_alpha 90.000000
_cell_angle_beta 90.000000
_cell_angle_gamma 120.000000
_cell_volume 3915.923338
_symmetry_space_group_name_H-M "P -6 2 M"
_symmetry_group_IT_number 189
_symmetry_cell_setting 'hexagonal'
loop_
_space_group_symop_operation_xyz
x,y,z
-x+y,-x,-z
-y,x-y,z
x,y,-z
-x+y,-x,z
-y,x-y,-z
x-y,-y,-z
-x,-x+y,-z
y,x,-z
y,x,z
x-y,-y,z
-x,-x+y,z
loop_
_atom_site_type_symbol
_atom_site_label
_atom_site_fract_x
_atom_site_fract_y
_atom_site_fract_z
Si Si1 0.479232 0.341922 0.198905
Si Si2 0.000000 0.279098 0.205021
Si Si3 0.484641 0.220549 0.296418
Si Si4 0.408125 0.000000 0.711972
Si Si5 0.802066 0.661938 0.211648
Si Si6 0.471323 0.600286 0.295995
Si Si7 0.664374 0.928154 0.212605
O O1 0.493079 0.283566 0.206410
O O2 0.536382 0.404408 0.280965
O O3 0.407863 0.312863 0.273082
O O4 0.476356 0.358919 0.000000
O O5 0.068140 0.292596 0.274411
O O6 0.000000 0.345118 0.228304
O O7 0.000000 0.266249 0.000000
O O8 0.498277 0.236971 0.500000
O O9 0.410320 0.166896 0.275442
O O10 0.525393 0.189665 0.225355
O O11 0.408347 0.000000 0.500000
O O12 0.471108 0.063189 0.774668
O O13 0.873456 0.680316 0.264538
O O14 0.799460 0.659703 0.000000
O O15 0.485242 0.614395 0.500000
O O16 0.712251 0.000000 0.268335
O O17 0.662795 0.927423 0.000000
#
# Coordination Sequence:
#
# PCOD9586121 Si02
#       7
#    12   6  12   6  12  12  12
#     4  10  21  34  51  71  93 121 158 204 247 293
#     4  10  18  28  46  74 102 126 154 195 242 287
#     4  10  19  34  53  68  90 123 158 197 243 294
#     4  10  20  34  50  72 100 128 160 195 238 297
#     4   9  17  29  47  71  98 124 155 195 237 282
#     4  10  21  35  51  71  96 126 159 199 244 294
#     4   8  15  29  47  67  92 122 155 190 230 276
#
# _framework density 18.386468000000001
#
# number of rings (size 3 to 8) (size 9 to 14) (size 15 to 20)
#    0.000    2.500    1.667    2.000    1.167    2.000 
#    1.000    0.000    0.000    4.500    0.000    0.000 
#    0.833    0.000    2.500    0.000    0.000    0.000 
#
# Total GULP energy -401476.703928 kJ/mol
# GULP energy per Si atom -5576.065332 kJ/mol
# Density = 1.834462 g / cm^3
# Si number density = 18.386468 Si / 1000 Ang^3
#
#
#
# Elastic Constant Matrix: (Units=GPa)
#
#
# Indices 1 2 3 4 5 6 
#
# 1 105.9413 65.2901 -8.5287 0.0000 0.0000 0.0000
# 2 65.2901 105.9413 -8.5287 0.0000 0.0000 0.0000
# 3 -8.5287 -8.5287 29.3217 0.0000 0.0000 0.0000
# 4 0.0000 0.0000 0.0000 26.0208 0.0000 0.0000
# 5 0.0000 0.0000 0.0000 0.0000 26.0208 0.0000
# 6 0.0000 0.0000 0.0000 0.0000 0.0000 20.3256
#
#
#
# Elastic Compliance Matrix: (Units=1/GPa)
#
#
# Indices 1 2 3 4 5 6 
#
# 1 0.015307 -0.009293 0.001749 0.000000 0.000000 0.000000
# 2 -0.009293 0.015307 0.001749 0.000000 0.000000 0.000000
# 3 0.001749 0.001749 0.035122 0.000000 0.000000 0.000000
# 4 0.000000 0.000000 0.000000 0.038431 0.000000 0.000000
# 5 0.000000 0.000000 0.000000 0.000000 0.038431 0.000000
# 6 0.000000 0.000000 0.000000 0.000000 0.000000 0.049199
#
#
# Mechanical properties :
#
#
# Convention : Reuss Voigt Hill
#
# Bulk Modulus (GPa) = 18.46788 37.51887 27.99338
# Shear Modulus (GPa) = 22.58015 27.33823 24.95919
#
# Velocity S-wave (km/s) = 3.50821 3.86017 3.68839
# Velocity P-wave (km/s) = 5.14549 6.34964 5.77901
#
# Compressibility (1/GPa) = 0.05414807
#
# Stress axis : x y z
#
# Youngs Moduli (GPa) = 65.33005 65.33005 28.47216
#
# Poissons Ratio (x) = 0.60708 -0.04981
# Poissons Ratio (y) = 0.60708 -0.04981
# Poissons Ratio (z) = -0.11429 -0.11429
#
# Static dielectric constant tensor:
#      x y z
#    x 1.632530 0.000000 0.000000 
#    y 0.000000 1.632530 0.000000 
#    z 0.000000 0.000000 1.659420 
# 
# From -- ./inp_files/1364.got.cif
#   From: 2010.05.17/outbox.cif.g08.bks.cpg/sg189_1_cif.got.tgz:1364.got - 2010.05.20 12:14:34.
