data_PCOD9586083
_publ_section_title
;
Structure prediction by ZEFSAII (Michael W. Deem and Ramdas Pophale) SiO2 
 PCOD9586083
Probable space group: P -6 C 2
;
_chemical_formula_sum "Si O2"
_cell_formula_units_Z 84
_cell_length_a 17.694132
_cell_length_b 17.694132
_cell_length_c 15.048504
_cell_angle_alpha 90.000000
_cell_angle_beta 90.000000
_cell_angle_gamma 120.000000
_cell_volume 4080.209713
_symmetry_space_group_name_H-M "P -6 C 2"
_symmetry_group_IT_number 188
_symmetry_cell_setting 'hexagonal'
loop_
_space_group_symop_operation_xyz
x,y,z
-x+y,-x,1/2-z
-y,x-y,z
x,y,1/2-z
-x+y,-x,z
-y,x-y,1/2-z
-y,-x,-z
-x+y,y,-z
x,x-y,-z
-x+y,y,1/2+z
x,x-y,1/2+z
-y,-x,1/2+z
loop_
_atom_site_type_symbol
_atom_site_label
_atom_site_fract_x
_atom_site_fract_y
_atom_site_fract_z
Si Si1 0.820153 0.300459 0.250000
Si Si2 0.815387 0.019278 0.985989
Si Si3 0.013791 0.575995 0.410524
Si Si4 0.520564 0.884334 0.647878
Si Si5 0.627713 0.499584 0.750000
Si Si6 0.380722 0.326371 0.584903
Si Si7 0.095019 0.226933 0.651764
Si Si8 0.229722 0.820067 0.597604
O O1 0.822924 0.393637 0.250000
O O2 0.728244 0.208403 0.250000
O O3 0.873846 0.307810 0.340410
O O4 0.762442 0.065466 0.953634
O O5 0.806456 0.953451 0.908329
O O6 0.915438 0.084563 0.000000
O O7 0.781773 0.978814 0.083373
O O8 0.071899 0.528356 0.402213
O O9 0.095356 0.674875 0.401711
O O10 0.940194 0.538995 0.333058
O O11 0.958776 0.570896 0.499156
O O12 0.494664 0.876345 0.750000
O O13 0.514138 0.793581 0.617443
O O14 0.620366 0.960592 0.633703
O O15 0.067495 0.187728 0.750000
O O16 0.156768 0.330071 0.661180
O O17 0.189658 0.810342 0.500000
#
# Coordination Sequence:
#
# PCOD9586083 Si02
#       8
#     6  12  12  12   6  12  12  12
#     4  12  29  48  75 107 147 191 253 313 400 462
#     4  11  25  44  65 100 138 173 235 308 355 431
#     4  12  25  46  73 107 148 197 250 301 381 447
#     4  12  23  42  70 104 144 192 243 297 365 446
#     4  12  29  50  73 109 147 193 247 327 388 470
#     4  12  23  44  71 103 137 190 239 303 370 452
#     4  11  22  43  69  97 134 182 233 282 365 433
#     4  12  23  40  71 103 143 189 238 295 347 432
#
# _framework density 20.587177000000001
#
# number of rings (size 3 to 8) (size 9 to 14) (size 15 to 20)
#    0.000    0.286    8.571    1.000    5.000    0.571 
#    4.286    0.000    0.000    1.714    0.000    0.000 
#    0.000    0.000    0.000    0.000    0.000    0.000 
#
# Total GULP energy -467772.008518 kJ/mol
# GULP energy per Si atom -5568.714387 kJ/mol
# Density = 2.054032 g / cm^3
# Si number density = 20.587177 Si / 1000 Ang^3
#
#
#
# Elastic Constant Matrix: (Units=GPa)
#
#
# Indices 1 2 3 4 5 6 
#
# 1 99.4114 61.1387 49.4477 -0.0015 0.0000 0.0000
# 2 61.1387 99.4114 49.4477 0.0015 0.0000 0.0000
# 3 49.4477 49.4477 180.9406 0.0000 0.0000 0.0000
# 4 -0.0015 0.0015 0.0000 9.5121 0.0000 0.0000
# 5 0.0000 0.0000 0.0000 0.0000 9.5121 -0.0015
# 6 0.0000 0.0000 0.0000 0.0000 -0.0015 19.1364
#
#
#
# Elastic Compliance Matrix: (Units=1/GPa)
#
#
# Indices 1 2 3 4 5 6 
#
# 1 0.016809 -0.009319 -0.002047 0.000004 0.000000 0.000000
# 2 -0.009319 0.016809 -0.002047 -0.000004 0.000000 0.000000
# 3 -0.002047 -0.002047 0.006645 0.000000 0.000000 0.000000
# 4 0.000004 -0.000004 0.000000 0.105129 0.000000 0.000000
# 5 0.000000 0.000000 0.000000 0.000000 0.105129 0.000008
# 6 0.000000 0.000000 0.000000 0.000000 0.000008 0.052257
#
#
# Mechanical properties :
#
#
# Convention : Reuss Voigt Hill
#
# Bulk Modulus (GPa) = 74.42042 77.75907 76.08974
# Shear Modulus (GPa) = 14.96640 22.28075 18.62357
#
# Velocity S-wave (km/s) = 2.69918 3.29335 3.01095
# Velocity P-wave (km/s) = 6.77801 7.23285 7.00912
#
# Compressibility (1/GPa) = 0.01343717
#
# Stress axis : x y z
#
# Youngs Moduli (GPa) = 59.49268 59.49268 150.48181
#
# Poissons Ratio (x) = 0.55444 0.30799
# Poissons Ratio (y) = 0.55444 0.30799
# Poissons Ratio (z) = 0.12176 0.12176
#
# Static dielectric constant tensor:
#      x y z
#    x 1.800180 0.000000 0.000000 
#    y 0.000000 1.800180 0.000000 
#    z 0.000000 0.000000 1.865730 
# 
# From -- ./inp_files/2645.got.cif
#   From: 2010.05.17/outbox.cif.g08.bks.cpg/sg188_2_cif.got.tgz:2645.got - 2010.05.20 12:11:46.
