data_PCOD9586300
_publ_section_title
;
Structure prediction by ZEFSAII (Michael W. Deem and Ramdas Pophale) SiO2 
 PCOD9586300
Probable space group: P -6 2 M
;
_chemical_formula_sum "Si O2"
_cell_formula_units_Z 60
_cell_length_a 18.520964
_cell_length_b 18.520964
_cell_length_c 10.650639
_cell_angle_alpha 90.000000
_cell_angle_beta 90.000000
_cell_angle_gamma 120.000000
_cell_volume 3163.978120
_symmetry_space_group_name_H-M "P -6 2 M"
_symmetry_group_IT_number 189
_symmetry_cell_setting 'hexagonal'
loop_
_space_group_symop_operation_xyz
x,y,z
-x+y,-x,-z
-y,x-y,z
x,y,-z
-x+y,-x,z
-y,x-y,-z
x-y,-y,-z
-x,-x+y,-z
y,x,-z
y,x,z
x-y,-y,z
-x,-x+y,z
loop_
_atom_site_type_symbol
_atom_site_label
_atom_site_fract_x
_atom_site_fract_y
_atom_site_fract_z
Si Si1 0.623718 0.473960 0.000000
Si Si2 0.625952 0.850703 0.253707
Si Si3 0.821465 0.532230 0.000000
Si Si4 0.523867 0.149450 0.500000
Si Si5 0.089006 0.431669 0.749889
Si Si6 0.527381 0.820542 0.500000
Si Si7 0.096935 0.902638 0.351493
O O1 0.720799 0.496200 0.000000
O O2 0.551389 0.378568 0.000000
O O3 0.615586 0.515920 0.873872
O O4 0.589584 0.863405 0.123323
O O5 0.592734 0.752296 0.252363
O O6 0.582428 0.863635 0.376113
O O7 0.724968 0.891273 0.275539
O O8 0.483590 0.098421 0.374182
O O9 0.620272 0.178330 0.500000
O O10 0.501045 0.223243 0.500000
O O11 0.000000 0.349671 0.750254
O O12 0.113672 0.895122 0.500000
O O13 0.000000 0.876670 0.341354
O O14 0.156520 0.000000 0.315749
#
# Coordination Sequence:
#
# PCOD9586300 Si02
#       7
#     6  12   6   6  12   6  12
#     4  10  20  36  56  77 108 144 190 233 266 318
#     4  10  20  36  57  82 113 146 186 234 283 341
#     4  10  21  36  58  83 113 154 197 237 282 326
#     4  10  20  32  52  75 104 138 180 227 270 324
#     4  10  20  34  52  77 105 141 182 224 272 323
#     4  10  19  34  52  77 109 144 187 233 282 326
#     4  10  20  37  62  90 116 146 186 236 292 356
#
# _framework density 18.963469
#
# number of rings (size 3 to 8) (size 9 to 14) (size 15 to 20)
#    0.000    2.000    1.000    3.000    0.000    0.800 
#    0.000   12.000    0.000    0.000    0.000    1.400 
#    0.000    0.000    0.000    0.000    0.000    0.000 
#
# Total GULP energy -334495.261230 kJ/mol
# GULP energy per Si atom -5574.921021 kJ/mol
# Density = 1.892031 g / cm^3
# Si number density = 18.963469 Si / 1000 Ang^3
#
#
#
# Elastic Constant Matrix: (Units=GPa)
#
#
# Indices 1 2 3 4 5 6 
#
# 1 53.8992 5.3587 25.3170 0.0000 0.0000 0.0000
# 2 5.3587 53.8992 25.3170 0.0000 0.0000 0.0000
# 3 25.3170 25.3170 139.2036 0.0000 0.0000 0.0000
# 4 0.0000 0.0000 0.0000 -18.5081 0.0000 0.0000
# 5 0.0000 0.0000 0.0000 0.0000 -18.5081 0.0000
# 6 0.0000 0.0000 0.0000 0.0000 0.0000 24.2703
#
#
#
# Elastic Compliance Matrix: (Units=1/GPa)
#
#
# Indices 1 2 3 4 5 6 
#
# 1 0.020291 -0.000310 -0.003634 0.000000 0.000000 0.000000
# 2 -0.000310 0.020291 -0.003634 0.000000 0.000000 0.000000
# 3 -0.003634 -0.003634 0.008505 0.000000 0.000000 0.000000
# 4 0.000000 0.000000 0.000000 -0.054030 0.000000 0.000000
# 5 0.000000 0.000000 0.000000 0.000000 -0.054030 0.000000
# 6 0.000000 0.000000 0.000000 0.000000 0.000000 0.041203
#
#
# Mechanical properties :
#
#
# Convention : Reuss Voigt Hill
#
# Bulk Modulus (GPa) = 29.47166 39.88747 34.67957
# Shear Modulus (GPa) = 575.00198 10.18478 292.59338
#
# Velocity S-wave (km/s) = 17.43198 2.32000 12.43496
# Velocity P-wave (km/s) = 20.51195 5.31564 14.98326
#
# Compressibility (1/GPa) = 0.03393090
#
# Stress axis : x y z
#
# Youngs Moduli (GPa) = 49.28329 49.28329 117.57107
#
# Poissons Ratio (x) = 0.01530 0.42723
# Poissons Ratio (y) = 0.01530 0.42723
# Poissons Ratio (z) = 0.17909 0.17909
#
# Static dielectric constant tensor:
#      x y z
#    x 1.644120 0.000000 0.000000 
#    y 0.000000 1.644120 0.000000 
#    z 0.000000 0.000000 1.675800 
# 
# From -- ./inp_files/2010.got.cif
#   From: 2010.05.17/outbox.cif.g08.bks.cpg/sg189_2_cif.got.tgz:2010.got - 2010.05.20 12:14:34.
