data_PCOD9586266
_publ_section_title
;
Structure prediction by ZEFSAII (Michael W. Deem and Ramdas Pophale) SiO2 
 PCOD9586266
Probable space group: P -6 2 M
;
_chemical_formula_sum "Si O2"
_cell_formula_units_Z 70
_cell_length_a 14.403101
_cell_length_b 14.403101
_cell_length_c 18.913029
_cell_angle_alpha 90.000000
_cell_angle_beta 90.000000
_cell_angle_gamma 120.000000
_cell_volume 3397.846320
_symmetry_space_group_name_H-M "P -6 2 M"
_symmetry_group_IT_number 189
_symmetry_cell_setting 'hexagonal'
loop_
_space_group_symop_operation_xyz
x,y,z
-x+y,-x,-z
-y,x-y,z
x,y,-z
-x+y,-x,z
-y,x-y,-z
x-y,-y,-z
-x,-x+y,-z
y,x,-z
y,x,z
x-y,-y,z
-x,-x+y,z
loop_
_atom_site_type_symbol
_atom_site_label
_atom_site_fract_x
_atom_site_fract_y
_atom_site_fract_z
Si Si1 0.788643 0.127132 0.695509
Si Si2 0.742584 0.869399 0.000000
Si Si3 0.582855 0.709458 0.421224
Si Si4 0.781061 0.124366 0.852293
Si Si5 0.567823 0.127709 0.685739
Si Si6 0.333334 0.666668 0.918086
Si Si7 0.123236 0.556286 0.158023
O O1 0.860523 0.196299 0.630736
O O2 0.833296 0.167704 0.774933
O O3 0.683904 0.139731 0.684260
O O4 0.745877 0.000000 0.691171
O O5 0.674025 0.832939 0.073170
O O6 0.823243 0.823243 0.000000
O O7 0.806921 0.000000 0.000000
O O8 0.571930 0.744819 0.500000
O O9 0.630493 0.630493 0.429122
O O10 0.470743 0.641833 0.378819
O O11 0.667140 0.120719 0.849973
O O12 0.749418 0.000000 0.850692
O O13 0.553357 0.163729 0.763034
O O14 0.488415 0.000000 0.687617
O O15 0.353656 0.781635 0.891940
O O16 0.333334 0.666668 0.000000
O O17 0.000000 0.462628 0.146733
#
# Coordination Sequence:
#
# PCOD9586266 Si02
#       7
#    12   6  12  12  12   4  12
#     4   9  18  35  58  80 106 147 195 228 267 342
#     4  10  19  32  54  84 116 150 193 250 310 360
#     4  10  21  35  52  80 116 145 176 230 291 339
#     4   8  17  34  55  76 105 148 190 229 285 341
#     4   8  17  35  57  78 102 141 185 223 273 333
#     4  12  27  36  57  93 115 149 202 237 294 351
#     4   9  20  40  60  78 109 152 191 235 285 340
#
# _framework density 20.601285000000001
#
# number of rings (size 3 to 8) (size 9 to 14) (size 15 to 20)
#    0.000    2.914    0.000    2.143    6.000    2.057 
#    1.029    2.571    0.000    0.343    0.000    0.000 
#    0.000    0.000    0.000    0.514    0.000    0.000 
#
# Total GULP energy -389855.092022 kJ/mol
# GULP energy per Si atom -5569.358457 kJ/mol
# Density = 2.055440 g / cm^3
# Si number density = 20.601285 Si / 1000 Ang^3
#
#
#
# Elastic Constant Matrix: (Units=GPa)
#
#
# Indices 1 2 3 4 5 6 
#
# 1 46.6555 6.6366 40.4065 0.0000 0.0000 0.0000
# 2 6.6366 46.6551 40.4065 -0.0001 0.0000 -0.0001
# 3 40.4065 40.4065 201.9904 0.0001 0.0000 0.0001
# 4 0.0000 -0.0001 0.0001 24.2067 0.0000 0.0000
# 5 0.0000 0.0000 0.0000 0.0000 24.2068 0.0000
# 6 0.0000 -0.0001 0.0001 0.0000 0.0000 20.0090
#
#
#
# Elastic Compliance Matrix: (Units=1/GPa)
#
#
# Indices 1 2 3 4 5 6 
#
# 1 0.025962 0.000974 -0.005388 0.000000 0.000000 0.000000
# 2 0.000974 0.025962 -0.005388 0.000000 0.000000 0.000000
# 3 -0.005388 -0.005388 0.007106 0.000000 0.000000 0.000000
# 4 0.000000 0.000000 0.000000 0.041311 0.000000 0.000000
# 5 0.000000 0.000000 0.000000 0.000000 0.041311 0.000000
# 6 0.000000 0.000000 0.000000 0.000000 0.000000 0.049978
#
#
# Mechanical properties :
#
#
# Convention : Reuss Voigt Hill
#
# Bulk Modulus (GPa) = 25.36496 52.24447 38.80472
# Shear Modulus (GPa) = 22.28396 27.54124 24.91260
#
# Velocity S-wave (km/s) = 3.29246 3.66029 3.48123
# Velocity P-wave (km/s) = 5.17617 6.57864 5.91909
#
# Compressibility (1/GPa) = 0.03942446
#
# Stress axis : x y z
#
# Youngs Moduli (GPa) = 38.51822 38.51786 140.71695
#
# Poissons Ratio (x) = -0.03750 0.75821
# Poissons Ratio (y) = -0.03750 0.75822
# Poissons Ratio (z) = 0.20754 0.20754
#
# Static dielectric constant tensor:
#      x y z
#    x 1.753830 0.000000 0.000000 
#    y 0.000000 1.753830 0.000000 
#    z 0.000000 0.000000 1.786330 
# 
# From -- ./inp_files/3154.got.cif
#   From: 2010.05.17/outbox.cif.g08.bks.cpg/sg189_2_cif.got.tgz:3154.got - 2010.05.20 12:14:34.
