data_PCOD9586410
_publ_section_title
;
Structure prediction by ZEFSAII (Michael W. Deem and Ramdas Pophale) SiO2 
 PCOD9586410
Probable space group: P -6 2 M
;
_chemical_formula_sum "Si O2"
_cell_formula_units_Z 52
_cell_length_a 15.091166
_cell_length_b 15.091166
_cell_length_c 13.880466
_cell_angle_alpha 90.000000
_cell_angle_beta 90.000000
_cell_angle_gamma 120.000000
_cell_volume 2737.664793
_symmetry_space_group_name_H-M "P -6 2 M"
_symmetry_group_IT_number 189
_symmetry_cell_setting 'hexagonal'
loop_
_space_group_symop_operation_xyz
x,y,z
-x+y,-x,-z
-y,x-y,z
x,y,-z
-x+y,-x,z
-y,x-y,-z
x-y,-y,-z
-x,-x+y,-z
y,x,-z
y,x,z
x-y,-y,z
-x,-x+y,z
loop_
_atom_site_type_symbol
_atom_site_label
_atom_site_fract_x
_atom_site_fract_y
_atom_site_fract_z
Si Si1 0.333334 0.666668 0.113979
Si Si2 0.114392 0.226007 0.614510
Si Si3 0.263295 0.823494 0.700876
Si Si4 0.618943 0.501690 0.114592
Si Si5 0.482051 0.880228 0.385569
O O1 0.389455 0.602846 0.139666
O O2 0.333334 0.666668 0.000000
O O3 0.130138 0.242911 0.500000
O O4 0.196041 0.196041 0.652036
O O5 0.124655 0.327038 0.659010
O O6 0.000000 0.133721 0.629374
O O7 0.288191 0.855520 0.812727
O O8 0.372844 0.862184 0.650304
O O9 0.193444 0.704361 0.672914
O O10 0.530054 0.530054 0.133175
O O11 0.641907 0.518702 0.000000
O O12 0.477294 0.857263 0.500000
O O13 0.564578 0.000000 0.372306
#
# Coordination Sequence:
#
# PCOD9586410 Si02
#       5
#     4  12  12  12  12
#     4   9  18  36  60  81 109 146 178 222 282 330
#     4  10  20  35  56  81 108 140 182 233 286 338
#     4  12  22  36  57  80 111 152 188 222 275 334
#     4  10  21  37  58  85 115 149 192 238 281 328
#     4  11  23  37  55  83 116 148 185 227 273 333
#
# _framework density 18.994292000000002
#
# number of rings (size 3 to 8) (size 9 to 14) (size 15 to 20)
#    0.000    1.385    0.000    6.923    0.000    4.615 
#    0.000    1.154    0.000    4.154    0.000    0.000 
#    0.000    1.846    0.000    0.692    0.000   22.154 
#
# Total GULP energy -290051.721940 kJ/mol
# GULP energy per Si atom -5577.917730 kJ/mol
# Density = 1.895106 g / cm^3
# Si number density = 18.994292 Si / 1000 Ang^3
#
#
#
# Elastic Constant Matrix: (Units=GPa)
#
#
# Indices 1 2 3 4 5 6 
#
# 1 150.9580 0.0355 40.3218 0.0000 -0.0002 0.0006
# 2 0.0355 150.9610 40.3225 0.0000 0.0001 -0.0005
# 3 40.3218 40.3225 95.8984 0.0000 0.0000 0.0001
# 4 0.0000 0.0000 0.0000 16.6066 -0.0001 -0.0001
# 5 -0.0002 0.0001 0.0000 -0.0001 16.6065 0.0000
# 6 0.0006 -0.0005 0.0001 -0.0001 0.0000 75.4607
#
#
#
# Elastic Compliance Matrix: (Units=1/GPa)
#
#
# Indices 1 2 3 4 5 6 
#
# 1 0.007583 0.000957 -0.003591 0.000000 0.000000 0.000000
# 2 0.000957 0.007583 -0.003591 0.000000 0.000000 0.000000
# 3 -0.003591 -0.003591 0.013448 0.000000 0.000000 0.000000
# 4 0.000000 0.000000 0.000000 0.060217 0.000000 0.000000
# 5 0.000000 0.000000 0.000000 0.000000 0.060217 0.000000
# 6 0.000000 0.000000 0.000000 0.000000 0.000000 0.013252
#
#
# Mechanical properties :
#
#
# Convention : Reuss Voigt Hill
#
# Bulk Modulus (GPa) = 61.86351 62.13077 61.99714
# Shear Modulus (GPa) = 27.75647 42.87728 35.31687
#
# Velocity S-wave (km/s) = 3.82685 4.75634 4.31669
# Velocity P-wave (km/s) = 7.22265 7.93378 7.58655
#
# Compressibility (1/GPa) = 0.01616462
#
# Stress axis : x y z
#
# Youngs Moduli (GPa) = 131.86814 131.87049 74.36292
#
# Poissons Ratio (x) = -0.12625 0.26704
# Poissons Ratio (y) = -0.12625 0.26704
# Poissons Ratio (z) = 0.47355 0.47356
#
# Static dielectric constant tensor:
#      x y z
#    x 1.674580 0.000000 0.000000 
#    y 0.000000 1.674580 0.000000 
#    z 0.000000 0.000000 1.672610 
# 
# From -- ./inp_files/2457.got.cif
#   From: 2010.05.17/outbox.cif.g08.bks.cpg/sg189_2_cif.got.tgz:2457.got - 2010.05.20 12:14:34.
