data_PCOD9586095
_publ_section_title
;
Structure prediction by ZEFSAII (Michael W. Deem and Ramdas Pophale) SiO2 
 PCOD9586095
Probable space group: P -6 C 2
;
_chemical_formula_sum "Si O2"
_cell_formula_units_Z 72
_cell_length_a 24.000000
_cell_length_b 24.000000
_cell_length_c 9.000000
_cell_angle_alpha 90.000000
_cell_angle_beta 90.000000
_cell_angle_gamma 120.000000
_cell_volume 4489.475693
_symmetry_space_group_name_H-M "P -6 C 2"
_symmetry_group_IT_number 188
_symmetry_cell_setting 'hexagonal'
loop_
_space_group_symop_operation_xyz
x,y,z
-x+y,-x,1/2-z
-y,x-y,z
x,y,1/2-z
-x+y,-x,z
-y,x-y,1/2-z
-y,-x,-z
-x+y,y,-z
x,x-y,-z
-x+y,y,1/2+z
x,x-y,1/2+z
-y,-x,1/2+z
loop_
_atom_site_type_symbol
_atom_site_label
_atom_site_fract_x
_atom_site_fract_y
_atom_site_fract_z
Si Si1 0.598660 0.740972 0.925595
Si Si2 0.447976 0.664753 0.573818
Si Si3 0.932308 0.521750 0.926096
Si Si4 0.813929 0.515522 0.080041
Si Si5 0.891680 0.219507 0.580239
Si Si6 0.005903 0.672652 0.926100
O O1 0.607250 0.748620 0.750000
O O2 0.523094 0.692165 0.955124
O O3 0.615064 0.807532 0.000000
O O4 0.639832 0.712864 0.994610
O O5 0.437409 0.662259 0.750000
O O6 0.403600 0.596401 0.500000
O O7 0.431088 0.715544 0.500000
O O8 0.928058 0.513534 0.750000
O O9 0.976521 0.596989 0.960387
O O10 0.958485 0.479243 0.000000
O O11 0.861934 0.499463 0.992367
O O12 0.805766 0.493536 0.250000
O O13 0.850738 0.593811 0.081716
O O14 0.746442 0.492884 0.000000
O O15 0.905626 0.212131 0.750000
O O16 0.847369 0.152632 0.500000
O O17 0.954987 0.263934 0.488057
O O18 0.012084 0.680302 0.750000
#
# Coordination Sequence:
#
# PCOD9586095 Si02
#       6
#    12  12  12  12  12  12
#     4  10  21  36  52  69  91 122 159 197 239 291
#     4  10  20  33  49  67  87 112 147 195 250 304
#     4  10  20  32  46  66  92 121 154 194 240 287
#     4   9  16  27  44  64  86 113 145 180 219 266
#     4   9  16  27  45  69  95 120 147 179 216 259
#     4  10  20  33  49  69  94 124 157 193 234 281
#
# _framework density 16.037507000000002
#
# number of rings (size 3 to 8) (size 9 to 14) (size 15 to 20)
#    0.000    2.333    0.000    3.167    0.000    8.667 
#    0.000    3.333    0.000    0.333    0.000    2.333 
#    0.000    0.000    0.000    0.500    0.000    7.000 
#
# Total GULP energy -401577.699995 kJ/mol
# GULP energy per Si atom -5577.468055 kJ/mol
# Density = 1.600101 g / cm^3
# Si number density = 16.037507 Si / 1000 Ang^3
#
#
#
# Elastic Constant Matrix: (Units=GPa)
#
#
# Indices 1 2 3 4 5 6 
#
# 1 53.8173 83.3688 58.8698 -0.0006 0.0000 0.0000
# 2 83.3688 53.8173 58.8698 0.0006 0.0000 0.0000
# 3 58.8698 58.8698 37.0632 0.0000 0.0000 0.0000
# 4 -0.0006 0.0006 0.0000 19.6382 0.0000 0.0000
# 5 0.0000 0.0000 0.0000 0.0000 19.6382 -0.0006
# 6 0.0000 0.0000 0.0000 0.0000 -0.0006 -14.7757
#
#
#
# Elastic Compliance Matrix: (Units=1/GPa)
#
#
# Indices 1 2 3 4 5 6 
#
# 1 -0.026954 0.006885 0.031878 -0.000001 0.000000 0.000000
# 2 0.006885 -0.026954 0.031878 0.000001 0.000000 0.000000
# 3 0.031878 0.031878 -0.074286 0.000000 0.000000 0.000000
# 4 -0.000001 0.000001 0.000000 0.050921 0.000000 0.000000
# 5 0.000000 0.000000 0.000000 0.000000 0.050921 -0.000002
# 6 0.000000 0.000000 0.000000 0.000000 -0.000002 -0.067679
#
#
# Mechanical properties :
#
#
# Convention : Reuss Voigt Hill
#
# Bulk Modulus (GPa) = 76.41730 60.76827 68.59278
# Shear Modulus (GPa) = -21.64982 1.13942 -10.25520
#
# Velocity S-wave (km/s) = -3.67815 0.84381 -2.53148
# Velocity P-wave (km/s) = 5.45107 6.23883 5.85820
#
# Compressibility (1/GPa) = 0.01308604
#
# Stress axis : x y z
#
# Youngs Moduli (GPa) = -37.09968 -37.09968 -13.46157
#
# Poissons Ratio (x) = 0.25543 0.42912
# Poissons Ratio (y) = 0.25543 0.42912
# Poissons Ratio (z) = 1.18265 1.18265
#
# Static dielectric constant tensor:
#      x y z
#    x 1.517520 0.000000 0.000000 
#    y 0.000000 1.517520 0.000000 
#    z 0.000000 0.000000 1.530280 
# 
# From -- ./inp_files/991.got.cif
#   From: 2010.05.17/outbox.ucp.g08.bks.cvg/sg188_1_cif.got.tgz:991.got - 2010.06.11 15:21:59.
