data_PCOD9586538
_publ_section_title
;
Structure prediction by ZEFSAII (Michael W. Deem and Ramdas Pophale) SiO2 
 PCOD9586538
Probable space group: P -6 2 M
;
_chemical_formula_sum "Si O2"
_cell_formula_units_Z 75
_cell_length_a 18.074635
_cell_length_b 18.074635
_cell_length_c 14.799124
_cell_angle_alpha 90.000000
_cell_angle_beta 90.000000
_cell_angle_gamma 120.000000
_cell_volume 4187.026529
_symmetry_space_group_name_H-M "P -6 2 M"
_symmetry_group_IT_number 189
_symmetry_cell_setting 'hexagonal'
loop_
_space_group_symop_operation_xyz
x,y,z
-x+y,-x,-z
-y,x-y,z
x,y,-z
-x+y,-x,z
-y,x-y,-z
x-y,-y,-z
-x,-x+y,-z
y,x,-z
y,x,z
x-y,-y,z
-x,-x+y,z
loop_
_atom_site_type_symbol
_atom_site_label
_atom_site_fract_x
_atom_site_fract_y
_atom_site_fract_z
Si Si1 0.164069 0.499000 0.850104
Si Si2 0.369701 0.850143 0.640651
Si Si3 0.651491 0.902245 0.765305
Si Si4 0.476418 0.292455 0.396627
Si Si5 0.410398 0.000000 0.500000
Si Si6 0.309517 0.098661 0.897111
Si Si7 0.667263 0.166402 0.103136
O O1 0.139899 0.494474 0.745457
O O2 0.112587 0.405207 0.892305
O O3 0.263508 0.524744 0.861570
O O4 0.151837 0.572931 0.892606
O O5 0.286313 0.762582 0.610732
O O6 0.455901 0.845686 0.629112
O O7 0.376965 0.925346 0.578588
O O8 0.601901 0.854975 0.673928
O O9 0.689954 0.852637 0.821410
O O10 0.577262 0.895684 0.831855
O O11 0.719532 0.000000 0.747595
O O12 0.448453 0.290405 0.500000
O O13 0.242637 0.000000 0.879172
O O14 0.295857 0.119475 0.000000
O O15 0.689512 0.159460 0.000000
#
# Coordination Sequence:
#
# PCOD9586538 Si02
#       7
#    12  12  12  12   3  12  12
#     4  11  20  35  55  81 118 158 198 240 284 334
#     4  12  23  39  59  83 115 158 207 253 294 346
#     4  11  24  39  60  87 117 151 188 238 304 360
#     4  12  23  41  59  84 116 162 207 250 297 344
#     4  12  28  36  60  88 108 154 212 270 304 332
#     4  10  22  41  63  86 115 154 195 239 291 352
#     4  11  21  34  54  84 120 159 200 239 278 333
#
# _framework density 17.912472999999999
#
# number of rings (size 3 to 8) (size 9 to 14) (size 15 to 20)
#    0.000    0.800    6.400    3.520    2.240    2.240 
#    0.000    0.000    0.000    0.320    0.000    0.000 
#    0.000    0.000    0.000    0.000    0.000    0.000 
#
# Total GULP energy -418107.586798 kJ/mol
# GULP energy per Si atom -5574.767824 kJ/mol
# Density = 1.787170 g / cm^3
# Si number density = 17.912473 Si / 1000 Ang^3
#
#
#
# Elastic Constant Matrix: (Units=GPa)
#
#
# Indices 1 2 3 4 5 6 
#
# 1 38.7428 36.9585 26.0713 0.0000 0.0000 0.0000
# 2 36.9585 38.7428 26.0713 0.0000 0.0000 0.0000
# 3 26.0713 26.0713 158.3519 0.0000 0.0000 0.0000
# 4 0.0000 0.0000 0.0000 53.0839 0.0000 0.0000
# 5 0.0000 0.0000 0.0000 0.0000 53.0839 0.0000
# 6 0.0000 0.0000 0.0000 0.0000 0.0000 0.8921
#
#
#
# Elastic Compliance Matrix: (Units=1/GPa)
#
#
# Indices 1 2 3 4 5 6 
#
# 1 0.287672 -0.272773 -0.002453 0.000000 0.000000 0.000000
# 2 -0.272773 0.287672 -0.002453 0.000000 0.000000 0.000000
# 3 -0.002453 -0.002453 0.007123 0.000000 0.000000 0.000000
# 4 0.000000 0.000000 0.000000 0.018838 0.000000 0.000000
# 5 0.000000 0.000000 0.000000 0.000000 0.018838 0.000000
# 6 0.000000 0.000000 0.000000 0.000000 0.000000 1.120889
#
#
# Mechanical properties :
#
#
# Convention : Reuss Voigt Hill
#
# Bulk Modulus (GPa) = 36.88751 46.00443 41.44597
# Shear Modulus (GPa) = 2.16880 31.19440 16.68160
#
# Velocity S-wave (km/s) = 1.10155 4.17764 3.05501
# Velocity P-wave (km/s) = 4.71760 7.00064 5.96928
#
# Compressibility (1/GPa) = 0.02710944
#
# Stress axis : x y z
#
# Youngs Moduli (GPa) = 3.47618 3.47618 140.39412
#
# Poissons Ratio (x) = 0.94821 0.34440
# Poissons Ratio (y) = 0.94821 0.34440
# Poissons Ratio (z) = 0.00853 0.00853
#
# Static dielectric constant tensor:
#      x y z
#    x 1.607230 0.000000 0.000000 
#    y 0.000000 1.607230 0.000000 
#    z 0.000000 0.000000 1.638240 
# 
# From -- ./inp_files/2706.got.cif
#   From: 2010.05.17/outbox.cif.g08.bks.cpg/sg189_2_cif.got.tgz:2706.got - 2010.05.20 12:14:34.
