data_PCOD9586204
_publ_section_title
;
Structure prediction by ZEFSAII (Michael W. Deem and Ramdas Pophale) SiO2 
 PCOD9586204
Probable space group: P -6 2 M
;
_chemical_formula_sum "Si O2"
_cell_formula_units_Z 66
_cell_length_a 23.953702
_cell_length_b 23.953702
_cell_length_c 7.793359
_cell_angle_alpha 90.000000
_cell_angle_beta 90.000000
_cell_angle_gamma 120.000000
_cell_volume 3872.581789
_symmetry_space_group_name_H-M "P -6 2 M"
_symmetry_group_IT_number 189
_symmetry_cell_setting 'hexagonal'
loop_
_space_group_symop_operation_xyz
x,y,z
-x+y,-x,-z
-y,x-y,z
x,y,-z
-x+y,-x,z
-y,x-y,-z
x-y,-y,-z
-x,-x+y,-z
y,x,-z
y,x,z
x-y,-y,z
-x,-x+y,z
loop_
_atom_site_type_symbol
_atom_site_label
_atom_site_fract_x
_atom_site_fract_y
_atom_site_fract_z
Si Si1 0.606625 0.535963 0.294952
Si Si2 0.243374 0.076267 0.203909
Si Si3 0.146562 0.392224 0.793089
Si Si4 0.923527 0.077042 0.500000
Si Si5 0.727396 0.245676 0.801846
Si Si6 0.804170 0.389464 0.700381
O O1 0.597399 0.530497 0.500000
O O2 0.562994 0.562994 0.220824
O O3 0.681644 0.585461 0.261483
O O4 0.591922 0.466471 0.231290
O O5 0.318318 0.120419 0.255717
O O6 0.197908 0.088622 0.331327
O O7 0.220027 0.000000 0.222399
O O8 0.236543 0.086653 0.000000
O O9 0.216592 0.449279 0.730891
O O10 0.149077 0.394263 0.000000
O O11 0.000000 0.101261 0.500000
O O12 0.881089 0.000000 0.500000
O O13 0.754812 0.322479 0.790015
O O14 0.657814 0.211544 0.717002
O O15 0.717784 0.226279 0.000000
O O16 0.800608 0.372307 0.500000
#
# Coordination Sequence:
#
# PCOD9586204 Si02
#       6
#    12  12  12   6  12  12
#     4   9  18  30  46  68  94 123 154 191 239 293
#     4   9  18  33  53  79 109 138 168 205 252 303
#     4   9  18  31  48  72  98 125 159 202 249 295
#     4  10  21  36  56  82 110 140 172 204 242 290
#     4  10  19  31  47  66  91 124 163 205 249 294
#     4  10  19  31  45  65  92 123 158 196 242 291
#
# _framework density 17.042892999999999
#
# number of rings (size 3 to 8) (size 9 to 14) (size 15 to 20)
#    0.000    2.545    0.000    2.091    1.273    2.909 
#    0.000    0.000    0.000    2.182    0.000    2.545 
#    0.000    0.000    0.000    0.000    0.000    0.000 
#
# Total GULP energy -367795.218292 kJ/mol
# GULP energy per Si atom -5572.654823 kJ/mol
# Density = 1.700410 g / cm^3
# Si number density = 17.042893 Si / 1000 Ang^3
#
#
#
# Elastic Constant Matrix: (Units=GPa)
#
#
# Indices 1 2 3 4 5 6 
#
# 1 115.6377 73.2089 22.6251 0.0000 0.0000 0.0000
# 2 73.2089 115.6377 22.6251 0.0000 0.0000 0.0000
# 3 22.6251 22.6251 43.0995 0.0000 0.0000 0.0000
# 4 0.0000 0.0000 0.0000 36.7800 0.0000 0.0000
# 5 0.0000 0.0000 0.0000 0.0000 36.7800 0.0000
# 6 0.0000 0.0000 0.0000 0.0000 0.0000 21.2144
#
#
#
# Elastic Compliance Matrix: (Units=1/GPa)
#
#
# Indices 1 2 3 4 5 6 
#
# 1 0.014813 -0.008756 -0.003180 0.000000 0.000000 0.000000
# 2 -0.008756 0.014813 -0.003180 0.000000 0.000000 0.000000
# 3 -0.003180 -0.003180 0.026540 0.000000 0.000000 0.000000
# 4 0.000000 0.000000 0.000000 0.027189 0.000000 0.000000
# 5 0.000000 0.000000 0.000000 0.000000 0.027189 0.000000
# 6 0.000000 0.000000 0.000000 0.000000 0.000000 0.047138
#
#
# Mechanical properties :
#
#
# Convention : Reuss Voigt Hill
#
# Bulk Modulus (GPa) = 38.55644 56.81033 47.68339
# Shear Modulus (GPa) = 25.43783 29.34929 27.39356
#
# Velocity S-wave (km/s) = 3.86758 4.15430 4.01350
# Velocity P-wave (km/s) = 6.52813 7.51113 7.03682
#
# Compressibility (1/GPa) = 0.02593601
#
# Stress axis : x y z
#
# Youngs Moduli (GPa) = 67.50804 67.50804 37.67828
#
# Poissons Ratio (x) = 0.59109 0.11981
# Poissons Ratio (y) = 0.59109 0.11981
# Poissons Ratio (z) = 0.21466 0.21466
#
# Static dielectric constant tensor:
#      x y z
#    x 1.578490 0.000000 0.000000 
#    y 0.000000 1.578490 0.000000 
#    z 0.000000 0.000000 1.600260 
# 
# From -- ./inp_files/1032.got.cif
#   From: 2010.05.17/outbox.cif.g08.bks.cpg/sg189_1_cif.got.tgz:1032.got - 2010.05.20 12:14:34.
