data_PCOD9586753
_publ_section_title
;
Structure prediction by ZEFSAII (Michael W. Deem and Ramdas Pophale) SiO2 
 PCOD9586753
Probable space group: P -6 2 C
;
_chemical_formula_sum "Si O2"
_cell_formula_units_Z 30
_cell_length_a 6.860221
_cell_length_b 6.860221
_cell_length_c 27.791118
_cell_angle_alpha 90.000000
_cell_angle_beta 90.000000
_cell_angle_gamma 120.000000
_cell_volume 1132.694686
_symmetry_space_group_name_H-M "P -6 2 C"
_symmetry_group_IT_number 190
_symmetry_cell_setting 'hexagonal'
loop_
_space_group_symop_operation_xyz
x,y,z
-x+y,-x,1/2-z
-y,x-y,z
x,y,1/2-z
-x+y,-x,z
-y,x-y,1/2-z
x-y,-y,-z
-x,-x+y,-z
y,x,-z
y,x,1/2+z
x-y,-y,1/2+z
-x,-x+y,1/2+z
loop_
_atom_site_type_symbol
_atom_site_label
_atom_site_fract_x
_atom_site_fract_y
_atom_site_fract_z
Si Si1 0.877893 0.261049 0.250000
Si Si2 0.884721 0.267975 0.548538
Si Si3 0.730320 0.616837 0.652974
O O1 0.610123 0.101086 0.250000
O O2 0.992842 0.251644 0.299203
O O3 0.896497 0.511662 0.548119
O O4 0.975352 0.250723 0.600694
O O5 0.000000 0.255548 0.500000
O O6 0.487692 0.383285 0.653753
#
# Coordination Sequence:
#
# PCOD9586753 Si02
#       3
#     6  12  12
#     4  10  20  26  42  78  94 102 150 212 238 234
#     4   8  16  28  46  72  91 117 153 184 222 267
#     4   8  16  32  50  60  87 134 156 163 219 303
#
# _framework density 26.485512
#
# number of rings (size 3 to 8) (size 9 to 14) (size 15 to 20)
#    2.000    1.600    0.000    1.200    0.000    3.200 
#    0.000    0.000    0.000    7.200    0.000    0.000 
#    0.000    0.000    0.000    0.000    0.000    0.000 
#
# Total GULP energy -167326.026819 kJ/mol
# GULP energy per Si atom -5577.534227 kJ/mol
# Density = 2.642523 g / cm^3
# Si number density = 26.485512 Si / 1000 Ang^3
#
#
#
# Elastic Constant Matrix: (Units=GPa)
#
#
# Indices 1 2 3 4 5 6 
#
# 1 96.6669 24.5418 64.1689 0.0000 0.0000 0.0000
# 2 24.5418 96.6669 64.1689 0.0000 0.0000 0.0000
# 3 64.1689 64.1689 354.9789 0.0000 0.0000 0.0000
# 4 0.0000 0.0000 0.0000 -29.4375 0.0000 0.0000
# 5 0.0000 0.0000 0.0000 0.0000 -29.4375 0.0000
# 6 0.0000 0.0000 0.0000 0.0000 0.0000 36.0626
#
#
#
# Elastic Compliance Matrix: (Units=1/GPa)
#
#
# Indices 1 2 3 4 5 6 
#
# 1 0.012034 -0.001831 -0.001844 0.000000 0.000000 0.000000
# 2 -0.001831 0.012034 -0.001844 0.000000 0.000000 0.000000
# 3 -0.001844 -0.001844 0.003484 0.000000 0.000000 0.000000
# 4 0.000000 0.000000 0.000000 -0.033970 0.000000 0.000000
# 5 0.000000 0.000000 0.000000 0.000000 -0.033970 0.000000
# 6 0.000000 0.000000 0.000000 0.000000 0.000000 0.027730
#
#
# Mechanical properties :
#
#
# Convention : Reuss Voigt Hill
#
# Bulk Modulus (GPa) = 60.56008 94.89688 77.72848
# Shear Modulus (GPa) = 1287.25142 21.79972 654.52557
#
# Velocity S-wave (km/s) = 22.06980 2.87205 15.73729
# Velocity P-wave (km/s) = 25.92971 6.84878 18.96385
#
# Compressibility (1/GPa) = 0.01651253
#
# Stress axis : x y z
#
# Youngs Moduli (GPa) = 83.09816 83.09816 287.03566
#
# Poissons Ratio (x) = 0.15214 0.52941
# Poissons Ratio (y) = 0.15214 0.52941
# Poissons Ratio (z) = 0.15327 0.15327
#
# Static dielectric constant tensor:
#      x y z
#    x 2.081390 0.000000 0.000000 
#    y 0.000000 2.081390 0.000000 
#    z 0.000000 0.000000 2.016490 
# 
# From -- ./inp_files/4023.got.cif
#   From: 2010.05.17/outbox.cif.g08.bks.cpg/sg190_3_cif.got.tgz:4023.got - 2010.05.20 12:16:56.
