data_PCOD9586004
_publ_section_title
;
Structure prediction by ZEFSAII (Michael W. Deem and Ramdas Pophale) SiO2 
 PCOD9586004
Probable space group: P -6 C 2
;
_chemical_formula_sum "Si O2"
_cell_formula_units_Z 76
_cell_length_a 17.554176
_cell_length_b 17.554176
_cell_length_c 15.612159
_cell_angle_alpha 90.000000
_cell_angle_beta 90.000000
_cell_angle_gamma 120.000000
_cell_volume 4166.337944
_symmetry_space_group_name_H-M "P -6 C 2"
_symmetry_group_IT_number 188
_symmetry_cell_setting 'hexagonal'
loop_
_space_group_symop_operation_xyz
x,y,z
-x+y,-x,1/2-z
-y,x-y,z
x,y,1/2-z
-x+y,-x,z
-y,x-y,1/2-z
-y,-x,-z
-x+y,y,-z
x,x-y,-z
-x+y,y,1/2+z
x,x-y,1/2+z
-y,-x,1/2+z
loop_
_atom_site_type_symbol
_atom_site_label
_atom_site_fract_x
_atom_site_fract_y
_atom_site_fract_z
Si Si1 0.768738 0.537475 0.099268
Si Si2 0.438246 0.390784 0.648460
Si Si3 0.680750 0.927171 0.852110
Si Si4 0.175332 0.998970 0.500000
Si Si5 0.952538 0.561753 0.351540
Si Si6 0.666667 0.333334 0.647076
Si Si7 0.072829 0.319250 0.852110
O O1 0.703948 0.569965 0.133879
O O2 0.866016 0.569964 0.133879
O O3 0.716407 0.432815 0.115405
O O4 0.778807 0.557614 0.000000
O O5 0.443924 0.402913 0.750000
O O6 0.347276 0.385026 0.622037
O O7 0.528422 0.471577 0.611077
O O8 0.701728 0.946260 0.750000
O O9 0.647961 0.823980 0.863729
O O10 0.763689 0.977599 0.915207
O O11 0.194436 0.097218 0.500000
O O12 0.213911 0.977599 0.584793
O O13 0.071473 0.928528 0.500000
O O14 0.958989 0.556076 0.250000
O O15 0.037750 0.652724 0.377963
O O16 0.666667 0.333334 0.750000
O O17 0.053740 0.298272 0.750000
#
# Coordination Sequence:
#
# PCOD9586004 Si02
#       7
#    12  12  12  12  12   4  12
#     4  12  24  34  50  78 112 146 188 228 264 309
#     4  10  21  36  55  77 106 145 181 216 265 323
#     4   9  20  38  57  78 106 139 177 223 271 319
#     4  10  21  36  55  78 106 138 176 218 267 316
#     4  10  21  36  55  77 106 145 181 216 265 323
#     4  12  22  38  52  66 112 164 190 222 268 311
#     4   9  20  38  57  78 106 139 177 223 271 319
#
# _framework density 18.241440000000001
#
# number of rings (size 3 to 8) (size 9 to 14) (size 15 to 20)
#    0.000    1.895    1.579    2.053    4.421    0.632 
#    0.000    0.000    0.000    2.526    0.000    4.421 
#    0.000    0.000    0.000    0.000    0.000    0.000 
#
# Total GULP energy -423612.609118 kJ/mol
# GULP energy per Si atom -5573.850120 kJ/mol
# Density = 1.819992 g / cm^3
# Si number density = 18.241440 Si / 1000 Ang^3
#
#
#
# Elastic Constant Matrix: (Units=GPa)
#
#
# Indices 1 2 3 4 5 6 
#
# 1 112.9013 61.1755 20.7158 0.0004 -0.0001 -0.0001
# 2 61.1755 112.9016 20.7162 -0.0004 0.0001 0.0001
# 3 20.7158 20.7162 40.7239 0.0002 0.0001 0.0000
# 4 0.0004 -0.0004 0.0002 1.9691 -0.0003 -0.0001
# 5 -0.0001 0.0001 0.0001 -0.0003 1.9715 -0.0004
# 6 -0.0001 0.0001 0.0000 -0.0001 -0.0004 25.8635
#
#
#
# Elastic Compliance Matrix: (Units=1/GPa)
#
#
# Indices 1 2 3 4 5 6 
#
# 1 0.012934 -0.006398 -0.003325 -0.000004 0.000001 0.000000
# 2 -0.006398 0.012934 -0.003325 0.000004 -0.000001 0.000000
# 3 -0.003325 -0.003325 0.027938 -0.000003 -0.000001 0.000000
# 4 -0.000004 0.000004 -0.000003 0.507859 0.000087 0.000003
# 5 0.000001 -0.000001 -0.000001 0.000087 0.507221 0.000008
# 6 0.000000 0.000000 0.000000 0.000003 0.000008 0.038664
#
#
# Mechanical properties :
#
#
# Convention : Reuss Voigt Hill
#
# Bulk Modulus (GPa) = 36.08685 52.41575 44.25130
# Shear Modulus (GPa) = 4.37490 16.88878 10.63184
#
# Velocity S-wave (km/s) = 1.55033 3.04607 2.41683
# Velocity P-wave (km/s) = 4.79902 6.41625 5.66563
#
# Compressibility (1/GPa) = 0.02771092
#
# Stress axis : x y z
#
# Youngs Moduli (GPa) = 77.31396 77.31390 35.79327
#
# Poissons Ratio (x) = 0.49468 0.11900
# Poissons Ratio (y) = 0.49468 0.11901
# Poissons Ratio (z) = 0.25705 0.25706
#
# Static dielectric constant tensor:
#      x y z
#    x 1.415340 0.000000 0.000000 
#    y 0.000000 1.415370 0.000000 
#    z 0.000000 0.000000 1.636870 
# 
# From -- ./inp_files/2480.got.cif
#   From: 2010.05.17/outbox.cif.g08.bks.cpg/sg188_2_cif.got.tgz:2480.got - 2010.05.20 12:11:46.
