data_PCOD9586593
_publ_section_title
;
Structure prediction by ZEFSAII (Michael W. Deem and Ramdas Pophale) SiO2 
 PCOD9586593
Probable space group: P -6 2 M
;
_chemical_formula_sum "Si O2"
_cell_formula_units_Z 68
_cell_length_a 15.000000
_cell_length_b 15.000000
_cell_length_c 18.000000
_cell_angle_alpha 90.000000
_cell_angle_beta 90.000000
_cell_angle_gamma 120.000000
_cell_volume 3507.402885
_symmetry_space_group_name_H-M "P -6 2 M"
_symmetry_group_IT_number 189
_symmetry_cell_setting 'hexagonal'
loop_
_space_group_symop_operation_xyz
x,y,z
-x+y,-x,-z
-y,x-y,z
x,y,-z
-x+y,-x,z
-y,x-y,-z
x-y,-y,-z
-x,-x+y,-z
y,x,-z
y,x,z
x-y,-y,z
-x,-x+y,z
loop_
_atom_site_type_symbol
_atom_site_label
_atom_site_fract_x
_atom_site_fract_y
_atom_site_fract_z
Si Si1 0.118997 0.882139 0.586305
Si Si2 0.577341 0.772576 0.864322
Si Si3 0.000000 0.000000 0.090993
Si Si4 0.562515 0.113734 0.309603
Si Si5 0.220550 0.789913 0.315170
Si Si6 0.115000 0.572985 0.870619
Si Si7 0.793262 0.793262 0.911609
O O1 0.135416 0.864272 0.500000
O O2 0.191479 0.863386 0.641037
O O3 0.000000 0.807317 0.605293
O O4 0.147262 0.000000 0.592011
O O5 0.582858 0.778709 0.774039
O O6 0.484144 0.661663 0.890330
O O7 0.538649 0.849182 0.891894
O O8 0.687595 0.790036 0.888644
O O9 0.103782 0.000000 0.115785
O O10 0.000000 0.000000 0.000000
O O11 0.673512 0.140480 0.336949
O O12 0.523995 0.190528 0.333285
O O13 0.571832 0.117122 0.219771
O O14 0.477029 0.000000 0.331112
O O15 0.000000 0.500349 0.896867
O O16 0.797821 0.797821 0.000000
#
# Coordination Sequence:
#
# PCOD9586593 Si02
#       7
#    12  12   2  12  12  12   6
#     4  10  21  37  55  76 109 151 191 239 300 355
#     4  10  20  35  61  87 118 151 191 245 293 348
#     4   9  24  48  63  75 117 168 199 230 298 363
#     4   9  17  29  48  77 111 138 170 223 273 324
#     4  10  19  33  56  82 111 145 189 227 280 337
#     4   9  17  31  52  85 114 142 179 228 292 341
#     4  11  24  44  63  85 116 160 201 242 299 367
#
# _framework density 19.387564999999999
#
# number of rings (size 3 to 8) (size 9 to 14) (size 15 to 20)
#    0.000    2.294    0.882    1.941    3.706    4.235 
#    0.000    1.765    0.000    3.176    0.000    0.000 
#    0.000    0.000    0.000    0.000    0.000    0.000 
#
# Total GULP energy -378894.070840 kJ/mol
# GULP energy per Si atom -5571.971630 kJ/mol
# Density = 1.934344 g / cm^3
# Si number density = 19.387565 Si / 1000 Ang^3
#
#
#
# Elastic Constant Matrix: (Units=GPa)
#
#
# Indices 1 2 3 4 5 6 
#
# 1 71.7575 6.7972 17.1427 0.0000 0.0000 0.0000
# 2 6.7972 71.7575 17.1427 0.0000 0.0000 0.0000
# 3 17.1427 17.1427 20.1963 0.0000 0.0000 0.0000
# 4 0.0000 0.0000 0.0000 5.5529 0.0000 0.0000
# 5 0.0000 0.0000 0.0000 0.0000 5.5529 0.0000
# 6 0.0000 0.0000 0.0000 0.0000 0.0000 32.4802
#
#
#
# Elastic Compliance Matrix: (Units=1/GPa)
#
#
# Indices 1 2 3 4 5 6 
#
# 1 0.017808 0.002414 -0.017164 0.000000 0.000000 0.000000
# 2 0.002414 0.017808 -0.017164 0.000000 0.000000 0.000000
# 3 -0.017164 -0.017164 0.078651 0.000000 0.000000 0.000000
# 4 0.000000 0.000000 0.000000 0.180088 0.000000 0.000000
# 5 0.000000 0.000000 0.000000 0.000000 0.180088 0.000000
# 6 0.000000 0.000000 0.000000 0.000000 0.000000 0.030788
#
#
# Mechanical properties :
#
#
# Convention : Reuss Voigt Hill
#
# Bulk Modulus (GPa) = 19.82613 27.31961 23.57287
# Shear Modulus (GPa) = 8.53431 16.89243 12.71337
#
# Velocity S-wave (km/s) = 2.10036 2.95499 2.56354
# Velocity P-wave (km/s) = 4.01627 5.07587 4.57684
#
# Compressibility (1/GPa) = 0.05043848
#
# Stress axis : x y z
#
# Youngs Moduli (GPa) = 56.15584 56.15584 12.71435
#
# Poissons Ratio (x) = -0.13554 0.21823
# Poissons Ratio (y) = -0.13554 0.21823
# Poissons Ratio (z) = 0.96385 0.96385
#
# Static dielectric constant tensor:
#      x y z
#    x 1.656330 0.000000 0.000000 
#    y 0.000000 1.656330 0.000000 
#    z 0.000000 0.000000 1.664940 
# 
# From -- ./inp_files/3157.got.cif
#   From: 2010.05.17/outbox.ucp.g08.bks.cvg/sg189_2_cif.got.tgz:3157.got - 2010.06.11 15:22:13.
