data_PCOD9586454
_publ_section_title
;
Structure prediction by ZEFSAII (Michael W. Deem and Ramdas Pophale) SiO2 
 PCOD9586454
Probable space group: P -6 2 M
;
_chemical_formula_sum "Si O2"
_cell_formula_units_Z 96
_cell_length_a 14.410828
_cell_length_b 14.410828
_cell_length_c 27.601618
_cell_angle_alpha 90.000000
_cell_angle_beta 90.000000
_cell_angle_gamma 120.000000
_cell_volume 4964.128810
_symmetry_space_group_name_H-M "P -6 2 M"
_symmetry_group_IT_number 189
_symmetry_cell_setting 'hexagonal'
loop_
_space_group_symop_operation_xyz
x,y,z
-x+y,-x,-z
-y,x-y,z
x,y,-z
-x+y,-x,z
-y,x-y,-z
x-y,-y,-z
-x,-x+y,-z
y,x,-z
y,x,z
x-y,-y,z
-x,-x+y,z
loop_
_atom_site_type_symbol
_atom_site_label
_atom_site_fract_x
_atom_site_fract_y
_atom_site_fract_z
Si Si1 0.871324 0.437172 0.698110
Si Si2 0.576866 0.837608 0.445020
Si Si3 0.873368 0.649233 0.275798
Si Si4 0.451340 0.327089 0.941807
Si Si5 0.128187 0.466458 0.901132
Si Si6 0.122749 0.515861 0.407688
Si Si7 0.119360 0.241449 0.629827
Si Si8 0.554916 0.683233 0.210972
O O1 0.853101 0.537139 0.702466
O O2 0.832380 0.376440 0.647294
O O3 0.834343 0.369579 0.747341
O O4 0.000000 0.489985 0.696053
O O5 0.612549 0.868889 0.500000
O O6 0.513612 0.709332 0.439536
O O7 0.496227 0.877053 0.428629
O O8 0.672935 0.876419 0.407199
O O9 0.839794 0.703917 0.317606
O O10 0.805700 0.626324 0.227298
O O11 0.000000 0.721415 0.267596
O O12 0.365125 0.365125 0.927097
O O13 0.435228 0.213864 0.922282
O O14 0.567284 0.423968 0.924479
O O15 0.450915 0.323018 0.000000
O O16 0.152155 0.485255 0.843702
O O17 0.000000 0.378468 0.907208
O O18 0.000000 0.420276 0.406621
O O19 0.148108 0.148108 0.635465
O O20 0.000000 0.195600 0.612037
O O21 0.625603 0.625603 0.214467
#
# Coordination Sequence:
#
# PCOD9586454 Si02
#       8
#    12  12  12  12  12  12  12  12
#     4   9  19  36  56  80 110 145 184 226 275 339
#     4  12  25  40  61  87 111 142 186 234 294 359
#     4  10  20  37  60  84 113 153 197 238 283 340
#     4  10  21  38  62  90 120 164 219 266 311 364
#     4  10  22  38  59  90 128 166 205 255 315 371
#     4  11  23  42  62  82 111 145 182 228 281 339
#     4  11  23  41  63  88 117 153 196 240 287 343
#     4  10  21  36  55  86 123 155 190 233 291 356
#
# _framework density 19.338740999999999
#
# number of rings (size 3 to 8) (size 9 to 14) (size 15 to 20)
#    0.000    1.625    1.250    3.250    1.750    4.750 
#    0.750    0.000    0.000    1.250    0.000    0.000 
#    0.000    0.000    0.000    0.000    0.000    0.000 
#
# Total GULP energy -536240.871269 kJ/mol
# GULP energy per Si atom -5585.842409 kJ/mol
# Density = 1.929473 g / cm^3
# Si number density = 19.338741 Si / 1000 Ang^3
#
#
#
# Elastic Constant Matrix: (Units=GPa)
#
#
# Indices 1 2 3 4 5 6 
#
# 1 78.5290 34.0501 24.1391 0.0000 0.0000 0.0000
# 2 34.0501 78.5290 24.1391 0.0000 0.0000 0.0000
# 3 24.1391 24.1391 90.6552 0.0000 0.0000 0.0000
# 4 0.0000 0.0000 0.0000 -184.0805 0.0000 0.0000
# 5 0.0000 0.0000 0.0000 0.0000 -184.0805 0.0000
# 6 0.0000 0.0000 0.0000 0.0000 0.0000 22.2394
#
#
#
# Elastic Compliance Matrix: (Units=1/GPa)
#
#
# Indices 1 2 3 4 5 6 
#
# 1 0.016255 -0.006227 -0.002670 0.000000 0.000000 0.000000
# 2 -0.006227 0.016255 -0.002670 0.000000 0.000000 0.000000
# 3 -0.002670 -0.002670 0.012453 0.000000 0.000000 0.000000
# 4 0.000000 0.000000 0.000000 -0.005432 0.000000 0.000000
# 5 0.000000 0.000000 0.000000 0.000000 -0.005432 0.000000
# 6 0.000000 0.000000 0.000000 0.000000 0.000000 0.044965
#
#
# Mechanical properties :
#
#
# Convention : Reuss Voigt Hill
#
# Bulk Modulus (GPa) = 45.81334 45.81887 45.81611
# Shear Modulus (GPa) = 45.67270 -58.15865 -6.24298
#
# Velocity S-wave (km/s) = 4.86503 -5.48989 -1.79868
# Velocity P-wave (km/s) = 7.43635 4.05475 4.40785
#
# Compressibility (1/GPa) = 0.02182770
#
# Stress axis : x y z
#
# Youngs Moduli (GPa) = 61.51904 61.51904 80.30348
#
# Poissons Ratio (x) = 0.38311 0.21442
# Poissons Ratio (y) = 0.38311 0.21442
# Poissons Ratio (z) = 0.16426 0.16426
#
# Static dielectric constant tensor:
#      x y z
#    x 1.688700 0.000000 0.000000 
#    y 0.000000 1.688700 0.000000 
#    z 0.000000 0.000000 1.651780 
# 
# From -- ./inp_files/3728.got.cif
#   From: 2010.05.17/outbox.cif.g08.bks.cpg/sg189_2_cif.got.tgz:3728.got - 2010.05.20 12:14:34.
