data_PCOD9586181
_publ_section_title
;
Structure prediction by ZEFSAII (Michael W. Deem and Ramdas Pophale) SiO2 
 PCOD9586181
Probable space group: P -6 2 M
;
_chemical_formula_sum "Si O2"
_cell_formula_units_Z 60
_cell_length_a 28.169372
_cell_length_b 28.169372
_cell_length_c 8.963140
_cell_angle_alpha 90.000000
_cell_angle_beta 90.000000
_cell_angle_gamma 120.000000
_cell_volume 6159.495493
_symmetry_space_group_name_H-M "P -6 2 M"
_symmetry_group_IT_number 189
_symmetry_cell_setting 'hexagonal'
loop_
_space_group_symop_operation_xyz
x,y,z
-x+y,-x,-z
-y,x-y,z
x,y,-z
-x+y,-x,z
-y,x-y,-z
x-y,-y,-z
-x,-x+y,-z
y,x,-z
y,x,z
x-y,-y,z
-x,-x+y,z
loop_
_atom_site_type_symbol
_atom_site_label
_atom_site_fract_x
_atom_site_fract_y
_atom_site_fract_z
Si Si1 0.607955 0.112604 0.327532
Si Si2 0.440119 0.672375 0.681559
Si Si3 0.563727 0.563727 0.829412
Si Si4 0.773183 0.435552 0.820682
Si Si5 0.491610 0.110786 0.670557
Si Si6 0.448000 0.448000 0.826297
O O1 0.625509 0.118117 0.500000
O O2 0.647343 0.166079 0.231960
O O3 0.549216 0.110572 0.327424
O O4 0.595690 0.055449 0.255759
O O5 0.435866 0.670852 0.500000
O O6 0.446895 0.727702 0.749202
O O7 0.385095 0.621754 0.750601
O O8 0.490114 0.662044 0.724115
O O9 0.608360 0.551540 0.756237
O O10 0.505887 0.505887 0.820693
O O11 0.577506 0.577506 0.000000
O O12 0.769318 0.431764 0.000000
O O13 0.473684 0.105657 0.500000
O O14 0.434636 0.434636 0.000000
#
# Coordination Sequence:
#
# PCOD9586181 Si02
#       6
#    12  12   6  12  12   6
#     4   9  16  26  37  48  61  78  95 111 134 166
#     4  10  19  30  39  46  58  78  99 117 137 166
#     4   9  15  21  33  49  63  73  83 105 135 161
#     4  11  20  28  37  49  62  76  95 120 143 164
#     4   8  15  25  36  46  57  73  92 110 130 158
#     4   9  15  23  35  51  65  75  89 113 139 161
#
# _framework density 9.7410569999999996
#
# number of rings (size 3 to 8) (size 9 to 14) (size 15 to 20)
#    0.000    2.600    0.000    5.200    0.000    8.000 
#    0.000    0.000    0.000    0.000    0.000    0.000 
#    0.000    0.000    0.000    0.000    0.000    0.000 
#
# Total GULP energy -334016.256976 kJ/mol
# GULP energy per Si atom -5566.937616 kJ/mol
# Density = 0.971889 g / cm^3
# Si number density = 9.741057 Si / 1000 Ang^3
#
#
#
# Elastic Constant Matrix: (Units=GPa)
#
#
# Indices 1 2 3 4 5 6 
#
# 1 48.7966 35.8915 31.8434 0.0000 0.0000 0.0000
# 2 35.8915 48.7966 31.8434 0.0000 0.0000 0.0000
# 3 31.8434 31.8434 70.9957 0.0000 0.0000 0.0000
# 4 0.0000 0.0000 0.0000 11.2743 0.0000 0.0000
# 5 0.0000 0.0000 0.0000 0.0000 11.2743 0.0000
# 6 0.0000 0.0000 0.0000 0.0000 0.0000 6.4525
#
#
#
# Elastic Compliance Matrix: (Units=1/GPa)
#
#
# Indices 1 2 3 4 5 6 
#
# 1 0.047653 -0.029835 -0.007992 0.000000 0.000000 0.000000
# 2 -0.029835 0.047653 -0.007992 0.000000 0.000000 0.000000
# 3 -0.007992 -0.007992 0.021254 0.000000 0.000000 0.000000
# 4 0.000000 0.000000 0.000000 0.088697 0.000000 0.000000
# 5 0.000000 0.000000 0.000000 0.000000 0.088697 0.000000
# 6 0.000000 0.000000 0.000000 0.000000 0.000000 0.154978
#
#
# Mechanical properties :
#
#
# Convention : Reuss Voigt Hill
#
# Bulk Modulus (GPa) = 40.12339 40.86063 40.49201
# Shear Modulus (GPa) = 9.10947 10.40095 9.75521
#
# Velocity S-wave (km/s) = 3.06136 3.27118 3.16801
# Velocity P-wave (km/s) = 7.33316 7.50369 7.41892
#
# Compressibility (1/GPa) = 0.02492312
#
# Stress axis : x y z
#
# Youngs Moduli (GPa) = 20.98484 20.98484 47.04900
#
# Poissons Ratio (x) = 0.62609 0.37601
# Poissons Ratio (y) = 0.62609 0.37601
# Poissons Ratio (z) = 0.16771 0.16771
#
# Static dielectric constant tensor:
#      x y z
#    x 1.303120 0.000000 0.000000 
#    y 0.000000 1.303120 0.000000 
#    z 0.000000 0.000000 1.327100 
# 
# From -- ./inp_files/1172.got.cif
#   From: 2010.05.17/outbox.cif.g08.bks.cpg/sg189_1_cif.got.tgz:1172.got - 2010.05.20 12:14:34.
