data_PCOD9586012
_publ_section_title
;
Structure prediction by ZEFSAII (Michael W. Deem and Ramdas Pophale) SiO2 
 PCOD9586012
Probable space group: P -6 C 2
;
_chemical_formula_sum "Si O2"
_cell_formula_units_Z 52
_cell_length_a 13.779912
_cell_length_b 13.779912
_cell_length_c 14.069699
_cell_angle_alpha 90.000000
_cell_angle_beta 90.000000
_cell_angle_gamma 120.000000
_cell_volume 2313.706818
_symmetry_space_group_name_H-M "P -6 C 2"
_symmetry_group_IT_number 188
_symmetry_cell_setting 'hexagonal'
loop_
_space_group_symop_operation_xyz
x,y,z
-x+y,-x,1/2-z
-y,x-y,z
x,y,1/2-z
-x+y,-x,z
-y,x-y,1/2-z
-y,-x,-z
-x+y,y,-z
x,x-y,-z
-x+y,y,1/2+z
x,x-y,1/2+z
-y,-x,1/2+z
loop_
_atom_site_type_symbol
_atom_site_label
_atom_site_fract_x
_atom_site_fract_y
_atom_site_fract_z
Si Si1 0.000000 0.000000 0.387496
Si Si2 0.807107 0.659618 0.138263
Si Si3 0.142236 0.896477 0.143545
Si Si4 0.443995 0.437179 0.641087
Si Si5 0.640177 0.658746 0.943393
O O1 0.090606 0.123048 0.355285
O O2 0.000000 0.000000 0.500000
O O3 0.841907 0.672546 0.250000
O O4 0.786307 0.763715 0.113450
O O5 0.679757 0.553212 0.134259
O O6 0.899206 0.653597 0.073851
O O7 0.170135 0.881654 0.250000
O O8 0.109083 0.783326 0.088621
O O9 0.407219 0.438283 0.750000
O O10 0.553153 0.555659 0.622062
O O11 0.367801 0.417844 0.547568
#
# Coordination Sequence:
#
# PCOD9586012 Si02
#       5
#     4  12  12  12  12
#     4  12  25  32  55  96 142 185 215 278 349 441
#     4  10  21  37  62  95 132 171 220 286 349 416
#     4  11  22  38  63  96 135 178 230 288 353 425
#     4  10  23  41  59  88 131 179 233 285 340 416
#     4  11  22  39  68  93 128 183 231 288 359 422
#
# _framework density 22.474755999999999
#
# number of rings (size 3 to 8) (size 9 to 14) (size 15 to 20)
#    0.000    1.385    2.308    3.462    3.231    0.000 
#    1.385    0.000    0.000    2.308    0.000    3.231 
#    0.000    0.000    0.000    0.000    0.000    0.000 
#
# Total GULP energy -289789.560904 kJ/mol
# GULP energy per Si atom -5572.876171 kJ/mol
# Density = 2.242360 g / cm^3
# Si number density = 22.474756 Si / 1000 Ang^3
#
#
#
# Elastic Constant Matrix: (Units=GPa)
#
#
# Indices 1 2 3 4 5 6 
#
# 1 142.6529 65.1875 69.7449 0.0000 0.0000 0.0000
# 2 65.1875 142.6529 69.7449 0.0000 0.0000 0.0000
# 3 69.7449 69.7449 184.8510 0.0000 0.0000 0.0000
# 4 0.0000 0.0000 0.0000 30.1277 0.0000 0.0000
# 5 0.0000 0.0000 0.0000 0.0000 30.1277 0.0000
# 6 0.0000 0.0000 0.0000 0.0000 0.0000 38.7327
#
#
#
# Elastic Compliance Matrix: (Units=1/GPa)
#
#
# Indices 1 2 3 4 5 6 
#
# 1 0.009676 -0.003233 -0.002431 0.000000 0.000000 0.000000
# 2 -0.003233 0.009676 -0.002431 0.000000 0.000000 0.000000
# 3 -0.002431 -0.002431 0.007244 0.000000 0.000000 0.000000
# 4 0.000000 0.000000 0.000000 0.033192 0.000000 0.000000
# 5 0.000000 0.000000 0.000000 0.000000 0.033192 0.000000
# 6 0.000000 0.000000 0.000000 0.000000 0.000000 0.025818
#
#
# Mechanical properties :
#
#
# Convention : Reuss Voigt Hill
#
# Bulk Modulus (GPa) = 96.09639 97.72350 96.90994
# Shear Modulus (GPa) = 36.11241 37.49626 36.80433
#
# Velocity S-wave (km/s) = 4.01284 4.08900 4.05110
# Velocity P-wave (km/s) = 8.02002 8.11598 8.06814
#
# Compressibility (1/GPa) = 0.01040622
#
# Stress axis : x y z
#
# Youngs Moduli (GPa) = 103.34926 103.34926 138.04239
#
# Poissons Ratio (x) = 0.33413 0.33557
# Poissons Ratio (y) = 0.33413 0.33557
# Poissons Ratio (z) = 0.25123 0.25123
#
# Static dielectric constant tensor:
#      x y z
#    x 1.880450 0.000000 0.000000 
#    y 0.000000 1.880450 0.000000 
#    z 0.000000 0.000000 1.951520 
# 
# From -- ./inp_files/2174.got.cif
#   From: 2010.05.17/outbox.cif.g08.bks.cpg/sg188_2_cif.got.tgz:2174.got - 2010.05.20 12:11:46.
