data_PCOD9586845
_publ_section_title
;
Structure prediction by ZEFSAII (Michael W. Deem and Ramdas Pophale) SiO2 
 PCOD9586845
Probable space group: P -6 2 C
;
_chemical_formula_sum "Si O2"
_cell_formula_units_Z 40
_cell_length_a 11.706928
_cell_length_b 11.706928
_cell_length_c 17.396883
_cell_angle_alpha 90.000000
_cell_angle_beta 90.000000
_cell_angle_gamma 120.000000
_cell_volume 2064.847438
_symmetry_space_group_name_H-M "P -6 2 C"
_symmetry_group_IT_number 190
_symmetry_cell_setting 'hexagonal'
loop_
_space_group_symop_operation_xyz
x,y,z
-x+y,-x,1/2-z
-y,x-y,z
x,y,1/2-z
-x+y,-x,z
-y,x-y,1/2-z
x-y,-y,-z
-x,-x+y,-z
y,x,-z
y,x,1/2+z
x-y,-y,1/2+z
-x,-x+y,1/2+z
loop_
_atom_site_type_symbol
_atom_site_label
_atom_site_fract_x
_atom_site_fract_y
_atom_site_fract_z
Si Si1 0.747955 0.752122 0.657724
Si Si2 0.333334 0.666668 0.656929
Si Si3 0.494789 0.971868 0.842686
Si Si4 0.745510 0.995393 0.091397
O O1 0.754678 0.762523 0.750000
O O2 0.629004 0.605828 0.637816
O O3 0.883953 0.773750 0.624033
O O4 0.719254 0.864166 0.625992
O O5 0.333334 0.666668 0.750000
O O6 0.400380 0.582345 0.633441
O O7 0.512000 0.979151 0.750000
O O8 0.636638 0.035541 0.881622
O O9 0.754798 0.000000 0.000000
#
# Coordination Sequence:
#
# PCOD9586845 Si02
#       4
#    12   4  12  12
#     4  11  23  42  67  90 119 164 216 255 292 359
#     4   9  15  33  66  93 105 138 211 263 283 333
#     4  10  20  39  66  90 114 155 209 256 293 357
#     4  12  25  40  61  93 131 161 196 254 320 369
#
# _framework density 19.371891999999999
#
# number of rings (size 3 to 8) (size 9 to 14) (size 15 to 20)
#    0.000    1.200    3.000    4.200    0.000    2.400 
#    1.800    0.000    0.000    0.000    0.000    0.000 
#    0.000    0.000    0.000    0.000    0.000    0.000 
#
# Total GULP energy -223555.376177 kJ/mol
# GULP energy per Si atom -5588.884404 kJ/mol
# Density = 1.932780 g / cm^3
# Si number density = 19.371892 Si / 1000 Ang^3
#
#
#
# Elastic Constant Matrix: (Units=GPa)
#
#
# Indices 1 2 3 4 5 6 
#
# 1 88.4546 17.5335 36.9670 0.0000 0.0000 0.0001
# 2 17.5335 88.4553 36.9670 0.0000 0.0000 0.0000
# 3 36.9670 36.9670 87.9355 0.0000 0.0000 0.0000
# 4 0.0000 0.0000 0.0000 11.7027 0.0001 0.0000
# 5 0.0000 0.0000 0.0000 0.0001 11.7025 0.0000
# 6 0.0001 0.0000 0.0000 0.0000 0.0000 35.4604
#
#
#
# Elastic Compliance Matrix: (Units=1/GPa)
#
#
# Indices 1 2 3 4 5 6 
#
# 1 0.013725 -0.000375 -0.005612 0.000000 0.000000 0.000000
# 2 -0.000375 0.013725 -0.005612 0.000000 0.000000 0.000000
# 3 -0.005612 -0.005612 0.016090 0.000000 0.000000 0.000000
# 4 0.000000 0.000000 0.000000 0.085451 -0.000001 0.000000
# 5 0.000000 0.000000 0.000000 -0.000001 0.085452 0.000000
# 6 0.000000 0.000000 0.000000 0.000000 0.000000 0.028200
#
#
# Mechanical properties :
#
#
# Convention : Reuss Voigt Hill
#
# Bulk Modulus (GPa) = 49.16007 49.75337 49.45672
# Shear Modulus (GPa) = 18.34037 23.33164 20.83601
#
# Velocity S-wave (km/s) = 3.08027 3.47422 3.28316
# Velocity P-wave (km/s) = 6.17113 6.46782 6.32122
#
# Compressibility (1/GPa) = 0.02034171
#
# Stress axis : x y z
#
# Youngs Moduli (GPa) = 72.85964 72.86042 62.14864
#
# Poissons Ratio (x) = 0.02733 0.34879
# Poissons Ratio (y) = 0.02733 0.34878
# Poissons Ratio (z) = 0.40890 0.40890
#
# Static dielectric constant tensor:
#      x y z
#    x 1.662210 0.000000 0.000000 
#    y 0.000000 1.662210 0.000000 
#    z 0.000000 0.000000 1.644160 
# 
# From -- ./inp_files/3399.got.cif
#   From: 2010.05.17/outbox.cif.g08.bks.cpg/sg190_2_cif.got.tgz:3399.got - 2010.05.20 12:16:56.
