data_PCOD9586490
_publ_section_title
;
Structure prediction by ZEFSAII (Michael W. Deem and Ramdas Pophale) SiO2 
 PCOD9586490
Probable space group: P -6 2 M
;
_chemical_formula_sum "Si O2"
_cell_formula_units_Z 63
_cell_length_a 14.218530
_cell_length_b 14.218530
_cell_length_c 16.631774
_cell_angle_alpha 90.000000
_cell_angle_beta 90.000000
_cell_angle_gamma 120.000000
_cell_volume 2911.914399
_symmetry_space_group_name_H-M "P -6 2 M"
_symmetry_group_IT_number 189
_symmetry_cell_setting 'hexagonal'
loop_
_space_group_symop_operation_xyz
x,y,z
-x+y,-x,-z
-y,x-y,z
x,y,-z
-x+y,-x,z
-y,x-y,-z
x-y,-y,-z
-x,-x+y,-z
y,x,-z
y,x,z
x-y,-y,z
-x,-x+y,z
loop_
_atom_site_type_symbol
_atom_site_label
_atom_site_fract_x
_atom_site_fract_y
_atom_site_fract_z
Si Si1 0.683962 0.554318 0.910417
Si Si2 0.416536 0.546160 0.588267
Si Si3 0.437951 0.565329 0.238089
Si Si4 0.806246 0.128425 0.622148
Si Si5 0.123633 0.781792 0.802390
Si Si6 0.000000 0.262873 0.500000
O O1 0.603850 0.603850 0.914578
O O2 0.641640 0.466695 0.838734
O O3 0.799188 0.644324 0.875675
O O4 0.690962 0.517006 0.000000
O O5 0.422667 0.595934 0.500000
O O6 0.503765 0.503765 0.585779
O O7 0.434379 0.608711 0.672773
O O8 0.300267 0.436881 0.599675
O O9 0.529171 0.529171 0.243863
O O10 0.328183 0.455512 0.216545
O O11 0.838108 0.154579 0.715606
O O12 0.904902 0.208845 0.568579
O O13 0.766267 0.000000 0.609290
O O14 0.000000 0.745020 0.820045
#
# Coordination Sequence:
#
# PCOD9586490 Si02
#       6
#    12  12  12  12  12   3
#     4  10  21  36  56  82 114 145 181 244 309 354
#     4   8  12  24  48  70  97 135 182 226 273 341
#     4   8  16  32  54  79 105 137 177 229 287 349
#     4   9  18  30  44  72 108 154 203 245 291 346
#     4   9  19  37  60  80 111 159 201 233 287 367
#     4  12  18  24  48  76 114 152 196 270 298 332
#
# _framework density 21.635249999999999
#
# number of rings (size 3 to 8) (size 9 to 14) (size 15 to 20)
#    0.000    3.048    0.952    2.571    1.333    1.143 
#    3.429    1.905    2.095    0.381    0.000    0.000 
#    0.000    0.000    0.000    0.000    0.000    0.000 
#
# Total GULP energy -350752.991106 kJ/mol
# GULP energy per Si atom -5567.507795 kJ/mol
# Density = 2.158601 g / cm^3
# Si number density = 21.635250 Si / 1000 Ang^3
#
#
#
# Elastic Constant Matrix: (Units=GPa)
#
#
# Indices 1 2 3 4 5 6 
#
# 1 34.4646 1.8939 26.5105 0.0000 0.0000 0.0000
# 2 1.8939 34.4646 26.5105 0.0000 0.0000 0.0000
# 3 26.5105 26.5105 207.6575 0.0000 0.0000 0.0000
# 4 0.0000 0.0000 0.0000 24.2314 0.0000 0.0000
# 5 0.0000 0.0000 0.0000 0.0000 24.2314 0.0000
# 6 0.0000 0.0000 0.0000 0.0000 0.0000 16.2854
#
#
#
# Elastic Compliance Matrix: (Units=1/GPa)
#
#
# Indices 1 2 3 4 5 6 
#
# 1 0.032249 0.001547 -0.004315 0.000000 0.000000 0.000000
# 2 0.001547 0.032249 -0.004315 0.000000 0.000000 0.000000
# 3 -0.004315 -0.004315 0.005917 0.000000 0.000000 0.000000
# 4 0.000000 0.000000 0.000000 0.041269 0.000000 0.000000
# 5 0.000000 0.000000 0.000000 0.000000 0.041269 0.000000
# 6 0.000000 0.000000 0.000000 0.000000 0.000000 0.061405
#
#
# Mechanical properties :
#
#
# Convention : Reuss Voigt Hill
#
# Bulk Modulus (GPa) = 17.77761 42.93514 30.35638
# Shear Modulus (GPa) = 20.22059 27.72774 23.97417
#
# Velocity S-wave (km/s) = 3.06046 3.58383 3.33244
# Velocity P-wave (km/s) = 4.55229 6.08385 5.37292
#
# Compressibility (1/GPa) = 0.05625053
#
# Stress axis : x y z
#
# Youngs Moduli (GPa) = 31.00869 31.00869 168.99774
#
# Poissons Ratio (x) = -0.04796 0.72914
# Poissons Ratio (y) = -0.04796 0.72914
# Poissons Ratio (z) = 0.13379 0.13379
#
# Static dielectric constant tensor:
#      x y z
#    x 1.814620 0.000000 0.000000 
#    y 0.000000 1.814620 0.000000 
#    z 0.000000 0.000000 1.822660 
# 
# From -- ./inp_files/3024.got.cif
#   From: 2010.05.17/outbox.cif.g08.bks.cpg/sg189_2_cif.got.tgz:3024.got - 2010.05.20 12:14:34.
