data_PCOD9586523
_publ_section_title
;
Structure prediction by ZEFSAII (Michael W. Deem and Ramdas Pophale) SiO2 
 PCOD9586523
Probable space group: P -6 2 M
;
_chemical_formula_sum "Si O2"
_cell_formula_units_Z 40
_cell_length_a 14.960493
_cell_length_b 14.960493
_cell_length_c 8.514973
_cell_angle_alpha 90.000000
_cell_angle_beta 90.000000
_cell_angle_gamma 120.000000
_cell_volume 1650.462714
_symmetry_space_group_name_H-M "P -6 2 M"
_symmetry_group_IT_number 189
_symmetry_cell_setting 'hexagonal'
loop_
_space_group_symop_operation_xyz
x,y,z
-x+y,-x,-z
-y,x-y,z
x,y,-z
-x+y,-x,z
-y,x-y,-z
x-y,-y,-z
-x,-x+y,-z
y,x,-z
y,x,z
x-y,-y,z
-x,-x+y,z
loop_
_atom_site_type_symbol
_atom_site_label
_atom_site_fract_x
_atom_site_fract_y
_atom_site_fract_z
Si Si1 0.238594 0.117111 0.312090
Si Si2 0.392960 0.881985 0.318123
Si Si3 0.666668 0.333334 0.184580
Si Si4 0.580376 0.878931 0.176658
O O1 0.253126 0.122253 0.500000
O O2 0.164279 0.164279 0.280271
O O3 0.350185 0.182147 0.234016
O O4 0.182973 0.000000 0.259907
O O5 0.363280 0.875938 0.500000
O O6 0.325133 0.767054 0.240243
O O7 0.500998 0.882465 0.298011
O O8 0.424851 0.000000 0.260795
O O9 0.666667 0.333334 0.000000
O O10 0.664640 0.000000 0.163254
O O11 0.536818 0.847665 0.000000
#
# Coordination Sequence:
#
# PCOD9586523 Si02
#       4
#    12  12   4  12
#     4   9  16  26  41  63  94 136 188 245 305 371
#     4  10  21  40  66  93 124 164 211 263 315 375
#     4  12  25  41  67 102 139 176 214 264 328 398
#     4   9  17  30  49  73 102 138 182 234 295 360
#
# _framework density 24.235627999999998
#
# number of rings (size 3 to 8) (size 9 to 14) (size 15 to 20)
#    0.000    2.400    0.000    3.000    0.000    7.200 
#    0.000    1.500    0.000   10.800    0.000    0.000 
#    0.000    0.000    0.000    0.900    0.000   17.400 
#
# Total GULP energy -222889.002496 kJ/mol
# GULP energy per Si atom -5572.225062 kJ/mol
# Density = 2.418047 g / cm^3
# Si number density = 24.235628 Si / 1000 Ang^3
#
#
#
# Elastic Constant Matrix: (Units=GPa)
#
#
# Indices 1 2 3 4 5 6 
#
# 1 113.9291 18.8449 4.4748 0.0000 -0.0001 -0.0002
# 2 18.8449 113.9283 4.4744 -0.0001 -0.0001 -0.0003
# 3 4.4748 4.4744 35.0327 0.0001 -0.0003 -0.0002
# 4 0.0000 -0.0001 0.0001 5.7261 -0.0001 0.0000
# 5 -0.0001 -0.0001 -0.0003 -0.0001 5.7269 0.0000
# 6 -0.0002 -0.0003 -0.0002 0.0000 0.0000 47.5420
#
#
#
# Elastic Compliance Matrix: (Units=1/GPa)
#
#
# Indices 1 2 3 4 5 6 
#
# 1 0.009057 -0.001460 -0.000970 0.000000 0.000000 0.000000
# 2 -0.001460 0.009057 -0.000970 0.000000 0.000000 0.000000
# 3 -0.000970 -0.000970 0.028793 0.000000 0.000001 0.000000
# 4 0.000000 0.000000 0.000000 0.174638 0.000002 0.000000
# 5 0.000000 0.000000 0.000001 0.000002 0.174614 0.000000
# 6 0.000000 0.000000 0.000000 0.000000 0.000000 0.021034
#
#
# Mechanical properties :
#
#
# Convention : Reuss Voigt Hill
#
# Bulk Modulus (GPa) = 24.93438 35.38649 30.16044
# Shear Modulus (GPa) = 11.43217 27.47208 19.45212
#
# Velocity S-wave (km/s) = 2.17424 3.37046 2.83614
# Velocity P-wave (km/s) = 4.07600 5.45705 4.81628
#
# Compressibility (1/GPa) = 0.04010526
#
# Stress axis : x y z
#
# Youngs Moduli (GPa) = 110.41180 110.41118 34.73115
#
# Poissons Ratio (x) = 0.16120 0.03370
# Poissons Ratio (y) = 0.16120 0.03370
# Poissons Ratio (z) = 0.10714 0.10713
#
# Static dielectric constant tensor:
#      x y z
#    x 2.047380 0.000000 0.000000 
#    y 0.000000 2.047390 0.000000 
#    z 0.000000 0.000000 1.938520 
# 
# From -- ./inp_files/487.got.cif
#   From: 2010.05.17/outbox.cif.g08.bks.cpg/sg189_1_cif.got.tgz:487.got - 2010.05.20 12:14:34.
