data_PCOD9586193
_publ_section_title
;
Structure prediction by ZEFSAII (Michael W. Deem and Ramdas Pophale) SiO2 
 PCOD9586193
Probable space group: P -6 2 M
;
_chemical_formula_sum "Si O2"
_cell_formula_units_Z 96
_cell_length_a 23.766596
_cell_length_b 23.766596
_cell_length_c 13.681700
_cell_angle_alpha 90.000000
_cell_angle_beta 90.000000
_cell_angle_gamma 120.000000
_cell_volume 6692.750924
_symmetry_space_group_name_H-M "P -6 2 M"
_symmetry_group_IT_number 189
_symmetry_cell_setting 'hexagonal'
loop_
_space_group_symop_operation_xyz
x,y,z
-x+y,-x,-z
-y,x-y,z
x,y,-z
-x+y,-x,z
-y,x-y,-z
x-y,-y,-z
-x,-x+y,-z
y,x,-z
y,x,z
x-y,-y,z
-x,-x+y,z
loop_
_atom_site_type_symbol
_atom_site_label
_atom_site_fract_x
_atom_site_fract_y
_atom_site_fract_z
Si Si1 0.744916 0.928182 0.117689
Si Si2 0.774137 0.289177 0.384010
Si Si3 0.561811 0.376366 0.384563
Si Si4 0.209542 0.923024 0.883434
Si Si5 0.593054 0.074969 0.768382
Si Si6 0.837449 0.263142 0.795441
Si Si7 0.926681 0.402231 0.883753
Si Si8 0.133382 0.727056 0.883349
O O1 0.753954 0.867049 0.141471
O O2 0.670280 0.905348 0.143354
O O3 0.793794 0.000000 0.156952
O O4 0.748207 0.932520 0.000000
O O5 0.785240 0.284745 0.500000
O O6 0.697580 0.241495 0.364024
O O7 0.791557 0.363024 0.362852
O O8 0.816244 0.269811 0.313901
O O9 0.552482 0.380543 0.500000
O O10 0.515258 0.393006 0.322613
O O11 0.240149 0.889927 0.815795
O O12 0.245859 0.000000 0.872580
O O13 0.215272 0.909030 0.000000
O O14 0.538918 0.078261 0.834910
O O15 0.658568 0.100855 0.830051
O O16 0.564132 0.000000 0.740001
O O17 0.870930 0.334092 0.843391
O O18 0.773115 0.207637 0.849294
O O19 0.719320 0.130766 0.000000
O O20 0.000000 0.416520 0.861724
O O21 0.921377 0.403882 0.000000
#
# Coordination Sequence:
#
# PCOD9586193 Si02
#       8
#    12  12  12  12  12  12  12  12
#     4   8  14  25  42  63  87 118 155 193 224 253
#     4  10  20  35  56  72  86 113 153 203 250 287
#     4  10  20  37  55  72  90 114 155 204 248 290
#     4   9  17  28  44  68  97 129 160 188 223 271
#     4  11  21  32  47  68  95 128 155 187 235 281
#     4  11  18  30  50  68  91 118 155 197 235 275
#     4  10  20  32  46  66  94 127 158 187 226 280
#     4  10  19  30  45  67  94 125 156 189 227 273
#
# _framework density 14.343878999999999
#
# number of rings (size 3 to 8) (size 9 to 14) (size 15 to 20)
#    0.000    2.125    2.500    3.250    0.000    3.500 
#    0.000    0.000    0.000    1.750    0.000    5.250 
#    0.000    0.000    0.000    0.000    0.000    0.000 
#
# Total GULP energy -534815.559017 kJ/mol
# GULP energy per Si atom -5570.995406 kJ/mol
# Density = 1.431123 g / cm^3
# Si number density = 14.343879 Si / 1000 Ang^3
#
#
#
# Elastic Constant Matrix: (Units=GPa)
#
#
# Indices 1 2 3 4 5 6 
#
# 1 105.6639 60.6590 46.9881 0.0000 0.0000 0.0000
# 2 60.6590 105.6639 46.9881 0.0000 0.0000 0.0000
# 3 46.9881 46.9881 61.2323 0.0000 0.0000 0.0000
# 4 0.0000 0.0000 0.0000 18.9107 0.0000 0.0000
# 5 0.0000 0.0000 0.0000 0.0000 18.9107 0.0000
# 6 0.0000 0.0000 0.0000 0.0000 0.0000 22.5024
#
#
#
# Elastic Compliance Matrix: (Units=1/GPa)
#
#
# Indices 1 2 3 4 5 6 
#
# 1 0.016417 -0.005802 -0.008146 0.000000 0.000000 0.000000
# 2 -0.005802 0.016417 -0.008146 0.000000 0.000000 0.000000
# 3 -0.008146 -0.008146 0.028833 0.000000 0.000000 0.000000
# 4 0.000000 0.000000 0.000000 0.052880 0.000000 0.000000
# 5 0.000000 0.000000 0.000000 0.000000 0.052880 0.000000
# 6 0.000000 0.000000 0.000000 0.000000 0.000000 0.044440
#
#
# Mechanical properties :
#
#
# Convention : Reuss Voigt Hill
#
# Bulk Modulus (GPa) = 57.20797 64.64785 60.92791
# Shear Modulus (GPa) = 19.09263 19.92641 19.50952
#
# Velocity S-wave (km/s) = 3.65233 3.73123 3.69199
# Velocity P-wave (km/s) = 7.59973 7.98315 7.79379
#
# Compressibility (1/GPa) = 0.01748008
#
# Stress axis : x y z
#
# Youngs Moduli (GPa) = 60.91131 60.91131 34.68295
#
# Poissons Ratio (x) = 0.35344 0.28251
# Poissons Ratio (y) = 0.35344 0.28251
# Poissons Ratio (z) = 0.49616 0.49616
#
# Static dielectric constant tensor:
#      x y z
#    x 1.476670 0.000000 0.000000 
#    y 0.000000 1.476670 0.000000 
#    z 0.000000 0.000000 1.451120 
# 
# From -- ./inp_files/2291.got.cif
#   From: 2010.05.17/outbox.cif.g08.bks.cpg/sg189_2_cif.got.tgz:2291.got - 2010.05.20 12:14:34.
