data_PCOD9586594
_publ_section_title
;
Structure prediction by ZEFSAII (Michael W. Deem and Ramdas Pophale) SiO2 
 PCOD9586594
Probable space group: P -6 2 M
;
_chemical_formula_sum "Si O2"
_cell_formula_units_Z 72
_cell_length_a 15.000000
_cell_length_b 15.000000
_cell_length_c 21.000000
_cell_angle_alpha 90.000000
_cell_angle_beta 90.000000
_cell_angle_gamma 120.000000
_cell_volume 4091.970033
_symmetry_space_group_name_H-M "P -6 2 M"
_symmetry_group_IT_number 189
_symmetry_cell_setting 'hexagonal'
loop_
_space_group_symop_operation_xyz
x,y,z
-x+y,-x,-z
-y,x-y,z
x,y,-z
-x+y,-x,z
-y,x-y,-z
x-y,-y,-z
-x,-x+y,-z
y,x,-z
y,x,z
x-y,-y,z
-x,-x+y,z
loop_
_atom_site_type_symbol
_atom_site_label
_atom_site_fract_x
_atom_site_fract_y
_atom_site_fract_z
Si Si1 0.123204 0.879958 0.311115
Si Si2 0.439350 0.792057 0.000000
Si Si3 0.318283 0.438371 0.872868
Si Si4 0.875826 0.563609 0.631485
Si Si5 0.440114 0.877463 0.747460
Si Si6 0.455778 0.775482 0.500000
Si Si7 0.372946 0.119293 0.805054
O O1 0.147136 0.802341 0.351116
O O2 0.165575 0.875567 0.241209
O O3 0.000000 0.832474 0.311257
O O4 0.184055 0.000000 0.331346
O O5 0.318057 0.754128 0.000000
O O6 0.495540 0.852922 0.063208
O O7 0.351871 0.351871 0.872633
O O8 0.371770 0.509638 0.811163
O O9 0.197530 0.394904 0.862275
O O10 0.837603 0.474959 0.686184
O O11 0.829413 0.515630 0.563738
O O12 0.000000 0.619353 0.629562
O O13 0.323460 0.845488 0.764658
O O14 0.495101 0.000000 0.736901
O O15 0.423858 0.655414 0.500000
O O16 0.327728 0.000000 0.823731
#
# Coordination Sequence:
#
# PCOD9586594 Si02
#       7
#    12   6  12  12  12   6  12
#     4  10  20  36  60  89 120 152 194 246 301 357
#     4  10  23  38  54  82 113 146 190 232 284 342
#     4  11  20  37  59  83 115 153 193 239 291 347
#     4  10  20  39  59  83 117 156 193 243 298 352
#     4   9  19  33  55  82 112 148 191 235 288 344
#     4  10  25  38  54  82 115 152 198 242 294 356
#     4  10  20  33  54  87 119 151 194 241 292 351
#
# _framework density 17.595437
#
# number of rings (size 3 to 8) (size 9 to 14) (size 15 to 20)
#    0.333    1.667    1.667    2.167    2.333    0.000 
#    1.000    2.500    0.000    0.333    0.000    1.167 
#    0.000    0.000    0.000    0.000    0.000    0.000 
#
# Total GULP energy -401372.533901 kJ/mol
# GULP energy per Si atom -5574.618526 kJ/mol
# Density = 1.755539 g / cm^3
# Si number density = 17.595437 Si / 1000 Ang^3
#
#
#
# Elastic Constant Matrix: (Units=GPa)
#
#
# Indices 1 2 3 4 5 6 
#
# 1 75.1247 24.3793 5.0480 0.0000 0.0000 0.0000
# 2 24.3793 75.1247 5.0480 0.0000 0.0000 0.0000
# 3 5.0480 5.0480 11.6704 0.0000 0.0000 0.0000
# 4 0.0000 0.0000 0.0000 23.0348 0.0000 0.0000
# 5 0.0000 0.0000 0.0000 0.0000 23.0348 0.0000
# 6 0.0000 0.0000 0.0000 0.0000 0.0000 25.3727
#
#
#
# Elastic Compliance Matrix: (Units=1/GPa)
#
#
# Indices 1 2 3 4 5 6 
#
# 1 0.015109 -0.004598 -0.004547 0.000000 0.000000 0.000000
# 2 -0.004598 0.015109 -0.004547 0.000000 0.000000 0.000000
# 3 -0.004547 -0.004547 0.089620 0.000000 0.000000 0.000000
# 4 0.000000 0.000000 0.000000 0.043413 0.000000 0.000000
# 5 0.000000 0.000000 0.000000 0.000000 0.043413 0.000000
# 6 0.000000 0.000000 0.000000 0.000000 0.000000 0.039412
#
#
# Mechanical properties :
#
#
# Convention : Reuss Voigt Hill
#
# Bulk Modulus (GPa) = 10.81593 25.65226 18.23410
# Shear Modulus (GPa) = 16.43247 22.78475 19.60861
#
# Velocity S-wave (km/s) = 3.05930 3.60241 3.34191
# Velocity P-wave (km/s) = 4.31734 5.64922 5.02758
#
# Compressibility (1/GPa) = 0.09245624
#
# Stress axis : x y z
#
# Youngs Moduli (GPa) = 66.18705 66.18705 11.15818
#
# Poissons Ratio (x) = 0.30430 0.05073
# Poissons Ratio (y) = 0.30430 0.05073
# Poissons Ratio (z) = 0.30093 0.30093
#
# Static dielectric constant tensor:
#      x y z
#    x 1.615560 0.000000 0.000000 
#    y 0.000000 1.615560 0.000000 
#    z 0.000000 0.000000 1.572710 
# 
# From -- ./inp_files/3455.got.cif
#   From: 2010.05.17/outbox.ucp.g08.bks.cvg/sg189_2_cif.got.tgz:3455.got - 2010.06.11 15:22:13.
