data_PCOD9586112
_publ_section_title
;
Structure prediction by ZEFSAII (Michael W. Deem and Ramdas Pophale) SiO2 
 PCOD9586112
Probable space group: P -6 2 M
;
_chemical_formula_sum "Si O2"
_cell_formula_units_Z 50
_cell_length_a 13.746014
_cell_length_b 13.746014
_cell_length_c 16.969206
_cell_angle_alpha 90.000000
_cell_angle_beta 90.000000
_cell_angle_gamma 120.000000
_cell_volume 2776.807140
_symmetry_space_group_name_H-M "P -6 2 M"
_symmetry_group_IT_number 189
_symmetry_cell_setting 'hexagonal'
loop_
_space_group_symop_operation_xyz
x,y,z
-x+y,-x,-z
-y,x-y,z
x,y,-z
-x+y,-x,z
-y,x-y,-z
x-y,-y,-z
-x,-x+y,-z
y,x,-z
y,x,z
x-y,-y,z
-x,-x+y,z
loop_
_atom_site_type_symbol
_atom_site_label
_atom_site_fract_x
_atom_site_fract_y
_atom_site_fract_z
Si Si1 0.868161 0.528522 0.750436
Si Si2 0.000000 0.000000 0.596677
Si Si3 0.777715 0.777715 0.404735
Si Si4 0.791699 0.327184 0.000000
Si Si5 0.678439 0.548746 0.172674
Si Si6 0.749232 0.133931 0.590928
O O1 0.840695 0.410523 0.787331
O O2 0.797190 0.576604 0.792639
O O3 0.847836 0.524530 0.656567
O O4 0.000000 0.610547 0.763246
O O5 0.888924 0.888924 0.623383
O O6 0.000000 0.000000 0.500000
O O7 0.781627 0.781627 0.500000
O O8 0.791424 0.671495 0.384889
O O9 0.774091 0.435739 0.000000
O O10 0.851889 0.324668 0.920647
O O11 0.636758 0.636758 0.190090
O O12 0.734784 0.157683 0.500000
O O13 0.709596 0.000000 0.593355
#
# Coordination Sequence:
#
# PCOD9586112 Si02
#       6
#    12   2   6   6  12  12
#     4  10  21  37  56  80 112 147 182 228 276 321
#     4   9  12  18  36  66  93 129 183 232 281 313
#     4   9  14  22  40  66  97 136 185 234 273 312
#     4  10  17  34  60  82 113 138 172 228 276 326
#     4  11  21  36  58  83 113 144 178 224 278 334
#     4   9  17  29  46  70 104 145 186 227 270 315
#
# _framework density 18.006292999999999
#
# number of rings (size 3 to 8) (size 9 to 14) (size 15 to 20)
#    0.240    1.920    3.600    0.840    1.680    0.000 
#    0.000    1.800    0.000    1.920    0.000    0.000 
#    0.000    0.000    0.000    0.000    0.000    0.000 
#
# Total GULP energy -278708.342287 kJ/mol
# GULP energy per Si atom -5574.166846 kJ/mol
# Density = 1.796531 g / cm^3
# Si number density = 18.006293 Si / 1000 Ang^3
#
#
#
# Elastic Constant Matrix: (Units=GPa)
#
#
# Indices 1 2 3 4 5 6 
#
# 1 33.9307 11.7939 24.5524 0.0000 0.0000 0.0000
# 2 11.7939 33.9307 24.5524 0.0000 0.0000 0.0000
# 3 24.5524 24.5524 110.1002 0.0000 0.0000 0.0000
# 4 0.0000 0.0000 0.0000 17.6179 0.0000 0.0000
# 5 0.0000 0.0000 0.0000 0.0000 17.6179 0.0000
# 6 0.0000 0.0000 0.0000 0.0000 0.0000 11.0684
#
#
#
# Elastic Compliance Matrix: (Units=1/GPa)
#
#
# Indices 1 2 3 4 5 6 
#
# 1 0.036965 -0.008208 -0.006413 0.000000 0.000000 0.000000
# 2 -0.008208 0.036965 -0.006413 0.000000 0.000000 0.000000
# 3 -0.006413 -0.006413 0.011943 0.000000 0.000000 0.000000
# 4 0.000000 0.000000 0.000000 0.056760 0.000000 0.000000
# 5 0.000000 0.000000 0.000000 0.000000 0.056760 0.000000
# 6 0.000000 0.000000 0.000000 0.000000 0.000000 0.090347
#
#
# Mechanical properties :
#
#
# Convention : Reuss Voigt Hill
#
# Bulk Modulus (GPa) = 22.82821 33.30656 28.06738
# Shear Modulus (GPa) = 14.43371 17.06504 15.74937
#
# Velocity S-wave (km/s) = 2.83431 3.08186 2.96067
# Velocity P-wave (km/s) = 4.83906 5.58580 5.22578
#
# Compressibility (1/GPa) = 0.04380545
#
# Stress axis : x y z
#
# Youngs Moduli (GPa) = 27.05236 27.05236 83.73270
#
# Poissons Ratio (x) = 0.22206 0.53696
# Poissons Ratio (y) = 0.22206 0.53696
# Poissons Ratio (z) = 0.17348 0.17348
#
# Static dielectric constant tensor:
#      x y z
#    x 1.620580 0.000000 0.000000 
#    y 0.000000 1.620580 0.000000 
#    z 0.000000 0.000000 1.617610 
# 
# From -- ./inp_files/2481.got.cif
#   From: 2010.05.17/outbox.cif.g08.bks.cpg/sg189_2_cif.got.tgz:2481.got - 2010.05.20 12:14:34.
