data_PCOD9586280
_publ_section_title
;
Structure prediction by ZEFSAII (Michael W. Deem and Ramdas Pophale) SiO2 
 PCOD9586280
Probable space group: P -6 2 M
;
_chemical_formula_sum "Si O2"
_cell_formula_units_Z 58
_cell_length_a 14.031380
_cell_length_b 14.031380
_cell_length_c 17.704131
_cell_angle_alpha 90.000000
_cell_angle_beta 90.000000
_cell_angle_gamma 120.000000
_cell_volume 3018.603137
_symmetry_space_group_name_H-M "P -6 2 M"
_symmetry_group_IT_number 189
_symmetry_cell_setting 'hexagonal'
loop_
_space_group_symop_operation_xyz
x,y,z
-x+y,-x,-z
-y,x-y,z
x,y,-z
-x+y,-x,z
-y,x-y,-z
x-y,-y,-z
-x,-x+y,-z
y,x,-z
y,x,z
x-y,-y,z
-x,-x+y,z
loop_
_atom_site_type_symbol
_atom_site_label
_atom_site_fract_x
_atom_site_fract_y
_atom_site_fract_z
Si Si1 0.562619 0.436406 0.315964
Si Si2 0.739632 0.868587 0.910295
Si Si3 0.333334 0.666667 0.411881
Si Si4 0.869173 0.131537 0.500000
Si Si5 0.788127 0.663528 0.665258
Si Si6 0.715135 0.124140 0.204698
O O1 0.468712 0.468712 0.330760
O O2 0.579677 0.365688 0.379375
O O3 0.675778 0.551277 0.314819
O O4 0.529411 0.363736 0.239585
O O5 0.803835 0.803835 0.890294
O O6 0.627655 0.824746 0.862397
O O7 0.817677 0.000000 0.894834
O O8 0.718468 0.857171 0.000000
O O9 0.333334 0.666668 0.500000
O O10 0.848574 0.179277 0.422520
O O11 0.000000 0.174075 0.500000
O O12 0.798403 0.000000 0.500000
O O13 0.761973 0.761973 0.677885
O O14 0.873385 0.661080 0.723289
O O15 0.632432 0.000000 0.179818
#
# Coordination Sequence:
#
# PCOD9586280 Si02
#       6
#    12  12   4   6  12  12
#     4  10  22  38  55  78 107 143 186 232 288 344
#     4   9  17  30  52  84 120 153 185 227 282 345
#     4  12  24  39  60  84 109 143 190 246 303 351
#     4  10  21  36  54  76 106 144 189 240 298 356
#     4  10  20  34  52  75 105 145 186 232 285 338
#     4  10  19  33  53  77 106 143 186 230 278 336
#
# _framework density 19.214185000000001
#
# number of rings (size 3 to 8) (size 9 to 14) (size 15 to 20)
#    0.000    2.069    2.069    1.552    1.448    1.241 
#    0.000    0.000    0.000    7.862    0.000    5.793 
#    0.000    0.000    0.000    0.000    0.000    0.000 
#
# Total GULP energy -323084.433703 kJ/mol
# GULP energy per Si atom -5570.421271 kJ/mol
# Density = 1.917045 g / cm^3
# Si number density = 19.214185 Si / 1000 Ang^3
#
#
#
# Elastic Constant Matrix: (Units=GPa)
#
#
# Indices 1 2 3 4 5 6 
#
# 1 76.6371 34.3204 35.0793 0.0000 0.0001 0.0000
# 2 34.3204 76.6376 35.0791 0.0000 -0.0001 0.0001
# 3 35.0793 35.0791 82.3841 -0.0001 0.0000 -0.0001
# 4 0.0000 0.0000 -0.0001 24.5096 0.0000 0.0001
# 5 0.0001 -0.0001 0.0000 0.0000 24.5097 0.0000
# 6 0.0000 0.0001 -0.0001 0.0001 0.0000 21.1581
#
#
#
# Elastic Compliance Matrix: (Units=1/GPa)
#
#
# Indices 1 2 3 4 5 6 
#
# 1 0.017982 -0.005649 -0.005251 0.000000 0.000000 0.000000
# 2 -0.005649 0.017982 -0.005251 0.000000 0.000000 0.000000
# 3 -0.005251 -0.005251 0.016610 0.000000 0.000000 0.000000
# 4 0.000000 0.000000 0.000000 0.040800 0.000000 0.000000
# 5 0.000000 0.000000 0.000000 0.000000 0.040800 0.000000
# 6 0.000000 0.000000 0.000000 0.000000 0.000000 0.047263
#
#
# Mechanical properties :
#
#
# Convention : Reuss Voigt Hill
#
# Bulk Modulus (GPa) = 49.33236 49.40182 49.36709
# Shear Modulus (GPa) = 22.67587 22.78081 22.72834
#
# Velocity S-wave (km/s) = 3.43908 3.44703 3.44305
# Velocity P-wave (km/s) = 6.44208 6.45055 6.44631
#
# Compressibility (1/GPa) = 0.02027067
#
# Stress axis : x y z
#
# Youngs Moduli (GPa) = 55.61080 55.61138 60.20361
#
# Poissons Ratio (x) = 0.31416 0.31615
# Poissons Ratio (y) = 0.31416 0.31614
# Poissons Ratio (z) = 0.29203 0.29203
#
# Static dielectric constant tensor:
#      x y z
#    x 1.719010 0.000000 0.000000 
#    y 0.000000 1.719010 0.000000 
#    z 0.000000 0.000000 1.656930 
# 
# From -- ./inp_files/2571.got.cif
#   From: 2010.05.17/outbox.cif.g08.bks.cpg/sg189_2_cif.got.tgz:2571.got - 2010.05.20 12:14:34.
