data_PCOD9586886
_publ_section_title
;
Structure prediction by ZEFSAII (Michael W. Deem and Ramdas Pophale) SiO2 
 PCOD9586886
Probable space group: P -6 2 C
;
_chemical_formula_sum "Si O2"
_cell_formula_units_Z 52
_cell_length_a 15.467031
_cell_length_b 15.467031
_cell_length_c 13.524374
_cell_angle_alpha 90.000000
_cell_angle_beta 90.000000
_cell_angle_gamma 120.000000
_cell_volume 2801.958611
_symmetry_space_group_name_H-M "P -6 2 C"
_symmetry_group_IT_number 190
_symmetry_cell_setting 'hexagonal'
loop_
_space_group_symop_operation_xyz
x,y,z
-x+y,-x,1/2-z
-y,x-y,z
x,y,1/2-z
-x+y,-x,z
-y,x-y,1/2-z
x-y,-y,-z
-x,-x+y,-z
y,x,-z
y,x,1/2+z
x-y,-y,1/2+z
-x,-x+y,1/2+z
loop_
_atom_site_type_symbol
_atom_site_label
_atom_site_fract_x
_atom_site_fract_y
_atom_site_fract_z
Si Si1 0.185897 0.687348 0.485743
Si Si2 0.161964 0.275300 0.493785
Si Si3 0.727543 0.735699 0.363773
Si Si4 0.666668 0.333334 0.369467
Si Si5 0.367514 0.867273 0.368088
O O1 0.122682 0.740462 0.508729
O O2 0.240375 0.672463 0.581132
O O3 0.275275 0.766087 0.413727
O O4 0.123531 0.584938 0.426339
O O5 0.189398 0.189398 0.500000
O O6 0.108007 0.268781 0.389953
O O7 0.081305 0.271243 0.571733
O O8 0.745958 0.728164 0.250000
O O9 0.612068 0.654233 0.386303
O O10 0.666667 0.333334 0.250000
O O11 0.373841 0.857659 0.250000
#
# Coordination Sequence:
#
# PCOD9586886 Si02
#       5
#    12  12  12   4  12
#     4   9  18  32  53  85 112 154 192 233 280 339
#     4  10  21  39  58  82 116 150 191 243 291 340
#     4   9  20  39  61  83 112 151 190 239 296 344
#     4   9  18  33  49  74 118 162 198 228 274 341
#     4   9  16  31  57  87 116 145 186 237 289 339
#
# _framework density 18.558447999999999
#
# number of rings (size 3 to 8) (size 9 to 14) (size 15 to 20)
#    0.000    2.769    0.000    1.154    0.000    2.769 
#   18.000    0.000    0.000    0.000    0.000    0.000 
#    0.000    0.000    0.000    0.000    0.000    0.000 
#
# Total GULP energy -289835.487557 kJ/mol
# GULP energy per Si atom -5573.759376 kJ/mol
# Density = 1.851621 g / cm^3
# Si number density = 18.558448 Si / 1000 Ang^3
#
#
#
# Elastic Constant Matrix: (Units=GPa)
#
#
# Indices 1 2 3 4 5 6 
#
# 1 86.9372 52.6959 41.0398 0.0000 0.0000 0.0001
# 2 52.6959 86.9377 41.0401 0.0000 0.0000 0.0001
# 3 41.0398 41.0401 128.6700 0.0001 0.0000 0.0001
# 4 0.0000 0.0000 0.0001 16.3377 0.0000 0.0000
# 5 0.0000 0.0000 0.0000 0.0000 16.3376 0.0000
# 6 0.0001 0.0001 0.0001 0.0000 0.0000 17.1206
#
#
#
# Elastic Compliance Matrix: (Units=1/GPa)
#
#
# Indices 1 2 3 4 5 6 
#
# 1 0.019009 -0.010195 -0.002811 0.000000 0.000000 0.000000
# 2 -0.010195 0.019009 -0.002811 0.000000 0.000000 0.000000
# 3 -0.002811 -0.002811 0.009565 0.000000 0.000000 0.000000
# 4 0.000000 0.000000 0.000000 0.061208 0.000000 0.000000
# 5 0.000000 0.000000 0.000000 0.000000 0.061209 0.000000
# 6 0.000000 0.000000 0.000000 0.000000 0.000000 0.058409
#
#
# Mechanical properties :
#
#
# Convention : Reuss Voigt Hill
#
# Bulk Modulus (GPa) = 62.70282 63.56627 63.13454
# Shear Modulus (GPa) = 18.84225 21.14378 19.99302
#
# Velocity S-wave (km/s) = 3.18982 3.37902 3.28579
# Velocity P-wave (km/s) = 6.88670 7.03918 6.96336
#
# Compressibility (1/GPa) = 0.01594825
#
# Stress axis : x y z
#
# Youngs Moduli (GPa) = 52.60596 52.60611 104.54569
#
# Poissons Ratio (x) = 0.53632 0.29391
# Poissons Ratio (y) = 0.53632 0.29392
# Poissons Ratio (z) = 0.14789 0.14789
#
# Static dielectric constant tensor:
#      x y z
#    x 1.652780 0.000000 0.000000 
#    y 0.000000 1.652780 0.000000 
#    z 0.000000 0.000000 1.637290 
# 
# From -- ./inp_files/2729.got.cif
#   From: 2010.05.17/outbox.cif.g08.bks.cpg/sg190_2_cif.got.tgz:2729.got - 2010.05.20 12:16:56.
