data_PCOD9586897
_publ_section_title
;
Structure prediction by ZEFSAII (Michael W. Deem and Ramdas Pophale) SiO2 
 PCOD9586897
Probable space group: P -6 2 C
;
_chemical_formula_sum "Si O2"
_cell_formula_units_Z 72
_cell_length_a 14.820269
_cell_length_b 14.820269
_cell_length_c 17.417994
_cell_angle_alpha 90.000000
_cell_angle_beta 90.000000
_cell_angle_gamma 120.000000
_cell_volume 3313.148800
_symmetry_space_group_name_H-M "P -6 2 C"
_symmetry_group_IT_number 190
_symmetry_cell_setting 'hexagonal'
loop_
_space_group_symop_operation_xyz
x,y,z
-x+y,-x,1/2-z
-y,x-y,z
x,y,1/2-z
-x+y,-x,z
-y,x-y,1/2-z
x-y,-y,-z
-x,-x+y,-z
y,x,-z
y,x,1/2+z
x-y,-y,1/2+z
-x,-x+y,1/2+z
loop_
_atom_site_type_symbol
_atom_site_label
_atom_site_fract_x
_atom_site_fract_y
_atom_site_fract_z
Si Si1 0.370790 0.503601 0.340567
Si Si2 0.713007 0.007171 0.087787
Si Si3 0.880398 0.214251 0.337492
Si Si4 0.243081 0.068578 0.928830
Si Si5 0.690204 0.513092 0.565258
Si Si6 0.219627 0.552285 0.609111
O O1 0.373756 0.523849 0.250000
O O2 0.344270 0.386436 0.357234
O O3 0.278142 0.512202 0.383679
O O4 0.474225 0.586968 0.384465
O O5 0.795996 0.123627 0.108904
O O6 0.767236 0.935521 0.091124
O O7 0.675930 0.000000 0.000000
O O8 0.855747 0.182438 0.250000
O O9 0.867384 0.314580 0.352624
O O10 0.991276 0.227947 0.359714
O O11 0.364250 0.116207 0.951089
O O12 0.173629 0.000000 0.000000
O O13 0.664776 0.458955 0.482552
O O14 0.334990 0.570060 0.629936
#
# Coordination Sequence:
#
# PCOD9586897 Si02
#       6
#    12  12  12  12  12  12
#     4  11  22  36  59  96 135 170 210 268 332 386
#     4  11  24  44  70  91 125 171 224 270 331 402
#     4  12  26  45  67  98 136 169 216 287 339 384
#     4  11  23  43  70  94 122 170 225 271 329 403
#     4  11  20  37  65  94 132 175 219 263 316 393
#     4  10  21  40  68  98 133 181 225 256 315 398
#
# _framework density 21.731593
#
# number of rings (size 3 to 8) (size 9 to 14) (size 15 to 20)
#    0.333    0.667    5.000    2.333    0.000    6.667 
#    1.000    0.833    0.000    0.000    0.000    0.000 
#    0.000    0.000    0.000    0.000    0.000    0.000 
#
# Total GULP energy -402504.471895 kJ/mol
# GULP energy per Si atom -5590.339887 kJ/mol
# Density = 2.168213 g / cm^3
# Si number density = 21.731593 Si / 1000 Ang^3
#
#
#
# Elastic Constant Matrix: (Units=GPa)
#
#
# Indices 1 2 3 4 5 6 
#
# 1 47.9526 18.5468 -2.5811 0.0000 0.0000 0.0000
# 2 18.5468 47.9526 -2.5811 0.0000 0.0000 0.0000
# 3 -2.5811 -2.5811 74.9247 0.0000 0.0000 0.0000
# 4 0.0000 0.0000 0.0000 13.5501 0.0000 0.0000
# 5 0.0000 0.0000 0.0000 0.0000 13.5501 0.0000
# 6 0.0000 0.0000 0.0000 0.0000 0.0000 14.7029
#
#
#
# Elastic Compliance Matrix: (Units=1/GPa)
#
#
# Indices 1 2 3 4 5 6 
#
# 1 0.024542 -0.009464 0.000519 0.000000 0.000000 0.000000
# 2 -0.009464 0.024542 0.000519 0.000000 0.000000 0.000000
# 3 0.000519 0.000519 0.013383 0.000000 0.000000 0.000000
# 4 0.000000 0.000000 0.000000 0.073800 0.000000 0.000000
# 5 0.000000 0.000000 0.000000 0.000000 0.073800 0.000000
# 6 0.000000 0.000000 0.000000 0.000000 0.000000 0.068014
#
#
# Mechanical properties :
#
#
# Convention : Reuss Voigt Hill
#
# Bulk Modulus (GPa) = 21.92196 21.95544 21.93870
# Shear Modulus (GPa) = 16.12182 18.85696 17.48939
#
# Velocity S-wave (km/s) = 2.72667 2.94891 2.83996
# Velocity P-wave (km/s) = 4.47465 4.66044 4.56849
#
# Compressibility (1/GPa) = 0.04561636
#
# Stress axis : x y z
#
# Youngs Moduli (GPa) = 40.74567 40.74567 74.72435
#
# Poissons Ratio (x) = 0.38563 -0.03881
# Poissons Ratio (y) = 0.38563 -0.03881
# Poissons Ratio (z) = -0.02116 -0.02116
#
# Static dielectric constant tensor:
#      x y z
#    x 1.807810 0.000000 0.000000 
#    y 0.000000 1.807810 0.000000 
#    z 0.000000 0.000000 1.769360 
# 
# From -- ./inp_files/3767.got.cif
#   From: 2010.05.17/outbox.cif.g08.bks.cpg/sg190_2_cif.got.tgz:3767.got - 2010.05.20 12:16:56.
