data_PCOD9586834
_publ_section_title
;
Structure prediction by ZEFSAII (Michael W. Deem and Ramdas Pophale) SiO2 
 PCOD9586834
Probable space group: P -6 2 C
;
_chemical_formula_sum "Si O2"
_cell_formula_units_Z 84
_cell_length_a 17.029887
_cell_length_b 17.029887
_cell_length_c 15.185776
_cell_angle_alpha 90.000000
_cell_angle_beta 90.000000
_cell_angle_gamma 120.000000
_cell_volume 3814.091905
_symmetry_space_group_name_H-M "P -6 2 C"
_symmetry_group_IT_number 190
_symmetry_cell_setting 'hexagonal'
loop_
_space_group_symop_operation_xyz
x,y,z
-x+y,-x,1/2-z
-y,x-y,z
x,y,1/2-z
-x+y,-x,z
-y,x-y,1/2-z
x-y,-y,-z
-x,-x+y,-z
y,x,-z
y,x,1/2+z
x-y,-y,1/2+z
-x,-x+y,1/2+z
loop_
_atom_site_type_symbol
_atom_site_label
_atom_site_fract_x
_atom_site_fract_y
_atom_site_fract_z
Si Si1 0.706398 0.798053 0.092091
Si Si2 0.735219 0.843944 0.608827
Si Si3 0.757329 0.018617 0.845427
Si Si4 0.570616 0.975019 0.904672
Si Si5 0.744767 0.218337 0.351943
Si Si6 0.375136 0.537584 0.150147
Si Si7 0.794844 0.286113 0.956414
O O1 0.769638 0.762810 0.132739
O O2 0.712534 0.878402 0.150006
O O3 0.604676 0.720775 0.066644
O O4 0.740945 0.844949 0.996824
O O5 0.633294 0.811840 0.641252
O O6 0.791942 0.947477 0.640180
O O7 0.712501 0.999164 0.750000
O O8 0.674488 0.996589 0.908517
O O9 0.517597 0.870946 0.873182
O O10 0.572073 0.053553 0.846089
O O11 0.548713 0.000000 0.000000
O O12 0.744973 0.248457 0.250000
O O13 0.771967 0.282687 0.439370
O O14 0.352972 0.550751 0.250000
O O15 0.432181 0.630186 0.096865
O O16 0.286181 0.483063 0.089874
#
# Coordination Sequence:
#
# PCOD9586834 Si02
#       7
#    12  12  12  12  12  12  12
#     4  10  20  38  61  84 123 167 214 261 327 390
#     4   9  19  36  58  88 117 165 213 261 315 384
#     4  11  20  32  58  90 123 163 212 262 318 395
#     4  11  19  38  66  95 125 168 219 272 322 400
#     4  10  20  40  66  93 129 175 220 267 330 403
#     4  12  24  42  66  98 132 168 220 278 344 405
#     4  11  24  43  67  96 131 173 215 279 345 407
#
# _framework density 22.023592000000001
#
# number of rings (size 3 to 8) (size 9 to 14) (size 15 to 20)
#    0.000    1.429    2.857    5.429    0.000    1.714 
#    6.000    0.714    0.000    0.000    0.000    0.000 
#    0.000    0.000    0.000    0.000    0.000    0.000 
#
# Total GULP energy -468297.532892 kJ/mol
# GULP energy per Si atom -5574.970630 kJ/mol
# Density = 2.197347 g / cm^3
# Si number density = 22.023592 Si / 1000 Ang^3
#
#
#
# Elastic Constant Matrix: (Units=GPa)
#
#
# Indices 1 2 3 4 5 6 
#
# 1 45.3284 -0.0787 13.8894 0.0000 0.0000 0.0000
# 2 -0.0787 45.3284 13.8894 0.0000 0.0000 0.0000
# 3 13.8894 13.8894 164.4113 0.0000 0.0000 0.0000
# 4 0.0000 0.0000 0.0000 -83.5045 0.0000 0.0000
# 5 0.0000 0.0000 0.0000 0.0000 -83.5045 0.0000
# 6 0.0000 0.0000 0.0000 0.0000 0.0000 22.7035
#
#
#
# Elastic Compliance Matrix: (Units=1/GPa)
#
#
# Indices 1 2 3 4 5 6 
#
# 1 0.022666 0.000643 -0.001969 0.000000 0.000000 0.000000
# 2 0.000643 0.022666 -0.001969 0.000000 0.000000 0.000000
# 3 -0.001969 -0.001969 0.006415 0.000000 0.000000 0.000000
# 4 0.000000 0.000000 0.000000 -0.011975 0.000000 0.000000
# 5 0.000000 0.000000 0.000000 0.000000 -0.011975 0.000000
# 6 0.000000 0.000000 0.000000 0.000000 0.000000 0.044046
#
#
# Mechanical properties :
#
#
# Convention : Reuss Voigt Hill
#
# Bulk Modulus (GPa) = 22.14571 34.49649 28.32110
# Shear Modulus (GPa) = 53.48488 -13.70325 19.89082
#
# Velocity S-wave (km/s) = 4.93335 -2.49712 3.00852
# Velocity P-wave (km/s) = 6.52134 2.71723 4.99556
#
# Compressibility (1/GPa) = 0.04515548
#
# Stress axis : x y z
#
# Youngs Moduli (GPa) = 44.11952 44.11952 155.88452
#
# Poissons Ratio (x) = -0.02836 0.30695
# Poissons Ratio (y) = -0.02836 0.30695
# Poissons Ratio (z) = 0.08688 0.08688
#
# Static dielectric constant tensor:
#      x y z
#    x 1.852430 0.000000 0.000000 
#    y 0.000000 1.852430 0.000000 
#    z 0.000000 0.000000 1.837200 
# 
# From -- ./inp_files/3175.got.cif
#   From: 2010.05.17/outbox.cif.g08.bks.cpg/sg190_2_cif.got.tgz:3175.got - 2010.05.20 12:16:56.
