data_PCOD9586233
_publ_section_title
;
Structure prediction by ZEFSAII (Michael W. Deem and Ramdas Pophale) SiO2 
 PCOD9586233
Probable space group: P -6 2 M
;
_chemical_formula_sum "Si O2"
_cell_formula_units_Z 60
_cell_length_a 21.424880
_cell_length_b 21.424880
_cell_length_c 8.132605
_cell_angle_alpha 90.000000
_cell_angle_beta 90.000000
_cell_angle_gamma 120.000000
_cell_volume 3232.935999
_symmetry_space_group_name_H-M "P -6 2 M"
_symmetry_group_IT_number 189
_symmetry_cell_setting 'hexagonal'
loop_
_space_group_symop_operation_xyz
x,y,z
-x+y,-x,-z
-y,x-y,z
x,y,-z
-x+y,-x,z
-y,x-y,-z
x-y,-y,-z
-x,-x+y,-z
y,x,-z
y,x,z
x-y,-y,z
-x,-x+y,z
loop_
_atom_site_type_symbol
_atom_site_label
_atom_site_fract_x
_atom_site_fract_y
_atom_site_fract_z
Si Si1 0.643478 0.791578 0.197784
Si Si2 0.921656 0.921656 0.800580
Si Si3 0.819348 0.455337 0.306914
Si Si4 0.214971 0.518763 0.805907
Si Si5 0.700904 0.082329 0.301125
Si Si6 0.000000 0.220494 0.797603
O O1 0.563761 0.730146 0.252846
O O2 0.650795 0.867530 0.247041
O O3 0.708556 0.781090 0.257531
O O4 0.644310 0.788779 0.000000
O O5 0.851461 0.851461 0.740692
O O6 0.000000 0.932345 0.753556
O O7 0.918541 0.918541 0.000000
O O8 0.831363 0.452363 0.500000
O O9 0.741964 0.449495 0.279817
O O10 0.819436 0.388075 0.224516
O O11 0.877635 0.535053 0.244270
O O12 0.227726 0.517216 0.000000
O O13 0.699597 0.082411 0.500000
O O14 0.663814 0.000000 0.244131
O O15 0.000000 0.220182 0.000000
#
# Coordination Sequence:
#
# PCOD9586233 Si02
#       6
#    12   6  12  12  12   6
#     4   9  19  33  51  74 102 134 168 205 247 301
#     4   7  12  22  38  65  97 124 153 192 234 275
#     4  10  19  32  52  73  96 130 171 210 250 299
#     4  10  19  32  48  72 103 132 164 207 257 300
#     4   9  19  36  54  73 100 132 168 212 256 297
#     4   9  16  30  49  71 103 136 163 198 244 295
#
# _framework density 18.558982
#
# number of rings (size 3 to 8) (size 9 to 14) (size 15 to 20)
#    0.200    2.600    0.000    1.600    0.000    2.800 
#    1.800    2.500    0.000    0.000    0.000    0.000 
#    0.000    0.000    0.000    0.000    0.000    0.000 
#
# Total GULP energy -334413.530840 kJ/mol
# GULP energy per Si atom -5573.558847 kJ/mol
# Density = 1.851674 g / cm^3
# Si number density = 18.558982 Si / 1000 Ang^3
#
#
#
# Elastic Constant Matrix: (Units=GPa)
#
#
# Indices 1 2 3 4 5 6 
#
# 1 136.3149 97.6496 1.3260 0.0000 0.0000 0.0000
# 2 97.6496 136.3149 1.3260 0.0000 0.0000 0.0000
# 3 1.3260 1.3260 7.1018 0.0000 0.0000 0.0000
# 4 0.0000 0.0000 0.0000 13.8090 0.0000 0.0000
# 5 0.0000 0.0000 0.0000 0.0000 13.8090 0.0000
# 6 0.0000 0.0000 0.0000 0.0000 0.0000 19.3326
#
#
#
# Elastic Compliance Matrix: (Units=1/GPa)
#
#
# Indices 1 2 3 4 5 6 
#
# 1 0.015073 -0.010790 -0.000800 0.000000 0.000000 0.000000
# 2 -0.010790 0.015073 -0.000800 0.000000 0.000000 0.000000
# 3 -0.000800 -0.000800 0.141108 0.000000 0.000000 0.000000
# 4 0.000000 0.000000 0.000000 0.072417 0.000000 0.000000
# 5 0.000000 0.000000 0.000000 0.000000 0.072417 0.000000
# 6 0.000000 0.000000 0.000000 0.000000 0.000000 0.051726
#
#
# Mechanical properties :
#
#
# Convention : Reuss Voigt Hill
#
# Bulk Modulus (GPa) = 6.82708 53.37050 30.09879
# Shear Modulus (GPa) = 11.32716 21.35212 16.33964
#
# Velocity S-wave (km/s) = 2.47317 3.39558 2.97040
# Velocity P-wave (km/s) = 3.44122 6.64778 5.29316
#
# Compressibility (1/GPa) = 0.14647549
#
# Stress axis : x y z
#
# Youngs Moduli (GPa) = 66.34327 66.34327 7.08678
#
# Poissons Ratio (x) = 0.71584 0.00567
# Poissons Ratio (y) = 0.71584 0.00567
# Poissons Ratio (z) = 0.05305 0.05305
#
# Static dielectric constant tensor:
#      x y z
#    x 1.632630 0.000000 0.000000 
#    y 0.000000 1.632630 0.000000 
#    z 0.000000 0.000000 1.647490 
# 
# From -- ./inp_files/939.got.cif
#   From: 2010.05.17/outbox.cif.g08.bks.cpg/sg189_1_cif.got.tgz:939.got - 2010.05.20 12:14:34.
