data_PCOD9586321
_publ_section_title
;
Structure prediction by ZEFSAII (Michael W. Deem and Ramdas Pophale) SiO2 
 PCOD9586321
Probable space group: P -6 2 M
;
_chemical_formula_sum "Si O2"
_cell_formula_units_Z 60
_cell_length_a 17.968809
_cell_length_b 17.968809
_cell_length_c 12.139117
_cell_angle_alpha 90.000000
_cell_angle_beta 90.000000
_cell_angle_gamma 120.000000
_cell_volume 3394.347594
_symmetry_space_group_name_H-M "P -6 2 M"
_symmetry_group_IT_number 189
_symmetry_cell_setting 'hexagonal'
loop_
_space_group_symop_operation_xyz
x,y,z
-x+y,-x,-z
-y,x-y,z
x,y,-z
-x+y,-x,z
-y,x-y,-z
x-y,-y,-z
-x,-x+y,-z
y,x,-z
y,x,z
x-y,-y,z
-x,-x+y,z
loop_
_atom_site_type_symbol
_atom_site_label
_atom_site_fract_x
_atom_site_fract_y
_atom_site_fract_z
Si Si1 0.163283 0.789377 0.630074
Si Si2 0.469142 0.101638 0.371753
Si Si3 0.798844 0.898129 0.236476
Si Si4 0.104056 0.836574 0.000000
Si Si5 0.103785 0.614157 0.238815
Si Si6 0.335037 0.439873 0.000000
O O1 0.144330 0.776740 0.500000
O O2 0.265923 0.847030 0.644913
O O3 0.120012 0.839617 0.685389
O O4 0.132176 0.699411 0.690494
O O5 0.496531 0.111405 0.500000
O O6 0.551602 0.132342 0.294556
O O7 0.405392 0.000000 0.352573
O O8 0.844950 0.844950 0.269957
O O9 0.761060 0.871311 0.112581
O O10 0.865999 0.000000 0.235390
O O11 0.133335 0.765450 0.000000
O O12 0.000000 0.782255 0.000000
O O13 0.000000 0.561416 0.239645
O O14 0.132429 0.639683 0.112841
O O15 0.386758 0.386758 0.000000
#
# Coordination Sequence:
#
# PCOD9586321 Si02
#       6
#    12  12  12   6  12   6
#     4  11  22  36  56  82 111 148 190 234 283 340
#     4   9  19  36  55  77 107 140 175 220 273 329
#     4  11  22  36  55  81 115 156 202 248 292 338
#     4   9  17  33  54  78 108 145 187 236 289 338
#     4  10  19  35  59  83 108 139 178 225 279 337
#     4   9  16  31  56  84 109 135 172 224 279 330
#
# _framework density 17.676445999999999
#
# number of rings (size 3 to 8) (size 9 to 14) (size 15 to 20)
#    0.000    2.000    2.000    2.300    0.000    3.600 
#    1.200    3.000    0.000    3.600    0.000    0.000 
#    0.000    0.000    0.000    0.000    0.000    0.000 
#
# Total GULP energy -334836.833944 kJ/mol
# GULP energy per Si atom -5580.613899 kJ/mol
# Density = 1.763621 g / cm^3
# Si number density = 17.676446 Si / 1000 Ang^3
#
#
#
# Elastic Constant Matrix: (Units=GPa)
#
#
# Indices 1 2 3 4 5 6 
#
# 1 36.6869 -0.5536 20.2756 0.0000 0.0000 0.0000
# 2 -0.5536 36.6869 20.2756 0.0000 0.0000 0.0000
# 3 20.2756 20.2756 95.8869 0.0000 0.0000 0.0000
# 4 0.0000 0.0000 0.0000 25.3875 0.0000 0.0000
# 5 0.0000 0.0000 0.0000 0.0000 25.3875 0.0000
# 6 0.0000 0.0000 0.0000 0.0000 0.0000 18.6202
#
#
#
# Elastic Compliance Matrix: (Units=1/GPa)
#
#
# Indices 1 2 3 4 5 6 
#
# 1 0.031569 0.004717 -0.007673 0.000000 0.000000 0.000000
# 2 0.004717 0.031569 -0.007673 0.000000 0.000000 0.000000
# 3 -0.007673 -0.007673 0.013674 0.000000 0.000000 0.000000
# 4 0.000000 0.000000 0.000000 0.039389 0.000000 0.000000
# 5 0.000000 0.000000 0.000000 0.000000 0.039389 0.000000
# 6 0.000000 0.000000 0.000000 0.000000 0.000000 0.053705
#
#
# Mechanical properties :
#
#
# Convention : Reuss Voigt Hill
#
# Bulk Modulus (GPa) = 18.00018 27.69511 22.84764
# Shear Modulus (GPa) = 20.07446 22.49657 21.28552
#
# Velocity S-wave (km/s) = 3.37361 3.57134 3.47389
# Velocity P-wave (km/s) = 5.03788 5.71907 5.38925
#
# Compressibility (1/GPa) = 0.05555501
#
# Stress axis : x y z
#
# Youngs Moduli (GPa) = 31.67622 31.67622 73.13226
#
# Poissons Ratio (x) = -0.14941 0.56113
# Poissons Ratio (y) = -0.14941 0.56113
# Poissons Ratio (z) = 0.24305 0.24305
#
# Static dielectric constant tensor:
#      x y z
#    x 1.581630 0.000000 0.000000 
#    y 0.000000 1.581630 0.000000 
#    z 0.000000 0.000000 1.608160 
# 
# From -- ./inp_files/1946.got.cif
#   From: 2010.05.17/outbox.cif.g08.bks.cpg/sg189_1_cif.got.tgz:1946.got - 2010.05.20 12:14:34.
