data_PCOD9586835
_publ_section_title
;
Structure prediction by ZEFSAII (Michael W. Deem and Ramdas Pophale) SiO2 
 PCOD9586835
Probable space group: P -6 2 C
;
_chemical_formula_sum "Si O2"
_cell_formula_units_Z 52
_cell_length_a 15.168545
_cell_length_b 15.168545
_cell_length_c 13.884796
_cell_angle_alpha 90.000000
_cell_angle_beta 90.000000
_cell_angle_gamma 120.000000
_cell_volume 2766.673967
_symmetry_space_group_name_H-M "P -6 2 C"
_symmetry_group_IT_number 190
_symmetry_cell_setting 'hexagonal'
loop_
_space_group_symop_operation_xyz
x,y,z
-x+y,-x,1/2-z
-y,x-y,z
x,y,1/2-z
-x+y,-x,z
-y,x-y,1/2-z
x-y,-y,-z
-x,-x+y,-z
y,x,-z
y,x,1/2+z
x-y,-y,1/2+z
-x,-x+y,1/2+z
loop_
_atom_site_type_symbol
_atom_site_label
_atom_site_fract_x
_atom_site_fract_y
_atom_site_fract_z
Si Si1 0.140418 0.639142 0.532815
Si Si2 0.167219 0.284656 0.491812
Si Si3 0.728647 0.730701 0.361560
Si Si4 0.666668 0.333334 0.365002
Si Si5 0.453577 0.952525 0.363149
O O1 0.123989 0.730900 0.500567
O O2 0.243495 0.681101 0.592066
O O3 0.135070 0.575114 0.437325
O O4 0.049250 0.559449 0.601712
O O5 0.199068 0.199068 0.500000
O O6 0.105138 0.274759 0.395050
O O7 0.090021 0.278138 0.574904
O O8 0.752407 0.733281 0.250000
O O9 0.615543 0.634775 0.378259
O O10 0.666667 0.333334 0.250000
O O11 0.456011 0.930625 0.250000
#
# Coordination Sequence:
#
# PCOD9586835 Si02
#       5
#    12  12  12   4  12
#     4  11  21  38  59  92 125 157 195 254 295 359
#     4  11  22  41  63  88 119 155 199 255 304 354
#     4  10  23  42  63  85 119 164 202 243 305 368
#     4  12  24  36  58  89 124 159 198 246 301 362
#     4  10  20  38  62  89 123 163 202 242 301 368
#
# _framework density 18.795131999999999
#
# number of rings (size 3 to 8) (size 9 to 14) (size 15 to 20)
#    0.000    1.385    2.308    6.231    0.000    5.538 
#    5.538    1.154    0.000    0.000    0.000    0.000 
#    0.000    0.000    0.000    0.000    0.000    0.000 
#
# Total GULP energy -290432.231636 kJ/mol
# GULP energy per Si atom -5585.235224 kJ/mol
# Density = 1.875235 g / cm^3
# Si number density = 18.795132 Si / 1000 Ang^3
#
#
#
# Elastic Constant Matrix: (Units=GPa)
#
#
# Indices 1 2 3 4 5 6 
#
# 1 83.4919 20.7450 27.6609 0.0000 0.0001 0.0000
# 2 20.7450 83.4927 27.6615 0.0000 0.0000 0.0001
# 3 27.6609 27.6615 133.0466 0.0000 0.0002 0.0001
# 4 0.0000 0.0000 0.0000 13.0846 0.0001 0.0000
# 5 0.0001 0.0000 0.0002 0.0001 13.0844 0.0000
# 6 0.0000 0.0001 0.0001 0.0000 0.0000 31.3739
#
#
#
# Elastic Compliance Matrix: (Units=1/GPa)
#
#
# Indices 1 2 3 4 5 6 
#
# 1 0.013360 -0.002577 -0.002242 0.000000 0.000000 0.000000
# 2 -0.002577 0.013360 -0.002242 0.000000 0.000000 0.000000
# 3 -0.002242 -0.002242 0.008448 0.000000 0.000000 0.000000
# 4 0.000000 0.000000 0.000000 0.076426 -0.000001 0.000000
# 5 0.000000 0.000000 0.000000 -0.000001 0.076427 0.000000
# 6 0.000000 0.000000 0.000000 0.000000 0.000000 0.031874
#
#
# Mechanical properties :
#
#
# Convention : Reuss Voigt Hill
#
# Bulk Modulus (GPa) = 47.51183 50.24070 48.87626
# Shear Modulus (GPa) = 20.74412 26.43949 23.59180
#
# Velocity S-wave (km/s) = 3.32580 3.75470 3.54674
# Velocity P-wave (km/s) = 6.33100 6.75172 6.54474
#
# Compressibility (1/GPa) = 0.02104739
#
# Stress axis : x y z
#
# Youngs Moduli (GPa) = 74.84919 74.84973 118.36584
#
# Poissons Ratio (x) = 0.19287 0.26536
# Poissons Ratio (y) = 0.19287 0.26537
# Poissons Ratio (z) = 0.16780 0.16781
#
# Static dielectric constant tensor:
#      x y z
#    x 1.651900 0.000000 0.000000 
#    y 0.000000 1.651890 0.000000 
#    z 0.000000 0.000000 1.645450 
# 
# From -- ./inp_files/2728.got.cif
#   From: 2010.05.17/outbox.cif.g08.bks.cpg/sg190_2_cif.got.tgz:2728.got - 2010.05.20 12:16:56.
