data_PCOD9586725
_publ_section_title
;
Structure prediction by ZEFSAII (Michael W. Deem and Ramdas Pophale) SiO2 
 PCOD9586725
Probable space group: P -6 2 C
;
_chemical_formula_sum "Si O2"
_cell_formula_units_Z 84
_cell_length_a 17.739866
_cell_length_b 17.739866
_cell_length_c 14.887453
_cell_angle_alpha 90.000000
_cell_angle_beta 90.000000
_cell_angle_gamma 120.000000
_cell_volume 4057.436252
_symmetry_space_group_name_H-M "P -6 2 C"
_symmetry_group_IT_number 190
_symmetry_cell_setting 'hexagonal'
loop_
_space_group_symop_operation_xyz
x,y,z
-x+y,-x,1/2-z
-y,x-y,z
x,y,1/2-z
-x+y,-x,z
-y,x-y,1/2-z
x-y,-y,-z
-x,-x+y,-z
y,x,-z
y,x,1/2+z
x-y,-y,1/2+z
-x,-x+y,1/2+z
loop_
_atom_site_type_symbol
_atom_site_label
_atom_site_fract_x
_atom_site_fract_y
_atom_site_fract_z
Si Si1 0.343808 0.246954 0.643779
Si Si2 0.132153 0.603468 0.354906
Si Si3 0.897585 0.193675 0.516077
Si Si4 0.330478 0.833650 0.998568
Si Si5 0.099159 0.793123 0.649948
Si Si6 0.482863 0.548834 0.848180
Si Si7 0.489367 0.775748 0.652332
O O1 0.350957 0.239647 0.750000
O O2 0.444725 0.306728 0.612141
O O3 0.285148 0.152129 0.601027
O O4 0.292208 0.299352 0.628281
O O5 0.161674 0.612024 0.250000
O O6 0.172223 0.560900 0.421563
O O7 0.028496 0.535062 0.354292
O O8 0.858976 0.259022 0.526498
O O9 0.860326 0.129938 0.430463
O O10 0.000000 0.247799 0.500000
O O11 0.390085 0.913855 0.932285
O O12 0.287361 0.749412 0.932792
O O13 0.091306 0.822846 0.750000
O O14 0.175197 0.769043 0.653582
O O15 0.518904 0.589326 0.750000
O O16 0.383922 0.528400 0.852991
O O17 0.456872 0.731559 0.750000
#
# Coordination Sequence:
#
# PCOD9586725 Si02
#       7
#    12  12  12  12  12  12  12
#     4  10  21  40  67  92 111 151 211 263 302 346
#     4  10  21  37  61  88 115 153 209 260 293 341
#     4  11  24  38  55  91 129 163 194 238 305 376
#     4  11  23  35  56  84 122 163 197 236 301 370
#     4   9  18  36  64  92 116 146 197 257 306 347
#     4  10  19  35  59  85 114 149 199 257 302 344
#     4   9  18  35  56  86 119 147 189 253 313 354
#
# _framework density 20.702726999999999
#
# number of rings (size 3 to 8) (size 9 to 14) (size 15 to 20)
#    0.000    2.000    1.429    2.143    4.000    2.857 
#    0.857    0.000    0.000    2.286    0.000    0.000 
#    0.000    0.000    0.000    0.000    0.000    0.000 
#
# Total GULP energy -468416.761046 kJ/mol
# GULP energy per Si atom -5576.390012 kJ/mol
# Density = 2.065561 g / cm^3
# Si number density = 20.702727 Si / 1000 Ang^3
#
#
#
# Elastic Constant Matrix: (Units=GPa)
#
#
# Indices 1 2 3 4 5 6 
#
# 1 60.6349 19.0087 48.0044 0.0000 0.0000 0.0000
# 2 19.0087 60.6349 48.0044 0.0000 0.0000 0.0000
# 3 48.0044 48.0044 103.3663 0.0000 0.0000 0.0000
# 4 0.0000 0.0000 0.0000 18.0527 0.0000 0.0000
# 5 0.0000 0.0000 0.0000 0.0000 18.0527 0.0000
# 6 0.0000 0.0000 0.0000 0.0000 0.0000 20.8131
#
#
#
# Elastic Compliance Matrix: (Units=1/GPa)
#
#
# Indices 1 2 3 4 5 6 
#
# 1 0.026274 0.002251 -0.013248 0.000000 0.000000 0.000000
# 2 0.002251 0.026274 -0.013248 0.000000 0.000000 0.000000
# 3 -0.013248 -0.013248 0.021979 0.000000 0.000000 0.000000
# 4 0.000000 0.000000 0.000000 0.055393 0.000000 0.000000
# 5 0.000000 0.000000 0.000000 0.000000 0.055393 0.000000
# 6 0.000000 0.000000 0.000000 0.000000 0.000000 0.048047
#
#
# Mechanical properties :
#
#
# Convention : Reuss Voigt Hill
#
# Bulk Modulus (GPa) = 38.40267 50.51900 44.46084
# Shear Modulus (GPa) = 17.20997 18.69163 17.95080
#
# Velocity S-wave (km/s) = 2.88634 3.00802 2.94781
# Velocity P-wave (km/s) = 5.44957 6.04312 5.75400
#
# Compressibility (1/GPa) = 0.02603986
#
# Stress axis : x y z
#
# Youngs Moduli (GPa) = 38.05974 38.05974 45.49797
#
# Poissons Ratio (x) = -0.08568 0.60274
# Poissons Ratio (y) = -0.08568 0.60274
# Poissons Ratio (z) = 0.50420 0.50420
#
# Static dielectric constant tensor:
#      x y z
#    x 1.757610 0.000000 0.000000 
#    y 0.000000 1.757610 0.000000 
#    z 0.000000 0.000000 1.802190 
# 
# From -- ./inp_files/3169.got.cif
#   From: 2010.05.17/outbox.cif.g08.bks.cpg/sg190_2_cif.got.tgz:3169.got - 2010.05.20 12:16:56.
