data_PCOD9586831
_publ_section_title
;
Structure prediction by ZEFSAII (Michael W. Deem and Ramdas Pophale) SiO2 
 PCOD9586831
Probable space group: P -6 2 C
;
_chemical_formula_sum "Si O2"
_cell_formula_units_Z 76
_cell_length_a 17.221880
_cell_length_b 17.221880
_cell_length_c 14.224353
_cell_angle_alpha 90.000000
_cell_angle_beta 90.000000
_cell_angle_gamma 120.000000
_cell_volume 3653.627528
_symmetry_space_group_name_H-M "P -6 2 C"
_symmetry_group_IT_number 190
_symmetry_cell_setting 'hexagonal'
loop_
_space_group_symop_operation_xyz
x,y,z
-x+y,-x,1/2-z
-y,x-y,z
x,y,1/2-z
-x+y,-x,z
-y,x-y,1/2-z
x-y,-y,-z
-x,-x+y,-z
y,x,-z
y,x,1/2+z
x-y,-y,1/2+z
-x,-x+y,1/2+z
loop_
_atom_site_type_symbol
_atom_site_label
_atom_site_fract_x
_atom_site_fract_y
_atom_site_fract_z
Si Si1 0.891964 0.101328 0.889174
Si Si2 0.903901 0.103367 0.115598
Si Si3 0.224826 0.420721 0.357784
Si Si4 0.339293 0.898788 0.003665
Si Si5 0.596361 0.814632 0.853523
Si Si6 0.666667 0.333334 0.366204
Si Si7 0.361181 0.515756 0.973007
O O1 0.820758 0.132954 0.863778
O O2 0.993876 0.164008 0.856199
O O3 0.862002 0.000513 0.858898
O O4 0.897845 0.104855 0.002326
O O5 0.839159 0.137023 0.152027
O O6 0.247828 0.448154 0.250000
O O7 0.148178 0.439299 0.399378
O O8 0.307693 0.477384 0.429049
O O9 0.269723 0.838919 0.922263
O O10 0.430531 0.896780 0.989867
O O11 0.359910 0.000000 0.000000
O O12 0.556227 0.786328 0.750000
O O13 0.568364 0.881416 0.902786
O O14 0.666667 0.333334 0.250000
O O15 0.586102 0.342034 0.414624
#
# Coordination Sequence:
#
# PCOD9586831 Si02
#       7
#    12  12  12  12  12   4  12
#     4  10  20  38  63  94 129 175 217 267 316 374
#     4  10  20  37  64  94 131 170 220 266 316 381
#     4  11  24  43  65  91 132 177 213 258 321 387
#     4  11  24  42  63  92 127 163 211 264 315 382
#     4  11  23  40  65  95 127 163 205 263 330 381
#     4  12  21  42  73 101 124 153 207 273 331 380
#     4  11  23  42  65  95 124 161 210 266 325 380
#
# _framework density 20.801245999999999
#
# number of rings (size 3 to 8) (size 9 to 14) (size 15 to 20)
#    0.000    1.263    6.316    1.737    0.000    6.947 
#    0.000    0.000    0.000    1.895    0.000    0.000 
#    0.000    0.000    0.000    0.000    0.000    0.000 
#
# Total GULP energy -424125.579965 kJ/mol
# GULP energy per Si atom -5580.599736 kJ/mol
# Density = 2.075390 g / cm^3
# Si number density = 20.801246 Si / 1000 Ang^3
#
#
#
# Elastic Constant Matrix: (Units=GPa)
#
#
# Indices 1 2 3 4 5 6 
#
# 1 69.9929 -2.1281 12.4961 0.0000 0.0000 0.0000
# 2 -2.1281 69.9929 12.4961 0.0000 0.0000 0.0000
# 3 12.4961 12.4961 164.3464 0.0000 -0.0001 0.0000
# 4 0.0000 0.0000 0.0000 -17.6816 0.0000 0.0000
# 5 0.0000 0.0000 -0.0001 0.0000 -17.6816 0.0000
# 6 0.0000 0.0000 0.0000 0.0000 0.0000 36.0605
#
#
#
# Elastic Compliance Matrix: (Units=1/GPa)
#
#
# Indices 1 2 3 4 5 6 
#
# 1 0.014513 0.000647 -0.001153 0.000000 0.000000 0.000000
# 2 0.000647 0.014513 -0.001153 0.000000 0.000000 0.000000
# 3 -0.001153 -0.001153 0.006260 0.000000 0.000000 0.000000
# 4 0.000000 0.000000 0.000000 -0.056556 0.000000 0.000000
# 5 0.000000 0.000000 0.000000 0.000000 -0.056556 0.000000
# 6 0.000000 0.000000 0.000000 0.000000 0.000000 0.027731
#
#
# Mechanical properties :
#
#
# Convention : Reuss Voigt Hill
#
# Bulk Modulus (GPa) = 31.28063 38.89559 35.08811
# Shear Modulus (GPa) = -138.41681 18.90400 -59.75640
#
# Velocity S-wave (km/s) = -8.16621 3.01789 -5.36560
# Velocity P-wave (km/s) = 8.59334 5.55723 4.63480
#
# Compressibility (1/GPa) = 0.03196867
#
# Stress axis : x y z
#
# Youngs Moduli (GPa) = 68.90546 68.90551 159.74452
#
# Poissons Ratio (x) = -0.04458 0.18413
# Poissons Ratio (y) = -0.04458 0.18413
# Poissons Ratio (z) = 0.07943 0.07942
#
# Static dielectric constant tensor:
#      x y z
#    x 1.756540 0.000000 0.000000 
#    y 0.000000 1.756540 0.000000 
#    z 0.000000 0.000000 1.768370 
# 
# From -- ./inp_files/3100.got.cif
#   From: 2010.05.17/outbox.cif.g08.bks.cpg/sg190_2_cif.got.tgz:3100.got - 2010.05.20 12:16:56.
