data_PCOD9586339
_publ_section_title
;
Structure prediction by ZEFSAII (Michael W. Deem and Ramdas Pophale) SiO2 
 PCOD9586339
Probable space group: P -6 2 M
;
_chemical_formula_sum "Si O2"
_cell_formula_units_Z 78
_cell_length_a 24.545052
_cell_length_b 24.545052
_cell_length_c 8.503987
_cell_angle_alpha 90.000000
_cell_angle_beta 90.000000
_cell_angle_gamma 120.000000
_cell_volume 4436.915240
_symmetry_space_group_name_H-M "P -6 2 M"
_symmetry_group_IT_number 189
_symmetry_cell_setting 'hexagonal'
loop_
_space_group_symop_operation_xyz
x,y,z
-x+y,-x,-z
-y,x-y,z
x,y,-z
-x+y,-x,z
-y,x-y,-z
x-y,-y,-z
-x,-x+y,-z
y,x,-z
y,x,z
x-y,-y,z
-x,-x+y,z
loop_
_atom_site_type_symbol
_atom_site_label
_atom_site_fract_x
_atom_site_fract_y
_atom_site_fract_z
Si Si1 0.679868 0.072347 0.185903
Si Si2 0.821244 0.623659 0.683352
Si Si3 0.319627 0.730225 0.000000
Si Si4 0.733071 0.472577 0.677304
Si Si5 0.475596 0.072264 0.816533
Si Si6 0.644032 0.714432 0.311521
Si Si7 0.532401 0.390125 0.679261
O O1 0.752990 0.116930 0.226030
O O2 0.642515 0.101811 0.272653
O O3 0.652041 0.000000 0.231401
O O4 0.670369 0.075175 0.000000
O O5 0.837315 0.640575 0.500000
O O6 0.773267 0.548183 0.686284
O O7 0.780455 0.653485 0.747725
O O8 0.269447 0.654656 0.000000
O O9 0.308104 0.755121 0.835307
O O10 0.703696 0.455393 0.500000
O O11 0.785343 0.450633 0.686267
O O12 0.426551 0.085238 0.724042
O O13 0.547887 0.119307 0.780794
O O14 0.456696 0.000000 0.779591
O O15 0.463417 0.075027 0.000000
O O16 0.650438 0.720053 0.500000
O O17 0.690179 0.690179 0.250328
O O18 0.539891 0.411786 0.500000
#
# Coordination Sequence:
#
# PCOD9586339 Si02
#       7
#    12  12   6  12  12  12  12
#     4  10  20  32  49  75 102 130 163 198 240 291
#     4   9  19  34  53  76  97 128 163 194 248 300
#     4  10  24  38  50  72  86 118 171 200 260 316
#     4   9  20  37  53  71  96 121 160 209 249 308
#     4  10  20  31  44  68  97 123 154 195 244 293
#     4   9  18  34  53  73  98 126 162 204 243 293
#     4  10  20  32  49  71  93 124 158 197 253 301
#
# _framework density 17.579781000000001
#
# number of rings (size 3 to 8) (size 9 to 14) (size 15 to 20)
#    0.154    2.308    0.000    2.769    5.385    6.462 
#    0.000    3.077    0.000    0.000    0.000    0.000 
#    0.000    0.000    0.000    0.462    0.000    7.077 
#
# Total GULP energy -435322.248019 kJ/mol
# GULP energy per Si atom -5581.054462 kJ/mol
# Density = 1.753977 g / cm^3
# Si number density = 17.579781 Si / 1000 Ang^3
#
#
#
# Elastic Constant Matrix: (Units=GPa)
#
#
# Indices 1 2 3 4 5 6 
#
# 1 60.5867 19.0318 12.6281 0.0000 0.0000 0.0000
# 2 19.0318 60.5867 12.6281 0.0000 0.0000 0.0000
# 3 12.6281 12.6281 52.8682 0.0000 0.0000 0.0000
# 4 0.0000 0.0000 0.0000 14.0500 0.0000 0.0000
# 5 0.0000 0.0000 0.0000 0.0000 14.0500 0.0000
# 6 0.0000 0.0000 0.0000 0.0000 0.0000 20.7775
#
#
#
# Elastic Compliance Matrix: (Units=1/GPa)
#
#
# Indices 1 2 3 4 5 6 
#
# 1 0.018827 -0.005237 -0.003246 0.000000 0.000000 0.000000
# 2 -0.005237 0.018827 -0.003246 0.000000 0.000000 0.000000
# 3 -0.003246 -0.003246 0.020466 0.000000 0.000000 0.000000
# 4 0.000000 0.000000 0.000000 0.071175 0.000000 0.000000
# 5 0.000000 0.000000 0.000000 0.000000 0.071175 0.000000
# 6 0.000000 0.000000 0.000000 0.000000 0.000000 0.048129
#
#
# Mechanical properties :
#
#
# Convention : Reuss Voigt Hill
#
# Bulk Modulus (GPa) = 28.85110 29.17977 29.01544
# Shear Modulus (GPa) = 17.62981 18.42572 18.02777
#
# Velocity S-wave (km/s) = 3.17021 3.24098 3.20579
# Velocity P-wave (km/s) = 5.46328 5.53532 5.49942
#
# Compressibility (1/GPa) = 0.03466073
#
# Stress axis : x y z
#
# Youngs Moduli (GPa) = 53.11506 53.11506 48.86238
#
# Poissons Ratio (x) = 0.27819 0.15861
# Poissons Ratio (y) = 0.27819 0.15861
# Poissons Ratio (z) = 0.17241 0.17241
#
# Static dielectric constant tensor:
#      x y z
#    x 1.613680 0.000000 0.000000 
#    y 0.000000 1.613680 0.000000 
#    z 0.000000 0.000000 1.628720 
# 
# From -- ./inp_files/1427.got.cif
#   From: 2010.05.17/outbox.cif.g08.bks.cpg/sg189_1_cif.got.tgz:1427.got - 2010.05.20 12:14:34.
