data_PCOD9586793
_publ_section_title
;
Structure prediction by ZEFSAII (Michael W. Deem and Ramdas Pophale) SiO2 
 PCOD9586793
Probable space group: P -6 2 C
;
_chemical_formula_sum "Si O2"
_cell_formula_units_Z 84
_cell_length_a 18.015476
_cell_length_b 18.015476
_cell_length_c 13.702052
_cell_angle_alpha 90.000000
_cell_angle_beta 90.000000
_cell_angle_gamma 120.000000
_cell_volume 3851.303337
_symmetry_space_group_name_H-M "P -6 2 C"
_symmetry_group_IT_number 190
_symmetry_cell_setting 'hexagonal'
loop_
_space_group_symop_operation_xyz
x,y,z
-x+y,-x,1/2-z
-y,x-y,z
x,y,1/2-z
-x+y,-x,z
-y,x-y,1/2-z
x-y,-y,-z
-x,-x+y,-z
y,x,-z
y,x,1/2+z
x-y,-y,1/2+z
-x,-x+y,1/2+z
loop_
_atom_site_type_symbol
_atom_site_label
_atom_site_fract_x
_atom_site_fract_y
_atom_site_fract_z
Si Si1 0.681319 0.909104 0.140856
Si Si2 0.227634 0.495003 0.145852
Si Si3 0.758989 0.500209 0.064069
Si Si4 0.097411 0.768929 0.862390
Si Si5 0.905449 0.808781 0.014497
Si Si6 0.430189 0.875954 0.917776
Si Si7 0.449279 0.927364 0.359785
O O1 0.717646 0.922159 0.250000
O O2 0.588732 0.826122 0.144356
O O3 0.742153 0.896573 0.068150
O O4 0.690403 0.001273 0.117032
O O5 0.262124 0.539803 0.250000
O O6 0.128345 0.472869 0.142255
O O7 0.270664 0.539503 0.044859
O O8 0.832982 0.598796 0.069102
O O9 0.671844 0.495128 0.098810
O O10 0.807334 0.457260 0.117241
O O11 0.118601 0.765136 0.750000
O O12 0.096680 0.856028 0.886784
O O13 0.834669 0.834669 0.000000
O O14 0.000000 0.889217 0.000000
O O15 0.469720 0.969669 0.870006
O O16 0.461015 0.895316 0.032878
O O17 0.473772 0.909497 0.250000
#
# Coordination Sequence:
#
# PCOD9586793 Si02
#       7
#    12  12  12  12  12  12  12
#     4   9  18  34  56  86 116 149 192 243 295 346
#     4   9  18  35  62  90 118 152 193 251 309 357
#     4  11  22  40  60  86 120 156 201 249 304 367
#     4  10  22  38  57  84 118 152 197 245 296 354
#     4  10  20  35  55  82 116 154 192 237 285 351
#     4  10  23  39  62  88 119 161 204 252 307 373
#     4   9  20  40  60  87 121 155 202 254 307 366
#
# _framework density 21.810797999999998
#
# number of rings (size 3 to 8) (size 9 to 14) (size 15 to 20)
#    0.000    2.286    1.429    0.429    0.000    5.714 
#    0.000    2.857    0.000    5.143    0.000    0.000 
#    0.000    0.000    0.000    0.000    0.000    0.000 
#
# Total GULP energy -467627.194551 kJ/mol
# GULP energy per Si atom -5566.990411 kJ/mol
# Density = 2.176116 g / cm^3
# Si number density = 21.810798 Si / 1000 Ang^3
#
#
#
# Elastic Constant Matrix: (Units=GPa)
#
#
# Indices 1 2 3 4 5 6 
#
# 1 80.9318 34.2452 9.7423 0.0000 0.0000 0.0000
# 2 34.2452 80.9318 9.7423 0.0000 0.0000 0.0000
# 3 9.7423 9.7423 94.9401 0.0000 0.0000 0.0000
# 4 0.0000 0.0000 0.0000 6.4261 0.0000 0.0000
# 5 0.0000 0.0000 0.0000 0.0000 6.4261 0.0000
# 6 0.0000 0.0000 0.0000 0.0000 0.0000 23.3433
#
#
#
# Elastic Compliance Matrix: (Units=1/GPa)
#
#
# Indices 1 2 3 4 5 6 
#
# 1 0.015128 -0.006292 -0.000907 0.000000 0.000000 0.000000
# 2 -0.006292 0.015128 -0.000907 0.000000 0.000000 0.000000
# 3 -0.000907 -0.000907 0.010719 0.000000 0.000000 0.000000
# 4 0.000000 0.000000 0.000000 0.155614 0.000000 0.000000
# 5 0.000000 0.000000 0.000000 0.000000 0.155614 0.000000
# 6 0.000000 0.000000 0.000000 0.000000 0.000000 0.042839
#
#
# Mechanical properties :
#
#
# Convention : Reuss Voigt Hill
#
# Bulk Modulus (GPa) = 40.38174 40.47372 40.42773
# Shear Modulus (GPa) = 11.91876 20.77736 16.34806
#
# Velocity S-wave (km/s) = 2.34019 3.08980 2.74074
# Velocity P-wave (km/s) = 5.08495 5.59698 5.34710
#
# Compressibility (1/GPa) = 0.02476367
#
# Stress axis : x y z
#
# Youngs Moduli (GPa) = 66.10454 66.10454 93.29193
#
# Poissons Ratio (x) = 0.41592 0.08459
# Poissons Ratio (y) = 0.41592 0.08459
# Poissons Ratio (z) = 0.05994 0.05994
#
# Static dielectric constant tensor:
#      x y z
#    x 1.814110 0.000000 0.000000 
#    y 0.000000 1.814110 0.000000 
#    z 0.000000 0.000000 1.877550 
# 
# From -- ./inp_files/3153.got.cif
#   From: 2010.05.17/outbox.cif.g08.bks.cpg/sg190_2_cif.got.tgz:3153.got - 2010.05.20 12:16:56.
