data_PCOD9586040
_publ_section_title
;
Structure prediction by ZEFSAII (Michael W. Deem and Ramdas Pophale) SiO2 
 PCOD9586040
Probable space group: P -6 C 2
;
_chemical_formula_sum "Si O2"
_cell_formula_units_Z 72
_cell_length_a 15.018867
_cell_length_b 15.018867
_cell_length_c 17.334664
_cell_angle_alpha 90.000000
_cell_angle_beta 90.000000
_cell_angle_gamma 120.000000
_cell_volume 3386.260796
_symmetry_space_group_name_H-M "P -6 C 2"
_symmetry_group_IT_number 188
_symmetry_cell_setting 'hexagonal'
loop_
_space_group_symop_operation_xyz
x,y,z
-x+y,-x,1/2-z
-y,x-y,z
x,y,1/2-z
-x+y,-x,z
-y,x-y,1/2-z
-y,-x,-z
-x+y,y,-z
x,x-y,-z
-x+y,y,1/2+z
x,x-y,1/2+z
-y,-x,1/2+z
loop_
_atom_site_type_symbol
_atom_site_label
_atom_site_fract_x
_atom_site_fract_y
_atom_site_fract_z
Si Si1 0.527138 0.381408 0.416049
Si Si2 0.000172 0.207760 0.981208
Si Si3 0.722821 0.188501 0.663335
Si Si4 0.490320 0.925918 0.342641
Si Si5 0.312884 0.955597 0.117734
Si Si6 0.103071 0.330309 0.664109
O O1 0.577633 0.422368 0.500000
O O2 0.459068 0.260666 0.401940
O O3 0.621427 0.426135 0.355677
O O4 0.464170 0.434417 0.388154
O O5 0.020403 0.249262 0.894411
O O6 0.890432 0.109569 0.000000
O O7 0.091152 0.182304 0.000000
O O8 0.023323 0.306092 0.033590
O O9 0.761223 0.221826 0.750000
O O10 0.686970 0.068571 0.653973
O O11 0.484849 0.940599 0.250000
O O12 0.380380 0.899319 0.376931
O O13 0.550460 0.863364 0.352978
O O14 0.205147 0.883163 0.158624
O O15 0.060048 0.309229 0.750000
#
# Coordination Sequence:
#
# PCOD9586040 Si02
#       6
#    12  12  12  12  12  12
#     4  11  23  36  56  88 124 165 210 254 309 382
#     4  10  23  42  67  95 129 170 216 270 330 392
#     4  11  22  38  60  85 127 167 210 261 315 378
#     4  10  22  39  61  89 127 164 208 264 320 380
#     4  10  22  40  66  96 126 168 221 268 321 392
#     4  10  22  42  65  94 132 168 218 271 326 389
#
# _framework density 21.262391999999998
#
# number of rings (size 3 to 8) (size 9 to 14) (size 15 to 20)
#    0.000    1.667    0.000    5.000    7.000    0.000 
#    1.000    4.167    0.000    0.000    0.000    0.000 
#    0.000    0.000    0.000    0.000    0.000    0.000 
#
# Total GULP energy -401823.934198 kJ/mol
# GULP energy per Si atom -5580.887975 kJ/mol
# Density = 2.121400 g / cm^3
# Si number density = 21.262392 Si / 1000 Ang^3
#
#
#
# Elastic Constant Matrix: (Units=GPa)
#
#
# Indices 1 2 3 4 5 6 
#
# 1 94.3188 33.4439 46.8662 -0.0002 0.0000 0.0000
# 2 33.4439 94.3188 46.8662 0.0002 0.0000 0.0000
# 3 46.8662 46.8662 98.1241 0.0000 0.0000 0.0000
# 4 -0.0002 0.0002 0.0000 15.5932 0.0000 0.0000
# 5 0.0000 0.0000 0.0000 0.0000 15.5932 -0.0002
# 6 0.0000 0.0000 0.0000 0.0000 -0.0002 30.4374
#
#
#
# Elastic Compliance Matrix: (Units=1/GPa)
#
#
# Indices 1 2 3 4 5 6 
#
# 1 0.014238 -0.002189 -0.005755 0.000000 0.000000 0.000000
# 2 -0.002189 0.014238 -0.005755 0.000000 0.000000 0.000000
# 3 -0.005755 -0.005755 0.015689 0.000000 0.000000 0.000000
# 4 0.000000 0.000000 0.000000 0.064130 0.000000 0.000000
# 5 0.000000 0.000000 0.000000 0.000000 0.064130 0.000000
# 6 0.000000 0.000000 0.000000 0.000000 0.000000 0.032854
#
#
# Mechanical properties :
#
#
# Convention : Reuss Voigt Hill
#
# Bulk Modulus (GPa) = 59.64083 60.12384 59.88234
# Shear Modulus (GPa) = 20.98489 22.96379 21.97434
#
# Velocity S-wave (km/s) = 3.14498 3.28993 3.21827
# Velocity P-wave (km/s) = 6.42641 6.53988 6.48339
#
# Compressibility (1/GPa) = 0.01676704
#
# Stress axis : x y z
#
# Youngs Moduli (GPa) = 70.23410 70.23410 63.74095
#
# Poissons Ratio (x) = 0.15375 0.36682
# Poissons Ratio (y) = 0.15375 0.36682
# Poissons Ratio (z) = 0.40419 0.40419
#
# Static dielectric constant tensor:
#      x y z
#    x 1.805930 0.000000 0.000000 
#    y 0.000000 1.805930 0.000000 
#    z 0.000000 0.000000 1.772180 
# 
# From -- ./inp_files/3202.got.cif
#   From: 2010.05.17/outbox.cif.g08.bks.cpg/sg188_2_cif.got.tgz:3202.got - 2010.05.20 12:11:46.
