data_PCOD9586727
_publ_section_title
;
Structure prediction by ZEFSAII (Michael W. Deem and Ramdas Pophale) SiO2 
 PCOD9586727
Probable space group: P -6 2 C
;
_chemical_formula_sum "Si O2"
_cell_formula_units_Z 60
_cell_length_a 13.513680
_cell_length_b 13.513680
_cell_length_c 17.538431
_cell_angle_alpha 90.000000
_cell_angle_beta 90.000000
_cell_angle_gamma 120.000000
_cell_volume 2773.758408
_symmetry_space_group_name_H-M "P -6 2 C"
_symmetry_group_IT_number 190
_symmetry_cell_setting 'hexagonal'
loop_
_space_group_symop_operation_xyz
x,y,z
-x+y,-x,1/2-z
-y,x-y,z
x,y,1/2-z
-x+y,-x,z
-y,x-y,1/2-z
x-y,-y,-z
-x,-x+y,-z
y,x,-z
y,x,1/2+z
x-y,-y,1/2+z
-x,-x+y,1/2+z
loop_
_atom_site_type_symbol
_atom_site_label
_atom_site_fract_x
_atom_site_fract_y
_atom_site_fract_z
Si Si1 0.586471 0.447480 0.333951
Si Si2 0.271133 0.878462 0.954431
Si Si3 0.670107 0.907328 0.838119
Si Si4 0.874269 0.391998 0.667109
Si Si5 0.151403 0.734787 0.402130
O O1 0.637947 0.448069 0.250000
O O2 0.654342 0.483651 0.413377
O O3 0.465647 0.332052 0.339175
O O4 0.560348 0.551130 0.329810
O O5 0.185009 0.870336 0.886912
O O6 0.185534 0.787148 0.014852
O O7 0.343627 0.000000 0.000000
O O8 0.703616 0.912294 0.750000
O O9 0.724994 0.034278 0.873215
O O10 0.836475 0.411930 0.750000
O O11 0.853796 0.466951 0.605203
O O12 0.816333 0.260102 0.649409
#
# Coordination Sequence:
#
# PCOD9586727 Si02
#       5
#    12  12  12  12  12
#     4   9  20  40  62  86 125 171 214 258 318 401
#     4  12  24  39  62  97 132 173 223 280 333 385
#     4  10  23  44  66  90 131 180 227 272 326 402
#     4  10  19  35  60  92 127 162 203 254 325 401
#     4  11  22  37  64  97 133 167 213 274 335 399
#
# _framework density 21.631302000000002
#
# number of rings (size 3 to 8) (size 9 to 14) (size 15 to 20)
#    0.000    1.600    2.000    4.600    2.800    0.000 
#    1.200    0.000    0.000    3.200    0.000    0.000 
#    0.000    0.000    0.000    0.000    0.000    0.000 
#
# Total GULP energy -334634.403411 kJ/mol
# GULP energy per Si atom -5577.240057 kJ/mol
# Density = 2.158207 g / cm^3
# Si number density = 21.631302 Si / 1000 Ang^3
#
#
#
# Elastic Constant Matrix: (Units=GPa)
#
#
# Indices 1 2 3 4 5 6 
#
# 1 66.0573 21.6406 27.6897 0.0000 0.0000 0.0000
# 2 21.6406 66.0573 27.6897 0.0000 0.0000 0.0000
# 3 27.6897 27.6897 153.9766 0.0000 0.0000 0.0000
# 4 0.0000 0.0000 0.0000 24.9843 0.0000 0.0000
# 5 0.0000 0.0000 0.0000 0.0000 24.9843 0.0000
# 6 0.0000 0.0000 0.0000 0.0000 0.0000 22.2084
#
#
#
# Elastic Compliance Matrix: (Units=1/GPa)
#
#
# Indices 1 2 3 4 5 6 
#
# 1 0.017689 -0.004825 -0.002313 0.000000 0.000000 0.000000
# 2 -0.004825 0.017689 -0.002313 0.000000 0.000000 0.000000
# 3 -0.002313 -0.002313 0.007326 0.000000 0.000000 0.000000
# 4 0.000000 0.000000 0.000000 0.040025 0.000000 0.000000
# 5 0.000000 0.000000 0.000000 0.000000 0.040025 0.000000
# 6 0.000000 0.000000 0.000000 0.000000 0.000000 0.045028
#
#
# Mechanical properties :
#
#
# Convention : Reuss Voigt Hill
#
# Bulk Modulus (GPa) = 42.01579 48.90344 45.45961
# Shear Modulus (GPa) = 25.69114 28.37346 27.03230
#
# Velocity S-wave (km/s) = 3.45002 3.62565 3.53892
# Velocity P-wave (km/s) = 5.94440 6.33908 6.14491
#
# Compressibility (1/GPa) = 0.02380058
#
# Stress axis : x y z
#
# Youngs Moduli (GPa) = 56.53292 56.53292 136.49117
#
# Poissons Ratio (x) = 0.27278 0.31574
# Poissons Ratio (y) = 0.27278 0.31574
# Poissons Ratio (z) = 0.13078 0.13078
#
# Static dielectric constant tensor:
#      x y z
#    x 1.810250 0.000000 0.000000 
#    y 0.000000 1.810250 0.000000 
#    z 0.000000 0.000000 1.917530 
# 
# From -- ./inp_files/2787.got.cif
#   From: 2010.05.17/outbox.cif.g08.bks.cpg/sg190_2_cif.got.tgz:2787.got - 2010.05.20 12:16:56.
