data_PCOD9586949
_publ_section_title
;
Structure prediction by ZEFSAII (Michael W. Deem and Ramdas Pophale) SiO2 
 PCOD9586949
Probable space group: P -6 2 C
;
_chemical_formula_sum "Si O2"
_cell_formula_units_Z 60
_cell_length_a 13.593873
_cell_length_b 13.593873
_cell_length_c 15.081629
_cell_angle_alpha 90.000000
_cell_angle_beta 90.000000
_cell_angle_gamma 120.000000
_cell_volume 2413.600023
_symmetry_space_group_name_H-M "P -6 2 C"
_symmetry_group_IT_number 190
_symmetry_cell_setting 'hexagonal'
loop_
_space_group_symop_operation_xyz
x,y,z
-x+y,-x,1/2-z
-y,x-y,z
x,y,1/2-z
-x+y,-x,z
-y,x-y,1/2-z
x-y,-y,-z
-x,-x+y,-z
y,x,-z
y,x,1/2+z
x-y,-y,1/2+z
-x,-x+y,1/2+z
loop_
_atom_site_type_symbol
_atom_site_label
_atom_site_fract_x
_atom_site_fract_y
_atom_site_fract_z
Si Si1 0.102853 0.216683 0.156984
Si Si2 0.151326 0.472812 0.352953
Si Si3 0.553057 0.091701 0.145479
Si Si4 0.769343 0.238016 0.457095
Si Si5 0.125705 0.219310 0.926959
O O1 0.042493 0.174339 0.250000
O O2 0.131453 0.345271 0.149940
O O3 0.209423 0.197432 0.153983
O O4 0.004910 0.136664 0.089945
O O5 0.189855 0.517441 0.250000
O O6 0.226171 0.515009 0.444285
O O7 0.033390 0.474451 0.367660
O O8 0.582728 0.099238 0.250000
O O9 0.525232 0.190168 0.117327
O O10 0.655770 0.125797 0.076191
O O11 0.864315 0.201606 0.450019
O O12 0.192910 0.192910 0.000000
#
# Coordination Sequence:
#
# PCOD9586949 Si02
#       5
#    12  12  12  12  12
#     4  11  23  41  64 100 147 193 234 290 363 450
#     4  10  23  47  74 105 150 198 241 307 390 462
#     4  11  25  45  78 113 147 193 259 322 389 455
#     4  12  25  47  76 107 149 197 255 322 384 445
#     4  12  24  39  68 103 144 190 240 288 364 453
#
# _framework density 24.859131999999999
#
# number of rings (size 3 to 8) (size 9 to 14) (size 15 to 20)
#    0.000    0.800    4.000    3.200    0.000    4.000 
#    0.000    1.000    0.000    1.200    0.000    0.000 
#    0.000    0.000    0.000    0.000    0.000    0.000 
#
# Total GULP energy -334285.435889 kJ/mol
# GULP energy per Si atom -5571.423931 kJ/mol
# Density = 2.480255 g / cm^3
# Si number density = 24.859132 Si / 1000 Ang^3
#
#
#
# Elastic Constant Matrix: (Units=GPa)
#
#
# Indices 1 2 3 4 5 6 
#
# 1 72.7186 22.5356 36.3849 0.0000 0.0000 0.0000
# 2 22.5356 72.7186 36.3849 0.0000 0.0000 0.0000
# 3 36.3849 36.3849 205.9776 0.0000 0.0000 0.0000
# 4 0.0000 0.0000 0.0000 28.8574 0.0000 0.0000
# 5 0.0000 0.0000 0.0000 0.0000 28.8574 0.0000
# 6 0.0000 0.0000 0.0000 0.0000 0.0000 25.0915
#
#
#
# Elastic Compliance Matrix: (Units=1/GPa)
#
#
# Indices 1 2 3 4 5 6 
#
# 1 0.016032 -0.003896 -0.002144 0.000000 0.000000 0.000000
# 2 -0.003896 0.016032 -0.002144 0.000000 0.000000 0.000000
# 3 -0.002144 -0.002144 0.005612 0.000000 0.000000 0.000000
# 4 0.000000 0.000000 0.000000 0.034653 0.000000 0.000000
# 5 0.000000 0.000000 0.000000 0.000000 0.034653 0.000000
# 6 0.000000 0.000000 0.000000 0.000000 0.000000 0.039854
#
#
# Mechanical properties :
#
#
# Convention : Reuss Voigt Hill
#
# Bulk Modulus (GPa) = 46.92822 60.22509 53.57665
# Shear Modulus (GPa) = 29.35909 33.63520 31.49715
#
# Velocity S-wave (km/s) = 3.44032 3.68235 3.56339
# Velocity P-wave (km/s) = 5.89065 6.50836 6.20719
#
# Compressibility (1/GPa) = 0.02130914
#
# Stress axis : x y z
#
# Youngs Moduli (GPa) = 62.37716 62.37716 178.18112
#
# Poissons Ratio (x) = 0.24299 0.38198
# Poissons Ratio (y) = 0.24299 0.38198
# Poissons Ratio (z) = 0.13372 0.13372
#
# Static dielectric constant tensor:
#      x y z
#    x 2.038850 0.000000 0.000000 
#    y 0.000000 2.038850 0.000000 
#    z 0.000000 0.000000 2.546660 
# 
# From -- ./inp_files/2822.got.cif
#   From: 2010.05.17/outbox.cif.g08.bks.cpg/sg190_2_cif.got.tgz:2822.got - 2010.05.20 12:16:56.
