data_PCOD9586748
_publ_section_title
;
Structure prediction by ZEFSAII (Michael W. Deem and Ramdas Pophale) SiO2 
 PCOD9586748
Probable space group: P -6 2 C
;
_chemical_formula_sum "Si O2"
_cell_formula_units_Z 60
_cell_length_a 16.764228
_cell_length_b 16.764228
_cell_length_c 13.460120
_cell_angle_alpha 90.000000
_cell_angle_beta 90.000000
_cell_angle_gamma 120.000000
_cell_volume 3276.021030
_symmetry_space_group_name_H-M "P -6 2 C"
_symmetry_group_IT_number 190
_symmetry_cell_setting 'hexagonal'
loop_
_space_group_symop_operation_xyz
x,y,z
-x+y,-x,1/2-z
-y,x-y,z
x,y,1/2-z
-x+y,-x,z
-y,x-y,1/2-z
x-y,-y,-z
-x,-x+y,-z
y,x,-z
y,x,1/2+z
x-y,-y,1/2+z
-x,-x+y,1/2+z
loop_
_atom_site_type_symbol
_atom_site_label
_atom_site_fract_x
_atom_site_fract_y
_atom_site_fract_z
Si Si1 0.841042 0.108404 0.517274
Si Si2 0.544195 0.804059 0.366586
Si Si3 0.978476 0.230252 0.365357
Si Si4 0.543959 0.600777 0.864368
Si Si5 0.597623 0.461195 0.930818
O O1 0.770273 0.135034 0.567445
O O2 0.881821 0.155089 0.411419
O O3 0.933917 0.165002 0.584145
O O4 0.796831 0.000000 0.500000
O O5 0.561705 0.828801 0.250000
O O6 0.512818 0.697046 0.379668
O O7 0.459205 0.813344 0.406756
O O8 0.983410 0.216803 0.250000
O O9 0.977597 0.325342 0.381213
O O10 0.521111 0.609043 0.750000
O O11 0.538080 0.503809 0.885171
O O12 0.485477 0.612392 0.951785
#
# Coordination Sequence:
#
# PCOD9586748 Si02
#       5
#    12  12  12  12  12
#     4  11  23  39  60  93 127 155 198 260 312 371
#     4  12  23  38  60  90 126 165 204 255 311 364
#     4  10  20  42  69  86 112 162 209 252 311 377
#     4  10  19  39  67  86 109 155 212 254 298 364
#     4  11  22  38  59  90 122 156 207 252 299 362
#
# _framework density 18.314900000000002
#
# number of rings (size 3 to 8) (size 9 to 14) (size 15 to 20)
#    0.000    1.200    4.000    4.000    2.800    1.600 
#    4.800    2.000    0.000    0.000    0.000    0.000 
#    0.000    0.000    0.000    0.000    0.000    0.000 
#
# Total GULP energy -334672.189640 kJ/mol
# GULP energy per Si atom -5577.869827 kJ/mol
# Density = 1.827321 g / cm^3
# Si number density = 18.314900 Si / 1000 Ang^3
#
#
#
# Elastic Constant Matrix: (Units=GPa)
#
#
# Indices 1 2 3 4 5 6 
#
# 1 45.8220 21.1901 18.4246 0.0000 0.0000 0.0000
# 2 21.1901 45.8220 18.4246 0.0000 0.0000 0.0000
# 3 18.4246 18.4246 99.5405 0.0000 0.0000 0.0000
# 4 0.0000 0.0000 0.0000 16.1183 0.0000 0.0000
# 5 0.0000 0.0000 0.0000 0.0000 16.1183 0.0000
# 6 0.0000 0.0000 0.0000 0.0000 0.0000 12.3160
#
#
#
# Elastic Compliance Matrix: (Units=1/GPa)
#
#
# Indices 1 2 3 4 5 6 
#
# 1 0.028606 -0.011992 -0.003075 0.000000 0.000000 0.000000
# 2 -0.011992 0.028606 -0.003075 0.000000 0.000000 0.000000
# 3 -0.003075 -0.003075 0.011185 0.000000 0.000000 0.000000
# 4 0.000000 0.000000 0.000000 0.062041 0.000000 0.000000
# 5 0.000000 0.000000 0.000000 0.000000 0.062041 0.000000
# 6 0.000000 0.000000 0.000000 0.000000 0.000000 0.081195
#
#
# Mechanical properties :
#
#
# Convention : Reuss Voigt Hill
#
# Bulk Modulus (GPa) = 31.14163 34.14035 32.64099
# Shear Modulus (GPa) = 15.59273 17.78686 16.68980
#
# Velocity S-wave (km/s) = 2.92099 3.11974 3.02200
# Velocity P-wave (km/s) = 5.33072 5.62657 5.48064
#
# Compressibility (1/GPa) = 0.03211135
#
# Stress axis : x y z
#
# Youngs Moduli (GPa) = 34.95811 34.95811 89.40903
#
# Poissons Ratio (x) = 0.41922 0.27494
# Poissons Ratio (y) = 0.41922 0.27494
# Poissons Ratio (z) = 0.10750 0.10750
#
# Static dielectric constant tensor:
#      x y z
#    x 1.649110 0.000000 0.000000 
#    y 0.000000 1.649110 0.000000 
#    z 0.000000 0.000000 1.654970 
# 
# From -- ./inp_files/2813.got.cif
#   From: 2010.05.17/outbox.cif.g08.bks.cpg/sg190_2_cif.got.tgz:2813.got - 2010.05.20 12:16:56.
