data_PCOD9586638
_publ_section_title
;
Structure prediction by ZEFSAII (Michael W. Deem and Ramdas Pophale) SiO2 
 PCOD9586638
Probable space group: P -6 2 C
;
_chemical_formula_sum "Si O2"
_cell_formula_units_Z 60
_cell_length_a 16.058767
_cell_length_b 16.058767
_cell_length_c 11.493803
_cell_angle_alpha 90.000000
_cell_angle_beta 90.000000
_cell_angle_gamma 120.000000
_cell_volume 2566.958069
_symmetry_space_group_name_H-M "P -6 2 C"
_symmetry_group_IT_number 190
_symmetry_cell_setting 'hexagonal'
loop_
_space_group_symop_operation_xyz
x,y,z
-x+y,-x,1/2-z
-y,x-y,z
x,y,1/2-z
-x+y,-x,z
-y,x-y,1/2-z
x-y,-y,-z
-x,-x+y,-z
y,x,-z
y,x,1/2+z
x-y,-y,1/2+z
-x,-x+y,1/2+z
loop_
_atom_site_type_symbol
_atom_site_label
_atom_site_fract_x
_atom_site_fract_y
_atom_site_fract_z
Si Si1 0.886085 0.491404 0.998727
Si Si2 0.849585 0.849585 0.000000
Si Si3 0.152905 0.019849 0.750000
Si Si4 0.911200 0.273306 0.250000
Si Si5 0.511696 0.886541 0.250000
Si Si6 0.244977 0.275278 0.250000
Si Si7 0.668995 0.865647 0.554994
Si Si8 0.903077 0.454016 0.250000
O O1 0.874194 0.585037 0.994765
O O2 0.850082 0.442833 0.126017
O O3 0.850153 0.450427 0.869014
O O4 0.000000 0.526606 0.000000
O O5 0.899177 0.884058 0.125597
O O6 0.849665 0.748454 0.988445
O O7 0.207807 0.132456 0.750000
O O8 0.230152 0.982220 0.750000
O O9 0.845119 0.226677 0.361723
O O10 0.948081 0.384411 0.250000
O O11 0.612855 0.886565 0.250000
O O12 0.564384 0.004327 0.250000
O O13 0.281820 0.241223 0.361799
#
# Coordination Sequence:
#
# PCOD9586638 Si02
#       8
#    12   6   6   6   6   6  12   6
#     4  10  18  33  60  92 113 148 199 256 304 351
#     4  10  22  36  54  84 122 160 204 252 318 350
#     4  10  22  37  55  85 117 160 214 243 317 365
#     4   9  21  38  54  83 129 164 192 255 313 382
#     4  10  19  31  56  96 113 136 189 256 312 346
#     4  11  18  35  68  85 115 157 211 276 288 361
#     4  10  19  36  58  88 121 160 207 256 306 366
#     4  10  18  35  57  85 122 149 198 250 316 362
#
# _framework density 23.373971000000001
#
# number of rings (size 3 to 8) (size 9 to 14) (size 15 to 20)
#    0.000    2.000    4.000    2.400    0.000    0.000 
#   21.600    0.000    0.000   38.400    0.000    0.000 
#    1.000    0.000    0.000    0.000    0.000    0.000 
#
# Total GULP energy -334193.577171 kJ/mol
# GULP energy per Si atom -5569.892953 kJ/mol
# Density = 2.332077 g / cm^3
# Si number density = 23.373971 Si / 1000 Ang^3
#
#
#
# Elastic Constant Matrix: (Units=GPa)
#
#
# Indices 1 2 3 4 5 6 
#
# 1 48.0857 9.6962 11.3589 0.0000 0.0000 0.0000
# 2 9.6962 48.0857 11.3589 0.0000 0.0000 0.0000
# 3 11.3589 11.3589 235.9308 0.0000 0.0000 0.0000
# 4 0.0000 0.0000 0.0000 -27.6991 0.0000 0.0000
# 5 0.0000 0.0000 0.0000 0.0000 -27.6991 0.0000
# 6 0.0000 0.0000 0.0000 0.0000 0.0000 19.1947
#
#
#
# Elastic Compliance Matrix: (Units=1/GPa)
#
#
# Indices 1 2 3 4 5 6 
#
# 1 0.021845 -0.004204 -0.000849 0.000000 0.000000 0.000000
# 2 -0.004204 0.021845 -0.000849 0.000000 0.000000 0.000000
# 3 -0.000849 -0.000849 0.004320 0.000000 0.000000 0.000000
# 4 0.000000 0.000000 0.000000 -0.036102 0.000000 0.000000
# 5 0.000000 0.000000 0.000000 0.000000 -0.036102 0.000000
# 6 0.000000 0.000000 0.000000 0.000000 0.000000 0.052098
#
#
# Mechanical properties :
#
#
# Convention : Reuss Voigt Hill
#
# Bulk Modulus (GPa) = 27.62137 44.10335 35.86236
# Shear Modulus (GPa) = 96.56966 12.73852 54.65409
#
# Velocity S-wave (km/s) = 6.43465 2.33703 4.84079
# Velocity P-wave (km/s) = 8.18835 5.11779 6.82792
#
# Compressibility (1/GPa) = 0.03620386
#
# Stress axis : x y z
#
# Youngs Moduli (GPa) = 45.77796 45.77796 231.46486
#
# Poissons Ratio (x) = 0.19246 0.19658
# Poissons Ratio (y) = 0.19246 0.19658
# Poissons Ratio (z) = 0.03888 0.03888
#
# Static dielectric constant tensor:
#      x y z
#    x 1.847170 0.000000 0.000000 
#    y 0.000000 1.847170 0.000000 
#    z 0.000000 0.000000 2.078000 
# 
# From -- ./inp_files/2046.got.cif
#   From: 2010.05.17/outbox.cif.g08.bks.cpg/sg190_2_cif.got.tgz:2046.got - 2010.05.20 12:16:56.
