data_PCOD9586920
_publ_section_title
;
Structure prediction by ZEFSAII (Michael W. Deem and Ramdas Pophale) SiO2 
 PCOD9586920
Probable space group: P -6 2 C
;
_chemical_formula_sum "Si O2"
_cell_formula_units_Z 66
_cell_length_a 20.642752
_cell_length_b 20.642752
_cell_length_c 9.306517
_cell_angle_alpha 90.000000
_cell_angle_beta 90.000000
_cell_angle_gamma 120.000000
_cell_volume 3434.416775
_symmetry_space_group_name_H-M "P -6 2 C"
_symmetry_group_IT_number 190
_symmetry_cell_setting 'hexagonal'
loop_
_space_group_symop_operation_xyz
x,y,z
-x+y,-x,1/2-z
-y,x-y,z
x,y,1/2-z
-x+y,-x,z
-y,x-y,1/2-z
x-y,-y,-z
-x,-x+y,-z
y,x,-z
y,x,1/2+z
x-y,-y,1/2+z
-x,-x+y,1/2+z
loop_
_atom_site_type_symbol
_atom_site_label
_atom_site_fract_x
_atom_site_fract_y
_atom_site_fract_z
Si Si1 0.796876 0.718280 0.576156
Si Si2 0.126806 0.433298 0.913514
Si Si3 0.080170 0.778460 0.925307
Si Si4 0.070018 0.545403 0.910623
Si Si5 0.187599 0.710722 0.969739
Si Si6 0.740063 0.427019 0.750000
O O1 0.801479 0.723844 0.750000
O O2 0.771697 0.771697 0.500000
O O3 0.735477 0.634376 0.524625
O O4 0.872899 0.732189 0.500108
O O5 0.099858 0.404631 0.750000
O O6 0.096208 0.487552 0.960217
O O7 0.217115 0.477150 0.904906
O O8 0.077880 0.781785 0.750000
O O9 0.126262 0.737065 0.967973
O O10 0.000000 0.735517 0.000000
O O11 0.041314 0.523177 0.750000
O O12 0.141793 0.627711 0.906525
O O13 0.000000 0.536448 0.000000
O O14 0.219356 0.698592 0.116690
O O15 0.743131 0.349929 0.750000
#
# Coordination Sequence:
#
# PCOD9586920 Si02
#       6
#    12  12  12  12  12   6
#     4  11  22  39  65  93 128 168 214 262 322 385
#     4  10  22  39  60  87 120 159 211 267 327 392
#     4  11  24  41  66  98 136 173 220 276 334 402
#     4  11  24  40  60  86 120 160 204 264 329 394
#     4  11  22  39  62  84 123 164 214 264 333 391
#     4  10  24  40  58  90 124 162 222 280 334 396
#
# _framework density 19.217237000000001
#
# number of rings (size 3 to 8) (size 9 to 14) (size 15 to 20)
#    0.182    1.091    0.000    7.091    7.636    2.182 
#    1.091    0.000    0.000    0.364    0.000    2.545 
#    0.000    0.000    0.000    0.000    0.000    0.000 
#
# Total GULP energy -368009.779818 kJ/mol
# GULP energy per Si atom -5575.905755 kJ/mol
# Density = 1.917350 g / cm^3
# Si number density = 19.217237 Si / 1000 Ang^3
#
#
#
# Elastic Constant Matrix: (Units=GPa)
#
#
# Indices 1 2 3 4 5 6 
#
# 1 79.0171 32.6956 60.2519 0.0000 0.0000 0.0000
# 2 32.6956 79.0171 60.2519 0.0000 0.0000 0.0000
# 3 60.2519 60.2519 165.8593 0.0000 0.0000 0.0000
# 4 0.0000 0.0000 0.0000 10.5719 0.0000 0.0000
# 5 0.0000 0.0000 0.0000 0.0000 10.5719 0.0000
# 6 0.0000 0.0000 0.0000 0.0000 0.0000 23.1608
#
#
#
# Elastic Compliance Matrix: (Units=1/GPa)
#
#
# Indices 1 2 3 4 5 6 
#
# 1 0.018154 -0.003434 -0.005347 0.000000 0.000000 0.000000
# 2 -0.003434 0.018154 -0.005347 0.000000 0.000000 0.000000
# 3 -0.005347 -0.005347 0.009914 0.000000 0.000000 0.000000
# 4 0.000000 0.000000 0.000000 0.094591 0.000000 0.000000
# 5 0.000000 0.000000 0.000000 0.000000 0.094591 0.000000
# 6 0.000000 0.000000 0.000000 0.000000 0.000000 0.043176
#
#
# Mechanical properties :
#
#
# Convention : Reuss Voigt Hill
#
# Bulk Modulus (GPa) = 55.66544 70.03247 62.84895
# Shear Modulus (GPa) = 15.98337 20.24052 18.11195
#
# Velocity S-wave (km/s) = 2.88709 3.24890 3.07332
# Velocity P-wave (km/s) = 6.33585 7.11305 6.73567
#
# Compressibility (1/GPa) = 0.01796447
#
# Stress axis : x y z
#
# Youngs Moduli (GPa) = 55.08471 55.08471 100.86596
#
# Poissons Ratio (x) = 0.18918 0.53935
# Poissons Ratio (y) = 0.18918 0.53935
# Poissons Ratio (z) = 0.29455 0.29455
#
# Static dielectric constant tensor:
#      x y z
#    x 1.687040 0.000000 0.000000 
#    y 0.000000 1.687040 0.000000 
#    z 0.000000 0.000000 1.481950 
# 
# From -- ./inp_files/1070.got.cif
#   From: 2010.05.17/outbox.cif.g08.bks.cpg/sg190_1_cif.got.tgz:1070.got - 2010.05.20 12:16:56.
