data_PCOD9586800
_publ_section_title
;
Structure prediction by ZEFSAII (Michael W. Deem and Ramdas Pophale) SiO2 
 PCOD9586800
Probable space group: P -6 2 C
;
_chemical_formula_sum "Si O2"
_cell_formula_units_Z 76
_cell_length_a 16.836512
_cell_length_b 16.836512
_cell_length_c 14.584910
_cell_angle_alpha 90.000000
_cell_angle_beta 90.000000
_cell_angle_gamma 120.000000
_cell_volume 3580.458412
_symmetry_space_group_name_H-M "P -6 2 C"
_symmetry_group_IT_number 190
_symmetry_cell_setting 'hexagonal'
loop_
_space_group_symop_operation_xyz
x,y,z
-x+y,-x,1/2-z
-y,x-y,z
x,y,1/2-z
-x+y,-x,z
-y,x-y,1/2-z
x-y,-y,-z
-x,-x+y,-z
y,x,-z
y,x,1/2+z
x-y,-y,1/2+z
-x,-x+y,1/2+z
loop_
_atom_site_type_symbol
_atom_site_label
_atom_site_fract_x
_atom_site_fract_y
_atom_site_fract_z
Si Si1 0.384114 0.302735 0.638393
Si Si2 0.124998 0.401448 0.360569
Si Si3 0.113429 0.748365 0.644837
Si Si4 0.296140 0.923624 0.858909
Si Si5 0.417448 0.573124 0.851737
Si Si6 0.160482 0.590435 0.447261
Si Si7 0.666668 0.333335 0.854771
O O1 0.399930 0.322985 0.750000
O O2 0.379813 0.206242 0.622018
O O3 0.290854 0.301327 0.610526
O O4 0.466299 0.381331 0.576910
O O5 0.124667 0.416417 0.250000
O O6 0.135198 0.491178 0.410813
O O7 0.024139 0.320919 0.390248
O O8 0.111150 0.774919 0.750000
O O9 0.205689 0.833375 0.602764
O O10 0.122752 0.657009 0.649355
O O11 0.281718 0.922392 0.750000
O O12 0.386978 0.913210 0.865556
O O13 0.410612 0.609003 0.750000
O O14 0.395863 0.597570 0.950934
O O15 0.243821 0.665035 0.387712
O O16 0.666667 0.333334 0.750000
#
# Coordination Sequence:
#
# PCOD9586800 Si02
#       7
#    12  12  12  12  12  12   4
#     4  10  20  35  58  87 120 156 197 246 302 362
#     4  10  20  35  58  87 120 156 197 246 302 362
#     4   9  19  37  58  80 114 158 200 249 300 345
#     4   9  19  37  58  80 114 158 200 249 300 345
#     4  10  23  41  59  82 114 156 204 248 291 342
#     4  12  23  36  59  89 118 158 198 240 293 357
#     4  12  24  39  58  89 130 159 186 237 292 347
#
# _framework density 21.226334000000001
#
# number of rings (size 3 to 8) (size 9 to 14) (size 15 to 20)
#    0.000    1.895    1.579    2.368    2.211    5.053 
#    0.947    0.000    0.000    0.632    0.000    4.421 
#    0.000    0.000    0.000    5.684    0.000   16.421 
#
# Total GULP energy -423285.770067 kJ/mol
# GULP energy per Si atom -5569.549606 kJ/mol
# Density = 2.117802 g / cm^3
# Si number density = 21.226334 Si / 1000 Ang^3
#
#
#
# Elastic Constant Matrix: (Units=GPa)
#
#
# Indices 1 2 3 4 5 6 
#
# 1 130.5711 78.9402 14.7917 -0.0002 -0.0004 -0.0002
# 2 78.9402 130.5720 14.7909 0.0005 0.0003 0.0004
# 3 14.7917 14.7909 118.7662 -0.0007 0.0002 -0.0002
# 4 -0.0002 0.0005 -0.0007 -15.0292 -0.0002 -0.0003
# 5 -0.0004 0.0003 0.0002 -0.0002 -15.0310 0.0003
# 6 -0.0002 0.0004 -0.0002 -0.0003 0.0003 25.8160
#
#
#
# Elastic Compliance Matrix: (Units=1/GPa)
#
#
# Indices 1 2 3 4 5 6 
#
# 1 0.012113 -0.007255 -0.000605 0.000000 0.000000 0.000000
# 2 -0.007255 0.012113 -0.000605 0.000001 0.000000 0.000000
# 3 -0.000605 -0.000605 0.008571 0.000000 0.000000 0.000000
# 4 0.000000 0.000001 0.000000 -0.066537 0.000001 -0.000001
# 5 0.000000 0.000000 0.000000 0.000001 -0.066529 0.000001
# 6 0.000000 0.000000 0.000000 -0.000001 0.000001 0.038736
#
#
# Mechanical properties :
#
#
# Convention : Reuss Voigt Hill
#
# Bulk Modulus (GPa) = 63.02315 66.32833 64.67574
# Shear Modulus (GPa) = -127.17922 17.24359 -54.96782
#
# Velocity S-wave (km/s) = -7.74893 2.85330 -5.09434
# Velocity P-wave (km/s) = 7.09265 6.49392 2.01675
#
# Compressibility (1/GPa) = 0.01586719
#
# Stress axis : x y z
#
# Youngs Moduli (GPa) = 82.55380 82.55454 116.67766
#
# Poissons Ratio (x) = 0.59892 0.07061
# Poissons Ratio (y) = 0.59891 0.07059
# Poissons Ratio (z) = 0.04996 0.04995
#
# Static dielectric constant tensor:
#      x y z
#    x 1.726940 0.000000 0.000000 
#    y 0.000000 1.726930 0.000000 
#    z 0.000000 0.000000 1.858020 
# 
# From -- ./inp_files/3058.got.cif
#   From: 2010.05.17/outbox.cif.g08.bks.cpg/sg190_2_cif.got.tgz:3058.got - 2010.05.20 12:16:56.
