data_PCOD9586269
_publ_section_title
;
Structure prediction by ZEFSAII (Michael W. Deem and Ramdas Pophale) SiO2 
 PCOD9586269
Probable space group: P -6 2 M
;
_chemical_formula_sum "Si O2"
_cell_formula_units_Z 72
_cell_length_a 22.639282
_cell_length_b 22.639282
_cell_length_c 10.406928
_cell_angle_alpha 90.000000
_cell_angle_beta 90.000000
_cell_angle_gamma 120.000000
_cell_volume 4619.324587
_symmetry_space_group_name_H-M "P -6 2 M"
_symmetry_group_IT_number 189
_symmetry_cell_setting 'hexagonal'
loop_
_space_group_symop_operation_xyz
x,y,z
-x+y,-x,-z
-y,x-y,z
x,y,-z
-x+y,-x,z
-y,x-y,-z
x-y,-y,-z
-x,-x+y,-z
y,x,-z
y,x,z
x-y,-y,z
-x,-x+y,z
loop_
_atom_site_type_symbol
_atom_site_label
_atom_site_fract_x
_atom_site_fract_y
_atom_site_fract_z
Si Si1 0.655604 0.738301 0.000000
Si Si2 0.709195 0.790869 0.274288
Si Si3 0.433056 0.516151 0.773052
Si Si4 0.916661 0.433740 0.500000
Si Si5 0.917099 0.614788 0.144803
Si Si6 0.203776 0.283518 0.350100
Si Si7 0.082331 0.381126 0.500000
Si Si8 0.479699 0.083185 0.000000
O O1 0.680068 0.780828 0.869405
O O2 0.575515 0.683046 0.000000
O O3 0.693681 0.693681 0.000000
O O4 0.758841 0.758841 0.281537
O O5 0.743707 0.868869 0.317901
O O6 0.647291 0.747805 0.373737
O O7 0.473752 0.473752 0.773951
O O8 0.439391 0.544141 0.629842
O O9 0.357009 0.462589 0.818004
O O10 0.472920 0.576674 0.874613
O O11 0.893182 0.353845 0.500000
O O12 0.000000 0.474726 0.500000
O O13 0.899662 0.653017 0.254764
O O14 0.000000 0.654916 0.141675
O O15 0.894004 0.618519 0.000000
O O16 0.216791 0.303776 0.500000
O O17 0.229863 0.229863 0.328081
O O18 0.000000 0.343318 0.500000
O O19 0.436485 0.000000 0.000000
#
# Coordination Sequence:
#
# PCOD9586269 Si02
#       8
#     6  12  12   6  12  12   6   6
#     4   9  18  28  44  69  95 121 152 184 224 286
#     4  10  19  33  50  68  92 123 158 201 253 309
#     4   9  15  23  37  58  87 122 153 176 201 239
#     4   9  16  22  35  61  89 119 152 176 200 244
#     4   9  17  29  43  61  87 120 155 186 222 272
#     4  10  21  34  49  68  89 119 161 206 252 306
#     4   9  16  28  44  63  89 123 156 184 226 284
#     4   9  14  24  39  59  89 123 152 174 196 238
#
# _framework density 15.586693
#
# number of rings (size 3 to 8) (size 9 to 14) (size 15 to 20)
#    0.000    2.667    1.667    1.000    2.333    4.000 
#    0.000    0.000    0.000    0.333    0.000    0.000 
#    0.000    0.000    0.000   20.000    0.000   13.333 
#
# Total GULP energy -400912.108516 kJ/mol
# GULP energy per Si atom -5568.223729 kJ/mol
# Density = 1.555122 g / cm^3
# Si number density = 15.586693 Si / 1000 Ang^3
#
#
#
# Elastic Constant Matrix: (Units=GPa)
#
#
# Indices 1 2 3 4 5 6 
#
# 1 49.4313 24.8709 36.1579 0.0000 0.0000 0.0000
# 2 24.8709 49.4313 36.1579 0.0000 0.0000 0.0000
# 3 36.1579 36.1579 145.9349 0.0000 0.0000 0.0000
# 4 0.0000 0.0000 0.0000 17.6220 0.0000 0.0000
# 5 0.0000 0.0000 0.0000 0.0000 17.6220 0.0000
# 6 0.0000 0.0000 0.0000 0.0000 0.0000 12.2802
#
#
#
# Elastic Compliance Matrix: (Units=1/GPa)
#
#
# Indices 1 2 3 4 5 6 
#
# 1 0.029226 -0.011490 -0.004394 0.000000 0.000000 0.000000
# 2 -0.011490 0.029226 -0.004394 0.000000 0.000000 0.000000
# 3 -0.004394 -0.004394 0.009030 0.000000 0.000000 0.000000
# 4 0.000000 0.000000 0.000000 0.056747 0.000000 0.000000
# 5 0.000000 0.000000 0.000000 0.000000 0.056747 0.000000
# 6 0.000000 0.000000 0.000000 0.000000 0.000000 0.081432
#
#
# Mechanical properties :
#
#
# Convention : Reuss Voigt Hill
#
# Bulk Modulus (GPa) = 37.14217 48.79677 42.96947
# Shear Modulus (GPa) = 16.02875 19.34556 17.68716
#
# Velocity S-wave (km/s) = 3.21029 3.52683 3.37227
# Velocity P-wave (km/s) = 6.13371 6.92527 6.54147
#
# Compressibility (1/GPa) = 0.02692357
#
# Stress axis : x y z
#
# Youngs Moduli (GPa) = 34.21657 34.21657 110.74361
#
# Poissons Ratio (x) = 0.39316 0.48663
# Poissons Ratio (y) = 0.39316 0.48663
# Poissons Ratio (z) = 0.15036 0.15036
#
# Static dielectric constant tensor:
#      x y z
#    x 1.511860 0.000000 0.000000 
#    y 0.000000 1.511860 0.000000 
#    z 0.000000 0.000000 1.538630 
# 
# From -- ./inp_files/1379.got.cif
#   From: 2010.05.17/outbox.cif.g08.bks.cpg/sg189_1_cif.got.tgz:1379.got - 2010.05.20 12:14:34.
