data_PCOD9586767
_publ_section_title
;
Structure prediction by ZEFSAII (Michael W. Deem and Ramdas Pophale) SiO2 
 PCOD9586767
Probable space group: P -6 2 C
;
_chemical_formula_sum "Si O2"
_cell_formula_units_Z 48
_cell_length_a 13.878643
_cell_length_b 13.878643
_cell_length_c 11.354861
_cell_angle_alpha 90.000000
_cell_angle_beta 90.000000
_cell_angle_gamma 120.000000
_cell_volume 1894.115522
_symmetry_space_group_name_H-M "P -6 2 C"
_symmetry_group_IT_number 190
_symmetry_cell_setting 'hexagonal'
loop_
_space_group_symop_operation_xyz
x,y,z
-x+y,-x,1/2-z
-y,x-y,z
x,y,1/2-z
-x+y,-x,z
-y,x-y,1/2-z
x-y,-y,-z
-x,-x+y,-z
y,x,-z
y,x,1/2+z
x-y,-y,1/2+z
-x,-x+y,1/2+z
loop_
_atom_site_type_symbol
_atom_site_label
_atom_site_fract_x
_atom_site_fract_y
_atom_site_fract_z
Si Si1 0.248584 0.014862 0.376370
Si Si2 0.502303 0.148162 0.879520
Si Si3 0.514969 0.750357 0.622518
Si Si4 0.621162 0.003653 0.376085
O O1 0.190259 0.995756 0.250000
O O2 0.356266 0.137309 0.375548
O O3 0.187356 0.000000 0.500000
O O4 0.301662 0.933251 0.381260
O O5 0.527470 0.204343 0.750000
O O6 0.561906 0.073886 0.883741
O O7 0.529029 0.221371 0.996824
O O8 0.469950 0.694870 0.750000
O O9 0.521597 0.868652 0.626259
O O10 0.656619 0.977833 0.250000
O O11 0.675384 0.000000 0.500000
#
# Coordination Sequence:
#
# PCOD9586767 Si02
#       4
#    12  12  12  12
#     4   8  13  23  41  63  87 117 156 206 262 320
#     4   9  17  30  49  72  98 132 177 231 290 351
#     4   9  17  29  46  69  95 125 167 220 277 341
#     4  10  20  32  48  72 102 138 182 235 296 360
#
# _framework density 25.341643999999999
#
# number of rings (size 3 to 8) (size 9 to 14) (size 15 to 20)
#    0.000    3.000    0.000    2.250    0.000    4.000 
#    0.000    0.000    0.000    8.000    0.000   28.000 
#    0.000    0.000    0.000   20.250    0.000  273.000 
#
# Total GULP energy -267757.223963 kJ/mol
# GULP energy per Si atom -5578.275499 kJ/mol
# Density = 2.528396 g / cm^3
# Si number density = 25.341644 Si / 1000 Ang^3
#
#
#
# Elastic Constant Matrix: (Units=GPa)
#
#
# Indices 1 2 3 4 5 6 
#
# 1 43.0825 25.1707 32.7988 0.0000 0.0000 0.0000
# 2 25.1707 43.0825 32.7988 0.0000 0.0000 0.0000
# 3 32.7988 32.7988 366.6196 0.0000 0.0000 0.0000
# 4 0.0000 0.0000 0.0000 2.8456 0.0000 0.0000
# 5 0.0000 0.0000 0.0000 0.0000 2.8456 0.0000
# 6 0.0000 0.0000 0.0000 0.0000 0.0000 8.9559
#
#
#
# Elastic Compliance Matrix: (Units=1/GPa)
#
#
# Indices 1 2 3 4 5 6 
#
# 1 0.035929 -0.019900 -0.001434 0.000000 0.000000 0.000000
# 2 -0.019900 0.035929 -0.001434 0.000000 0.000000 0.000000
# 3 -0.001434 -0.001434 0.002984 0.000000 0.000000 0.000000
# 4 0.000000 0.000000 0.000000 0.351422 0.000000 0.000000
# 5 0.000000 0.000000 0.000000 0.000000 0.351422 0.000000
# 6 0.000000 0.000000 0.000000 0.000000 0.000000 0.111658
#
#
# Mechanical properties :
#
#
# Convention : Reuss Voigt Hill
#
# Bulk Modulus (GPa) = 34.12133 70.48011 52.30072
# Shear Modulus (GPa) = 5.29296 27.06384 16.17840
#
# Velocity S-wave (km/s) = 1.44678 3.27151 2.52942
# Velocity P-wave (km/s) = 4.03543 6.49174 5.40497
#
# Compressibility (1/GPa) = 0.02930718
#
# Stress axis : x y z
#
# Youngs Moduli (GPa) = 27.83242 27.83242 335.09704
#
# Poissons Ratio (x) = 0.55386 0.48055
# Poissons Ratio (y) = 0.55386 0.48055
# Poissons Ratio (z) = 0.03991 0.03991
#
# Static dielectric constant tensor:
#      x y z
#    x 1.969270 0.000000 0.000000 
#    y 0.000000 1.969270 0.000000 
#    z 0.000000 0.000000 2.157640 
# 
# From -- ./inp_files/1804.got.cif
#   From: 2010.05.17/outbox.cif.g08.bks.cpg/sg190_1_cif.got.tgz:1804.got - 2010.05.20 12:16:56.
