data_PCOD9586113
_publ_section_title
;
Structure prediction by ZEFSAII (Michael W. Deem and Ramdas Pophale) SiO2 
 PCOD9586113
Probable space group: P -6 2 M
;
_chemical_formula_sum "Si O2"
_cell_formula_units_Z 66
_cell_length_a 13.878682
_cell_length_b 13.878682
_cell_length_c 21.690802
_cell_angle_alpha 90.000000
_cell_angle_beta 90.000000
_cell_angle_gamma 120.000000
_cell_volume 3618.284332
_symmetry_space_group_name_H-M "P -6 2 M"
_symmetry_group_IT_number 189
_symmetry_cell_setting 'hexagonal'
loop_
_space_group_symop_operation_xyz
x,y,z
-x+y,-x,-z
-y,x-y,z
x,y,-z
-x+y,-x,z
-y,x-y,-z
x-y,-y,-z
-x,-x+y,-z
y,x,-z
y,x,z
x-y,-y,z
-x,-x+y,z
loop_
_atom_site_type_symbol
_atom_site_label
_atom_site_fract_x
_atom_site_fract_y
_atom_site_fract_z
Si Si1 0.692952 0.128630 0.168299
Si Si2 0.661217 0.535756 0.634705
Si Si3 0.448234 0.645951 0.500000
Si Si4 0.803331 0.674745 0.069490
Si Si5 0.322106 0.454820 0.307275
Si Si6 0.557793 0.130923 0.934204
O O1 0.791805 0.133656 0.126567
O O2 0.718742 0.173517 0.237225
O O3 0.635832 0.179494 0.124481
O O4 0.602506 0.000000 0.178827
O O5 0.630656 0.630656 0.648700
O O6 0.638274 0.502656 0.562882
O O7 0.786120 0.567450 0.650421
O O8 0.574134 0.426573 0.673543
O O9 0.316620 0.555358 0.500000
O O10 0.768998 0.768998 0.078028
O O11 0.687659 0.557006 0.069256
O O12 0.852104 0.688422 0.000000
O O13 0.367118 0.367118 0.313574
O O14 0.520379 0.000000 0.935923
O O15 0.613629 0.179843 0.000000
#
# Coordination Sequence:
#
# PCOD9586113 Si02
#       6
#    12  12   6  12  12  12
#     4  10  20  32  49  71  98 134 171 211 263 320
#     4  11  21  37  60  83 115 156 189 224 277 332
#     4  10  17  34  60  84 123 150 182 230 266 316
#     4   9  18  32  49  69  95 129 172 221 269 319
#     4  10  22  37  53  82 118 148 190 235 277 337
#     4   8  15  29  45  63  90 123 164 210 255 308
#
# _framework density 18.240690000000001
#
# number of rings (size 3 to 8) (size 9 to 14) (size 15 to 20)
#    0.182    2.182    1.818    2.273    2.545    1.818 
#    1.091    0.455    0.000    0.727    0.000    0.000 
#    0.000    0.000    0.000    0.000    0.000    0.000 
#
# Total GULP energy -367648.885448 kJ/mol
# GULP energy per Si atom -5570.437658 kJ/mol
# Density = 1.819917 g / cm^3
# Si number density = 18.240690 Si / 1000 Ang^3
#
#
#
# Elastic Constant Matrix: (Units=GPa)
#
#
# Indices 1 2 3 4 5 6 
#
# 1 62.0782 20.7321 17.6647 0.0000 0.0000 0.0000
# 2 20.7321 62.0782 17.6647 0.0000 0.0000 0.0000
# 3 17.6647 17.6647 111.0140 0.0000 0.0000 0.0000
# 4 0.0000 0.0000 0.0000 14.3765 0.0000 0.0000
# 5 0.0000 0.0000 0.0000 0.0000 14.3765 0.0000
# 6 0.0000 0.0000 0.0000 0.0000 0.0000 20.6731
#
#
#
# Elastic Compliance Matrix: (Units=1/GPa)
#
#
# Indices 1 2 3 4 5 6 
#
# 1 0.018571 -0.005615 -0.002061 0.000000 0.000000 0.000000
# 2 -0.005615 0.018571 -0.002061 0.000000 0.000000 0.000000
# 3 -0.002061 -0.002061 0.009664 0.000000 0.000000 0.000000
# 4 0.000000 0.000000 0.000000 0.069558 0.000000 0.000000
# 5 0.000000 0.000000 0.000000 0.000000 0.069558 0.000000
# 6 0.000000 0.000000 0.000000 0.000000 0.000000 0.048372
#
#
# Mechanical properties :
#
#
# Convention : Reuss Voigt Hill
#
# Bulk Modulus (GPa) = 36.59165 38.58813 37.58989
# Shear Modulus (GPa) = 19.02011 21.82580 20.42295
#
# Velocity S-wave (km/s) = 3.23264 3.46286 3.34973
# Velocity P-wave (km/s) = 5.83414 6.09832 5.96769
#
# Compressibility (1/GPa) = 0.02732864
#
# Stress axis : x y z
#
# Youngs Moduli (GPa) = 53.84835 53.84835 103.47774
#
# Poissons Ratio (x) = 0.30238 0.21331
# Poissons Ratio (y) = 0.30238 0.21331
# Poissons Ratio (z) = 0.11101 0.11101
#
# Static dielectric constant tensor:
#      x y z
#    x 1.640900 0.000000 0.000000 
#    y 0.000000 1.640900 0.000000 
#    z 0.000000 0.000000 1.679630 
# 
# From -- ./inp_files/3412.got.cif
#   From: 2010.05.17/outbox.cif.g08.bks.cpg/sg189_2_cif.got.tgz:3412.got - 2010.05.20 12:14:34.
