data_PCOD9586369
_publ_section_title
;
Structure prediction by ZEFSAII (Michael W. Deem and Ramdas Pophale) SiO2 
 PCOD9586369
Probable space group: P -6 2 M
;
_chemical_formula_sum "Si O2"
_cell_formula_units_Z 42
_cell_length_a 12.634113
_cell_length_b 12.634113
_cell_length_c 16.576579
_cell_angle_alpha 90.000000
_cell_angle_beta 90.000000
_cell_angle_gamma 120.000000
_cell_volume 2291.474630
_symmetry_space_group_name_H-M "P -6 2 M"
_symmetry_group_IT_number 189
_symmetry_cell_setting 'hexagonal'
loop_
_space_group_symop_operation_xyz
x,y,z
-x+y,-x,-z
-y,x-y,z
x,y,-z
-x+y,-x,z
-y,x-y,-z
x-y,-y,-z
-x,-x+y,-z
y,x,-z
y,x,z
x-y,-y,z
-x,-x+y,z
loop_
_atom_site_type_symbol
_atom_site_label
_atom_site_fract_x
_atom_site_fract_y
_atom_site_fract_z
Si Si1 0.677567 0.533401 0.407952
Si Si2 0.466245 0.322904 0.696981
Si Si3 0.489664 0.756643 0.125056
Si Si4 0.852235 0.145148 0.000000
O O1 0.677239 0.494150 0.500000
O O2 0.622489 0.622489 0.408104
O O3 0.809642 0.595026 0.367624
O O4 0.588949 0.421102 0.349751
O O5 0.388653 0.388653 0.714334
O O6 0.487451 0.271441 0.780157
O O7 0.388981 0.798234 0.106245
O O8 0.613775 0.818819 0.075573
O O9 0.000000 0.221875 0.000000
O O10 0.800794 0.000000 0.000000
#
# Coordination Sequence:
#
# PCOD9586369 Si02
#       4
#    12  12  12   6
#     4  10  20  33  51  79 116 155 198 248 296 351
#     4  11  20  35  58  85 120 154 191 244 307 367
#     4  10  21  41  63  95 120 153 195 259 317 358
#     4  12  27  44  64  90 125 168 208 250 304 376
#
# _framework density 18.328810000000001
#
# number of rings (size 3 to 8) (size 9 to 14) (size 15 to 20)
#    0.571    0.857    2.857    3.286    0.000    6.286 
#    0.000    0.000    0.000    0.571    0.000    0.000 
#    0.000    0.000    0.000    0.000    0.000    0.000 
#
# Total GULP energy -234073.355947 kJ/mol
# GULP energy per Si atom -5573.175142 kJ/mol
# Density = 1.828709 g / cm^3
# Si number density = 18.328810 Si / 1000 Ang^3
#
#
#
# Elastic Constant Matrix: (Units=GPa)
#
#
# Indices 1 2 3 4 5 6 
#
# 1 89.8469 45.6286 45.9001 0.0000 0.0000 0.0000
# 2 45.6286 89.8469 45.9001 0.0000 0.0000 0.0000
# 3 45.9001 45.9001 132.4301 0.0000 0.0000 0.0000
# 4 0.0000 0.0000 0.0000 -2.0613 0.0000 0.0000
# 5 0.0000 0.0000 0.0000 0.0000 -2.0613 0.0000
# 6 0.0000 0.0000 0.0000 0.0000 0.0000 22.1091
#
#
#
# Elastic Compliance Matrix: (Units=1/GPa)
#
#
# Indices 1 2 3 4 5 6 
#
# 1 0.016131 -0.006484 -0.003344 0.000000 0.000000 0.000000
# 2 -0.006484 0.016131 -0.003344 0.000000 0.000000 0.000000
# 3 -0.003344 -0.003344 0.009869 0.000000 0.000000 0.000000
# 4 0.000000 0.000000 0.000000 -0.485136 0.000000 0.000000
# 5 0.000000 0.000000 0.000000 0.000000 -0.485136 0.000000
# 6 0.000000 0.000000 0.000000 0.000000 0.000000 0.045230
#
#
# Mechanical properties :
#
#
# Convention : Reuss Voigt Hill
#
# Bulk Modulus (GPa) = 63.33715 65.22016 64.27866
# Shear Modulus (GPa) = -5.87333 15.24364 4.68516
#
# Velocity S-wave (km/s) = -1.79203 2.88701 1.60054
# Velocity P-wave (km/s) = 5.50901 6.83913 6.20979
#
# Compressibility (1/GPa) = 0.01578852
#
# Stress axis : x y z
#
# Youngs Moduli (GPa) = 61.99195 61.99195 101.32751
#
# Poissons Ratio (x) = 0.40196 0.33881
# Poissons Ratio (y) = 0.40196 0.33881
# Poissons Ratio (z) = 0.20728 0.20728
#
# Static dielectric constant tensor:
#      x y z
#    x 1.645480 0.000000 0.000000 
#    y 0.000000 1.645480 0.000000 
#    z 0.000000 0.000000 1.651160 
# 
# From -- ./inp_files/2955.got.cif
#   From: 2010.05.17/outbox.cif.g08.bks.cpg/sg189_2_cif.got.tgz:2955.got - 2010.05.20 12:14:34.
