data_PCOD9586918
_publ_section_title
;
Structure prediction by ZEFSAII (Michael W. Deem and Ramdas Pophale) SiO2 
 PCOD9586918
Probable space group: P -6 2 C
;
_chemical_formula_sum "Si O2"
_cell_formula_units_Z 22
_cell_length_a 7.104819
_cell_length_b 7.104819
_cell_length_c 24.403449
_cell_angle_alpha 90.000000
_cell_angle_beta 90.000000
_cell_angle_gamma 120.000000
_cell_volume 1066.811968
_symmetry_space_group_name_H-M "P -6 2 C"
_symmetry_group_IT_number 190
_symmetry_cell_setting 'hexagonal'
loop_
_space_group_symop_operation_xyz
x,y,z
-x+y,-x,1/2-z
-y,x-y,z
x,y,1/2-z
-x+y,-x,z
-y,x-y,1/2-z
x-y,-y,-z
-x,-x+y,-z
y,x,-z
y,x,1/2+z
x-y,-y,1/2+z
-x,-x+y,1/2+z
loop_
_atom_site_type_symbol
_atom_site_label
_atom_site_fract_x
_atom_site_fract_y
_atom_site_fract_z
Si Si1 0.666666 0.333333 0.685085
Si Si2 0.390554 0.455997 0.884490
Si Si3 0.248442 0.248442 0.500000
O O1 0.666667 0.333334 0.750000
O O2 0.459937 0.337593 0.659302
O O3 0.555757 0.714595 0.878090
O O4 0.378620 0.367627 0.945590
O O5 0.201509 0.000000 0.500000
#
# Coordination Sequence:
#
# PCOD9586918 Si02
#       3
#     4  12   6
#     4  12  27  48  69  96 138 186 241 293 346 420
#     4  10  25  42  68 103 139 180 231 283 352 419
#     4  10  22  38  68 108 148 174 218 282 354 428
#
# _framework density 20.622192999999999
#
# number of rings (size 3 to 8) (size 9 to 14) (size 15 to 20)
#    1.636    0.000    0.000    3.273   11.455    2.182 
#    3.273    0.000    0.000    0.000    0.000    0.000 
#    0.000    0.000    0.000    0.000    0.000    0.000 
#
# Total GULP energy -122617.020706 kJ/mol
# GULP energy per Si atom -5573.500941 kJ/mol
# Density = 2.057526 g / cm^3
# Si number density = 20.622193 Si / 1000 Ang^3
#
#
#
# Elastic Constant Matrix: (Units=GPa)
#
#
# Indices 1 2 3 4 5 6 
#
# 1 86.8674 47.7313 67.1069 0.0000 0.0001 -0.0001
# 2 47.7313 86.8670 67.1064 0.0000 -0.0001 0.0000
# 3 67.1069 67.1064 209.9087 0.0002 0.0002 -0.0001
# 4 0.0000 0.0000 0.0002 18.3589 -0.0001 0.0001
# 5 0.0001 -0.0001 0.0002 -0.0001 18.3592 0.0000
# 6 -0.0001 0.0000 -0.0001 0.0001 0.0000 19.5680
#
#
#
# Elastic Compliance Matrix: (Units=1/GPa)
#
#
# Indices 1 2 3 4 5 6 
#
# 1 0.018229 -0.007323 -0.003487 0.000000 0.000000 0.000000
# 2 -0.007323 0.018229 -0.003487 0.000000 0.000000 0.000000
# 3 -0.003487 -0.003487 0.006993 0.000000 0.000000 0.000000
# 4 0.000000 0.000000 0.000000 0.054470 0.000000 0.000000
# 5 0.000000 0.000000 0.000000 0.000000 0.054469 0.000000
# 6 0.000000 0.000000 0.000000 0.000000 0.000000 0.051104
#
#
# Mechanical properties :
#
#
# Convention : Reuss Voigt Hill
#
# Bulk Modulus (GPa) = 67.29899 83.05914 75.17907
# Shear Modulus (GPa) = 21.09359 24.70378 22.89869
#
# Velocity S-wave (km/s) = 3.20169 3.46486 3.33587
# Velocity P-wave (km/s) = 6.80976 7.50806 7.16742
#
# Compressibility (1/GPa) = 0.01485906
#
# Stress axis : x y z
#
# Youngs Moduli (GPa) = 54.85750 54.85740 142.99416
#
# Poissons Ratio (x) = 0.40172 0.49857
# Poissons Ratio (y) = 0.40172 0.49857
# Poissons Ratio (z) = 0.19127 0.19127
#
# Static dielectric constant tensor:
#      x y z
#    x 1.788280 0.000000 0.000000 
#    y 0.000000 1.788280 0.000000 
#    z 0.000000 0.000000 1.651010 
# 
# From -- ./inp_files/3300.got.cif
#   From: 2010.05.17/outbox.cif.g08.bks.cpg/sg190_2_cif.got.tgz:3300.got - 2010.05.20 12:16:56.
