data_PCOD9586017
_publ_section_title
;
Structure prediction by ZEFSAII (Michael W. Deem and Ramdas Pophale) SiO2 
 PCOD9586017
Probable space group: P -6 C 2
;
_chemical_formula_sum "Si O2"
_cell_formula_units_Z 64
_cell_length_a 15.906096
_cell_length_b 15.906096
_cell_length_c 15.009059
_cell_angle_alpha 90.000000
_cell_angle_beta 90.000000
_cell_angle_gamma 120.000000
_cell_volume 3288.601837
_symmetry_space_group_name_H-M "P -6 C 2"
_symmetry_group_IT_number 188
_symmetry_cell_setting 'hexagonal'
loop_
_space_group_symop_operation_xyz
x,y,z
-x+y,-x,1/2-z
-y,x-y,z
x,y,1/2-z
-x+y,-x,z
-y,x-y,1/2-z
-y,-x,-z
-x+y,y,-z
x,x-y,-z
-x+y,y,1/2+z
x,x-y,1/2+z
-y,-x,1/2+z
loop_
_atom_site_type_symbol
_atom_site_label
_atom_site_fract_x
_atom_site_fract_y
_atom_site_fract_z
Si Si1 0.109644 0.718395 0.980903
Si Si2 0.000000 0.000000 0.142036
Si Si3 0.793814 0.825936 0.356509
Si Si4 0.839646 0.213637 0.145395
Si Si5 0.650444 0.025604 0.350906
Si Si6 0.565142 0.043811 0.909376
O O1 0.053265 0.689936 0.075420
O O2 0.223752 0.776249 0.000000
O O3 0.089974 0.791304 0.920186
O O4 0.060172 0.617370 0.927402
O O5 0.074147 0.963077 0.116106
O O6 0.000000 0.000000 0.250000
O O7 0.773622 0.830090 0.250000
O O8 0.817044 0.738272 0.366578
O O9 0.825119 0.218718 0.250000
O O10 0.737820 0.127497 0.111915
O O11 0.883608 0.323196 0.112652
O O12 0.674293 0.007823 0.250000
O O13 0.553187 0.033012 0.346311
O O14 0.538550 0.077100 0.000000
#
# Coordination Sequence:
#
# PCOD9586017 Si02
#       6
#    12   4  12  12  12  12
#     4  10  22  37  56  86 115 151 192 239 291 350
#     4   9  18  33  52  80 119 155 202 243 274 329
#     4   9  19  34  53  79 116 159 194 237 284 331
#     4   9  18  34  56  81 115 153 191 235 284 335
#     4  10  21  38  62  86 116 155 196 243 289 352
#     4   9  19  36  57  83 115 147 191 240 293 349
#
# _framework density 19.461158000000001
#
# number of rings (size 3 to 8) (size 9 to 14) (size 15 to 20)
#    0.000    2.625    0.000    0.562    2.625    8.250 
#    1.125    0.000    0.000   10.125    0.000    0.000 
#    0.000    0.000    0.000    0.000    0.000    0.000 
#
# Total GULP energy -356627.897215 kJ/mol
# GULP energy per Si atom -5572.310894 kJ/mol
# Density = 1.941686 g / cm^3
# Si number density = 19.461158 Si / 1000 Ang^3
#
#
#
# Elastic Constant Matrix: (Units=GPa)
#
#
# Indices 1 2 3 4 5 6 
#
# 1 46.9979 30.9317 10.8508 -0.0003 0.0000 0.0000
# 2 30.9317 46.9979 10.8508 0.0003 0.0000 0.0000
# 3 10.8508 10.8508 63.0926 0.0000 0.0000 0.0000
# 4 -0.0003 0.0003 0.0000 20.3912 0.0000 0.0000
# 5 0.0000 0.0000 0.0000 0.0000 20.3912 -0.0003
# 6 0.0000 0.0000 0.0000 0.0000 -0.0003 8.0331
#
#
#
# Elastic Compliance Matrix: (Units=1/GPa)
#
#
# Indices 1 2 3 4 5 6 
#
# 1 0.037860 -0.024382 -0.002318 0.000001 0.000000 0.000000
# 2 -0.024382 0.037860 -0.002318 -0.000001 0.000000 0.000000
# 3 -0.002318 -0.002318 0.016647 0.000000 0.000000 0.000000
# 4 0.000001 -0.000001 0.000000 0.049041 0.000000 0.000000
# 5 0.000000 0.000000 0.000000 0.000000 0.049041 0.000002
# 6 0.000000 0.000000 0.000000 0.000000 0.000002 0.124485
#
#
# Mechanical properties :
#
#
# Convention : Reuss Voigt Hill
#
# Bulk Modulus (GPa) = 29.12858 29.15055 29.13956
# Shear Modulus (GPa) = 13.00683 16.72679 14.86681
#
# Velocity S-wave (km/s) = 2.58805 2.93490 2.76691
# Velocity P-wave (km/s) = 4.89190 5.14744 5.02130
#
# Compressibility (1/GPa) = 0.03433055
#
# Stress axis : x y z
#
# Youngs Moduli (GPa) = 26.41308 26.41308 60.07090
#
# Poissons Ratio (x) = 0.64402 0.13924
# Poissons Ratio (y) = 0.64402 0.13924
# Poissons Ratio (z) = 0.06122 0.06122
#
# Static dielectric constant tensor:
#      x y z
#    x 1.692230 0.000000 0.000000 
#    y 0.000000 1.692230 0.000000 
#    z 0.000000 0.000000 1.753820 
# 
# From -- ./inp_files/3112.got.cif
#   From: 2010.05.17/outbox.cif.g08.bks.cpg/sg188_2_cif.got.tgz:3112.got - 2010.05.20 12:11:46.
