data_PCOD9586324
_publ_section_title
;
Structure prediction by ZEFSAII (Michael W. Deem and Ramdas Pophale) SiO2 
 PCOD9586324
Probable space group: P -6 2 M
;
_chemical_formula_sum "Si O2"
_cell_formula_units_Z 60
_cell_length_a 14.581179
_cell_length_b 14.581179
_cell_length_c 15.861101
_cell_angle_alpha 90.000000
_cell_angle_beta 90.000000
_cell_angle_gamma 120.000000
_cell_volume 2920.446436
_symmetry_space_group_name_H-M "P -6 2 M"
_symmetry_group_IT_number 189
_symmetry_cell_setting 'hexagonal'
loop_
_space_group_symop_operation_xyz
x,y,z
-x+y,-x,-z
-y,x-y,z
x,y,-z
-x+y,-x,z
-y,x-y,-z
x-y,-y,-z
-x,-x+y,-z
y,x,-z
y,x,z
x-y,-y,z
-x,-x+y,z
loop_
_atom_site_type_symbol
_atom_site_label
_atom_site_fract_x
_atom_site_fract_y
_atom_site_fract_z
Si Si1 0.670686 0.875846 0.590617
Si Si2 0.450656 0.784561 0.348623
Si Si3 0.748355 0.576290 0.904209
Si Si4 0.602793 0.124232 0.838406
Si Si5 0.244791 0.119672 0.767165
O O1 0.676569 0.829927 0.500000
O O2 0.554246 0.862070 0.600714
O O3 0.694603 0.835388 0.677387
O O4 0.755429 0.000000 0.589167
O O5 0.333665 0.765616 0.365973
O O6 0.469276 0.819137 0.251202
O O7 0.817060 0.517400 0.901627
O O8 0.633115 0.494601 0.867229
O O9 0.809218 0.675580 0.842111
O O10 0.739623 0.605248 0.000000
O O11 0.561552 0.000000 0.831029
O O12 0.201495 0.201495 0.776266
O O13 0.149231 0.000000 0.767122
#
# Coordination Sequence:
#
# PCOD9586324 Si02
#       5
#    12  12  12  12  12
#     4  10  21  39  64  94 127 163 206 261 325 390
#     4  10  19  36  61  89 123 162 206 250 304 368
#     4  12  25  41  62  96 134 167 212 267 321 386
#     4  12  22  39  64  90 125 170 213 258 315 378
#     4  11  24  44  67  91 123 168 221 276 330 385
#
# _framework density 20.544803999999999
#
# number of rings (size 3 to 8) (size 9 to 14) (size 15 to 20)
#    0.400    0.600    4.000    3.000    0.000    5.200 
#    0.000    1.000    0.000    2.400    0.000    0.000 
#    0.000    0.000    0.000    0.000    0.000    0.000 
#
# Total GULP energy -334817.031440 kJ/mol
# GULP energy per Si atom -5580.283857 kJ/mol
# Density = 2.049804 g / cm^3
# Si number density = 20.544804 Si / 1000 Ang^3
#
#
#
# Elastic Constant Matrix: (Units=GPa)
#
#
# Indices 1 2 3 4 5 6 
#
# 1 72.9593 6.8676 17.9627 0.0000 0.0000 0.0000
# 2 6.8676 72.9593 17.9627 0.0000 0.0000 0.0000
# 3 17.9627 17.9627 133.0195 0.0000 0.0000 0.0000
# 4 0.0000 0.0000 0.0000 -1.5597 0.0000 0.0000
# 5 0.0000 0.0000 0.0000 0.0000 -1.5597 0.0000
# 6 0.0000 0.0000 0.0000 0.0000 0.0000 33.0459
#
#
#
# Elastic Compliance Matrix: (Units=1/GPa)
#
#
# Indices 1 2 3 4 5 6 
#
# 1 0.014234 -0.000896 -0.001801 0.000000 0.000000 0.000000
# 2 -0.000896 0.014234 -0.001801 0.000000 0.000000 0.000000
# 3 -0.001801 -0.001801 0.008004 0.000000 0.000000 0.000000
# 4 0.000000 0.000000 0.000000 -0.641153 0.000000 0.000000
# 5 0.000000 0.000000 0.000000 0.000000 -0.641153 0.000000
# 6 0.000000 0.000000 0.000000 0.000000 0.000000 0.030261
#
#
# Mechanical properties :
#
#
# Convention : Reuss Voigt Hill
#
# Bulk Modulus (GPa) = 36.39658 40.50267 38.44962
# Shear Modulus (GPa) = -4.17565 21.72831 8.77633
#
# Velocity S-wave (km/s) = -1.42719 3.25561 2.06908
# Velocity P-wave (km/s) = 3.87793 5.82144 4.94608
#
# Compressibility (1/GPa) = 0.02747511
#
# Stress axis : x y z
#
# Youngs Moduli (GPa) = 70.25390 70.25390 124.93557
#
# Poissons Ratio (x) = 0.06298 0.22502
# Poissons Ratio (y) = 0.06298 0.22502
# Poissons Ratio (z) = 0.12653 0.12653
#
# Static dielectric constant tensor:
#      x y z
#    x 1.726950 0.000000 0.000000 
#    y 0.000000 1.726950 0.000000 
#    z 0.000000 0.000000 1.748530 
# 
# From -- ./inp_files/2537.got.cif
#   From: 2010.05.17/outbox.cif.g08.bks.cpg/sg189_2_cif.got.tgz:2537.got - 2010.05.20 12:14:34.
