data_PCOD9586168
_publ_section_title
;
Structure prediction by ZEFSAII (Michael W. Deem and Ramdas Pophale) SiO2 
 PCOD9586168
Probable space group: P -6 2 M
;
_chemical_formula_sum "Si O2"
_cell_formula_units_Z 96
_cell_length_a 17.598376
_cell_length_b 17.598376
_cell_length_c 20.750601
_cell_angle_alpha 90.000000
_cell_angle_beta 90.000000
_cell_angle_gamma 120.000000
_cell_volume 5565.529592
_symmetry_space_group_name_H-M "P -6 2 M"
_symmetry_group_IT_number 189
_symmetry_cell_setting 'hexagonal'
loop_
_space_group_symop_operation_xyz
x,y,z
-x+y,-x,-z
-y,x-y,z
x,y,-z
-x+y,-x,z
-y,x-y,-z
x-y,-y,-z
-x,-x+y,-z
y,x,-z
y,x,z
x-y,-y,z
-x,-x+y,z
loop_
_atom_site_type_symbol
_atom_site_label
_atom_site_fract_x
_atom_site_fract_y
_atom_site_fract_z
Si Si1 0.743927 0.848584 0.251871
Si Si2 0.902657 0.800453 0.887197
Si Si3 0.160302 0.389646 0.928096
Si Si4 0.632517 0.104017 0.074090
Si Si5 0.894539 0.391829 0.165100
Si Si6 0.796748 0.900862 0.395215
Si Si7 0.106502 0.378041 0.429695
Si Si8 0.107348 0.424797 0.708609
O O1 0.788626 0.788626 0.244058
O O2 0.767310 0.901340 0.186054
O O3 0.782878 0.900248 0.317969
O O4 0.642102 0.779262 0.263442
O O5 0.874725 0.874725 0.886134
O O6 0.826729 0.715017 0.921578
O O7 0.000000 0.839357 0.914509
O O8 0.263280 0.423620 0.919823
O O9 0.129747 0.434578 0.875398
O O10 0.145493 0.413402 0.000000
O O11 0.585730 0.135533 0.125341
O O12 0.595542 0.000000 0.083665
O O13 0.609647 0.113941 0.000000
O O14 0.864591 0.365857 0.239088
O O15 0.000000 0.448840 0.166204
O O16 0.861204 0.861204 0.407276
O O17 0.701335 0.828757 0.421497
O O18 0.839132 0.000000 0.419385
O O19 0.137089 0.419773 0.500000
O O20 0.135879 0.438504 0.366113
O O21 0.000000 0.327722 0.429268
O O22 0.000000 0.371294 0.707704
#
# Coordination Sequence:
#
# PCOD9586168 Si02
#       8
#    12  12  12  12  12  12  12  12
#     4   8  14  25  38  55  79 110 152 205 256 290
#     4  11  21  32  46  65  93 130 175 220 257 291
#     4  11  22  35  51  71  95 126 159 198 249 304
#     4   9  19  35  51  69  95 124 153 188 235 292
#     4  10  18  32  55  77  95 120 158 201 241 287
#     4   9  15  21  30  44  68 106 156 207 251 290
#     4   8  14  23  34  51  80 115 145 183 241 296
#     4   8  13  24  43  65  86 110 146 194 240 282
#
# _framework density 17.249033000000001
#
# number of rings (size 3 to 8) (size 9 to 14) (size 15 to 20)
#    0.000    2.750    1.250    3.250    0.000    2.500 
#    0.750    1.250    0.000    1.500    0.000    0.000 
#    0.000    1.000    0.000    0.375    0.000    0.250 
#
# Total GULP energy -534528.847291 kJ/mol
# GULP energy per Si atom -5568.008826 kJ/mol
# Density = 1.720977 g / cm^3
# Si number density = 17.249033 Si / 1000 Ang^3
#
#
#
# Elastic Constant Matrix: (Units=GPa)
#
#
# Indices 1 2 3 4 5 6 
#
# 1 18.1121 6.7924 12.9179 0.0000 0.0000 0.0000
# 2 6.7924 18.1121 12.9179 0.0000 0.0000 0.0000
# 3 12.9179 12.9179 105.1596 0.0000 0.0000 0.0000
# 4 0.0000 0.0000 0.0000 -3.4768 0.0000 0.0000
# 5 0.0000 0.0000 0.0000 0.0000 -3.4768 0.0000
# 6 0.0000 0.0000 0.0000 0.0000 0.0000 5.6599
#
#
#
# Elastic Compliance Matrix: (Units=1/GPa)
#
#
# Indices 1 2 3 4 5 6 
#
# 1 0.067179 -0.021162 -0.005653 0.000000 0.000000 0.000000
# 2 -0.021162 0.067179 -0.005653 0.000000 0.000000 0.000000
# 3 -0.005653 -0.005653 0.010898 0.000000 0.000000 0.000000
# 4 0.000000 0.000000 0.000000 -0.287623 0.000000 0.000000
# 5 0.000000 0.000000 0.000000 0.000000 -0.287623 0.000000
# 6 0.000000 0.000000 0.000000 0.000000 0.000000 0.176682
#
#
# Mechanical properties :
#
#
# Convention : Reuss Voigt Hill
#
# Bulk Modulus (GPa) = 12.44990 22.96003 17.70497
# Shear Modulus (GPa) = -30.94090 6.99165 -11.97462
#
# Velocity S-wave (km/s) = -4.23989 2.01548 -2.63766
# Velocity P-wave (km/s) = 4.09091 4.33082 1.00511
#
# Compressibility (1/GPa) = 0.08032192
#
# Stress axis : x y z
#
# Youngs Moduli (GPa) = 14.88552 14.88552 91.75869
#
# Poissons Ratio (x) = 0.31500 0.51870
# Poissons Ratio (y) = 0.31500 0.51870
# Poissons Ratio (z) = 0.08415 0.08415
#
# Static dielectric constant tensor:
#      x y z
#    x 1.568340 0.000000 0.000000 
#    y 0.000000 1.568340 0.000000 
#    z 0.000000 0.000000 1.646520 
# 
# From -- ./inp_files/3499.got.cif
#   From: 2010.05.17/outbox.cif.g08.bks.cpg/sg189_2_cif.got.tgz:3499.got - 2010.05.20 12:14:34.
