data_PCOD9586389
_publ_section_title
;
Structure prediction by ZEFSAII (Michael W. Deem and Ramdas Pophale) SiO2 
 PCOD9586389
Probable space group: P -6 2 M
;
_chemical_formula_sum "Si O2"
_cell_formula_units_Z 60
_cell_length_a 19.309211
_cell_length_b 19.309211
_cell_length_c 10.479793
_cell_angle_alpha 90.000000
_cell_angle_beta 90.000000
_cell_angle_gamma 120.000000
_cell_volume 3383.860047
_symmetry_space_group_name_H-M "P -6 2 M"
_symmetry_group_IT_number 189
_symmetry_cell_setting 'hexagonal'
loop_
_space_group_symop_operation_xyz
x,y,z
-x+y,-x,-z
-y,x-y,z
x,y,-z
-x+y,-x,z
-y,x-y,-z
x-y,-y,-z
-x,-x+y,-z
y,x,-z
y,x,z
x-y,-y,z
-x,-x+y,z
loop_
_atom_site_type_symbol
_atom_site_label
_atom_site_fract_x
_atom_site_fract_y
_atom_site_fract_z
Si Si1 0.283345 0.477481 0.500000
Si Si2 0.618549 0.465954 0.500000
Si Si3 0.097146 0.541976 0.000000
Si Si4 0.552437 0.645534 0.237271
Si Si5 0.201981 0.367288 0.258847
Si Si6 0.396019 0.299924 0.000000
Si Si7 0.184967 0.092272 0.345704
O O1 0.228901 0.520034 0.500000
O O2 0.374838 0.547582 0.500000
O O3 0.259407 0.420305 0.375400
O O4 0.614293 0.509720 0.627082
O O5 0.122280 0.512916 0.874507
O O6 0.124473 0.634515 0.000000
O O7 0.000000 0.495186 0.000000
O O8 0.614158 0.614158 0.215924
O O9 0.597986 0.740669 0.237576
O O10 0.249093 0.376282 0.128961
O O11 0.149536 0.274539 0.297165
O O12 0.346430 0.346430 0.000000
O O13 0.188129 0.092432 0.500000
O O14 0.128539 0.128539 0.308550
O O15 0.146655 0.000000 0.303662
#
# Coordination Sequence:
#
# PCOD9586389 Si02
#       7
#     6   6   6  12  12   6  12
#     4  10  21  36  56  83 115 150 191 233 290 346
#     4  10  20  34  54  79 112 146 182 229 278 340
#     4   9  19  36  54  75 106 144 185 224 265 327
#     4  10  20  35  56  82 109 144 185 229 280 334
#     4  11  21  37  58  86 116 150 190 244 290 344
#     4  11  23  38  57  81 115 152 188 234 288 343
#     4  10  20  36  58  85 117 155 197 243 296 358
#
# _framework density 17.73123
#
# number of rings (size 3 to 8) (size 9 to 14) (size 15 to 20)
#    0.000    1.800    1.000    3.700    0.000    0.800 
#    0.000    4.500    0.000    5.600    0.000    1.400 
#    0.000    0.000    0.000    0.000    0.000    0.000 
#
# Total GULP energy -334976.412978 kJ/mol
# GULP energy per Si atom -5582.940216 kJ/mol
# Density = 1.769087 g / cm^3
# Si number density = 17.731230 Si / 1000 Ang^3
#
#
#
# Elastic Constant Matrix: (Units=GPa)
#
#
# Indices 1 2 3 4 5 6 
#
# 1 102.3887 46.0057 53.6756 0.0000 0.0000 0.0000
# 2 46.0057 102.3887 53.6756 0.0000 0.0000 0.0000
# 3 53.6756 53.6756 133.1213 0.0000 0.0000 0.0000
# 4 0.0000 0.0000 0.0000 23.1064 0.0000 0.0000
# 5 0.0000 0.0000 0.0000 0.0000 23.1064 0.0000
# 6 0.0000 0.0000 0.0000 0.0000 0.0000 28.1915
#
#
#
# Elastic Compliance Matrix: (Units=1/GPa)
#
#
# Indices 1 2 3 4 5 6 
#
# 1 0.013625 -0.004111 -0.003836 0.000000 0.000000 0.000000
# 2 -0.004111 0.013625 -0.003836 0.000000 0.000000 0.000000
# 3 -0.003836 -0.003836 0.010605 0.000000 0.000000 0.000000
# 4 0.000000 0.000000 0.000000 0.043278 0.000000 0.000000
# 5 0.000000 0.000000 0.000000 0.000000 0.043278 0.000000
# 6 0.000000 0.000000 0.000000 0.000000 0.000000 0.035472
#
#
# Mechanical properties :
#
#
# Convention : Reuss Voigt Hill
#
# Bulk Modulus (GPa) = 69.98446 71.62362 70.80404
# Shear Modulus (GPa) = 26.56579 27.18367 26.87473
#
# Velocity S-wave (km/s) = 3.87492 3.91972 3.89739
# Velocity P-wave (km/s) = 7.71850 7.80816 7.76346
#
# Compressibility (1/GPa) = 0.01428889
#
# Stress axis : x y z
#
# Youngs Moduli (GPa) = 73.39524 73.39524 94.29136
#
# Poissons Ratio (x) = 0.30173 0.36171
# Poissons Ratio (y) = 0.30173 0.36171
# Poissons Ratio (z) = 0.28155 0.28155
#
# Static dielectric constant tensor:
#      x y z
#    x 1.585420 0.000000 0.000000 
#    y 0.000000 1.585420 0.000000 
#    z 0.000000 0.000000 1.588140 
# 
# From -- ./inp_files/1994.got.cif
#   From: 2010.05.17/outbox.cif.g08.bks.cpg/sg189_1_cif.got.tgz:1994.got - 2010.05.20 12:14:34.
