data_PCOD9586660
_publ_section_title
;
Structure prediction by ZEFSAII (Michael W. Deem and Ramdas Pophale) SiO2 
 PCOD9586660
Probable space group: P -6 2 C
;
_chemical_formula_sum "Si O2"
_cell_formula_units_Z 72
_cell_length_a 21.716218
_cell_length_b 21.716218
_cell_length_c 10.239087
_cell_angle_alpha 90.000000
_cell_angle_beta 90.000000
_cell_angle_gamma 120.000000
_cell_volume 4181.771036
_symmetry_space_group_name_H-M "P -6 2 C"
_symmetry_group_IT_number 190
_symmetry_cell_setting 'hexagonal'
loop_
_space_group_symop_operation_xyz
x,y,z
-x+y,-x,1/2-z
-y,x-y,z
x,y,1/2-z
-x+y,-x,z
-y,x-y,1/2-z
x-y,-y,-z
-x,-x+y,-z
y,x,-z
y,x,1/2+z
x-y,-y,1/2+z
-x,-x+y,1/2+z
loop_
_atom_site_type_symbol
_atom_site_label
_atom_site_fract_x
_atom_site_fract_y
_atom_site_fract_z
Si Si1 0.436992 0.609550 0.483169
Si Si2 0.664759 0.932083 0.595176
Si Si3 0.344434 0.938107 0.103778
Si Si4 0.815969 0.636880 0.897779
Si Si5 0.582300 0.058614 0.391610
Si Si6 0.469352 0.748957 0.106317
O O1 0.510078 0.628613 0.410876
O O2 0.430225 0.555325 0.595963
O O3 0.362894 0.564183 0.409134
O O4 0.444154 0.686762 0.501243
O O5 0.685268 0.941053 0.750000
O O6 0.669286 0.869483 0.518833
O O7 0.583794 0.918551 0.593628
O O8 0.707566 0.000000 0.500000
O O9 0.359655 0.967331 0.250000
O O10 0.259011 0.893187 0.084677
O O11 0.381620 0.000000 0.000000
O O12 0.843759 0.664845 0.750000
O O13 0.794557 0.554103 0.896438
O O14 0.558823 0.024356 0.250000
O O15 0.539133 0.000000 0.500000
O O16 0.448693 0.713724 0.250000
#
# Coordination Sequence:
#
# PCOD9586660 Si02
#       6
#    12  12  12  12  12  12
#     4  11  20  34  51  72  98 128 175 226 278 334
#     4  10  19  33  52  78 105 135 168 204 255 318
#     4  10  22  37  55  78 103 134 179 228 279 329
#     4   9  18  34  52  74 100 131 167 214 264 319
#     4  10  22  36  52  75  99 127 164 210 266 323
#     4  10  19  30  47  69  92 125 167 216 272 329
#
# _framework density 17.217585
#
# number of rings (size 3 to 8) (size 9 to 14) (size 15 to 20)
#    0.000    2.000    1.667    3.833    0.000    5.333 
#    0.000    3.333    0.000    0.000    0.000    0.000 
#    0.000    0.000    0.000    0.500    0.000    8.000 
#
# Total GULP energy -401009.042010 kJ/mol
# GULP energy per Si atom -5569.570028 kJ/mol
# Density = 1.717840 g / cm^3
# Si number density = 17.217585 Si / 1000 Ang^3
#
#
#
# Elastic Constant Matrix: (Units=GPa)
#
#
# Indices 1 2 3 4 5 6 
#
# 1 58.2950 21.0185 48.0727 0.0000 0.0000 0.0000
# 2 21.0185 58.2950 48.0727 0.0000 0.0000 0.0000
# 3 48.0727 48.0727 131.0561 0.0000 0.0000 0.0000
# 4 0.0000 0.0000 0.0000 -34.2326 0.0000 0.0000
# 5 0.0000 0.0000 0.0000 0.0000 -34.2326 0.0000
# 6 0.0000 0.0000 0.0000 0.0000 0.0000 18.6383
#
#
#
# Elastic Compliance Matrix: (Units=1/GPa)
#
#
# Indices 1 2 3 4 5 6 
#
# 1 0.024765 -0.002062 -0.008328 0.000000 0.000000 0.000000
# 2 -0.002062 0.024765 -0.008328 0.000000 0.000000 0.000000
# 3 -0.008328 -0.008328 0.013740 0.000000 0.000000 0.000000
# 4 0.000000 0.000000 0.000000 -0.029212 0.000000 0.000000
# 5 0.000000 0.000000 0.000000 0.000000 -0.029212 0.000000
# 6 0.000000 0.000000 0.000000 0.000000 0.000000 0.053653
#
#
# Mechanical properties :
#
#
# Convention : Reuss Voigt Hill
#
# Bulk Modulus (GPa) = 38.70687 53.55263 46.12975
# Shear Modulus (GPa) = 47.82626 -1.26658 23.27984
#
# Velocity S-wave (km/s) = 5.27616 -0.85862 3.68108
# Velocity P-wave (km/s) = 7.72315 5.49436 6.70205
#
# Compressibility (1/GPa) = 0.02583521
#
# Stress axis : x y z
#
# Youngs Moduli (GPa) = 40.37967 40.37967 72.78145
#
# Poissons Ratio (x) = 0.08325 0.60611
# Poissons Ratio (y) = 0.08325 0.60611
# Poissons Ratio (z) = 0.33627 0.33627
#
# Static dielectric constant tensor:
#      x y z
#    x 1.593610 0.000000 0.000000 
#    y 0.000000 1.593610 0.000000 
#    z 0.000000 0.000000 1.613820 
# 
# From -- ./inp_files/1234.got.cif
#   From: 2010.05.17/outbox.cif.g08.bks.cpg/sg190_1_cif.got.tgz:1234.got - 2010.05.20 12:16:56.
