data_PCOD9586362
_publ_section_title
;
Structure prediction by ZEFSAII (Michael W. Deem and Ramdas Pophale) SiO2 
 PCOD9586362
Probable space group: P -6 2 M
;
_chemical_formula_sum "Si O2"
_cell_formula_units_Z 54
_cell_length_a 12.762054
_cell_length_b 12.762054
_cell_length_c 20.946408
_cell_angle_alpha 90.000000
_cell_angle_beta 90.000000
_cell_angle_gamma 120.000000
_cell_volume 2954.481984
_symmetry_space_group_name_H-M "P -6 2 M"
_symmetry_group_IT_number 189
_symmetry_cell_setting 'hexagonal'
loop_
_space_group_symop_operation_xyz
x,y,z
-x+y,-x,-z
-y,x-y,z
x,y,-z
-x+y,-x,z
-y,x-y,-z
x-y,-y,-z
-x,-x+y,-z
y,x,-z
y,x,z
x-y,-y,z
-x,-x+y,z
loop_
_atom_site_type_symbol
_atom_site_label
_atom_site_fract_x
_atom_site_fract_y
_atom_site_fract_z
Si Si1 0.143983 0.856609 0.097083
Si Si2 0.443654 0.300692 0.643164
Si Si3 0.857258 0.716056 0.751087
Si Si4 0.353569 0.857671 0.570818
Si Si5 0.506452 0.253183 0.000000
O O1 0.156676 0.847584 0.173272
O O2 0.000000 0.789415 0.082363
O O3 0.209313 0.000000 0.081155
O O4 0.207120 0.793036 0.059450
O O5 0.364263 0.364263 0.635832
O O6 0.402136 0.228074 0.709473
O O7 0.419338 0.205122 0.587948
O O8 0.579614 0.405577 0.626650
O O9 0.775645 0.775645 0.733257
O O10 0.000000 0.811787 0.740371
O O11 0.375329 0.824442 0.500000
O O12 0.412076 0.000000 0.571845
O O13 0.601602 0.203133 0.000000
#
# Coordination Sequence:
#
# PCOD9586362 Si02
#       5
#    12  12  12  12   6
#     4  10  20  37  63  91 118 150 197 254 305 350
#     4  10  20  35  54  78 107 139 179 222 275 337
#     4   9  18  34  57  87 117 147 182 229 287 341
#     4  10  20  33  50  74 103 138 182 229 271 320
#     4  10  24  42  54  82 120 164 204 238 290 352
#
# _framework density 18.277317
#
# number of rings (size 3 to 8) (size 9 to 14) (size 15 to 20)
#    0.222    2.000    0.000    2.889    0.000    4.889 
#    4.000    1.111    0.000    0.444    0.000    0.000 
#    0.000    0.000    0.000    0.000    0.000    0.000 
#
# Total GULP energy -300644.749626 kJ/mol
# GULP energy per Si atom -5567.495363 kJ/mol
# Density = 1.823572 g / cm^3
# Si number density = 18.277317 Si / 1000 Ang^3
#
#
#
# Elastic Constant Matrix: (Units=GPa)
#
#
# Indices 1 2 3 4 5 6 
#
# 1 87.4321 41.5365 41.8474 0.0000 0.0000 0.0000
# 2 41.5365 87.4321 41.8474 0.0000 0.0000 0.0000
# 3 41.8474 41.8474 81.6263 0.0000 0.0000 0.0000
# 4 0.0000 0.0000 0.0000 1.9227 0.0000 0.0000
# 5 0.0000 0.0000 0.0000 0.0000 1.9227 0.0000
# 6 0.0000 0.0000 0.0000 0.0000 0.0000 22.9478
#
#
#
# Elastic Compliance Matrix: (Units=1/GPa)
#
#
# Indices 1 2 3 4 5 6 
#
# 1 0.016704 -0.005084 -0.005957 0.000000 0.000000 0.000000
# 2 -0.005084 0.016704 -0.005957 0.000000 0.000000 0.000000
# 3 -0.005957 -0.005957 0.018359 0.000000 0.000000 0.000000
# 4 0.000000 0.000000 0.000000 0.520102 0.000000 0.000000
# 5 0.000000 0.000000 0.000000 0.000000 0.520102 0.000000
# 6 0.000000 0.000000 0.000000 0.000000 0.000000 0.043577
#
#
# Mechanical properties :
#
#
# Convention : Reuss Voigt Hill
#
# Bulk Modulus (GPa) = 56.27435 56.32811 56.30123
# Shear Modulus (GPa) = 4.25362 14.10925 9.18143
#
# Velocity S-wave (km/s) = 1.52719 2.78142 2.24373
# Velocity P-wave (km/s) = 5.82802 6.41877 6.13051
#
# Compressibility (1/GPa) = 0.01777008
#
# Stress axis : x y z
#
# Youngs Moduli (GPa) = 59.86537 59.86537 54.46918
#
# Poissons Ratio (x) = 0.30438 0.32448
# Poissons Ratio (y) = 0.30438 0.32448
# Poissons Ratio (z) = 0.35662 0.35662
#
# Static dielectric constant tensor:
#      x y z
#    x 1.646720 0.000000 0.000000 
#    y 0.000000 1.646720 0.000000 
#    z 0.000000 0.000000 1.642000 
# 
# From -- ./inp_files/3553.got.cif
#   From: 2010.05.17/outbox.cif.g08.bks.cpg/sg189_2_cif.got.tgz:3553.got - 2010.05.20 12:14:34.
