data_PCOD9586742
_publ_section_title
;
Structure prediction by ZEFSAII (Michael W. Deem and Ramdas Pophale) SiO2 
 PCOD9586742
Probable space group: P -6 2 C
;
_chemical_formula_sum "Si O2"
_cell_formula_units_Z 76
_cell_length_a 15.684941
_cell_length_b 15.684941
_cell_length_c 15.048103
_cell_angle_alpha 90.000000
_cell_angle_beta 90.000000
_cell_angle_gamma 120.000000
_cell_volume 3206.108132
_symmetry_space_group_name_H-M "P -6 2 C"
_symmetry_group_IT_number 190
_symmetry_cell_setting 'hexagonal'
loop_
_space_group_symop_operation_xyz
x,y,z
-x+y,-x,1/2-z
-y,x-y,z
x,y,1/2-z
-x+y,-x,z
-y,x-y,1/2-z
x-y,-y,-z
-x,-x+y,-z
y,x,-z
y,x,1/2+z
x-y,-y,1/2+z
-x,-x+y,1/2+z
loop_
_atom_site_type_symbol
_atom_site_label
_atom_site_fract_x
_atom_site_fract_y
_atom_site_fract_z
Si Si1 0.806386 0.627174 0.849366
Si Si2 0.836764 0.441320 0.847868
Si Si3 0.803625 0.202711 0.347959
Si Si4 0.178719 0.496332 0.497426
Si Si5 0.000000 0.000000 0.391985
Si Si6 0.054026 0.469543 0.652552
Si Si7 0.196705 0.186587 0.106518
O O1 0.762658 0.617790 0.750000
O O2 0.837965 0.543309 0.857273
O O3 0.734562 0.601794 0.934323
O O4 0.905436 0.730303 0.856843
O O5 0.797924 0.401956 0.750000
O O6 0.782974 0.363222 0.924602
O O7 0.946556 0.455851 0.851165
O O8 0.762324 0.198954 0.250000
O O9 0.758211 0.234906 0.428881
O O10 0.915548 0.298677 0.347823
O O11 0.799605 0.100950 0.365780
O O12 0.107473 0.516705 0.560293
O O13 0.971366 0.890848 0.364119
O O14 0.000000 0.000000 0.500000
O O15 0.093535 0.517516 0.750000
O O16 0.194342 0.194342 0.000000
#
# Coordination Sequence:
#
# PCOD9586742 Si02
#       7
#    12  12  12  12   4  12  12
#     4  11  24  40  63  96 133 173 220 276 335 403
#     4  10  21  38  61  92 126 165 213 269 329 396
#     4   9  19  36  59  87 123 164 209 267 327 386
#     4  10  19  38  60  87 123 161 210 259 327 398
#     4   9  24  39  64  92 130 184 233 286 337 392
#     4   8  17  35  58  88 119 156 207 260 317 379
#     4  11  20  42  63  94 135 179 234 282 340 403
#
# _framework density 23.704753
#
# number of rings (size 3 to 8) (size 9 to 14) (size 15 to 20)
#    0.947    1.263    1.579    1.421    0.000    2.526 
#    3.789    4.737    0.000    2.842    0.000    0.000 
#    0.000    0.000    0.000    0.000    0.000    0.000 
#
# Total GULP energy -423343.987618 kJ/mol
# GULP energy per Si atom -5570.315627 kJ/mol
# Density = 2.365080 g / cm^3
# Si number density = 23.704753 Si / 1000 Ang^3
#
#
#
# Elastic Constant Matrix: (Units=GPa)
#
#
# Indices 1 2 3 4 5 6 
#
# 1 71.8405 10.9496 28.9645 0.0000 0.0000 0.0000
# 2 10.9496 71.8405 28.9645 0.0000 0.0000 0.0000
# 3 28.9645 28.9645 207.1892 0.0000 0.0000 0.0000
# 4 0.0000 0.0000 0.0000 -59.5513 0.0000 0.0000
# 5 0.0000 0.0000 0.0000 0.0000 -59.5513 0.0000
# 6 0.0000 0.0000 0.0000 0.0000 0.0000 30.4454
#
#
#
# Elastic Compliance Matrix: (Units=1/GPa)
#
#
# Indices 1 2 3 4 5 6 
#
# 1 0.014906 -0.001517 -0.001872 0.000000 0.000000 0.000000
# 2 -0.001517 0.014906 -0.001872 0.000000 0.000000 0.000000
# 3 -0.001872 -0.001872 0.005350 0.000000 0.000000 0.000000
# 4 0.000000 0.000000 0.000000 -0.016792 0.000000 0.000000
# 5 0.000000 0.000000 0.000000 0.000000 -0.016792 0.000000
# 6 0.000000 0.000000 0.000000 0.000000 0.000000 0.032846
#
#
# Mechanical properties :
#
#
# Convention : Reuss Voigt Hill
#
# Bulk Modulus (GPa) = 40.58461 54.29194 47.43828
# Shear Modulus (GPa) = 94.06179 1.06799 47.56489
#
# Velocity S-wave (km/s) = 6.30608 0.67195 4.48432
# Velocity P-wave (km/s) = 8.37737 4.85336 6.84600
#
# Compressibility (1/GPa) = 0.02463988
#
# Stress axis : x y z
#
# Youngs Moduli (GPa) = 67.08896 67.08896 186.92245
#
# Poissons Ratio (x) = 0.10179 0.34985
# Poissons Ratio (y) = 0.10179 0.34985
# Poissons Ratio (z) = 0.12557 0.12557
#
# Static dielectric constant tensor:
#      x y z
#    x 1.914110 0.000000 0.000000 
#    y 0.000000 1.914110 0.000000 
#    z 0.000000 0.000000 1.967270 
# 
# From -- ./inp_files/3107.got.cif
#   From: 2010.05.17/outbox.cif.g08.bks.cpg/sg190_2_cif.got.tgz:3107.got - 2010.05.20 12:16:56.
