data_PCOD9586574
_publ_section_title
;
Structure prediction by ZEFSAII (Michael W. Deem and Ramdas Pophale) SiO2 
 PCOD9586574
Probable space group: P -6 2 M
;
_chemical_formula_sum "Si O2"
_cell_formula_units_Z 20
_cell_length_a 11.768330
_cell_length_b 11.768330
_cell_length_c 9.050156
_cell_angle_alpha 90.000000
_cell_angle_beta 90.000000
_cell_angle_gamma 120.000000
_cell_volume 1085.466371
_symmetry_space_group_name_H-M "P -6 2 M"
_symmetry_group_IT_number 189
_symmetry_cell_setting 'hexagonal'
loop_
_space_group_symop_operation_xyz
x,y,z
-x+y,-x,-z
-y,x-y,z
x,y,-z
-x+y,-x,z
-y,x-y,-z
x-y,-y,-z
-x,-x+y,-z
y,x,-z
y,x,z
x-y,-y,z
-x,-x+y,z
loop_
_atom_site_type_symbol
_atom_site_label
_atom_site_fract_x
_atom_site_fract_y
_atom_site_fract_z
Si Si1 0.245244 0.000000 0.674275
Si Si2 0.501005 0.215807 0.827244
Si Si3 0.000000 0.000000 0.823646
O O1 0.225240 0.000000 0.500000
O O2 0.254444 0.873500 0.724348
O O3 0.127359 0.000000 0.761327
O O4 0.626982 0.195849 0.804589
O O5 0.462623 0.187948 0.000000
O O6 0.000000 0.000000 0.000000
#
# Coordination Sequence:
#
# PCOD9586574 Si02
#       3
#     6  12   2
#     4  12  24  39  62  93 130 157 193 257 319 366
#     4   8  18  38  63  90 118 160 210 245 283 352
#     4  12  28  47  64  81 112 167 217 249 295 368
#
# _framework density 18.425260000000002
#
# number of rings (size 3 to 8) (size 9 to 14) (size 15 to 20)
#    1.200    1.200    0.000    3.600    0.000    4.800 
#    0.000    3.000    0.000    0.000    0.000    0.000 
#    0.000    0.000    0.000    0.000    0.000    0.000 
#
# Total GULP energy -111457.361399 kJ/mol
# GULP energy per Si atom -5572.868070 kJ/mol
# Density = 1.838332 g / cm^3
# Si number density = 18.425260 Si / 1000 Ang^3
#
#
#
# Elastic Constant Matrix: (Units=GPa)
#
#
# Indices 1 2 3 4 5 6 
#
# 1 86.4208 47.8989 73.6653 0.0000 0.0000 0.0000
# 2 47.8989 86.4208 73.6653 0.0000 0.0000 0.0000
# 3 73.6653 73.6653 165.4169 0.0000 0.0000 0.0000
# 4 0.0000 0.0000 0.0000 90.3618 0.0000 0.0000
# 5 0.0000 0.0000 0.0000 0.0000 90.3618 0.0000
# 6 0.0000 0.0000 0.0000 0.0000 0.0000 19.2609
#
#
#
# Elastic Compliance Matrix: (Units=1/GPa)
#
#
# Indices 1 2 3 4 5 6 
#
# 1 0.020257 -0.005703 -0.006481 0.000000 0.000000 0.000000
# 2 -0.005703 0.020257 -0.006481 0.000000 0.000000 0.000000
# 3 -0.006481 -0.006481 0.011818 0.000000 0.000000 0.000000
# 4 0.000000 0.000000 0.000000 0.011067 0.000000 0.000000
# 5 0.000000 0.000000 0.000000 0.000000 0.011067 0.000000
# 6 0.000000 0.000000 0.000000 0.000000 0.000000 0.051919
#
#
# Mechanical properties :
#
#
# Convention : Reuss Voigt Hill
#
# Bulk Modulus (GPa) = 66.66337 80.96861 73.81599
# Shear Modulus (GPa) = 29.63587 49.53217 39.58402
#
# Velocity S-wave (km/s) = 4.01488 5.19048 4.64006
# Velocity P-wave (km/s) = 7.59943 8.94210 8.29797
#
# Compressibility (1/GPa) = 0.01500074
#
# Stress axis : x y z
#
# Youngs Moduli (GPa) = 49.36630 49.36630 84.61591
#
# Poissons Ratio (x) = 0.28151 0.54843
# Poissons Ratio (y) = 0.28151 0.54843
# Poissons Ratio (z) = 0.31996 0.31996
#
# Static dielectric constant tensor:
#      x y z
#    x 1.638520 0.000000 0.000000 
#    y 0.000000 1.638520 0.000000 
#    z 0.000000 0.000000 1.598970 
# 
# From -- ./inp_files/175.got.cif
#   From: 2010.05.17/outbox.cif.g08.bks.cpg/sg189_1_cif.got.tgz:175.got - 2010.05.20 12:14:34.
