data_PCOD9586744
_publ_section_title
;
Structure prediction by ZEFSAII (Michael W. Deem and Ramdas Pophale) SiO2 
 PCOD9586744
Probable space group: P -6 2 C
;
_chemical_formula_sum "Si O2"
_cell_formula_units_Z 96
_cell_length_a 14.058643
_cell_length_b 14.058643
_cell_length_c 25.268016
_cell_angle_alpha 90.000000
_cell_angle_beta 90.000000
_cell_angle_gamma 120.000000
_cell_volume 4325.024584
_symmetry_space_group_name_H-M "P -6 2 C"
_symmetry_group_IT_number 190
_symmetry_cell_setting 'hexagonal'
loop_
_space_group_symop_operation_xyz
x,y,z
-x+y,-x,1/2-z
-y,x-y,z
x,y,1/2-z
-x+y,-x,z
-y,x-y,1/2-z
x-y,-y,-z
-x,-x+y,-z
y,x,-z
y,x,1/2+z
x-y,-y,1/2+z
-x,-x+y,1/2+z
loop_
_atom_site_type_symbol
_atom_site_label
_atom_site_fract_x
_atom_site_fract_y
_atom_site_fract_z
Si Si1 0.781578 0.925748 0.552705
Si Si2 0.578580 0.526751 0.690044
Si Si3 0.533403 0.405337 0.958185
Si Si4 0.916196 0.219209 0.189899
Si Si5 0.458156 0.340649 0.429420
Si Si6 0.931705 0.141265 0.602633
Si Si7 0.536802 0.728295 0.402349
Si Si8 0.121679 0.660885 0.688581
O O1 0.654842 0.880201 0.565759
O O2 0.810254 0.829908 0.555386
O O3 0.812974 0.000000 0.500000
O O4 0.863059 0.011383 0.596873
O O5 0.611422 0.522653 0.750000
O O6 0.604048 0.652366 0.679775
O O7 0.655456 0.508928 0.650118
O O8 0.447120 0.447651 0.686487
O O9 0.433745 0.423381 0.939911
O O10 0.644080 0.518568 0.949606
O O11 0.532291 0.317580 0.917469
O O12 0.525811 0.358811 0.016871
O O13 0.946111 0.213547 0.250000
O O14 0.784564 0.142685 0.186033
O O15 0.993036 0.194975 0.152902
O O16 0.510818 0.349305 0.371305
O O17 0.842409 0.179509 0.599373
O O18 0.161279 0.653743 0.750000
#
# Coordination Sequence:
#
# PCOD9586744 Si02
#       8
#    12  12  12  12  12  12  12  12
#     4  12  22  40  59  87 125 159 206 266 317 385
#     4   9  19  36  61  94 129 167 219 275 329 398
#     4  11  23  42  64  88 133 167 210 274 326 398
#     4   9  19  37  60  91 125 161 209 266 325 390
#     4  11  21  42  58  89 127 158 207 268 322 385
#     4  11  23  39  65  91 124 166 215 262 326 392
#     4  11  22  43  66  93 127 177 219 266 340 398
#     4  10  19  38  64  86 119 165 210 264 325 387
#
# _framework density 22.196404999999999
#
# number of rings (size 3 to 8) (size 9 to 14) (size 15 to 20)
#    0.000    1.500    5.000    0.875    0.000    0.000 
#   12.000    2.500    0.000    0.000    0.000    0.000 
#    0.000    0.000    0.000    0.000    0.000    0.000 
#
# Total GULP energy -534771.492292 kJ/mol
# GULP energy per Si atom -5570.536378 kJ/mol
# Density = 2.214589 g / cm^3
# Si number density = 22.196405 Si / 1000 Ang^3
#
#
#
# Elastic Constant Matrix: (Units=GPa)
#
#
# Indices 1 2 3 4 5 6 
#
# 1 37.8117 0.7695 22.9192 0.0000 0.0000 0.0000
# 2 0.7695 37.8117 22.9192 0.0000 0.0000 0.0000
# 3 22.9192 22.9192 162.0602 0.0000 0.0000 0.0000
# 4 0.0000 0.0000 0.0000 14.9769 0.0000 0.0000
# 5 0.0000 0.0000 0.0000 0.0000 14.9769 0.0000
# 6 0.0000 0.0000 0.0000 0.0000 0.0000 18.5211
#
#
#
# Elastic Compliance Matrix: (Units=1/GPa)
#
#
# Indices 1 2 3 4 5 6 
#
# 1 0.029075 0.002079 -0.004406 0.000000 0.000000 0.000000
# 2 0.002079 0.029075 -0.004406 0.000000 0.000000 0.000000
# 3 -0.004406 -0.004406 0.007417 0.000000 0.000000 0.000000
# 4 0.000000 0.000000 0.000000 0.066769 0.000000 0.000000
# 5 0.000000 0.000000 0.000000 0.000000 0.066769 0.000000
# 6 0.000000 0.000000 0.000000 0.000000 0.000000 0.053992
#
#
# Mechanical properties :
#
#
# Convention : Reuss Voigt Hill
#
# Bulk Modulus (GPa) = 19.19342 36.76662 27.98002
# Shear Modulus (GPa) = 17.60992 22.43339 20.02165
#
# Velocity S-wave (km/s) = 2.81973 3.18256 3.00663
# Velocity P-wave (km/s) = 4.38943 5.48681 4.96851
#
# Compressibility (1/GPa) = 0.05210120
#
# Stress axis : x y z
#
# Youngs Moduli (GPa) = 34.39363 34.39363 134.82976
#
# Poissons Ratio (x) = -0.07150 0.59405
# Poissons Ratio (y) = -0.07150 0.59405
# Poissons Ratio (z) = 0.15154 0.15154
#
# Static dielectric constant tensor:
#      x y z
#    x 1.804330 0.000000 0.000000 
#    y 0.000000 1.804330 0.000000 
#    z 0.000000 0.000000 1.902910 
# 
# From -- ./inp_files/5006.got.cif
#   From: 2010.05.17/outbox.cif.g08.bks.cpg/sg190_3_cif.got.tgz:5006.got - 2010.05.20 12:16:56.
