data_PCOD9586606
_publ_section_title
;
Structure prediction by ZEFSAII (Michael W. Deem and Ramdas Pophale) SiO2 
 PCOD9586606
Probable space group: P -6 2 C
;
_chemical_formula_sum "Si O2"
_cell_formula_units_Z 58
_cell_length_a 14.994938
_cell_length_b 14.994938
_cell_length_c 15.781125
_cell_angle_alpha 90.000000
_cell_angle_beta 90.000000
_cell_angle_gamma 120.000000
_cell_volume 3072.967310
_symmetry_space_group_name_H-M "P -6 2 C"
_symmetry_group_IT_number 190
_symmetry_cell_setting 'hexagonal'
loop_
_space_group_symop_operation_xyz
x,y,z
-x+y,-x,1/2-z
-y,x-y,z
x,y,1/2-z
-x+y,-x,z
-y,x-y,1/2-z
x-y,-y,-z
-x,-x+y,-z
y,x,-z
y,x,1/2+z
x-y,-y,1/2+z
-x,-x+y,1/2+z
loop_
_atom_site_type_symbol
_atom_site_label
_atom_site_fract_x
_atom_site_fract_y
_atom_site_fract_z
Si Si1 0.320702 0.492090 0.962924
Si Si2 0.202325 0.576025 0.250000
Si Si3 0.333335 0.666667 0.848884
Si Si4 0.140358 0.495368 0.067391
Si Si5 0.872199 0.980529 0.750000
Si Si6 0.255358 0.179552 0.077513
Si Si7 0.722113 0.722113 0.500000
O O1 0.323652 0.562399 0.885462
O O2 0.271652 0.374596 0.932095
O O3 0.247062 0.504962 0.032443
O O4 0.432625 0.550176 0.005853
O O5 0.257429 0.699676 0.250000
O O6 0.145299 0.532266 0.162684
O O7 0.333334 0.666668 0.750000
O O8 0.062248 0.375485 0.060039
O O9 0.804034 0.967024 0.833619
O O10 0.913198 0.897164 0.750000
O O11 0.196065 0.196065 0.000000
O O12 0.257921 0.076552 0.055584
#
# Coordination Sequence:
#
# PCOD9586606 Si02
#       7
#    12   6   4  12   6  12   6
#     4   9  19  35  59  88 129 171 203 251 301 383
#     4  10  16  29  63  95 124 165 215 242 302 381
#     4   9  18  33  60  91 125 172 207 231 306 375
#     4  10  18  36  57  93 131 169 207 248 313 379
#     4  10  24  43  69  93 118 155 213 292 344 401
#     4  11  23  42  66  90 122 165 218 269 331 390
#     4  10  24  38  64  90 126 172 208 266 326 386
#
# _framework density 18.874265999999999
#
# number of rings (size 3 to 8) (size 9 to 14) (size 15 to 20)
#    0.414    1.655    2.069    1.655    2.897    0.828 
#    0.621    5.172    2.276    0.000    0.000    0.000 
#    0.000    0.000    0.000    0.000    0.000    0.000 
#
# Total GULP energy -323294.729035 kJ/mol
# GULP energy per Si atom -5574.047052 kJ/mol
# Density = 1.883131 g / cm^3
# Si number density = 18.874266 Si / 1000 Ang^3
#
#
#
# Elastic Constant Matrix: (Units=GPa)
#
#
# Indices 1 2 3 4 5 6 
#
# 1 82.9333 34.2512 43.7243 0.0000 0.0000 0.0000
# 2 34.2512 82.9333 43.7239 0.0000 0.0000 0.0000
# 3 43.7243 43.7239 160.4506 0.0001 -0.0002 0.0000
# 4 0.0000 0.0000 0.0001 12.7941 0.0000 0.0000
# 5 0.0000 0.0000 -0.0002 0.0000 12.7940 0.0000
# 6 0.0000 0.0000 0.0000 0.0000 0.0000 24.3411
#
#
#
# Elastic Compliance Matrix: (Units=1/GPa)
#
#
# Indices 1 2 3 4 5 6 
#
# 1 0.015627 -0.004915 -0.002919 0.000000 0.000000 0.000000
# 2 -0.004915 0.015627 -0.002919 0.000000 0.000000 0.000000
# 3 -0.002919 -0.002919 0.007823 0.000000 0.000000 0.000000
# 4 0.000000 0.000000 0.000000 0.078161 0.000000 0.000000
# 5 0.000000 0.000000 0.000000 0.000000 0.078162 0.000000
# 6 0.000000 0.000000 0.000000 0.000000 0.000000 0.041083
#
#
# Mechanical properties :
#
#
# Convention : Reuss Voigt Hill
#
# Bulk Modulus (GPa) = 56.91241 63.30180 60.10711
# Shear Modulus (GPa) = 18.95050 23.62701 21.28876
#
# Velocity S-wave (km/s) = 3.17210 3.54193 3.36210
# Velocity P-wave (km/s) = 6.60569 7.09497 6.85470
#
# Compressibility (1/GPa) = 0.01757086
#
# Stress axis : x y z
#
# Youngs Moduli (GPa) = 63.99308 63.99329 127.82178
#
# Poissons Ratio (x) = 0.31451 0.37313
# Poissons Ratio (y) = 0.31451 0.37312
# Poissons Ratio (z) = 0.18680 0.18680
#
# Static dielectric constant tensor:
#      x y z
#    x 1.682300 0.000000 0.000000 
#    y 0.000000 1.682290 0.000000 
#    z 0.000000 0.000000 1.591730 
# 
# From -- ./inp_files/2903.got.cif
#   From: 2010.05.17/outbox.cif.g08.bks.cpg/sg190_2_cif.got.tgz:2903.got - 2010.05.20 12:16:56.
