data_PCOD9586200
_publ_section_title
;
Structure prediction by ZEFSAII (Michael W. Deem and Ramdas Pophale) SiO2 
 PCOD9586200
Probable space group: P -6 2 M
;
_chemical_formula_sum "Si O2"
_cell_formula_units_Z 84
_cell_length_a 19.456951
_cell_length_b 19.456951
_cell_length_c 13.471171
_cell_angle_alpha 90.000000
_cell_angle_beta 90.000000
_cell_angle_gamma 120.000000
_cell_volume 4416.574403
_symmetry_space_group_name_H-M "P -6 2 M"
_symmetry_group_IT_number 189
_symmetry_cell_setting 'hexagonal'
loop_
_space_group_symop_operation_xyz
x,y,z
-x+y,-x,-z
-y,x-y,z
x,y,-z
-x+y,-x,z
-y,x-y,-z
x-y,-y,-z
-x,-x+y,-z
y,x,-z
y,x,z
x-y,-y,z
-x,-x+y,z
loop_
_atom_site_type_symbol
_atom_site_label
_atom_site_fract_x
_atom_site_fract_y
_atom_site_fract_z
Si Si1 0.904849 0.453709 0.385124
Si Si2 0.091726 0.184991 0.881045
Si Si3 0.375052 0.193598 0.882136
Si Si4 0.794027 0.667096 0.384805
Si Si5 0.917811 0.833992 0.381092
Si Si6 0.431832 0.091427 0.234378
Si Si7 0.606419 0.905023 0.699637
O O1 0.875747 0.427890 0.500000
O O2 0.876388 0.391368 0.293394
O O3 0.892649 0.525743 0.349519
O O4 0.000000 0.489394 0.389017
O O5 0.139380 0.139380 0.851643
O O6 0.139322 0.279837 0.862063
O O7 0.000000 0.139763 0.845647
O O8 0.087310 0.179453 0.000000
O O9 0.419790 0.145683 0.847282
O O10 0.402543 0.269401 0.809541
O O11 0.385836 0.210822 0.000000
O O12 0.775921 0.665007 0.500000
O O13 0.842945 0.756028 0.345674
O O14 0.715158 0.621570 0.323506
O O15 0.854642 0.634775 0.366125
O O16 0.915519 0.826823 0.500000
O O17 0.909237 0.909237 0.358742
O O18 0.000000 0.843779 0.348896
O O19 0.396708 0.000000 0.200147
O O20 0.667303 0.000000 0.701585
#
# Coordination Sequence:
#
# PCOD9586200 Si02
#       7
#    12  12  12  12  12  12  12
#     4   9  18  34  57  83 109 133 159 205 271 338
#     4   9  16  27  46  73 107 153 210 265 306 331
#     4  10  21  36  54  78 113 155 195 241 292 334
#     4  10  19  30  48  76 109 143 180 229 286 339
#     4   9  16  25  38  59  93 141 192 234 270 311
#     4  10  20  34  54  80 108 140 182 227 274 334
#     4  10  20  34  54  80 108 140 182 227 274 334
#
# _framework density 19.019265999999998
#
# number of rings (size 3 to 8) (size 9 to 14) (size 15 to 20)
#    0.000    2.429    0.000    2.857    0.000    5.714 
#    0.000    0.714    0.000    7.143    0.000   18.000 
#    0.000    0.000    0.000    0.000    0.000    2.286 
#
# Total GULP energy -467866.046667 kJ/mol
# GULP energy per Si atom -5569.833889 kJ/mol
# Density = 1.897598 g / cm^3
# Si number density = 19.019266 Si / 1000 Ang^3
#
#
#
# Elastic Constant Matrix: (Units=GPa)
#
#
# Indices 1 2 3 4 5 6 
#
# 1 60.5650 20.6037 -5.6313 0.0000 0.0000 0.0000
# 2 20.6037 60.5650 -5.6313 0.0000 0.0000 0.0000
# 3 -5.6313 -5.6313 110.4478 0.0000 0.0000 0.0000
# 4 0.0000 0.0000 0.0000 -197.4250 0.0000 0.0000
# 5 0.0000 0.0000 0.0000 0.0000 -197.4250 0.0000
# 6 0.0000 0.0000 0.0000 0.0000 0.0000 19.9807
#
#
#
# Elastic Compliance Matrix: (Units=1/GPa)
#
#
# Indices 1 2 3 4 5 6 
#
# 1 0.018716 -0.006308 0.000633 0.000000 0.000000 0.000000
# 2 -0.006308 0.018716 0.000633 0.000000 0.000000 0.000000
# 3 0.000633 0.000633 0.009119 0.000000 0.000000 0.000000
# 4 0.000000 0.000000 0.000000 -0.005065 0.000000 0.000000
# 5 0.000000 0.000000 0.000000 0.000000 -0.005065 0.000000
# 6 0.000000 0.000000 0.000000 0.000000 0.000000 0.050048
#
#
# Mechanical properties :
#
#
# Convention : Reuss Voigt Hill
#
# Bulk Modulus (GPa) = 27.42382 27.80667 27.61525
# Shear Modulus (GPa) = 45.99422 -60.15809 -7.08194
#
# Velocity S-wave (km/s) = 4.92295 -5.63016 -1.93175
# Velocity P-wave (km/s) = 6.83844 5.25481 3.09445
#
# Compressibility (1/GPa) = 0.03646465
#
# Stress axis : x y z
#
# Youngs Moduli (GPa) = 53.43023 53.43023 109.66644
#
# Poissons Ratio (x) = 0.33705 -0.06938
# Poissons Ratio (y) = 0.33705 -0.06938
# Poissons Ratio (z) = -0.03380 -0.03380
#
# Static dielectric constant tensor:
#      x y z
#    x 1.670000 0.000000 0.000000 
#    y 0.000000 1.670000 0.000000 
#    z 0.000000 0.000000 1.730240 
# 
# From -- ./inp_files/2796.got.cif
#   From: 2010.05.17/outbox.cif.g08.bks.cpg/sg189_2_cif.got.tgz:2796.got - 2010.05.20 12:14:34.
