data_PCOD9586646
_publ_section_title
;
Structure prediction by ZEFSAII (Michael W. Deem and Ramdas Pophale) SiO2 
 PCOD9586646
Probable space group: P -6 2 C
;
_chemical_formula_sum "Si O2"
_cell_formula_units_Z 30
_cell_length_a 13.389067
_cell_length_b 13.389067
_cell_length_c 10.704574
_cell_angle_alpha 90.000000
_cell_angle_beta 90.000000
_cell_angle_gamma 120.000000
_cell_volume 1661.883784
_symmetry_space_group_name_H-M "P -6 2 C"
_symmetry_group_IT_number 190
_symmetry_cell_setting 'hexagonal'
loop_
_space_group_symop_operation_xyz
x,y,z
-x+y,-x,1/2-z
-y,x-y,z
x,y,1/2-z
-x+y,-x,z
-y,x-y,1/2-z
x-y,-y,-z
-x,-x+y,-z
y,x,-z
y,x,1/2+z
x-y,-y,1/2+z
-x,-x+y,1/2+z
loop_
_atom_site_type_symbol
_atom_site_label
_atom_site_fract_x
_atom_site_fract_y
_atom_site_fract_z
Si Si1 0.132926 0.693086 0.016806
Si Si2 0.906706 0.353198 0.893437
Si Si3 0.711793 0.232719 0.250000
O O1 0.182978 0.725408 0.877529
O O2 0.133762 0.579262 0.068194
O O3 0.222839 0.800779 0.098032
O O4 0.000000 0.657174 0.000000
O O5 0.949173 0.376922 0.750000
O O6 0.000000 0.373383 0.000000
O O7 0.581760 0.211442 0.250000
#
# Coordination Sequence:
#
# PCOD9586646 Si02
#       3
#    12  12   6
#     4  11  23  35  60  83 116 151 191 230 284 335
#     4  11  24  39  57  85 118 151 189 236 285 338
#     4  10  18  36  56  78 114 156 184 230 274 336
#
# _framework density 18.051803
#
# number of rings (size 3 to 8) (size 9 to 14) (size 15 to 20)
#    0.400    0.800    4.000    2.000   16.800    0.000 
#    0.000    0.000    0.000    0.800    0.000    0.000 
#    0.000    0.000    0.000    0.000    0.000    0.000 
#
# Total GULP energy -167324.687579 kJ/mol
# GULP energy per Si atom -5577.489586 kJ/mol
# Density = 1.801072 g / cm^3
# Si number density = 18.051803 Si / 1000 Ang^3
#
#
#
# Elastic Constant Matrix: (Units=GPa)
#
#
# Indices 1 2 3 4 5 6 
#
# 1 72.8346 28.9235 9.8468 0.0000 0.0000 0.0000
# 2 28.9235 72.8346 9.8468 0.0000 0.0000 0.0000
# 3 9.8468 9.8468 140.8012 0.0000 0.0000 0.0000
# 4 0.0000 0.0000 0.0000 74.2647 0.0000 0.0000
# 5 0.0000 0.0000 0.0000 0.0000 74.2647 0.0000
# 6 0.0000 0.0000 0.0000 0.0000 0.0000 21.9555
#
#
#
# Elastic Compliance Matrix: (Units=1/GPa)
#
#
# Indices 1 2 3 4 5 6 
#
# 1 0.016368 -0.006406 -0.000697 0.000000 0.000000 0.000000
# 2 -0.006406 0.016368 -0.000697 0.000000 0.000000 0.000000
# 3 -0.000697 -0.000697 0.007200 0.000000 0.000000 0.000000
# 4 0.000000 0.000000 0.000000 0.013465 0.000000 0.000000
# 5 0.000000 0.000000 0.000000 0.000000 0.013465 0.000000
# 6 0.000000 0.000000 0.000000 0.000000 0.000000 0.045547
#
#
# Mechanical properties :
#
#
# Convention : Reuss Voigt Hill
#
# Bulk Modulus (GPa) = 41.08967 42.63386 41.86176
# Shear Modulus (GPa) = 36.73157 49.95385 43.34271
#
# Velocity S-wave (km/s) = 4.51575 5.26617 4.90533
# Velocity P-wave (km/s) = 7.07113 7.78753 7.43796
#
# Compressibility (1/GPa) = 0.02433702
#
# Stress axis : x y z
#
# Youngs Moduli (GPa) = 61.09600 61.09600 138.89554
#
# Poissons Ratio (x) = 0.39136 0.09677
# Poissons Ratio (y) = 0.39136 0.09677
# Poissons Ratio (z) = 0.04256 0.04256
#
# Static dielectric constant tensor:
#      x y z
#    x 1.653250 0.000000 0.000000 
#    y 0.000000 1.653250 0.000000 
#    z 0.000000 0.000000 1.596400 
# 
# From -- ./inp_files/409.got.cif
#   From: 2010.05.17/outbox.cif.g08.bks.cpg/sg190_1_cif.got.tgz:409.got - 2010.05.20 12:16:56.
