data_PCOD9586127
_publ_section_title
;
Structure prediction by ZEFSAII (Michael W. Deem and Ramdas Pophale) SiO2 
 PCOD9586127
Probable space group: P -6 2 M
;
_chemical_formula_sum "Si O2"
_cell_formula_units_Z 78
_cell_length_a 25.395466
_cell_length_b 25.395466
_cell_length_c 8.463564
_cell_angle_alpha 90.000000
_cell_angle_beta 90.000000
_cell_angle_gamma 120.000000
_cell_volume 4727.116299
_symmetry_space_group_name_H-M "P -6 2 M"
_symmetry_group_IT_number 189
_symmetry_cell_setting 'hexagonal'
loop_
_space_group_symop_operation_xyz
x,y,z
-x+y,-x,-z
-y,x-y,z
x,y,-z
-x+y,-x,z
-y,x-y,-z
x-y,-y,-z
-x,-x+y,-z
y,x,-z
y,x,z
x-y,-y,z
-x,-x+y,z
loop_
_atom_site_type_symbol
_atom_site_label
_atom_site_fract_x
_atom_site_fract_y
_atom_site_fract_z
Si Si1 0.700895 0.773670 0.819527
Si Si2 0.118011 0.430071 0.314326
Si Si3 0.074059 0.191397 0.325828
Si Si4 0.572978 0.375892 0.186623
Si Si5 0.456155 0.705453 0.315981
Si Si6 0.138608 0.071067 0.000000
Si Si7 0.485071 0.553459 0.808943
O O1 0.731637 0.731637 0.810773
O O2 0.631281 0.732502 0.774979
O O3 0.739570 0.829472 0.702882
O O4 0.708588 0.796294 0.000000
O O5 0.104632 0.417535 0.500000
O O6 0.189245 0.478603 0.295032
O O7 0.081495 0.462203 0.249205
O O8 0.094805 0.183808 0.500000
O O9 0.095751 0.172919 0.166879
O O10 0.000000 0.150393 0.326757
O O11 0.645433 0.409800 0.219367
O O12 0.544823 0.310388 0.266486
O O13 0.549424 0.421740 0.244088
O O14 0.562149 0.367619 0.000000
O O15 0.439013 0.692370 0.500000
O O16 0.082202 0.082202 0.000000
O O17 0.116933 0.000000 0.000000
O O18 0.502840 0.502840 0.759228
O O19 0.484455 0.554069 0.000000
#
# Coordination Sequence:
#
# PCOD9586127 Si02
#       7
#    12  12  12  12  12   6  12
#     4  10  18  29  46  68  95 127 157 188 232 284
#     4  10  20  30  43  67  96 124 154 190 230 279
#     4   9  17  30  47  67  94 126 161 197 232 280
#     4  10  19  31  49  68  89 120 159 197 234 283
#     4  10  20  33  46  64  93 124 155 193 237 281
#     4  10  19  32  48  70  98 128 162 198 238 280
#     4   9  18  32  47  66  93 123 152 187 231 281
#
# _framework density 16.500544999999999
#
# number of rings (size 3 to 8) (size 9 to 14) (size 15 to 20)
#    0.000    2.308    0.769    2.692    0.000    5.846 
#    0.000    0.000    0.000    0.923    0.000    1.077 
#    0.000    1.231    0.000    0.000    0.000    0.000 
#
# Total GULP energy -434636.339104 kJ/mol
# GULP energy per Si atom -5572.260758 kJ/mol
# Density = 1.646299 g / cm^3
# Si number density = 16.500545 Si / 1000 Ang^3
#
#
#
# Elastic Constant Matrix: (Units=GPa)
#
#
# Indices 1 2 3 4 5 6 
#
# 1 50.9466 14.4740 17.5618 0.0000 0.0000 0.0000
# 2 14.4740 50.9466 17.5618 0.0000 0.0000 0.0000
# 3 17.5618 17.5618 74.3330 0.0000 0.0000 0.0000
# 4 0.0000 0.0000 0.0000 8.8349 0.0000 0.0000
# 5 0.0000 0.0000 0.0000 0.0000 8.8349 0.0000
# 6 0.0000 0.0000 0.0000 0.0000 0.0000 18.2363
#
#
#
# Elastic Compliance Matrix: (Units=1/GPa)
#
#
# Indices 1 2 3 4 5 6 
#
# 1 0.022462 -0.004956 -0.004136 0.000000 0.000000 0.000000
# 2 -0.004956 0.022462 -0.004136 0.000000 0.000000 0.000000
# 3 -0.004136 -0.004136 0.015407 0.000000 0.000000 0.000000
# 4 0.000000 0.000000 0.000000 0.113188 0.000000 0.000000
# 5 0.000000 0.000000 0.000000 0.000000 0.113188 0.000000
# 6 0.000000 0.000000 0.000000 0.000000 0.000000 0.054836
#
#
# Mechanical properties :
#
#
# Convention : Reuss Voigt Hill
#
# Bulk Modulus (GPa) = 29.51958 30.60239 30.06098
# Shear Modulus (GPa) = 13.18254 15.62313 14.40283
#
# Velocity S-wave (km/s) = 2.82958 3.08039 2.95764
# Velocity P-wave (km/s) = 5.34829 5.58912 5.47003
#
# Compressibility (1/GPa) = 0.03387582
#
# Stress axis : x y z
#
# Youngs Moduli (GPa) = 44.51955 44.51955 64.90429
#
# Poissons Ratio (x) = 0.22063 0.26844
# Poissons Ratio (y) = 0.22063 0.26844
# Poissons Ratio (z) = 0.18413 0.18413
#
# Static dielectric constant tensor:
#      x y z
#    x 1.544320 0.000000 0.000000 
#    y 0.000000 1.544320 0.000000 
#    z 0.000000 0.000000 1.584530 
# 
# From -- ./inp_files/1407.got.cif
#   From: 2010.05.17/outbox.cif.g08.bks.cpg/sg189_1_cif.got.tgz:1407.got - 2010.05.20 12:14:34.
