data_PCOD9586592
_publ_section_title
;
Structure prediction by ZEFSAII (Michael W. Deem and Ramdas Pophale) SiO2 
 PCOD9586592
Probable space group: P -6 2 M
;
_chemical_formula_sum "Si O2"
_cell_formula_units_Z 84
_cell_length_a 15.000000
_cell_length_b 15.000000
_cell_length_c 24.000000
_cell_angle_alpha 90.000000
_cell_angle_beta 90.000000
_cell_angle_gamma 120.000000
_cell_volume 4676.537180
_symmetry_space_group_name_H-M "P -6 2 M"
_symmetry_group_IT_number 189
_symmetry_cell_setting 'hexagonal'
loop_
_space_group_symop_operation_xyz
x,y,z
-x+y,-x,-z
-y,x-y,z
x,y,-z
-x+y,-x,z
-y,x-y,-z
x-y,-y,-z
-x,-x+y,-z
y,x,-z
y,x,z
x-y,-y,z
-x,-x+y,z
loop_
_atom_site_type_symbol
_atom_site_label
_atom_site_fract_x
_atom_site_fract_y
_atom_site_fract_z
Si Si1 0.678819 0.124720 0.562613
Si Si2 0.122914 0.605212 0.313504
Si Si3 0.334953 0.460925 0.067994
Si Si4 0.129828 0.465054 0.120163
Si Si5 0.119586 0.880478 0.586505
Si Si6 0.115197 0.230450 0.721042
Si Si7 0.183871 0.459635 0.750035
O O1 0.664090 0.158626 0.500000
O O2 0.642641 0.152788 0.621289
O O3 0.798265 0.152998 0.567589
O O4 0.613423 0.000000 0.562176
O O5 0.196762 0.699483 0.272045
O O6 0.139551 0.511775 0.292889
O O7 0.000000 0.565844 0.307921
O O8 0.375337 0.375337 0.079249
O O9 0.221409 0.443791 0.091927
O O10 0.428897 0.569508 0.093596
O O11 0.331998 0.467719 0.000000
O O12 0.162474 0.480913 0.186122
O O13 0.000000 0.379839 0.115859
O O14 0.119033 0.877248 0.653920
O O15 0.000000 0.835295 0.569137
O O16 0.191092 0.000000 0.569672
O O17 0.197970 0.197970 0.739399
O O18 0.131215 0.336625 0.744839
O O19 0.000000 0.140753 0.734169
#
# Coordination Sequence:
#
# PCOD9586592 Si02
#       7
#    12  12  12  12  12  12  12
#     4   9  18  35  57  77 102 143 192 242 301 360
#     4  11  23  41  61  83 116 155 196 254 312 363
#     4  10  22  41  66  96 130 170 212 254 308 367
#     4  11  23  39  62  96 132 166 207 262 312 361
#     4   9  16  28  49  79 112 146 184 230 288 354
#     4  10  19  33  54  83 118 156 195 237 289 356
#     4  12  23  38  60  89 119 158 205 243 299 364
#
# _framework density 17.962008000000001
#
# number of rings (size 3 to 8) (size 9 to 14) (size 15 to 20)
#    0.000    1.714    1.429    3.857    0.000    4.571 
#    0.000    0.714    0.000    1.143    0.000    0.000 
#    0.000    0.000    0.000    0.000    0.000    0.000 
#
# Total GULP energy -467608.958821 kJ/mol
# GULP energy per Si atom -5566.773319 kJ/mol
# Density = 1.792113 g / cm^3
# Si number density = 17.962008 Si / 1000 Ang^3
#
#
#
# Elastic Constant Matrix: (Units=GPa)
#
#
# Indices 1 2 3 4 5 6 
#
# 1 106.5230 30.9180 42.3354 0.0000 0.0000 0.0000
# 2 30.9180 106.5230 42.3354 0.0000 0.0000 0.0000
# 3 42.3354 42.3354 131.5313 0.0000 0.0000 0.0000
# 4 0.0000 0.0000 0.0000 27.1945 0.0000 0.0000
# 5 0.0000 0.0000 0.0000 0.0000 27.1945 0.0000
# 6 0.0000 0.0000 0.0000 0.0000 0.0000 37.8025
#
#
#
# Elastic Compliance Matrix: (Units=1/GPa)
#
#
# Indices 1 2 3 4 5 6 
#
# 1 0.011151 -0.002076 -0.002921 0.000000 0.000000 0.000000
# 2 -0.002076 0.011151 -0.002921 0.000000 0.000000 0.000000
# 3 -0.002921 -0.002921 0.009483 0.000000 0.000000 0.000000
# 4 0.000000 0.000000 0.000000 0.036772 0.000000 0.000000
# 5 0.000000 0.000000 0.000000 0.000000 0.036772 0.000000
# 6 0.000000 0.000000 0.000000 0.000000 0.000000 0.026453
#
#
# Mechanical properties :
#
#
# Convention : Reuss Voigt Hill
#
# Bulk Modulus (GPa) = 62.69726 63.97278 63.33502
# Shear Modulus (GPa) = 32.69370 33.70420 33.19895
#
# Velocity S-wave (km/s) = 4.27096 4.33646 4.30384
# Velocity P-wave (km/s) = 7.70083 7.79526 7.74819
#
# Compressibility (1/GPa) = 0.01594966
#
# Stress axis : x y z
#
# Youngs Moduli (GPa) = 89.67799 89.67799 105.45044
#
# Poissons Ratio (x) = 0.18614 0.30803
# Poissons Ratio (y) = 0.18614 0.30803
# Poissons Ratio (z) = 0.26195 0.26195
#
# Static dielectric constant tensor:
#      x y z
#    x 1.657060 0.000000 0.000000 
#    y 0.000000 1.657060 0.000000 
#    z 0.000000 0.000000 1.636730 
# 
# From -- ./inp_files/3606.got.cif
#   From: 2010.05.17/outbox.ucp.g08.bks.cvg/sg189_2_cif.got.tgz:3606.got - 2010.06.11 15:22:13.
