data_PCOD9586760
_publ_section_title
;
Structure prediction by ZEFSAII (Michael W. Deem and Ramdas Pophale) SiO2 
 PCOD9586760
Probable space group: P -6 2 C
;
_chemical_formula_sum "Si O2"
_cell_formula_units_Z 70
_cell_length_a 13.937038
_cell_length_b 13.937038
_cell_length_c 17.351660
_cell_angle_alpha 90.000000
_cell_angle_beta 90.000000
_cell_angle_gamma 120.000000
_cell_volume 2918.855727
_symmetry_space_group_name_H-M "P -6 2 C"
_symmetry_group_IT_number 190
_symmetry_cell_setting 'hexagonal'
loop_
_space_group_symop_operation_xyz
x,y,z
-x+y,-x,1/2-z
-y,x-y,z
x,y,1/2-z
-x+y,-x,z
-y,x-y,1/2-z
x-y,-y,-z
-x,-x+y,-z
y,x,-z
y,x,1/2+z
x-y,-y,1/2+z
-x,-x+y,1/2+z
loop_
_atom_site_type_symbol
_atom_site_label
_atom_site_fract_x
_atom_site_fract_y
_atom_site_fract_z
Si Si1 0.454821 0.446291 0.085677
Si Si2 0.729296 0.206338 0.750000
Si Si3 0.024692 0.471081 0.250000
Si Si4 0.544386 0.774325 0.410539
Si Si5 0.939445 0.196127 0.750000
Si Si6 0.996346 0.217773 0.584935
Si Si7 0.218152 0.452938 0.574429
Si Si8 0.666667 0.333335 0.161519
O O1 0.523712 0.503955 0.163243
O O2 0.336507 0.440351 0.091459
O O3 0.431704 0.321279 0.081609
O O4 0.499741 0.499741 0.000000
O O5 0.765228 0.275834 0.670881
O O6 0.804765 0.145444 0.750000
O O7 0.600602 0.122796 0.750000
O O8 0.027871 0.355499 0.250000
O O9 0.660645 0.777415 0.415355
O O10 0.491061 0.719934 0.490750
O O11 0.985129 0.169837 0.671763
O O12 0.105146 0.338876 0.584555
O O13 0.000000 0.168250 0.500000
O O14 0.241314 0.547732 0.633183
O O15 0.666667 0.333334 0.250000
#
# Coordination Sequence:
#
# PCOD9586760 Si02
#       8
#    12   6   6  12   6  12  12   4
#     4   9  19  35  57  77 106 137 183 226 281 329
#     4   8  16  36  48  76 102 126 172 234 282 326
#     4  10  20  31  53  73 100 137 182 220 273 332
#     4   8  16  38  58  81 103 136 181 236 282 339
#     4  10  20  31  53  73 100 137 182 220 273 332
#     4   9  19  35  57  77 106 137 183 226 281 329
#     4  10  22  38  54  80 111 157 186 230 275 326
#     4  12  30  42  51  73 128 154 204 237 249 309
#
# _framework density 23.982002000000001
#
# number of rings (size 3 to 8) (size 9 to 14) (size 15 to 20)
#    0.000    2.743    0.000    0.000    4.800    0.686 
#   25.200    0.000    0.000    0.686    0.000    4.800 
#    0.000    2.743    0.000    0.343    0.000    0.000 
#
# Total GULP energy -390075.718564 kJ/mol
# GULP energy per Si atom -5572.510265 kJ/mol
# Density = 2.392742 g / cm^3
# Si number density = 23.982002 Si / 1000 Ang^3
#
#
#
# Elastic Constant Matrix: (Units=GPa)
#
#
# Indices 1 2 3 4 5 6 
#
# 1 51.7883 9.6177 11.0292 0.0001 0.0003 -0.0001
# 2 9.6177 51.7887 11.0286 0.0000 -0.0004 0.0001
# 3 11.0292 11.0286 245.8364 -0.0008 0.0001 -0.0005
# 4 0.0001 0.0000 -0.0008 40.8428 -0.0004 0.0004
# 5 0.0003 -0.0004 0.0001 -0.0004 40.8455 0.0000
# 6 -0.0001 0.0001 -0.0005 0.0004 0.0000 21.0852
#
#
#
# Elastic Compliance Matrix: (Units=1/GPa)
#
#
# Indices 1 2 3 4 5 6 
#
# 1 0.020133 -0.003581 -0.000743 0.000000 0.000000 0.000000
# 2 -0.003581 0.020132 -0.000743 0.000000 0.000000 0.000000
# 3 -0.000743 -0.000743 0.004134 0.000000 0.000000 0.000000
# 4 0.000000 0.000000 0.000000 0.024484 0.000000 0.000000
# 5 0.000000 0.000000 0.000000 0.000000 0.024483 0.000000
# 6 0.000000 0.000000 0.000000 0.000000 0.000000 0.047427
#
#
# Mechanical properties :
#
#
# Convention : Reuss Voigt Hill
#
# Bulk Modulus (GPa) = 29.18207 45.86272 37.52240
# Shear Modulus (GPa) = 30.79831 41.73723 36.26777
#
# Velocity S-wave (km/s) = 3.58750 4.17628 3.89304
# Velocity P-wave (km/s) = 5.41802 6.51310 5.99063
#
# Compressibility (1/GPa) = 0.03426761
#
# Stress axis : x y z
#
# Youngs Moduli (GPa) = 49.67092 49.67135 241.87466
#
# Poissons Ratio (x) = 0.17786 0.17961
# Poissons Ratio (y) = 0.17786 0.17960
# Poissons Ratio (z) = 0.03689 0.03688
#
# Static dielectric constant tensor:
#      x y z
#    x 2.032180 0.000010 0.000000 
#    y 0.000010 2.032170 0.000000 
#    z 0.000000 0.000000 2.070790 
# 
# From -- ./inp_files/3849.got.cif
#   From: 2010.05.17/outbox.cif.g08.bks.cpg/sg190_2_cif.got.tgz:3849.got - 2010.05.20 12:16:56.
