data_PCOD9586703
_publ_section_title
;
Structure prediction by ZEFSAII (Michael W. Deem and Ramdas Pophale) SiO2 
 PCOD9586703
Probable space group: P -6 2 C
;
_chemical_formula_sum "Si O2"
_cell_formula_units_Z 72
_cell_length_a 24.898094
_cell_length_b 24.898094
_cell_length_c 8.676959
_cell_angle_alpha 90.000000
_cell_angle_beta 90.000000
_cell_angle_gamma 120.000000
_cell_volume 4658.331399
_symmetry_space_group_name_H-M "P -6 2 C"
_symmetry_group_IT_number 190
_symmetry_cell_setting 'hexagonal'
loop_
_space_group_symop_operation_xyz
x,y,z
-x+y,-x,1/2-z
-y,x-y,z
x,y,1/2-z
-x+y,-x,z
-y,x-y,1/2-z
x-y,-y,-z
-x,-x+y,-z
y,x,-z
y,x,1/2+z
x-y,-y,1/2+z
-x,-x+y,1/2+z
loop_
_atom_site_type_symbol
_atom_site_label
_atom_site_fract_x
_atom_site_fract_y
_atom_site_fract_z
Si Si1 0.068711 0.696613 0.437131
Si Si2 0.816717 0.182672 0.927126
Si Si3 0.483577 0.737875 0.426801
Si Si4 0.862215 0.370660 0.431566
Si Si5 0.483562 0.857549 0.063727
Si Si6 0.931496 0.302211 0.564201
O O1 0.068692 0.698292 0.250000
O O2 0.116459 0.766614 0.494685
O O3 0.098070 0.653444 0.480909
O O4 0.000000 0.668231 0.500000
O O5 0.827720 0.171562 0.750000
O O6 0.779521 0.220760 0.922589
O O7 0.883073 0.232397 0.994803
O O8 0.462596 0.718929 0.250000
O O9 0.468820 0.678197 0.525222
O O10 0.463471 0.786738 0.481859
O O11 0.871240 0.371596 0.250000
O O12 0.877332 0.437298 0.492716
O O13 0.903619 0.345594 0.512224
O O14 0.480441 0.857765 0.250000
O O15 0.931506 0.300922 0.750000
O O16 0.000000 0.329323 0.500000
#
# Coordination Sequence:
#
# PCOD9586703 Si02
#       6
#    12  12  12  12  12  12
#     4   9  17  30  48  69  90 116 149 181 216 262
#     4   7  13  28  48  65  85 113 141 172 211 259
#     4   8  15  31  50  61  74 107 150 184 224 278
#     4  11  21  31  45  66  91 115 144 190 242 285
#     4   9  18  33  49  62  83 117 154 190 232 284
#     4  10  19  33  51  69  90 118 153 187 223 272
#
# _framework density 15.456179000000001
#
# number of rings (size 3 to 8) (size 9 to 14) (size 15 to 20)
#    0.000    3.000    0.000    5.000    0.000    2.000 
#    1.000    9.167    0.000    0.000    0.000    0.000 
#    0.000    0.000    0.000    0.500    0.000    6.000 
#
# Total GULP energy -400833.692062 kJ/mol
# GULP energy per Si atom -5567.134612 kJ/mol
# Density = 1.542100 g / cm^3
# Si number density = 15.456179 Si / 1000 Ang^3
#
#
#
# Elastic Constant Matrix: (Units=GPa)
#
#
# Indices 1 2 3 4 5 6 
#
# 1 92.4378 64.7519 24.9863 0.0000 0.0000 0.0000
# 2 64.7519 92.4378 24.9863 0.0000 0.0000 0.0000
# 3 24.9863 24.9863 34.0461 0.0000 0.0000 0.0000
# 4 0.0000 0.0000 0.0000 -145.7050 0.0000 0.0000
# 5 0.0000 0.0000 0.0000 0.0000 -145.7050 0.0000
# 6 0.0000 0.0000 0.0000 0.0000 0.0000 13.8429
#
#
#
# Elastic Compliance Matrix: (Units=1/GPa)
#
#
# Indices 1 2 3 4 5 6 
#
# 1 0.022209 -0.013911 -0.006090 0.000000 0.000000 0.000000
# 2 -0.013911 0.022209 -0.006090 0.000000 0.000000 0.000000
# 3 -0.006090 -0.006090 0.038310 0.000000 0.000000 0.000000
# 4 0.000000 0.000000 0.000000 -0.006863 0.000000 0.000000
# 5 0.000000 0.000000 0.000000 0.000000 -0.006863 0.000000
# 6 0.000000 0.000000 0.000000 0.000000 0.000000 0.072239
#
#
# Mechanical properties :
#
#
# Convention : Reuss Voigt Hill
#
# Bulk Modulus (GPa) = 32.73637 49.81895 41.27766
# Shear Modulus (GPa) = 24.55762 -48.56693 -12.00465
#
# Velocity S-wave (km/s) = 3.99037 -5.61164 -2.78994
# Velocity P-wave (km/s) = 6.51589 3.11208 4.04795
#
# Compressibility (1/GPa) = 0.03054706
#
# Stress axis : x y z
#
# Youngs Moduli (GPa) = 45.02758 45.02758 26.10272
#
# Poissons Ratio (x) = 0.62637 0.15896
# Poissons Ratio (y) = 0.62637 0.15896
# Poissons Ratio (z) = 0.27420 0.27420
#
# Static dielectric constant tensor:
#      x y z
#    x 1.524150 0.000000 0.000000 
#    y 0.000000 1.524150 0.000000 
#    z 0.000000 0.000000 1.524420 
# 
# From -- ./inp_files/1224.got.cif
#   From: 2010.05.17/outbox.cif.g08.bks.cpg/sg190_1_cif.got.tgz:1224.got - 2010.05.20 12:16:56.
