data_PCOD9586868
_publ_section_title
;
Structure prediction by ZEFSAII (Michael W. Deem and Ramdas Pophale) SiO2 
 PCOD9586868
Probable space group: P -6 2 C
;
_chemical_formula_sum "Si O2"
_cell_formula_units_Z 58
_cell_length_a 15.343548
_cell_length_b 15.343548
_cell_length_c 14.126038
_cell_angle_alpha 90.000000
_cell_angle_beta 90.000000
_cell_angle_gamma 120.000000
_cell_volume 2880.067023
_symmetry_space_group_name_H-M "P -6 2 C"
_symmetry_group_IT_number 190
_symmetry_cell_setting 'hexagonal'
loop_
_space_group_symop_operation_xyz
x,y,z
-x+y,-x,1/2-z
-y,x-y,z
x,y,1/2-z
-x+y,-x,z
-y,x-y,1/2-z
x-y,-y,-z
-x,-x+y,-z
y,x,-z
y,x,1/2+z
x-y,-y,1/2+z
-x,-x+y,1/2+z
loop_
_atom_site_type_symbol
_atom_site_label
_atom_site_fract_x
_atom_site_fract_y
_atom_site_fract_z
Si Si1 0.084880 0.214873 0.643222
Si Si2 0.899381 0.540966 0.360158
Si Si3 0.547589 0.547589 0.000000
Si Si4 0.609325 0.769714 0.513423
Si Si5 0.000000 0.000000 0.888637
Si Si6 0.939048 0.712788 0.857482
O O1 0.107411 0.253597 0.750000
O O2 0.082138 0.297418 0.579083
O O3 0.998815 0.099747 0.643947
O O4 0.178389 0.203849 0.607656
O O5 0.868528 0.507626 0.250000
O O6 0.811745 0.549043 0.420817
O O7 0.948370 0.485184 0.417629
O O8 0.994494 0.653275 0.355291
O O9 0.656262 0.558991 0.975322
O O10 0.656451 0.846819 0.427038
O O11 0.000000 0.000000 0.000000
O O12 0.908057 0.718511 0.750000
#
# Coordination Sequence:
#
# PCOD9586868 Si02
#       6
#    12  12   6  12   4  12
#     4  10  21  35  54  84 121 170 214 258 318 390
#     4  10  21  45  70  93 130 179 229 281 356 436
#     4  12  26  40  68 106 134 180 232 302 364 436
#     4  11  22  40  64  94 135 166 222 281 345 414
#     4  12  22  32  52  81 127 170 215 254 301 393
#     4   9  18  37  65  85 117 169 209 257 327 401
#
# _framework density 20.138421000000001
#
# number of rings (size 3 to 8) (size 9 to 14) (size 15 to 20)
#    0.000    1.655    2.069    5.586    4.345    2.483 
#    1.241    0.000    0.000    0.000    0.000    0.000 
#    0.000    0.000    0.000    0.000    0.000    0.000 
#
# Total GULP energy -323170.480188 kJ/mol
# GULP energy per Si atom -5571.904831 kJ/mol
# Density = 2.009258 g / cm^3
# Si number density = 20.138421 Si / 1000 Ang^3
#
#
#
# Elastic Constant Matrix: (Units=GPa)
#
#
# Indices 1 2 3 4 5 6 
#
# 1 80.0968 21.2322 26.7638 0.0000 0.0000 0.0000
# 2 21.2322 80.0968 26.7638 0.0000 0.0000 0.0000
# 3 26.7638 26.7638 121.8738 0.0000 0.0000 0.0000
# 4 0.0000 0.0000 0.0000 15.3446 0.0000 0.0000
# 5 0.0000 0.0000 0.0000 0.0000 15.3446 0.0000
# 6 0.0000 0.0000 0.0000 0.0000 0.0000 29.4323
#
#
#
# Elastic Compliance Matrix: (Units=1/GPa)
#
#
# Indices 1 2 3 4 5 6 
#
# 1 0.014076 -0.002912 -0.002452 0.000000 0.000000 0.000000
# 2 -0.002912 0.014076 -0.002452 0.000000 0.000000 0.000000
# 3 -0.002452 -0.002452 0.009282 0.000000 0.000000 0.000000
# 4 0.000000 0.000000 0.000000 0.065169 0.000000 0.000000
# 5 0.000000 0.000000 0.000000 0.000000 0.065169 0.000000
# 6 0.000000 0.000000 0.000000 0.000000 0.000000 0.033976
#
#
# Mechanical properties :
#
#
# Convention : Reuss Voigt Hill
#
# Bulk Modulus (GPa) = 45.86458 47.95413 46.90936
# Shear Modulus (GPa) = 22.25708 25.84481 24.05095
#
# Velocity S-wave (km/s) = 3.32807 3.58629 3.45959
# Velocity P-wave (km/s) = 6.13124 6.40410 6.26916
#
# Compressibility (1/GPa) = 0.02180332
#
# Stress axis : x y z
#
# Youngs Moduli (GPa) = 71.04274 71.04274 107.73564
#
# Poissons Ratio (x) = 0.20688 0.26413
# Poissons Ratio (y) = 0.20688 0.26413
# Poissons Ratio (z) = 0.17417 0.17417
#
# Static dielectric constant tensor:
#      x y z
#    x 1.788370 0.000000 0.000000 
#    y 0.000000 1.788370 0.000000 
#    z 0.000000 0.000000 1.755710 
# 
# From -- ./inp_files/2862.got.cif
#   From: 2010.05.17/outbox.cif.g08.bks.cpg/sg190_2_cif.got.tgz:2862.got - 2010.05.20 12:16:56.
