data_PCOD9586572
_publ_section_title
;
Structure prediction by ZEFSAII (Michael W. Deem and Ramdas Pophale) SiO2 
 PCOD9586572
Probable space group: P -6 2 M
;
_chemical_formula_sum "Si O2"
_cell_formula_units_Z 72
_cell_length_a 24.011263
_cell_length_b 24.011263
_cell_length_c 8.798632
_cell_angle_alpha 90.000000
_cell_angle_beta 90.000000
_cell_angle_gamma 120.000000
_cell_volume 4393.147601
_symmetry_space_group_name_H-M "P -6 2 M"
_symmetry_group_IT_number 189
_symmetry_cell_setting 'hexagonal'
loop_
_space_group_symop_operation_xyz
x,y,z
-x+y,-x,-z
-y,x-y,z
x,y,-z
-x+y,-x,z
-y,x-y,-z
x-y,-y,-z
-x,-x+y,-z
y,x,-z
y,x,z
x-y,-y,z
-x,-x+y,z
loop_
_atom_site_type_symbol
_atom_site_label
_atom_site_fract_x
_atom_site_fract_y
_atom_site_fract_z
Si Si1 0.483760 0.337715 0.317680
Si Si2 0.000000 0.284059 0.819495
Si Si3 0.482169 0.207080 0.319263
Si Si4 0.407977 0.000000 0.319137
Si Si5 0.803451 0.669626 0.317344
Si Si6 0.469474 0.592160 0.179440
Si Si7 0.664899 0.927298 0.314869
O O1 0.488554 0.348936 0.500000
O O2 0.497448 0.279275 0.288785
O O3 0.533488 0.401951 0.233582
O O4 0.409431 0.310661 0.272496
O O5 0.000000 0.346800 0.753632
O O6 0.934698 0.223288 0.759809
O O7 0.000000 0.286241 0.000000
O O8 0.490413 0.201397 0.500000
O O9 0.406189 0.161099 0.284930
O O10 0.523562 0.183713 0.226999
O O11 0.401989 0.000000 0.500000
O O12 0.472669 0.062485 0.264938
O O13 0.803698 0.676822 0.500000
O O14 0.873778 0.683222 0.267883
O O15 0.477497 0.589690 0.000000
O O16 0.665546 0.927113 0.500000
O O17 0.710901 0.000000 0.262690
#
# Coordination Sequence:
#
# PCOD9586572 Si02
#       7
#    12   6  12   6  12  12  12
#     4   9  19  35  55  77  99 134 179 215 256 316
#     4  12  22  32  50  80 110 136 168 211 258 309
#     4   9  18  35  55  72  95 133 176 212 254 317
#     4  12  24  38  56  74 100 138 176 215 262 325
#     4   9  17  31  53  77 104 137 169 203 248 307
#     4  12  24  36  52  78 108 133 168 222 278 321
#     4   8  15  30  54  82 105 131 173 214 246 290
#
# _framework density 16.38916
#
# number of rings (size 3 to 8) (size 9 to 14) (size 15 to 20)
#    0.000    2.167    1.667    5.000    1.167    0.667 
#    1.000    2.500    0.000    1.500    0.000    0.000 
#    0.833    0.000    1.500    0.000    0.500    0.000 
#
# Total GULP energy -401815.374712 kJ/mol
# GULP energy per Si atom -5580.769093 kJ/mol
# Density = 1.635186 g / cm^3
# Si number density = 16.389160 Si / 1000 Ang^3
#
#
#
# Elastic Constant Matrix: (Units=GPa)
#
#
# Indices 1 2 3 4 5 6 
#
# 1 103.5441 67.4191 39.1396 0.0000 0.0000 0.0000
# 2 67.4191 103.5441 39.1396 0.0000 0.0000 0.0000
# 3 39.1396 39.1396 50.0650 0.0000 0.0000 0.0000
# 4 0.0000 0.0000 0.0000 -3.0640 0.0000 0.0000
# 5 0.0000 0.0000 0.0000 0.0000 -3.0640 0.0000
# 6 0.0000 0.0000 0.0000 0.0000 0.0000 18.0625
#
#
#
# Elastic Compliance Matrix: (Units=1/GPa)
#
#
# Indices 1 2 3 4 5 6 
#
# 1 0.018396 -0.009286 -0.007122 0.000000 0.000000 0.000000
# 2 -0.009286 0.018396 -0.007122 0.000000 0.000000 0.000000
# 3 -0.007122 -0.007122 0.031110 0.000000 0.000000 0.000000
# 4 0.000000 0.000000 0.000000 -0.326368 0.000000 0.000000
# 5 0.000000 0.000000 0.000000 0.000000 -0.326368 0.000000
# 6 0.000000 0.000000 0.000000 0.000000 0.000000 0.055363
#
#
# Mechanical properties :
#
#
# Convention : Reuss Voigt Hill
#
# Bulk Modulus (GPa) = 47.98065 60.94996 54.46531
# Shear Modulus (GPa) = -10.51605 9.81721 -0.34942
#
# Velocity S-wave (km/s) = -2.53582 2.45012 -0.46224
# Velocity P-wave (km/s) = 4.55692 6.72860 5.74628
#
# Compressibility (1/GPa) = 0.02084173
#
# Stress axis : x y z
#
# Youngs Moduli (GPa) = 54.35976 54.35976 32.14405
#
# Poissons Ratio (x) = 0.50477 0.22894
# Poissons Ratio (y) = 0.50477 0.22894
# Poissons Ratio (z) = 0.38716 0.38716
#
# Static dielectric constant tensor:
#      x y z
#    x 1.547090 0.000000 0.000000 
#    y 0.000000 1.547090 0.000000 
#    z 0.000000 0.000000 1.540510 
# 
# From -- ./inp_files/1345.got.cif
#   From: 2010.05.17/outbox.cif.g08.bks.cpg/sg189_1_cif.got.tgz:1345.got - 2010.05.20 12:14:34.
