data_PCOD9586079
_publ_section_title
;
Structure prediction by ZEFSAII (Michael W. Deem and Ramdas Pophale) SiO2 
 PCOD9586079
Probable space group: P -6 C 2
;
_chemical_formula_sum "Si O2"
_cell_formula_units_Z 76
_cell_length_a 17.461250
_cell_length_b 17.461250
_cell_length_c 14.742799
_cell_angle_alpha 90.000000
_cell_angle_beta 90.000000
_cell_angle_gamma 120.000000
_cell_volume 3892.792339
_symmetry_space_group_name_H-M "P -6 C 2"
_symmetry_group_IT_number 188
_symmetry_cell_setting 'hexagonal'
loop_
_space_group_symop_operation_xyz
x,y,z
-x+y,-x,1/2-z
-y,x-y,z
x,y,1/2-z
-x+y,-x,z
-y,x-y,1/2-z
-y,-x,-z
-x+y,y,-z
x,x-y,-z
-x+y,y,1/2+z
x,x-y,1/2+z
-y,-x,1/2+z
loop_
_atom_site_type_symbol
_atom_site_label
_atom_site_fract_x
_atom_site_fract_y
_atom_site_fract_z
Si Si1 0.844336 0.792246 0.250000
Si Si2 0.597285 0.633377 0.354059
Si Si3 0.142165 0.591738 0.104868
Si Si4 0.083113 0.124946 0.250000
Si Si5 0.776758 0.095676 0.936202
Si Si6 0.333333 0.666667 0.888376
Si Si7 0.793352 0.959635 0.434956
Si Si8 0.211067 0.393646 0.141558
O O1 0.791370 0.845140 0.250000
O O2 0.824392 0.732217 0.159707
O O3 0.931777 0.902841 0.250000
O O4 0.627538 0.645529 0.250000
O O5 0.495753 0.554027 0.356814
O O6 0.672460 0.627830 0.411838
O O7 0.592390 0.720737 0.382497
O O8 0.233995 0.603643 0.143237
O O9 0.157279 0.689534 0.114397
O O10 0.139258 0.569629 0.000000
O O11 0.140570 0.154658 0.158058
O O12 0.816281 0.183719 0.000000
O O13 0.791800 0.034326 0.006298
O O14 0.333334 0.666667 0.000000
O O15 0.836223 0.918112 0.500000
O O16 0.694893 0.887094 0.408458
O O17 0.214185 0.389340 0.250000
#
# Coordination Sequence:
#
# PCOD9586079 Si02
#       8
#     6  12  12   6  12   4  12  12
#     4  12  23  38  56  83 104 138 196 258 320 383
#     4  11  22  37  56  81 116 160 207 270 327 379
#     4  11  21  34  53  81 118 161 214 264 321 377
#     4  12  23  38  54  83 108 144 192 260 316 375
#     4  12  24  39  60  81 108 150 208 262 318 391
#     4   9  18  30  46  74 115 153 208 275 310 355
#     4  12  22  36  59  77 110 151 196 250 311 371
#     4  11  22  35  54  82 112 156 211 259 314 380
#
# _framework density 19.523261000000002
#
# number of rings (size 3 to 8) (size 9 to 14) (size 15 to 20)
#    0.000    0.632    7.895    1.579    0.000    0.000 
#    0.000    0.000    0.000    0.000    0.000    0.000 
#    0.000    0.000    0.000   12.789    0.000   35.053 
#
# Total GULP energy -423263.023442 kJ/mol
# GULP energy per Si atom -5569.250308 kJ/mol
# Density = 1.947882 g / cm^3
# Si number density = 19.523261 Si / 1000 Ang^3
#
#
#
# Elastic Constant Matrix: (Units=GPa)
#
#
# Indices 1 2 3 4 5 6 
#
# 1 74.3221 16.4399 22.0893 -0.0001 0.0000 0.0000
# 2 16.4399 74.3223 22.0893 0.0000 0.0000 0.0000
# 3 22.0893 22.0893 127.8722 0.0000 0.0000 0.0000
# 4 -0.0001 0.0000 0.0000 23.6257 0.0000 0.0000
# 5 0.0000 0.0000 0.0000 0.0000 23.6259 -0.0001
# 6 0.0000 0.0000 0.0000 0.0000 -0.0001 28.9411
#
#
#
# Elastic Compliance Matrix: (Units=1/GPa)
#
#
# Indices 1 2 3 4 5 6 
#
# 1 0.014653 -0.002624 -0.002078 0.000000 0.000000 0.000000
# 2 -0.002624 0.014653 -0.002078 0.000000 0.000000 0.000000
# 3 -0.002078 -0.002078 0.008538 0.000000 0.000000 0.000000
# 4 0.000000 0.000000 0.000000 0.042327 0.000000 0.000000
# 5 0.000000 0.000000 0.000000 0.000000 0.042326 0.000000
# 6 0.000000 0.000000 0.000000 0.000000 0.000000 0.034553
#
#
# Mechanical properties :
#
#
# Convention : Reuss Voigt Hill
#
# Bulk Modulus (GPa) = 41.17804 44.19487 42.68645
# Shear Modulus (GPa) = 27.97920 29.63175 28.80547
#
# Velocity S-wave (km/s) = 3.78977 3.90008 3.84532
# Velocity P-wave (km/s) = 6.34723 6.55492 6.45191
#
# Compressibility (1/GPa) = 0.02428479
#
# Stress axis : x y z
#
# Youngs Moduli (GPa) = 68.24594 68.24617 117.12013
#
# Poissons Ratio (x) = 0.17905 0.24338
# Poissons Ratio (y) = 0.17905 0.24338
# Poissons Ratio (z) = 0.14182 0.14182
#
# Static dielectric constant tensor:
#      x y z
#    x 1.789540 0.000000 0.000000 
#    y 0.000000 1.789540 0.000000 
#    z 0.000000 0.000000 1.729110 
# 
# From -- ./inp_files/2576.got.cif
#   From: 2010.05.17/outbox.cif.g08.bks.cpg/sg188_2_cif.got.tgz:2576.got - 2010.05.20 12:11:46.
