data_PCOD9586544
_publ_section_title
;
Structure prediction by ZEFSAII (Michael W. Deem and Ramdas Pophale) SiO2 
 PCOD9586544
Probable space group: P -6 2 M
;
_chemical_formula_sum "Si O2"
_cell_formula_units_Z 49
_cell_length_a 19.247522
_cell_length_b 19.247522
_cell_length_c 7.743132
_cell_angle_alpha 90.000000
_cell_angle_beta 90.000000
_cell_angle_gamma 120.000000
_cell_volume 2484.259413
_symmetry_space_group_name_H-M "P -6 2 M"
_symmetry_group_IT_number 189
_symmetry_cell_setting 'hexagonal'
loop_
_space_group_symop_operation_xyz
x,y,z
-x+y,-x,-z
-y,x-y,z
x,y,-z
-x+y,-x,z
-y,x-y,-z
x-y,-y,-z
-x,-x+y,-z
y,x,-z
y,x,z
x-y,-y,z
-x,-x+y,z
loop_
_atom_site_type_symbol
_atom_site_label
_atom_site_fract_x
_atom_site_fract_y
_atom_site_fract_z
Si Si1 0.096773 0.096773 0.500000
Si Si2 0.333334 0.666668 0.289346
Si Si3 0.836047 0.740500 0.500000
Si Si4 0.613918 0.793885 0.199198
Si Si5 0.362898 0.451835 0.792389
Si Si6 0.527770 0.160528 0.295808
O O1 0.190462 0.118715 0.500000
O O2 0.000000 0.068830 0.500000
O O3 0.333334 0.666668 0.500000
O O4 0.247749 0.596215 0.231558
O O5 0.777230 0.777230 0.500000
O O6 0.818410 0.686098 0.669892
O O7 0.566824 0.840824 0.258112
O O8 0.554127 0.698267 0.209449
O O9 0.639301 0.816668 0.000000
O O10 0.384216 0.384216 0.735333
O O11 0.433683 0.538281 0.732282
O O12 0.364023 0.453845 0.000000
O O13 0.516127 0.164878 0.500000
#
# Coordination Sequence:
#
# PCOD9586544 Si02
#       6
#     3   4   6  12  12  12
#     4   8  20  48  82 108 130 162 206 266 326 418
#     4   9  18  30  55  80 112 163 224 283 307 356
#     4  11  25  46  72 102 133 169 211 261 347 417
#     4  11  24  42  66  97 133 177 226 276 332 393
#     4  10  23  40  58  89 129 170 220 272 322 380
#     4  11  20  37  60  88 126 175 229 274 320 375
#
# _framework density 19.724188000000002
#
# number of rings (size 3 to 8) (size 9 to 14) (size 15 to 20)
#    0.122    1.469    3.673    0.735    3.429    1.959 
#    0.000    0.000    0.000    2.204    0.000    0.000 
#    0.000    0.000    0.000    0.000    0.000    0.000 
#
# Total GULP energy -272770.069956 kJ/mol
# GULP energy per Si atom -5566.736122 kJ/mol
# Density = 1.967929 g / cm^3
# Si number density = 19.724188 Si / 1000 Ang^3
#
#
#
# Elastic Constant Matrix: (Units=GPa)
#
#
# Indices 1 2 3 4 5 6 
#
# 1 115.1984 43.9138 36.1662 -0.0001 0.0001 0.0001
# 2 43.9138 115.1994 36.1668 -0.0001 0.0001 -0.0001
# 3 36.1662 36.1668 80.5222 -0.0001 0.0001 0.0001
# 4 -0.0001 -0.0001 -0.0001 13.2287 -0.0001 0.0000
# 5 0.0001 0.0001 0.0001 -0.0001 13.2289 0.0000
# 6 0.0001 -0.0001 0.0001 0.0000 0.0000 35.6424
#
#
#
# Elastic Compliance Matrix: (Units=1/GPa)
#
#
# Indices 1 2 3 4 5 6 
#
# 1 0.010963 -0.003065 -0.003547 0.000000 0.000000 0.000000
# 2 -0.003065 0.010963 -0.003547 0.000000 0.000000 0.000000
# 3 -0.003547 -0.003547 0.015605 0.000000 0.000000 0.000000
# 4 0.000000 0.000000 0.000000 0.075593 0.000000 0.000000
# 5 0.000000 0.000000 0.000000 0.000000 0.075592 0.000000
# 6 0.000000 0.000000 0.000000 0.000000 0.000000 0.028056
#
#
# Mechanical properties :
#
#
# Convention : Reuss Voigt Hill
#
# Bulk Modulus (GPa) = 58.10022 60.37928 59.23975
# Shear Modulus (GPa) = 20.59063 25.39823 22.99443
#
# Velocity S-wave (km/s) = 3.23449 3.59230 3.41808
# Velocity P-wave (km/s) = 6.59314 6.91986 6.75848
#
# Compressibility (1/GPa) = 0.01721164
#
# Stress axis : x y z
#
# Youngs Moduli (GPa) = 91.21760 91.21799 64.08084
#
# Poissons Ratio (x) = 0.27962 0.22730
# Poissons Ratio (y) = 0.27962 0.22730
# Poissons Ratio (z) = 0.32355 0.32356
#
# Static dielectric constant tensor:
#      x y z
#    x 1.686490 0.000000 0.000000 
#    y 0.000000 1.686500 0.000000 
#    z 0.000000 0.000000 1.644910 
# 
# From -- ./inp_files/691.got.cif
#   From: 2010.05.17/outbox.cif.g08.bks.cpg/sg189_1_cif.got.tgz:691.got - 2010.05.20 12:14:34.
