data_PCOD9586852
_publ_section_title
;
Structure prediction by ZEFSAII (Michael W. Deem and Ramdas Pophale) SiO2 
 PCOD9586852
Probable space group: P -6 2 C
;
_chemical_formula_sum "Si O2"
_cell_formula_units_Z 70
_cell_length_a 15.646919
_cell_length_b 15.646919
_cell_length_c 15.747084
_cell_angle_alpha 90.000000
_cell_angle_beta 90.000000
_cell_angle_gamma 120.000000
_cell_volume 3338.784930
_symmetry_space_group_name_H-M "P -6 2 C"
_symmetry_group_IT_number 190
_symmetry_cell_setting 'hexagonal'
loop_
_space_group_symop_operation_xyz
x,y,z
-x+y,-x,1/2-z
-y,x-y,z
x,y,1/2-z
-x+y,-x,z
-y,x-y,1/2-z
x-y,-y,-z
-x,-x+y,-z
y,x,-z
y,x,1/2+z
x-y,-y,1/2+z
-x,-x+y,1/2+z
loop_
_atom_site_type_symbol
_atom_site_label
_atom_site_fract_x
_atom_site_fract_y
_atom_site_fract_z
Si Si1 0.534426 0.007938 0.651812
Si Si2 0.462347 0.286332 0.090437
Si Si3 0.000000 0.806315 0.000000
Si Si4 0.746894 0.866189 0.846508
Si Si5 0.648162 0.683169 0.100212
Si Si6 0.850834 0.603617 0.592578
Si Si7 0.666667 0.333334 0.348242
O O1 0.522616 0.977508 0.750000
O O2 0.446213 0.026599 0.626785
O O3 0.647472 0.096640 0.639060
O O4 0.521145 0.916536 0.596378
O O5 0.359129 0.217586 0.137499
O O6 0.553561 0.279697 0.125070
O O7 0.455539 0.258602 0.993065
O O8 0.069571 0.884437 0.927274
O O9 0.932583 0.711120 0.941939
O O10 0.782366 0.902877 0.750000
O O11 0.718269 0.752881 0.855441
O O12 0.619854 0.765201 0.128697
O O13 0.671497 0.671497 0.000000
O O14 0.666667 0.333334 0.250000
#
# Coordination Sequence:
#
# PCOD9586852 Si02
#       7
#    12  12   6  12  12  12   4
#     4  12  25  42  65  95 136 180 230 283 340 416
#     4  11  22  39  61  94 129 172 221 274 337 404
#     4  10  20  40  68 100 128 172 222 284 346 412
#     4  11  22  41  69 101 137 182 232 283 350 422
#     4  12  24  43  68 100 138 178 236 293 349 419
#     4  11  23  43  67  92 129 181 230 276 345 413
#     4  12  24  33  54  96 133 161 208 282 342 387
#
# _framework density 20.965710999999999
#
# number of rings (size 3 to 8) (size 9 to 14) (size 15 to 20)
#    0.000    0.686    6.857    4.114    2.400    1.371 
#    1.029    0.000    0.000    2.743    0.000    0.000 
#    0.000    0.000    0.000    0.000    0.000    0.000 
#
# Total GULP energy -390498.294123 kJ/mol
# GULP energy per Si atom -5578.547059 kJ/mol
# Density = 2.091799 g / cm^3
# Si number density = 20.965711 Si / 1000 Ang^3
#
#
#
# Elastic Constant Matrix: (Units=GPa)
#
#
# Indices 1 2 3 4 5 6 
#
# 1 74.3897 38.2488 16.1081 0.0008 0.0005 -0.0001
# 2 38.2488 74.3896 16.1080 0.0003 0.0004 -0.0001
# 3 16.1081 16.1080 62.2709 -0.0002 -0.0004 0.0000
# 4 0.0008 0.0003 -0.0002 -74.3149 -0.0040 0.0001
# 5 0.0005 0.0004 -0.0004 -0.0040 -74.3001 -0.0002
# 6 -0.0001 -0.0001 0.0000 0.0001 -0.0002 18.0704
#
#
#
# Elastic Compliance Matrix: (Units=1/GPa)
#
#
# Indices 1 2 3 4 5 6 
#
# 1 0.018628 -0.009041 -0.002480 0.000000 0.000000 0.000000
# 2 -0.009041 0.018628 -0.002480 0.000000 0.000000 0.000000
# 3 -0.002480 -0.002480 0.017342 0.000000 0.000000 0.000000
# 4 0.000000 0.000000 0.000000 -0.013456 0.000001 0.000000
# 5 0.000000 0.000000 0.000000 0.000001 -0.013459 0.000000
# 6 0.000000 0.000000 0.000000 0.000000 0.000000 0.055339
#
#
# Mechanical properties :
#
#
# Convention : Reuss Voigt Hill
#
# Bulk Modulus (GPa) = 37.59905 39.10890 38.35398
# Shear Modulus (GPa) = 41.70476 -16.73656 12.48410
#
# Velocity S-wave (km/s) = 4.46487 -2.82845 2.44284
# Velocity P-wave (km/s) = 6.67477 2.83326 5.12738
#
# Compressibility (1/GPa) = 0.02659642
#
# Stress axis : x y z
#
# Youngs Moduli (GPa) = 53.68145 53.68143 57.66375
#
# Poissons Ratio (x) = 0.48534 0.14301
# Poissons Ratio (y) = 0.48534 0.14301
# Poissons Ratio (z) = 0.13313 0.13313
#
# Static dielectric constant tensor:
#      x y z
#    x 1.779200 0.000000 0.000000 
#    y 0.000000 1.779200 0.000000 
#    z 0.000000 0.000000 1.754690 
# 
# From -- ./inp_files/3805.got.cif
#   From: 2010.05.17/outbox.cif.g08.bks.cpg/sg190_2_cif.got.tgz:3805.got - 2010.05.20 12:16:56.
