data_PCOD9586769
_publ_section_title
;
Structure prediction by ZEFSAII (Michael W. Deem and Ramdas Pophale) SiO2 
 PCOD9586769
Probable space group: P -6 2 C
;
_chemical_formula_sum "Si O2"
_cell_formula_units_Z 42
_cell_length_a 10.680169
_cell_length_b 10.680169
_cell_length_c 20.836733
_cell_angle_alpha 90.000000
_cell_angle_beta 90.000000
_cell_angle_gamma 120.000000
_cell_volume 2058.337130
_symmetry_space_group_name_H-M "P -6 2 C"
_symmetry_group_IT_number 190
_symmetry_cell_setting 'hexagonal'
loop_
_space_group_symop_operation_xyz
x,y,z
-x+y,-x,1/2-z
-y,x-y,z
x,y,1/2-z
-x+y,-x,z
-y,x-y,1/2-z
x-y,-y,-z
-x,-x+y,-z
y,x,-z
y,x,1/2+z
x-y,-y,1/2+z
-x,-x+y,1/2+z
loop_
_atom_site_type_symbol
_atom_site_label
_atom_site_fract_x
_atom_site_fract_y
_atom_site_fract_z
Si Si1 0.690852 0.095741 0.600345
Si Si2 0.312444 0.818315 0.750000
Si Si3 0.705733 0.195299 0.454324
Si Si4 0.085169 0.426294 0.176636
O O1 0.712691 0.160781 0.528773
O O2 0.566205 0.111704 0.636935
O O3 0.834863 0.189368 0.640760
O O4 0.633128 0.926717 0.589092
O O5 0.460306 0.808609 0.750000
O O6 0.321792 0.914493 0.810338
O O7 0.814937 0.364489 0.443615
O O8 0.141531 0.468252 0.250000
#
# Coordination Sequence:
#
# PCOD9586769 Si02
#       4
#    12   6  12  12
#     4  11  18  33  56  90 128 167 228 272 343 383
#     4   8  20  38  52  84 132 168 212 264 350 410
#     4   9  19  35  54  86 136 175 214 281 337 389
#     4  10  20  32  58  82 133 161 218 283 334 389
#
# _framework density 20.404821999999999
#
# number of rings (size 3 to 8) (size 9 to 14) (size 15 to 20)
#    1.714    0.571    2.857    1.429    0.000    2.286 
#    0.000    0.000    0.000    0.000    0.000    0.000 
#   65.714   15.429    0.000    0.000    0.000    0.000 
#
# Total GULP energy -233929.104150 kJ/mol
# GULP energy per Si atom -5569.740575 kJ/mol
# Density = 2.035838 g / cm^3
# Si number density = 20.404822 Si / 1000 Ang^3
#
#
#
# Elastic Constant Matrix: (Units=GPa)
#
#
# Indices 1 2 3 4 5 6 
#
# 1 75.9012 26.5360 37.9483 0.0000 0.0000 0.0000
# 2 26.5360 75.9012 37.9483 0.0000 0.0000 0.0000
# 3 37.9483 37.9483 121.7500 0.0000 0.0000 0.0000
# 4 0.0000 0.0000 0.0000 35.2154 0.0000 0.0000
# 5 0.0000 0.0000 0.0000 0.0000 35.2154 0.0000
# 6 0.0000 0.0000 0.0000 0.0000 0.0000 24.6826
#
#
#
# Elastic Compliance Matrix: (Units=1/GPa)
#
#
# Indices 1 2 3 4 5 6 
#
# 1 0.016475 -0.003782 -0.003956 0.000000 0.000000 0.000000
# 2 -0.003782 0.016475 -0.003956 0.000000 0.000000 0.000000
# 3 -0.003956 -0.003956 0.010680 0.000000 0.000000 0.000000
# 4 0.000000 0.000000 0.000000 0.028397 0.000000 0.000000
# 5 0.000000 0.000000 0.000000 0.000000 0.028397 0.000000
# 6 0.000000 0.000000 0.000000 0.000000 0.000000 0.040514
#
#
# Mechanical properties :
#
#
# Convention : Reuss Voigt Hill
#
# Bulk Modulus (GPa) = 49.40446 53.15751 51.28099
# Shear Modulus (GPa) = 29.22700 30.43066 29.82883
#
# Velocity S-wave (km/s) = 3.78876 3.86599 3.82757
# Velocity P-wave (km/s) = 6.58819 6.78497 6.68730
#
# Compressibility (1/GPa) = 0.02024109
#
# Stress axis : x y z
#
# Youngs Moduli (GPa) = 60.69688 60.69688 93.63374
#
# Poissons Ratio (x) = 0.22955 0.37045
# Poissons Ratio (y) = 0.22955 0.37045
# Poissons Ratio (z) = 0.24014 0.24014
#
# Static dielectric constant tensor:
#      x y z
#    x 1.744020 0.000000 0.000000 
#    y 0.000000 1.744020 0.000000 
#    z 0.000000 0.000000 1.754910 
# 
# From -- ./inp_files/4078.got.cif
#   From: 2010.05.17/outbox.cif.g08.bks.cpg/sg190_3_cif.got.tgz:4078.got - 2010.05.20 12:16:56.
