data_PCOD9586755
_publ_section_title
;
Structure prediction by ZEFSAII (Michael W. Deem and Ramdas Pophale) SiO2 
 PCOD9586755
Probable space group: P -6 2 C
;
_chemical_formula_sum "Si O2"
_cell_formula_units_Z 36
_cell_length_a 6.785470
_cell_length_b 6.785470
_cell_length_c 33.644816
_cell_angle_alpha 90.000000
_cell_angle_beta 90.000000
_cell_angle_gamma 120.000000
_cell_volume 1341.555545
_symmetry_space_group_name_H-M "P -6 2 C"
_symmetry_group_IT_number 190
_symmetry_cell_setting 'hexagonal'
loop_
_space_group_symop_operation_xyz
x,y,z
-x+y,-x,1/2-z
-y,x-y,z
x,y,1/2-z
-x+y,-x,z
-y,x-y,1/2-z
x-y,-y,-z
-x,-x+y,-z
y,x,-z
y,x,1/2+z
x-y,-y,1/2+z
-x,-x+y,1/2+z
loop_
_atom_site_type_symbol
_atom_site_label
_atom_site_fract_x
_atom_site_fract_y
_atom_site_fract_z
Si Si1 0.900201 0.283317 0.207293
Si Si2 0.119213 0.380599 0.040245
Si Si3 0.107901 0.381799 0.621458
O O1 0.894003 0.520514 0.207281
O O2 0.995595 0.267054 0.250000
O O3 0.989756 0.262294 0.164453
O O4 0.389770 0.488456 0.039920
O O5 0.008947 0.260659 0.081514
O O6 0.000000 0.252304 0.000000
O O7 0.379940 0.483247 0.620898
#
# Coordination Sequence:
#
# PCOD9586755 Si02
#       3
#    12  12  12
#     4   6   8  16  34  64  90 106 135 174 197 225
#     4  10  20  30  46  62  82 111 143 176 217 267
#     4   8  14  26  48  68  86 111 143 176 208 246
#
# _framework density 26.834520000000001
#
# number of rings (size 3 to 8) (size 9 to 14) (size 15 to 20)
#    2.000    2.000    0.000    2.000    0.000    0.000 
#    0.000    0.000    0.000   14.000    0.000    0.000 
#    0.000    0.000    0.000    0.000    0.000    0.000 
#
# Total GULP energy -200619.792956 kJ/mol
# GULP energy per Si atom -5572.772027 kJ/mol
# Density = 2.677344 g / cm^3
# Si number density = 26.834520 Si / 1000 Ang^3
#
#
#
# Elastic Constant Matrix: (Units=GPa)
#
#
# Indices 1 2 3 4 5 6 
#
# 1 95.8579 23.6392 55.7766 0.0000 0.0000 0.0000
# 2 23.6392 95.8579 55.7766 0.0000 0.0000 0.0000
# 3 55.7766 55.7766 373.9219 0.0000 0.0000 0.0000
# 4 0.0000 0.0000 0.0000 -34.4427 0.0000 0.0000
# 5 0.0000 0.0000 0.0000 0.0000 -34.4427 0.0000
# 6 0.0000 0.0000 0.0000 0.0000 0.0000 36.1094
#
#
#
# Elastic Compliance Matrix: (Units=1/GPa)
#
#
# Indices 1 2 3 4 5 6 
#
# 1 0.011785 -0.002062 -0.001450 0.000000 0.000000 0.000000
# 2 -0.002062 0.011785 -0.001450 0.000000 0.000000 0.000000
# 3 -0.001450 -0.001450 0.003107 0.000000 0.000000 0.000000
# 4 0.000000 0.000000 0.000000 -0.029034 0.000000 0.000000
# 5 0.000000 0.000000 0.000000 0.000000 -0.029034 0.000000
# 6 0.000000 0.000000 0.000000 0.000000 0.000000 0.027694
#
#
# Mechanical properties :
#
#
# Convention : Reuss Voigt Hill
#
# Bulk Modulus (GPa) = 59.69957 92.89139 76.29548
# Shear Modulus (GPa) = 423.32125 22.14113 222.73119
#
# Velocity S-wave (km/s) = 12.57358 2.87557 9.12041
# Velocity P-wave (km/s) = 15.26725 6.76141 11.80690
#
# Compressibility (1/GPa) = 0.01675054
#
# Stress axis : x y z
#
# Youngs Moduli (GPa) = 84.85704 84.85704 321.85319
#
# Poissons Ratio (x) = 0.17500 0.46676
# Poissons Ratio (y) = 0.17500 0.46676
# Poissons Ratio (z) = 0.12306 0.12306
#
# Static dielectric constant tensor:
#      x y z
#    x 2.106980 0.000000 0.000000 
#    y 0.000000 2.106980 0.000000 
#    z 0.000000 0.000000 2.053620 
# 
# From -- ./inp_files/5013.got.cif
#   From: 2010.05.17/outbox.cif.g08.bks.cpg/sg190_3_cif.got.tgz:5013.got - 2010.05.20 12:16:56.
