data_PCOD9586371
_publ_section_title
;
Structure prediction by ZEFSAII (Michael W. Deem and Ramdas Pophale) SiO2 
 PCOD9586371
Probable space group: P -6 2 M
;
_chemical_formula_sum "Si O2"
_cell_formula_units_Z 60
_cell_length_a 17.855078
_cell_length_b 17.855078
_cell_length_c 12.285129
_cell_angle_alpha 90.000000
_cell_angle_beta 90.000000
_cell_angle_gamma 120.000000
_cell_volume 3391.828276
_symmetry_space_group_name_H-M "P -6 2 M"
_symmetry_group_IT_number 189
_symmetry_cell_setting 'hexagonal'
loop_
_space_group_symop_operation_xyz
x,y,z
-x+y,-x,-z
-y,x-y,z
x,y,-z
-x+y,-x,z
-y,x-y,-z
x-y,-y,-z
-x,-x+y,-z
y,x,-z
y,x,z
x-y,-y,z
-x,-x+y,z
loop_
_atom_site_type_symbol
_atom_site_label
_atom_site_fract_x
_atom_site_fract_y
_atom_site_fract_z
Si Si1 0.593010 0.898093 0.000000
Si Si2 0.202855 0.101908 0.873384
Si Si3 0.381231 0.485322 0.624287
Si Si4 0.900804 0.415567 0.000000
Si Si5 0.631815 0.526576 0.763021
Si Si6 0.168367 0.786584 0.771001
O O1 0.505680 0.902557 0.000000
O O2 0.592187 0.848546 0.891212
O O3 0.670667 0.000000 0.000000
O O4 0.132898 0.132898 0.867107
O O5 0.278716 0.156051 0.787821
O O6 0.159404 0.000000 0.855260
O O7 0.235952 0.118672 0.000000
O O8 0.365403 0.501000 0.500000
O O9 0.435185 0.435185 0.622951
O O10 0.443280 0.574427 0.687920
O O11 0.293224 0.423459 0.688105
O O12 0.864132 0.370222 0.113824
O O13 0.000000 0.437587 0.000000
O O14 0.584604 0.584604 0.759868
O O15 0.732575 0.582161 0.737481
#
# Coordination Sequence:
#
# PCOD9586371 Si02
#       6
#     6  12  12   6  12  12
#     4  11  19  32  55  83 114 147 188 237 287 338
#     4  10  20  33  52  83 125 165 198 237 292 357
#     4  10  22  41  62  80 105 147 195 241 291 344
#     4   9  17  32  54  75 103 145 181 215 268 338
#     4  10  21  37  56  80 113 149 186 232 288 345
#     4  12  21  34  58  88 115 149 197 246 285 349
#
# _framework density 17.689572999999999
#
# number of rings (size 3 to 8) (size 9 to 14) (size 15 to 20)
#    0.000    1.600    3.000    3.200    0.000    1.600 
#    1.200    0.000    0.000    1.800    0.000    0.000 
#    0.000    1.600    0.000    0.000    0.000    0.000 
#
# Total GULP energy -334496.366815 kJ/mol
# GULP energy per Si atom -5574.939447 kJ/mol
# Density = 1.764931 g / cm^3
# Si number density = 17.689573 Si / 1000 Ang^3
#
#
#
# Elastic Constant Matrix: (Units=GPa)
#
#
# Indices 1 2 3 4 5 6 
#
# 1 67.7969 20.3369 28.1751 0.0000 0.0000 0.0000
# 2 20.3369 67.7969 28.1751 0.0000 0.0000 0.0000
# 3 28.1751 28.1751 103.1424 0.0000 0.0000 0.0000
# 4 0.0000 0.0000 0.0000 -1.1948 0.0000 0.0000
# 5 0.0000 0.0000 0.0000 0.0000 -1.1948 0.0000
# 6 0.0000 0.0000 0.0000 0.0000 0.0000 23.7300
#
#
#
# Elastic Compliance Matrix: (Units=1/GPa)
#
#
# Indices 1 2 3 4 5 6 
#
# 1 0.017409 -0.003661 -0.003755 0.000000 0.000000 0.000000
# 2 -0.003661 0.017409 -0.003755 0.000000 0.000000 0.000000
# 3 -0.003755 -0.003755 0.011747 0.000000 0.000000 0.000000
# 4 0.000000 0.000000 0.000000 -0.836944 0.000000 0.000000
# 5 0.000000 0.000000 0.000000 0.000000 -0.836944 0.000000
# 6 0.000000 0.000000 0.000000 0.000000 0.000000 0.042141
#
#
# Mechanical properties :
#
#
# Convention : Reuss Voigt Hill
#
# Bulk Modulus (GPa) = 41.28735 43.56784 42.42760
# Shear Modulus (GPa) = -3.21592 15.07135 5.92772
#
# Velocity S-wave (km/s) = -1.34979 2.92205 1.83255
# Velocity P-wave (km/s) = 4.57836 6.00559 5.33987
#
# Compressibility (1/GPa) = 0.02422049
#
# Stress axis : x y z
#
# Youngs Moduli (GPa) = 57.44188 57.44188 85.12809
#
# Poissons Ratio (x) = 0.21032 0.31969
# Poissons Ratio (y) = 0.21032 0.31969
# Poissons Ratio (z) = 0.21571 0.21571
#
# Static dielectric constant tensor:
#      x y z
#    x 1.604190 0.000000 0.000000 
#    y 0.000000 1.604190 0.000000 
#    z 0.000000 0.000000 1.607710 
# 
# From -- ./inp_files/1936.got.cif
#   From: 2010.05.17/outbox.cif.g08.bks.cpg/sg189_1_cif.got.tgz:1936.got - 2010.05.20 12:14:34.
