data_PCOD9586358
_publ_section_title
;
Structure prediction by ZEFSAII (Michael W. Deem and Ramdas Pophale) SiO2 
 PCOD9586358
Probable space group: P -6 2 M
;
_chemical_formula_sum "Si O2"
_cell_formula_units_Z 72
_cell_length_a 23.670660
_cell_length_b 23.670660
_cell_length_c 7.610497
_cell_angle_alpha 90.000000
_cell_angle_beta 90.000000
_cell_angle_gamma 120.000000
_cell_volume 3692.873113
_symmetry_space_group_name_H-M "P -6 2 M"
_symmetry_group_IT_number 189
_symmetry_cell_setting 'hexagonal'
loop_
_space_group_symop_operation_xyz
x,y,z
-x+y,-x,-z
-y,x-y,z
x,y,-z
-x+y,-x,z
-y,x-y,-z
x-y,-y,-z
-x,-x+y,-z
y,x,-z
y,x,z
x-y,-y,z
-x,-x+y,z
loop_
_atom_site_type_symbol
_atom_site_label
_atom_site_fract_x
_atom_site_fract_y
_atom_site_fract_z
Si Si1 0.186159 0.618224 0.214493
Si Si2 0.273457 0.071799 0.296093
Si Si3 0.763066 0.287849 0.212840
Si Si4 0.792485 0.175210 0.703862
Si Si5 0.928426 0.855370 0.788192
Si Si6 0.925813 0.572058 0.207694
O O1 0.250269 0.686606 0.261999
O O2 0.197152 0.559621 0.273040
O O3 0.122368 0.620816 0.277656
O O4 0.183414 0.616439 0.000000
O O5 0.291087 0.069939 0.500000
O O6 0.329964 0.138495 0.214602
O O7 0.209187 0.078413 0.290217
O O8 0.251339 0.000000 0.219090
O O9 0.788299 0.240539 0.279103
O O10 0.765506 0.287769 0.000000
O O11 0.793493 0.159197 0.500000
O O12 0.724897 0.115382 0.774543
O O13 0.913386 0.913386 0.750906
O O14 0.000000 0.874424 0.727319
O O15 0.925594 0.847231 0.000000
O O16 0.000000 0.611212 0.278752
O O17 0.931409 0.564429 0.000000
#
# Coordination Sequence:
#
# PCOD9586358 Si02
#       6
#    12  12  12  12  12  12
#     4   8  14  26  47  72  95 122 155 189 227 274
#     4   9  19  35  50  63  85 120 159 196 232 272
#     4   9  16  29  50  74  99 125 154 189 231 279
#     4  10  20  33  49  69  94 125 162 201 239 281
#     4   9  17  29  46  68  92 115 140 177 228 281
#     4   9  18  33  52  73  99 131 164 198 239 289
#
# _framework density 19.497015000000001
#
# number of rings (size 3 to 8) (size 9 to 14) (size 15 to 20)
#    0.000    3.000    0.000    2.000    0.000    4.667 
#    0.000    7.500    0.000    2.000    0.000    0.000 
#    0.000    0.000    0.000    0.000    0.000    0.000 
#
# Total GULP energy -401064.323261 kJ/mol
# GULP energy per Si atom -5570.337823 kJ/mol
# Density = 1.945264 g / cm^3
# Si number density = 19.497015 Si / 1000 Ang^3
#
#
#
# Elastic Constant Matrix: (Units=GPa)
#
#
# Indices 1 2 3 4 5 6 
#
# 1 118.0478 84.6656 -0.0878 0.0000 0.0000 0.0000
# 2 84.6656 118.0478 -0.0878 0.0000 0.0000 0.0000
# 3 -0.0878 -0.0878 37.3199 0.0000 0.0000 0.0000
# 4 0.0000 0.0000 0.0000 15.5440 0.0000 0.0000
# 5 0.0000 0.0000 0.0000 0.0000 15.5440 0.0000
# 6 0.0000 0.0000 0.0000 0.0000 0.0000 16.6911
#
#
#
# Elastic Compliance Matrix: (Units=1/GPa)
#
#
# Indices 1 2 3 4 5 6 
#
# 1 0.017445 -0.012512 0.000012 0.000000 0.000000 0.000000
# 2 -0.012512 0.017445 0.000012 0.000000 0.000000 0.000000
# 3 0.000012 0.000012 0.026795 0.000000 0.000000 0.000000
# 4 0.000000 0.000000 0.000000 0.064334 0.000000 0.000000
# 5 0.000000 0.000000 0.000000 0.000000 0.064334 0.000000
# 6 0.000000 0.000000 0.000000 0.000000 0.000000 0.059912
#
#
# Mechanical properties :
#
#
# Convention : Reuss Voigt Hill
#
# Bulk Modulus (GPa) = 27.24203 49.15505 38.19854
# Shear Modulus (GPa) = 17.39273 22.15084 19.77178
#
# Velocity S-wave (km/s) = 2.99000 3.37429 3.18794
# Velocity P-wave (km/s) = 5.09145 6.35983 5.76065
#
# Compressibility (1/GPa) = 0.03670799
#
# Stress axis : x y z
#
# Youngs Moduli (GPa) = 57.32436 57.32436 37.31983
#
# Poissons Ratio (x) = 0.71721 -0.00043
# Poissons Ratio (y) = 0.71721 -0.00043
# Poissons Ratio (z) = -0.00067 -0.00067
#
# Static dielectric constant tensor:
#      x y z
#    x 1.685860 0.000000 0.000000 
#    y 0.000000 1.685860 0.000000 
#    z 0.000000 0.000000 1.742800 
# 
# From -- ./inp_files/1223.got.cif
#   From: 2010.05.17/outbox.cif.g08.bks.cpg/sg189_1_cif.got.tgz:1223.got - 2010.05.20 12:14:34.
