data_PCOD9586252
_publ_section_title
;
Structure prediction by ZEFSAII (Michael W. Deem and Ramdas Pophale) SiO2 
 PCOD9586252
Probable space group: P -6 2 M
;
_chemical_formula_sum "Si O2"
_cell_formula_units_Z 54
_cell_length_a 17.909977
_cell_length_b 17.909977
_cell_length_c 11.471556
_cell_angle_alpha 90.000000
_cell_angle_beta 90.000000
_cell_angle_gamma 120.000000
_cell_volume 3186.713480
_symmetry_space_group_name_H-M "P -6 2 M"
_symmetry_group_IT_number 189
_symmetry_cell_setting 'hexagonal'
loop_
_space_group_symop_operation_xyz
x,y,z
-x+y,-x,-z
-y,x-y,z
x,y,-z
-x+y,-x,z
-y,x-y,-z
x-y,-y,-z
-x,-x+y,-z
y,x,-z
y,x,z
x-y,-y,z
-x,-x+y,z
loop_
_atom_site_type_symbol
_atom_site_label
_atom_site_fract_x
_atom_site_fract_y
_atom_site_fract_z
Si Si1 0.841766 0.453846 0.359297
Si Si2 0.195829 0.195829 0.638630
Si Si3 0.278374 0.100748 0.752327
Si Si4 0.531929 0.726460 0.358845
Si Si5 0.000000 0.632461 0.357948
Si Si6 0.207319 0.102960 0.000000
O O1 0.845365 0.450415 0.500000
O O2 0.759274 0.463959 0.334102
O O3 0.850317 0.372954 0.320064
O O4 0.918342 0.545070 0.318935
O O5 0.193427 0.193427 0.500000
O O6 0.210467 0.119891 0.684312
O O7 0.282411 0.282411 0.679868
O O8 0.375131 0.157462 0.701456
O O9 0.265659 0.120255 0.885569
O O10 0.247908 0.000000 0.741212
O O11 0.546878 0.733511 0.500000
O O12 0.000000 0.634490 0.500000
O O13 0.158793 0.158793 0.000000
O O14 0.137053 0.000000 0.000000
#
# Coordination Sequence:
#
# PCOD9586252 Si02
#       6
#    12   6  12  12   6   6
#     4   9  17  28  45  71 105 143 176 207 252 323
#     4  11  20  35  55  79 114 144 172 218 285 351
#     4  11  23  37  56  80 107 143 185 236 285 326
#     4  10  19  32  52  81 115 146 181 224 274 335
#     4   9  16  28  45  69 102 143 175 202 249 323
#     4  10  21  40  62  78  96 136 198 246 277 326
#
# _framework density 16.945357000000001
#
# number of rings (size 3 to 8) (size 9 to 14) (size 15 to 20)
#    0.000    2.000    3.333    1.222    1.556    3.556 
#    0.667    0.000    0.000    1.333    0.000    1.556 
#    0.000    0.000    0.000    0.000    0.000    0.000 
#
# Total GULP energy -300608.003450 kJ/mol
# GULP energy per Si atom -5566.814879 kJ/mol
# Density = 1.690679 g / cm^3
# Si number density = 16.945357 Si / 1000 Ang^3
#
#
#
# Elastic Constant Matrix: (Units=GPa)
#
#
# Indices 1 2 3 4 5 6 
#
# 1 69.3782 25.2447 26.6100 0.0000 0.0000 0.0000
# 2 25.2447 69.3782 26.6100 0.0000 0.0000 0.0000
# 3 26.6100 26.6100 68.2648 0.0000 0.0000 0.0000
# 4 0.0000 0.0000 0.0000 13.1041 0.0000 0.0000
# 5 0.0000 0.0000 0.0000 0.0000 13.1041 0.0000
# 6 0.0000 0.0000 0.0000 0.0000 0.0000 22.0668
#
#
#
# Elastic Compliance Matrix: (Units=1/GPa)
#
#
# Indices 1 2 3 4 5 6 
#
# 1 0.018097 -0.004561 -0.005276 0.000000 0.000000 0.000000
# 2 -0.004561 0.018097 -0.005276 0.000000 0.000000 0.000000
# 3 -0.005276 -0.005276 0.018762 0.000000 0.000000 0.000000
# 4 0.000000 0.000000 0.000000 0.076312 0.000000 0.000000
# 5 0.000000 0.000000 0.000000 0.000000 0.076312 0.000000
# 6 0.000000 0.000000 0.000000 0.000000 0.000000 0.045317
#
#
# Mechanical properties :
#
#
# Convention : Reuss Voigt Hill
#
# Bulk Modulus (GPa) = 40.43881 40.43893 40.43887
# Shear Modulus (GPa) = 17.16038 18.22544 17.69291
#
# Velocity S-wave (km/s) = 3.18573 3.28310 3.23478
# Velocity P-wave (km/s) = 6.11947 6.18771 6.15369
#
# Compressibility (1/GPa) = 0.02472872
#
# Stress axis : x y z
#
# Youngs Moduli (GPa) = 55.25713 55.25713 53.29826
#
# Poissons Ratio (x) = 0.25204 0.28122
# Poissons Ratio (y) = 0.25204 0.28122
# Poissons Ratio (z) = 0.29156 0.29156
#
# Static dielectric constant tensor:
#      x y z
#    x 1.636900 0.000000 0.000000 
#    y 0.000000 1.636900 0.000000 
#    z 0.000000 0.000000 1.560540 
# 
# From -- ./inp_files/1853.got.cif
#   From: 2010.05.17/outbox.cif.g08.bks.cpg/sg189_1_cif.got.tgz:1853.got - 2010.05.20 12:14:34.
