data_PCOD9586951
_publ_section_title
;
Structure prediction by ZEFSAII (Michael W. Deem and Ramdas Pophale) SiO2 
 PCOD9586951
Probable space group: P -6 2 C
;
_chemical_formula_sum "Si O2"
_cell_formula_units_Z 40
_cell_length_a 8.176981
_cell_length_b 8.176981
_cell_length_c 32.947155
_cell_angle_alpha 90.000000
_cell_angle_beta 90.000000
_cell_angle_gamma 120.000000
_cell_volume 1907.807396
_symmetry_space_group_name_H-M "P -6 2 C"
_symmetry_group_IT_number 190
_symmetry_cell_setting 'hexagonal'
loop_
_space_group_symop_operation_xyz
x,y,z
-x+y,-x,1/2-z
-y,x-y,z
x,y,1/2-z
-x+y,-x,z
-y,x-y,1/2-z
x-y,-y,-z
-x,-x+y,-z
y,x,-z
y,x,1/2+z
x-y,-y,1/2+z
-x,-x+y,1/2+z
loop_
_atom_site_type_symbol
_atom_site_label
_atom_site_fract_x
_atom_site_fract_y
_atom_site_fract_z
Si Si1 0.637732 0.005675 0.954684
Si Si2 0.848103 0.760412 0.169158
Si Si3 0.333334 0.666668 0.798408
Si Si4 0.018572 0.316518 0.922103
O O1 0.804112 0.198813 0.937100
O O2 0.713772 0.860362 0.954181
O O3 0.463717 0.932196 0.923942
O O4 0.565195 0.000000 0.000000
O O5 0.740538 0.549656 0.186896
O O6 0.804872 0.740004 0.120994
O O7 0.798516 0.926572 0.179943
O O8 0.333334 0.666668 0.750000
#
# Coordination Sequence:
#
# PCOD9586951 Si02
#       4
#    12  12   4  12
#     4  12  23  37  58  89 131 179 239 309 361 411
#     4  10  23  49  75 108 147 193 243 303 357 445
#     4  12  27  48  81 117 150 189 228 294 384 456
#     4  12  23  42  62  90 131 184 242 290 365 430
#
# _framework density 20.966477999999999
#
# number of rings (size 3 to 8) (size 9 to 14) (size 15 to 20)
#    0.600    0.000    3.000    6.300    0.000    1.200 
#    1.800    0.000    0.000    0.000    0.000    0.000 
#    0.000    0.000    0.000    0.000    0.000    0.000 
#
# Total GULP energy -222953.396492 kJ/mol
# GULP energy per Si atom -5573.834912 kJ/mol
# Density = 2.091876 g / cm^3
# Si number density = 20.966478 Si / 1000 Ang^3
#
#
#
# Elastic Constant Matrix: (Units=GPa)
#
#
# Indices 1 2 3 4 5 6 
#
# 1 116.3730 48.6126 36.1462 0.0000 0.0000 -0.0001
# 2 48.6126 116.3718 36.1458 -0.0001 -0.0001 -0.0001
# 3 36.1462 36.1458 79.4263 0.0001 -0.0001 -0.0001
# 4 0.0000 -0.0001 0.0001 13.4625 0.0001 0.0000
# 5 0.0000 -0.0001 -0.0001 0.0001 13.4626 -0.0001
# 6 -0.0001 -0.0001 -0.0001 0.0000 -0.0001 33.8803
#
#
#
# Elastic Compliance Matrix: (Units=1/GPa)
#
#
# Indices 1 2 3 4 5 6 
#
# 1 0.011164 -0.003594 -0.003445 0.000000 0.000000 0.000000
# 2 -0.003594 0.011164 -0.003445 0.000000 0.000000 0.000000
# 3 -0.003445 -0.003445 0.015726 0.000000 0.000000 0.000000
# 4 0.000000 0.000000 0.000000 0.074280 0.000000 0.000000
# 5 0.000000 0.000000 0.000000 0.000000 0.074280 0.000000
# 6 0.000000 0.000000 0.000000 0.000000 0.000000 0.029516
#
#
# Mechanical properties :
#
#
# Convention : Reuss Voigt Hill
#
# Bulk Modulus (GPa) = 58.52648 61.55337 60.03992
# Shear Modulus (GPa) = 20.59349 24.91218 22.75283
#
# Velocity S-wave (km/s) = 3.13742 3.45075 3.29781
# Velocity P-wave (km/s) = 6.41089 6.73043 6.57260
#
# Compressibility (1/GPa) = 0.01708628
#
# Stress axis : x y z
#
# Youngs Moduli (GPa) = 89.57062 89.56983 63.58804
#
# Poissons Ratio (x) = 0.32188 0.21909
# Poissons Ratio (y) = 0.32188 0.21909
# Poissons Ratio (z) = 0.30861 0.30860
#
# Static dielectric constant tensor:
#      x y z
#    x 1.802320 0.000000 0.000000 
#    y 0.000000 1.802320 0.000000 
#    z 0.000000 0.000000 1.713860 
# 
# From -- ./inp_files/5027.got.cif
#   From: 2010.05.17/outbox.cif.g08.bks.cpg/sg190_3_cif.got.tgz:5027.got - 2010.05.20 12:16:56.
