data_PCOD9586503
_publ_section_title
;
Structure prediction by ZEFSAII (Michael W. Deem and Ramdas Pophale) SiO2 
 PCOD9586503
Probable space group: P -6 2 M
;
_chemical_formula_sum "Si O2"
_cell_formula_units_Z 60
_cell_length_a 15.311410
_cell_length_b 15.311410
_cell_length_c 16.888783
_cell_angle_alpha 90.000000
_cell_angle_beta 90.000000
_cell_angle_gamma 120.000000
_cell_volume 3428.935841
_symmetry_space_group_name_H-M "P -6 2 M"
_symmetry_group_IT_number 189
_symmetry_cell_setting 'hexagonal'
loop_
_space_group_symop_operation_xyz
x,y,z
-x+y,-x,-z
-y,x-y,z
x,y,-z
-x+y,-x,z
-y,x-y,-z
x-y,-y,-z
-x,-x+y,-z
y,x,-z
y,x,z
x-y,-y,z
-x,-x+y,z
loop_
_atom_site_type_symbol
_atom_site_label
_atom_site_fract_x
_atom_site_fract_y
_atom_site_fract_z
Si Si1 0.748154 0.287830 0.638669
Si Si2 0.881624 0.196802 0.413231
Si Si3 0.546726 0.427574 0.906898
Si Si4 0.236693 0.119915 0.756582
Si Si5 0.461390 0.215736 0.818009
O O1 0.774288 0.402248 0.621366
O O2 0.813363 0.248813 0.594390
O O3 0.764010 0.277591 0.731750
O O4 0.865593 0.148207 0.500000
O O5 0.861068 0.127003 0.336903
O O6 0.000000 0.280602 0.407507
O O7 0.472371 0.472371 0.898013
O O8 0.502025 0.321501 0.862353
O O9 0.653789 0.504624 0.868093
O O10 0.559370 0.415104 0.000000
O O11 0.178380 0.178380 0.779499
O O12 0.341937 0.161376 0.802771
O O13 0.167709 0.000000 0.767710
#
# Coordination Sequence:
#
# PCOD9586503 Si02
#       5
#    12  12  12  12  12
#     4   9  17  32  51  75  99 141 184 214 268 325
#     4   9  19  34  51  75 108 142 180 229 282 330
#     4  11  22  34  54  82 110 144 178 211 263 324
#     4  10  21  37  59  82 107 144 190 238 282 323
#     4  11  19  37  54  80 113 146 174 223 270 324
#
# _framework density 17.498141
#
# number of rings (size 3 to 8) (size 9 to 14) (size 15 to 20)
#    0.400    1.600    2.000    2.400    0.000    2.000 
#    0.000    1.000    0.000    1.200    0.000    0.000 
#    0.000    9.600    0.000    0.000    0.000    0.000 
#
# Total GULP energy -334576.623562 kJ/mol
# GULP energy per Si atom -5576.277059 kJ/mol
# Density = 1.745831 g / cm^3
# Si number density = 17.498141 Si / 1000 Ang^3
#
#
#
# Elastic Constant Matrix: (Units=GPa)
#
#
# Indices 1 2 3 4 5 6 
#
# 1 74.3232 27.3235 14.9219 0.0000 0.0000 0.0000
# 2 27.3235 74.3232 14.9219 0.0000 0.0000 0.0000
# 3 14.9219 14.9219 74.5413 0.0000 0.0000 0.0000
# 4 0.0000 0.0000 0.0000 12.4061 0.0000 0.0000
# 5 0.0000 0.0000 0.0000 0.0000 12.4061 0.0000
# 6 0.0000 0.0000 0.0000 0.0000 0.0000 23.4999
#
#
#
# Elastic Compliance Matrix: (Units=1/GPa)
#
#
# Indices 1 2 3 4 5 6 
#
# 1 0.015865 -0.005412 -0.002092 0.000000 0.000000 0.000000
# 2 -0.005412 0.015865 -0.002092 0.000000 0.000000 0.000000
# 3 -0.002092 -0.002092 0.014253 0.000000 0.000000 0.000000
# 4 0.000000 0.000000 0.000000 0.080605 0.000000 0.000000
# 5 0.000000 0.000000 0.000000 0.000000 0.080605 0.000000
# 6 0.000000 0.000000 0.000000 0.000000 0.000000 0.042553
#
#
# Mechanical properties :
#
#
# Convention : Reuss Voigt Hill
#
# Bulk Modulus (GPa) = 37.32983 37.50250 37.41616
# Shear Modulus (GPa) = 17.99403 20.73044 19.36224
#
# Velocity S-wave (km/s) = 3.21025 3.44571 3.33007
# Velocity P-wave (km/s) = 5.92629 6.10814 6.01790
#
# Compressibility (1/GPa) = 0.02678823
#
# Stress axis : x y z
#
# Youngs Moduli (GPa) = 63.03373 63.03373 70.16022
#
# Poissons Ratio (x) = 0.34115 0.14680
# Poissons Ratio (y) = 0.34115 0.14680
# Poissons Ratio (z) = 0.13189 0.13189
#
# Static dielectric constant tensor:
#      x y z
#    x 1.570810 0.000000 0.000000 
#    y 0.000000 1.570810 0.000000 
#    z 0.000000 0.000000 1.598150 
# 
# From -- ./inp_files/2508.got.cif
#   From: 2010.05.17/outbox.cif.g08.bks.cpg/sg189_2_cif.got.tgz:2508.got - 2010.05.20 12:14:34.
