data_PCOD9586502
_publ_section_title
;
Structure prediction by ZEFSAII (Michael W. Deem and Ramdas Pophale) SiO2 
 PCOD9586502
Probable space group: P -6 2 M
;
_chemical_formula_sum "Si O2"
_cell_formula_units_Z 84
_cell_length_a 14.853876
_cell_length_b 14.853876
_cell_length_c 22.228743
_cell_angle_alpha 90.000000
_cell_angle_beta 90.000000
_cell_angle_gamma 120.000000
_cell_volume 4247.419188
_symmetry_space_group_name_H-M "P -6 2 M"
_symmetry_group_IT_number 189
_symmetry_cell_setting 'hexagonal'
loop_
_space_group_symop_operation_xyz
x,y,z
-x+y,-x,-z
-y,x-y,z
x,y,-z
-x+y,-x,z
-y,x-y,-z
x-y,-y,-z
-x,-x+y,-z
y,x,-z
y,x,z
x-y,-y,z
-x,-x+y,z
loop_
_atom_site_type_symbol
_atom_site_label
_atom_site_fract_x
_atom_site_fract_y
_atom_site_fract_z
Si Si1 0.751040 0.558176 0.766445
Si Si2 0.115698 0.882593 0.429582
Si Si3 0.881258 0.485911 0.428903
Si Si4 0.585871 0.874356 0.067648
Si Si5 0.823817 0.270757 0.372603
Si Si6 0.876201 0.465906 0.178013
Si Si7 0.122945 0.247982 0.154138
O O1 0.713172 0.548771 0.698565
O O2 0.818962 0.501828 0.774385
O O3 0.651249 0.497802 0.809492
O O4 0.821995 0.676399 0.788708
O O5 0.123250 0.859706 0.500000
O O6 0.202783 0.873977 0.393518
O O7 0.000000 0.804069 0.408130
O O8 0.139060 0.000000 0.426522
O O9 0.858652 0.482467 0.500000
O O10 0.871368 0.378253 0.407998
O O11 0.799149 0.502497 0.391463
O O12 0.000000 0.576326 0.419099
O O13 0.490512 0.843511 0.113236
O O14 0.669679 0.851329 0.099964
O O15 0.644478 0.000000 0.064341
O O16 0.558712 0.832777 0.000000
O O17 0.000000 0.538604 0.183413
O O18 0.179462 0.179462 0.160392
O O19 0.000000 0.176649 0.144671
#
# Coordination Sequence:
#
# PCOD9586502 Si02
#       7
#    12  12  12  12  12  12  12
#     4  11  23  38  58  85 113 153 203 242 289 352
#     4  10  21  38  59  82 109 144 188 240 297 353
#     4  11  24  41  61  86 115 147 184 233 301 370
#     4   8  16  34  60  87 114 149 193 238 285 334
#     4  12  24  38  59  85 115 149 191 241 289 352
#     4  10  21  39  60  82 116 153 189 243 297 342
#     4  10  21  37  58  87 126 167 204 244 291 346
#
# _framework density 19.776717000000001
#
# number of rings (size 3 to 8) (size 9 to 14) (size 15 to 20)
#    0.000    1.714    0.000    5.571    0.000    8.857 
#    0.000    2.857    0.000    6.000    0.000    0.000 
#    0.000    0.000    0.000    0.000    0.000    0.000 
#
# Total GULP energy -469294.330954 kJ/mol
# GULP energy per Si atom -5586.837273 kJ/mol
# Density = 1.973170 g / cm^3
# Si number density = 19.776717 Si / 1000 Ang^3
#
#
#
# Elastic Constant Matrix: (Units=GPa)
#
#
# Indices 1 2 3 4 5 6 
#
# 1 82.9837 33.6962 25.6865 0.0000 0.0000 0.0000
# 2 33.6962 82.9837 25.6865 0.0000 0.0000 0.0000
# 3 25.6865 25.6865 77.2884 0.0000 0.0000 0.0000
# 4 0.0000 0.0000 0.0000 17.4333 0.0000 0.0000
# 5 0.0000 0.0000 0.0000 0.0000 17.4333 0.0000
# 6 0.0000 0.0000 0.0000 0.0000 0.0000 24.6437
#
#
#
# Elastic Compliance Matrix: (Units=1/GPa)
#
#
# Indices 1 2 3 4 5 6 
#
# 1 0.015164 -0.005125 -0.003337 0.000000 0.000000 0.000000
# 2 -0.005125 0.015164 -0.003337 0.000000 0.000000 0.000000
# 3 -0.003337 -0.003337 0.015156 0.000000 0.000000 0.000000
# 4 0.000000 0.000000 0.000000 0.057362 0.000000 0.000000
# 5 0.000000 0.000000 0.000000 0.000000 0.057362 0.000000
# 6 0.000000 0.000000 0.000000 0.000000 0.000000 0.040578
#
#
# Mechanical properties :
#
#
# Convention : Reuss Voigt Hill
#
# Bulk Modulus (GPa) = 45.68500 45.93270 45.80885
# Shear Modulus (GPa) = 21.58160 22.44782 22.01471
#
# Velocity S-wave (km/s) = 3.30701 3.37272 3.34003
# Velocity P-wave (km/s) = 6.14266 6.20025 6.17152
#
# Compressibility (1/GPa) = 0.02188902
#
# Stress axis : x y z
#
# Youngs Moduli (GPa) = 65.94423 65.94423 65.97892
#
# Poissons Ratio (x) = 0.33795 0.22014
# Poissons Ratio (y) = 0.33795 0.22014
# Poissons Ratio (z) = 0.22003 0.22003
#
# Static dielectric constant tensor:
#      x y z
#    x 1.698000 0.000000 0.000000 
#    y 0.000000 1.698000 0.000000 
#    z 0.000000 0.000000 1.684720 
# 
# From -- ./inp_files/3589.got.cif
#   From: 2010.05.17/outbox.cif.g08.bks.cpg/sg189_2_cif.got.tgz:3589.got - 2010.05.20 12:14:34.
