data_PCOD9586633
_publ_section_title
;
Structure prediction by ZEFSAII (Michael W. Deem and Ramdas Pophale) SiO2 
 PCOD9586633
Probable space group: P -6 2 C
;
_chemical_formula_sum "Si O2"
_cell_formula_units_Z 66
_cell_length_a 18.652284
_cell_length_b 18.652284
_cell_length_c 9.169732
_cell_angle_alpha 90.000000
_cell_angle_beta 90.000000
_cell_angle_gamma 120.000000
_cell_volume 2762.811871
_symmetry_space_group_name_H-M "P -6 2 C"
_symmetry_group_IT_number 190
_symmetry_cell_setting 'hexagonal'
loop_
_space_group_symop_operation_xyz
x,y,z
-x+y,-x,1/2-z
-y,x-y,z
x,y,1/2-z
-x+y,-x,z
-y,x-y,1/2-z
x-y,-y,-z
-x,-x+y,-z
y,x,-z
y,x,1/2+z
x-y,-y,1/2+z
-x,-x+y,1/2+z
loop_
_atom_site_type_symbol
_atom_site_label
_atom_site_fract_x
_atom_site_fract_y
_atom_site_fract_z
Si Si1 0.822120 0.707132 0.919873
Si Si2 0.681908 0.779981 0.750000
Si Si3 0.152061 0.592438 0.008923
Si Si4 0.244979 0.244979 0.000000
Si Si5 0.966463 0.532785 0.750000
Si Si6 0.933259 0.398575 0.250000
Si Si7 0.715650 0.090821 0.250000
Si Si8 0.492152 0.237492 0.911409
O O1 0.801556 0.721214 0.750000
O O2 0.777783 0.605743 0.927335
O O3 0.802013 0.725515 0.087880
O O4 0.922769 0.756749 0.925535
O O5 0.619621 0.683529 0.750000
O O6 0.622434 0.821779 0.750000
O O7 0.083696 0.601450 0.102390
O O8 0.214457 0.688307 0.970496
O O9 0.201885 0.554374 0.089194
O O10 0.110079 0.521996 0.888257
O O11 0.317603 0.272405 0.113704
O O12 0.975575 0.451250 0.750000
O O13 0.054818 0.617071 0.750000
O O14 0.500279 0.275153 0.750000
#
# Coordination Sequence:
#
# PCOD9586633 Si02
#       8
#    12   6  12   6   6   6   6  12
#     4  10  20  34  56  82 106 142 174 222 278 351
#     4  10  22  42  58  77 110 142 178 234 298 363
#     4  12  25  41  61  84 109 147 187 244 303 374
#     4  10  18  32  52  82 108 128 172 216 278 336
#     4  12  26  42  60  81 112 144 192 242 306 365
#     4  12  28  42  56  85 114 140 187 250 315 378
#     4  10  22  34  58  81 106 136 173 230 285 366
#     4  11  21  39  59  75 103 139 186 224 291 365
#
# _framework density 23.888708000000001
#
# number of rings (size 3 to 8) (size 9 to 14) (size 15 to 20)
#    0.000    1.091    4.545    2.000    7.636    0.727 
#    0.000    0.000    0.000    0.364    0.000    0.000 
#    0.000    0.000    0.000    0.000    0.000    0.000 
#
# Total GULP energy -367520.355934 kJ/mol
# GULP energy per Si atom -5568.490241 kJ/mol
# Density = 2.383434 g / cm^3
# Si number density = 23.888708 Si / 1000 Ang^3
#
#
#
# Elastic Constant Matrix: (Units=GPa)
#
#
# Indices 1 2 3 4 5 6 
#
# 1 52.0349 -2.4805 28.5504 0.0000 0.0000 0.0000
# 2 -2.4805 52.0349 28.5504 0.0000 0.0000 0.0000
# 3 28.5504 28.5504 123.0541 0.0000 0.0000 0.0000
# 4 0.0000 0.0000 0.0000 34.3383 0.0000 0.0000
# 5 0.0000 0.0000 0.0000 0.0000 34.3383 0.0000
# 6 0.0000 0.0000 0.0000 0.0000 0.0000 27.2577
#
#
#
# Elastic Compliance Matrix: (Units=1/GPa)
#
#
# Indices 1 2 3 4 5 6 
#
# 1 0.022943 0.004600 -0.006390 0.000000 0.000000 0.000000
# 2 0.004600 0.022943 -0.006390 0.000000 0.000000 0.000000
# 3 -0.006390 -0.006390 0.011092 0.000000 0.000000 0.000000
# 4 0.000000 0.000000 0.000000 0.029122 0.000000 0.000000
# 5 0.000000 0.000000 0.000000 0.000000 0.029122 0.000000
# 6 0.000000 0.000000 0.000000 0.000000 0.000000 0.036687
#
#
# Mechanical properties :
#
#
# Convention : Reuss Voigt Hill
#
# Bulk Modulus (GPa) = 24.62029 37.37383 30.99706
# Shear Modulus (GPa) = 27.50114 30.68710 29.09412
#
# Velocity S-wave (km/s) = 3.39664 3.58800 3.49363
# Velocity P-wave (km/s) = 5.07065 5.73096 5.41089
#
# Compressibility (1/GPa) = 0.04061691
#
# Stress axis : x y z
#
# Youngs Moduli (GPa) = 43.58538 43.58538 90.15602
#
# Poissons Ratio (x) = -0.20049 0.57614
# Poissons Ratio (y) = -0.20049 0.57614
# Poissons Ratio (z) = 0.27853 0.27853
#
# Static dielectric constant tensor:
#      x y z
#    x 1.944360 0.000000 0.000000 
#    y 0.000000 1.944360 0.000000 
#    z 0.000000 0.000000 1.591910 
# 
# From -- ./inp_files/1116.got.cif
#   From: 2010.05.17/outbox.cif.g08.bks.cpg/sg190_1_cif.got.tgz:1116.got - 2010.05.20 12:16:56.
