data_PCOD9586403
_publ_section_title
;
Structure prediction by ZEFSAII (Michael W. Deem and Ramdas Pophale) SiO2 
 PCOD9586403
Probable space group: P -6 2 M
;
_chemical_formula_sum "Si O2"
_cell_formula_units_Z 76
_cell_length_a 18.669570
_cell_length_b 18.669570
_cell_length_c 13.770086
_cell_angle_alpha 90.000000
_cell_angle_beta 90.000000
_cell_angle_gamma 120.000000
_cell_volume 4156.577812
_symmetry_space_group_name_H-M "P -6 2 M"
_symmetry_group_IT_number 189
_symmetry_cell_setting 'hexagonal'
loop_
_space_group_symop_operation_xyz
x,y,z
-x+y,-x,-z
-y,x-y,z
x,y,-z
-x+y,-x,z
-y,x-y,-z
x-y,-y,-z
-x,-x+y,-z
y,x,-z
y,x,z
x-y,-y,z
-x,-x+y,z
loop_
_atom_site_type_symbol
_atom_site_label
_atom_site_fract_x
_atom_site_fract_y
_atom_site_fract_z
Si Si1 0.097944 0.785560 0.384981
Si Si2 0.905831 0.531381 0.678006
Si Si3 0.619748 0.148486 0.887372
Si Si4 0.284577 0.807098 0.889107
Si Si5 0.826562 0.343555 0.613899
Si Si6 0.333334 0.666668 0.380776
Si Si7 0.651371 0.749105 0.271982
O O1 0.106964 0.802168 0.500000
O O2 0.125206 0.717525 0.360171
O O3 0.161773 0.864684 0.323196
O O4 0.000000 0.744355 0.360575
O O5 0.902118 0.525852 0.795433
O O6 0.863160 0.440255 0.634446
O O7 0.000000 0.575011 0.645224
O O8 0.707822 0.232687 0.882681
O O9 0.542947 0.162855 0.867041
O O10 0.611395 0.117696 0.000000
O O11 0.247037 0.850563 0.823215
O O12 0.281194 0.829502 0.000000
O O13 0.822516 0.327996 0.500000
O O14 0.732453 0.306547 0.652005
O O15 0.880769 0.308772 0.660646
O O16 0.333334 0.666668 0.500000
O O17 0.705092 0.705092 0.255305
#
# Coordination Sequence:
#
# PCOD9586403 Si02
#       7
#    12  12  12  12  12   4  12
#     4  10  22  41  62  81 108 150 196 239 286 348
#     4  11  21  34  53  79 111 149 189 232 286 336
#     4  10  20  35  55  77 108 151 201 245 280 324
#     4  10  21  37  57  83 115 157 204 248 291 334
#     4  11  22  34  50  78 114 152 195 235 273 324
#     4   9  21  36  51  69  97 149 202 237 264 297
#     4  12  24  38  59  87 117 149 184 233 301 364
#
# _framework density 18.284272000000001
#
# number of rings (size 3 to 8) (size 9 to 14) (size 15 to 20)
#    0.000    1.421    3.158    2.684    0.000    6.000 
#    0.000    1.579    0.000    0.789    0.000    0.000 
#    0.000    0.000    0.000    0.000    0.000    0.000 
#
# Total GULP energy -424252.502917 kJ/mol
# GULP energy per Si atom -5582.269775 kJ/mol
# Density = 1.824266 g / cm^3
# Si number density = 18.284272 Si / 1000 Ang^3
#
#
#
# Elastic Constant Matrix: (Units=GPa)
#
#
# Indices 1 2 3 4 5 6 
#
# 1 59.7297 23.5277 13.4507 0.0000 0.0000 0.0000
# 2 23.5277 59.7292 13.4508 0.0000 0.0000 -0.0001
# 3 13.4507 13.4508 75.2887 0.0000 0.0000 0.0000
# 4 0.0000 0.0000 0.0000 16.5739 0.0000 0.0000
# 5 0.0000 0.0000 0.0000 0.0000 16.5741 0.0000
# 6 0.0000 -0.0001 0.0000 0.0000 0.0000 18.1006
#
#
#
# Elastic Compliance Matrix: (Units=1/GPa)
#
#
# Indices 1 2 3 4 5 6 
#
# 1 0.020185 -0.007438 -0.002277 0.000000 0.000000 0.000000
# 2 -0.007438 0.020185 -0.002277 0.000000 0.000000 0.000000
# 3 -0.002277 -0.002277 0.014096 0.000000 0.000000 0.000000
# 4 0.000000 0.000000 0.000000 0.060336 0.000000 0.000000
# 5 0.000000 0.000000 0.000000 0.000000 0.060335 0.000000
# 6 0.000000 0.000000 0.000000 0.000000 0.000000 0.055247
#
#
# Mechanical properties :
#
#
# Convention : Reuss Voigt Hill
#
# Bulk Modulus (GPa) = 32.80801 32.84511 32.82656
# Shear Modulus (GPa) = 18.90153 19.87095 19.38624
#
# Velocity S-wave (km/s) = 3.21870 3.30021 3.25971
# Velocity P-wave (km/s) = 5.63876 5.70302 5.67098
#
# Compressibility (1/GPa) = 0.03048036
#
# Stress axis : x y z
#
# Youngs Moduli (GPa) = 49.54224 49.54173 70.94260
#
# Poissons Ratio (x) = 0.36850 0.16155
# Poissons Ratio (y) = 0.36850 0.16156
# Poissons Ratio (z) = 0.11282 0.11282
#
# Static dielectric constant tensor:
#      x y z
#    x 1.638760 0.000000 0.000000 
#    y 0.000000 1.638770 0.000000 
#    z 0.000000 0.000000 1.668650 
# 
# From -- ./inp_files/2725.got.cif
#   From: 2010.05.17/outbox.cif.g08.bks.cpg/sg189_2_cif.got.tgz:2725.got - 2010.05.20 12:14:34.
