data_PCOD9586043
_publ_section_title
;
Structure prediction by ZEFSAII (Michael W. Deem and Ramdas Pophale) SiO2 
 PCOD9586043
Probable space group: P -6 C 2
;
_chemical_formula_sum "Si O2"
_cell_formula_units_Z 70
_cell_length_a 14.936476
_cell_length_b 14.936476
_cell_length_c 17.659981
_cell_angle_alpha 90.000000
_cell_angle_beta 90.000000
_cell_angle_gamma 120.000000
_cell_volume 3412.063889
_symmetry_space_group_name_H-M "P -6 C 2"
_symmetry_group_IT_number 188
_symmetry_cell_setting 'hexagonal'
loop_
_space_group_symop_operation_xyz
x,y,z
-x+y,-x,1/2-z
-y,x-y,z
x,y,1/2-z
-x+y,-x,z
-y,x-y,1/2-z
-y,-x,-z
-x+y,y,-z
x,x-y,-z
-x+y,y,1/2+z
x,x-y,1/2+z
-y,-x,1/2+z
loop_
_atom_site_type_symbol
_atom_site_label
_atom_site_fract_x
_atom_site_fract_y
_atom_site_fract_z
Si Si1 0.795617 0.551506 0.837741
Si Si2 0.666668 0.333334 0.660891
Si Si3 0.094050 0.581389 0.161980
Si Si4 0.981013 0.266611 0.082329
Si Si5 0.627047 0.083457 0.452475
Si Si6 0.931410 0.068591 0.500000
Si Si7 0.578327 0.824162 0.838139
O O1 0.767345 0.555048 0.750000
O O2 0.771895 0.436084 0.857359
O O3 0.912822 0.636411 0.851291
O O4 0.721939 0.561552 0.899062
O O5 0.666667 0.333334 0.750000
O O6 0.058894 0.568755 0.250000
O O7 0.147855 0.512220 0.151748
O O8 0.172380 0.702746 0.148514
O O9 0.003014 0.546864 0.102613
O O10 0.099633 0.326763 0.108508
O O11 0.963758 0.323866 0.011053
O O12 0.930746 0.144745 0.064278
O O13 0.562927 0.125853 0.500000
O O14 0.054731 0.109462 0.500000
O O15 0.611513 0.843850 0.750000
#
# Coordination Sequence:
#
# PCOD9586043 Si02
#       7
#    12   4  12  12  12   6  12
#     4  11  23  41  65  94 132 177 223 271 335 411
#     4   9  21  36  58  92 130 174 211 260 334 405
#     4  10  22  40  62  92 129 171 217 264 331 403
#     4  12  23  42  65  96 129 170 229 280 344 401
#     4  12  23  39  61  99 133 169 211 276 340 405
#     4  10  26  46  68  92 122 178 220 288 344 398
#     4  10  22  40  66  94 131 176 218 274 335 407
#
# _framework density 20.515442
#
# number of rings (size 3 to 8) (size 9 to 14) (size 15 to 20)
#    0.171    1.029    3.429    2.400    2.400    1.371 
#    0.000    1.714    0.000    3.086    0.000    0.000 
#    0.000    0.000    0.000    0.000    0.000    0.000 
#
# Total GULP energy -390349.452002 kJ/mol
# GULP energy per Si atom -5576.420743 kJ/mol
# Density = 2.046875 g / cm^3
# Si number density = 20.515442 Si / 1000 Ang^3
#
#
#
# Elastic Constant Matrix: (Units=GPa)
#
#
# Indices 1 2 3 4 5 6 
#
# 1 67.7057 5.1878 32.8494 0.0001 0.0001 0.0001
# 2 5.1878 67.7062 32.8495 0.0001 0.0000 0.0002
# 3 32.8494 32.8495 102.1218 0.0002 0.0001 0.0001
# 4 0.0001 0.0001 0.0002 15.2818 -0.0001 0.0001
# 5 0.0001 0.0000 0.0001 -0.0001 15.2826 -0.0002
# 6 0.0001 0.0002 0.0001 0.0001 -0.0002 31.2591
#
#
#
# Elastic Compliance Matrix: (Units=1/GPa)
#
#
# Indices 1 2 3 4 5 6 
#
# 1 0.017658 0.001662 -0.006215 0.000000 0.000000 0.000000
# 2 0.001662 0.017658 -0.006215 0.000000 0.000000 0.000000
# 3 -0.006215 -0.006215 0.013790 0.000000 0.000000 0.000000
# 4 0.000000 0.000000 0.000000 0.065438 0.000000 0.000000
# 5 0.000000 0.000000 0.000000 0.000000 0.065434 0.000000
# 6 0.000000 0.000000 0.000000 0.000000 0.000000 0.031991
#
#
# Mechanical properties :
#
#
# Convention : Reuss Voigt Hill
#
# Bulk Modulus (GPa) = 36.26928 42.14524 39.20726
# Shear Modulus (GPa) = 20.60224 23.47449 22.03837
#
# Velocity S-wave (km/s) = 3.17240 3.38632 3.28111
# Velocity P-wave (km/s) = 5.57998 5.98977 5.78850
#
# Compressibility (1/GPa) = 0.02757154
#
# Stress axis : x y z
#
# Youngs Moduli (GPa) = 56.63273 56.63315 72.51465
#
# Poissons Ratio (x) = -0.09414 0.45065
# Poissons Ratio (y) = -0.09414 0.45065
# Poissons Ratio (z) = 0.35195 0.35195
#
# Static dielectric constant tensor:
#      x y z
#    x 1.749120 0.000000 0.000000 
#    y 0.000000 1.749120 0.000000 
#    z 0.000000 0.000000 1.728950 
# 
# From -- ./inp_files/3215.got.cif
#   From: 2010.05.17/outbox.cif.g08.bks.cpg/sg188_2_cif.got.tgz:3215.got - 2010.05.20 12:11:46.
