data_PCOD9586343
_publ_section_title
;
Structure prediction by ZEFSAII (Michael W. Deem and Ramdas Pophale) SiO2 
 PCOD9586343
Probable space group: P -6 2 M
;
_chemical_formula_sum "Si O2"
_cell_formula_units_Z 36
_cell_length_a 13.932228
_cell_length_b 13.932228
_cell_length_c 14.374824
_cell_angle_alpha 90.000000
_cell_angle_beta 90.000000
_cell_angle_gamma 120.000000
_cell_volume 2416.430528
_symmetry_space_group_name_H-M "P -6 2 M"
_symmetry_group_IT_number 189
_symmetry_cell_setting 'hexagonal'
loop_
_space_group_symop_operation_xyz
x,y,z
-x+y,-x,-z
-y,x-y,z
x,y,-z
-x+y,-x,z
-y,x-y,-z
x-y,-y,-z
-x,-x+y,-z
y,x,-z
y,x,z
x-y,-y,z
-x,-x+y,z
loop_
_atom_site_type_symbol
_atom_site_label
_atom_site_fract_x
_atom_site_fract_y
_atom_site_fract_z
Si Si1 0.789787 0.326394 0.604146
Si Si2 0.336525 0.466330 0.110280
Si Si3 0.873297 0.325683 0.802037
O O1 0.772539 0.433582 0.611397
O O2 0.830263 0.324694 0.500000
O O3 0.857568 0.322705 0.690861
O O4 0.379177 0.379177 0.124475
O O5 0.428579 0.580272 0.158039
O O6 0.217629 0.428244 0.154073
O O7 0.334849 0.484871 0.000000
O O8 0.000000 0.365516 0.826232
#
# Coordination Sequence:
#
# PCOD9586343 Si02
#       3
#    12  12  12
#     4   8  14  27  46  65  94 127 152 184 228 275
#     4  10  20  32  46  67  95 122 153 196 237 274
#     4  11  19  30  50  71  92 124 159 189 232 283
#
# _framework density 14.898006000000001
#
# number of rings (size 3 to 8) (size 9 to 14) (size 15 to 20)
#    0.667    1.667    3.333    1.667    0.000    2.667 
#    0.000    0.000    0.000    1.667    0.000    0.000 
#    0.000    0.000    0.000    0.000    0.000    0.000 
#
# Total GULP energy -200426.999181 kJ/mol
# GULP energy per Si atom -5567.416644 kJ/mol
# Density = 1.486410 g / cm^3
# Si number density = 14.898006 Si / 1000 Ang^3
#
#
#
# Elastic Constant Matrix: (Units=GPa)
#
#
# Indices 1 2 3 4 5 6 
#
# 1 51.8960 25.4257 38.4560 0.0000 0.0000 0.0000
# 2 25.4257 51.8960 38.4560 0.0000 0.0000 0.0000
# 3 38.4560 38.4560 108.1997 0.0000 0.0000 0.0000
# 4 0.0000 0.0000 0.0000 15.8996 0.0000 0.0000
# 5 0.0000 0.0000 0.0000 0.0000 15.8996 0.0000
# 6 0.0000 0.0000 0.0000 0.0000 0.0000 13.2351
#
#
#
# Elastic Compliance Matrix: (Units=1/GPa)
#
#
# Indices 1 2 3 4 5 6 
#
# 1 0.028892 -0.008886 -0.007110 0.000000 0.000000 0.000000
# 2 -0.008886 0.028892 -0.007110 0.000000 0.000000 0.000000
# 3 -0.007110 -0.007110 0.014296 0.000000 0.000000 0.000000
# 4 0.000000 0.000000 0.000000 0.062895 0.000000 0.000000
# 5 0.000000 0.000000 0.000000 0.000000 0.062895 0.000000
# 6 0.000000 0.000000 0.000000 0.000000 0.000000 0.075556
#
#
# Mechanical properties :
#
#
# Convention : Reuss Voigt Hill
#
# Bulk Modulus (GPa) = 38.66028 46.29635 42.47832
# Shear Modulus (GPa) = 15.23174 16.31715 15.77445
#
# Velocity S-wave (km/s) = 3.20097 3.31306 3.25750
# Velocity P-wave (km/s) = 6.29825 6.76595 6.53629
#
# Compressibility (1/GPa) = 0.02586634
#
# Stress axis : x y z
#
# Youngs Moduli (GPa) = 34.61177 34.61177 69.94758
#
# Poissons Ratio (x) = 0.30757 0.49735
# Poissons Ratio (y) = 0.30757 0.49735
# Poissons Ratio (z) = 0.24610 0.24610
#
# Static dielectric constant tensor:
#      x y z
#    x 1.484610 0.000000 0.000000 
#    y 0.000000 1.484610 0.000000 
#    z 0.000000 0.000000 1.509870 
# 
# From -- ./inp_files/2311.got.cif
#   From: 2010.05.17/outbox.cif.g08.bks.cpg/sg189_2_cif.got.tgz:2311.got - 2010.05.20 12:14:34.
