data_PCOD9586217
_publ_section_title
;
Structure prediction by ZEFSAII (Michael W. Deem and Ramdas Pophale) SiO2 
 PCOD9586217
Probable space group: P -6 2 M
;
_chemical_formula_sum "Si O2"
_cell_formula_units_Z 72
_cell_length_a 24.563408
_cell_length_b 24.563408
_cell_length_c 8.616822
_cell_angle_alpha 90.000000
_cell_angle_beta 90.000000
_cell_angle_gamma 120.000000
_cell_volume 4502.513227
_symmetry_space_group_name_H-M "P -6 2 M"
_symmetry_group_IT_number 189
_symmetry_cell_setting 'hexagonal'
loop_
_space_group_symop_operation_xyz
x,y,z
-x+y,-x,-z
-y,x-y,z
x,y,-z
-x+y,-x,z
-y,x-y,-z
x-y,-y,-z
-x,-x+y,-z
y,x,-z
y,x,z
x-y,-y,z
-x,-x+y,z
loop_
_atom_site_type_symbol
_atom_site_label
_atom_site_fract_x
_atom_site_fract_y
_atom_site_fract_z
Si Si1 0.594526 0.406031 0.187942
Si Si2 0.926985 0.736888 0.685663
Si Si3 0.736815 0.476269 0.811565
Si Si4 0.262248 0.401758 0.813729
Si Si5 0.071894 0.144941 0.187339
Si Si6 0.402512 0.474405 0.313937
O O1 0.665860 0.450172 0.242147
O O2 0.569761 0.333357 0.232616
O O3 0.543605 0.422655 0.252721
O O4 0.592939 0.407811 0.000000
O O5 0.924943 0.734485 0.500000
O O6 0.884474 0.667680 0.752451
O O7 0.908339 0.787412 0.744482
O O8 0.000000 0.764679 0.734579
O O9 0.789720 0.546240 0.763769
O O10 0.734915 0.475829 0.000000
O O11 0.332908 0.428025 0.751977
O O12 0.263766 0.401265 0.000000
O O13 0.098239 0.098239 0.230500
O O14 0.000000 0.116026 0.238044
O O15 0.073597 0.149141 0.000000
O O16 0.398810 0.473714 0.500000
O O17 0.448881 0.448881 0.267094
#
# Coordination Sequence:
#
# PCOD9586217 Si02
#       6
#    12  12  12  12  12  12
#     4   9  16  29  49  70  93 120 150 183 223 273
#     4  10  20  32  46  67  96 127 156 189 232 279
#     4   8  15  27  46  71  93 115 145 183 224 266
#     4  10  19  31  49  71  93 120 156 194 232 275
#     4   9  17  30  49  72  96 122 153 190 231 275
#     4  10  20  32  45  65  95 125 152 187 230 272
#
# _framework density 15.991070000000001
#
# number of rings (size 3 to 8) (size 9 to 14) (size 15 to 20)
#    0.000    2.667    0.000    3.500    0.000    6.667 
#    0.000    4.167    0.000    2.000    0.000    2.333 
#    0.000    0.000    0.000    0.000    0.000    0.000 
#
# Total GULP energy -401403.656422 kJ/mol
# GULP energy per Si atom -5575.050784 kJ/mol
# Density = 1.595467 g / cm^3
# Si number density = 15.991070 Si / 1000 Ang^3
#
#
#
# Elastic Constant Matrix: (Units=GPa)
#
#
# Indices 1 2 3 4 5 6 
#
# 1 148.6122 99.8629 33.0509 0.0000 0.0000 0.0000
# 2 99.8629 148.6122 33.0509 0.0000 0.0000 0.0000
# 3 33.0509 33.0509 25.9487 0.0000 0.0000 0.0000
# 4 0.0000 0.0000 0.0000 5.6662 0.0000 0.0000
# 5 0.0000 0.0000 0.0000 0.0000 5.6662 0.0000
# 6 0.0000 0.0000 0.0000 0.0000 0.0000 24.3746
#
#
#
# Elastic Compliance Matrix: (Units=1/GPa)
#
#
# Indices 1 2 3 4 5 6 
#
# 1 0.013300 -0.007213 -0.007753 0.000000 0.000000 0.000000
# 2 -0.007213 0.013300 -0.007753 0.000000 0.000000 0.000000
# 3 -0.007753 -0.007753 0.058288 0.000000 0.000000 0.000000
# 4 0.000000 0.000000 0.000000 0.176484 0.000000 0.000000
# 5 0.000000 0.000000 0.000000 0.000000 0.176484 0.000000
# 6 0.000000 0.000000 0.000000 0.000000 0.000000 0.041026
#
#
# Mechanical properties :
#
#
# Convention : Reuss Voigt Hill
#
# Bulk Modulus (GPa) = 25.34882 72.78916 49.06899
# Shear Modulus (GPa) = 9.30281 17.62197 13.46239
#
# Velocity S-wave (km/s) = 2.41457 3.32322 2.90465
# Velocity P-wave (km/s) = 4.86413 7.76804 6.48083
#
# Compressibility (1/GPa) = 0.03944957
#
# Stress axis : x y z
#
# Youngs Moduli (GPa) = 75.18722 75.18722 17.15618
#
# Poissons Ratio (x) = 0.54233 0.13301
# Poissons Ratio (y) = 0.54233 0.13301
# Poissons Ratio (z) = 0.58294 0.58294
#
# Static dielectric constant tensor:
#      x y z
#    x 1.524190 0.000000 0.000000 
#    y 0.000000 1.524190 0.000000 
#    z 0.000000 0.000000 1.540000 
# 
# From -- ./inp_files/1230.got.cif
#   From: 2010.05.17/outbox.cif.g08.bks.cpg/sg189_1_cif.got.tgz:1230.got - 2010.05.20 12:14:34.
