data_PCOD9586499
_publ_section_title
;
Structure prediction by ZEFSAII (Michael W. Deem and Ramdas Pophale) SiO2 
 PCOD9586499
Probable space group: P -6 2 M
;
_chemical_formula_sum "Si O2"
_cell_formula_units_Z 72
_cell_length_a 23.907753
_cell_length_b 23.907753
_cell_length_c 8.663512
_cell_angle_alpha 90.000000
_cell_angle_beta 90.000000
_cell_angle_gamma 120.000000
_cell_volume 4288.467604
_symmetry_space_group_name_H-M "P -6 2 M"
_symmetry_group_IT_number 189
_symmetry_cell_setting 'hexagonal'
loop_
_space_group_symop_operation_xyz
x,y,z
-x+y,-x,-z
-y,x-y,z
x,y,-z
-x+y,-x,z
-y,x-y,-z
x-y,-y,-z
-x,-x+y,-z
y,x,-z
y,x,z
x-y,-y,z
-x,-x+y,z
loop_
_atom_site_type_symbol
_atom_site_label
_atom_site_fract_x
_atom_site_fract_y
_atom_site_fract_z
Si Si1 0.074586 0.334072 0.684917
Si Si2 0.596656 0.127416 0.815031
Si Si3 0.524268 0.668284 0.814774
Si Si4 0.408469 0.408469 0.685078
Si Si5 0.666023 0.862594 0.815800
Si Si6 0.000000 0.723517 0.315070
Si Si7 0.789388 0.522494 0.684358
O O1 0.082385 0.335449 0.500000
O O2 0.095440 0.406247 0.741695
O O3 0.125331 0.316993 0.761936
O O4 0.000000 0.285830 0.723707
O O5 0.531972 0.128825 0.773725
O O6 0.661234 0.185982 0.743266
O O7 0.593052 0.062751 0.752832
O O8 0.602416 0.129856 0.000000
O O9 0.506266 0.720876 0.754155
O O10 0.531163 0.673268 0.000000
O O11 0.412886 0.412886 0.500000
O O12 0.342755 0.342755 0.724433
O O13 0.595158 0.839111 0.743411
O O14 0.714703 0.933932 0.754159
O O15 0.661078 0.862444 0.000000
O O16 0.000000 0.728936 0.500000
O O17 0.787625 0.523367 0.500000
#
# Coordination Sequence:
#
# PCOD9586499 Si02
#       7
#    12  12  12   6  12   6  12
#     4  10  21  37  57  81 110 146 181 219 265 314
#     4  11  23  38  56  78 106 139 178 226 277 332
#     4  10  22  38  56  77 102 138 180 226 275 325
#     4  11  23  35  55  81 108 142 176 221 274 327
#     4  11  21  34  56  82 110 143 177 217 263 315
#     4  11  21  35  55  83 114 146 178 217 264 321
#     4  11  21  36  56  76 101 135 175 222 275 328
#
# _framework density 16.789214999999999
#
# number of rings (size 3 to 8) (size 9 to 14) (size 15 to 20)
#    0.000    1.333    1.667    7.000    1.167    4.667 
#    1.000    0.000    0.000    0.000    0.000    0.000 
#    0.833    0.000    1.500    0.000    1.500    0.000 
#
# Total GULP energy -402353.284915 kJ/mol
# GULP energy per Si atom -5588.240068 kJ/mol
# Density = 1.675100 g / cm^3
# Si number density = 16.789215 Si / 1000 Ang^3
#
#
#
# Elastic Constant Matrix: (Units=GPa)
#
#
# Indices 1 2 3 4 5 6 
#
# 1 88.4958 49.7720 28.6642 0.0000 0.0000 0.0000
# 2 49.7720 88.4958 28.6642 0.0000 0.0000 0.0000
# 3 28.6642 28.6642 62.3764 0.0000 0.0000 0.0000
# 4 0.0000 0.0000 0.0000 28.0235 0.0000 0.0000
# 5 0.0000 0.0000 0.0000 0.0000 28.0235 0.0000
# 6 0.0000 0.0000 0.0000 0.0000 0.0000 19.3619
#
#
#
# Elastic Compliance Matrix: (Units=1/GPa)
#
#
# Indices 1 2 3 4 5 6 
#
# 1 0.017379 -0.008445 -0.004106 0.000000 0.000000 0.000000
# 2 -0.008445 0.017379 -0.004106 0.000000 0.000000 0.000000
# 3 -0.004106 -0.004106 0.019805 0.000000 0.000000 0.000000
# 4 0.000000 0.000000 0.000000 0.035684 0.000000 0.000000
# 5 0.000000 0.000000 0.000000 0.000000 0.035684 0.000000
# 6 0.000000 0.000000 0.000000 0.000000 0.000000 0.051648
#
#
# Mechanical properties :
#
#
# Convention : Reuss Voigt Hill
#
# Bulk Modulus (GPa) = 47.05579 50.39653 48.72616
# Shear Modulus (GPa) = 22.93825 23.89962 23.41894
#
# Velocity S-wave (km/s) = 3.70029 3.77704 3.73886
# Velocity P-wave (km/s) = 6.80768 7.00740 6.90826
#
# Compressibility (1/GPa) = 0.02125137
#
# Stress axis : x y z
#
# Youngs Moduli (GPa) = 57.53979 57.53979 50.49170
#
# Poissons Ratio (x) = 0.48590 0.20731
# Poissons Ratio (y) = 0.48590 0.20731
# Poissons Ratio (z) = 0.23625 0.23625
#
# Static dielectric constant tensor:
#      x y z
#    x 1.555240 0.000000 0.000000 
#    y 0.000000 1.555240 0.000000 
#    z 0.000000 0.000000 1.559860 
# 
# From -- ./inp_files/1334.got.cif
#   From: 2010.05.17/outbox.cif.g08.bks.cpg/sg189_1_cif.got.tgz:1334.got - 2010.05.20 12:14:34.
