data_PCOD9586268
_publ_section_title
;
Structure prediction by ZEFSAII (Michael W. Deem and Ramdas Pophale) SiO2 
 PCOD9586268
Probable space group: P -6 2 M
;
_chemical_formula_sum "Si O2"
_cell_formula_units_Z 84
_cell_length_a 18.733900
_cell_length_b 18.733900
_cell_length_c 14.145830
_cell_angle_alpha 90.000000
_cell_angle_beta 90.000000
_cell_angle_gamma 120.000000
_cell_volume 4299.475333
_symmetry_space_group_name_H-M "P -6 2 M"
_symmetry_group_IT_number 189
_symmetry_cell_setting 'hexagonal'
loop_
_space_group_symop_operation_xyz
x,y,z
-x+y,-x,-z
-y,x-y,z
x,y,-z
-x+y,-x,z
-y,x-y,-z
x-y,-y,-z
-x,-x+y,-z
y,x,-z
y,x,z
x-y,-y,z
-x,-x+y,z
loop_
_atom_site_type_symbol
_atom_site_label
_atom_site_fract_x
_atom_site_fract_y
_atom_site_fract_z
Si Si1 0.246064 0.902492 0.886439
Si Si2 0.906285 0.767510 0.602761
Si Si3 0.809867 0.903798 0.811795
Si Si4 0.461515 0.088512 0.613068
Si Si5 0.487010 0.392555 0.730150
Si Si6 0.803711 0.572226 0.609708
Si Si7 0.596329 0.495751 0.890454
O O1 0.155389 0.870376 0.844280
O O2 0.309950 0.871523 0.858916
O O3 0.294278 0.000000 0.863223
O O4 0.238879 0.894775 0.000000
O O5 0.894039 0.796913 0.500000
O O6 0.898672 0.808443 0.697750
O O7 0.846072 0.670652 0.608031
O O8 0.000000 0.786126 0.603524
O O9 0.865173 0.865173 0.848586
O O10 0.849968 0.000000 0.838229
O O11 0.462759 0.087665 0.500000
O O12 0.541349 0.091040 0.654840
O O13 0.459330 0.169653 0.639073
O O14 0.384470 0.000000 0.644434
O O15 0.414462 0.414462 0.745707
O O16 0.454462 0.304489 0.683744
O O17 0.543414 0.417403 0.824139
O O18 0.807074 0.546589 0.500000
O O19 0.547556 0.547556 0.885733
O O20 0.597741 0.474480 0.000000
#
# Coordination Sequence:
#
# PCOD9586268 Si02
#       7
#    12  12  12  12  12  12  12
#     4   8  15  29  49  73 102 137 178 228 288 353
#     4   9  19  34  49  67  95 136 185 232 284 347
#     4  10  20  32  49  73 104 143 193 253 311 361
#     4   9  19  34  51  78 116 153 188 225 269 333
#     4  10  19  32  56  83 108 143 185 231 287 344
#     4  10  20  34  53  78 110 146 181 226 279 333
#     4   8  15  29  51  80 109 138 179 229 280 343
#
# _framework density 19.537267
#
# number of rings (size 3 to 8) (size 9 to 14) (size 15 to 20)
#    0.000    2.857    0.000    1.857    2.000    2.571 
#    0.857    1.429    0.000    3.429    0.000    2.000 
#    0.000    0.000    0.000    0.000    0.000    0.000 
#
# Total GULP energy -467936.280234 kJ/mol
# GULP energy per Si atom -5570.670003 kJ/mol
# Density = 1.949280 g / cm^3
# Si number density = 19.537267 Si / 1000 Ang^3
#
#
#
# Elastic Constant Matrix: (Units=GPa)
#
#
# Indices 1 2 3 4 5 6 
#
# 1 40.1734 18.2467 20.0806 0.0000 0.0000 0.0000
# 2 18.2467 40.1734 20.0806 0.0000 0.0000 0.0000
# 3 20.0806 20.0806 61.6957 0.0000 0.0000 0.0000
# 4 0.0000 0.0000 0.0000 23.0619 0.0000 0.0000
# 5 0.0000 0.0000 0.0000 0.0000 23.0619 0.0000
# 6 0.0000 0.0000 0.0000 0.0000 0.0000 10.9633
#
#
#
# Elastic Compliance Matrix: (Units=1/GPa)
#
#
# Indices 1 2 3 4 5 6 
#
# 1 0.033829 -0.011778 -0.007177 0.000000 0.000000 0.000000
# 2 -0.011778 0.033829 -0.007177 0.000000 0.000000 0.000000
# 3 -0.007177 -0.007177 0.020881 0.000000 0.000000 0.000000
# 4 0.000000 0.000000 0.000000 0.043362 0.000000 0.000000
# 5 0.000000 0.000000 0.000000 0.000000 0.043362 0.000000
# 6 0.000000 0.000000 0.000000 0.000000 0.000000 0.091213
#
#
# Mechanical properties :
#
#
# Convention : Reuss Voigt Hill
#
# Bulk Modulus (GPa) = 27.56758 28.76204 28.16481
# Shear Modulus (GPa) = 15.11347 16.99306 16.05326
#
# Velocity S-wave (km/s) = 2.78433 2.95240 2.86960
# Velocity P-wave (km/s) = 4.94748 5.13574 5.04249
#
# Compressibility (1/GPa) = 0.03627449
#
# Stress axis : x y z
#
# Youngs Moduli (GPa) = 29.56043 29.56043 47.89112
#
# Poissons Ratio (x) = 0.34815 0.34373
# Poissons Ratio (y) = 0.34815 0.34373
# Poissons Ratio (z) = 0.21216 0.21216
#
# Static dielectric constant tensor:
#      x y z
#    x 1.692020 0.000000 0.000000 
#    y 0.000000 1.692020 0.000000 
#    z 0.000000 0.000000 1.730800 
# 
# From -- ./inp_files/2831.got.cif
#   From: 2010.05.17/outbox.cif.g08.bks.cpg/sg189_2_cif.got.tgz:2831.got - 2010.05.20 12:14:34.
