data_PCOD9586773
_publ_section_title
;
Structure prediction by ZEFSAII (Michael W. Deem and Ramdas Pophale) SiO2 
 PCOD9586773
Probable space group: P -6 2 C
;
_chemical_formula_sum "Si O2"
_cell_formula_units_Z 72
_cell_length_a 24.296531
_cell_length_b 24.296531
_cell_length_c 8.738447
_cell_angle_alpha 90.000000
_cell_angle_beta 90.000000
_cell_angle_gamma 120.000000
_cell_volume 4467.385489
_symmetry_space_group_name_H-M "P -6 2 C"
_symmetry_group_IT_number 190
_symmetry_cell_setting 'hexagonal'
loop_
_space_group_symop_operation_xyz
x,y,z
-x+y,-x,1/2-z
-y,x-y,z
x,y,1/2-z
-x+y,-x,z
-y,x-y,1/2-z
x-y,-y,-z
-x,-x+y,-z
y,x,-z
y,x,1/2+z
x-y,-y,1/2+z
-x,-x+y,1/2+z
loop_
_atom_site_type_symbol
_atom_site_label
_atom_site_fract_x
_atom_site_fract_y
_atom_site_fract_z
Si Si1 0.597638 0.402864 0.565569
Si Si2 0.263808 0.738427 0.933143
Si Si3 0.931965 0.069744 0.432727
Si Si4 0.930925 0.527766 0.933120
Si Si5 0.147202 0.743953 0.065968
Si Si6 0.804432 0.070017 0.066594
O O1 0.601573 0.401633 0.750000
O O2 0.571506 0.331774 0.502053
O O3 0.665612 0.449727 0.494466
O O4 0.543415 0.420263 0.523735
O O5 0.262771 0.735481 0.750000
O O6 0.213899 0.758715 0.993755
O O7 0.935928 0.067309 0.250000
O O8 0.875423 0.084155 0.470699
O O9 0.000000 0.119377 0.500000
O O10 0.909704 0.000000 0.500000
O O11 0.935383 0.529842 0.750000
O O12 0.902774 0.573397 0.978330
O O13 0.000000 0.552433 0.000000
O O14 0.152500 0.746799 0.250000
O O15 0.120237 0.787705 0.005067
O O16 0.797786 0.068590 0.250000
O O17 0.757027 0.000000 0.000000
#
# Coordination Sequence:
#
# PCOD9586773 Si02
#       6
#    12  12  12  12  12  12
#     4  10  20  35  51  71 101 135 165 198 245 298
#     4  11  21  33  51  76 101 129 166 207 247 290
#     4  10  20  33  50  72 100 131 165 203 248 296
#     4   9  19  32  49  72  98 128 161 195 237 285
#     4  10  20  34  51  73 101 134 165 199 246 297
#     4  10  20  33  50  74 101 131 165 204 246 294
#
# _framework density 16.116810000000001
#
# number of rings (size 3 to 8) (size 9 to 14) (size 15 to 20)
#    0.000    2.000    0.000    5.500    0.000    7.333 
#    0.000    0.000    0.000    1.000    0.000    7.000 
#    0.000    0.000    0.000    0.000    0.000    0.000 
#
# Total GULP energy -401961.588301 kJ/mol
# GULP energy per Si atom -5582.799838 kJ/mol
# Density = 1.608013 g / cm^3
# Si number density = 16.116810 Si / 1000 Ang^3
#
#
#
# Elastic Constant Matrix: (Units=GPa)
#
#
# Indices 1 2 3 4 5 6 
#
# 1 117.6260 76.2747 49.9099 0.0000 0.0000 0.0000
# 2 76.2747 117.6260 49.9099 0.0000 0.0000 0.0000
# 3 49.9099 49.9099 77.8049 0.0000 0.0000 0.0000
# 4 0.0000 0.0000 0.0000 30.1521 0.0000 0.0000
# 5 0.0000 0.0000 0.0000 0.0000 30.1521 0.0000
# 6 0.0000 0.0000 0.0000 0.0000 0.0000 20.6756
#
#
#
# Elastic Compliance Matrix: (Units=1/GPa)
#
#
# Indices 1 2 3 4 5 6 
#
# 1 0.015942 -0.008241 -0.004939 0.000000 0.000000 0.000000
# 2 -0.008241 0.015942 -0.004939 0.000000 0.000000 0.000000
# 3 -0.004939 -0.004939 0.019190 0.000000 0.000000 0.000000
# 4 0.000000 0.000000 0.000000 0.033165 0.000000 0.000000
# 5 0.000000 0.000000 0.000000 0.000000 0.033165 0.000000
# 6 0.000000 0.000000 0.000000 0.000000 0.000000 0.048366
#
#
# Mechanical properties :
#
#
# Convention : Reuss Voigt Hill
#
# Bulk Modulus (GPa) = 67.42088 73.91620 70.66854
# Shear Modulus (GPa) = 24.15997 25.32679 24.74338
#
# Velocity S-wave (km/s) = 3.87596 3.96845 3.92248
# Velocity P-wave (km/s) = 7.87110 8.18294 8.02854
#
# Compressibility (1/GPa) = 0.01483220
#
# Stress axis : x y z
#
# Youngs Moduli (GPa) = 62.72914 62.72914 52.11145
#
# Poissons Ratio (x) = 0.51698 0.25740
# Poissons Ratio (y) = 0.51698 0.25740
# Poissons Ratio (z) = 0.30984 0.30984
#
# Static dielectric constant tensor:
#      x y z
#    x 1.525650 0.000000 0.000000 
#    y 0.000000 1.525650 0.000000 
#    z 0.000000 0.000000 1.537990 
# 
# From -- ./inp_files/1199.got.cif
#   From: 2010.05.17/outbox.cif.g08.bks.cpg/sg190_1_cif.got.tgz:1199.got - 2010.05.20 12:16:56.
