data_PCOD9586189
_publ_section_title
;
Structure prediction by ZEFSAII (Michael W. Deem and Ramdas Pophale) SiO2 
 PCOD9586189
Probable space group: P -6 2 M
;
_chemical_formula_sum "Si O2"
_cell_formula_units_Z 72
_cell_length_a 24.741444
_cell_length_b 24.741444
_cell_length_c 7.812050
_cell_angle_alpha 90.000000
_cell_angle_beta 90.000000
_cell_angle_gamma 120.000000
_cell_volume 4141.386200
_symmetry_space_group_name_H-M "P -6 2 M"
_symmetry_group_IT_number 189
_symmetry_cell_setting 'hexagonal'
loop_
_space_group_symop_operation_xyz
x,y,z
-x+y,-x,-z
-y,x-y,z
x,y,-z
-x+y,-x,z
-y,x-y,-z
x-y,-y,-z
-x,-x+y,-z
y,x,-z
y,x,z
x-y,-y,z
-x,-x+y,z
loop_
_atom_site_type_symbol
_atom_site_label
_atom_site_fract_x
_atom_site_fract_y
_atom_site_fract_z
Si Si1 0.188974 0.258671 0.703612
Si Si2 0.142775 0.406459 0.293657
Si Si3 0.859726 0.597033 0.796148
Si Si4 0.928400 0.525143 0.793807
Si Si5 0.071483 0.475619 0.705790
Si Si6 0.191860 0.929218 0.709660
O O1 0.181995 0.247720 0.500000
O O2 0.219340 0.219340 0.776041
O O3 0.234682 0.332616 0.728186
O O4 0.121375 0.243889 0.769540
O O5 0.140876 0.406188 0.500000
O O6 0.212706 0.424546 0.244694
O O7 0.116017 0.450038 0.230194
O O8 0.097792 0.334648 0.238017
O O9 0.885129 0.552340 0.730984
O O10 0.866534 0.600966 0.000000
O O11 0.907538 0.454364 0.747069
O O12 0.000000 0.567784 0.731832
O O13 0.929964 0.528616 0.000000
O O14 0.069007 0.469794 0.500000
O O15 0.000000 0.433477 0.769732
O O16 0.191417 0.929230 0.500000
O O17 0.219009 0.000000 0.766392
#
# Coordination Sequence:
#
# PCOD9586189 Si02
#       6
#    12  12  12  12  12  12
#     4   9  17  28  43  64  88 115 148 184 221 261
#     4   9  17  29  45  66  90 114 142 178 218 259
#     4  10  19  30  45  65  89 118 149 180 218 262
#     4   9  18  31  45  63  89 118 145 176 216 259
#     4   9  17  29  47  70  92 115 144 177 215 261
#     4   8  13  23  41  62  84 112 142 172 210 256
#
# _framework density 17.385482
#
# number of rings (size 3 to 8) (size 9 to 14) (size 15 to 20)
#    0.000    3.000    0.000    2.500    0.000    5.000 
#    0.000    1.667    0.000   13.000    0.000    2.333 
#    0.000    0.000    0.000    0.500    0.000    2.667 
#
# Total GULP energy -401229.930508 kJ/mol
# GULP energy per Si atom -5572.637924 kJ/mol
# Density = 1.734591 g / cm^3
# Si number density = 17.385482 Si / 1000 Ang^3
#
#
#
# Elastic Constant Matrix: (Units=GPa)
#
#
# Indices 1 2 3 4 5 6 
#
# 1 148.4379 99.4140 2.4878 0.0000 0.0000 0.0000
# 2 99.4140 148.4379 2.4878 0.0000 0.0000 0.0000
# 3 2.4878 2.4878 19.7689 0.0000 0.0000 0.0000
# 4 0.0000 0.0000 0.0000 -15.6199 0.0000 0.0000
# 5 0.0000 0.0000 0.0000 0.0000 -15.6199 0.0000
# 6 0.0000 0.0000 0.0000 0.0000 0.0000 24.5120
#
#
#
# Elastic Compliance Matrix: (Units=1/GPa)
#
#
# Indices 1 2 3 4 5 6 
#
# 1 0.012222 -0.008177 -0.000509 0.000000 0.000000 0.000000
# 2 -0.008177 0.012222 -0.000509 0.000000 0.000000 0.000000
# 3 -0.000509 -0.000509 0.050713 0.000000 0.000000 0.000000
# 4 0.000000 0.000000 0.000000 -0.064021 0.000000 0.000000
# 5 0.000000 0.000000 0.000000 0.000000 -0.064021 0.000000
# 6 0.000000 0.000000 0.000000 0.000000 0.000000 0.040796
#
#
# Mechanical properties :
#
#
# Convention : Reuss Voigt Hill
#
# Bulk Modulus (GPa) = 17.61612 58.38044 37.99828
# Shear Modulus (GPa) = 198.23968 12.80477 105.52223
#
# Velocity S-wave (km/s) = 10.68988 2.71684 7.79919
# Velocity P-wave (km/s) = 12.74831 6.59504 10.14923
#
# Compressibility (1/GPa) = 0.05676620
#
# Stress axis : x y z
#
# Youngs Moduli (GPa) = 81.82275 81.82275 19.71900
#
# Poissons Ratio (x) = 0.66904 0.01004
# Poissons Ratio (y) = 0.66904 0.01004
# Poissons Ratio (z) = 0.04165 0.04165
#
# Static dielectric constant tensor:
#      x y z
#    x 1.591370 0.000000 0.000000 
#    y 0.000000 1.591370 0.000000 
#    z 0.000000 0.000000 1.637300 
# 
# From -- ./inp_files/1234.got.cif
#   From: 2010.05.17/outbox.cif.g08.bks.cpg/sg189_1_cif.got.tgz:1234.got - 2010.05.20 12:14:34.
