data_PCOD9586603
_publ_section_title
;
Structure prediction by ZEFSAII (Michael W. Deem and Ramdas Pophale) SiO2 
 PCOD9586603
Probable space group: P -6 2 C
;
_chemical_formula_sum "Si O2"
_cell_formula_units_Z 40
_cell_length_a 11.793663
_cell_length_b 11.793663
_cell_length_c 13.825050
_cell_angle_alpha 90.000000
_cell_angle_beta 90.000000
_cell_angle_gamma 120.000000
_cell_volume 1665.308773
_symmetry_space_group_name_H-M "P -6 2 C"
_symmetry_group_IT_number 190
_symmetry_cell_setting 'hexagonal'
loop_
_space_group_symop_operation_xyz
x,y,z
-x+y,-x,1/2-z
-y,x-y,z
x,y,1/2-z
-x+y,-x,z
-y,x-y,1/2-z
x-y,-y,-z
-x,-x+y,-z
y,x,-z
y,x,1/2+z
x-y,-y,1/2+z
-x,-x+y,1/2+z
loop_
_atom_site_type_symbol
_atom_site_label
_atom_site_fract_x
_atom_site_fract_y
_atom_site_fract_z
Si Si1 0.333334 0.666667 0.866872
Si Si2 0.584773 0.917785 0.138083
Si Si3 0.830957 0.127998 0.461180
Si Si4 0.425516 0.050828 0.364658
O O1 0.333334 0.666668 0.750000
O O2 0.191594 0.547874 0.895159
O O3 0.576396 0.875881 0.250000
O O4 0.465393 0.942091 0.113905
O O5 0.605716 0.838051 0.053159
O O6 0.716826 0.059272 0.121357
O O7 0.949526 0.251217 0.411827
O O8 0.834453 0.000000 0.500000
O O9 0.412383 0.049699 0.250000
#
# Coordination Sequence:
#
# PCOD9586603 Si02
#       4
#     4  12  12  12
#     4   9  12  15  30  54  70  77 112 171 207 225
#     4   8  15  24  34  50  71  95 124 163 211 253
#     4   8  16  22  34  55  76  98 116 173 225 259
#     4  10  14  21  37  55  69  90 128 171 210 244
#
# _framework density 24.019569000000001
#
# number of rings (size 3 to 8) (size 9 to 14) (size 15 to 20)
#    1.800    1.200    3.000    0.900    0.000    0.000 
#    0.000    0.000    0.000    9.000    0.000    0.000 
#    0.000    0.000    0.000    0.000    0.000    0.000 
#
# Total GULP energy -222798.336517 kJ/mol
# GULP energy per Si atom -5569.958413 kJ/mol
# Density = 2.396490 g / cm^3
# Si number density = 24.019569 Si / 1000 Ang^3
#
#
#
# Elastic Constant Matrix: (Units=GPa)
#
#
# Indices 1 2 3 4 5 6 
#
# 1 79.1955 23.6820 35.4807 0.0000 0.0000 0.0000
# 2 23.6820 79.1956 35.4808 0.0000 0.0000 0.0000
# 3 35.4807 35.4808 138.6503 0.0000 0.0000 0.0000
# 4 0.0000 0.0000 0.0000 28.2238 0.0000 0.0000
# 5 0.0000 0.0000 0.0000 0.0000 28.2238 0.0000
# 6 0.0000 0.0000 0.0000 0.0000 0.0000 27.7568
#
#
#
# Elastic Compliance Matrix: (Units=1/GPa)
#
#
# Indices 1 2 3 4 5 6 
#
# 1 0.014909 -0.003105 -0.003021 0.000000 0.000000 0.000000
# 2 -0.003105 0.014909 -0.003021 0.000000 0.000000 0.000000
# 3 -0.003021 -0.003021 0.008758 0.000000 0.000000 0.000000
# 4 0.000000 0.000000 0.000000 0.035431 0.000000 0.000000
# 5 0.000000 0.000000 0.000000 0.000000 0.035431 0.000000
# 6 0.000000 0.000000 0.000000 0.000000 0.000000 0.036027
#
#
# Mechanical properties :
#
#
# Convention : Reuss Voigt Hill
#
# Bulk Modulus (GPa) = 49.30109 54.03649 51.66879
# Shear Modulus (GPa) = 29.32232 30.33408 29.82820
#
# Velocity S-wave (km/s) = 3.49774 3.55757 3.52778
# Velocity P-wave (km/s) = 6.07307 6.27860 6.17669
#
# Compressibility (1/GPa) = 0.02028353
#
# Stress axis : x y z
#
# Youngs Moduli (GPa) = 67.07482 67.07490 114.17692
#
# Poissons Ratio (x) = 0.20826 0.34488
# Poissons Ratio (y) = 0.20826 0.34488
# Poissons Ratio (z) = 0.20261 0.20261
#
# Static dielectric constant tensor:
#      x y z
#    x 1.951270 0.000000 0.000000 
#    y 0.000000 1.951270 0.000000 
#    z 0.000000 0.000000 1.898220 
# 
# From -- ./inp_files/2510.got.cif
#   From: 2010.05.17/outbox.cif.g08.bks.cpg/sg190_2_cif.got.tgz:2510.got - 2010.05.20 12:16:56.
