data_PCOD9586261
_publ_section_title
;
Structure prediction by ZEFSAII (Michael W. Deem and Ramdas Pophale) SiO2 
 PCOD9586261
Probable space group: P -6 2 M
;
_chemical_formula_sum "Si O2"
_cell_formula_units_Z 60
_cell_length_a 21.185128
_cell_length_b 21.185128
_cell_length_c 8.831535
_cell_angle_alpha 90.000000
_cell_angle_beta 90.000000
_cell_angle_gamma 120.000000
_cell_volume 3432.645943
_symmetry_space_group_name_H-M "P -6 2 M"
_symmetry_group_IT_number 189
_symmetry_cell_setting 'hexagonal'
loop_
_space_group_symop_operation_xyz
x,y,z
-x+y,-x,-z
-y,x-y,z
x,y,-z
-x+y,-x,z
-y,x-y,-z
x-y,-y,-z
-x,-x+y,-z
y,x,-z
y,x,z
x-y,-y,z
-x,-x+y,z
loop_
_atom_site_type_symbol
_atom_site_label
_atom_site_fract_x
_atom_site_fract_y
_atom_site_fract_z
Si Si1 0.646548 0.792062 0.180589
Si Si2 0.920688 0.920688 0.683364
Si Si3 0.813656 0.455265 0.319063
Si Si4 0.210811 0.521785 0.819132
Si Si5 0.707553 0.084443 0.317890
Si Si6 0.000000 0.223339 0.682133
O O1 0.564196 0.728141 0.216491
O O2 0.651641 0.866339 0.239887
O O3 0.706564 0.778650 0.258076
O O4 0.655419 0.795043 0.000000
O O5 0.917583 0.917583 0.500000
O O6 0.849633 0.849633 0.738245
O O7 0.931524 0.000000 0.726636
O O8 0.808562 0.447104 0.500000
O O9 0.739974 0.450039 0.254931
O O10 0.823028 0.391720 0.245631
O O11 0.878045 0.536991 0.282228
O O12 0.218872 0.530060 0.000000
O O13 0.717989 0.088967 0.500000
O O14 0.667364 0.000000 0.273527
O O15 0.000000 0.223329 0.500000
#
# Coordination Sequence:
#
# PCOD9586261 Si02
#       6
#    12   6  12  12  12   6
#     4  10  22  38  55  77 111 148 184 225 269 327
#     4   7  14  31  53  79 107 130 163 212 259 311
#     4  10  19  32  54  80 108 138 178 230 279 322
#     4  10  20  35  53  75 107 146 186 223 271 329
#     4   9  19  37  58  81 109 140 180 227 275 327
#     4  11  21  35  59  85 109 144 183 222 275 327
#
# _framework density 17.479227999999999
#
# number of rings (size 3 to 8) (size 9 to 14) (size 15 to 20)
#    0.200    2.200    0.000    2.500    0.000    4.400 
#    1.800    2.000    0.000    1.800    0.000    0.000 
#    0.000    0.000    0.000    0.000    0.000    0.000 
#
# Total GULP energy -334685.122010 kJ/mol
# GULP energy per Si atom -5578.085367 kJ/mol
# Density = 1.743944 g / cm^3
# Si number density = 17.479228 Si / 1000 Ang^3
#
#
#
# Elastic Constant Matrix: (Units=GPa)
#
#
# Indices 1 2 3 4 5 6 
#
# 1 129.9833 97.1195 55.1096 0.0000 0.0000 0.0000
# 2 97.1195 129.9833 55.1096 0.0000 0.0000 0.0000
# 3 55.1096 55.1096 48.9362 0.0000 0.0000 0.0000
# 4 0.0000 0.0000 0.0000 25.7182 0.0000 0.0000
# 5 0.0000 0.0000 0.0000 0.0000 25.7182 0.0000
# 6 0.0000 0.0000 0.0000 0.0000 0.0000 16.4319
#
#
#
# Elastic Compliance Matrix: (Units=1/GPa)
#
#
# Indices 1 2 3 4 5 6 
#
# 1 0.020070 -0.010359 -0.010936 0.000000 0.000000 0.000000
# 2 -0.010359 0.020070 -0.010936 0.000000 0.000000 0.000000
# 3 -0.010936 -0.010936 0.045065 0.000000 0.000000 0.000000
# 4 0.000000 0.000000 0.000000 0.038883 0.000000 0.000000
# 5 0.000000 0.000000 0.000000 0.000000 0.038883 0.000000
# 6 0.000000 0.000000 0.000000 0.000000 0.000000 0.060857
#
#
# Mechanical properties :
#
#
# Convention : Reuss Voigt Hill
#
# Bulk Modulus (GPa) = 48.20702 80.39778 64.30240
# Shear Modulus (GPa) = 16.93748 20.34461 18.64104
#
# Velocity S-wave (km/s) = 3.11626 3.41534 3.26923
# Velocity P-wave (km/s) = 6.37084 7.85168 7.14970
#
# Compressibility (1/GPa) = 0.02074387
#
# Stress axis : x y z
#
# Youngs Moduli (GPa) = 49.82643 49.82643 22.18997
#
# Poissons Ratio (x) = 0.51615 0.24266
# Poissons Ratio (y) = 0.51615 0.24266
# Poissons Ratio (z) = 0.54489 0.54489
#
# Static dielectric constant tensor:
#      x y z
#    x 1.580590 0.000000 0.000000 
#    y 0.000000 1.580590 0.000000 
#    z 0.000000 0.000000 1.584040 
# 
# From -- ./inp_files/942.got.cif
#   From: 2010.05.17/outbox.cif.g08.bks.cpg/sg189_1_cif.got.tgz:942.got - 2010.05.20 12:14:34.
