data_PCOD9586938
_publ_section_title
;
Structure prediction by ZEFSAII (Michael W. Deem and Ramdas Pophale) SiO2 
 PCOD9586938
Probable space group: P -6 2 C
;
_chemical_formula_sum "Si O2"
_cell_formula_units_Z 66
_cell_length_a 21.525333
_cell_length_b 21.525333
_cell_length_c 10.133970
_cell_angle_alpha 90.000000
_cell_angle_beta 90.000000
_cell_angle_gamma 120.000000
_cell_volume 4066.399128
_symmetry_space_group_name_H-M "P -6 2 C"
_symmetry_group_IT_number 190
_symmetry_cell_setting 'hexagonal'
loop_
_space_group_symop_operation_xyz
x,y,z
-x+y,-x,1/2-z
-y,x-y,z
x,y,1/2-z
-x+y,-x,z
-y,x-y,1/2-z
x-y,-y,-z
-x,-x+y,-z
y,x,-z
y,x,1/2+z
x-y,-y,1/2+z
-x,-x+y,1/2+z
loop_
_atom_site_type_symbol
_atom_site_label
_atom_site_fract_x
_atom_site_fract_y
_atom_site_fract_z
Si Si1 0.439301 0.221568 0.459497
Si Si2 0.066443 0.654268 0.899600
Si Si3 0.680171 0.615809 0.395553
Si Si4 0.283895 0.569916 0.750000
Si Si5 0.742924 0.243586 0.750000
Si Si6 0.168687 0.575137 0.250000
Si Si7 0.444356 0.915465 0.978793
O O1 0.401526 0.267938 0.427201
O O2 0.386632 0.138541 0.424811
O O3 0.514438 0.255528 0.374296
O O4 0.457676 0.227475 0.614349
O O5 0.039989 0.647015 0.750000
O O6 0.102188 0.603554 0.915436
O O7 0.000000 0.628064 0.000000
O O8 0.680836 0.643982 0.250000
O O9 0.654955 0.654955 0.500000
O O10 0.622352 0.530494 0.399228
O O11 0.256520 0.629043 0.750000
O O12 0.764689 0.326666 0.750000
O O13 0.658019 0.193218 0.750000
O O14 0.123150 0.540505 0.118601
O O15 0.491788 0.000000 0.000000
#
# Coordination Sequence:
#
# PCOD9586938 Si02
#       7
#    12  12  12   6   6   6  12
#     4  12  24  41  58  80 113 142 187 233 283 343
#     4  11  24  39  59  80 107 141 182 228 282 337
#     4  11  24  39  59  80 107 141 182 228 282 337
#     4  10  26  38  58  79 106 149 192 234 291 342
#     4  12  27  36  54  76 108 137 180 232 289 332
#     4  12  23  40  50  79 106 140 182 234 292 330
#     4  10  23  32  54  74 105 133 177 224 271 330
#
# _framework density 16.230575999999999
#
# number of rings (size 3 to 8) (size 9 to 14) (size 15 to 20)
#    0.182    0.727    5.455    0.727   17.818    0.000 
#    0.000    0.000    0.000    0.000    0.000    0.000 
#    0.000    0.000    0.000    0.545    0.000    3.091 
#
# Total GULP energy -368241.094691 kJ/mol
# GULP energy per Si atom -5579.410526 kJ/mol
# Density = 1.619363 g / cm^3
# Si number density = 16.230576 Si / 1000 Ang^3
#
#
#
# Elastic Constant Matrix: (Units=GPa)
#
#
# Indices 1 2 3 4 5 6 
#
# 1 69.2821 20.6341 29.2128 0.0000 0.0000 0.0000
# 2 20.6341 69.2821 29.2128 0.0000 0.0000 0.0000
# 3 29.2128 29.2128 154.9845 0.0000 0.0000 0.0000
# 4 0.0000 0.0000 0.0000 18.9349 0.0000 0.0000
# 5 0.0000 0.0000 0.0000 0.0000 18.9349 0.0000
# 6 0.0000 0.0000 0.0000 0.0000 0.0000 24.3240
#
#
#
# Elastic Compliance Matrix: (Units=1/GPa)
#
#
# Indices 1 2 3 4 5 6 
#
# 1 0.016615 -0.003941 -0.002389 0.000000 0.000000 0.000000
# 2 -0.003941 0.016615 -0.002389 0.000000 0.000000 0.000000
# 3 -0.002389 -0.002389 0.007353 0.000000 0.000000 0.000000
# 4 0.000000 0.000000 0.000000 0.052813 0.000000 0.000000
# 5 0.000000 0.000000 0.000000 0.000000 0.052813 0.000000
# 6 0.000000 0.000000 0.000000 0.000000 0.000000 0.041112
#
#
# Mechanical properties :
#
#
# Convention : Reuss Voigt Hill
#
# Bulk Modulus (GPa) = 43.20627 50.18535 46.69581
# Shear Modulus (GPa) = 23.53255 26.73802 25.13529
#
# Velocity S-wave (km/s) = 3.81187 4.06320 3.93954
# Velocity P-wave (km/s) = 6.78616 7.28012 7.03748
#
# Compressibility (1/GPa) = 0.02314479
#
# Stress axis : x y z
#
# Youngs Moduli (GPa) = 60.18750 60.18750 136.00262
#
# Poissons Ratio (x) = 0.23720 0.32489
# Poissons Ratio (y) = 0.23720 0.32489
# Poissons Ratio (z) = 0.14378 0.14378
#
# Static dielectric constant tensor:
#      x y z
#    x 1.551690 0.000000 0.000000 
#    y 0.000000 1.551690 0.000000 
#    z 0.000000 0.000000 1.590390 
# 
# From -- ./inp_files/1094.got.cif
#   From: 2010.05.17/outbox.cif.g08.bks.cpg/sg190_1_cif.got.tgz:1094.got - 2010.05.20 12:16:56.
