data_PCOD9586470
_publ_section_title
;
Structure prediction by ZEFSAII (Michael W. Deem and Ramdas Pophale) SiO2 
 PCOD9586470
Probable space group: P -6 2 M
;
_chemical_formula_sum "Si O2"
_cell_formula_units_Z 48
_cell_length_a 14.057463
_cell_length_b 14.057463
_cell_length_c 13.143596
_cell_angle_alpha 90.000000
_cell_angle_beta 90.000000
_cell_angle_gamma 120.000000
_cell_volume 2249.358775
_symmetry_space_group_name_H-M "P -6 2 M"
_symmetry_group_IT_number 189
_symmetry_cell_setting 'hexagonal'
loop_
_space_group_symop_operation_xyz
x,y,z
-x+y,-x,-z
-y,x-y,z
x,y,-z
-x+y,-x,z
-y,x-y,-z
x-y,-y,-z
-x,-x+y,-z
y,x,-z
y,x,z
x-y,-y,z
-x,-x+y,z
loop_
_atom_site_type_symbol
_atom_site_label
_atom_site_fract_x
_atom_site_fract_y
_atom_site_fract_z
Si Si1 0.559455 0.428723 0.500000
Si Si2 0.128229 0.797193 0.277444
Si Si3 0.130077 0.569192 0.283112
Si Si4 0.569486 0.698733 0.886496
Si Si5 0.199461 0.329790 0.500000
O O1 0.516387 0.516387 0.500000
O O2 0.616909 0.439174 0.607615
O O3 0.448135 0.310833 0.500000
O O4 0.133500 0.684434 0.277020
O O5 0.200594 0.859871 0.180778
O O6 0.171205 0.852990 0.388648
O O7 0.000000 0.759571 0.268118
O O8 0.175856 0.537696 0.185576
O O9 0.000000 0.480360 0.287179
O O10 0.614665 0.614665 0.898137
O O11 0.551809 0.729409 0.000000
O O12 0.242868 0.242868 0.500000
#
# Coordination Sequence:
#
# PCOD9586470 Si02
#       5
#     6  12  12  12   6
#     4   7  10  21  44  69  90 115 146 183 232 286
#     4   9  17  32  54  74  95 128 164 195 240 301
#     4   8  15  29  48  69  93 120 151 190 237 285
#     4  10  21  34  46  67 101 132 163 208 245 270
#     4   7  12  25  47  75  99 117 149 201 245 282
#
# _framework density 21.339413
#
# number of rings (size 3 to 8) (size 9 to 14) (size 15 to 20)
#    0.000    3.500    0.000    3.000    0.000    2.500 
#    1.500    4.375    0.000    0.500    0.000    0.000 
#    0.000    0.000    0.000    0.000    0.000    0.000 
#
# Total GULP energy -267285.343118 kJ/mol
# GULP energy per Si atom -5568.444648 kJ/mol
# Density = 2.129084 g / cm^3
# Si number density = 21.339413 Si / 1000 Ang^3
#
#
#
# Elastic Constant Matrix: (Units=GPa)
#
#
# Indices 1 2 3 4 5 6 
#
# 1 32.6811 -4.2352 19.4783 0.0000 0.0000 0.0000
# 2 -4.2352 32.6811 19.4783 0.0000 0.0000 0.0000
# 3 19.4783 19.4783 232.0735 0.0000 0.0000 0.0000
# 4 0.0000 0.0000 0.0000 17.6845 0.0000 0.0000
# 5 0.0000 0.0000 0.0000 0.0000 17.6845 0.0000
# 6 0.0000 0.0000 0.0000 0.0000 0.0000 18.4582
#
#
#
# Elastic Compliance Matrix: (Units=1/GPa)
#
#
# Indices 1 2 3 4 5 6 
#
# 1 0.033404 0.006316 -0.003334 0.000000 0.000000 0.000000
# 2 0.006316 0.033404 -0.003334 0.000000 0.000000 0.000000
# 3 -0.003334 -0.003334 0.004869 0.000000 0.000000 0.000000
# 4 0.000000 0.000000 0.000000 0.056547 0.000000 0.000000
# 5 0.000000 0.000000 0.000000 0.000000 0.056547 0.000000
# 6 0.000000 0.000000 0.000000 0.000000 0.000000 0.054177
#
#
# Mechanical properties :
#
#
# Convention : Reuss Voigt Hill
#
# Bulk Modulus (GPa) = 14.08977 40.76427 27.42702
# Shear Modulus (GPa) = 18.98917 28.27972 23.63445
#
# Velocity S-wave (km/s) = 2.98629 3.64433 3.33160
# Velocity P-wave (km/s) = 4.30205 6.07062 5.26118
#
# Compressibility (1/GPa) = 0.07097350
#
# Stress axis : x y z
#
# Youngs Moduli (GPa) = 29.93641 29.93641 205.39809
#
# Poissons Ratio (x) = -0.18907 0.68475
# Poissons Ratio (y) = -0.18907 0.68475
# Poissons Ratio (z) = 0.09980 0.09980
#
# Static dielectric constant tensor:
#      x y z
#    x 1.796710 0.000000 0.000000 
#    y 0.000000 1.796710 0.000000 
#    z 0.000000 0.000000 1.864650 
# 
# From -- ./inp_files/1774.got.cif
#   From: 2010.05.17/outbox.cif.g08.bks.cpg/sg189_1_cif.got.tgz:1774.got - 2010.05.20 12:14:34.
