data_PCOD9586053
_publ_section_title
;
Structure prediction by ZEFSAII (Michael W. Deem and Ramdas Pophale) SiO2 
 PCOD9586053
Probable space group: P -6 C 2
;
_chemical_formula_sum "Si O2"
_cell_formula_units_Z 48
_cell_length_a 17.374565
_cell_length_b 17.374565
_cell_length_c 9.583626
_cell_angle_alpha 90.000000
_cell_angle_beta 90.000000
_cell_angle_gamma 120.000000
_cell_volume 2505.465166
_symmetry_space_group_name_H-M "P -6 C 2"
_symmetry_group_IT_number 188
_symmetry_cell_setting 'hexagonal'
loop_
_space_group_symop_operation_xyz
x,y,z
-x+y,-x,1/2-z
-y,x-y,z
x,y,1/2-z
-x+y,-x,z
-y,x-y,1/2-z
-y,-x,-z
-x+y,y,-z
x,x-y,-z
-x+y,y,1/2+z
x,x-y,1/2+z
-y,-x,1/2+z
loop_
_atom_site_type_symbol
_atom_site_label
_atom_site_fract_x
_atom_site_fract_y
_atom_site_fract_z
Si Si1 0.992620 0.675116 0.088735
Si Si2 0.717529 0.448508 0.250000
Si Si3 0.790838 0.209162 0.000000
Si Si4 0.333115 0.831889 0.577199
Si Si5 0.854243 0.003234 0.413081
O O1 0.969714 0.647011 0.250000
O O2 0.070781 0.655705 0.048458
O O3 0.030946 0.780868 0.083232
O O4 0.897949 0.634009 0.011857
O O5 0.762142 0.386453 0.250000
O O6 0.748298 0.514173 0.375533
O O7 0.330917 0.820381 0.750000
O O8 0.243985 0.756016 0.500000
O O9 0.413591 0.827181 0.500000
O O10 0.881405 0.013868 0.250000
O O11 0.874345 0.937173 0.500000
O O12 0.906000 0.094001 0.500000
#
# Coordination Sequence:
#
# PCOD9586053 Si02
#       5
#    12   6   6  12  12
#     4  10  23  42  65  97 131 171 219 275 331 399
#     4  10  24  40  62  92 126 174 222 268 322 386
#     4  12  20  44  66  94 138 174 222 276 334 392
#     4  11  24  46  71 102 137 177 226 280 341 404
#     4  11  22  39  61  88 123 163 212 264 323 389
#
# _framework density 19.158118000000002
#
# number of rings (size 3 to 8) (size 9 to 14) (size 15 to 20)
#    0.250    1.000    2.500    3.500    0.000    2.000 
#    6.750    0.000    0.000    0.000    0.000    0.000 
#    0.000    0.000    0.000    0.000    0.000    0.000 
#
# Total GULP energy -267293.516067 kJ/mol
# GULP energy per Si atom -5568.614918 kJ/mol
# Density = 1.911451 g / cm^3
# Si number density = 19.158118 Si / 1000 Ang^3
#
#
#
# Elastic Constant Matrix: (Units=GPa)
#
#
# Indices 1 2 3 4 5 6 
#
# 1 125.9355 55.2816 58.1757 -0.0001 0.0000 0.0000
# 2 55.2816 125.9355 58.1757 0.0001 0.0000 0.0000
# 3 58.1757 58.1757 152.3412 0.0000 0.0000 0.0000
# 4 -0.0001 0.0001 0.0000 35.1290 0.0000 0.0000
# 5 0.0000 0.0000 0.0000 0.0000 35.1290 -0.0001
# 6 0.0000 0.0000 0.0000 0.0000 -0.0001 35.3269
#
#
#
# Elastic Compliance Matrix: (Units=1/GPa)
#
#
# Indices 1 2 3 4 5 6 
#
# 1 0.010732 -0.003421 -0.002792 0.000000 0.000000 0.000000
# 2 -0.003421 0.010732 -0.002792 0.000000 0.000000 0.000000
# 3 -0.002792 -0.002792 0.008696 0.000000 0.000000 0.000000
# 4 0.000000 0.000000 0.000000 0.028466 0.000000 0.000000
# 5 0.000000 0.000000 0.000000 0.000000 0.028466 0.000000
# 6 0.000000 0.000000 0.000000 0.000000 0.000000 0.028307
#
#
# Mechanical properties :
#
#
# Convention : Reuss Voigt Hill
#
# Bulk Modulus (GPa) = 82.29966 83.05312 82.67639
# Shear Modulus (GPa) = 36.37397 36.62228 36.49813
#
# Velocity S-wave (km/s) = 4.36204 4.37691 4.36948
# Velocity P-wave (km/s) = 8.27171 8.30594 8.28884
#
# Compressibility (1/GPa) = 0.01215072
#
# Stress axis : x y z
#
# Youngs Moduli (GPa) = 93.17820 93.17820 114.98920
#
# Poissons Ratio (x) = 0.31880 0.32103
# Poissons Ratio (y) = 0.31880 0.32103
# Poissons Ratio (z) = 0.26014 0.26014
#
# Static dielectric constant tensor:
#      x y z
#    x 1.684310 0.000000 0.000000 
#    y 0.000000 1.684310 0.000000 
#    z 0.000000 0.000000 1.643490 
# 
# From -- ./inp_files/384.got.cif
#   From: 2010.05.17/outbox.cif.g08.bks.cpg/sg188_1_cif.got.tgz:384.got - 2010.05.20 12:11:46.
