data_PCOD9586088
_publ_section_title
;
Structure prediction by ZEFSAII (Michael W. Deem and Ramdas Pophale) SiO2 
 PCOD9586088
Probable space group: P -6 C 2
;
_chemical_formula_sum "Si O2"
_cell_formula_units_Z 70
_cell_length_a 14.290367
_cell_length_b 14.290367
_cell_length_c 17.461380
_cell_angle_alpha 90.000000
_cell_angle_beta 90.000000
_cell_angle_gamma 120.000000
_cell_volume 3088.132742
_symmetry_space_group_name_H-M "P -6 C 2"
_symmetry_group_IT_number 188
_symmetry_cell_setting 'hexagonal'
loop_
_space_group_symop_operation_xyz
x,y,z
-x+y,-x,1/2-z
-y,x-y,z
x,y,1/2-z
-x+y,-x,z
-y,x-y,1/2-z
-y,-x,-z
-x+y,y,-z
x,x-y,-z
-x+y,y,1/2+z
x,x-y,1/2+z
-y,-x,1/2+z
loop_
_atom_site_type_symbol
_atom_site_label
_atom_site_fract_x
_atom_site_fract_y
_atom_site_fract_z
Si Si1 0.328536 0.449694 0.115517
Si Si2 0.959299 0.818405 0.579577
Si Si3 0.165025 0.115254 0.750000
Si Si4 0.333334 0.666667 0.342203
Si Si5 0.679233 0.839617 0.500000
Si Si6 0.559405 0.089663 0.158657
Si Si7 0.200044 0.280955 0.250000
Si Si8 0.767962 0.205264 0.588700
O O1 0.315651 0.552868 0.128890
O O2 0.278062 0.394379 0.035075
O O3 0.451670 0.480900 0.126046
O O4 0.258380 0.358417 0.178228
O O5 0.926203 0.852405 0.500000
O O6 0.959331 0.870503 0.660538
O O7 0.871907 0.691781 0.590986
O O8 0.075844 0.832926 0.562842
O O9 0.160831 0.229388 0.750000
O O10 0.226168 0.043718 0.750000
O O11 0.333334 0.666668 0.250000
O O12 0.548617 0.084376 0.250000
O O13 0.493904 0.142771 0.123450
O O14 0.684648 0.161118 0.134909
O O15 0.765779 0.234222 0.500000
#
# Coordination Sequence:
#
# PCOD9586088 Si02
#       8
#    12  12   6   4   6  12   6  12
#     4  12  27  49  80 109 164 207 269 339 401 481
#     4  11  26  46  73 107 151 197 256 324 392 484
#     4  12  25  42  80 106 150 204 258 312 404 474
#     4  12  27  52  77 115 150 211 278 334 399 487
#     4  12  26  50  72 108 152 206 260 328 410 470
#     4  12  25  45  78 113 156 203 256 328 393 484
#     4  12  23  48  72 118 152 204 262 336 394 484
#     4  11  25  46  71 107 150 200 252 313 398 475
#
# _framework density 22.667421000000001
#
# number of rings (size 3 to 8) (size 9 to 14) (size 15 to 20)
#    0.000    0.343    3.429    5.657    4.800    0.686 
#    0.514    0.000    0.000    0.000    0.000    0.000 
#    0.000    0.000    0.000    0.000    0.000    0.000 
#
# Total GULP energy -391019.544470 kJ/mol
# GULP energy per Si atom -5585.993492 kJ/mol
# Density = 2.261583 g / cm^3
# Si number density = 22.667421 Si / 1000 Ang^3
#
#
#
# Elastic Constant Matrix: (Units=GPa)
#
#
# Indices 1 2 3 4 5 6 
#
# 1 97.1076 11.2111 33.8243 -0.0004 0.0000 0.0007
# 2 11.2111 97.1061 33.8246 0.0006 0.0002 -0.0013
# 3 33.8243 33.8246 163.2210 0.0000 0.0000 0.0001
# 4 -0.0004 0.0006 0.0000 -14.3158 -0.0003 -0.0001
# 5 0.0000 0.0002 0.0000 -0.0003 -14.3150 0.0003
# 6 0.0007 -0.0013 0.0001 -0.0001 0.0003 42.9467
#
#
#
# Elastic Compliance Matrix: (Units=1/GPa)
#
#
# Indices 1 2 3 4 5 6 
#
# 1 0.011123 -0.000519 -0.002198 0.000000 0.000000 0.000000
# 2 -0.000519 0.011123 -0.002198 0.000000 0.000000 0.000000
# 3 -0.002198 -0.002198 0.007037 0.000000 0.000000 0.000000
# 4 0.000000 0.000000 0.000000 -0.069853 0.000001 0.000000
# 5 0.000000 0.000000 0.000000 0.000001 -0.069857 0.000001
# 6 0.000000 0.000000 0.000000 0.000000 0.000001 0.023285
#
#
# Mechanical properties :
#
#
# Convention : Reuss Voigt Hill
#
# Bulk Modulus (GPa) = 51.39742 57.23942 54.31842
# Shear Modulus (GPa) = -70.59380 21.43481 -24.57949
#
# Velocity S-wave (km/s) = -5.58667 3.07843 -3.29652
# Velocity P-wave (km/s) = 4.34635 6.15973 3.08639
#
# Compressibility (1/GPa) = 0.01945623
#
# Stress axis : x y z
#
# Youngs Moduli (GPa) = 89.90224 89.90057 142.09622
#
# Poissons Ratio (x) = 0.04663 0.31227
# Poissons Ratio (y) = 0.04664 0.31227
# Poissons Ratio (z) = 0.19757 0.19757
#
# Static dielectric constant tensor:
#      x y z
#    x 1.800390 0.000000 0.000000 
#    y 0.000000 1.800390 0.000000 
#    z 0.000000 0.000000 1.820090 
# 
# From -- ./inp_files/3267.got.cif
#   From: 2010.05.17/outbox.cif.g08.bks.cpg/sg188_2_cif.got.tgz:3267.got - 2010.05.20 12:11:46.
