data_PCOD9586119
_publ_section_title
;
Structure prediction by ZEFSAII (Michael W. Deem and Ramdas Pophale) SiO2 
 PCOD9586119
Probable space group: P -6 2 M
;
_chemical_formula_sum "Si O2"
_cell_formula_units_Z 64
_cell_length_a 22.040408
_cell_length_b 22.040408
_cell_length_c 7.290200
_cell_angle_alpha 90.000000
_cell_angle_beta 90.000000
_cell_angle_gamma 120.000000
_cell_volume 3066.968631
_symmetry_space_group_name_H-M "P -6 2 M"
_symmetry_group_IT_number 189
_symmetry_cell_setting 'hexagonal'
loop_
_space_group_symop_operation_xyz
x,y,z
-x+y,-x,-z
-y,x-y,z
x,y,-z
-x+y,-x,z
-y,x-y,-z
x-y,-y,-z
-x,-x+y,-z
y,x,-z
y,x,z
x-y,-y,z
-x,-x+y,z
loop_
_atom_site_type_symbol
_atom_site_label
_atom_site_fract_x
_atom_site_fract_y
_atom_site_fract_z
Si Si1 0.531454 0.196002 0.722846
Si Si2 0.333334 0.666668 0.721016
Si Si3 0.078730 0.159194 0.223182
Si Si4 0.438068 0.518486 0.275743
Si Si5 0.177776 0.720766 0.289592
Si Si6 0.080143 0.783966 0.221523
O O1 0.527604 0.192636 0.500000
O O2 0.609883 0.255543 0.776814
O O3 0.521213 0.121453 0.780346
O O4 0.483361 0.227924 0.787156
O O5 0.333334 0.666668 0.500000
O O6 0.106163 0.106163 0.276748
O O7 0.138517 0.236480 0.280006
O O8 0.000000 0.131681 0.285419
O O9 0.078130 0.159410 0.000000
O O10 0.437132 0.515860 0.500000
O O11 0.474498 0.474498 0.215028
O O12 0.357279 0.485397 0.213371
O O13 0.190848 0.708032 0.500000
O O14 0.133200 0.759792 0.286648
O O15 0.000000 0.730894 0.278698
O O16 0.081040 0.783420 0.000000
#
# Coordination Sequence:
#
# PCOD9586119 Si02
#       6
#    12   4  12  12  12  12
#     4   9  15  24  40  63  86 108 140 183 226 263
#     4   9  12  21  39  60  82 104 136 177 220 260
#     4   8  13  23  42  66  87 108 141 185 224 255
#     4   9  16  25  39  62  90 115 142 182 226 262
#     4  10  18  28  46  69  89 114 151 188 221 264
#     4   9  18  31  45  64  92 122 148 177 219 268
#
# _framework density 20.867509999999999
#
# number of rings (size 3 to 8) (size 9 to 14) (size 15 to 20)
#    0.000    3.000    1.875    1.875    0.000    1.875 
#    0.000    0.938    0.000    2.812    0.000    0.000 
#    0.000    1.500    0.000    0.000    0.000    0.000 
#
# Total GULP energy -357030.878626 kJ/mol
# GULP energy per Si atom -5578.607479 kJ/mol
# Density = 2.082002 g / cm^3
# Si number density = 20.867510 Si / 1000 Ang^3
#
#
#
# Elastic Constant Matrix: (Units=GPa)
#
#
# Indices 1 2 3 4 5 6 
#
# 1 165.0504 100.3279 0.3183 0.0000 -0.0001 0.0001
# 2 100.3279 165.0518 0.3183 0.0000 0.0000 0.0000
# 3 0.3183 0.3183 85.1417 0.0000 0.0000 0.0000
# 4 0.0000 0.0000 0.0000 1.3713 0.0000 0.0000
# 5 -0.0001 0.0000 0.0000 0.0000 1.3713 0.0000
# 6 0.0001 0.0000 0.0000 0.0000 0.0000 32.3614
#
#
#
# Elastic Compliance Matrix: (Units=1/GPa)
#
#
# Indices 1 2 3 4 5 6 
#
# 1 0.009609 -0.005841 -0.000014 0.000000 0.000001 0.000000
# 2 -0.005841 0.009609 -0.000014 0.000000 0.000000 0.000000
# 3 -0.000014 -0.000014 0.011745 0.000000 0.000000 0.000000
# 4 0.000000 0.000000 0.000000 0.729244 0.000008 0.000001
# 5 0.000001 0.000000 0.000000 0.000008 0.729236 0.000000
# 6 0.000000 0.000000 0.000000 0.000001 0.000000 0.030901
#
#
# Mechanical properties :
#
#
# Convention : Reuss Voigt Hill
#
# Bulk Modulus (GPa) = 52.01469 68.57479 60.29474
# Shear Modulus (GPa) = 3.24994 27.97276 15.61135
#
# Velocity S-wave (km/s) = 1.24932 3.66525 2.73814
# Velocity P-wave (km/s) = 5.20205 7.13059 6.24126
#
# Compressibility (1/GPa) = 0.01922534
#
# Stress axis : x y z
#
# Youngs Moduli (GPa) = 104.06523 104.06608 85.14092
#
# Poissons Ratio (x) = 0.60786 0.00120
# Poissons Ratio (y) = 0.60785 0.00120
# Poissons Ratio (z) = 0.00147 0.00147
#
# Static dielectric constant tensor:
#      x y z
#    x 1.723660 0.000000 0.000000 
#    y 0.000000 1.723660 0.000000 
#    z 0.000000 0.000000 1.842480 
# 
# From -- ./inp_files/2044.got.cif
#   From: 2010.05.17/outbox.cif.g08.bks.cpg/sg189_2_cif.got.tgz:2044.got - 2010.05.20 12:14:34.
