data_PCOD9586573
_publ_section_title
;
Structure prediction by ZEFSAII (Michael W. Deem and Ramdas Pophale) SiO2 
 PCOD9586573
Probable space group: P -6 2 M
;
_chemical_formula_sum "Si O2"
_cell_formula_units_Z 48
_cell_length_a 18.586104
_cell_length_b 18.586104
_cell_length_c 8.968551
_cell_angle_alpha 90.000000
_cell_angle_beta 90.000000
_cell_angle_gamma 120.000000
_cell_volume 2683.055397
_symmetry_space_group_name_H-M "P -6 2 M"
_symmetry_group_IT_number 189
_symmetry_cell_setting 'hexagonal'
loop_
_space_group_symop_operation_xyz
x,y,z
-x+y,-x,-z
-y,x-y,z
x,y,-z
-x+y,-x,z
-y,x-y,-z
x-y,-y,-z
-x,-x+y,-z
y,x,-z
y,x,z
x-y,-y,z
-x,-x+y,z
loop_
_atom_site_type_symbol
_atom_site_label
_atom_site_fract_x
_atom_site_fract_y
_atom_site_fract_z
Si Si1 0.000000 0.093635 0.673034
Si Si2 0.000000 0.243938 0.176370
Si Si3 0.673598 0.096739 0.821360
Si Si4 0.159967 0.398527 0.322845
Si Si5 0.901917 0.408004 0.822847
O O1 0.000000 0.117967 0.500000
O O2 0.000000 0.159770 0.782641
O O3 0.077579 0.077579 0.692879
O O4 0.081669 0.319624 0.248212
O O5 0.000000 0.256098 0.000000
O O6 0.755714 0.160622 0.735894
O O7 0.597691 0.113620 0.789979
O O8 0.639521 0.000000 0.784110
O O9 0.688167 0.105771 0.000000
O O10 0.154347 0.390987 0.500000
O O11 0.152390 0.477278 0.268880
O O12 0.000000 0.443517 0.793127
O O13 0.888966 0.390301 0.000000
#
# Coordination Sequence:
#
# PCOD9586573 Si02
#       5
#     6   6  12  12  12
#     4   8  18  38  60  82 115 154 189 240 306 358
#     4  12  24  38  60  86 117 158 207 250 284 346
#     4   9  20  40  64  88 115 153 199 242 289 348
#     4  12  24  37  58  90 123 156 194 243 299 352
#     4   9  18  37  64  87 112 151 195 240 286 342
#
# _framework density 17.890052000000001
#
# number of rings (size 3 to 8) (size 9 to 14) (size 15 to 20)
#    0.250    1.750    1.250    4.875    0.000    3.000 
#    1.500    2.500    0.000    0.000    0.000    0.000 
#    0.000    0.000    0.000    0.000    0.000    0.000 
#
# Total GULP energy -267958.042923 kJ/mol
# GULP energy per Si atom -5582.459228 kJ/mol
# Density = 1.784933 g / cm^3
# Si number density = 17.890052 Si / 1000 Ang^3
#
#
#
# Elastic Constant Matrix: (Units=GPa)
#
#
# Indices 1 2 3 4 5 6 
#
# 1 119.7377 74.6006 86.6491 0.0000 0.0000 0.0000
# 2 74.6006 119.7377 86.6491 0.0000 0.0000 0.0000
# 3 86.6491 86.6491 121.4750 0.0000 0.0000 0.0000
# 4 0.0000 0.0000 0.0000 -3.0279 0.0000 0.0000
# 5 0.0000 0.0000 0.0000 0.0000 -3.0279 0.0000
# 6 0.0000 0.0000 0.0000 0.0000 0.0000 22.5686
#
#
#
# Elastic Compliance Matrix: (Units=1/GPa)
#
#
# Indices 1 2 3 4 5 6 
#
# 1 0.018147 -0.004008 -0.010086 0.000000 0.000000 0.000000
# 2 -0.004008 0.018147 -0.010086 0.000000 0.000000 0.000000
# 3 -0.010086 -0.010086 0.022621 0.000000 0.000000 0.000000
# 4 0.000000 0.000000 0.000000 -0.330260 0.000000 0.000000
# 5 0.000000 0.000000 0.000000 0.000000 -0.330260 0.000000
# 6 0.000000 0.000000 0.000000 0.000000 0.000000 0.044309
#
#
# Mechanical properties :
#
#
# Convention : Reuss Voigt Hill
#
# Bulk Modulus (GPa) = 94.72851 95.19419 94.96135
# Shear Modulus (GPa) = -9.89280 10.83932 0.47326
#
# Velocity S-wave (km/s) = -2.35410 2.46414 0.51489
# Velocity P-wave (km/s) = 6.75842 7.83723 7.31774
#
# Compressibility (1/GPa) = 0.01055648
#
# Stress axis : x y z
#
# Youngs Moduli (GPa) = 55.10505 55.10505 44.20709
#
# Poissons Ratio (x) = 0.22084 0.44587
# Poissons Ratio (y) = 0.22084 0.44587
# Poissons Ratio (z) = 0.55578 0.55578
#
# Static dielectric constant tensor:
#      x y z
#    x 1.605950 0.000000 0.000000 
#    y 0.000000 1.605950 0.000000 
#    z 0.000000 0.000000 1.588030 
# 
# From -- ./inp_files/677.got.cif
#   From: 2010.05.17/outbox.cif.g08.bks.cpg/sg189_1_cif.got.tgz:677.got - 2010.05.20 12:14:34.
