data_PCOD9586994
_publ_section_title
;
Structure prediction by ZEFSAII (Michael W. Deem and Ramdas Pophale) SiO2 
 PCOD9586994
Probable space group: P -6 2 C
;
_chemical_formula_sum "Si O2"
_cell_formula_units_Z 40
_cell_length_a 11.589295
_cell_length_b 11.589295
_cell_length_c 16.456525
_cell_angle_alpha 90.000000
_cell_angle_beta 90.000000
_cell_angle_gamma 120.000000
_cell_volume 1914.180118
_symmetry_space_group_name_H-M "P -6 2 C"
_symmetry_group_IT_number 190
_symmetry_cell_setting 'hexagonal'
loop_
_space_group_symop_operation_xyz
x,y,z
-x+y,-x,1/2-z
-y,x-y,z
x,y,1/2-z
-x+y,-x,z
-y,x-y,1/2-z
x-y,-y,-z
-x,-x+y,-z
y,x,-z
y,x,1/2+z
x-y,-y,1/2+z
-x,-x+y,1/2+z
loop_
_atom_site_type_symbol
_atom_site_label
_atom_site_fract_x
_atom_site_fract_y
_atom_site_fract_z
Si Si1 0.434284 0.047070 0.908914
Si Si2 0.867630 0.153924 0.154186
Si Si3 0.000000 0.000000 0.096355
Si Si4 0.605142 0.888764 0.347314
O O1 0.302744 0.918533 0.874072
O O2 0.570446 0.090967 0.861542
O O3 0.410147 0.172759 0.897737
O O4 0.438841 0.000000 0.000000
O O5 0.855686 0.151450 0.250000
O O6 0.297573 0.268972 0.123459
O O7 0.979915 0.117801 0.129551
O O8 0.000000 0.000000 0.000000
O O9 0.618637 0.868322 0.250000
#
# Coordination Sequence:
#
# PCOD9586994 Si02
#       4
#    12  12   4  12
#     4  12  27  43  73 101 140 180 237 297 349 418
#     4  11  23  42  69  98 131 174 225 283 348 422
#     4  12  22  35  67 102 136 161 217 288 355 398
#     4  11  25  46  72  98 140 189 233 281 356 441
#
# _framework density 20.896675999999999
#
# number of rings (size 3 to 8) (size 9 to 14) (size 15 to 20)
#    0.000    0.600    3.000    5.100    4.200    0.000 
#    1.800    0.000    0.000    0.000    0.000    0.000 
#    0.000    0.000    0.000    0.000    0.000    0.000 
#
# Total GULP energy -223476.632325 kJ/mol
# GULP energy per Si atom -5586.915808 kJ/mol
# Density = 2.084911 g / cm^3
# Si number density = 20.896676 Si / 1000 Ang^3
#
#
#
# Elastic Constant Matrix: (Units=GPa)
#
#
# Indices 1 2 3 4 5 6 
#
# 1 82.1034 29.5882 -12.9961 0.0000 0.0000 0.0000
# 2 29.5882 82.1034 -12.9961 0.0000 0.0000 0.0000
# 3 -12.9961 -12.9961 24.3205 0.0000 0.0000 0.0000
# 4 0.0000 0.0000 0.0000 4.8985 0.0000 0.0000
# 5 0.0000 0.0000 0.0000 0.0000 4.8985 0.0000
# 6 0.0000 0.0000 0.0000 0.0000 0.0000 26.2576
#
#
#
# Elastic Compliance Matrix: (Units=1/GPa)
#
#
# Indices 1 2 3 4 5 6 
#
# 1 0.014633 -0.004409 0.005464 0.000000 0.000000 0.000000
# 2 -0.004409 0.014633 0.005464 0.000000 0.000000 0.000000
# 3 0.005464 0.005464 0.046957 0.000000 0.000000 0.000000
# 4 0.000000 0.000000 0.000000 0.204143 0.000000 0.000000
# 5 0.000000 0.000000 0.000000 0.000000 0.204143 0.000000
# 6 0.000000 0.000000 0.000000 0.000000 0.000000 0.038084
#
#
# Mechanical properties :
#
#
# Convention : Reuss Voigt Hill
#
# Bulk Modulus (GPa) = 11.20307 21.74662 16.47484
# Shear Modulus (GPa) = 9.27110 19.53968 14.40539
#
# Velocity S-wave (km/s) = 2.10862 3.06119 2.62842
# Velocity P-wave (km/s) = 3.36172 4.78789 4.13673
#
# Compressibility (1/GPa) = 0.08926127
#
# Stress axis : x y z
#
# Youngs Moduli (GPa) = 68.33678 68.33678 21.29613
#
# Poissons Ratio (x) = 0.30128 -0.11636
# Poissons Ratio (y) = 0.30128 -0.11636
# Poissons Ratio (z) = -0.37337 -0.37337
#
# Static dielectric constant tensor:
#      x y z
#    x 1.764070 0.000000 0.000000 
#    y 0.000000 1.764070 0.000000 
#    z 0.000000 0.000000 1.733180 
# 
# From -- ./inp_files/2488.got.cif
#   From: 2010.05.17/outbox.cif.g08.bks.cpg/sg190_2_cif.got.tgz:2488.got - 2010.05.20 12:16:56.
