data_PCOD9586631
_publ_section_title
;
Structure prediction by ZEFSAII (Michael W. Deem and Ramdas Pophale) SiO2 
 PCOD9586631
Probable space group: P -6 2 C
;
_chemical_formula_sum "Si O2"
_cell_formula_units_Z 64
_cell_length_a 14.124166
_cell_length_b 14.124166
_cell_length_c 19.537180
_cell_angle_alpha 90.000000
_cell_angle_beta 90.000000
_cell_angle_gamma 120.000000
_cell_volume 3375.344738
_symmetry_space_group_name_H-M "P -6 2 C"
_symmetry_group_IT_number 190
_symmetry_cell_setting 'hexagonal'
loop_
_space_group_symop_operation_xyz
x,y,z
-x+y,-x,1/2-z
-y,x-y,z
x,y,1/2-z
-x+y,-x,z
-y,x-y,1/2-z
x-y,-y,-z
-x,-x+y,-z
y,x,-z
y,x,1/2+z
x-y,-y,1/2+z
-x,-x+y,1/2+z
loop_
_atom_site_type_symbol
_atom_site_label
_atom_site_fract_x
_atom_site_fract_y
_atom_site_fract_z
Si Si1 0.286549 0.935227 0.325906
Si Si2 0.935228 0.648677 0.674094
Si Si3 0.551255 0.885520 0.030932
Si Si4 0.114480 0.448745 0.469068
Si Si5 0.000000 0.000000 0.583078
Si Si6 0.779818 0.889910 0.669972
O O1 0.329279 0.935046 0.250000
O O2 0.158304 0.841694 0.326315
O O3 0.338403 0.903096 0.387320
O O4 0.289185 0.048772 0.338181
O O5 0.935047 0.605766 0.750000
O O6 0.903096 0.564692 0.612680
O O7 0.048773 0.759586 0.661819
O O8 0.433497 0.866995 0.009224
O O9 0.564943 0.782472 0.013249
O O10 0.642986 0.000000 0.000000
O O11 0.000000 0.357013 0.500000
O O12 0.878635 0.939318 0.615984
O O13 0.000000 0.000000 0.500000
O O14 0.820091 0.910047 0.750000
#
# Coordination Sequence:
#
# PCOD9586631 Si02
#       6
#    12  12  12  12   4  12
#     4   9  18  32  52  77 105 141 185 229 279 337
#     4   9  18  32  52  77 105 141 185 229 279 337
#     4  10  22  39  59  83 114 151 190 235 285 340
#     4  10  22  39  59  83 114 151 190 235 285 340
#     4  12  22  26  40  72 112 158 196 228 262 323
#     4  10  18  32  48  68 108 154 186 222 280 343
#
# _framework density 18.961027000000001
#
# number of rings (size 3 to 8) (size 9 to 14) (size 15 to 20)
#    0.000    2.250    1.875    0.938    2.625    2.250 
#    0.000    0.000    0.000    2.625    0.000    0.000 
#    0.000    0.000    0.000    0.000    0.000    0.000 
#
# Total GULP energy -356858.584682 kJ/mol
# GULP energy per Si atom -5575.915386 kJ/mol
# Density = 1.891787 g / cm^3
# Si number density = 18.961027 Si / 1000 Ang^3
#
#
#
# Elastic Constant Matrix: (Units=GPa)
#
#
# Indices 1 2 3 4 5 6 
#
# 1 73.4226 47.9707 17.2021 0.0000 0.0000 0.0000
# 2 47.9707 73.4226 17.2021 0.0000 0.0000 0.0000
# 3 17.2021 17.2021 66.4770 0.0000 0.0000 0.0000
# 4 0.0000 0.0000 0.0000 19.4599 0.0000 0.0000
# 5 0.0000 0.0000 0.0000 0.0000 19.4599 0.0000
# 6 0.0000 0.0000 0.0000 0.0000 0.0000 12.7259
#
#
#
# Elastic Compliance Matrix: (Units=1/GPa)
#
#
# Indices 1 2 3 4 5 6 
#
# 1 0.024090 -0.015200 -0.002300 0.000000 0.000000 0.000000
# 2 -0.015200 0.024090 -0.002300 0.000000 0.000000 0.000000
# 3 -0.002300 -0.002300 0.016233 0.000000 0.000000 0.000000
# 4 0.000000 0.000000 0.000000 0.051388 0.000000 0.000000
# 5 0.000000 0.000000 0.000000 0.000000 0.051388 0.000000
# 6 0.000000 0.000000 0.000000 0.000000 0.000000 0.078580
#
#
# Mechanical properties :
#
#
# Convention : Reuss Voigt Hill
#
# Bulk Modulus (GPa) = 40.30441 42.00799 41.15620
# Shear Modulus (GPa) = 17.02765 19.05896 18.04331
#
# Velocity S-wave (km/s) = 2.99997 3.17387 3.08815
# Velocity P-wave (km/s) = 5.77082 5.96945 5.87097
#
# Compressibility (1/GPa) = 0.02481118
#
# Stress axis : x y z
#
# Youngs Moduli (GPa) = 41.51141 41.51141 61.60169
#
# Poissons Ratio (x) = 0.63098 0.14171
# Poissons Ratio (y) = 0.63098 0.14171
# Poissons Ratio (z) = 0.09549 0.09549
#
# Static dielectric constant tensor:
#      x y z
#    x 1.651020 0.000000 0.000000 
#    y 0.000000 1.651020 0.000000 
#    z 0.000000 0.000000 1.691880 
# 
# From -- ./inp_files/3678.got.cif
#   From: 2010.05.17/outbox.cif.g08.bks.cpg/sg190_2_cif.got.tgz:3678.got - 2010.05.20 12:16:56.
