data_PCOD9586821
_publ_section_title
;
Structure prediction by ZEFSAII (Michael W. Deem and Ramdas Pophale) SiO2 
 PCOD9586821
Probable space group: P -6 2 C
;
_chemical_formula_sum "Si O2"
_cell_formula_units_Z 52
_cell_length_a 12.886106
_cell_length_b 12.886106
_cell_length_c 18.749766
_cell_angle_alpha 90.000000
_cell_angle_beta 90.000000
_cell_angle_gamma 120.000000
_cell_volume 2696.310374
_symmetry_space_group_name_H-M "P -6 2 C"
_symmetry_group_IT_number 190
_symmetry_cell_setting 'hexagonal'
loop_
_space_group_symop_operation_xyz
x,y,z
-x+y,-x,1/2-z
-y,x-y,z
x,y,1/2-z
-x+y,-x,z
-y,x-y,1/2-z
x-y,-y,-z
-x,-x+y,-z
y,x,-z
y,x,1/2+z
x-y,-y,1/2+z
-x,-x+y,1/2+z
loop_
_atom_site_type_symbol
_atom_site_label
_atom_site_fract_x
_atom_site_fract_y
_atom_site_fract_z
Si Si1 0.309173 0.322082 0.831279
Si Si2 0.880783 0.738627 0.547141
Si Si3 0.060735 0.479774 0.166976
Si Si4 0.333334 0.666668 0.336871
Si Si5 0.228091 0.907463 0.908487
O O1 0.290343 0.277682 0.750000
O O2 0.314801 0.230805 0.886898
O O3 0.437037 0.441712 0.834624
O O4 0.199011 0.338483 0.857084
O O5 0.818831 0.809404 0.579822
O O6 0.788102 0.644818 0.489144
O O7 0.000000 0.814095 0.500000
O O8 0.065187 0.446933 0.250000
O O9 0.198441 0.565749 0.142390
O O10 0.982535 0.361187 0.121390
O O11 0.333334 0.666668 0.250000
#
# Coordination Sequence:
#
# PCOD9586821 Si02
#       5
#    12  12  12   4  12
#     4  10  21  38  61  92 128 165 210 267 317 372
#     4   9  20  40  61  84 121 164 204 261 315 372
#     4  10  20  36  63  94 126 163 213 265 317 376
#     4   9  18  33  60  90 120 165 208 272 325 360
#     4  10  20  39  60  88 124 172 204 254 314 386
#
# _framework density 19.285613000000001
#
# number of rings (size 3 to 8) (size 9 to 14) (size 15 to 20)
#    0.000    2.308    0.000    2.077    0.000    3.692 
#   49.846    0.000    5.077    0.000    0.000    0.000 
#    0.000    0.000    0.000    0.000    0.000    0.000 
#
# Total GULP energy -289810.996885 kJ/mol
# GULP energy per Si atom -5573.288402 kJ/mol
# Density = 1.924172 g / cm^3
# Si number density = 19.285613 Si / 1000 Ang^3
#
#
#
# Elastic Constant Matrix: (Units=GPa)
#
#
# Indices 1 2 3 4 5 6 
#
# 1 100.2259 55.2720 71.3215 0.0000 0.0000 -0.0001
# 2 55.2720 100.2256 71.3216 0.0000 0.0000 -0.0001
# 3 71.3215 71.3216 145.0873 0.0000 0.0000 0.0000
# 4 0.0000 0.0000 0.0000 36.1115 0.0000 0.0000
# 5 0.0000 0.0000 0.0000 0.0000 36.1115 0.0000
# 6 -0.0001 -0.0001 0.0000 0.0000 0.0000 22.4767
#
#
#
# Elastic Compliance Matrix: (Units=1/GPa)
#
#
# Indices 1 2 3 4 5 6 
#
# 1 0.016979 -0.005266 -0.005758 0.000000 0.000000 0.000000
# 2 -0.005266 0.016979 -0.005758 0.000000 0.000000 0.000000
# 3 -0.005758 -0.005758 0.012553 0.000000 0.000000 0.000000
# 4 0.000000 0.000000 0.000000 0.027692 0.000000 0.000000
# 5 0.000000 0.000000 0.000000 0.000000 0.027692 0.000000
# 6 0.000000 0.000000 0.000000 0.000000 0.000000 0.044490
#
#
# Mechanical properties :
#
#
# Convention : Reuss Voigt Hill
#
# Bulk Modulus (GPa) = 77.23374 82.37434 79.80404
# Shear Modulus (GPa) = 27.13494 28.78153 27.95824
#
# Velocity S-wave (km/s) = 3.75507 3.86733 3.81162
# Velocity P-wave (km/s) = 7.67692 7.92131 7.80007
#
# Compressibility (1/GPa) = 0.01294771
#
# Stress axis : x y z
#
# Youngs Moduli (GPa) = 58.89687 58.89658 79.66179
#
# Poissons Ratio (x) = 0.31016 0.45866
# Poissons Ratio (y) = 0.31016 0.45867
# Poissons Ratio (z) = 0.33911 0.33911
#
# Static dielectric constant tensor:
#      x y z
#    x 1.692730 0.000000 0.000000 
#    y 0.000000 1.692730 0.000000 
#    z 0.000000 0.000000 1.712550 
# 
# From -- ./inp_files/4196.got.cif
#   From: 2010.05.17/outbox.cif.g08.bks.cpg/sg190_3_cif.got.tgz:4196.got - 2010.05.20 12:16:56.
