data_PCOD9586901
_publ_section_title
;
Structure prediction by ZEFSAII (Michael W. Deem and Ramdas Pophale) SiO2 
 PCOD9586901
Probable space group: P -6 2 C
;
_chemical_formula_sum "Si O2"
_cell_formula_units_Z 84
_cell_length_a 15.933763
_cell_length_b 15.933763
_cell_length_c 18.264133
_cell_angle_alpha 90.000000
_cell_angle_beta 90.000000
_cell_angle_gamma 120.000000
_cell_volume 4015.747513
_symmetry_space_group_name_H-M "P -6 2 C"
_symmetry_group_IT_number 190
_symmetry_cell_setting 'hexagonal'
loop_
_space_group_symop_operation_xyz
x,y,z
-x+y,-x,1/2-z
-y,x-y,z
x,y,1/2-z
-x+y,-x,z
-y,x-y,1/2-z
x-y,-y,-z
-x,-x+y,-z
y,x,-z
y,x,1/2+z
x-y,-y,1/2+z
-x,-x+y,1/2+z
loop_
_atom_site_type_symbol
_atom_site_label
_atom_site_fract_x
_atom_site_fract_y
_atom_site_fract_z
Si Si1 0.533794 0.480350 0.568713
Si Si2 0.108878 0.216155 0.526882
Si Si3 0.124276 0.609075 0.664347
Si Si4 0.197932 0.478289 0.894242
Si Si5 0.414621 0.141565 0.664517
Si Si6 0.223559 0.946311 0.835569
Si Si7 0.741230 0.172137 0.533714
O O1 0.551279 0.551279 0.500000
O O2 0.449653 0.475887 0.619785
O O3 0.626902 0.520423 0.620518
O O4 0.488598 0.374550 0.531606
O O5 0.138460 0.138460 0.500000
O O6 0.096513 0.224798 0.614078
O O7 0.194570 0.320373 0.496741
O O8 0.000000 0.184690 0.500000
O O9 0.107002 0.593263 0.750000
O O10 0.182501 0.720976 0.643874
O O11 0.193757 0.568431 0.637762
O O12 0.099081 0.384187 0.870762
O O13 0.220378 0.485473 0.980172
O O14 0.439986 0.157061 0.750000
O O15 0.429844 0.232818 0.618288
O O16 0.300460 0.060620 0.659345
O O17 0.203583 0.921607 0.750000
#
# Coordination Sequence:
#
# PCOD9586901 Si02
#       7
#    12  12  12  12  12  12  12
#     4  12  24  43  66  98 135 174 229 277 334 414
#     4  11  23  42  70 100 133 174 225 284 348 415
#     4  12  23  38  64  97 134 172 216 280 342 397
#     4  11  23  39  62  93 130 171 219 273 336 401
#     4  11  24  44  71  97 129 181 230 276 339 405
#     4  10  21  41  67  96 128 172 226 276 335 409
#     4  11  25  43  67  97 133 176 223 280 340 407
#
# _framework density 20.917649000000001
#
# number of rings (size 3 to 8) (size 9 to 14) (size 15 to 20)
#    0.000    0.857    4.286    3.429    4.000    1.143 
#    0.857    1.429    0.000    0.000    0.000    0.000 
#    0.000    0.000    0.000    0.000    0.000    0.000 
#
# Total GULP energy -469105.557162 kJ/mol
# GULP energy per Si atom -5584.589966 kJ/mol
# Density = 2.087004 g / cm^3
# Si number density = 20.917649 Si / 1000 Ang^3
#
#
#
# Elastic Constant Matrix: (Units=GPa)
#
#
# Indices 1 2 3 4 5 6 
#
# 1 50.8405 -1.3864 25.7518 0.0000 0.0000 0.0000
# 2 -1.3864 50.8405 25.7518 0.0000 0.0000 0.0000
# 3 25.7518 25.7518 187.6178 0.0000 0.0000 0.0000
# 4 0.0000 0.0000 0.0000 27.6998 0.0000 0.0000
# 5 0.0000 0.0000 0.0000 0.0000 27.6998 0.0000
# 6 0.0000 0.0000 0.0000 0.0000 0.0000 26.1134
#
#
#
# Elastic Compliance Matrix: (Units=1/GPa)
#
#
# Indices 1 2 3 4 5 6 
#
# 1 0.021370 0.002223 -0.003238 0.000000 0.000000 0.000000
# 2 0.002223 0.021370 -0.003238 0.000000 0.000000 0.000000
# 3 -0.003238 -0.003238 0.006219 0.000000 0.000000 0.000000
# 4 0.000000 0.000000 0.000000 0.036101 0.000000 0.000000
# 5 0.000000 0.000000 0.000000 0.000000 0.036101 0.000000
# 6 0.000000 0.000000 0.000000 0.000000 0.000000 0.038294
#
#
# Mechanical properties :
#
#
# Convention : Reuss Voigt Hill
#
# Bulk Modulus (GPa) = 24.72054 43.28145 34.00099
# Shear Modulus (GPa) = 27.55610 32.24804 29.90207
#
# Velocity S-wave (km/s) = 3.63348 3.93067 3.78499
# Velocity P-wave (km/s) = 5.42648 6.42934 5.94908
#
# Compressibility (1/GPa) = 0.04045219
#
# Stress axis : x y z
#
# Youngs Moduli (GPa) = 46.79400 46.79400 160.79885
#
# Poissons Ratio (x) = -0.10402 0.52072
# Poissons Ratio (y) = -0.10402 0.52072
# Poissons Ratio (z) = 0.15153 0.15153
#
# Static dielectric constant tensor:
#      x y z
#    x 1.763040 0.000000 0.000000 
#    y 0.000000 1.763040 0.000000 
#    z 0.000000 0.000000 1.755290 
# 
# From -- ./inp_files/3167.got.cif
#   From: 2010.05.17/outbox.cif.g08.bks.cpg/sg190_2_cif.got.tgz:3167.got - 2010.05.20 12:16:56.
