data_PCOD9586377
_publ_section_title
;
Structure prediction by ZEFSAII (Michael W. Deem and Ramdas Pophale) SiO2 
 PCOD9586377
Probable space group: P -6 2 M
;
_chemical_formula_sum "Si O2"
_cell_formula_units_Z 64
_cell_length_a 15.089435
_cell_length_b 15.089435
_cell_length_c 19.321757
_cell_angle_alpha 90.000000
_cell_angle_beta 90.000000
_cell_angle_gamma 120.000000
_cell_volume 3809.984465
_symmetry_space_group_name_H-M "P -6 2 M"
_symmetry_group_IT_number 189
_symmetry_cell_setting 'hexagonal'
loop_
_space_group_symop_operation_xyz
x,y,z
-x+y,-x,-z
-y,x-y,z
x,y,-z
-x+y,-x,z
-y,x-y,-z
x-y,-y,-z
-x,-x+y,-z
y,x,-z
y,x,z
x-y,-y,z
-x,-x+y,z
loop_
_atom_site_type_symbol
_atom_site_label
_atom_site_fract_x
_atom_site_fract_y
_atom_site_fract_z
Si Si1 0.661326 0.214233 0.921869
Si Si2 0.246601 0.882727 0.295066
Si Si3 0.450288 0.883503 0.656796
Si Si4 0.666668 0.333334 0.417683
Si Si5 0.116432 0.695224 0.789299
Si Si6 0.123014 0.244709 0.577343
O O1 0.759786 0.329234 0.915444
O O2 0.662141 0.145876 0.860309
O O3 0.659457 0.176978 0.000000
O O4 0.347154 0.879937 0.317569
O O5 0.193108 0.811931 0.229850
O O6 0.170309 0.845329 0.360850
O O7 0.280864 0.000000 0.281431
O O8 0.411468 0.782198 0.610011
O O9 0.506201 0.873517 0.724757
O O10 0.523791 0.000000 0.627541
O O11 0.666667 0.333334 0.500000
O O12 0.000000 0.668365 0.791624
O O13 0.146846 0.291886 0.500000
O O14 0.177986 0.177986 0.584644
O O15 0.000000 0.172117 0.580577
#
# Coordination Sequence:
#
# PCOD9586377 Si02
#       6
#    12  12  12   4  12  12
#     4   8  17  32  53  78 108 145 174 208 258 311
#     4  10  20  34  52  73 101 137 174 216 267 321
#     4  10  22  38  56  78 103 140 186 227 272 330
#     4  12  24  39  60  78 106 149 184 240 294 324
#     4  11  20  32  55  81 108 139 177 223 262 316
#     4   9  17  30  49  71  96 128 169 219 272 321
#
# _framework density 16.797968000000001
#
# number of rings (size 3 to 8) (size 9 to 14) (size 15 to 20)
#    0.375    1.875    1.875    1.875    0.000    2.250 
#    0.000    1.875    0.000    2.062    0.000    0.000 
#    0.000    0.000    0.000    0.000    0.000    0.000 
#
# Total GULP energy -356599.082504 kJ/mol
# GULP energy per Si atom -5571.860664 kJ/mol
# Density = 1.675973 g / cm^3
# Si number density = 16.797968 Si / 1000 Ang^3
#
#
#
# Elastic Constant Matrix: (Units=GPa)
#
#
# Indices 1 2 3 4 5 6 
#
# 1 54.0549 16.7375 31.0721 0.0000 -0.0001 0.0001
# 2 16.7375 54.0552 31.0722 -0.0001 -0.0001 0.0001
# 3 31.0721 31.0722 71.7031 -0.0002 0.0000 0.0000
# 4 0.0000 -0.0001 -0.0002 8.8991 0.0000 0.0000
# 5 -0.0001 -0.0001 0.0000 0.0000 8.8990 0.0000
# 6 0.0001 0.0001 0.0000 0.0000 0.0000 18.6588
#
#
#
# Elastic Compliance Matrix: (Units=1/GPa)
#
#
# Indices 1 2 3 4 5 6 
#
# 1 0.024798 -0.001999 -0.009880 0.000000 0.000000 0.000000
# 2 -0.001999 0.024798 -0.009880 0.000000 0.000000 0.000000
# 3 -0.009880 -0.009880 0.022509 0.000000 0.000000 0.000000
# 4 0.000000 0.000000 0.000000 0.112371 0.000000 0.000000
# 5 0.000000 0.000000 0.000000 0.000000 0.112372 0.000000
# 6 0.000000 0.000000 0.000000 0.000000 0.000000 0.053594
#
#
# Mechanical properties :
#
#
# Convention : Reuss Voigt Hill
#
# Bulk Modulus (GPa) = 34.98034 37.50853 36.24444
# Shear Modulus (GPa) = 12.39195 14.02014 13.20605
#
# Velocity S-wave (km/s) = 2.71902 2.89214 2.80691
# Velocity P-wave (km/s) = 5.54317 5.79053 5.66820
#
# Compressibility (1/GPa) = 0.02858749
#
# Stress axis : x y z
#
# Youngs Moduli (GPa) = 40.32608 40.32638 44.42685
#
# Poissons Ratio (x) = 0.08063 0.43892
# Poissons Ratio (y) = 0.08062 0.43892
# Poissons Ratio (z) = 0.39841 0.39841
#
# Static dielectric constant tensor:
#      x y z
#    x 1.583310 0.000000 0.000000 
#    y 0.000000 1.583310 0.000000 
#    z 0.000000 0.000000 1.546990 
# 
# From -- ./inp_files/3036.got.cif
#   From: 2010.05.17/outbox.cif.g08.bks.cpg/sg189_2_cif.got.tgz:3036.got - 2010.05.20 12:14:34.
