data_PCOD9586968
_publ_section_title
;
Structure prediction by ZEFSAII (Michael W. Deem and Ramdas Pophale) SiO2 
 PCOD9586968
Probable space group: P -6 2 C
;
_chemical_formula_sum "Si O2"
_cell_formula_units_Z 34
_cell_length_a 10.152396
_cell_length_b 10.152396
_cell_length_c 15.770833
_cell_angle_alpha 90.000000
_cell_angle_beta 90.000000
_cell_angle_gamma 120.000000
_cell_volume 1407.739716
_symmetry_space_group_name_H-M "P -6 2 C"
_symmetry_group_IT_number 190
_symmetry_cell_setting 'hexagonal'
loop_
_space_group_symop_operation_xyz
x,y,z
-x+y,-x,1/2-z
-y,x-y,z
x,y,1/2-z
-x+y,-x,z
-y,x-y,1/2-z
x-y,-y,-z
-x,-x+y,-z
y,x,-z
y,x,1/2+z
x-y,-y,1/2+z
-x,-x+y,1/2+z
loop_
_atom_site_type_symbol
_atom_site_label
_atom_site_fract_x
_atom_site_fract_y
_atom_site_fract_z
Si Si1 0.253712 0.340711 0.648214
Si Si2 0.426272 0.020621 0.402813
Si Si3 0.818549 0.300326 0.750000
Si Si4 0.000000 0.000000 0.146208
O O1 0.261483 0.333816 0.750000
O O2 0.419827 0.432471 0.606625
O O3 0.178211 0.443825 0.627533
O O4 0.134740 0.167795 0.619128
O O5 0.379440 0.000000 0.500000
O O6 0.302743 0.901510 0.335980
O O7 0.641769 0.183735 0.750000
O O8 0.000000 0.000000 0.250000
#
# Coordination Sequence:
#
# PCOD9586968 Si02
#       4
#    12  12   6   4
#     4  11  23  45  69 101 137 186 227 287 344 412
#     4  12  27  43  71 101 141 178 233 282 348 412
#     4  10  26  42  70  94 140 180 228 274 348 410
#     4   9  24  39  76 101 136 175 236 280 349 401
#
# _framework density 24.152191999999999
#
# number of rings (size 3 to 8) (size 9 to 14) (size 15 to 20)
#    0.353    0.706    3.529    0.706    9.882    0.000 
#    0.000    1.765    0.000    0.000    0.000    0.000 
#    0.000    0.000    0.000    0.000    0.000    0.000 
#
# Total GULP energy -190057.323419 kJ/mol
# GULP energy per Si atom -5589.921277 kJ/mol
# Density = 2.409722 g / cm^3
# Si number density = 24.152192 Si / 1000 Ang^3
#
#
#
# Elastic Constant Matrix: (Units=GPa)
#
#
# Indices 1 2 3 4 5 6 
#
# 1 97.1758 18.8627 8.3284 0.0000 0.0000 0.0000
# 2 18.8627 97.1758 8.3284 0.0000 0.0000 0.0000
# 3 8.3284 8.3284 129.7401 0.0000 0.0000 0.0000
# 4 0.0000 0.0000 0.0000 8.5699 0.0000 0.0000
# 5 0.0000 0.0000 0.0000 0.0000 8.5699 0.0000
# 6 0.0000 0.0000 0.0000 0.0000 0.0000 39.1565
#
#
#
# Elastic Compliance Matrix: (Units=1/GPa)
#
#
# Indices 1 2 3 4 5 6 
#
# 1 0.010734 -0.002036 -0.000558 0.000000 0.000000 0.000000
# 2 -0.002036 0.010734 -0.000558 0.000000 0.000000 0.000000
# 3 -0.000558 -0.000558 0.007779 0.000000 0.000000 0.000000
# 4 0.000000 0.000000 0.000000 0.116687 0.000000 0.000000
# 5 0.000000 0.000000 0.000000 0.000000 0.116687 0.000000
# 6 0.000000 0.000000 0.000000 0.000000 0.000000 0.025539
#
#
# Mechanical properties :
#
#
# Convention : Reuss Voigt Hill
#
# Bulk Modulus (GPa) = 43.58826 43.90342 43.74584
# Shear Modulus (GPa) = 16.55016 30.49741 23.52379
#
# Velocity S-wave (km/s) = 2.62056 3.55733 3.12425
# Velocity P-wave (km/s) = 5.21948 5.92369 5.58270
#
# Compressibility (1/GPa) = 0.02294196
#
# Stress axis : x y z
#
# Youngs Moduli (GPa) = 93.16523 93.16523 128.54459
#
# Poissons Ratio (x) = 0.18965 0.07177
# Poissons Ratio (y) = 0.18965 0.07177
# Poissons Ratio (z) = 0.05202 0.05202
#
# Static dielectric constant tensor:
#      x y z
#    x 1.922290 0.000000 0.000000 
#    y 0.000000 1.922290 0.000000 
#    z 0.000000 0.000000 1.971070 
# 
# From -- ./inp_files/2392.got.cif
#   From: 2010.05.17/outbox.cif.g08.bks.cpg/sg190_2_cif.got.tgz:2392.got - 2010.05.20 12:16:56.
