data_PCOD9586714
_publ_section_title
;
Structure prediction by ZEFSAII (Michael W. Deem and Ramdas Pophale) SiO2 
 PCOD9586714
Probable space group: P -6 2 C
;
_chemical_formula_sum "Si O2"
_cell_formula_units_Z 52
_cell_length_a 14.516233
_cell_length_b 14.516233
_cell_length_c 13.674936
_cell_angle_alpha 90.000000
_cell_angle_beta 90.000000
_cell_angle_gamma 120.000000
_cell_volume 2495.535746
_symmetry_space_group_name_H-M "P -6 2 C"
_symmetry_group_IT_number 190
_symmetry_cell_setting 'hexagonal'
loop_
_space_group_symop_operation_xyz
x,y,z
-x+y,-x,1/2-z
-y,x-y,z
x,y,1/2-z
-x+y,-x,z
-y,x-y,1/2-z
x-y,-y,-z
-x,-x+y,-z
y,x,-z
y,x,1/2+z
x-y,-y,1/2+z
-x,-x+y,1/2+z
loop_
_atom_site_type_symbol
_atom_site_label
_atom_site_fract_x
_atom_site_fract_y
_atom_site_fract_z
Si Si1 0.447036 0.211924 0.954235
Si Si2 0.000000 0.000000 0.367960
Si Si3 0.929923 0.762795 0.633884
Si Si4 0.459972 0.899876 0.364317
Si Si5 0.899388 0.585318 0.363685
O O1 0.323697 0.153648 0.925768
O O2 0.495077 0.136988 0.932052
O O3 0.500538 0.315717 0.883757
O O4 0.459564 0.260991 0.062234
O O5 0.880451 0.962423 0.396332
O O6 0.000000 0.000000 0.250000
O O7 0.904676 0.748672 0.750000
O O8 0.027707 0.740528 0.620768
O O9 0.431496 0.896264 0.250000
O O10 0.561366 0.016659 0.383756
O O11 0.868292 0.566007 0.250000
#
# Coordination Sequence:
#
# PCOD9586714 Si02
#       5
#    12   4  12  12  12
#     4  11  20  36  60  88 120 158 201 249 303 359
#     4   9  18  33  55  86 122 155 190 234 289 356
#     4   9  17  33  57  85 119 157 193 237 295 358
#     4  10  19  33  59  92 119 150 197 254 307 356
#     4   9  20  39  59  81 118 162 201 246 304 363
#
# _framework density 20.837208
#
# number of rings (size 3 to 8) (size 9 to 14) (size 15 to 20)
#    0.000    2.308    0.000    6.692    0.000    0.000 
#    0.000   10.385    0.000   12.462    0.000    0.000 
#    0.000    0.000    0.000    0.000    0.000    0.000 
#
# Total GULP energy -290659.629531 kJ/mol
# GULP energy per Si atom -5589.608260 kJ/mol
# Density = 2.078978 g / cm^3
# Si number density = 20.837208 Si / 1000 Ang^3
#
#
#
# Elastic Constant Matrix: (Units=GPa)
#
#
# Indices 1 2 3 4 5 6 
#
# 1 94.7316 83.3539 69.6981 0.0000 0.0000 0.0000
# 2 83.3539 94.7316 69.6981 0.0000 0.0000 0.0000
# 3 69.6981 69.6981 124.9970 0.0000 0.0000 0.0000
# 4 0.0000 0.0000 0.0000 24.7546 0.0000 0.0000
# 5 0.0000 0.0000 0.0000 0.0000 24.7546 0.0000
# 6 0.0000 0.0000 0.0000 0.0000 0.0000 5.6889
#
#
#
# Elastic Compliance Matrix: (Units=1/GPa)
#
#
# Indices 1 2 3 4 5 6 
#
# 1 0.048928 -0.038963 -0.005556 0.000000 0.000000 0.000000
# 2 -0.038963 0.048928 -0.005556 0.000000 0.000000 0.000000
# 3 -0.005556 -0.005556 0.014196 0.000000 0.000000 0.000000
# 4 0.000000 0.000000 0.000000 0.040397 0.000000 0.000000
# 5 0.000000 0.000000 0.000000 0.000000 0.040397 0.000000
# 6 0.000000 0.000000 0.000000 0.000000 0.000000 0.175782
#
#
# Mechanical properties :
#
#
# Convention : Reuss Voigt Hill
#
# Bulk Modulus (GPa) = 84.02939 84.44005 84.23472
# Shear Modulus (GPa) = 10.57653 17.15361 13.86507
#
# Velocity S-wave (km/s) = 2.25540 2.87229 2.58233
# Velocity P-wave (km/s) = 6.86998 7.18413 7.02881
#
# Compressibility (1/GPa) = 0.01190060
#
# Stress axis : x y z
#
# Youngs Moduli (GPa) = 20.43834 20.43834 70.44097
#
# Poissons Ratio (x) = 0.79635 0.39137
# Poissons Ratio (y) = 0.79635 0.39137
# Poissons Ratio (z) = 0.11356 0.11356
#
# Static dielectric constant tensor:
#      x y z
#    x 1.719810 0.000000 0.000000 
#    y 0.000000 1.719810 0.000000 
#    z 0.000000 0.000000 1.789370 
# 
# From -- ./inp_files/2676.got.cif
#   From: 2010.05.17/outbox.cif.g08.bks.cpg/sg190_2_cif.got.tgz:2676.got - 2010.05.20 12:16:56.
