data_PCOD9586424
_publ_section_title
;
Structure prediction by ZEFSAII (Michael W. Deem and Ramdas Pophale) SiO2 
 PCOD9586424
Probable space group: P -6 2 M
;
_chemical_formula_sum "Si O2"
_cell_formula_units_Z 96
_cell_length_a 13.909551
_cell_length_b 13.909551
_cell_length_c 27.839058
_cell_angle_alpha 90.000000
_cell_angle_beta 90.000000
_cell_angle_gamma 120.000000
_cell_volume 4664.567585
_symmetry_space_group_name_H-M "P -6 2 M"
_symmetry_group_IT_number 189
_symmetry_cell_setting 'hexagonal'
loop_
_space_group_symop_operation_xyz
x,y,z
-x+y,-x,-z
-y,x-y,z
x,y,-z
-x+y,-x,z
-y,x-y,-z
x-y,-y,-z
-x,-x+y,-z
y,x,-z
y,x,z
x-y,-y,z
-x,-x+y,z
loop_
_atom_site_type_symbol
_atom_site_label
_atom_site_fract_x
_atom_site_fract_y
_atom_site_fract_z
Si Si1 0.875733 0.441106 0.703608
Si Si2 0.247634 0.121886 0.811332
Si Si3 0.398302 0.525937 0.139255
Si Si4 0.351280 0.869329 0.051269
Si Si5 0.774925 0.519551 0.231100
Si Si6 0.319283 0.199223 0.915438
Si Si7 0.687665 0.559622 0.556012
Si Si8 0.645215 0.131011 0.401118
O O1 0.795165 0.333118 0.734946
O O2 0.872775 0.538964 0.732921
O O3 0.840086 0.450039 0.649957
O O4 0.000000 0.462577 0.701931
O O5 0.211902 0.211902 0.798799
O O6 0.367002 0.156966 0.789859
O O7 0.258119 0.125421 0.869089
O O8 0.157832 0.000000 0.795489
O O9 0.488443 0.488443 0.154911
O O10 0.452864 0.626315 0.101305
O O11 0.335731 0.538452 0.185043
O O12 0.307005 0.423702 0.108203
O O13 0.229762 0.854918 0.053323
O O14 0.440635 0.000000 0.051957
O O15 0.365260 0.824088 0.000000
O O16 0.241383 0.241383 0.938581
O O17 0.718537 0.581278 0.500000
O O18 0.643701 0.643701 0.571998
O O19 0.580316 0.436762 0.561729
O O20 0.787812 0.560872 0.585457
O O21 0.606956 0.000000 0.399390
#
# Coordination Sequence:
#
# PCOD9586424 Si02
#       8
#    12  12  12  12  12  12  12  12
#     4  11  23  38  58  85 118 160 202 246 308 369
#     4  10  20  36  58  84 113 147 189 240 295 351
#     4   9  20  37  56  77 107 145 183 232 289 351
#     4  10  21  37  57  81 109 142 181 226 285 360
#     4  11  22  37  56  83 116 149 196 249 299 362
#     4   9  19  36  57  81 108 138 176 222 278 343
#     4  10  20  35  60  93 127 170 222 272 325 385
#     4  10  21  37  58  87 127 171 215 269 332 392
#
# _framework density 20.580684000000002
#
# number of rings (size 3 to 8) (size 9 to 14) (size 15 to 20)
#    0.000    2.000    0.000    4.375    3.500    1.500 
#    0.750    1.875    0.000    0.500    0.000    0.000 
#    0.000    0.000    0.000    0.000    0.000    0.000 
#
# Total GULP energy -535470.166468 kJ/mol
# GULP energy per Si atom -5577.814234 kJ/mol
# Density = 2.053384 g / cm^3
# Si number density = 20.580684 Si / 1000 Ang^3
#
#
#
# Elastic Constant Matrix: (Units=GPa)
#
#
# Indices 1 2 3 4 5 6 
#
# 1 93.3474 47.7512 43.7778 0.0000 0.0000 0.0000
# 2 47.7512 93.3474 43.7778 0.0000 0.0000 0.0000
# 3 43.7778 43.7778 112.3566 0.0000 0.0000 0.0000
# 4 0.0000 0.0000 0.0000 -42.7853 0.0000 0.0000
# 5 0.0000 0.0000 0.0000 0.0000 -42.7853 0.0000
# 6 0.0000 0.0000 0.0000 0.0000 0.0000 22.7981
#
#
#
# Elastic Compliance Matrix: (Units=1/GPa)
#
#
# Indices 1 2 3 4 5 6 
#
# 1 0.015639 -0.006292 -0.003642 0.000000 0.000000 0.000000
# 2 -0.006292 0.015639 -0.003642 0.000000 0.000000 0.000000
# 3 -0.003642 -0.003642 0.011738 0.000000 0.000000 0.000000
# 4 0.000000 0.000000 0.000000 -0.023373 0.000000 0.000000
# 5 0.000000 0.000000 0.000000 0.000000 -0.023373 0.000000
# 6 0.000000 0.000000 0.000000 0.000000 0.000000 0.043863
#
#
# Mechanical properties :
#
#
# Convention : Reuss Voigt Hill
#
# Bulk Modulus (GPa) = 63.03267 63.29611 63.16439
# Shear Modulus (GPa) = 68.89325 -1.63820 33.62752
#
# Velocity S-wave (km/s) = 5.79201 -0.89315 4.04658
# Velocity P-wave (km/s) = 8.68467 5.45511 7.25195
#
# Compressibility (1/GPa) = 0.01586479
#
# Stress axis : x y z
#
# Youngs Moduli (GPa) = 63.94099 63.94099 85.19125
#
# Poissons Ratio (x) = 0.40233 0.31026
# Poissons Ratio (y) = 0.40233 0.31026
# Poissons Ratio (z) = 0.23287 0.23287
#
# Static dielectric constant tensor:
#      x y z
#    x 1.762250 0.000000 0.000000 
#    y 0.000000 1.762250 0.000000 
#    z 0.000000 0.000000 1.770120 
# 
# From -- ./inp_files/3717.got.cif
#   From: 2010.05.17/outbox.cif.g08.bks.cpg/sg189_2_cif.got.tgz:3717.got - 2010.05.20 12:14:34.
