data_PCOD9586605
_publ_section_title
;
Structure prediction by ZEFSAII (Michael W. Deem and Ramdas Pophale) SiO2 
 PCOD9586605
Probable space group: P -6 2 C
;
_chemical_formula_sum "Si O2"
_cell_formula_units_Z 54
_cell_length_a 13.366962
_cell_length_b 13.366962
_cell_length_c 19.234084
_cell_angle_alpha 90.000000
_cell_angle_beta 90.000000
_cell_angle_gamma 120.000000
_cell_volume 2976.237380
_symmetry_space_group_name_H-M "P -6 2 C"
_symmetry_group_IT_number 190
_symmetry_cell_setting 'hexagonal'
loop_
_space_group_symop_operation_xyz
x,y,z
-x+y,-x,1/2-z
-y,x-y,z
x,y,1/2-z
-x+y,-x,z
-y,x-y,1/2-z
x-y,-y,-z
-x,-x+y,-z
y,x,-z
y,x,1/2+z
x-y,-y,1/2+z
-x,-x+y,1/2+z
loop_
_atom_site_type_symbol
_atom_site_label
_atom_site_fract_x
_atom_site_fract_y
_atom_site_fract_z
Si Si1 0.556397 0.691685 0.899972
Si Si2 0.764036 0.283406 0.250000
Si Si3 0.093729 0.651670 0.939016
Si Si4 0.904094 0.565890 0.831019
Si Si5 0.325739 0.898494 0.333259
O O1 0.541308 0.729898 0.822586
O O2 0.438339 0.577142 0.923201
O O3 0.577518 0.797871 0.948536
O O4 0.650318 0.652438 0.885644
O O5 0.625583 0.209389 0.250000
O O6 0.016900 0.648478 0.874103
O O7 0.000000 0.599858 0.000000
O O8 0.926314 0.592143 0.750000
O O9 0.880029 0.435673 0.841675
O O10 0.791710 0.573812 0.849423
O O11 0.324826 0.926689 0.250000
#
# Coordination Sequence:
#
# PCOD9586605 Si02
#       5
#    12   6  12  12  12
#     4  11  20  34  57  84 113 154 198 237 301 345
#     4  10  16  28  58  84 114 142 194 262 290 336
#     4  11  24  37  54  85 121 152 190 244 299 359
#     4   9  19  33  53  80 114 151 196 245 295 347
#     4   9  17  30  54  83 112 148 192 238 291 350
#
# _framework density 18.143715
#
# number of rings (size 3 to 8) (size 9 to 14) (size 15 to 20)
#    0.222    1.778    3.333    0.889    3.111    5.333 
#    0.000    0.000    0.000    0.889    0.000    1.556 
#    0.000    0.000    0.000    0.000    0.000    0.000 
#
# Total GULP energy -301112.963232 kJ/mol
# GULP energy per Si atom -5576.165986 kJ/mol
# Density = 1.810242 g / cm^3
# Si number density = 18.143715 Si / 1000 Ang^3
#
#
#
# Elastic Constant Matrix: (Units=GPa)
#
#
# Indices 1 2 3 4 5 6 
#
# 1 99.5778 44.6978 31.8578 0.0000 0.0000 0.0000
# 2 44.6978 99.5778 31.8578 0.0000 0.0000 0.0000
# 3 31.8578 31.8578 41.1148 0.0000 0.0000 0.0000
# 4 0.0000 0.0000 0.0000 14.0647 0.0000 0.0000
# 5 0.0000 0.0000 0.0000 0.0000 14.0647 0.0000
# 6 0.0000 0.0000 0.0000 0.0000 0.0000 27.4400
#
#
#
# Elastic Compliance Matrix: (Units=1/GPa)
#
#
# Indices 1 2 3 4 5 6 
#
# 1 0.014379 -0.003842 -0.008164 0.000000 0.000000 0.000000
# 2 -0.003842 0.014379 -0.008164 0.000000 0.000000 0.000000
# 3 -0.008164 -0.008164 0.036975 0.000000 0.000000 0.000000
# 4 0.000000 0.000000 0.000000 0.071100 0.000000 0.000000
# 5 0.000000 0.000000 0.000000 0.000000 0.071100 0.000000
# 6 0.000000 0.000000 0.000000 0.000000 0.000000 0.036443
#
#
# Mechanical properties :
#
#
# Convention : Reuss Voigt Hill
#
# Bulk Modulus (GPa) = 39.38491 50.78856 45.08674
# Shear Modulus (GPa) = 17.05429 19.90438 18.47933
#
# Velocity S-wave (km/s) = 3.06920 3.31575 3.19485
# Velocity P-wave (km/s) = 5.85784 6.53545 6.20590
#
# Compressibility (1/GPa) = 0.02539043
#
# Stress axis : x y z
#
# Youngs Moduli (GPa) = 69.54504 69.54504 27.04563
#
# Poissons Ratio (x) = 0.26722 0.22081
# Poissons Ratio (y) = 0.26722 0.22081
# Poissons Ratio (z) = 0.56780 0.56780
#
# Static dielectric constant tensor:
#      x y z
#    x 1.631580 0.000000 0.000000 
#    y 0.000000 1.631580 0.000000 
#    z 0.000000 0.000000 1.696100 
# 
# From -- ./inp_files/3579.got.cif
#   From: 2010.05.17/outbox.cif.g08.bks.cpg/sg190_2_cif.got.tgz:3579.got - 2010.05.20 12:16:56.
