data_PCOD9586882
_publ_section_title
;
Structure prediction by ZEFSAII (Michael W. Deem and Ramdas Pophale) SiO2 
 PCOD9586882
Probable space group: P -6 2 C
;
_chemical_formula_sum "Si O2"
_cell_formula_units_Z 58
_cell_length_a 14.539039
_cell_length_b 14.539039
_cell_length_c 14.121075
_cell_angle_alpha 90.000000
_cell_angle_beta 90.000000
_cell_angle_gamma 120.000000
_cell_volume 2585.055040
_symmetry_space_group_name_H-M "P -6 2 C"
_symmetry_group_IT_number 190
_symmetry_cell_setting 'hexagonal'
loop_
_space_group_symop_operation_xyz
x,y,z
-x+y,-x,1/2-z
-y,x-y,z
x,y,1/2-z
-x+y,-x,z
-y,x-y,1/2-z
x-y,-y,-z
-x,-x+y,-z
y,x,-z
y,x,1/2+z
x-y,-y,1/2+z
-x,-x+y,1/2+z
loop_
_atom_site_type_symbol
_atom_site_label
_atom_site_fract_x
_atom_site_fract_y
_atom_site_fract_z
Si Si1 0.669702 0.112430 0.137180
Si Si2 0.080962 0.860036 0.853243
Si Si3 0.531405 0.743807 0.461058
Si Si4 0.109400 0.587273 0.138198
Si Si5 0.000000 0.000000 0.611529
Si Si6 0.000000 0.257068 0.000000
O O1 0.672888 0.140384 0.250000
O O2 0.742870 0.057603 0.124581
O O3 0.550096 0.017067 0.114942
O O4 0.726839 0.211400 0.063345
O O5 0.130504 0.882921 0.750000
O O6 0.989053 0.889567 0.854551
O O7 0.165474 0.941789 0.924573
O O8 0.544739 0.833032 0.386620
O O9 0.445765 0.627790 0.423133
O O10 0.634548 0.731262 0.462564
O O11 0.116779 0.570212 0.250000
O O12 0.000000 0.000000 0.500000
#
# Coordination Sequence:
#
# PCOD9586882 Si02
#       6
#    12  12  12  12   4   6
#     4   9  22  44  70  98 138 188 234 284 360 443
#     4  10  21  38  58  90 130 171 217 269 329 405
#     4  11  24  43  70  99 141 176 237 297 363 423
#     4  11  24  43  72 105 139 185 237 298 366 432
#     4  12  22  32  58  91 131 172 214 266 325 406
#     4  10  24  40  64  96 126 178 220 280 338 414
#
# _framework density 22.436658999999999
#
# number of rings (size 3 to 8) (size 9 to 14) (size 15 to 20)
#    0.000    1.655    1.034    2.276    5.793    1.655 
#    0.000    1.034    0.000    0.000    0.000    0.000 
#    0.000    0.000    0.000    0.000    0.000    0.000 
#
# Total GULP energy -323338.225408 kJ/mol
# GULP energy per Si atom -5574.796990 kJ/mol
# Density = 2.238559 g / cm^3
# Si number density = 22.436659 Si / 1000 Ang^3
#
#
#
# Elastic Constant Matrix: (Units=GPa)
#
#
# Indices 1 2 3 4 5 6 
#
# 1 78.1026 31.6342 47.9756 0.0000 0.0000 0.0000
# 2 31.6342 78.1026 47.9756 0.0000 0.0000 0.0000
# 3 47.9756 47.9756 105.6789 0.0000 0.0000 0.0000
# 4 0.0000 0.0000 0.0000 20.3465 0.0000 0.0000
# 5 0.0000 0.0000 0.0000 0.0000 20.3465 0.0000
# 6 0.0000 0.0000 0.0000 0.0000 0.0000 23.2342
#
#
#
# Elastic Compliance Matrix: (Units=1/GPa)
#
#
# Indices 1 2 3 4 5 6 
#
# 1 0.018315 -0.003205 -0.006860 0.000000 0.000000 0.000000
# 2 -0.003205 0.018315 -0.006860 0.000000 0.000000 0.000000
# 3 -0.006860 -0.006860 0.015691 0.000000 0.000000 0.000000
# 4 0.000000 0.000000 0.000000 0.049148 0.000000 0.000000
# 5 0.000000 0.000000 0.000000 0.000000 0.049148 0.000000
# 6 0.000000 0.000000 0.000000 0.000000 0.000000 0.043040
#
#
# Mechanical properties :
#
#
# Convention : Reuss Voigt Hill
#
# Bulk Modulus (GPa) = 54.13285 57.45051 55.79168
# Shear Modulus (GPa) = 21.39809 21.73869 21.56839
#
# Velocity S-wave (km/s) = 3.09157 3.11608 3.10385
# Velocity P-wave (km/s) = 6.07644 6.21352 6.14536
#
# Compressibility (1/GPa) = 0.01847307
#
# Stress axis : x y z
#
# Youngs Moduli (GPa) = 54.59868 54.59868 63.73020
#
# Poissons Ratio (x) = 0.17496 0.43719
# Poissons Ratio (y) = 0.17496 0.43719
# Poissons Ratio (z) = 0.37455 0.37455
#
# Static dielectric constant tensor:
#      x y z
#    x 1.944630 0.000000 0.000000 
#    y 0.000000 1.944630 0.000000 
#    z 0.000000 0.000000 1.868840 
# 
# From -- ./inp_files/2856.got.cif
#   From: 2010.05.17/outbox.cif.g08.bks.cpg/sg190_2_cif.got.tgz:2856.got - 2010.05.20 12:16:56.
