data_PCOD9586546
_publ_section_title
;
Structure prediction by ZEFSAII (Michael W. Deem and Ramdas Pophale) SiO2 
 PCOD9586546
Probable space group: P -6 2 M
;
_chemical_formula_sum "Si O2"
_cell_formula_units_Z 48
_cell_length_a 18.034777
_cell_length_b 18.034777
_cell_length_c 8.351621
_cell_angle_alpha 90.000000
_cell_angle_beta 90.000000
_cell_angle_gamma 120.000000
_cell_volume 2352.463873
_symmetry_space_group_name_H-M "P -6 2 M"
_symmetry_group_IT_number 189
_symmetry_cell_setting 'hexagonal'
loop_
_space_group_symop_operation_xyz
x,y,z
-x+y,-x,-z
-y,x-y,z
x,y,-z
-x+y,-x,z
-y,x-y,-z
x-y,-y,-z
-x,-x+y,-z
y,x,-z
y,x,z
x-y,-y,z
-x,-x+y,z
loop_
_atom_site_type_symbol
_atom_site_label
_atom_site_fract_x
_atom_site_fract_y
_atom_site_fract_z
Si Si1 0.205475 0.000000 0.315480
Si Si2 0.902540 0.714060 0.192478
Si Si3 0.151959 0.541279 0.689028
Si Si4 0.515932 0.791795 0.807857
Si Si5 0.366559 0.000000 0.815839
O O1 0.184562 0.000000 0.500000
O O2 0.225195 0.089678 0.239239
O O3 0.294424 0.000000 0.294006
O O4 0.840341 0.615576 0.245386
O O5 0.000000 0.753245 0.251132
O O6 0.903983 0.710537 0.000000
O O7 0.134888 0.535465 0.500000
O O8 0.155430 0.625038 0.760687
O O9 0.238081 0.538135 0.723710
O O10 0.081267 0.457279 0.778727
O O11 0.513063 0.780047 0.000000
O O12 0.341036 0.000000 0.000000
#
# Coordination Sequence:
#
# PCOD9586546 Si02
#       5
#     6  12  12  12   6
#     4  12  24  42  70 100 131 168 211 268 340 398
#     4  10  23  44  70  98 128 169 220 269 322 389
#     4  12  25  41  62  94 131 169 215 269 322 377
#     4  11  23  41  66  94 129 174 219 266 321 384
#     4  12  24  42  66  92 123 168 221 266 316 392
#
# _framework density 20.404138
#
# number of rings (size 3 to 8) (size 9 to 14) (size 15 to 20)
#    0.000    0.750    2.500    5.750    1.750    1.500 
#    0.750    0.000    0.000    0.000    0.000    0.000 
#    0.000    0.000    0.000    0.000    0.000    0.000 
#
# Total GULP energy -268457.760721 kJ/mol
# GULP energy per Si atom -5592.870015 kJ/mol
# Density = 2.035770 g / cm^3
# Si number density = 20.404138 Si / 1000 Ang^3
#
#
#
# Elastic Constant Matrix: (Units=GPa)
#
#
# Indices 1 2 3 4 5 6 
#
# 1 71.0640 33.3033 0.8474 0.0000 0.0000 0.0000
# 2 33.3033 71.0640 0.8474 0.0000 0.0000 0.0000
# 3 0.8474 0.8474 46.3304 0.0000 0.0000 0.0000
# 4 0.0000 0.0000 0.0000 22.5552 0.0000 0.0000
# 5 0.0000 0.0000 0.0000 0.0000 22.5552 0.0000
# 6 0.0000 0.0000 0.0000 0.0000 0.0000 18.8803
#
#
#
# Elastic Compliance Matrix: (Units=1/GPa)
#
#
# Indices 1 2 3 4 5 6 
#
# 1 0.018033 -0.008449 -0.000175 0.000000 0.000000 0.000000
# 2 -0.008449 0.018033 -0.000175 0.000000 0.000000 0.000000
# 3 -0.000175 -0.000175 0.021591 0.000000 0.000000 0.000000
# 4 0.000000 0.000000 0.000000 0.044336 0.000000 0.000000
# 5 0.000000 0.000000 0.000000 0.000000 0.044336 0.000000
# 6 0.000000 0.000000 0.000000 0.000000 0.000000 0.052965
#
#
# Mechanical properties :
#
#
# Convention : Reuss Voigt Hill
#
# Bulk Modulus (GPa) = 24.96375 28.71718 26.84046
# Shear Modulus (GPa) = 21.71588 23.02882 22.37235
#
# Velocity S-wave (km/s) = 3.26588 3.36316 3.31488
# Velocity P-wave (km/s) = 5.14612 5.40240 5.27581
#
# Compressibility (1/GPa) = 0.04005809
#
# Stress axis : x y z
#
# Youngs Moduli (GPa) = 55.45243 55.45243 46.31662
#
# Poissons Ratio (x) = 0.46852 0.00812
# Poissons Ratio (y) = 0.46852 0.00812
# Poissons Ratio (z) = 0.00972 0.00972
#
# Static dielectric constant tensor:
#      x y z
#    x 1.805070 0.000000 0.000000 
#    y 0.000000 1.805070 0.000000 
#    z 0.000000 0.000000 1.691820 
# 
# From -- ./inp_files/625.got.cif
#   From: 2010.05.17/outbox.cif.g08.bks.cpg/sg189_1_cif.got.tgz:625.got - 2010.05.20 12:14:34.
