data_PCOD9586637
_publ_section_title
;
Structure prediction by ZEFSAII (Michael W. Deem and Ramdas Pophale) SiO2 
 PCOD9586637
Probable space group: P -6 2 C
;
_chemical_formula_sum "Si O2"
_cell_formula_units_Z 54
_cell_length_a 15.062220
_cell_length_b 15.062220
_cell_length_c 11.082004
_cell_angle_alpha 90.000000
_cell_angle_beta 90.000000
_cell_angle_gamma 120.000000
_cell_volume 2177.343291
_symmetry_space_group_name_H-M "P -6 2 C"
_symmetry_group_IT_number 190
_symmetry_cell_setting 'hexagonal'
loop_
_space_group_symop_operation_xyz
x,y,z
-x+y,-x,1/2-z
-y,x-y,z
x,y,1/2-z
-x+y,-x,z
-y,x-y,1/2-z
x-y,-y,-z
-x,-x+y,-z
y,x,-z
y,x,1/2+z
x-y,-y,1/2+z
-x,-x+y,1/2+z
loop_
_atom_site_type_symbol
_atom_site_label
_atom_site_fract_x
_atom_site_fract_y
_atom_site_fract_z
Si Si1 0.000000 0.722281 0.500000
Si Si2 0.273106 0.266139 0.750000
Si Si3 0.523566 0.783913 0.985092
Si Si4 0.503137 0.803260 0.250000
Si Si5 0.267724 0.957216 0.615339
Si Si6 0.364434 0.514175 0.750000
Si Si7 0.541109 0.583733 0.250000
O O1 0.992967 0.773422 0.377400
O O2 0.096638 0.705337 0.490961
O O3 0.373059 0.252271 0.750000
O O4 0.311557 0.388504 0.750000
O O5 0.592770 0.743036 0.922876
O O6 0.455874 0.788239 0.875269
O O7 0.478209 0.746758 0.119353
O O8 0.451866 0.874905 0.250000
O O9 0.222528 0.948114 0.750000
O O10 0.388601 0.038345 0.638522
O O11 0.236552 0.000000 0.500000
O O12 0.482963 0.551105 0.750000
#
# Coordination Sequence:
#
# PCOD9586637 Si02
#       7
#     6   6  12   6  12   6   6
#     4   8  14  24  46  70 106 120 176 214 306 316
#     4   7  12  21  34  70  96 124 139 227 274 342
#     4  10  18  33  52  86 106 150 180 273 299 376
#     4   9  18  26  53  78 107 129 199 243 314 335
#     4  10  23  37  53  78 121 161 203 240 331 402
#     4   9  15  27  53  72 109 122 198 236 311 331
#     4   9  21  34  56  90 110 165 198 270 307 406
#
# _framework density 24.800868000000001
#
# number of rings (size 3 to 8) (size 9 to 14) (size 15 to 20)
#    0.667    2.222    1.111    1.333    4.667    0.000 
#    0.000    0.000    0.000    3.556    0.000    0.000 
#    1.111    0.000    0.000    0.000    0.000    0.000 
#
# Total GULP energy -300904.490300 kJ/mol
# GULP energy per Si atom -5572.305376 kJ/mol
# Density = 2.474442 g / cm^3
# Si number density = 24.800868 Si / 1000 Ang^3
#
#
#
# Elastic Constant Matrix: (Units=GPa)
#
#
# Indices 1 2 3 4 5 6 
#
# 1 56.4351 17.6469 17.7935 0.0000 0.0000 0.0000
# 2 17.6469 56.4351 17.7935 0.0000 0.0000 0.0000
# 3 17.7935 17.7935 309.9164 0.0000 0.0000 0.0000
# 4 0.0000 0.0000 0.0000 2.4847 0.0000 0.0000
# 5 0.0000 0.0000 0.0000 0.0000 2.4847 0.0000
# 6 0.0000 0.0000 0.0000 0.0000 0.0000 19.3941
#
#
#
# Elastic Compliance Matrix: (Units=1/GPa)
#
#
# Indices 1 2 3 4 5 6 
#
# 1 0.019831 -0.005950 -0.000797 0.000000 0.000000 0.000000
# 2 -0.005950 0.019831 -0.000797 0.000000 0.000000 0.000000
# 3 -0.000797 -0.000797 0.003318 0.000000 0.000000 0.000000
# 4 0.000000 0.000000 0.000000 0.402460 0.000000 0.000000
# 5 0.000000 0.000000 0.000000 0.000000 0.402460 0.000000
# 6 0.000000 0.000000 0.000000 0.000000 0.000000 0.051562
#
#
# Mechanical properties :
#
#
# Convention : Reuss Voigt Hill
#
# Bulk Modulus (GPa) = 35.85120 58.80603 47.32862
# Shear Modulus (GPa) = 5.41215 29.50957 17.46086
#
# Velocity S-wave (km/s) = 1.47884 3.45318 2.65626
# Velocity P-wave (km/s) = 4.17169 6.29778 5.34158
#
# Compressibility (1/GPa) = 0.02789307
#
# Stress axis : x y z
#
# Youngs Moduli (GPa) = 50.42558 50.42558 301.36892
#
# Poissons Ratio (x) = 0.30002 0.24019
# Poissons Ratio (y) = 0.30002 0.24019
# Poissons Ratio (z) = 0.04019 0.04019
#
# Static dielectric constant tensor:
#      x y z
#    x 1.955550 0.000000 0.000000 
#    y 0.000000 1.955550 0.000000 
#    z 0.000000 0.000000 2.117940 
# 
# From -- ./inp_files/1980.got.cif
#   From: 2010.05.17/outbox.cif.g08.bks.cpg/sg190_1_cif.got.tgz:1980.got - 2010.05.20 12:16:56.
