data_PCOD9586683
_publ_section_title
;
Structure prediction by ZEFSAII (Michael W. Deem and Ramdas Pophale) SiO2 
 PCOD9586683
Probable space group: P -6 2 C
;
_chemical_formula_sum "Si O2"
_cell_formula_units_Z 66
_cell_length_a 17.823560
_cell_length_b 17.823560
_cell_length_c 14.339794
_cell_angle_alpha 90.000000
_cell_angle_beta 90.000000
_cell_angle_gamma 120.000000
_cell_volume 3945.140269
_symmetry_space_group_name_H-M "P -6 2 C"
_symmetry_group_IT_number 190
_symmetry_cell_setting 'hexagonal'
loop_
_space_group_symop_operation_xyz
x,y,z
-x+y,-x,1/2-z
-y,x-y,z
x,y,1/2-z
-x+y,-x,z
-y,x-y,1/2-z
x-y,-y,-z
-x,-x+y,-z
y,x,-z
y,x,1/2+z
x-y,-y,1/2+z
-x,-x+y,1/2+z
loop_
_atom_site_type_symbol
_atom_site_label
_atom_site_fract_x
_atom_site_fract_y
_atom_site_fract_z
Si Si1 0.334557 0.130886 0.998748
Si Si2 0.000000 0.396667 0.500000
Si Si3 0.207863 0.740914 0.858033
Si Si4 0.128824 0.198978 0.359902
Si Si5 0.808816 0.876262 0.640856
Si Si6 0.589018 0.462682 0.356806
O O1 0.396745 0.214610 0.060519
O O2 0.264719 0.070187 0.076403
O O3 0.380609 0.077680 0.964218
O O4 0.282768 0.149683 0.919709
O O5 0.950782 0.422151 0.423461
O O6 0.186484 0.753241 0.750000
O O7 0.164054 0.638779 0.874850
O O8 0.312550 0.793274 0.863310
O O9 0.144361 0.219857 0.250000
O O10 0.176657 0.146341 0.386826
O O11 0.025947 0.132607 0.371326
O O12 0.785919 0.862031 0.750000
O O13 0.576081 0.480539 0.250000
#
# Coordination Sequence:
#
# PCOD9586683 Si02
#       6
#    12   6  12  12  12  12
#     4  11  19  32  49  73 104 139 172 211 263 314
#     4  10  20  32  50  80 108 134 168 210 264 320
#     4   9  18  33  56  80 101 129 164 212 266 317
#     4  10  20  32  48  70 100 142 186 223 255 292
#     4  10  19  32  48  69  99 138 185 225 253 291
#     4   9  18  34  56  81 106 131 168 213 262 317
#
# _framework density 16.729443
#
# number of rings (size 3 to 8) (size 9 to 14) (size 15 to 20)
#    0.000    2.182    1.818    1.818    0.000    4.364 
#    3.273    1.818    0.000    0.000    0.000    0.000 
#    0.000    2.909    0.000    0.000    0.000    0.000 
#
# Total GULP energy -367805.880268 kJ/mol
# GULP energy per Si atom -5572.816368 kJ/mol
# Density = 1.669137 g / cm^3
# Si number density = 16.729443 Si / 1000 Ang^3
#
#
#
# Elastic Constant Matrix: (Units=GPa)
#
#
# Indices 1 2 3 4 5 6 
#
# 1 91.1567 39.4587 61.1195 0.0000 0.0000 0.0000
# 2 39.4587 91.1567 61.1195 0.0000 0.0000 0.0000
# 3 61.1195 61.1195 89.4579 0.0000 0.0000 0.0000
# 4 0.0000 0.0000 0.0000 29.3659 0.0000 0.0000
# 5 0.0000 0.0000 0.0000 0.0000 29.3659 0.0000
# 6 0.0000 0.0000 0.0000 0.0000 0.0000 25.8490
#
#
#
# Elastic Compliance Matrix: (Units=1/GPa)
#
#
# Indices 1 2 3 4 5 6 
#
# 1 0.020287 0.000944 -0.014506 0.000000 0.000000 0.000000
# 2 0.000944 0.020287 -0.014506 0.000000 0.000000 0.000000
# 3 -0.014506 -0.014506 0.031000 0.000000 0.000000 0.000000
# 4 0.000000 0.000000 0.000000 0.034053 0.000000 0.000000
# 5 0.000000 0.000000 0.000000 0.000000 0.034053 0.000000
# 6 0.000000 0.000000 0.000000 0.000000 0.000000 0.038686
#
#
# Mechanical properties :
#
#
# Convention : Reuss Voigt Hill
#
# Bulk Modulus (GPa) = 64.76840 66.12962 65.44901
# Shear Modulus (GPa) = 20.86382 24.25439 22.55911
#
# Velocity S-wave (km/s) = 3.53531 3.81176 3.67613
# Velocity P-wave (km/s) = 7.44740 7.68032 7.56476
#
# Compressibility (1/GPa) = 0.01543963
#
# Stress axis : x y z
#
# Youngs Moduli (GPa) = 49.29153 49.29153 32.25803
#
# Poissons Ratio (x) = -0.04655 0.46794
# Poissons Ratio (y) = -0.04655 0.46794
# Poissons Ratio (z) = 0.71502 0.71502
#
# Static dielectric constant tensor:
#      x y z
#    x 1.569900 0.000000 0.000000 
#    y 0.000000 1.569900 0.000000 
#    z 0.000000 0.000000 1.574360 
# 
# From -- ./inp_files/2983.got.cif
#   From: 2010.05.17/outbox.cif.g08.bks.cpg/sg190_2_cif.got.tgz:2983.got - 2010.05.20 12:16:56.
