data_PCOD9586111
_publ_section_title
;
Structure prediction by ZEFSAII (Michael W. Deem and Ramdas Pophale) SiO2 
 PCOD9586111
Probable space group: P -6 2 M
;
_chemical_formula_sum "Si O2"
_cell_formula_units_Z 54
_cell_length_a 13.861663
_cell_length_b 13.861663
_cell_length_c 19.061505
_cell_angle_alpha 90.000000
_cell_angle_beta 90.000000
_cell_angle_gamma 120.000000
_cell_volume 3171.892730
_symmetry_space_group_name_H-M "P -6 2 M"
_symmetry_group_IT_number 189
_symmetry_cell_setting 'hexagonal'
loop_
_space_group_symop_operation_xyz
x,y,z
-x+y,-x,-z
-y,x-y,z
x,y,-z
-x+y,-x,z
-y,x-y,-z
x-y,-y,-z
-x,-x+y,-z
y,x,-z
y,x,z
x-y,-y,z
-x,-x+y,z
loop_
_atom_site_type_symbol
_atom_site_label
_atom_site_fract_x
_atom_site_fract_y
_atom_site_fract_z
Si Si1 0.318390 0.785750 0.500000
Si Si2 0.764241 0.116634 0.000000
Si Si3 0.471448 0.339033 0.274160
Si Si4 0.872696 0.352973 0.000000
Si Si5 0.450595 0.128659 0.653052
Si Si6 0.518486 0.391028 0.120036
O O1 0.430893 0.776281 0.500000
O O2 0.312766 0.844231 0.429514
O O3 0.695521 0.118714 0.932176
O O4 0.870254 0.237267 0.000000
O O5 0.761068 0.000000 0.000000
O O6 0.380164 0.380164 0.272888
O O7 0.577478 0.432845 0.316871
O O8 0.428948 0.219527 0.309142
O O9 0.513388 0.338657 0.194956
O O10 0.821090 0.372605 0.070589
O O11 0.000000 0.451627 0.000000
O O12 0.358952 0.000000 0.665447
O O13 0.486964 0.486964 0.137636
#
# Coordination Sequence:
#
# PCOD9586111 Si02
#       6
#     6   6  12   6  12  12
#     4  10  17  34  54  72 109 140 170 206 256 314
#     4   9  17  31  45  64  94 130 165 201 249 297
#     4  10  20  35  52  75 107 138 171 221 268 310
#     4   9  17  31  47  70  96 132 177 205 247 311
#     4  11  21  34  54  78 106 138 174 212 259 321
#     4   8  17  32  46  63  96 129 163 206 248 301
#
# _framework density 17.024535
#
# number of rings (size 3 to 8) (size 9 to 14) (size 15 to 20)
#    0.222    2.222    2.222    2.111    3.111    0.000 
#    5.333    0.556    0.000    0.667    0.000    0.000 
#    0.000    0.000    0.000    0.000    0.000    0.000 
#
# Total GULP energy -300622.742830 kJ/mol
# GULP energy per Si atom -5567.087830 kJ/mol
# Density = 1.698579 g / cm^3
# Si number density = 17.024535 Si / 1000 Ang^3
#
#
#
# Elastic Constant Matrix: (Units=GPa)
#
#
# Indices 1 2 3 4 5 6 
#
# 1 82.4884 33.1806 36.4559 0.0000 0.0000 0.0000
# 2 33.1806 82.4884 36.4559 0.0000 0.0000 0.0000
# 3 36.4559 36.4559 155.8365 0.0000 0.0000 0.0000
# 4 0.0000 0.0000 0.0000 9.1676 0.0000 0.0000
# 5 0.0000 0.0000 0.0000 0.0000 9.1676 0.0000
# 6 0.0000 0.0000 0.0000 0.0000 0.0000 24.6539
#
#
#
# Elastic Compliance Matrix: (Units=1/GPa)
#
#
# Indices 1 2 3 4 5 6 
#
# 1 0.015211 -0.005070 -0.002372 0.000000 0.000000 0.000000
# 2 -0.005070 0.015211 -0.002372 0.000000 0.000000 0.000000
# 3 -0.002372 -0.002372 0.007527 0.000000 0.000000 0.000000
# 4 0.000000 0.000000 0.000000 0.109080 0.000000 0.000000
# 5 0.000000 0.000000 0.000000 0.000000 0.109080 0.000000
# 6 0.000000 0.000000 0.000000 0.000000 0.000000 0.040562
#
#
# Mechanical properties :
#
#
# Convention : Reuss Voigt Hill
#
# Bulk Modulus (GPa) = 54.58751 59.22202 56.90477
# Shear Modulus (GPa) = 15.50838 22.91251 19.21044
#
# Velocity S-wave (km/s) = 3.02146 3.67257 3.36281
# Velocity P-wave (km/s) = 6.65627 7.26949 6.96963
#
# Compressibility (1/GPa) = 0.01831921
#
# Stress axis : x y z
#
# Youngs Moduli (GPa) = 65.74293 65.74293 132.85647
#
# Poissons Ratio (x) = 0.33332 0.31517
# Poissons Ratio (y) = 0.33332 0.31517
# Poissons Ratio (z) = 0.15596 0.15596
#
# Static dielectric constant tensor:
#      x y z
#    x 1.595460 0.000000 0.000000 
#    y 0.000000 1.595460 0.000000 
#    z 0.000000 0.000000 1.600250 
# 
# From -- ./inp_files/3014.got.cif
#   From: 2010.05.17/outbox.cif.g08.bks.cpg/sg189_2_cif.got.tgz:3014.got - 2010.05.20 12:14:34.
