data_PCOD9586114
_publ_section_title
;
Structure prediction by ZEFSAII (Michael W. Deem and Ramdas Pophale) SiO2 
 PCOD9586114
Probable space group: P -6 2 M
;
_chemical_formula_sum "Si O2"
_cell_formula_units_Z 72
_cell_length_a 24.261349
_cell_length_b 24.261349
_cell_length_c 7.467109
_cell_angle_alpha 90.000000
_cell_angle_beta 90.000000
_cell_angle_gamma 120.000000
_cell_volume 3806.387627
_symmetry_space_group_name_H-M "P -6 2 M"
_symmetry_group_IT_number 189
_symmetry_cell_setting 'hexagonal'
loop_
_space_group_symop_operation_xyz
x,y,z
-x+y,-x,-z
-y,x-y,z
x,y,-z
-x+y,-x,z
-y,x-y,-z
x-y,-y,-z
-x,-x+y,-z
y,x,-z
y,x,z
x-y,-y,z
-x,-x+y,z
loop_
_atom_site_type_symbol
_atom_site_label
_atom_site_fract_x
_atom_site_fract_y
_atom_site_fract_z
Si Si1 0.731410 0.512568 0.206548
Si Si2 0.599297 0.599297 0.782779
Si Si3 0.659442 0.798498 0.710878
Si Si4 0.332787 0.261631 0.216085
Si Si5 0.000000 0.272792 0.704577
Si Si6 0.594689 0.469733 0.219274
Si Si7 0.859002 0.522137 0.219442
O O1 0.757236 0.588516 0.209505
O O2 0.660670 0.475555 0.283049
O O3 0.788782 0.505127 0.283239
O O4 0.725578 0.492531 0.000000
O O5 0.660687 0.660687 0.707904
O O6 0.596383 0.534296 0.728396
O O7 0.604123 0.604123 0.000000
O O8 0.651763 0.783685 0.500000
O O9 0.680460 0.872261 0.733187
O O10 0.708348 0.777224 0.783897
O O11 0.284276 0.284276 0.279569
O O12 0.405137 0.311757 0.274508
O O13 0.332896 0.262939 0.000000
O O14 0.000000 0.251926 0.500000
O O15 0.531112 0.406652 0.276424
O O16 0.595271 0.469138 0.000000
O O17 0.858808 0.522676 0.000000
#
# Coordination Sequence:
#
# PCOD9586114 Si02
#       7
#    12   6  12  12   6  12  12
#     4   9  16  29  45  62  86 117 153 194 239 282
#     4  10  18  26  44  66  88 116 152 193 230 277
#     4  10  19  31  48  68  93 121 150 185 226 271
#     4   9  18  32  50  70  94 124 154 185 223 270
#     4  10  20  32  46  68  96 124 150 181 228 275
#     4   9  16  25  40  65  90 114 148 193 239 279
#     4   8  15  26  41  63  89 116 148 188 232 275
#
# _framework density 18.915572000000001
#
# number of rings (size 3 to 8) (size 9 to 14) (size 15 to 20)
#    0.000    2.833    1.667    1.500    1.167    1.000 
#    1.000    0.000    0.000    8.000    0.000    0.000 
#    0.833    0.000    0.500    0.000    0.667    0.000 
#
# Total GULP energy -401491.504197 kJ/mol
# GULP energy per Si atom -5576.270892 kJ/mol
# Density = 1.887252 g / cm^3
# Si number density = 18.915572 Si / 1000 Ang^3
#
#
#
# Elastic Constant Matrix: (Units=GPa)
#
#
# Indices 1 2 3 4 5 6 
#
# 1 107.2219 63.8283 -5.4042 0.0000 0.0000 0.0000
# 2 63.8283 107.2219 -5.4042 0.0000 0.0000 0.0000
# 3 -5.4042 -5.4042 55.9225 0.0000 0.0000 0.0000
# 4 0.0000 0.0000 0.0000 13.2541 0.0000 0.0000
# 5 0.0000 0.0000 0.0000 0.0000 13.2541 0.0000
# 6 0.0000 0.0000 0.0000 0.0000 0.0000 21.6968
#
#
#
# Elastic Compliance Matrix: (Units=1/GPa)
#
#
# Indices 1 2 3 4 5 6 
#
# 1 0.014464 -0.008581 0.000568 0.000000 0.000000 0.000000
# 2 -0.008581 0.014464 0.000568 0.000000 0.000000 0.000000
# 3 0.000568 0.000568 0.017992 0.000000 0.000000 0.000000
# 4 0.000000 0.000000 0.000000 0.075448 0.000000 0.000000
# 5 0.000000 0.000000 0.000000 0.000000 0.075448 0.000000
# 6 0.000000 0.000000 0.000000 0.000000 0.000000 0.046090
#
#
# Mechanical properties :
#
#
# Convention : Reuss Voigt Hill
#
# Bulk Modulus (GPa) = 31.22089 41.82287 36.52188
# Shear Modulus (GPa) = 18.55488 24.13076 21.34282
#
# Velocity S-wave (km/s) = 3.13538 3.57558 3.36269
# Velocity P-wave (km/s) = 5.44506 6.26136 5.86743
#
# Compressibility (1/GPa) = 0.03202984
#
# Stress axis : x y z
#
# Youngs Moduli (GPa) = 69.13953 69.13953 55.58100
#
# Poissons Ratio (x) = 0.59331 -0.03159
# Poissons Ratio (y) = 0.59331 -0.03159
# Poissons Ratio (z) = -0.03930 -0.03930
#
# Static dielectric constant tensor:
#      x y z
#    x 1.651230 0.000000 0.000000 
#    y 0.000000 1.651230 0.000000 
#    z 0.000000 0.000000 1.743520 
# 
# From -- ./inp_files/1351.got.cif
#   From: 2010.05.17/outbox.cif.g08.bks.cpg/sg189_1_cif.got.tgz:1351.got - 2010.05.20 12:14:34.
