data_PCOD9586299
_publ_section_title
;
Structure prediction by ZEFSAII (Michael W. Deem and Ramdas Pophale) SiO2 
 PCOD9586299
Probable space group: P -6 2 M
;
_chemical_formula_sum "Si O2"
_cell_formula_units_Z 72
_cell_length_a 21.415281
_cell_length_b 21.415281
_cell_length_c 11.674032
_cell_angle_alpha 90.000000
_cell_angle_beta 90.000000
_cell_angle_gamma 120.000000
_cell_volume 4636.593967
_symmetry_space_group_name_H-M "P -6 2 M"
_symmetry_group_IT_number 189
_symmetry_cell_setting 'hexagonal'
loop_
_space_group_symop_operation_xyz
x,y,z
-x+y,-x,-z
-y,x-y,z
x,y,-z
-x+y,-x,z
-y,x-y,-z
x-y,-y,-z
-x,-x+y,-z
y,x,-z
y,x,z
x-y,-y,z
-x,-x+y,z
loop_
_atom_site_type_symbol
_atom_site_label
_atom_site_fract_x
_atom_site_fract_y
_atom_site_fract_z
Si Si1 0.223132 0.305395 0.365699
Si Si2 0.457621 0.915242 0.362883
Si Si3 0.698574 0.541799 0.249933
Si Si4 0.776868 0.694605 0.365699
Si Si5 0.156774 0.698573 0.249933
Si Si6 0.187079 0.519154 0.000000
Si Si7 0.519155 0.332076 0.000000
O O1 0.240104 0.327764 0.500000
O O2 0.247281 0.247281 0.343054
O O3 0.139097 0.278194 0.349600
O O4 0.267195 0.375441 0.287474
O O5 0.457170 0.914340 0.500000
O O6 0.376283 0.873438 0.316247
O O7 0.497156 0.873439 0.316247
O O8 0.499999 0.000000 0.326648
O O9 0.732805 0.624559 0.287475
O O10 0.760612 0.521223 0.277716
O O11 0.681760 0.526772 0.115287
O O12 0.759896 0.672237 0.500000
O O13 0.752720 0.752720 0.343052
O O14 0.154987 0.681759 0.115287
O O15 0.177122 0.588561 0.000000
O O16 0.271931 0.543861 0.000000
#
# Coordination Sequence:
#
# PCOD9586299 Si02
#       7
#    12  12  12  12  12   6   6
#     4   9  17  31  52  75  99 128 161 199 243 293
#     4  11  22  35  51  71  99 132 165 207 261 309
#     4  10  20  34  51  71  97 127 169 210 249 295
#     4   9  17  31  52  75  99 128 161 199 243 293
#     4  10  20  34  51  71  97 127 169 210 249 295
#     4  10  19  34  52  68  93 130 171 209 251 299
#     4  10  19  34  52  68  93 130 171 209 251 299
#
# _framework density 15.528639999999999
#
# number of rings (size 3 to 8) (size 9 to 14) (size 15 to 20)
#    0.000    2.167    1.667    2.167    0.000    4.667 
#    1.000    4.167    0.000    0.333    0.000    2.333 
#    0.000    0.000    0.000    0.000    0.000   19.667 
#
# Total GULP energy -401316.996419 kJ/mol
# GULP energy per Si atom -5573.847172 kJ/mol
# Density = 1.549330 g / cm^3
# Si number density = 15.528640 Si / 1000 Ang^3
#
#
#
# Elastic Constant Matrix: (Units=GPa)
#
#
# Indices 1 2 3 4 5 6 
#
# 1 113.4552 86.3281 60.9359 0.0000 0.0000 0.0000
# 2 86.3281 113.4552 60.9359 0.0000 0.0000 0.0000
# 3 60.9359 60.9359 82.5272 0.0000 0.0000 0.0000
# 4 0.0000 0.0000 0.0000 13.2961 0.0000 0.0000
# 5 0.0000 0.0000 0.0000 0.0000 13.2961 0.0000
# 6 0.0000 0.0000 0.0000 0.0000 0.0000 13.5635
#
#
#
# Elastic Compliance Matrix: (Units=1/GPa)
#
#
# Indices 1 2 3 4 5 6 
#
# 1 0.022986 -0.013878 -0.006725 0.000000 0.000000 0.000000
# 2 -0.013878 0.022986 -0.006725 0.000000 0.000000 0.000000
# 3 -0.006725 -0.006725 0.022048 0.000000 0.000000 0.000000
# 4 0.000000 0.000000 0.000000 0.075210 0.000000 0.000000
# 5 0.000000 0.000000 0.000000 0.000000 0.075210 0.000000
# 6 0.000000 0.000000 0.000000 0.000000 0.000000 0.073727
#
#
# Mechanical properties :
#
#
# Convention : Reuss Voigt Hill
#
# Bulk Modulus (GPa) = 74.82766 80.64860 77.73813
# Shear Modulus (GPa) = 14.23380 14.78034 14.50707
#
# Velocity S-wave (km/s) = 3.03085 3.08849 3.05981
# Velocity P-wave (km/s) = 7.78072 8.04776 7.91537
#
# Compressibility (1/GPa) = 0.01336404
#
# Stress axis : x y z
#
# Youngs Moduli (GPa) = 43.50536 43.50536 45.35514
#
# Poissons Ratio (x) = 0.60376 0.30501
# Poissons Ratio (y) = 0.60376 0.30501
# Poissons Ratio (z) = 0.29257 0.29257
#
# Static dielectric constant tensor:
#      x y z
#    x 1.507560 0.000000 0.000000 
#    y 0.000000 1.507560 0.000000 
#    z 0.000000 0.000000 1.511490 
# 
# From -- ./inp_files/2104.got.cif
#   From: 2010.05.17/outbox.cif.g08.bks.cpg/sg189_2_cif.got.tgz:2104.got - 2010.05.20 12:14:34.
