data_PCOD9586586
_publ_section_title
;
Structure prediction by ZEFSAII (Michael W. Deem and Ramdas Pophale) SiO2 
 PCOD9586586
Probable space group: P -6 2 M
;
_chemical_formula_sum "Si O2"
_cell_formula_units_Z 96
_cell_length_a 28.570520
_cell_length_b 28.570520
_cell_length_c 7.635660
_cell_angle_alpha 90.000000
_cell_angle_beta 90.000000
_cell_angle_gamma 120.000000
_cell_volume 5397.759163
_symmetry_space_group_name_H-M "P -6 2 M"
_symmetry_group_IT_number 189
_symmetry_cell_setting 'hexagonal'
loop_
_space_group_symop_operation_xyz
x,y,z
-x+y,-x,-z
-y,x-y,z
x,y,-z
-x+y,-x,z
-y,x-y,-z
x-y,-y,-z
-x,-x+y,-z
y,x,-z
y,x,z
x-y,-y,z
-x,-x+y,z
loop_
_atom_site_type_symbol
_atom_site_label
_atom_site_fract_x
_atom_site_fract_y
_atom_site_fract_z
Si Si1 0.725433 0.060488 0.289927
Si Si2 0.165796 0.226524 0.788891
Si Si3 0.666082 0.226676 0.210674
Si Si4 0.833886 0.273000 0.290014
Si Si5 0.060488 0.335055 0.710073
Si Si6 0.560595 0.226676 0.789326
Si Si7 0.439113 0.273000 0.290014
Si Si8 0.939272 0.165796 0.211109
O O1 0.718572 0.058385 0.500000
O O2 0.786049 0.072615 0.254795
O O3 0.717778 0.109185 0.221931
O O4 0.685393 0.000000 0.220996
O O5 0.185491 0.185491 0.724459
O O6 0.108679 0.217357 0.723100
O O7 0.162676 0.222419 0.000000
O O8 0.609281 0.218562 0.275639
O O9 0.716672 0.283328 0.275276
O O10 0.680274 0.180328 0.253735
O O11 0.665828 0.230267 0.000000
O O12 0.834573 0.267691 0.500000
O O13 0.890815 0.282222 0.221931
O O14 0.819672 0.319727 0.253735
O O15 0.783057 0.216943 0.222419
O O16 0.058385 0.339813 0.500000
O O17 0.072615 0.286566 0.745205
O O18 0.000000 0.314607 0.779004
O O19 0.564440 0.230267 0.000000
O O20 0.433118 0.267691 0.500000
O O21 0.000000 0.185491 0.275541
O O22 0.940258 0.162676 0.000000
#
# Coordination Sequence:
#
# PCOD9586586 Si02
#       8
#    12  12  12  12  12  12  12  12
#     4   9  17  29  45  64  86 112 141 173 209 249
#     4   9  17  28  42  61  85 112 141 174 212 252
#     4   9  17  29  45  64  85 109 137 169 205 245
#     4   9  17  28  42  62  87 111 135 167 207 248
#     4   9  17  29  45  64  86 112 141 173 209 249
#     4   9  17  29  45  64  85 109 137 169 205 245
#     4   9  17  28  42  62  87 111 135 167 207 248
#     4   9  17  28  42  61  85 112 141 174 212 252
#
# _framework density 17.785159
#
# number of rings (size 3 to 8) (size 9 to 14) (size 15 to 20)
#    0.000    3.000    0.000    1.000    0.000    4.000 
#    0.000    2.500    0.000    2.500    0.000    7.000 
#    0.000    0.000    0.000    6.250    0.000    6.500 
#
# Total GULP energy -535081.514842 kJ/mol
# GULP energy per Si atom -5573.765780 kJ/mol
# Density = 1.774468 g / cm^3
# Si number density = 17.785159 Si / 1000 Ang^3
#
#
#
# Elastic Constant Matrix: (Units=GPa)
#
#
# Indices 1 2 3 4 5 6 
#
# 1 157.1190 108.5317 2.6479 0.0000 0.0000 0.0000
# 2 108.5317 157.1190 2.6479 0.0000 0.0000 0.0000
# 3 2.6479 2.6479 34.2181 0.0000 0.0000 0.0000
# 4 0.0000 0.0000 0.0000 22.9729 0.0000 0.0000
# 5 0.0000 0.0000 0.0000 0.0000 22.9729 0.0000
# 6 0.0000 0.0000 0.0000 0.0000 0.0000 24.2937
#
#
#
# Elastic Compliance Matrix: (Units=1/GPa)
#
#
# Indices 1 2 3 4 5 6 
#
# 1 0.012176 -0.008406 -0.000292 0.000000 0.000000 0.000000
# 2 -0.008406 0.012176 -0.000292 0.000000 0.000000 0.000000
# 3 -0.000292 -0.000292 0.029269 0.000000 0.000000 0.000000
# 4 0.000000 0.000000 0.000000 0.043530 0.000000 0.000000
# 5 0.000000 0.000000 0.000000 0.000000 0.043530 0.000000
# 6 0.000000 0.000000 0.000000 0.000000 0.000000 0.041163
#
#
# Mechanical properties :
#
#
# Convention : Reuss Voigt Hill
#
# Bulk Modulus (GPa) = 28.05615 64.01234 46.03424
# Shear Modulus (GPa) = 23.61803 29.68979 26.65391
#
# Velocity S-wave (km/s) = 3.64808 4.09021 3.87545
# Velocity P-wave (km/s) = 5.79257 7.64046 6.77977
#
# Compressibility (1/GPa) = 0.03564281
#
# Stress axis : x y z
#
# Youngs Moduli (GPa) = 82.12991 82.12991 34.16529
#
# Poissons Ratio (x) = 0.69036 0.00997
# Poissons Ratio (y) = 0.69036 0.00997
# Poissons Ratio (z) = 0.02396 0.02396
#
# Static dielectric constant tensor:
#      x y z
#    x 1.607340 0.000000 0.000000 
#    y 0.000000 1.607340 0.000000 
#    z 0.000000 0.000000 1.657940 
# 
# From -- ./inp_files/2286.got.cif
#   From: 2010.05.17/outbox.cif.g08.bks.cpg/sg189_2_cif.got.tgz:2286.got - 2010.05.20 12:14:34.
