data_PCOD9586215
_publ_section_title
;
Structure prediction by ZEFSAII (Michael W. Deem and Ramdas Pophale) SiO2 
 PCOD9586215
Probable space group: P -6 2 M
;
_chemical_formula_sum "Si O2"
_cell_formula_units_Z 72
_cell_length_a 24.516373
_cell_length_b 24.516373
_cell_length_c 8.716121
_cell_angle_alpha 90.000000
_cell_angle_beta 90.000000
_cell_angle_gamma 120.000000
_cell_volume 4536.974338
_symmetry_space_group_name_H-M "P -6 2 M"
_symmetry_group_IT_number 189
_symmetry_cell_setting 'hexagonal'
loop_
_space_group_symop_operation_xyz
x,y,z
-x+y,-x,-z
-y,x-y,z
x,y,-z
-x+y,-x,z
-y,x-y,-z
x-y,-y,-z
-x,-x+y,-z
y,x,-z
y,x,z
x-y,-y,z
-x,-x+y,z
loop_
_atom_site_type_symbol
_atom_site_label
_atom_site_fract_x
_atom_site_fract_y
_atom_site_fract_z
Si Si1 0.856244 0.927322 0.687002
Si Si2 0.194156 0.267633 0.684948
Si Si3 0.263053 0.733520 0.816219
Si Si4 0.594428 0.195345 0.315911
Si Si5 0.862687 0.595437 0.183129
Si Si6 0.070837 0.594310 0.314948
O O1 0.856171 0.926513 0.500000
O O2 0.882081 0.882081 0.740467
O O3 0.786141 0.910325 0.733884
O O4 0.903175 0.000000 0.731768
O O5 0.194645 0.271821 0.500000
O O6 0.240586 0.240586 0.726413
O O7 0.219065 0.335945 0.754191
O O8 0.331189 0.783090 0.753393
O O9 0.241473 0.665032 0.744954
O O10 0.208042 0.748999 0.774929
O O11 0.264913 0.729228 0.000000
O O12 0.594186 0.198874 0.500000
O O13 0.578559 0.125067 0.269836
O O14 0.908385 0.571658 0.250380
O O15 0.867544 0.597351 0.000000
O O16 0.071752 0.598142 0.500000
O O17 0.000000 0.544947 0.265920
#
# Coordination Sequence:
#
# PCOD9586215 Si02
#       6
#    12  12  12  12  12  12
#     4   8  13  22  39  64  91 117 146 182 224 268
#     4   9  17  28  43  65  92 119 146 181 226 268
#     4  10  20  33  47  65  92 121 148 181 220 258
#     4  10  19  31  49  71  92 116 148 181 217 265
#     4  10  20  31  45  66  90 119 153 184 215 257
#     4   9  18  32  49  69  93 118 143 178 224 267
#
# _framework density 15.869605999999999
#
# number of rings (size 3 to 8) (size 9 to 14) (size 15 to 20)
#    0.000    2.667    0.000    3.500    0.000    6.000 
#    0.000    0.000    0.000    1.500    0.000    7.000 
#    0.000    1.333    0.000    0.000    0.000    0.000 
#
# Total GULP energy -401391.391539 kJ/mol
# GULP energy per Si atom -5574.880438 kJ/mol
# Density = 1.583349 g / cm^3
# Si number density = 15.869606 Si / 1000 Ang^3
#
#
#
# Elastic Constant Matrix: (Units=GPa)
#
#
# Indices 1 2 3 4 5 6 
#
# 1 122.5946 79.8700 27.7961 0.0000 0.0000 0.0000
# 2 79.8700 122.5946 27.7961 0.0000 0.0000 0.0000
# 3 27.7961 27.7961 19.9636 0.0000 0.0000 0.0000
# 4 0.0000 0.0000 0.0000 10.4062 0.0000 0.0000
# 5 0.0000 0.0000 0.0000 0.0000 10.4062 0.0000
# 6 0.0000 0.0000 0.0000 0.0000 0.0000 21.3623
#
#
#
# Elastic Compliance Matrix: (Units=1/GPa)
#
#
# Indices 1 2 3 4 5 6 
#
# 1 0.015701 -0.007705 -0.011133 0.000000 0.000000 0.000000
# 2 -0.007705 0.015701 -0.011133 0.000000 0.000000 0.000000
# 3 -0.011133 -0.011133 0.081094 0.000000 0.000000 0.000000
# 4 0.000000 0.000000 0.000000 0.096096 0.000000 0.000000
# 5 0.000000 0.000000 0.000000 0.000000 0.096096 0.000000
# 6 0.000000 0.000000 0.000000 0.000000 0.000000 0.046811
#
#
# Mechanical properties :
#
#
# Convention : Reuss Voigt Hill
#
# Bulk Modulus (GPa) = 19.02848 59.56412 39.29630
# Shear Modulus (GPa) = 11.65613 17.08101 14.36857
#
# Velocity S-wave (km/s) = 2.71309 3.28431 3.01227
# Velocity P-wave (km/s) = 4.67237 7.21091 6.07570
#
# Compressibility (1/GPa) = 0.05255281
#
# Stress axis : x y z
#
# Youngs Moduli (GPa) = 63.69067 63.69067 12.33144
#
# Poissons Ratio (x) = 0.49073 0.13729
# Poissons Ratio (y) = 0.49073 0.13729
# Poissons Ratio (z) = 0.70908 0.70908
#
# Static dielectric constant tensor:
#      x y z
#    x 1.523070 0.000000 0.000000 
#    y 0.000000 1.523070 0.000000 
#    z 0.000000 0.000000 1.532860 
# 
# From -- ./inp_files/1288.got.cif
#   From: 2010.05.17/outbox.cif.g08.bks.cpg/sg189_1_cif.got.tgz:1288.got - 2010.05.20 12:14:34.
