data_PCOD9586050
_publ_section_title
;
Structure prediction by ZEFSAII (Michael W. Deem and Ramdas Pophale) SiO2 
 PCOD9586050
Probable space group: P -6 C 2
;
_chemical_formula_sum "Si O2"
_cell_formula_units_Z 34
_cell_length_a 6.887192
_cell_length_b 6.887192
_cell_length_c 36.350968
_cell_angle_alpha 90.000000
_cell_angle_beta 90.000000
_cell_angle_gamma 120.000000
_cell_volume 1493.244737
_symmetry_space_group_name_H-M "P -6 C 2"
_symmetry_group_IT_number 188
_symmetry_cell_setting 'hexagonal'
loop_
_space_group_symop_operation_xyz
x,y,z
-x+y,-x,1/2-z
-y,x-y,z
x,y,1/2-z
-x+y,-x,z
-y,x-y,1/2-z
-y,-x,-z
-x+y,y,-z
x,x-y,-z
-x+y,y,1/2+z
x,x-y,1/2+z
-y,-x,1/2+z
loop_
_atom_site_type_symbol
_atom_site_label
_atom_site_fract_x
_atom_site_fract_y
_atom_site_fract_z
Si Si1 0.000000 0.000000 0.043486
Si Si2 0.896359 0.612532 0.250000
Si Si3 0.893488 0.280772 0.670399
Si Si4 0.264979 0.878170 0.904864
O O1 0.781563 0.988439 0.061756
O O2 0.000000 0.000000 0.000000
O O3 0.891130 0.373076 0.250000
O O4 0.986382 0.720394 0.289640
O O5 0.891451 0.517165 0.669472
O O6 0.019403 0.274367 0.634275
O O7 0.101696 0.609812 0.906952
#
# Coordination Sequence:
#
# PCOD9586050 Si02
#       4
#     4   6  12  12
#     4  12  27  48  69  91 128 166 201 270 342 399
#     4   6  10  22  46  90 124 172 220 258 300 352
#     4   8  14  29  60  89 132 175 216 261 311 359
#     4  10  23  41  66  97 129 165 212 261 318 394
#
# _framework density 22.769207999999999
#
# number of rings (size 3 to 8) (size 9 to 14) (size 15 to 20)
#    1.765    1.412    0.000    2.118    0.000    1.412 
#    2.118    1.765    0.000    2.118    0.000    0.000 
#    0.000    0.000    0.000    0.000    0.000    0.000 
#
# Total GULP energy -189343.120102 kJ/mol
# GULP energy per Si atom -5568.915297 kJ/mol
# Density = 2.271738 g / cm^3
# Si number density = 22.769208 Si / 1000 Ang^3
#
#
#
# Elastic Constant Matrix: (Units=GPa)
#
#
# Indices 1 2 3 4 5 6 
#
# 1 76.4071 26.7818 60.2546 0.0000 0.0000 0.0000
# 2 26.7818 76.4071 60.2546 0.0000 0.0000 0.0000
# 3 60.2546 60.2546 284.9759 0.0000 0.0000 0.0000
# 4 0.0000 0.0000 0.0000 -0.8421 0.0000 0.0000
# 5 0.0000 0.0000 0.0000 0.0000 -0.8421 0.0000
# 6 0.0000 0.0000 0.0000 0.0000 0.0000 24.8126
#
#
#
# Elastic Compliance Matrix: (Units=1/GPa)
#
#
# Indices 1 2 3 4 5 6 
#
# 1 0.016510 -0.003641 -0.002721 0.000000 0.000000 0.000000
# 2 -0.003641 0.016510 -0.002721 0.000000 0.000000 0.000000
# 3 -0.002721 -0.002721 0.004660 0.000000 0.000000 0.000000
# 4 0.000000 0.000000 0.000000 -1.187554 0.000000 0.000000
# 5 0.000000 0.000000 0.000000 0.000000 -1.187554 0.000000
# 6 0.000000 0.000000 0.000000 0.000000 0.000000 0.040302
#
#
# Mechanical properties :
#
#
# Convention : Reuss Voigt Hill
#
# Bulk Modulus (GPa) = 51.24735 81.37466 66.31101
# Shear Modulus (GPa) = -2.20026 23.99231 10.89602
#
# Velocity S-wave (km/s) = -0.98409 3.24962 2.18993
# Velocity P-wave (km/s) = 4.61139 7.06375 5.96496
#
# Compressibility (1/GPa) = 0.01951320
#
# Stress axis : x y z
#
# Youngs Moduli (GPa) = 60.57011 60.57011 214.60763
#
# Poissons Ratio (x) = 0.22055 0.58392
# Poissons Ratio (y) = 0.22055 0.58392
# Poissons Ratio (z) = 0.16480 0.16480
#
# Static dielectric constant tensor:
#      x y z
#    x 1.930250 0.000000 0.000000 
#    y 0.000000 1.930250 0.000000 
#    z 0.000000 0.000000 1.785620 
# 
# From -- ./inp_files/4359.got.cif
#   From: 2010.05.17/outbox.cif.g08.bks.cpg/sg188_3_cif.got.tgz:4359.got - 2010.05.20 12:11:46.
