data_PCOD9586543
_publ_section_title
;
Structure prediction by ZEFSAII (Michael W. Deem and Ramdas Pophale) SiO2 
 PCOD9586543
Probable space group: P -6 2 M
;
_chemical_formula_sum "Si O2"
_cell_formula_units_Z 30
_cell_length_a 16.388079
_cell_length_b 16.388079
_cell_length_c 7.376636
_cell_angle_alpha 90.000000
_cell_angle_beta 90.000000
_cell_angle_gamma 120.000000
_cell_volume 1715.714743
_symmetry_space_group_name_H-M "P -6 2 M"
_symmetry_group_IT_number 189
_symmetry_cell_setting 'hexagonal'
loop_
_space_group_symop_operation_xyz
x,y,z
-x+y,-x,-z
-y,x-y,z
x,y,-z
-x+y,-x,z
-y,x-y,-z
x-y,-y,-z
-x,-x+y,-z
y,x,-z
y,x,z
x-y,-y,z
-x,-x+y,z
loop_
_atom_site_type_symbol
_atom_site_label
_atom_site_fract_x
_atom_site_fract_y
_atom_site_fract_z
Si Si1 0.106181 0.891957 0.279315
Si Si2 0.598159 0.709642 0.284180
Si Si3 0.770003 0.327192 0.000000
O O1 0.105637 0.892167 0.500000
O O2 0.185909 0.866704 0.227535
O O3 0.000000 0.823276 0.218049
O O4 0.143792 0.000000 0.223493
O O5 0.583764 0.709864 0.500000
O O6 0.641426 0.641426 0.249375
O O7 0.504496 0.678946 0.172572
O O8 0.757212 0.418515 0.000000
#
# Coordination Sequence:
#
# PCOD9586543 Si02
#       3
#    12  12   6
#     4   8  13  23  44  75 109 143 176 211 256 315
#     4   9  18  35  58  81 109 144 178 217 268 325
#     4  10  23  38  56  78 101 138 180 226 274 314
#
# _framework density 17.485423999999998
#
# number of rings (size 3 to 8) (size 9 to 14) (size 15 to 20)
#    0.400    2.800    0.000    3.400    0.000    3.200 
#    0.000    5.000    0.000    4.800    0.000    2.800 
#    0.000    0.000    0.000    0.000    0.000    0.000 
#
# Total GULP energy -167177.708169 kJ/mol
# GULP energy per Si atom -5572.590272 kJ/mol
# Density = 1.744563 g / cm^3
# Si number density = 17.485424 Si / 1000 Ang^3
#
#
#
# Elastic Constant Matrix: (Units=GPa)
#
#
# Indices 1 2 3 4 5 6 
#
# 1 107.4232 58.7686 51.3170 0.0000 0.0000 0.0000
# 2 58.7686 107.4232 51.3170 0.0000 0.0000 0.0000
# 3 51.3170 51.3170 83.3113 0.0000 0.0000 0.0000
# 4 0.0000 0.0000 0.0000 29.5120 0.0000 0.0000
# 5 0.0000 0.0000 0.0000 0.0000 29.5120 0.0000
# 6 0.0000 0.0000 0.0000 0.0000 0.0000 24.3273
#
#
#
# Elastic Compliance Matrix: (Units=1/GPa)
#
#
# Indices 1 2 3 4 5 6 
#
# 1 0.015132 -0.005421 -0.005982 0.000000 0.000000 0.000000
# 2 -0.005421 0.015132 -0.005982 0.000000 0.000000 0.000000
# 3 -0.005982 -0.005982 0.019372 0.000000 0.000000 0.000000
# 4 0.000000 0.000000 0.000000 0.033885 0.000000 0.000000
# 5 0.000000 0.000000 0.000000 0.000000 0.033885 0.000000
# 6 0.000000 0.000000 0.000000 0.000000 0.000000 0.041106
#
#
# Mechanical properties :
#
#
# Convention : Reuss Voigt Hill
#
# Bulk Modulus (GPa) = 67.26009 68.99585 68.12797
# Shear Modulus (GPa) = 25.22233 25.78725 25.50479
#
# Velocity S-wave (km/s) = 3.80212 3.84446 3.82335
# Velocity P-wave (km/s) = 7.60425 7.69748 7.65101
#
# Compressibility (1/GPa) = 0.01486766
#
# Stress axis : x y z
#
# Youngs Moduli (GPa) = 66.08429 66.08429 51.61982
#
# Poissons Ratio (x) = 0.35823 0.30878
# Poissons Ratio (y) = 0.35823 0.30878
# Poissons Ratio (z) = 0.39531 0.39531
#
# Static dielectric constant tensor:
#      x y z
#    x 1.572210 0.000000 0.000000 
#    y 0.000000 1.572210 0.000000 
#    z 0.000000 0.000000 1.642140 
# 
# From -- ./inp_files/323.got.cif
#   From: 2010.05.17/outbox.cif.g08.bks.cpg/sg189_1_cif.got.tgz:323.got - 2010.05.20 12:14:34.
