data_PCOD9586201
_publ_section_title
;
Structure prediction by ZEFSAII (Michael W. Deem and Ramdas Pophale) SiO2 
 PCOD9586201
Probable space group: P -6 2 M
;
_chemical_formula_sum "Si O2"
_cell_formula_units_Z 60
_cell_length_a 13.872123
_cell_length_b 13.872123
_cell_length_c 19.233379
_cell_angle_alpha 90.000000
_cell_angle_beta 90.000000
_cell_angle_gamma 120.000000
_cell_volume 3205.325091
_symmetry_space_group_name_H-M "P -6 2 M"
_symmetry_group_IT_number 189
_symmetry_cell_setting 'hexagonal'
loop_
_space_group_symop_operation_xyz
x,y,z
-x+y,-x,-z
-y,x-y,z
x,y,-z
-x+y,-x,z
-y,x-y,-z
x-y,-y,-z
-x,-x+y,-z
y,x,-z
y,x,z
x-y,-y,z
-x,-x+y,z
loop_
_atom_site_type_symbol
_atom_site_label
_atom_site_fract_x
_atom_site_fract_y
_atom_site_fract_z
Si Si1 0.233571 0.422241 0.222547
Si Si2 0.479824 0.749233 0.920813
Si Si3 0.130684 0.869523 0.659096
Si Si4 0.136152 0.676557 0.421010
Si Si5 0.452969 0.577182 0.704400
O O1 0.231183 0.430841 0.139868
O O2 0.159906 0.306269 0.261642
O O3 0.195277 0.505511 0.254498
O O4 0.359045 0.477486 0.249802
O O5 0.385325 0.785862 0.912767
O O6 0.521014 0.772458 0.000000
O O7 0.166932 0.795363 0.612486
O O8 0.000000 0.822080 0.646110
O O9 0.202207 0.000000 0.645459
O O10 0.173929 0.686083 0.500000
O O11 0.169666 0.606950 0.369568
O O12 0.000000 0.607160 0.420094
O O13 0.555105 0.555105 0.694458
#
# Coordination Sequence:
#
# PCOD9586201 Si02
#       5
#    12  12  12  12  12
#     4  11  17  31  51  76 103 139 170 201 253 319
#     4   8  14  26  47  77 109 138 159 194 254 313
#     4  10  21  35  53  75 100 135 182 233 273 302
#     4   8  16  32  51  72  99 128 159 202 258 312
#     4  10  19  30  49  74 101 133 170 209 249 303
#
# _framework density 18.718848999999999
#
# number of rings (size 3 to 8) (size 9 to 14) (size 15 to 20)
#    0.400    2.200    2.000    3.000    0.000    0.400 
#    0.000    4.000    0.000   12.000    0.000    0.000 
#    0.000    1.600    0.000    0.000    0.000    0.000 
#
# Total GULP energy -334378.637496 kJ/mol
# GULP energy per Si atom -5572.977292 kJ/mol
# Density = 1.867624 g / cm^3
# Si number density = 18.718849 Si / 1000 Ang^3
#
#
#
# Elastic Constant Matrix: (Units=GPa)
#
#
# Indices 1 2 3 4 5 6 
#
# 1 48.8547 12.1956 12.2086 0.0000 0.0000 0.0000
# 2 12.1956 48.8547 12.2086 0.0000 0.0000 0.0000
# 3 12.2086 12.2086 149.0188 0.0000 0.0000 0.0000
# 4 0.0000 0.0000 0.0000 14.5672 0.0000 0.0000
# 5 0.0000 0.0000 0.0000 0.0000 14.5672 0.0000
# 6 0.0000 0.0000 0.0000 0.0000 0.0000 18.3296
#
#
#
# Elastic Compliance Matrix: (Units=1/GPa)
#
#
# Indices 1 2 3 4 5 6 
#
# 1 0.022107 -0.005172 -0.001387 0.000000 0.000000 0.000000
# 2 -0.005172 0.022107 -0.001387 0.000000 0.000000 0.000000
# 3 -0.001387 -0.001387 0.006938 0.000000 0.000000 0.000000
# 4 0.000000 0.000000 0.000000 0.068647 0.000000 0.000000
# 5 0.000000 0.000000 0.000000 0.000000 0.068647 0.000000
# 6 0.000000 0.000000 0.000000 0.000000 0.000000 0.054557
#
#
# Mechanical properties :
#
#
# Convention : Reuss Voigt Hill
#
# Bulk Modulus (GPa) = 28.36241 35.55041 31.95641
# Shear Modulus (GPa) = 18.47416 23.50049 20.98733
#
# Velocity S-wave (km/s) = 3.14495 3.54707 3.35205
# Velocity P-wave (km/s) = 5.32657 5.98403 5.66484
#
# Compressibility (1/GPa) = 0.03525793
#
# Stress axis : x y z
#
# Youngs Moduli (GPa) = 45.23538 45.23538 144.13597
#
# Poissons Ratio (x) = 0.23395 0.19998
# Poissons Ratio (y) = 0.23395 0.19998
# Poissons Ratio (z) = 0.06276 0.06276
#
# Static dielectric constant tensor:
#      x y z
#    x 1.663160 0.000000 0.000000 
#    y 0.000000 1.663160 0.000000 
#    z 0.000000 0.000000 1.661400 
# 
# From -- ./inp_files/3391.got.cif
#   From: 2010.05.17/outbox.cif.g08.bks.cpg/sg189_2_cif.got.tgz:3391.got - 2010.05.20 12:14:34.
