data_PCOD9586366
_publ_section_title
;
Structure prediction by ZEFSAII (Michael W. Deem and Ramdas Pophale) SiO2 
 PCOD9586366
Probable space group: P -6 2 M
;
_chemical_formula_sum "Si O2"
_cell_formula_units_Z 48
_cell_length_a 13.056786
_cell_length_b 13.056786
_cell_length_c 18.674489
_cell_angle_alpha 90.000000
_cell_angle_beta 90.000000
_cell_angle_gamma 120.000000
_cell_volume 2757.096270
_symmetry_space_group_name_H-M "P -6 2 M"
_symmetry_group_IT_number 189
_symmetry_cell_setting 'hexagonal'
loop_
_space_group_symop_operation_xyz
x,y,z
-x+y,-x,-z
-y,x-y,z
x,y,-z
-x+y,-x,z
-y,x-y,-z
x-y,-y,-z
-x,-x+y,-z
y,x,-z
y,x,z
x-y,-y,z
-x,-x+y,z
loop_
_atom_site_type_symbol
_atom_site_label
_atom_site_fract_x
_atom_site_fract_y
_atom_site_fract_z
Si Si1 0.860687 0.330474 0.917851
Si Si2 0.723940 0.239146 0.672438
Si Si3 0.140089 0.679030 0.831019
Si Si4 0.862053 0.724651 0.585851
O O1 0.786151 0.199790 0.886717
O O2 0.837507 0.416496 0.866775
O O3 0.000000 0.379989 0.915389
O O4 0.828423 0.337713 0.000000
O O5 0.793353 0.381181 0.659565
O O6 0.723440 0.204178 0.754913
O O7 0.779025 0.178531 0.624374
O O8 0.000000 0.621714 0.822480
O O9 0.851232 0.707596 0.500000
O O10 0.782302 0.782302 0.607537
O O11 0.000000 0.814134 0.601803
#
# Coordination Sequence:
#
# PCOD9586366 Si02
#       4
#    12  12  12  12
#     4  10  20  33  51  77 108 142 184 234 286 340
#     4  10  21  38  57  84 118 155 187 233 296 353
#     4  11  20  35  56  80 110 148 187 229 284 344
#     4  10  22  40  62  87 116 154 199 246 293 347
#
# _framework density 17.409621000000001
#
# number of rings (size 3 to 8) (size 9 to 14) (size 15 to 20)
#    0.500    1.250    2.500    2.250    0.000    6.500 
#    0.000    2.500    0.000    0.500    0.000    0.000 
#    0.000    0.000    0.000    0.000    0.000    0.000 
#
# Total GULP energy -267565.448383 kJ/mol
# GULP energy per Si atom -5574.280175 kJ/mol
# Density = 1.737000 g / cm^3
# Si number density = 17.409621 Si / 1000 Ang^3
#
#
#
# Elastic Constant Matrix: (Units=GPa)
#
#
# Indices 1 2 3 4 5 6 
#
# 1 95.3668 44.3150 45.0712 0.0000 0.0000 0.0000
# 2 44.3150 95.3668 45.0712 0.0000 0.0000 0.0000
# 3 45.0712 45.0712 63.4010 0.0000 0.0000 0.0000
# 4 0.0000 0.0000 0.0000 9.8558 0.0000 0.0000
# 5 0.0000 0.0000 0.0000 0.0000 9.8558 0.0000
# 6 0.0000 0.0000 0.0000 0.0000 0.0000 25.5259
#
#
#
# Elastic Compliance Matrix: (Units=1/GPa)
#
#
# Indices 1 2 3 4 5 6 
#
# 1 0.016408 -0.003180 -0.009403 0.000000 0.000000 0.000000
# 2 -0.003180 0.016408 -0.009403 0.000000 0.000000 0.000000
# 3 -0.009403 -0.009403 0.029142 0.000000 0.000000 0.000000
# 4 0.000000 0.000000 0.000000 0.101463 0.000000 0.000000
# 5 0.000000 0.000000 0.000000 0.000000 0.101463 0.000000
# 6 0.000000 0.000000 0.000000 0.000000 0.000000 0.039176
#
#
# Mechanical properties :
#
#
# Convention : Reuss Voigt Hill
#
# Bulk Modulus (GPa) = 55.60550 58.11658 56.86104
# Shear Modulus (GPa) = 14.12318 17.02597 15.57457
#
# Velocity S-wave (km/s) = 2.85130 3.13063 2.99422
# Velocity P-wave (km/s) = 6.54589 6.82072 6.68472
#
# Compressibility (1/GPa) = 0.01798383
#
# Stress axis : x y z
#
# Youngs Moduli (GPa) = 60.94702 60.94702 34.31481
#
# Poissons Ratio (x) = 0.19383 0.32267
# Poissons Ratio (y) = 0.19383 0.32267
# Poissons Ratio (z) = 0.57310 0.57310
#
# Static dielectric constant tensor:
#      x y z
#    x 1.598450 0.000000 0.000000 
#    y 0.000000 1.598450 0.000000 
#    z 0.000000 0.000000 1.580680 
# 
# From -- ./inp_files/3329.got.cif
#   From: 2010.05.17/outbox.cif.g08.bks.cpg/sg189_2_cif.got.tgz:3329.got - 2010.05.20 12:14:34.
