data_PCOD9586039
_publ_section_title
;
Structure prediction by ZEFSAII (Michael W. Deem and Ramdas Pophale) SiO2 
 PCOD9586039
Probable space group: P -6 C 2
;
_chemical_formula_sum "Si O2"
_cell_formula_units_Z 84
_cell_length_a 17.306808
_cell_length_b 17.306808
_cell_length_c 14.568878
_cell_angle_alpha 90.000000
_cell_angle_beta 90.000000
_cell_angle_gamma 120.000000
_cell_volume 3779.120062
_symmetry_space_group_name_H-M "P -6 C 2"
_symmetry_group_IT_number 188
_symmetry_cell_setting 'hexagonal'
loop_
_space_group_symop_operation_xyz
x,y,z
-x+y,-x,1/2-z
-y,x-y,z
x,y,1/2-z
-x+y,-x,z
-y,x-y,1/2-z
-y,-x,-z
-x+y,y,-z
x,x-y,-z
-x+y,y,1/2+z
x,x-y,1/2+z
-y,-x,1/2+z
loop_
_atom_site_type_symbol
_atom_site_label
_atom_site_fract_x
_atom_site_fract_y
_atom_site_fract_z
Si Si1 0.243032 0.452040 0.899314
Si Si2 0.415139 0.558395 0.144131
Si Si3 0.833143 0.275741 0.645454
Si Si4 0.984230 0.192965 0.028599
Si Si5 0.703206 0.597220 0.057189
Si Si6 0.103548 0.256340 0.645548
Si Si7 0.947665 0.477818 0.853997
O O1 0.350410 0.510163 0.902169
O O2 0.209535 0.521550 0.875707
O O3 0.187472 0.358139 0.847485
O O4 0.209722 0.419443 0.000000
O O5 0.428695 0.585049 0.250000
O O6 0.438565 0.479612 0.132381
O O7 0.855792 0.261676 0.750000
O O8 0.878683 0.272087 0.550379
O O9 0.735603 0.195290 0.618832
O O10 0.861778 0.379689 0.642787
O O11 0.033023 0.245697 0.934026
O O12 0.903757 0.096244 0.000000
O O13 0.944620 0.245484 0.085725
O O14 0.056515 0.194209 0.098521
O O15 0.598946 0.544809 0.073144
O O16 0.068330 0.230949 0.750000
O O17 0.952586 0.512710 0.750000
#
# Coordination Sequence:
#
# PCOD9586039 Si02
#       7
#    12  12  12  12  12  12  12
#     4  12  24  42  64  98 141 189 236 287 340 396
#     4  11  24  40  63  94 133 182 233 282 332 398
#     4  10  22  39  60  94 131 170 224 276 328 391
#     4  11  24  47  72 102 138 169 224 285 346 423
#     4  11  22  41  68  97 133 180 222 277 339 397
#     4  11  26  47  73 103 138 182 225 281 354 423
#     4  10  23  40  64  98 134 179 229 279 332 398
#
# _framework density 22.227397
#
# number of rings (size 3 to 8) (size 9 to 14) (size 15 to 20)
#    0.000    1.143    2.857    3.714    2.000    4.571 
#    4.286    0.000    0.000    0.000    0.000    0.000 
#    0.000    0.000    0.000    0.000    0.000    0.000 
#
# Total GULP energy -467731.935897 kJ/mol
# GULP energy per Si atom -5568.237332 kJ/mol
# Density = 2.217681 g / cm^3
# Si number density = 22.227397 Si / 1000 Ang^3
#
#
#
# Elastic Constant Matrix: (Units=GPa)
#
#
# Indices 1 2 3 4 5 6 
#
# 1 83.6805 33.5247 11.8252 0.0000 0.0000 0.0000
# 2 33.5247 83.6805 11.8252 0.0000 0.0000 0.0000
# 3 11.8252 11.8252 107.9472 0.0000 0.0000 0.0000
# 4 0.0000 0.0000 0.0000 26.5652 0.0000 0.0000
# 5 0.0000 0.0000 0.0000 0.0000 26.5652 0.0000
# 6 0.0000 0.0000 0.0000 0.0000 0.0000 25.0779
#
#
#
# Elastic Compliance Matrix: (Units=1/GPa)
#
#
# Indices 1 2 3 4 5 6 
#
# 1 0.014331 -0.005606 -0.000956 0.000000 0.000000 0.000000
# 2 -0.005606 0.014331 -0.000956 0.000000 0.000000 0.000000
# 3 -0.000956 -0.000956 0.009473 0.000000 0.000000 0.000000
# 4 0.000000 0.000000 0.000000 0.037643 0.000000 0.000000
# 5 0.000000 0.000000 0.000000 0.000000 0.037643 0.000000
# 6 0.000000 0.000000 0.000000 0.000000 0.000000 0.039876
#
#
# Mechanical properties :
#
#
# Convention : Reuss Voigt Hill
#
# Bulk Modulus (GPa) = 43.29026 43.29538 43.29282
# Shear Modulus (GPa) = 28.40357 30.18387 29.29372
#
# Velocity S-wave (km/s) = 3.57860 3.68905 3.63424
# Velocity P-wave (km/s) = 6.04926 6.13727 6.09342
#
# Compressibility (1/GPa) = 0.02309989
#
# Stress axis : x y z
#
# Youngs Moduli (GPa) = 69.77684 69.77684 105.56100
#
# Poissons Ratio (x) = 0.39120 0.10089
# Poissons Ratio (y) = 0.39120 0.10089
# Poissons Ratio (z) = 0.06669 0.06669
#
# Static dielectric constant tensor:
#      x y z
#    x 1.916300 0.000000 0.000000 
#    y 0.000000 1.916300 0.000000 
#    z 0.000000 0.000000 1.857680 
# 
# From -- ./inp_files/2605.got.cif
#   From: 2010.05.17/outbox.cif.g08.bks.cpg/sg188_2_cif.got.tgz:2605.got - 2010.05.20 12:11:46.
