data_PCOD9586934
_publ_section_title
;
Structure prediction by ZEFSAII (Michael W. Deem and Ramdas Pophale) SiO2 
 PCOD9586934
Probable space group: P -6 2 C
;
_chemical_formula_sum "Si O2"
_cell_formula_units_Z 60
_cell_length_a 15.214401
_cell_length_b 15.214401
_cell_length_c 14.259005
_cell_angle_alpha 90.000000
_cell_angle_beta 90.000000
_cell_angle_gamma 120.000000
_cell_volume 2858.443222
_symmetry_space_group_name_H-M "P -6 2 C"
_symmetry_group_IT_number 190
_symmetry_cell_setting 'hexagonal'
loop_
_space_group_symop_operation_xyz
x,y,z
-x+y,-x,1/2-z
-y,x-y,z
x,y,1/2-z
-x+y,-x,z
-y,x-y,1/2-z
x-y,-y,-z
-x,-x+y,-z
y,x,-z
y,x,1/2+z
x-y,-y,1/2+z
-x,-x+y,1/2+z
loop_
_atom_site_type_symbol
_atom_site_label
_atom_site_fract_x
_atom_site_fract_y
_atom_site_fract_z
Si Si1 0.462628 0.167643 0.142221
Si Si2 0.491212 0.867069 0.944285
Si Si3 0.202677 0.158773 0.855198
Si Si4 0.947393 0.174332 0.095966
Si Si5 0.339018 0.416933 0.361184
O O1 0.491764 0.168439 0.250000
O O2 0.515884 0.119904 0.080371
O O3 0.509595 0.281617 0.103971
O O4 0.340134 0.107475 0.136602
O O5 0.586845 0.962630 0.894881
O O6 0.503058 0.861682 0.056492
O O7 0.187936 0.187702 0.750000
O O8 0.135960 0.192200 0.916059
O O9 0.322140 0.226035 0.874705
O O10 0.172367 0.041840 0.855005
O O11 0.000000 0.229447 0.000000
O O12 0.353748 0.445479 0.250000
#
# Coordination Sequence:
#
# PCOD9586934 Si02
#       5
#    12  12  12  12  12
#     4  12  24  43  68 102 135 173 228 291 344 405
#     4  11  24  42  71  99 131 172 230 284 343 404
#     4  11  22  41  64  92 131 180 218 268 333 406
#     4  12  25  38  63  99 137 174 225 279 336 410
#     4  10  22  44  69  91 132 182 222 271 344 412
#
# _framework density 20.990445000000001
#
# number of rings (size 3 to 8) (size 9 to 14) (size 15 to 20)
#    0.000    0.800    2.000    6.200    5.600    0.000 
#    0.000    1.000    0.000    0.000    0.000    0.000 
#    0.000    0.000    0.000    0.000    0.000    0.000 
#
# Total GULP energy -334893.047606 kJ/mol
# GULP energy per Si atom -5581.550793 kJ/mol
# Density = 2.094267 g / cm^3
# Si number density = 20.990445 Si / 1000 Ang^3
#
#
#
# Elastic Constant Matrix: (Units=GPa)
#
#
# Indices 1 2 3 4 5 6 
#
# 1 63.9182 54.9592 35.7492 0.0000 0.0000 0.0000
# 2 54.9592 63.9182 35.7492 0.0000 0.0000 0.0000
# 3 35.7492 35.7492 144.5852 0.0000 0.0000 0.0000
# 4 0.0000 0.0000 0.0000 27.8149 0.0000 0.0000
# 5 0.0000 0.0000 0.0000 0.0000 27.8149 0.0000
# 6 0.0000 0.0000 0.0000 0.0000 0.0000 4.4795
#
#
#
# Elastic Compliance Matrix: (Units=1/GPa)
#
#
# Indices 1 2 3 4 5 6 
#
# 1 0.060751 -0.050869 -0.002443 0.000000 0.000000 0.000000
# 2 -0.050869 0.060751 -0.002443 0.000000 0.000000 0.000000
# 3 -0.002443 -0.002443 0.008125 0.000000 0.000000 0.000000
# 4 0.000000 0.000000 0.000000 0.035952 0.000000 0.000000
# 5 0.000000 0.000000 0.000000 0.000000 0.035952 0.000000
# 6 0.000000 0.000000 0.000000 0.000000 0.000000 0.223241
#
#
# Mechanical properties :
#
#
# Convention : Reuss Voigt Hill
#
# Bulk Modulus (GPa) = 55.20411 58.37076 56.78744
# Shear Modulus (GPa) = 9.21963 21.75277 15.48620
#
# Velocity S-wave (km/s) = 2.09805 3.22268 2.71915
# Velocity P-wave (km/s) = 5.67678 6.45881 6.08038
#
# Compressibility (1/GPa) = 0.01811459
#
# Stress axis : x y z
#
# Youngs Moduli (GPa) = 16.46065 16.46065 123.08396
#
# Poissons Ratio (x) = 0.83734 0.30072
# Poissons Ratio (y) = 0.83734 0.30072
# Poissons Ratio (z) = 0.04022 0.04022
#
# Static dielectric constant tensor:
#      x y z
#    x 1.805220 0.000000 0.000000 
#    y 0.000000 1.805220 0.000000 
#    z 0.000000 0.000000 1.825850 
# 
# From -- ./inp_files/2792.got.cif
#   From: 2010.05.17/outbox.cif.g08.bks.cpg/sg190_2_cif.got.tgz:2792.got - 2010.05.20 12:16:56.
