data_PCOD9586102
_publ_section_title
;
Structure prediction by ZEFSAII (Michael W. Deem and Ramdas Pophale) SiO2 
 PCOD9586102
Probable space group: P -6 2 M
;
_chemical_formula_sum "Si O2"
_cell_formula_units_Z 60
_cell_length_a 20.714763
_cell_length_b 20.714763
_cell_length_c 7.733231
_cell_angle_alpha 90.000000
_cell_angle_beta 90.000000
_cell_angle_gamma 120.000000
_cell_volume 2873.766995
_symmetry_space_group_name_H-M "P -6 2 M"
_symmetry_group_IT_number 189
_symmetry_cell_setting 'hexagonal'
loop_
_space_group_symop_operation_xyz
x,y,z
-x+y,-x,-z
-y,x-y,z
x,y,-z
-x+y,-x,z
-y,x-y,-z
x-y,-y,-z
-x,-x+y,-z
y,x,-z
y,x,z
x-y,-y,z
-x,-x+y,z
loop_
_atom_site_type_symbol
_atom_site_label
_atom_site_fract_x
_atom_site_fract_y
_atom_site_fract_z
Si Si1 0.171523 0.086201 0.711785
Si Si2 0.188754 0.852648 0.290089
Si Si3 0.342312 0.000000 0.708197
Si Si4 0.490688 0.000000 0.797638
Si Si5 0.258548 0.759448 0.299249
Si Si6 0.407737 0.571702 0.798411
O O1 0.171693 0.085827 0.500000
O O2 0.121477 0.121477 0.766809
O O3 0.257136 0.135309 0.770998
O O4 0.135545 0.000000 0.765080
O O5 0.182337 0.848603 0.500000
O O6 0.265638 0.927044 0.244625
O O7 0.201345 0.785488 0.231992
O O8 0.349493 0.000000 0.500000
O O9 0.413172 0.000000 0.785852
O O10 0.552916 0.079810 0.724151
O O11 0.508435 0.000000 0.000000
O O12 0.273001 0.781436 0.500000
O O13 0.220615 0.670972 0.285101
O O14 0.339690 0.803003 0.214421
O O15 0.392351 0.552938 0.000000
#
# Coordination Sequence:
#
# PCOD9586102 Si02
#       6
#    12  12   6   6  12  12
#     4   9  15  24  40  66 103 145 181 211 251 306
#     4   9  17  29  48  74 104 138 176 218 265 311
#     4  10  16  30  56  80 106 137 172 222 274 317
#     4  10  22  38  58  82 108 139 180 224 272 329
#     4  11  22  37  57  82 108 140 182 226 272 326
#     4  11  23  40  59  81 110 145 181 224 276 330
#
# _framework density 20.878518
#
# number of rings (size 3 to 8) (size 9 to 14) (size 15 to 20)
#    0.000    2.000    3.000    1.800    0.000    1.600 
#    1.800    0.000    0.000    0.000    0.000    0.000 
#    0.000    0.000    0.000    0.000    0.000    0.000 
#
# Total GULP energy -334900.383507 kJ/mol
# GULP energy per Si atom -5581.673058 kJ/mol
# Density = 2.083100 g / cm^3
# Si number density = 20.878518 Si / 1000 Ang^3
#
#
#
# Elastic Constant Matrix: (Units=GPa)
#
#
# Indices 1 2 3 4 5 6 
#
# 1 103.4865 33.5807 -4.2309 0.0000 0.0000 0.0000
# 2 33.5807 103.4865 -4.2309 0.0000 0.0000 0.0000
# 3 -4.2309 -4.2309 32.1660 0.0000 0.0000 0.0000
# 4 0.0000 0.0000 0.0000 -1.6788 0.0000 0.0000
# 5 0.0000 0.0000 0.0000 0.0000 -1.6788 0.0000
# 6 0.0000 0.0000 0.0000 0.0000 0.0000 34.9529
#
#
#
# Elastic Compliance Matrix: (Units=1/GPa)
#
#
# Indices 1 2 3 4 5 6 
#
# 1 0.010830 -0.003475 0.000967 0.000000 0.000000 0.000000
# 2 -0.003475 0.010830 0.000967 0.000000 0.000000 0.000000
# 3 0.000967 0.000967 0.031343 0.000000 0.000000 0.000000
# 4 0.000000 0.000000 0.000000 -0.595673 0.000000 0.000000
# 5 0.000000 0.000000 0.000000 0.000000 -0.595673 0.000000
# 6 0.000000 0.000000 0.000000 0.000000 0.000000 0.028610
#
#
# Mechanical properties :
#
#
# Convention : Reuss Voigt Hill
#
# Bulk Modulus (GPa) = 20.03042 32.15298 26.09170
# Shear Modulus (GPa) = -4.58711 20.58709 7.99999
#
# Velocity S-wave (km/s) = -1.48385 3.14354 1.95959
# Velocity P-wave (km/s) = 2.58435 5.34876 4.20048
#
# Compressibility (1/GPa) = 0.04992406
#
# Stress axis : x y z
#
# Youngs Moduli (GPa) = 92.33451 92.33451 31.90477
#
# Poissons Ratio (x) = 0.32084 -0.03087
# Poissons Ratio (y) = 0.32084 -0.03087
# Poissons Ratio (z) = -0.08933 -0.08933
#
# Static dielectric constant tensor:
#      x y z
#    x 1.730790 0.000000 0.000000 
#    y 0.000000 1.730790 0.000000 
#    z 0.000000 0.000000 1.753540 
# 
# From -- ./inp_files/935.got.cif
#   From: 2010.05.17/outbox.cif.g08.bks.cpg/sg189_1_cif.got.tgz:935.got - 2010.05.20 12:14:34.
