data_PCOD9586184
_publ_section_title
;
Structure prediction by ZEFSAII (Michael W. Deem and Ramdas Pophale) SiO2 
 PCOD9586184
Probable space group: P -6 2 M
;
_chemical_formula_sum "Si O2"
_cell_formula_units_Z 72
_cell_length_a 24.717399
_cell_length_b 24.717399
_cell_length_c 8.021982
_cell_angle_alpha 90.000000
_cell_angle_beta 90.000000
_cell_angle_gamma 120.000000
_cell_volume 4244.415104
_symmetry_space_group_name_H-M "P -6 2 M"
_symmetry_group_IT_number 189
_symmetry_cell_setting 'hexagonal'
loop_
_space_group_symop_operation_xyz
x,y,z
-x+y,-x,-z
-y,x-y,z
x,y,-z
-x+y,-x,z
-y,x-y,-z
x-y,-y,-z
-x,-x+y,-z
y,x,-z
y,x,z
x-y,-y,z
-x,-x+y,z
loop_
_atom_site_type_symbol
_atom_site_label
_atom_site_fract_x
_atom_site_fract_y
_atom_site_fract_z
Si Si1 0.190788 0.261554 0.201251
Si Si2 0.144728 0.404786 0.301644
Si Si3 0.859389 0.595191 0.800129
Si Si4 0.927577 0.522927 0.796642
Si Si5 0.071408 0.473387 0.799036
Si Si6 0.191354 0.929378 0.701015
O O1 0.218030 0.218030 0.260619
O O2 0.234187 0.333215 0.261696
O O3 0.120332 0.240979 0.250867
O O4 0.193589 0.262967 0.000000
O O5 0.145694 0.401292 0.500000
O O6 0.214052 0.426003 0.239142
O O7 0.117020 0.448614 0.254014
O O8 0.099801 0.333675 0.237884
O O9 0.884606 0.550488 0.736334
O O10 0.866263 0.597794 0.000000
O O11 0.910853 0.453715 0.741816
O O12 0.000000 0.569150 0.751643
O O13 0.925310 0.521518 0.000000
O O14 0.000000 0.426785 0.741978
O O15 0.070177 0.473760 0.000000
O O16 0.194705 0.931515 0.500000
O O17 0.218886 0.000000 0.762248
#
# Coordination Sequence:
#
# PCOD9586184 Si02
#       6
#    12  12  12  12  12  12
#     4   9  17  28  44  68  93 114 139 174 217 262
#     4  10  19  30  44  64  92 122 149 180 220 262
#     4   9  16  28  47  68  90 117 147 178 214 259
#     4   8  14  26  46  70  92 114 142 179 221 262
#     4   9  17  29  46  68  91 115 147 185 222 263
#     4   9  18  31  45  62  86 117 150 180 212 254
#
# _framework density 16.963467999999999
#
# number of rings (size 3 to 8) (size 9 to 14) (size 15 to 20)
#    0.000    3.000    0.000    2.500    0.000    4.333 
#    0.000    0.833    0.000    3.500    0.000    2.333 
#    0.000    0.000    0.000    0.000    0.000    0.000 
#
# Total GULP energy -401209.873832 kJ/mol
# GULP energy per Si atom -5572.359359 kJ/mol
# Density = 1.692486 g / cm^3
# Si number density = 16.963468 Si / 1000 Ang^3
#
#
#
# Elastic Constant Matrix: (Units=GPa)
#
#
# Indices 1 2 3 4 5 6 
#
# 1 145.3472 96.6381 4.8204 0.0000 0.0000 0.0000
# 2 96.6381 145.3472 4.8204 0.0000 0.0000 0.0000
# 3 4.8204 4.8204 7.0897 0.0000 0.0000 0.0000
# 4 0.0000 0.0000 0.0000 6.9458 0.0000 0.0000
# 5 0.0000 0.0000 0.0000 0.0000 6.9458 0.0000
# 6 0.0000 0.0000 0.0000 0.0000 0.0000 24.3545
#
#
#
# Elastic Compliance Matrix: (Units=1/GPa)
#
#
# Indices 1 2 3 4 5 6 
#
# 1 0.012389 -0.008141 -0.002888 0.000000 0.000000 0.000000
# 2 -0.008141 0.012389 -0.002888 0.000000 0.000000 0.000000
# 3 -0.002888 -0.002888 0.144978 0.000000 0.000000 0.000000
# 4 0.000000 0.000000 0.000000 0.143971 0.000000 0.000000
# 5 0.000000 0.000000 0.000000 0.000000 0.143971 0.000000
# 6 0.000000 0.000000 0.000000 0.000000 0.000000 0.041060
#
#
# Mechanical properties :
#
#
# Convention : Reuss Voigt Hill
#
# Bulk Modulus (GPa) = 7.04619 56.70465 31.87542
# Shear Modulus (GPa) = 8.71234 20.41625 14.56430
#
# Velocity S-wave (km/s) = 2.26872 3.47297 2.93331
# Velocity P-wave (km/s) = 3.32047 7.04146 5.50489
#
# Compressibility (1/GPa) = 0.14192069
#
# Stress axis : x y z
#
# Youngs Moduli (GPa) = 80.71810 80.71810 6.89762
#
# Poissons Ratio (x) = 0.65715 0.01992
# Poissons Ratio (y) = 0.65715 0.01992
# Poissons Ratio (z) = 0.23311 0.23311
#
# Static dielectric constant tensor:
#      x y z
#    x 1.569630 0.000000 0.000000 
#    y 0.000000 1.569630 0.000000 
#    z 0.000000 0.000000 1.605880 
# 
# From -- ./inp_files/1215.got.cif
#   From: 2010.05.17/outbox.cif.g08.bks.cpg/sg189_1_cif.got.tgz:1215.got - 2010.05.20 12:14:34.
