data_PCOD9586508
_publ_section_title
;
Structure prediction by ZEFSAII (Michael W. Deem and Ramdas Pophale) SiO2 
 PCOD9586508
Probable space group: P -6 2 M
;
_chemical_formula_sum "Si O2"
_cell_formula_units_Z 22
_cell_length_a 13.488895
_cell_length_b 13.488895
_cell_length_c 7.812487
_cell_angle_alpha 90.000000
_cell_angle_beta 90.000000
_cell_angle_gamma 120.000000
_cell_volume 1231.041482
_symmetry_space_group_name_H-M "P -6 2 M"
_symmetry_group_IT_number 189
_symmetry_cell_setting 'hexagonal'
loop_
_space_group_symop_operation_xyz
x,y,z
-x+y,-x,-z
-y,x-y,z
x,y,-z
-x+y,-x,z
-y,x-y,-z
x-y,-y,-z
-x,-x+y,-z
y,x,-z
y,x,z
x-y,-y,z
-x,-x+y,z
loop_
_atom_site_type_symbol
_atom_site_label
_atom_site_fract_x
_atom_site_fract_y
_atom_site_fract_z
Si Si1 0.666667 0.333333 0.794915
Si Si2 0.864154 0.728313 0.000000
Si Si3 0.866730 0.576757 0.696525
O O1 0.781644 0.443541 0.729859
O O2 0.666667 0.333334 0.000000
O O3 0.839999 0.649072 0.166764
O O4 0.790989 0.790989 0.000000
O O5 0.000000 0.819278 0.000000
O O6 0.854229 0.604032 0.500000
O O7 0.000000 0.614932 0.722773
#
# Coordination Sequence:
#
# PCOD9586508 Si02
#       3
#     4   6  12
#     4  12  22  38  64  88 116 154 193 233 289 346
#     4  10  21  38  60  86 117 152 194 240 288 340
#     4  10  22  40  60  85 119 154 191 237 285 339
#
# _framework density 17.871046
#
# number of rings (size 3 to 8) (size 9 to 14) (size 15 to 20)
#    0.000    1.636    2.727    1.909    0.000    3.273 
#    0.000    0.000    0.000    3.273    0.000    0.000 
#    0.000    0.000    0.000    0.000    0.000    0.000 
#
# Total GULP energy -122851.856118 kJ/mol
# GULP energy per Si atom -5584.175278 kJ/mol
# Density = 1.783037 g / cm^3
# Si number density = 17.871046 Si / 1000 Ang^3
#
#
#
# Elastic Constant Matrix: (Units=GPa)
#
#
# Indices 1 2 3 4 5 6 
#
# 1 107.6373 64.8713 59.0883 0.0000 0.0002 0.0002
# 2 64.8713 107.6389 59.0887 0.0000 0.0001 0.0003
# 3 59.0883 59.0887 153.4793 -0.0001 0.0000 0.0001
# 4 0.0000 0.0000 -0.0001 14.2903 0.0000 0.0000
# 5 0.0002 0.0001 0.0000 0.0000 14.2905 0.0000
# 6 0.0002 0.0003 0.0001 0.0000 0.0000 21.3837
#
#
#
# Elastic Compliance Matrix: (Units=1/GPa)
#
#
# Indices 1 2 3 4 5 6 
#
# 1 0.015628 -0.007755 -0.003031 0.000000 0.000000 0.000000
# 2 -0.007755 0.015628 -0.003031 0.000000 0.000000 0.000000
# 3 -0.003031 -0.003031 0.008849 0.000000 0.000000 0.000000
# 4 0.000000 0.000000 0.000000 0.069978 0.000000 0.000000
# 5 0.000000 0.000000 0.000000 0.000000 0.069977 0.000000
# 6 0.000000 0.000000 0.000000 0.000000 0.000000 0.046765
#
#
# Mechanical properties :
#
#
# Convention : Reuss Voigt Hill
#
# Bulk Modulus (GPa) = 80.18348 81.65026 80.91687
# Shear Modulus (GPa) = 19.33373 22.37337 20.85355
#
# Velocity S-wave (km/s) = 3.29271 3.54211 3.41968
# Velocity P-wave (km/s) = 7.70851 7.90673 7.80825
#
# Compressibility (1/GPa) = 0.01247140
#
# Stress axis : x y z
#
# Youngs Moduli (GPa) = 63.98740 63.98837 113.00091
#
# Poissons Ratio (x) = 0.49621 0.34253
# Poissons Ratio (y) = 0.49620 0.34252
# Poissons Ratio (z) = 0.19396 0.19396
#
# Static dielectric constant tensor:
#      x y z
#    x 1.579890 0.000000 0.000000 
#    y 0.000000 1.579890 0.000000 
#    z 0.000000 0.000000 1.621190 
# 
# From -- ./inp_files/179.got.cif
#   From: 2010.05.17/outbox.cif.g08.bks.cpg/sg189_1_cif.got.tgz:179.got - 2010.05.20 12:14:34.
