data_PCOD9586172
_publ_section_title
;
Structure prediction by ZEFSAII (Michael W. Deem and Ramdas Pophale) SiO2 
 PCOD9586172
Probable space group: P -6 2 M
;
_chemical_formula_sum "Si O2"
_cell_formula_units_Z 72
_cell_length_a 23.744307
_cell_length_b 23.744307
_cell_length_c 7.587623
_cell_angle_alpha 90.000000
_cell_angle_beta 90.000000
_cell_angle_gamma 120.000000
_cell_volume 3704.719861
_symmetry_space_group_name_H-M "P -6 2 M"
_symmetry_group_IT_number 189
_symmetry_cell_setting 'hexagonal'
loop_
_space_group_symop_operation_xyz
x,y,z
-x+y,-x,-z
-y,x-y,z
x,y,-z
-x+y,-x,z
-y,x-y,-z
x-y,-y,-z
-x,-x+y,-z
y,x,-z
y,x,z
x-y,-y,z
-x,-x+y,z
loop_
_atom_site_type_symbol
_atom_site_label
_atom_site_fract_x
_atom_site_fract_y
_atom_site_fract_z
Si Si1 0.432053 0.357891 0.709417
Si Si2 0.691185 0.691185 0.292493
Si Si3 0.176482 0.000000 0.212852
Si Si4 0.433146 0.133604 0.202550
Si Si5 0.781771 0.925095 0.215848
Si Si6 0.157611 0.790811 0.205542
Si Si7 0.074742 0.515707 0.787905
O O1 0.423722 0.351076 0.500000
O O2 0.390747 0.390747 0.777522
O O3 0.404189 0.286552 0.784437
O O4 0.506940 0.410003 0.747065
O O5 0.678217 0.678217 0.500000
O O6 0.758235 0.758235 0.268133
O O7 0.696093 0.632404 0.207294
O O8 0.182396 0.067777 0.270471
O O9 0.175717 0.000000 0.000000
O O10 0.410791 0.181424 0.285340
O O11 0.487933 0.119911 0.280960
O O12 0.453044 0.154826 0.000000
O O13 0.706561 0.884665 0.276854
O O14 0.817887 0.000000 0.273848
O O15 0.781292 0.926190 0.000000
O O16 0.168505 0.810887 0.000000
O O17 0.000000 0.472280 0.722504
O O18 0.072004 0.508623 0.000000
#
# Coordination Sequence:
#
# PCOD9586172 Si02
#       7
#    12   6   6  12  12  12  12
#     4  10  21  35  50  72 107 141 169 206 255 305
#     4  12  22  30  48  78 110 136 167 208 257 320
#     4  10  18  34  52  68 104 142 175 220 271 322
#     4  10  19  34  55  79 105 135 169 210 259 306
#     4   9  17  29  49  75  99 131 175 225 273 314
#     4  10  19  32  54  76 100 133 176 223 261 304
#     4   9  17  31  54  78 100 128 165 204 244 298
#
# _framework density 19.434667999999999
#
# number of rings (size 3 to 8) (size 9 to 14) (size 15 to 20)
#    0.000    2.167    2.500    1.750    0.000    3.000 
#    0.500    0.000    0.000    1.167    0.000    2.333 
#    0.000    0.000    0.000    0.000    0.000    0.000 
#
# Total GULP energy -401757.233123 kJ/mol
# GULP energy per Si atom -5579.961571 kJ/mol
# Density = 1.939043 g / cm^3
# Si number density = 19.434668 Si / 1000 Ang^3
#
#
#
# Elastic Constant Matrix: (Units=GPa)
#
#
# Indices 1 2 3 4 5 6 
#
# 1 136.1618 77.7013 -5.2356 0.0000 0.0000 0.0000
# 2 77.7013 136.1618 -5.2356 0.0000 0.0000 0.0000
# 3 -5.2356 -5.2356 48.8986 0.0000 0.0000 0.0000
# 4 0.0000 0.0000 0.0000 -31.8984 0.0000 0.0000
# 5 0.0000 0.0000 0.0000 0.0000 -31.8984 0.0000
# 6 0.0000 0.0000 0.0000 0.0000 0.0000 29.2302
#
#
#
# Elastic Compliance Matrix: (Units=1/GPa)
#
#
# Indices 1 2 3 4 5 6 
#
# 1 0.010903 -0.006203 0.000503 0.000000 0.000000 0.000000
# 2 -0.006203 0.010903 0.000503 0.000000 0.000000 0.000000
# 3 0.000503 0.000503 0.020558 0.000000 0.000000 0.000000
# 4 0.000000 0.000000 0.000000 -0.031350 0.000000 0.000000
# 5 0.000000 0.000000 0.000000 0.000000 -0.031350 0.000000
# 6 0.000000 0.000000 0.000000 0.000000 0.000000 0.034211
#
#
# Mechanical properties :
#
#
# Convention : Reuss Voigt Hill
#
# Bulk Modulus (GPa) = 31.27692 50.63141 40.95417
# Shear Modulus (GPa) = 143.16076 10.01950 76.59013
#
# Velocity S-wave (km/s) = 8.59200 2.27303 6.28447
# Velocity P-wave (km/s) = 10.70319 5.74435 8.58941
#
# Compressibility (1/GPa) = 0.03197245
#
# Stress axis : x y z
#
# Youngs Moduli (GPa) = 91.71745 91.71745 48.64224
#
# Poissons Ratio (x) = 0.56888 -0.02448
# Poissons Ratio (y) = 0.56888 -0.02448
# Poissons Ratio (z) = -0.04616 -0.04616
#
# Static dielectric constant tensor:
#      x y z
#    x 1.672450 0.000000 0.000000 
#    y 0.000000 1.672450 0.000000 
#    z 0.000000 0.000000 1.724720 
# 
# From -- ./inp_files/1374.got.cif
#   From: 2010.05.17/outbox.cif.g08.bks.cpg/sg189_1_cif.got.tgz:1374.got - 2010.05.20 12:14:34.
