data_PCOD9586787
_publ_section_title
;
Structure prediction by ZEFSAII (Michael W. Deem and Ramdas Pophale) SiO2 
 PCOD9586787
Probable space group: P -6 2 C
;
_chemical_formula_sum "Si O2"
_cell_formula_units_Z 64
_cell_length_a 16.455488
_cell_length_b 16.455488
_cell_length_c 16.768149
_cell_angle_alpha 90.000000
_cell_angle_beta 90.000000
_cell_angle_gamma 120.000000
_cell_volume 3932.215298
_symmetry_space_group_name_H-M "P -6 2 C"
_symmetry_group_IT_number 190
_symmetry_cell_setting 'hexagonal'
loop_
_space_group_symop_operation_xyz
x,y,z
-x+y,-x,1/2-z
-y,x-y,z
x,y,1/2-z
-x+y,-x,z
-y,x-y,1/2-z
x-y,-y,-z
-x,-x+y,-z
y,x,-z
y,x,1/2+z
x-y,-y,1/2+z
-x,-x+y,1/2+z
loop_
_atom_site_type_symbol
_atom_site_label
_atom_site_fract_x
_atom_site_fract_y
_atom_site_fract_z
Si Si1 0.516387 0.832353 0.089139
Si Si2 0.581612 0.963254 0.844311
Si Si3 0.542868 0.778264 0.587692
Si Si4 0.347791 0.841841 0.341306
Si Si5 0.561567 0.618113 0.655301
Si Si6 0.333335 0.666667 0.844818
O O1 0.521529 0.758890 0.148571
O O2 0.413722 0.821554 0.100838
O O3 0.587886 0.940445 0.109770
O O4 0.533626 0.802848 0.002889
O O5 0.592644 0.981475 0.750000
O O6 0.596567 0.877542 0.867183
O O7 0.473063 0.933008 0.863757
O O8 0.581826 0.707643 0.603438
O O9 0.438909 0.721753 0.624358
O O10 0.379695 0.842693 0.250000
O O11 0.367010 0.946231 0.357246
O O12 0.560816 0.638964 0.750000
O O13 0.333334 0.666668 0.750000
#
# Coordination Sequence:
#
# PCOD9586787 Si02
#       6
#    12  12  12  12  12   4
#     4  11  22  34  50  74  99 135 175 217 264 302
#     4  10  20  35  53  70  99 137 173 213 256 315
#     4  12  21  32  48  76 105 130 169 216 267 308
#     4  10  20  36  54  70  98 137 182 219 251 310
#     4   9  19  33  51  72  96 133 174 213 259 309
#     4  12  21  30  48  69  97 137 172 204 258 324
#
# _framework density 16.275811999999998
#
# number of rings (size 3 to 8) (size 9 to 14) (size 15 to 20)
#    0.000    1.500    1.875    6.562    0.000    0.750 
#    0.000    0.000    0.000    0.000    0.000    0.000 
#    1.875    0.000    3.375    0.000    3.375    0.000 
#
# Total GULP energy -357396.551764 kJ/mol
# GULP energy per Si atom -5584.321121 kJ/mol
# Density = 1.623877 g / cm^3
# Si number density = 16.275812 Si / 1000 Ang^3
#
#
#
# Elastic Constant Matrix: (Units=GPa)
#
#
# Indices 1 2 3 4 5 6 
#
# 1 93.4615 39.7687 31.0645 0.0001 0.0000 0.0001
# 2 39.7687 93.4600 31.0631 -0.0001 -0.0001 -0.0001
# 3 31.0645 31.0631 78.6240 -0.0001 -0.0001 -0.0003
# 4 0.0001 -0.0001 -0.0001 25.4299 0.0000 0.0000
# 5 0.0000 -0.0001 -0.0001 0.0000 25.4301 -0.0001
# 6 0.0001 -0.0001 -0.0003 0.0000 -0.0001 26.8458
#
#
#
# Elastic Compliance Matrix: (Units=1/GPa)
#
#
# Indices 1 2 3 4 5 6 
#
# 1 0.013913 -0.004712 -0.003635 0.000000 0.000000 0.000000
# 2 -0.004712 0.013913 -0.003635 0.000000 0.000000 0.000000
# 3 -0.003635 -0.003635 0.015591 0.000000 0.000000 0.000000
# 4 0.000000 0.000000 0.000000 0.039324 0.000000 0.000000
# 5 0.000000 0.000000 0.000000 0.000000 0.039324 0.000000
# 6 0.000000 0.000000 0.000000 0.000000 0.000000 0.037250
#
#
# Mechanical properties :
#
#
# Convention : Reuss Voigt Hill
#
# Bulk Modulus (GPa) = 51.40777 52.14869 51.77823
# Shear Modulus (GPa) = 26.34864 26.45109 26.39987
#
# Velocity S-wave (km/s) = 4.02790 4.03572 4.03181
# Velocity P-wave (km/s) = 7.29972 7.33664 7.31820
#
# Compressibility (1/GPa) = 0.01945231
#
# Stress axis : x y z
#
# Youngs Moduli (GPa) = 71.87596 71.87561 64.13833
#
# Poissons Ratio (x) = 0.33867 0.23317
# Poissons Ratio (y) = 0.33867 0.23315
# Poissons Ratio (z) = 0.26130 0.26128
#
# Static dielectric constant tensor:
#      x y z
#    x 1.543320 0.000000 0.000000 
#    y 0.000000 1.543320 0.000000 
#    z 0.000000 0.000000 1.592570 
# 
# From -- ./inp_files/3654.got.cif
#   From: 2010.05.17/outbox.cif.g08.bks.cpg/sg190_2_cif.got.tgz:3654.got - 2010.05.20 12:16:56.
