data_PCOD9586036
_publ_section_title
;
Structure prediction by ZEFSAII (Michael W. Deem and Ramdas Pophale) SiO2 
 PCOD9586036
Probable space group: P -6 C 2
;
_chemical_formula_sum "Si O2"
_cell_formula_units_Z 72
_cell_length_a 16.284875
_cell_length_b 16.284875
_cell_length_c 17.657401
_cell_angle_alpha 90.000000
_cell_angle_beta 90.000000
_cell_angle_gamma 120.000000
_cell_volume 4055.330653
_symmetry_space_group_name_H-M "P -6 C 2"
_symmetry_group_IT_number 188
_symmetry_cell_setting 'hexagonal'
loop_
_space_group_symop_operation_xyz
x,y,z
-x+y,-x,1/2-z
-y,x-y,z
x,y,1/2-z
-x+y,-x,z
-y,x-y,1/2-z
-y,-x,-z
-x+y,y,-z
x,x-y,-z
-x+y,y,1/2+z
x,x-y,1/2+z
-y,-x,1/2+z
loop_
_atom_site_type_symbol
_atom_site_label
_atom_site_fract_x
_atom_site_fract_y
_atom_site_fract_z
Si Si1 0.522484 0.855030 0.660715
Si Si2 0.830769 0.661539 0.340829
Si Si3 0.941152 0.376845 0.090084
Si Si4 0.332546 0.855030 0.839285
Si Si5 0.120156 0.060078 0.341738
Si Si6 0.941152 0.564308 0.090084
O O1 0.546660 0.877050 0.750000
O O2 0.538952 0.769476 0.639144
O O3 0.412065 0.824130 0.653138
O O4 0.580940 0.949309 0.612577
O O5 0.831962 0.663924 0.250000
O O6 0.723473 0.605596 0.369870
O O7 0.885935 0.771871 0.368853
O O8 0.882123 0.605596 0.369870
O O9 0.916073 0.458036 0.113704
O O10 0.929084 0.365277 0.000000
O O11 0.330390 0.877050 0.750000
O O12 0.368368 0.949309 0.887423
O O13 0.124791 0.062396 0.250000
O O14 0.051432 0.948568 0.363149
#
# Coordination Sequence:
#
# PCOD9586036 Si02
#       6
#    12  12  12  12  12  12
#     4   9  17  31  53  81 112 145 182 225 270 319
#     4  11  21  35  61  87 107 139 183 235 288 335
#     4  10  22  39  55  75 108 147 185 227 278 339
#     4   9  17  31  53  81 112 145 182 225 270 319
#     4   7  14  31  53  81 115 143 171 211 264 333
#     4  10  22  39  55  75 108 147 185 227 278 339
#
# _framework density 17.75441
#
# number of rings (size 3 to 8) (size 9 to 14) (size 15 to 20)
#    0.333    2.333    0.000    1.833    0.000    5.333 
#    1.000    3.333    0.000    5.000    0.000    0.000 
#    0.000    0.000    0.000    0.000    0.000    0.000 
#
# Total GULP energy -401161.319383 kJ/mol
# GULP energy per Si atom -5571.684991 kJ/mol
# Density = 1.771400 g / cm^3
# Si number density = 17.754410 Si / 1000 Ang^3
#
#
#
# Elastic Constant Matrix: (Units=GPa)
#
#
# Indices 1 2 3 4 5 6 
#
# 1 117.5221 94.1479 42.1969 0.0000 0.0000 0.0000
# 2 94.1479 117.5221 42.1969 0.0000 0.0000 0.0000
# 3 42.1969 42.1969 36.1648 0.0000 0.0000 0.0000
# 4 0.0000 0.0000 0.0000 16.9270 0.0000 0.0000
# 5 0.0000 0.0000 0.0000 0.0000 16.9270 0.0000
# 6 0.0000 0.0000 0.0000 0.0000 0.0000 11.6871
#
#
#
# Elastic Compliance Matrix: (Units=1/GPa)
#
#
# Indices 1 2 3 4 5 6 
#
# 1 0.025808 -0.016974 -0.010307 0.000000 0.000000 0.000000
# 2 -0.016974 0.025808 -0.010307 0.000000 0.000000 0.000000
# 3 -0.010307 -0.010307 0.051704 0.000000 0.000000 0.000000
# 4 0.000000 0.000000 0.000000 0.059077 0.000000 0.000000
# 5 0.000000 0.000000 0.000000 0.000000 0.059077 0.000000
# 6 0.000000 0.000000 0.000000 0.000000 0.000000 0.085565
#
#
# Mechanical properties :
#
#
# Convention : Reuss Voigt Hill
#
# Bulk Modulus (GPa) = 35.53317 69.81025 52.67171
# Shear Modulus (GPa) = 12.76818 15.28602 14.02710
#
# Velocity S-wave (km/s) = 2.68462 2.93741 2.81385
# Velocity P-wave (km/s) = 5.44672 7.13511 6.34730
#
# Compressibility (1/GPa) = 0.02814272
#
# Stress axis : x y z
#
# Youngs Moduli (GPa) = 38.74751 38.74751 19.34074
#
# Poissons Ratio (x) = 0.65771 0.19935
# Poissons Ratio (y) = 0.65771 0.19935
# Poissons Ratio (z) = 0.39938 0.39938
#
# Static dielectric constant tensor:
#      x y z
#    x 1.600110 0.000000 0.000000 
#    y 0.000000 1.600110 0.000000 
#    z 0.000000 0.000000 1.599950 
# 
# From -- ./inp_files/3184.got.cif
#   From: 2010.05.17/outbox.cif.g08.bks.cpg/sg188_2_cif.got.tgz:3184.got - 2010.05.20 12:11:46.
