data_PCOD9586715
_publ_section_title
;
Structure prediction by ZEFSAII (Michael W. Deem and Ramdas Pophale) SiO2 
 PCOD9586715
Probable space group: P -6 2 C
;
_chemical_formula_sum "Si O2"
_cell_formula_units_Z 52
_cell_length_a 13.801577
_cell_length_b 13.801577
_cell_length_c 14.237685
_cell_angle_alpha 90.000000
_cell_angle_beta 90.000000
_cell_angle_gamma 120.000000
_cell_volume 2348.699403
_symmetry_space_group_name_H-M "P -6 2 C"
_symmetry_group_IT_number 190
_symmetry_cell_setting 'hexagonal'
loop_
_space_group_symop_operation_xyz
x,y,z
-x+y,-x,1/2-z
-y,x-y,z
x,y,1/2-z
-x+y,-x,z
-y,x-y,1/2-z
x-y,-y,-z
-x,-x+y,-z
y,x,-z
y,x,1/2+z
x-y,-y,1/2+z
-x,-x+y,1/2+z
loop_
_atom_site_type_symbol
_atom_site_label
_atom_site_fract_x
_atom_site_fract_y
_atom_site_fract_z
Si Si1 0.440275 0.218583 0.955221
Si Si2 0.000000 0.000000 0.388794
Si Si3 0.951915 0.757059 0.647831
Si Si4 0.454713 0.915531 0.361943
Si Si5 0.865386 0.544906 0.356036
O O1 0.310292 0.177700 0.936019
O O2 0.467023 0.126770 0.916651
O O3 0.500581 0.332910 0.893934
O O4 0.479576 0.257580 0.061521
O O5 0.106283 0.113741 0.356203
O O6 0.000000 0.000000 0.500000
O O7 0.895203 0.711826 0.750000
O O8 0.055574 0.735348 0.644890
O O9 0.437646 0.907031 0.250000
O O10 0.551226 0.043309 0.381825
O O11 0.822629 0.507995 0.250000
#
# Coordination Sequence:
#
# PCOD9586715 Si02
#       5
#    12   4  12  12  12
#     4  11  20  37  62  89 120 159 202 251 306 360
#     4  12  22  35  55  84 121 161 197 236 289 360
#     4  10  20  36  58  85 119 158 197 242 295 355
#     4  10  19  33  59  92 119 152 202 258 307 355
#     4   9  20  39  60  84 121 162 199 245 307 370
#
# _framework density 22.139913
#
# number of rings (size 3 to 8) (size 9 to 14) (size 15 to 20)
#    0.000    1.846    0.000    8.769    0.000    0.000 
#    0.000    8.077    0.000   12.462    0.000    0.000 
#    0.000    0.000    0.000    0.000    0.000    0.000 
#
# Total GULP energy -290751.862482 kJ/mol
# GULP energy per Si atom -5591.381971 kJ/mol
# Density = 2.208952 g / cm^3
# Si number density = 22.139913 Si / 1000 Ang^3
#
#
#
# Elastic Constant Matrix: (Units=GPa)
#
#
# Indices 1 2 3 4 5 6 
#
# 1 35.0960 18.4494 17.8921 0.0000 0.0000 0.0000
# 2 18.4494 35.0960 17.8921 0.0000 0.0000 0.0000
# 3 17.8921 17.8921 157.4758 0.0000 0.0000 0.0000
# 4 0.0000 0.0000 0.0000 28.2618 0.0000 0.0000
# 5 0.0000 0.0000 0.0000 0.0000 28.2618 0.0000
# 6 0.0000 0.0000 0.0000 0.0000 0.0000 8.3233
#
#
#
# Elastic Compliance Matrix: (Units=1/GPa)
#
#
# Indices 1 2 3 4 5 6 
#
# 1 0.040141 -0.019931 -0.002296 0.000000 0.000000 0.000000
# 2 -0.019931 0.040141 -0.002296 0.000000 0.000000 0.000000
# 3 -0.002296 -0.002296 0.006872 0.000000 0.000000 0.000000
# 4 0.000000 0.000000 0.000000 0.035383 0.000000 0.000000
# 5 0.000000 0.000000 0.000000 0.000000 0.035383 0.000000
# 6 0.000000 0.000000 0.000000 0.000000 0.000000 0.120145
#
#
# Mechanical properties :
#
#
# Convention : Reuss Voigt Hill
#
# Bulk Modulus (GPa) = 26.24151 37.34836 31.79494
# Shear Modulus (GPa) = 14.71387 24.53167 19.62277
#
# Velocity S-wave (km/s) = 2.58075 3.33232 2.98032
# Velocity P-wave (km/s) = 4.55617 5.63131 5.12203
#
# Compressibility (1/GPa) = 0.03810757
#
# Stress axis : x y z
#
# Youngs Moduli (GPa) = 24.91200 24.91200 145.51855
#
# Poissons Ratio (x) = 0.49652 0.33415
# Poissons Ratio (y) = 0.49652 0.33415
# Poissons Ratio (z) = 0.05720 0.05720
#
# Static dielectric constant tensor:
#      x y z
#    x 1.799890 0.000000 0.000000 
#    y 0.000000 1.799890 0.000000 
#    z 0.000000 0.000000 1.882410 
# 
# From -- ./inp_files/2718.got.cif
#   From: 2010.05.17/outbox.cif.g08.bks.cpg/sg190_2_cif.got.tgz:2718.got - 2010.05.20 12:16:56.
