data_PCOD9586075
_publ_section_title
;
Structure prediction by ZEFSAII (Michael W. Deem and Ramdas Pophale) SiO2 
 PCOD9586075
Probable space group: P -6 C 2
;
_chemical_formula_sum "Si O2"
_cell_formula_units_Z 40
_cell_length_a 12.468038
_cell_length_b 12.468038
_cell_length_c 14.345817
_cell_angle_alpha 90.000000
_cell_angle_beta 90.000000
_cell_angle_gamma 120.000000
_cell_volume 1931.310727
_symmetry_space_group_name_H-M "P -6 C 2"
_symmetry_group_IT_number 188
_symmetry_cell_setting 'hexagonal'
loop_
_space_group_symop_operation_xyz
x,y,z
-x+y,-x,1/2-z
-y,x-y,z
x,y,1/2-z
-x+y,-x,z
-y,x-y,1/2-z
-y,-x,-z
-x+y,y,-z
x,x-y,-z
-x+y,y,1/2+z
x,x-y,1/2+z
-y,-x,1/2+z
loop_
_atom_site_type_symbol
_atom_site_label
_atom_site_fract_x
_atom_site_fract_y
_atom_site_fract_z
Si Si1 0.989617 0.622376 0.982950
Si Si2 0.666667 0.333334 0.112403
Si Si3 0.302487 0.513422 0.857374
Si Si4 0.771458 0.161627 0.355252
O O1 0.888117 0.619806 0.911300
O O2 0.119472 0.701005 0.931203
O O3 0.971190 0.485595 0.000000
O O4 0.960236 0.665776 0.080587
O O5 0.538676 0.319937 0.146301
O O6 0.666668 0.333334 0.000000
O O7 0.434472 0.642517 0.869450
O O8 0.295466 0.473631 0.750000
O O9 0.798896 0.141983 0.250000
#
# Coordination Sequence:
#
# PCOD9586075 Si02
#       4
#    12   4  12  12
#     4  11  20  30  48  75 103 142 193 238 286 341
#     4  12  16  32  43  67  98 145 193 218 268 340
#     4   8  18  37  57  75  98 141 202 254 298 335
#     4  11  20  30  46  72 109 146 183 225 285 358
#
# _framework density 20.711321000000002
#
# number of rings (size 3 to 8) (size 9 to 14) (size 15 to 20)
#    0.600    1.200    6.000    1.800    0.000    2.400 
#    0.000    0.000    0.000    1.800    0.000    0.000 
#    0.000    0.000    0.000  100.800    0.000  422.400 
#
# Total GULP energy -223234.224394 kJ/mol
# GULP energy per Si atom -5580.855610 kJ/mol
# Density = 2.066418 g / cm^3
# Si number density = 20.711321 Si / 1000 Ang^3
#
#
#
# Elastic Constant Matrix: (Units=GPa)
#
#
# Indices 1 2 3 4 5 6 
#
# 1 50.3620 18.1282 47.4371 0.0000 0.0000 0.0000
# 2 18.1282 50.3621 47.4372 0.0000 0.0000 0.0000
# 3 47.4371 47.4372 200.0814 0.0000 0.0000 0.0000
# 4 0.0000 0.0000 0.0000 24.4456 0.0000 0.0000
# 5 0.0000 0.0000 0.0000 0.0000 24.4457 0.0000
# 6 0.0000 0.0000 0.0000 0.0000 0.0000 16.1170
#
#
#
# Elastic Compliance Matrix: (Units=1/GPa)
#
#
# Indices 1 2 3 4 5 6 
#
# 1 0.026382 -0.004641 -0.005155 0.000000 0.000000 0.000000
# 2 -0.004641 0.026382 -0.005155 0.000000 0.000000 0.000000
# 3 -0.005155 -0.005155 0.007442 0.000000 0.000000 0.000000
# 4 0.000000 0.000000 0.000000 0.040907 0.000000 0.000000
# 5 0.000000 0.000000 0.000000 0.000000 0.040907 0.000000
# 6 0.000000 0.000000 0.000000 0.000000 0.000000 0.062046
#
#
# Mechanical properties :
#
#
# Convention : Reuss Voigt Hill
#
# Bulk Modulus (GPa) = 32.99715 58.53450 45.76582
# Shear Modulus (GPa) = 20.48600 25.52185 23.00392
#
# Velocity S-wave (km/s) = 3.14844 3.51417 3.33632
# Velocity P-wave (km/s) = 5.40217 6.69248 6.08164
#
# Compressibility (1/GPa) = 0.03030565
#
# Stress axis : x y z
#
# Youngs Moduli (GPa) = 37.90457 37.90467 134.37024
#
# Poissons Ratio (x) = 0.17592 0.69261
# Poissons Ratio (y) = 0.17592 0.69261
# Poissons Ratio (z) = 0.19538 0.19538
#
# Static dielectric constant tensor:
#      x y z
#    x 1.763920 0.000000 0.000000 
#    y 0.000000 1.763920 0.000000 
#    z 0.000000 0.000000 1.789170 
# 
# From -- ./inp_files/2010.got.cif
#   From: 2010.05.17/outbox.cif.g08.bks.cpg/sg188_2_cif.got.tgz:2010.got - 2010.05.20 12:11:46.
