data_PCOD9586588
_publ_section_title
;
Structure prediction by ZEFSAII (Michael W. Deem and Ramdas Pophale) SiO2 
 PCOD9586588
Probable space group: P -6 2 M
;
_chemical_formula_sum "Si O2"
_cell_formula_units_Z 72
_cell_length_a 24.000000
_cell_length_b 24.000000
_cell_length_c 9.000000
_cell_angle_alpha 90.000000
_cell_angle_beta 90.000000
_cell_angle_gamma 120.000000
_cell_volume 4489.475693
_symmetry_space_group_name_H-M "P -6 2 M"
_symmetry_group_IT_number 189
_symmetry_cell_setting 'hexagonal'
loop_
_space_group_symop_operation_xyz
x,y,z
-x+y,-x,-z
-y,x-y,z
x,y,-z
-x+y,-x,z
-y,x-y,-z
x-y,-y,-z
-x,-x+y,-z
y,x,-z
y,x,z
x-y,-y,z
-x,-x+y,z
loop_
_atom_site_type_symbol
_atom_site_label
_atom_site_fract_x
_atom_site_fract_y
_atom_site_fract_z
Si Si1 0.442098 0.366592 0.678551
Si Si2 0.705028 0.705028 0.179398
Si Si3 0.165073 0.000000 0.180278
Si Si4 0.422421 0.129693 0.180323
Si Si5 0.783664 0.923201 0.320304
Si Si6 0.154445 0.784530 0.320271
Si Si7 0.075939 0.514726 0.820891
O O1 0.450353 0.369565 0.500000
O O2 0.395982 0.395982 0.715091
O O3 0.405843 0.291304 0.721622
O O4 0.511086 0.415968 0.751517
O O5 0.769353 0.769353 0.222779
O O6 0.704840 0.641204 0.226930
O O7 0.703720 0.703720 0.000000
O O8 0.108684 0.931647 0.245575
O O9 0.159631 0.000000 0.000000
O O10 0.410062 0.184134 0.250775
O O11 0.482334 0.119083 0.222106
O O12 0.423384 0.135341 0.000000
O O13 0.786249 0.918046 0.500000
O O14 0.706870 0.883416 0.277608
O O15 0.816921 0.000000 0.285229
O O16 0.159144 0.788055 0.500000
O O17 0.000000 0.466580 0.782121
O O18 0.078603 0.520114 0.000000
#
# Coordination Sequence:
#
# PCOD9586588 Si02
#       7
#    12   6   6  12  12  12  12
#     4   9  18  33  51  71 100 134 165 202 248 293
#     4   9  16  29  49  73 103 133 156 191 252 307
#     4  11  21  35  55  77 103 133 170 217 268 315
#     4  10  18  31  51  75 104 135 162 197 249 303
#     4  10  21  37  55  74 100 136 176 216 262 316
#     4  10  20  33  51  76 103 133 170 210 251 299
#     4   9  17  30  50  74 100 129 160 194 237 292
#
# _framework density 16.037507000000002
#
# number of rings (size 3 to 8) (size 9 to 14) (size 15 to 20)
#    0.000    2.333    2.500    0.750    0.000    3.667 
#    0.500    0.417    0.000    3.667    0.000    0.000 
#    0.000    0.000    0.000    0.000    0.000    0.000 
#
# Total GULP energy -401114.858919 kJ/mol
# GULP energy per Si atom -5571.039707 kJ/mol
# Density = 1.600101 g / cm^3
# Si number density = 16.037507 Si / 1000 Ang^3
#
#
#
# Elastic Constant Matrix: (Units=GPa)
#
#
# Indices 1 2 3 4 5 6 
#
# 1 139.8374 72.3207 32.3001 0.0000 0.0000 0.0000
# 2 72.3207 139.8374 32.3001 0.0000 0.0000 0.0000
# 3 32.3001 32.3001 26.4083 0.0000 0.0000 0.0000
# 4 0.0000 0.0000 0.0000 28.7296 0.0000 0.0000
# 5 0.0000 0.0000 0.0000 0.0000 28.7296 0.0000
# 6 0.0000 0.0000 0.0000 0.0000 0.0000 33.7583
#
#
#
# Elastic Compliance Matrix: (Units=1/GPa)
#
#
# Indices 1 2 3 4 5 6 
#
# 1 0.011161 -0.003650 -0.009186 0.000000 0.000000 0.000000
# 2 -0.003650 0.011161 -0.009186 0.000000 0.000000 0.000000
# 3 -0.009186 -0.009186 0.060338 0.000000 0.000000 0.000000
# 4 0.000000 0.000000 0.000000 0.034807 0.000000 0.000000
# 5 0.000000 0.000000 0.000000 0.000000 0.034807 0.000000
# 6 0.000000 0.000000 0.000000 0.000000 0.000000 0.029622
#
#
# Mechanical properties :
#
#
# Convention : Reuss Voigt Hill
#
# Bulk Modulus (GPa) = 25.89696 64.43608 45.16652
# Shear Modulus (GPa) = 20.93681 29.52100 25.22890
#
# Velocity S-wave (km/s) = 3.61708 4.29505 3.97056
# Velocity P-wave (km/s) = 5.79889 8.05371 7.01745
#
# Compressibility (1/GPa) = 0.03861458
#
# Stress axis : x y z
#
# Youngs Moduli (GPa) = 89.59872 89.59872 16.57323
#
# Poissons Ratio (x) = 0.32706 0.15225
# Poissons Ratio (y) = 0.32706 0.15225
# Poissons Ratio (z) = 0.82307 0.82307
#
# Static dielectric constant tensor:
#      x y z
#    x 1.538240 0.000000 0.000000 
#    y 0.000000 1.538240 0.000000 
#    z 0.000000 0.000000 1.543680 
# 
# From -- ./inp_files/1373.got.cif
#   From: 2010.05.17/outbox.ucp.g08.bks.cvg/sg189_1_cif.got.tgz:1373.got - 2010.06.11 15:22:13.
