data_PCOD9586785
_publ_section_title
;
Structure prediction by ZEFSAII (Michael W. Deem and Ramdas Pophale) SiO2 
 PCOD9586785
Probable space group: P -6 2 C
;
_chemical_formula_sum "Si O2"
_cell_formula_units_Z 48
_cell_length_a 19.212770
_cell_length_b 19.212770
_cell_length_c 8.673072
_cell_angle_alpha 90.000000
_cell_angle_beta 90.000000
_cell_angle_gamma 120.000000
_cell_volume 2772.576583
_symmetry_space_group_name_H-M "P -6 2 C"
_symmetry_group_IT_number 190
_symmetry_cell_setting 'hexagonal'
loop_
_space_group_symop_operation_xyz
x,y,z
-x+y,-x,1/2-z
-y,x-y,z
x,y,1/2-z
-x+y,-x,z
-y,x-y,1/2-z
x-y,-y,-z
-x,-x+y,-z
y,x,-z
y,x,1/2+z
x-y,-y,1/2+z
-x,-x+y,1/2+z
loop_
_atom_site_type_symbol
_atom_site_label
_atom_site_fract_x
_atom_site_fract_y
_atom_site_fract_z
Si Si1 0.248219 0.912755 0.435546
Si Si2 0.335025 0.516247 0.064371
Si Si3 0.912788 0.668578 0.565188
Si Si4 0.333496 0.820912 0.565562
O O1 0.252882 0.914059 0.250000
O O2 0.158375 0.843981 0.482047
O O3 0.307354 0.883011 0.501704
O O4 0.274476 0.000000 0.500000
O O5 0.336398 0.522024 0.250000
O O6 0.305969 0.424113 0.020641
O O7 0.420071 0.580219 0.995258
O O8 0.266097 0.533035 0.999877
O O9 0.916692 0.672003 0.750000
O O10 0.000000 0.727670 0.500000
O O11 0.331468 0.819678 0.750000
#
# Coordination Sequence:
#
# PCOD9586785 Si02
#       4
#    12  12  12  12
#     4  10  21  38  57  80 106 137 173 214 264 318
#     4  10  20  35  51  72 106 146 183 223 264 307
#     4   9  20  36  56  79 104 133 169 209 258 312
#     4  11  21  33  51  77 106 142 185 226 265 311
#
# _framework density 17.312415999999999
#
# number of rings (size 3 to 8) (size 9 to 14) (size 15 to 20)
#    0.000    2.000    0.000    5.750    0.000    7.000 
#    0.000    2.500    0.000    0.500    0.000    0.000 
#    0.000    0.000    0.000    0.000    0.000    0.000 
#
# Total GULP energy -268046.691495 kJ/mol
# GULP energy per Si atom -5584.306073 kJ/mol
# Density = 1.727301 g / cm^3
# Si number density = 17.312416 Si / 1000 Ang^3
#
#
#
# Elastic Constant Matrix: (Units=GPa)
#
#
# Indices 1 2 3 4 5 6 
#
# 1 119.6072 103.4532 43.6782 0.0000 0.0000 0.0000
# 2 103.4532 119.6072 43.6782 0.0000 0.0000 0.0000
# 3 43.6782 43.6782 84.4396 0.0000 0.0000 0.0000
# 4 0.0000 0.0000 0.0000 29.8179 0.0000 0.0000
# 5 0.0000 0.0000 0.0000 0.0000 29.8179 0.0000
# 6 0.0000 0.0000 0.0000 0.0000 0.0000 8.0770
#
#
#
# Elastic Compliance Matrix: (Units=1/GPa)
#
#
# Indices 1 2 3 4 5 6 
#
# 1 0.033763 -0.028141 -0.002908 0.000000 0.000000 0.000000
# 2 -0.028141 0.033763 -0.002908 0.000000 0.000000 0.000000
# 3 -0.002908 -0.002908 0.014851 0.000000 0.000000 0.000000
# 4 0.000000 0.000000 0.000000 0.033537 0.000000 0.000000
# 5 0.000000 0.000000 0.000000 0.000000 0.033537 0.000000
# 6 0.000000 0.000000 0.000000 0.000000 0.000000 0.123808
#
#
# Mechanical properties :
#
#
# Convention : Reuss Voigt Hill
#
# Bulk Modulus (GPa) = 69.14232 78.36370 73.75301
# Shear Modulus (GPa) = 14.45108 22.39886 18.42497
#
# Velocity S-wave (km/s) = 2.89229 3.60085 3.26584
# Velocity P-wave (km/s) = 7.15392 7.91523 7.54418
#
# Compressibility (1/GPa) = 0.01446292
#
# Stress axis : x y z
#
# Youngs Moduli (GPa) = 29.61818 29.61818 67.33403
#
# Poissons Ratio (x) = 0.83349 0.19581
# Poissons Ratio (y) = 0.83349 0.19581
# Poissons Ratio (z) = 0.08613 0.08613
#
# Static dielectric constant tensor:
#      x y z
#    x 1.576020 0.000000 0.000000 
#    y 0.000000 1.576020 0.000000 
#    z 0.000000 0.000000 1.579490 
# 
# From -- ./inp_files/597.got.cif
#   From: 2010.05.17/outbox.cif.g08.bks.cpg/sg190_1_cif.got.tgz:597.got - 2010.05.20 12:16:56.
