data_PCOD9586982
_publ_section_title
;
Structure prediction by ZEFSAII (Michael W. Deem and Ramdas Pophale) SiO2 
 PCOD9586982
Probable space group: P -6 2 C
;
_chemical_formula_sum "Si O2"
_cell_formula_units_Z 72
_cell_length_a 22.714130
_cell_length_b 22.714130
_cell_length_c 8.841593
_cell_angle_alpha 90.000000
_cell_angle_beta 90.000000
_cell_angle_gamma 120.000000
_cell_volume 3950.511817
_symmetry_space_group_name_H-M "P -6 2 C"
_symmetry_group_IT_number 190
_symmetry_cell_setting 'hexagonal'
loop_
_space_group_symop_operation_xyz
x,y,z
-x+y,-x,1/2-z
-y,x-y,z
x,y,1/2-z
-x+y,-x,z
-y,x-y,1/2-z
x-y,-y,-z
-x,-x+y,-z
y,x,-z
y,x,1/2+z
x-y,-y,1/2+z
-x,-x+y,1/2+z
loop_
_atom_site_type_symbol
_atom_site_label
_atom_site_fract_x
_atom_site_fract_y
_atom_site_fract_z
Si Si1 0.389849 0.454333 0.580592
Si Si2 0.421759 0.072485 0.574793
Si Si3 0.263051 0.731229 0.422200
Si Si4 0.669271 0.927794 0.431159
Si Si5 0.210202 0.822170 0.568556
Si Si6 0.402603 0.823907 0.005107
O O1 0.379557 0.426315 0.750000
O O2 0.451941 0.451941 0.500000
O O3 0.324766 0.402093 0.483082
O O4 0.403905 0.530507 0.589655
O O5 0.401753 0.064106 0.750000
O O6 0.386953 0.109568 0.485643
O O7 0.503625 0.122201 0.567005
O O8 0.398171 0.000000 0.500000
O O9 0.287156 0.755835 0.250000
O O10 0.221113 0.764513 0.487495
O O11 0.327967 0.761016 0.534368
O O12 0.218158 0.650699 0.411000
O O13 0.672625 0.926311 0.250000
O O14 0.668800 0.862714 0.505343
O O15 0.725673 0.000000 0.500000
O O16 0.208699 0.816046 0.750000
#
# Coordination Sequence:
#
# PCOD9586982 Si02
#       6
#    12  12  12  12  12  12
#     4  11  23  37  56  80 106 136 175 226 283 345
#     4  11  24  42  63  87 112 148 195 245 302 359
#     4  11  22  36  54  74  98 137 182 230 293 360
#     4  11  21  35  58  85 115 147 184 226 278 344
#     4  11  22  38  58  82 113 146 182 230 286 348
#     4  11  23  36  57  78 107 138 188 239 301 362
#
# _framework density 18.225487999999999
#
# number of rings (size 3 to 8) (size 9 to 14) (size 15 to 20)
#    0.000    1.000    1.667    8.333    0.000    8.000 
#    0.000    0.000    0.000    4.000    0.000    0.000 
#    0.000    0.000    0.000    0.500    0.000    7.000 
#
# Total GULP energy -400898.781426 kJ/mol
# GULP energy per Si atom -5568.038631 kJ/mol
# Density = 1.818401 g / cm^3
# Si number density = 18.225488 Si / 1000 Ang^3
#
#
#
# Elastic Constant Matrix: (Units=GPa)
#
#
# Indices 1 2 3 4 5 6 
#
# 1 93.7164 34.6009 28.8324 0.0000 0.0000 0.0000
# 2 34.6009 93.7164 28.8324 0.0000 0.0000 0.0000
# 3 28.8324 28.8324 96.6583 0.0000 0.0000 0.0000
# 4 0.0000 0.0000 0.0000 -7.7275 0.0000 0.0000
# 5 0.0000 0.0000 0.0000 0.0000 -7.7275 0.0000
# 6 0.0000 0.0000 0.0000 0.0000 0.0000 29.5577
#
#
#
# Elastic Compliance Matrix: (Units=1/GPa)
#
#
# Indices 1 2 3 4 5 6 
#
# 1 0.012958 -0.003958 -0.002685 0.000000 0.000000 0.000000
# 2 -0.003958 0.012958 -0.002685 0.000000 0.000000 0.000000
# 3 -0.002685 -0.002685 0.011947 0.000000 0.000000 0.000000
# 4 0.000000 0.000000 0.000000 -0.129408 0.000000 0.000000
# 5 0.000000 0.000000 0.000000 0.000000 -0.129408 0.000000
# 6 0.000000 0.000000 0.000000 0.000000 0.000000 0.033832
#
#
# Mechanical properties :
#
#
# Convention : Reuss Voigt Hill
#
# Bulk Modulus (GPa) = 52.06056 52.06916 52.06486
# Shear Modulus (GPa) = -30.85212 15.60890 -7.62161
#
# Velocity S-wave (km/s) = -4.11883 2.92966 -2.04717
# Velocity P-wave (km/s) = 2.45092 6.33051 4.80012
#
# Compressibility (1/GPa) = 0.01920840
#
# Stress axis : x y z
#
# Youngs Moduli (GPa) = 77.17352 77.17352 83.70124
#
# Poissons Ratio (x) = 0.30547 0.22470
# Poissons Ratio (y) = 0.30547 0.22470
# Poissons Ratio (z) = 0.20717 0.20717
#
# Static dielectric constant tensor:
#      x y z
#    x 1.670740 0.000000 0.000000 
#    y 0.000000 1.670740 0.000000 
#    z 0.000000 0.000000 1.607100 
# 
# From -- ./inp_files/1256.got.cif
#   From: 2010.05.17/outbox.cif.g08.bks.cpg/sg190_1_cif.got.tgz:1256.got - 2010.05.20 12:16:56.
