data_PCOD9586724
_publ_section_title
;
Structure prediction by ZEFSAII (Michael W. Deem and Ramdas Pophale) SiO2 
 PCOD9586724
Probable space group: P -6 2 C
;
_chemical_formula_sum "Si O2"
_cell_formula_units_Z 96
_cell_length_a 17.722629
_cell_length_b 17.722629
_cell_length_c 19.075934
_cell_angle_alpha 90.000000
_cell_angle_beta 90.000000
_cell_angle_gamma 120.000000
_cell_volume 5188.869344
_symmetry_space_group_name_H-M "P -6 2 C"
_symmetry_group_IT_number 190
_symmetry_cell_setting 'hexagonal'
loop_
_space_group_symop_operation_xyz
x,y,z
-x+y,-x,1/2-z
-y,x-y,z
x,y,1/2-z
-x+y,-x,z
-y,x-y,1/2-z
x-y,-y,-z
-x,-x+y,-z
y,x,-z
y,x,1/2+z
x-y,-y,1/2+z
-x,-x+y,1/2+z
loop_
_atom_site_type_symbol
_atom_site_label
_atom_site_fract_x
_atom_site_fract_y
_atom_site_fract_z
Si Si1 0.416499 0.545105 0.553454
Si Si2 0.276542 0.922272 0.669687
Si Si3 0.890402 0.832204 0.330149
Si Si4 0.060404 0.578894 0.396825
Si Si5 0.200375 0.133059 0.835694
Si Si6 0.461522 0.215175 0.442521
Si Si7 0.555260 0.653487 0.332077
Si Si8 0.612529 0.830377 0.094369
O O1 0.422995 0.516224 0.474986
O O2 0.439761 0.484205 0.602010
O O3 0.479511 0.648850 0.552318
O O4 0.318111 0.520886 0.569453
O O5 0.292415 0.905243 0.750000
O O6 0.202923 0.949086 0.670332
O O7 0.238185 0.837196 0.622335
O O8 0.365241 0.004963 0.641164
O O9 0.918609 0.859681 0.250000
O O10 0.870310 0.904816 0.358175
O O11 0.965591 0.814404 0.356500
O O12 0.099024 0.533791 0.346994
O O13 0.102140 0.681862 0.384730
O O14 0.217256 0.136703 0.750000
O O15 0.288822 0.164097 0.877873
O O16 0.405139 0.208171 0.512130
O O17 0.570723 0.670875 0.250000
O O18 0.559777 0.737068 0.367603
#
# Coordination Sequence:
#
# PCOD9586724 Si02
#       8
#    12  12  12  12  12  12  12  12
#     4  10  21  39  63  88 116 153 202 256 303 371
#     4  10  21  38  60  88 116 152 205 253 301 372
#     4   9  18  33  55  82 117 159 200 243 289 351
#     4  10  22  40  58  87 124 154 200 251 308 365
#     4  10  19  35  58  88 125 166 209 247 293 356
#     4  11  22  39  65  87 115 158 204 252 315 370
#     4  11  21  39  63  87 122 163 203 251 305 365
#     4  11  23  37  61  91 123 160 202 254 303 368
#
# _framework density 18.501141000000001
#
# number of rings (size 3 to 8) (size 9 to 14) (size 15 to 20)
#    0.000    1.750    3.750    0.875    1.750    2.500 
#    0.750    1.250    0.000    0.000    0.000    1.750 
#    0.000    0.000    0.000    0.000    0.000    0.000 
#
# Total GULP energy -534601.674358 kJ/mol
# GULP energy per Si atom -5568.767441 kJ/mol
# Density = 1.845903 g / cm^3
# Si number density = 18.501141 Si / 1000 Ang^3
#
#
#
# Elastic Constant Matrix: (Units=GPa)
#
#
# Indices 1 2 3 4 5 6 
#
# 1 93.6913 32.8190 22.1566 0.0000 0.0000 0.0000
# 2 32.8190 93.6913 22.1566 0.0000 0.0000 0.0000
# 3 22.1566 22.1566 33.6990 0.0000 0.0000 0.0000
# 4 0.0000 0.0000 0.0000 17.7649 0.0000 0.0000
# 5 0.0000 0.0000 0.0000 0.0000 17.7649 0.0000
# 6 0.0000 0.0000 0.0000 0.0000 0.0000 30.4362
#
#
#
# Elastic Compliance Matrix: (Units=1/GPa)
#
#
# Indices 1 2 3 4 5 6 
#
# 1 0.013349 -0.003079 -0.006752 0.000000 0.000000 0.000000
# 2 -0.003079 0.013349 -0.006752 0.000000 0.000000 0.000000
# 3 -0.006752 -0.006752 0.038553 0.000000 0.000000 0.000000
# 4 0.000000 0.000000 0.000000 0.056291 0.000000 0.000000
# 5 0.000000 0.000000 0.000000 0.000000 0.056291 0.000000
# 6 0.000000 0.000000 0.000000 0.000000 0.000000 0.032856
#
#
# Mechanical properties :
#
#
# Convention : Reuss Voigt Hill
#
# Bulk Modulus (GPa) = 31.16812 41.70511 36.43661
# Shear Modulus (GPa) = 19.64254 22.78980 21.21617
#
# Velocity S-wave (km/s) = 3.26190 3.51352 3.39004
# Velocity P-wave (km/s) = 5.57403 6.24905 5.92116
#
# Compressibility (1/GPa) = 0.03208406
#
# Stress axis : x y z
#
# Youngs Moduli (GPa) = 74.91364 74.91364 25.93809
#
# Poissons Ratio (x) = 0.23067 0.17514
# Poissons Ratio (y) = 0.23067 0.17514
# Poissons Ratio (z) = 0.50583 0.50583
#
# Static dielectric constant tensor:
#      x y z
#    x 1.668540 0.000000 0.000000 
#    y 0.000000 1.668540 0.000000 
#    z 0.000000 0.000000 1.641660 
# 
# From -- ./inp_files/4472.got.cif
#   From: 2010.05.17/outbox.cif.g08.bks.cpg/sg190_3_cif.got.tgz:4472.got - 2010.05.20 12:16:56.
