data_PCOD9586146
_publ_section_title
;
Structure prediction by ZEFSAII (Michael W. Deem and Ramdas Pophale) SiO2 
 PCOD9586146
Probable space group: P -6 2 M
;
_chemical_formula_sum "Si O2"
_cell_formula_units_Z 60
_cell_length_a 20.669647
_cell_length_b 20.669647
_cell_length_c 7.372730
_cell_angle_alpha 90.000000
_cell_angle_beta 90.000000
_cell_angle_gamma 120.000000
_cell_volume 2727.878864
_symmetry_space_group_name_H-M "P -6 2 M"
_symmetry_group_IT_number 189
_symmetry_cell_setting 'hexagonal'
loop_
_space_group_symop_operation_xyz
x,y,z
-x+y,-x,-z
-y,x-y,z
x,y,-z
-x+y,-x,z
-y,x-y,-z
x-y,-y,-z
-x,-x+y,-z
y,x,-z
y,x,z
x-y,-y,z
-x,-x+y,z
loop_
_atom_site_type_symbol
_atom_site_label
_atom_site_fract_x
_atom_site_fract_y
_atom_site_fract_z
Si Si1 0.764338 0.764338 0.719324
Si Si2 0.372764 0.291864 0.281424
Si Si3 0.364492 0.839165 0.222606
Si Si4 0.610077 0.610077 0.213694
Si Si5 0.474006 0.781686 0.203128
Si Si6 0.777811 0.918563 0.279743
O O1 0.765084 0.765084 0.500000
O O2 0.688383 0.688383 0.767762
O O3 0.769946 0.841307 0.782902
O O4 0.379701 0.292622 0.500000
O O5 0.359168 0.359168 0.229130
O O6 0.444174 0.296108 0.197217
O O7 0.298621 0.215441 0.232949
O O8 0.423598 0.813943 0.282888
O O9 0.285519 0.768629 0.282380
O O10 0.380383 0.921103 0.284257
O O11 0.364863 0.842756 0.000000
O O12 0.595818 0.595818 0.000000
O O13 0.443407 0.755997 0.000000
O O14 0.782162 0.918489 0.500000
O O15 0.844961 0.000000 0.220338
#
# Coordination Sequence:
#
# PCOD9586146 Si02
#       6
#     6  12  12   6  12  12
#     4  10  18  30  52  76  98 129 170 208 242 293
#     4   9  18  32  49  69  97 129 159 199 251 293
#     4   9  19  33  51  74 101 131 165 208 256 303
#     4  10  20  34  50  72 104 135 162 204 264 309
#     4  10  19  33  53  73  96 129 169 205 245 300
#     4   8  15  29  47  70 100 130 159 198 249 295
#
# _framework density 21.995111999999999
#
# number of rings (size 3 to 8) (size 9 to 14) (size 15 to 20)
#    0.000    2.800    0.000    2.800    1.400    2.000 
#    0.600    2.000    0.000    1.800    0.000    0.000 
#    0.000    0.000    0.000    0.000    0.000    0.000 
#
# Total GULP energy -334553.686905 kJ/mol
# GULP energy per Si atom -5575.894782 kJ/mol
# Density = 2.194505 g / cm^3
# Si number density = 21.995112 Si / 1000 Ang^3
#
#
#
# Elastic Constant Matrix: (Units=GPa)
#
#
# Indices 1 2 3 4 5 6 
#
# 1 181.3507 118.4823 8.3582 0.0000 0.0000 0.0000
# 2 118.4823 181.3507 8.3582 0.0000 0.0000 0.0000
# 3 8.3582 8.3582 73.4908 0.0000 0.0000 0.0000
# 4 0.0000 0.0000 0.0000 72.5167 0.0000 0.0000
# 5 0.0000 0.0000 0.0000 0.0000 72.5167 0.0000
# 6 0.0000 0.0000 0.0000 0.0000 0.0000 31.4342
#
#
#
# Elastic Compliance Matrix: (Units=1/GPa)
#
#
# Indices 1 2 3 4 5 6 
#
# 1 0.009631 -0.006275 -0.000382 0.000000 0.000000 0.000000
# 2 -0.006275 0.009631 -0.000382 0.000000 0.000000 0.000000
# 3 -0.000382 -0.000382 0.013694 0.000000 0.000000 0.000000
# 4 0.000000 0.000000 0.000000 0.013790 0.000000 0.000000
# 5 0.000000 0.000000 0.000000 0.000000 0.013790 0.000000
# 6 0.000000 0.000000 0.000000 0.000000 0.000000 0.031812
#
#
# Mechanical properties :
#
#
# Convention : Reuss Voigt Hill
#
# Bulk Modulus (GPa) = 52.96618 78.50998 65.73808
# Shear Modulus (GPa) = 44.35807 55.35974 49.85891
#
# Velocity S-wave (km/s) = 4.49567 5.02233 4.76628
# Velocity P-wave (km/s) = 7.14711 8.33087 7.76159
#
# Compressibility (1/GPa) = 0.01887997
#
# Stress axis : x y z
#
# Youngs Moduli (GPa) = 103.82756 103.82756 73.02480
#
# Poissons Ratio (x) = 0.65151 0.02788
# Poissons Ratio (y) = 0.65151 0.02788
# Poissons Ratio (z) = 0.03963 0.03963
#
# Static dielectric constant tensor:
#      x y z
#    x 1.804220 0.000000 0.000000 
#    y 0.000000 1.804220 0.000000 
#    z 0.000000 0.000000 1.894550 
# 
# From -- ./inp_files/1961.got.cif
#   From: 2010.05.17/outbox.cif.g08.bks.cpg/sg189_1_cif.got.tgz:1961.got - 2010.05.20 12:14:34.
