data_PCOD9586759
_publ_section_title
;
Structure prediction by ZEFSAII (Michael W. Deem and Ramdas Pophale) SiO2 
 PCOD9586759
Probable space group: P -6 2 C
;
_chemical_formula_sum "Si O2"
_cell_formula_units_Z 78
_cell_length_a 18.155589
_cell_length_b 18.155589
_cell_length_c 17.058364
_cell_angle_alpha 90.000000
_cell_angle_beta 90.000000
_cell_angle_gamma 120.000000
_cell_volume 4869.548488
_symmetry_space_group_name_H-M "P -6 2 C"
_symmetry_group_IT_number 190
_symmetry_cell_setting 'hexagonal'
loop_
_space_group_symop_operation_xyz
x,y,z
-x+y,-x,1/2-z
-y,x-y,z
x,y,1/2-z
-x+y,-x,z
-y,x-y,1/2-z
x-y,-y,-z
-x,-x+y,-z
y,x,-z
y,x,1/2+z
x-y,-y,1/2+z
-x,-x+y,1/2+z
loop_
_atom_site_type_symbol
_atom_site_label
_atom_site_fract_x
_atom_site_fract_y
_atom_site_fract_z
Si Si1 0.330210 0.828464 0.060534
Si Si2 0.446312 0.717989 0.750000
Si Si3 0.426122 0.171051 0.391037
Si Si4 0.166957 0.669518 0.094465
Si Si5 0.995776 0.398771 0.841405
Si Si6 0.643898 0.917772 0.539718
Si Si7 0.424960 0.432939 0.836260
O O1 0.258765 0.749561 0.110446
O O2 0.416018 0.824015 0.061023
O O3 0.348746 0.916162 0.101141
O O4 0.298653 0.823254 0.971731
O O5 0.374520 0.616295 0.750000
O O6 0.506789 0.741600 0.673779
O O7 0.355022 0.196115 0.414362
O O8 0.387200 0.075670 0.359283
O O9 0.094507 0.627009 0.160139
O O10 0.126915 0.703429 0.029776
O O11 0.970662 0.380134 0.750000
O O12 0.026108 0.498616 0.853545
O O13 0.600847 0.953237 0.599648
O O14 0.724059 0.000000 0.500000
O O15 0.390487 0.430479 0.750000
#
# Coordination Sequence:
#
# PCOD9586759 Si02
#       7
#    12   6  12  12  12  12  12
#     4  10  20  31  50  67  95 133 176 223 262 315
#     4  10  26  32  44  78 106 130 168 232 290 332
#     4  11  21  33  51  68 101 131 173 207 280 330
#     4   9  18  31  44  68  86 125 169 209 249 288
#     4  10  20  33  46  69  95 129 172 220 266 318
#     4   9  19  32  47  67  90 120 161 205 247 312
#     4   9  18  29  47  62  90 121 161 203 254 296
#
# _framework density 16.017913
#
# number of rings (size 3 to 8) (size 9 to 14) (size 15 to 20)
#    0.154    2.154    0.769    1.692    7.538    3.077 
#    0.000    0.000    0.000    1.846    0.000    0.000 
#    0.000    0.000    0.000   91.385    0.000   72.000 
#
# Total GULP energy -434443.356161 kJ/mol
# GULP energy per Si atom -5569.786617 kJ/mol
# Density = 1.598146 g / cm^3
# Si number density = 16.017913 Si / 1000 Ang^3
#
#
#
# Elastic Constant Matrix: (Units=GPa)
#
#
# Indices 1 2 3 4 5 6 
#
# 1 47.0087 6.5078 13.5213 0.0000 0.0000 0.0000
# 2 6.5078 47.0087 13.5213 0.0000 0.0000 0.0000
# 3 13.5213 13.5213 61.9129 0.0000 0.0000 0.0000
# 4 0.0000 0.0000 0.0000 10.4583 0.0000 0.0000
# 5 0.0000 0.0000 0.0000 0.0000 10.4583 0.0000
# 6 0.0000 0.0000 0.0000 0.0000 0.0000 20.2505
#
#
#
# Elastic Compliance Matrix: (Units=1/GPa)
#
#
# Indices 1 2 3 4 5 6 
#
# 1 0.022847 -0.001844 -0.004587 0.000000 0.000000 0.000000
# 2 -0.001844 0.022847 -0.004587 0.000000 0.000000 0.000000
# 3 -0.004587 -0.004587 0.018155 0.000000 0.000000 0.000000
# 4 0.000000 0.000000 0.000000 0.095618 0.000000 0.000000
# 5 0.000000 0.000000 0.000000 0.000000 0.095618 0.000000
# 6 0.000000 0.000000 0.000000 0.000000 0.000000 0.049382
#
#
# Mechanical properties :
#
#
# Convention : Reuss Voigt Hill
#
# Bulk Modulus (GPa) = 23.91516 24.78125 24.34820
# Shear Modulus (GPa) = 14.68687 16.39208 15.53948
#
# Velocity S-wave (km/s) = 3.03133 3.20247 3.11807
# Velocity P-wave (km/s) = 5.21676 5.40176 5.31006
#
# Compressibility (1/GPa) = 0.04181448
#
# Stress axis : x y z
#
# Youngs Moduli (GPa) = 43.76893 43.76893 55.08036
#
# Poissons Ratio (x) = 0.08069 0.25266
# Poissons Ratio (y) = 0.08069 0.25266
# Poissons Ratio (z) = 0.20077 0.20077
#
# Static dielectric constant tensor:
#      x y z
#    x 1.549860 0.000000 0.000000 
#    y 0.000000 1.549860 0.000000 
#    z 0.000000 0.000000 1.573000 
# 
# From -- ./inp_files/3912.got.cif
#   From: 2010.05.17/outbox.cif.g08.bks.cpg/sg190_2_cif.got.tgz:3912.got - 2010.05.20 12:16:56.
