data_PCOD9586710
_publ_section_title
;
Structure prediction by ZEFSAII (Michael W. Deem and Ramdas Pophale) SiO2 
 PCOD9586710
Probable space group: P -6 2 C
;
_chemical_formula_sum "Si O2"
_cell_formula_units_Z 96
_cell_length_a 17.889132
_cell_length_b 17.889132
_cell_length_c 20.295451
_cell_angle_alpha 90.000000
_cell_angle_beta 90.000000
_cell_angle_gamma 120.000000
_cell_volume 5624.810239
_symmetry_space_group_name_H-M "P -6 2 C"
_symmetry_group_IT_number 190
_symmetry_cell_setting 'hexagonal'
loop_
_space_group_symop_operation_xyz
x,y,z
-x+y,-x,1/2-z
-y,x-y,z
x,y,1/2-z
-x+y,-x,z
-y,x-y,1/2-z
x-y,-y,-z
-x,-x+y,-z
y,x,-z
y,x,1/2+z
x-y,-y,1/2+z
-x,-x+y,1/2+z
loop_
_atom_site_type_symbol
_atom_site_label
_atom_site_fract_x
_atom_site_fract_y
_atom_site_fract_z
Si Si1 0.813890 0.955181 0.170999
Si Si2 0.282042 0.483226 0.039944
Si Si3 0.382868 0.145386 0.328302
Si Si4 0.692846 0.970777 0.431399
Si Si5 0.520669 0.129032 0.944891
Si Si6 0.934701 0.418255 0.402800
Si Si7 0.184793 0.042760 0.329325
Si Si8 0.541618 0.865957 0.896099
O O1 0.799467 0.951613 0.250000
O O2 0.745379 0.968062 0.130546
O O3 0.814722 0.870014 0.147884
O O4 0.905437 0.040299 0.157162
O O5 0.267579 0.390004 0.058847
O O6 0.376402 0.552953 0.066721
O O7 0.201797 0.493351 0.062698
O O8 0.293961 0.490168 0.960381
O O9 0.384228 0.133689 0.250000
O O10 0.430647 0.102658 0.365872
O O11 0.283230 0.097428 0.352325
O O12 0.426346 0.246558 0.344969
O O13 0.746099 0.000000 0.500000
O O14 0.666256 0.043400 0.419734
O O15 0.470773 0.039539 0.903883
O O16 0.500684 0.096804 0.020993
O O17 0.891723 0.471873 0.373253
O O18 0.188541 0.038790 0.250000
#
# Coordination Sequence:
#
# PCOD9586710 Si02
#       8
#    12  12  12  12  12  12  12  12
#     4  10  19  35  56  78 105 143 186 221 266 332
#     4  10  19  33  56  84 107 142 183 231 275 332
#     4  11  22  37  55  80 113 145 185 232 275 329
#     4  10  20  34  55  82 109 140 183 232 278 328
#     4  10  19  34  57  82 111 143 184 232 284 338
#     4  10  21  36  54  80 111 148 186 230 282 337
#     4   9  19  33  54  78 102 138 183 226 263 317
#     4  10  19  38  55  73 110 148 184 223 278 333
#
# _framework density 17.067242
#
# number of rings (size 3 to 8) (size 9 to 14) (size 15 to 20)
#    0.000    2.000    3.750    0.500    1.750    1.500 
#    0.750    0.625    0.000    0.000    0.000    0.000 
#    0.000    2.000    0.000    0.000    0.000    0.000 
#
# Total GULP energy -535004.576092 kJ/mol
# GULP energy per Si atom -5572.964334 kJ/mol
# Density = 1.702840 g / cm^3
# Si number density = 17.067242 Si / 1000 Ang^3
#
#
#
# Elastic Constant Matrix: (Units=GPa)
#
#
# Indices 1 2 3 4 5 6 
#
# 1 103.0653 52.6552 16.3619 0.0000 0.0000 0.0000
# 2 52.6552 103.0653 16.3619 0.0000 0.0000 0.0000
# 3 16.3619 16.3619 28.2797 0.0000 0.0000 0.0000
# 4 0.0000 0.0000 0.0000 16.0632 0.0000 0.0000
# 5 0.0000 0.0000 0.0000 0.0000 16.0632 0.0000
# 6 0.0000 0.0000 0.0000 0.0000 0.0000 25.2050
#
#
#
# Elastic Compliance Matrix: (Units=1/GPa)
#
#
# Indices 1 2 3 4 5 6 
#
# 1 0.013574 -0.006263 -0.004230 0.000000 0.000000 0.000000
# 2 -0.006263 0.013574 -0.004230 0.000000 0.000000 0.000000
# 3 -0.004230 -0.004230 0.040256 0.000000 0.000000 0.000000
# 4 0.000000 0.000000 0.000000 0.062254 0.000000 0.000000
# 5 0.000000 0.000000 0.000000 0.000000 0.062254 0.000000
# 6 0.000000 0.000000 0.000000 0.000000 0.000000 0.039675
#
#
# Mechanical properties :
#
#
# Convention : Reuss Voigt Hill
#
# Bulk Modulus (GPa) = 26.34504 45.01870 35.68187
# Shear Modulus (GPa) = 18.26919 21.40168 19.83544
#
# Velocity S-wave (km/s) = 3.27528 3.54498 3.41279
# Velocity P-wave (km/s) = 5.45645 6.57193 6.04000
#
# Compressibility (1/GPa) = 0.03795781
#
# Stress axis : x y z
#
# Youngs Moduli (GPa) = 73.67042 73.67042 24.84127
#
# Poissons Ratio (x) = 0.46142 0.10507
# Poissons Ratio (y) = 0.46142 0.10507
# Poissons Ratio (z) = 0.31161 0.31161
#
# Static dielectric constant tensor:
#      x y z
#    x 1.580770 0.000000 0.000000 
#    y 0.000000 1.580770 0.000000 
#    z 0.000000 0.000000 1.565510 
# 
# From -- ./inp_files/4461.got.cif
#   From: 2010.05.17/outbox.cif.g08.bks.cpg/sg190_3_cif.got.tgz:4461.got - 2010.05.20 12:16:56.
