data_PCOD9586504
_publ_section_title
;
Structure prediction by ZEFSAII (Michael W. Deem and Ramdas Pophale) SiO2 
 PCOD9586504
Probable space group: P -6 2 M
;
_chemical_formula_sum "Si O2"
_cell_formula_units_Z 60
_cell_length_a 18.024596
_cell_length_b 18.024596
_cell_length_c 12.322521
_cell_angle_alpha 90.000000
_cell_angle_beta 90.000000
_cell_angle_gamma 120.000000
_cell_volume 3467.059359
_symmetry_space_group_name_H-M "P -6 2 M"
_symmetry_group_IT_number 189
_symmetry_cell_setting 'hexagonal'
loop_
_space_group_symop_operation_xyz
x,y,z
-x+y,-x,-z
-y,x-y,z
x,y,-z
-x+y,-x,z
-y,x-y,-z
x-y,-y,-z
-x,-x+y,-z
y,x,-z
y,x,z
x-y,-y,z
-x,-x+y,z
loop_
_atom_site_type_symbol
_atom_site_label
_atom_site_fract_x
_atom_site_fract_y
_atom_site_fract_z
Si Si1 0.900523 0.576849 0.500000
Si Si2 0.613544 0.613544 0.123088
Si Si3 0.844264 0.369518 0.737801
Si Si4 0.288799 0.468999 0.265981
Si Si5 0.791245 0.791245 0.123623
Si Si6 0.705607 0.897873 0.870524
Si Si7 0.495735 0.095570 0.500000
O O1 0.849249 0.568300 0.611186
O O2 0.907585 0.491056 0.500000
O O3 0.000000 0.654684 0.500000
O O4 0.627952 0.545112 0.187032
O O5 0.702197 0.702197 0.120181
O O6 0.585432 0.585432 0.000000
O O7 0.849627 0.460939 0.750321
O O8 0.757094 0.281691 0.757874
O O9 0.861035 0.358247 0.611970
O O10 0.244717 0.385763 0.189047
O O11 0.763693 0.857507 0.170578
O O12 0.821485 0.821485 0.000000
O O13 0.756986 0.000000 0.856920
O O14 0.691114 0.878372 0.000000
O O15 0.417522 0.000000 0.500000
#
# Coordination Sequence:
#
# PCOD9586504 Si02
#       7
#     6   6  12  12   6  12   6
#     4   9  19  34  54  79 109 143 185 235 285 327
#     4  11  22  37  57  79 106 149 193 232 281 335
#     4  11  22  36  55  81 112 150 190 233 277 335
#     4  11  22  36  56  81 115 152 188 233 279 331
#     4   9  18  38  59  79 110 144 180 228 289 345
#     4  10  21  37  59  85 111 143 186 235 289 349
#     4   9  17  32  54  78 104 137 185 232 272 320
#
# _framework density 17.305731999999999
#
# number of rings (size 3 to 8) (size 9 to 14) (size 15 to 20)
#    0.000    1.800    3.000    1.600    2.800    0.800 
#    0.600    2.000    0.000    2.400    0.000    0.000 
#    0.000    0.000    0.000    0.000    0.000    0.000 
#
# Total GULP energy -334105.250586 kJ/mol
# GULP energy per Si atom -5568.420843 kJ/mol
# Density = 1.726634 g / cm^3
# Si number density = 17.305732 Si / 1000 Ang^3
#
#
#
# Elastic Constant Matrix: (Units=GPa)
#
#
# Indices 1 2 3 4 5 6 
#
# 1 62.5677 40.5188 27.1916 0.0000 0.0000 0.0000
# 2 40.5188 62.5677 27.1916 0.0000 0.0000 0.0000
# 3 27.1916 27.1916 76.8344 0.0000 0.0000 0.0000
# 4 0.0000 0.0000 0.0000 38.8516 0.0000 0.0000
# 5 0.0000 0.0000 0.0000 0.0000 38.8516 0.0000
# 6 0.0000 0.0000 0.0000 0.0000 0.0000 11.0245
#
#
#
# Elastic Compliance Matrix: (Units=1/GPa)
#
#
# Indices 1 2 3 4 5 6 
#
# 1 0.028641 -0.016713 -0.004221 0.000000 0.000000 0.000000
# 2 -0.016713 0.028641 -0.004221 0.000000 0.000000 0.000000
# 3 -0.004221 -0.004221 0.016003 0.000000 0.000000 0.000000
# 4 0.000000 0.000000 0.000000 0.025739 0.000000 0.000000
# 5 0.000000 0.000000 0.000000 0.000000 0.025739 0.000000
# 6 0.000000 0.000000 0.000000 0.000000 0.000000 0.090707
#
#
# Mechanical properties :
#
#
# Convention : Reuss Voigt Hill
#
# Bulk Modulus (GPa) = 43.52910 43.53043 43.52977
# Shear Modulus (GPa) = 18.28571 24.88337 21.58454
#
# Velocity S-wave (km/s) = 3.25411 3.79604 3.53547
# Velocity P-wave (km/s) = 6.27109 6.66495 6.47102
#
# Compressibility (1/GPa) = 0.02297314
#
# Stress axis : x y z
#
# Youngs Moduli (GPa) = 34.91552 34.91552 62.48944
#
# Poissons Ratio (x) = 0.58355 0.26377
# Poissons Ratio (y) = 0.58355 0.26377
# Poissons Ratio (z) = 0.14738 0.14738
#
# Static dielectric constant tensor:
#      x y z
#    x 1.596500 0.000000 0.000000 
#    y 0.000000 1.596500 0.000000 
#    z 0.000000 0.000000 1.585210 
# 
# From -- ./inp_files/1988.got.cif
#   From: 2010.05.17/outbox.cif.g08.bks.cpg/sg189_1_cif.got.tgz:1988.got - 2010.05.20 12:14:34.
