data_PCOD9586447
_publ_section_title
;
Structure prediction by ZEFSAII (Michael W. Deem and Ramdas Pophale) SiO2 
 PCOD9586447
Probable space group: P -6 2 M
;
_chemical_formula_sum "Si O2"
_cell_formula_units_Z 46
_cell_length_a 16.601146
_cell_length_b 16.601146
_cell_length_c 11.403865
_cell_angle_alpha 90.000000
_cell_angle_beta 90.000000
_cell_angle_gamma 120.000000
_cell_volume 2721.816467
_symmetry_space_group_name_H-M "P -6 2 M"
_symmetry_group_IT_number 189
_symmetry_cell_setting 'hexagonal'
loop_
_space_group_symop_operation_xyz
x,y,z
-x+y,-x,-z
-y,x-y,z
x,y,-z
-x+y,-x,z
-y,x-y,-z
x-y,-y,-z
-x,-x+y,-z
y,x,-z
y,x,z
x-y,-y,z
-x,-x+y,z
loop_
_atom_site_type_symbol
_atom_site_label
_atom_site_fract_x
_atom_site_fract_y
_atom_site_fract_z
Si Si1 0.343258 0.565404 0.500000
Si Si2 0.333334 0.666667 0.139112
Si Si3 0.536011 0.536011 0.141490
Si Si4 0.276386 0.000000 0.857942
Si Si5 0.302604 0.196959 0.859344
Si Si6 0.842631 0.499888 0.756490
O O1 0.250946 0.576289 0.500000
O O2 0.347567 0.515994 0.382504
O O3 0.307501 0.566335 0.188348
O O4 0.333334 0.666668 0.000000
O O5 0.629730 0.629730 0.176883
O O6 0.533408 0.444309 0.190812
O O7 0.531374 0.531374 0.000000
O O8 0.184488 0.905552 0.821434
O O9 0.275625 0.000000 0.000000
O O10 0.221475 0.221475 0.839231
O O11 0.395106 0.273775 0.795061
O O12 0.321487 0.205726 0.000000
#
# Coordination Sequence:
#
# PCOD9586447 Si02
#       6
#     6   4   6   6  12  12
#     4  10  22  41  54  80 116 157 203 237 264 342
#     4  12  21  31  56  85 108 150 193 224 289 357
#     4  11  22  35  55  90 122 146 192 241 295 356
#     4   9  20  34  53  82 116 149 181 233 289 348
#     4  10  20  37  58  84 116 147 190 242 292 346
#     4  12  21  37  58  80 117 159 185 239 286 340
#
# _framework density 16.900478
#
# number of rings (size 3 to 8) (size 9 to 14) (size 15 to 20)
#    0.261    1.043    3.913    3.913    0.000    2.609 
#    0.783    0.000    0.000    0.783    0.000    0.000 
#    0.000    0.000    0.000    0.000    0.000    0.000 
#
# Total GULP energy -256783.026837 kJ/mol
# GULP energy per Si atom -5582.239714 kJ/mol
# Density = 1.686201 g / cm^3
# Si number density = 16.900478 Si / 1000 Ang^3
#
#
#
# Elastic Constant Matrix: (Units=GPa)
#
#
# Indices 1 2 3 4 5 6 
#
# 1 124.7251 66.9716 39.0158 0.0012 0.0009 0.0000
# 2 66.9716 124.7245 39.0159 0.0023 -0.0011 0.0001
# 3 39.0158 39.0159 108.9343 -0.0024 0.0021 0.0000
# 4 0.0012 0.0023 -0.0024 -72.2525 -0.0139 0.0010
# 5 0.0009 -0.0011 0.0021 -0.0139 -72.2981 0.0006
# 6 0.0000 0.0001 0.0000 0.0010 0.0006 28.8769
#
#
#
# Elastic Compliance Matrix: (Units=1/GPa)
#
#
# Indices 1 2 3 4 5 6 
#
# 1 0.011711 -0.005604 -0.002187 0.000000 0.000000 0.000000
# 2 -0.005604 0.011711 -0.002187 0.000000 0.000000 0.000000
# 3 -0.002187 -0.002187 0.010747 0.000000 0.000000 0.000000
# 4 0.000000 0.000000 0.000000 -0.013840 0.000003 0.000000
# 5 0.000000 0.000000 0.000000 0.000003 -0.013832 0.000000
# 6 0.000000 0.000000 0.000000 0.000000 0.000000 0.034630
#
#
# Mechanical properties :
#
#
# Convention : Reuss Voigt Hill
#
# Bulk Modulus (GPa) = 70.36580 72.04340 71.20460
# Shear Modulus (GPa) = 75.96393 -8.90937 33.52728
#
# Velocity S-wave (km/s) = 6.71159 -2.29850 4.45883
# Velocity P-wave (km/s) = 10.08892 5.97297 8.29044
#
# Compressibility (1/GPa) = 0.01421145
#
# Stress axis : x y z
#
# Youngs Moduli (GPa) = 85.39012 85.38966 93.05259
#
# Poissons Ratio (x) = 0.47853 0.20353
# Poissons Ratio (y) = 0.47853 0.20353
# Poissons Ratio (z) = 0.18677 0.18677
#
# Static dielectric constant tensor:
#      x y z
#    x 1.585260 0.000000 0.000000 
#    y 0.000000 1.585260 0.000000 
#    z 0.000000 0.000000 1.544360 
# 
# From -- ./inp_files/1725.got.cif
#   From: 2010.05.17/outbox.cif.g08.bks.cpg/sg189_1_cif.got.tgz:1725.got - 2010.05.20 12:14:34.
