data_PCOD9586117
_publ_section_title
;
Structure prediction by ZEFSAII (Michael W. Deem and Ramdas Pophale) SiO2 
 PCOD9586117
Probable space group: P -6 2 M
;
_chemical_formula_sum "Si O2"
_cell_formula_units_Z 76
_cell_length_a 20.205874
_cell_length_b 20.205874
_cell_length_c 13.713733
_cell_angle_alpha 90.000000
_cell_angle_beta 90.000000
_cell_angle_gamma 120.000000
_cell_volume 4848.881854
_symmetry_space_group_name_H-M "P -6 2 M"
_symmetry_group_IT_number 189
_symmetry_cell_setting 'hexagonal'
loop_
_space_group_symop_operation_xyz
x,y,z
-x+y,-x,-z
-y,x-y,z
x,y,-z
-x+y,-x,z
-y,x-y,-z
x-y,-y,-z
-x,-x+y,-z
y,x,-z
y,x,z
x-y,-y,z
-x,-x+y,z
loop_
_atom_site_type_symbol
_atom_site_label
_atom_site_fract_x
_atom_site_fract_y
_atom_site_fract_z
Si Si1 0.666667 0.333334 0.882407
Si Si2 0.656652 0.569061 0.118011
Si Si3 0.910446 0.091998 0.727005
Si Si4 0.091223 0.701528 0.799914
Si Si5 0.687165 0.907725 0.608890
Si Si6 0.691056 0.827403 0.887006
Si Si7 0.557014 0.393075 0.881592
O O1 0.595861 0.343198 0.853953
O O2 0.666667 0.333334 0.000000
O O3 0.601687 0.601687 0.146037
O O4 0.742337 0.629742 0.150270
O O5 0.616646 0.480605 0.146727
O O6 0.660939 0.568835 0.000000
O O7 0.862017 0.108098 0.645802
O O8 0.899153 0.131480 0.823318
O O9 0.000000 0.129352 0.705215
O O10 0.869238 0.000000 0.738509
O O11 0.117428 0.741045 0.693259
O O12 0.124231 0.772347 0.874407
O O13 0.118592 0.642834 0.830004
O O14 0.000000 0.658516 0.802216
O O15 0.660311 0.878071 0.500000
O O16 0.728104 0.000000 0.605631
O O17 0.708046 0.822268 0.000000
O O18 0.546787 0.390751 0.000000
#
# Coordination Sequence:
#
# PCOD9586117 Si02
#       7
#     4  12  12  12  12  12  12
#     4   9  18  30  42  60  91 131 163 183 216 267
#     4   9  17  28  42  61  87 121 157 190 225 264
#     4  10  20  32  47  68  93 123 161 203 243 280
#     4  10  19  29  45  69  91 115 150 188 228 274
#     4   8  16  32  50  67  88 112 141 182 233 285
#     4  10  19  31  45  62  91 131 165 190 224 276
#     4  10  18  28  43  66  96 123 149 186 227 267
#
# _framework density 15.673716000000001
#
# number of rings (size 3 to 8) (size 9 to 14) (size 15 to 20)
#    0.000    2.526    0.000    3.947    0.000    6.632 
#    0.000    0.000    0.000    1.895    0.000    9.947 
#    0.000   12.632    0.000    0.000    0.000    0.000 
#
# Total GULP energy -423314.902911 kJ/mol
# GULP energy per Si atom -5569.932933 kJ/mol
# Density = 1.563804 g / cm^3
# Si number density = 15.673716 Si / 1000 Ang^3
#
#
#
# Elastic Constant Matrix: (Units=GPa)
#
#
# Indices 1 2 3 4 5 6 
#
# 1 76.7092 19.9635 14.0867 0.0000 0.0000 0.0002
# 2 19.9635 76.7123 14.0870 0.0001 0.0000 0.0005
# 3 14.0867 14.0870 53.1997 0.0000 0.0000 0.0000
# 4 0.0000 0.0001 0.0000 6.5483 0.0000 0.0000
# 5 0.0000 0.0000 0.0000 0.0000 6.5481 0.0001
# 6 0.0002 0.0005 0.0000 0.0000 0.0001 28.3741
#
#
#
# Elastic Compliance Matrix: (Units=1/GPa)
#
#
# Indices 1 2 3 4 5 6 
#
# 1 0.014416 -0.003206 -0.002968 0.000000 0.000000 0.000000
# 2 -0.003206 0.014415 -0.002968 0.000000 0.000000 0.000000
# 3 -0.002968 -0.002968 0.020369 0.000000 0.000000 0.000000
# 4 0.000000 0.000000 0.000000 0.152711 0.000000 0.000000
# 5 0.000000 0.000000 0.000000 0.000000 0.152716 0.000000
# 6 0.000000 0.000000 0.000000 0.000000 0.000000 0.035243
#
#
# Mechanical properties :
#
#
# Convention : Reuss Voigt Hill
#
# Bulk Modulus (GPa) = 32.34704 33.65505 33.00104
# Shear Modulus (GPa) = 11.94858 18.85972 15.40415
#
# Velocity S-wave (km/s) = 2.76403 3.47258 3.13837
# Velocity P-wave (km/s) = 5.55599 6.13167 5.85091
#
# Compressibility (1/GPa) = 0.03091473
#
# Stress axis : x y z
#
# Youngs Moduli (GPa) = 69.36841 69.37122 49.09439
#
# Poissons Ratio (x) = 0.22244 0.14572
# Poissons Ratio (y) = 0.22243 0.14571
# Poissons Ratio (z) = 0.20589 0.20590
#
# Static dielectric constant tensor:
#      x y z
#    x 1.530090 0.000000 0.000000 
#    y 0.000000 1.530090 0.000000 
#    z 0.000000 0.000000 1.520770 
# 
# From -- ./inp_files/2745.got.cif
#   From: 2010.05.17/outbox.cif.g08.bks.cpg/sg189_2_cif.got.tgz:2745.got - 2010.05.20 12:14:34.
