data_PCOD9586351
_publ_section_title
;
Structure prediction by ZEFSAII (Michael W. Deem and Ramdas Pophale) SiO2 
 PCOD9586351
Probable space group: P -6 2 M
;
_chemical_formula_sum "Si O2"
_cell_formula_units_Z 96
_cell_length_a 15.783184
_cell_length_b 15.783184
_cell_length_c 25.767716
_cell_angle_alpha 90.000000
_cell_angle_beta 90.000000
_cell_angle_gamma 120.000000
_cell_volume 5558.988761
_symmetry_space_group_name_H-M "P -6 2 M"
_symmetry_group_IT_number 189
_symmetry_cell_setting 'hexagonal'
loop_
_space_group_symop_operation_xyz
x,y,z
-x+y,-x,-z
-y,x-y,z
x,y,-z
-x+y,-x,z
-y,x-y,-z
x-y,-y,-z
-x,-x+y,-z
y,x,-z
y,x,z
x-y,-y,z
-x,-x+y,z
loop_
_atom_site_type_symbol
_atom_site_label
_atom_site_fract_x
_atom_site_fract_y
_atom_site_fract_z
Si Si1 0.113617 0.596933 0.424336
Si Si2 0.731050 0.117184 0.868776
Si Si3 0.741919 0.564768 0.556429
Si Si4 0.881347 0.457686 0.058771
Si Si5 0.883755 0.264493 0.060084
Si Si6 0.391789 0.273551 0.748743
Si Si7 0.558464 0.113239 0.304517
Si Si8 0.369837 0.116827 0.328361
O O1 0.148467 0.520333 0.440041
O O2 0.187329 0.705788 0.442867
O O3 0.116627 0.599972 0.361873
O O4 0.000000 0.552282 0.439738
O O5 0.656287 0.145285 0.896815
O O6 0.828154 0.173844 0.902370
O O7 0.752870 0.144729 0.808627
O O8 0.680138 0.000000 0.872395
O O9 0.755024 0.614429 0.500000
O O10 0.763097 0.626076 0.609709
O O11 0.852363 0.346457 0.069933
O O12 0.000000 0.516862 0.056644
O O13 0.847559 0.463668 0.000000
O O14 0.000000 0.318710 0.067097
O O15 0.862120 0.234952 0.000000
O O16 0.331964 0.331964 0.744329
O O17 0.504417 0.349766 0.733085
O O18 0.345744 0.183520 0.708567
O O19 0.481719 0.150124 0.311311
O O20 0.490712 0.000000 0.289410
O O21 0.302236 0.000000 0.320474
#
# Coordination Sequence:
#
# PCOD9586351 Si02
#       8
#    12  12  12  12  12  12  12  12
#     4  10  20  35  53  75 107 144 180 222 271 326
#     4  10  20  32  52  79 104 136 176 219 264 310
#     4  11  21  32  51  78 107 141 180 221 272 331
#     4   8  15  30  50  71  99 135 171 208 253 303
#     4   9  18  33  53  77 107 141 174 211 257 311
#     4  10  20  36  54  74 104 138 176 221 265 313
#     4   8  16  33  53  71  96 131 169 210 255 305
#     4  10  21  36  55  77 102 138 178 218 268 318
#
# _framework density 17.269327000000001
#
# number of rings (size 3 to 8) (size 9 to 14) (size 15 to 20)
#    0.000    2.500    1.250    2.875    0.000    4.000 
#    1.500    2.500    0.000    0.500    0.000    0.000 
#    0.000    0.000    0.000    0.000    0.000    0.000 
#
# Total GULP energy -534650.290803 kJ/mol
# GULP energy per Si atom -5569.273863 kJ/mol
# Density = 1.723002 g / cm^3
# Si number density = 17.269327 Si / 1000 Ang^3
#
#
#
# Elastic Constant Matrix: (Units=GPa)
#
#
# Indices 1 2 3 4 5 6 
#
# 1 52.5796 15.1818 43.2782 0.0000 0.0000 0.0000
# 2 15.1818 52.5796 43.2782 0.0000 0.0000 0.0000
# 3 43.2782 43.2782 124.9647 0.0000 0.0000 0.0000
# 4 0.0000 0.0000 0.0000 25.5187 0.0000 0.0000
# 5 0.0000 0.0000 0.0000 0.0000 25.5187 0.0000
# 6 0.0000 0.0000 0.0000 0.0000 0.0000 18.6989
#
#
#
# Elastic Compliance Matrix: (Units=1/GPa)
#
#
# Indices 1 2 3 4 5 6 
#
# 1 0.026603 -0.000137 -0.009166 0.000000 0.000000 0.000000
# 2 -0.000137 0.026603 -0.009166 0.000000 0.000000 0.000000
# 3 -0.009166 -0.009166 0.014351 0.000000 0.000000 0.000000
# 4 0.000000 0.000000 0.000000 0.039187 0.000000 0.000000
# 5 0.000000 0.000000 0.000000 0.000000 0.039187 0.000000
# 6 0.000000 0.000000 0.000000 0.000000 0.000000 0.053479
#
#
# Mechanical properties :
#
#
# Convention : Reuss Voigt Hill
#
# Bulk Modulus (GPa) = 32.65901 48.17783 40.41842
# Shear Modulus (GPa) = 20.27968 22.50629 21.39298
#
# Velocity S-wave (km/s) = 3.43055 3.61397 3.52346
# Velocity P-wave (km/s) = 5.88593 6.73594 6.32523
#
# Compressibility (1/GPa) = 0.03061942
#
# Stress axis : x y z
#
# Youngs Moduli (GPa) = 37.59030 37.59030 69.68230
#
# Poissons Ratio (x) = 0.00515 0.63869
# Poissons Ratio (y) = 0.00515 0.63869
# Poissons Ratio (z) = 0.34454 0.34454
#
# Static dielectric constant tensor:
#      x y z
#    x 1.593660 0.000000 0.000000 
#    y 0.000000 1.593660 0.000000 
#    z 0.000000 0.000000 1.612560 
# 
# From -- ./inp_files/3703.got.cif
#   From: 2010.05.17/outbox.cif.g08.bks.cpg/sg189_2_cif.got.tgz:3703.got - 2010.05.20 12:14:34.
