data_PCOD9586475
_publ_section_title
;
Structure prediction by ZEFSAII (Michael W. Deem and Ramdas Pophale) SiO2 
 PCOD9586475
Probable space group: P -6 2 M
;
_chemical_formula_sum "Si O2"
_cell_formula_units_Z 48
_cell_length_a 19.482290
_cell_length_b 19.482290
_cell_length_c 8.084594
_cell_angle_alpha 90.000000
_cell_angle_beta 90.000000
_cell_angle_gamma 120.000000
_cell_volume 2657.472959
_symmetry_space_group_name_H-M "P -6 2 M"
_symmetry_group_IT_number 189
_symmetry_cell_setting 'hexagonal'
loop_
_space_group_symop_operation_xyz
x,y,z
-x+y,-x,-z
-y,x-y,z
x,y,-z
-x+y,-x,z
-y,x-y,-z
x-y,-y,-z
-x,-x+y,-z
y,x,-z
y,x,z
x-y,-y,z
-x,-x+y,z
loop_
_atom_site_type_symbol
_atom_site_label
_atom_site_fract_x
_atom_site_fract_y
_atom_site_fract_z
Si Si1 0.755919 0.667696 0.800856
Si Si2 0.334737 0.822748 0.201811
Si Si3 0.911641 0.668788 0.696987
Si Si4 0.176715 0.665743 0.199929
O O1 0.727829 0.727829 0.739425
O O2 0.695352 0.577705 0.742842
O O3 0.843813 0.686761 0.757272
O O4 0.751448 0.665976 0.000000
O O5 0.265017 0.734777 0.248507
O O6 0.420203 0.839701 0.259312
O O7 0.337060 0.825005 0.000000
O O8 0.913812 0.674658 0.500000
O O9 0.883048 0.577819 0.742724
O O10 0.000000 0.726079 0.763179
O O11 0.174756 0.664441 0.000000
#
# Coordination Sequence:
#
# PCOD9586475 Si02
#       4
#    12  12  12  12
#     4   9  18  33  53  76  98 120 152 196 244 293
#     4   8  14  25  44  71  98 124 158 197 232 266
#     4  10  21  35  49  68  96 128 161 196 235 283
#     4   9  16  28  48  71  96 129 167 203 237 273
#
# _framework density 18.062272
#
# number of rings (size 3 to 8) (size 9 to 14) (size 15 to 20)
#    0.000    3.000    0.000    2.750    0.000    5.500 
#    0.000    7.500    0.000    0.500    0.000    0.000 
#    0.000    0.000    0.000    0.000    0.000    0.000 
#
# Total GULP energy -267514.665614 kJ/mol
# GULP energy per Si atom -5573.222200 kJ/mol
# Density = 1.802116 g / cm^3
# Si number density = 18.062272 Si / 1000 Ang^3
#
#
#
# Elastic Constant Matrix: (Units=GPa)
#
#
# Indices 1 2 3 4 5 6 
#
# 1 134.8031 115.3791 13.0167 0.0000 0.0000 0.0000
# 2 115.3791 134.8031 13.0167 0.0000 0.0000 0.0000
# 3 13.0167 13.0167 12.9933 0.0000 0.0000 0.0000
# 4 0.0000 0.0000 0.0000 -69.1236 0.0000 0.0000
# 5 0.0000 0.0000 0.0000 0.0000 -69.1236 0.0000
# 6 0.0000 0.0000 0.0000 0.0000 0.0000 9.7120
#
#
#
# Elastic Compliance Matrix: (Units=1/GPa)
#
#
# Indices 1 2 3 4 5 6 
#
# 1 0.027973 -0.023510 -0.004470 0.000000 0.000000 0.000000
# 2 -0.023510 0.027973 -0.004470 0.000000 0.000000 0.000000
# 3 -0.004470 -0.004470 0.085920 0.000000 0.000000 0.000000
# 4 0.000000 0.000000 0.000000 -0.014467 0.000000 0.000000
# 5 0.000000 0.000000 0.000000 0.000000 -0.014467 0.000000
# 6 0.000000 0.000000 0.000000 0.000000 0.000000 0.102966
#
#
# Mechanical properties :
#
#
# Convention : Reuss Voigt Hill
#
# Bulk Modulus (GPa) = 12.99325 62.82492 37.90908
# Shear Modulus (GPa) = 16.31572 -16.29459 0.01057
#
# Velocity S-wave (km/s) = 3.00876 -3.00681 0.07658
# Velocity P-wave (km/s) = 4.39083 4.77528 4.58709
#
# Compressibility (1/GPa) = 0.07696303
#
# Stress axis : x y z
#
# Youngs Moduli (GPa) = 35.74935 35.74935 11.63877
#
# Poissons Ratio (x) = 0.84048 0.05203
# Poissons Ratio (y) = 0.84048 0.05203
# Poissons Ratio (z) = 0.15981 0.15981
#
# Static dielectric constant tensor:
#      x y z
#    x 1.623090 0.000000 0.000000 
#    y 0.000000 1.623090 0.000000 
#    z 0.000000 0.000000 1.641290 
# 
# From -- ./inp_files/540.got.cif
#   From: 2010.05.17/outbox.cif.g08.bks.cpg/sg189_1_cif.got.tgz:540.got - 2010.05.20 12:14:34.
