data_PCOD9586093
_publ_section_title
;
Structure prediction by ZEFSAII (Michael W. Deem and Ramdas Pophale) SiO2 
 PCOD9586093
Probable space group: P -6 C 2
;
_chemical_formula_sum "Si O2"
_cell_formula_units_Z 84
_cell_length_a 15.000000
_cell_length_b 15.000000
_cell_length_c 24.000000
_cell_angle_alpha 90.000000
_cell_angle_beta 90.000000
_cell_angle_gamma 120.000000
_cell_volume 4676.537180
_symmetry_space_group_name_H-M "P -6 C 2"
_symmetry_group_IT_number 188
_symmetry_cell_setting 'hexagonal'
loop_
_space_group_symop_operation_xyz
x,y,z
-x+y,-x,1/2-z
-y,x-y,z
x,y,1/2-z
-x+y,-x,z
-y,x-y,1/2-z
-y,-x,-z
-x+y,y,-z
x,x-y,-z
-x+y,y,1/2+z
x,x-y,1/2+z
-y,-x,1/2+z
loop_
_atom_site_type_symbol
_atom_site_label
_atom_site_fract_x
_atom_site_fract_y
_atom_site_fract_z
Si Si1 0.449664 0.557512 0.933268
Si Si2 0.885406 0.113815 0.068340
Si Si3 0.448031 0.219588 0.375663
Si Si4 0.210757 0.781805 0.567902
Si Si5 0.786406 0.894056 0.877540
Si Si6 0.564518 0.124116 0.432635
Si Si7 0.731307 0.470510 0.250000
Si Si8 0.069491 0.933644 0.250000
O O1 0.484146 0.673272 0.917947
O O2 0.336241 0.472375 0.915530
O O3 0.535307 0.527646 0.919453
O O4 0.444214 0.555787 0.000000
O O5 0.811313 0.147666 0.099539
O O6 0.998906 0.186992 0.092934
O O7 0.855194 0.001346 0.091537
O O8 0.881656 0.118345 0.000000
O O9 0.477398 0.140815 0.404353
O O10 0.528698 0.329048 0.402719
O O11 0.465585 0.227120 0.308352
O O12 0.204535 0.795466 0.500000
O O13 0.184075 0.854746 0.603576
O O14 0.806506 0.905438 0.810279
O O15 0.569395 0.138789 0.500000
O O16 0.777617 0.391977 0.250000
O O17 0.945432 0.888307 0.250000
#
# Coordination Sequence:
#
# PCOD9586093 Si02
#       8
#    12  12  12  12  12  12   6   6
#     4   9  19  34  55  82 121 155 193 242 295 363
#     4  12  24  39  60  95 127 163 202 251 320 374
#     4  12  23  37  61  85 121 161 203 253 301 372
#     4  10  19  35  58  89 119 160 204 248 307 360
#     4  12  23  40  64  87 126 161 205 257 296 365
#     4  11  20  34  52  82 118 155 193 249 306 360
#     4  10  20  44  63  84 118 166 217 250 296 374
#     4  10  20  44  63  84 118 166 215 242 294 370
#
# _framework density 17.962008000000001
#
# number of rings (size 3 to 8) (size 9 to 14) (size 15 to 20)
#    0.286    0.857    2.857    5.143    0.000    4.571 
#    0.000    0.000    0.000    0.857    0.000    0.000 
#    0.000    0.000    0.000    0.000    0.000    0.000 
#
# Total GULP energy -468308.369303 kJ/mol
# GULP energy per Si atom -5575.099635 kJ/mol
# Density = 1.792113 g / cm^3
# Si number density = 17.962008 Si / 1000 Ang^3
#
#
#
# Elastic Constant Matrix: (Units=GPa)
#
#
# Indices 1 2 3 4 5 6 
#
# 1 58.7225 -2.1469 25.7081 0.0001 0.0000 0.0000
# 2 -2.1469 58.7225 25.7081 -0.0001 0.0000 0.0000
# 3 25.7081 25.7081 163.7114 0.0000 0.0000 0.0000
# 4 0.0001 -0.0001 0.0000 19.2514 0.0000 0.0000
# 5 0.0000 0.0000 0.0000 0.0000 19.2514 0.0001
# 6 0.0000 0.0000 0.0000 0.0000 0.0001 30.4347
#
#
#
# Elastic Compliance Matrix: (Units=1/GPa)
#
#
# Indices 1 2 3 4 5 6 
#
# 1 0.018523 0.002095 -0.003238 0.000000 0.000000 0.000000
# 2 0.002095 0.018523 -0.003238 0.000000 0.000000 0.000000
# 3 -0.003238 -0.003238 0.007125 0.000000 0.000000 0.000000
# 4 0.000000 0.000000 0.000000 0.051944 0.000000 0.000000
# 5 0.000000 0.000000 0.000000 0.000000 0.051944 0.000000
# 6 0.000000 0.000000 0.000000 0.000000 0.000000 0.032857
#
#
# Mechanical properties :
#
#
# Convention : Reuss Voigt Hill
#
# Bulk Modulus (GPa) = 28.24045 42.18834 35.21439
# Shear Modulus (GPa) = 24.81609 29.24664 27.03137
#
# Velocity S-wave (km/s) = 3.72100 4.03954 3.88354
# Velocity P-wave (km/s) = 5.84958 6.73021 6.30529
#
# Compressibility (1/GPa) = 0.03541020
#
# Stress axis : x y z
#
# Youngs Moduli (GPa) = 53.98614 53.98614 140.34765
#
# Poissons Ratio (x) = -0.11308 0.45440
# Poissons Ratio (y) = -0.11308 0.45440
# Poissons Ratio (z) = 0.17479 0.17479
#
# Static dielectric constant tensor:
#      x y z
#    x 1.656960 0.000000 0.000000 
#    y 0.000000 1.656960 0.000000 
#    z 0.000000 0.000000 1.574270 
# 
# From -- ./inp_files/4111.got.cif
#   From: 2010.05.17/outbox.ucp.g08.bks.cvg/sg188_3_cif.got.tgz:4111.got - 2010.06.11 15:21:59.
