data_PCOD9586657
_publ_section_title
;
Structure prediction by ZEFSAII (Michael W. Deem and Ramdas Pophale) SiO2 
 PCOD9586657
Probable space group: P -6 2 C
;
_chemical_formula_sum "Si O2"
_cell_formula_units_Z 78
_cell_length_a 25.005977
_cell_length_b 25.005977
_cell_length_c 8.189890
_cell_angle_alpha 90.000000
_cell_angle_beta 90.000000
_cell_angle_gamma 120.000000
_cell_volume 4435.027889
_symmetry_space_group_name_H-M "P -6 2 C"
_symmetry_group_IT_number 190
_symmetry_cell_setting 'hexagonal'
loop_
_space_group_symop_operation_xyz
x,y,z
-x+y,-x,1/2-z
-y,x-y,z
x,y,1/2-z
-x+y,-x,z
-y,x-y,1/2-z
x-y,-y,-z
-x,-x+y,-z
y,x,-z
y,x,1/2+z
x-y,-y,1/2+z
-x,-x+y,1/2+z
loop_
_atom_site_type_symbol
_atom_site_label
_atom_site_fract_x
_atom_site_fract_y
_atom_site_fract_z
Si Si1 0.481816 0.856619 0.445645
Si Si2 0.270726 0.591074 0.250000
Si Si3 0.309666 0.378203 0.441611
Si Si4 0.374753 0.190687 0.059942
Si Si5 0.583475 0.513251 0.053750
Si Si6 0.262513 0.739405 0.933061
Si Si7 0.930665 0.294297 0.052583
O O1 0.486456 0.849710 0.250000
O O2 0.551773 0.904236 0.507603
O O3 0.438118 0.884766 0.479779
O O4 0.462040 0.792746 0.538056
O O5 0.383646 0.728285 0.250000
O O6 0.244874 0.553869 0.416608
O O7 0.318185 0.382552 0.250000
O O8 0.331940 0.331940 0.500000
O O9 0.239260 0.359271 0.479095
O O10 0.357580 0.186676 0.250000
O O11 0.449123 0.220769 0.052926
O O12 0.349529 0.122020 0.991914
O O13 0.583472 0.509042 0.250000
O O14 0.651006 0.568249 0.000322
O O15 0.536202 0.536202 0.000000
O O16 0.288765 0.747409 0.750000
O O17 0.927732 0.292931 0.250000
O O18 0.000000 0.315858 0.000000
#
# Coordination Sequence:
#
# PCOD9586657 Si02
#       7
#    12   6  12  12  12  12  12
#     4  10  19  32  50  73 101 129 166 212 260 316
#     4  10  24  40  52  72  98 124 168 226 256 320
#     4  10  20  32  50  75 104 135 170 210 255 311
#     4   9  19  35  55  76 101 135 172 213 255 313
#     4  10  19  30  45  68  97 127 164 206 260 312
#     4  10  20  37  57  74  98 130 170 212 266 321
#     4   9  19  35  51  74 102 129 170 213 257 313
#
# _framework density 17.587263
#
# number of rings (size 3 to 8) (size 9 to 14) (size 15 to 20)
#    0.154    2.154    0.769    1.846    1.077    6.154 
#    0.000    1.538    0.000    0.000    0.000    0.000 
#    0.000    0.000    0.000    0.462    0.000    7.385 
#
# Total GULP energy -435367.583097 kJ/mol
# GULP energy per Si atom -5581.635681 kJ/mol
# Density = 1.754723 g / cm^3
# Si number density = 17.587263 Si / 1000 Ang^3
#
#
#
# Elastic Constant Matrix: (Units=GPa)
#
#
# Indices 1 2 3 4 5 6 
#
# 1 77.8168 44.5431 13.4191 0.0000 0.0000 0.0000
# 2 44.5431 77.8168 13.4191 0.0000 0.0000 0.0000
# 3 13.4191 13.4191 59.5688 0.0000 0.0000 0.0000
# 4 0.0000 0.0000 0.0000 17.9111 0.0000 0.0000
# 5 0.0000 0.0000 0.0000 0.0000 17.9111 0.0000
# 6 0.0000 0.0000 0.0000 0.0000 0.0000 16.6369
#
#
#
# Elastic Compliance Matrix: (Units=1/GPa)
#
#
# Indices 1 2 3 4 5 6 
#
# 1 0.019326 -0.010728 -0.001937 0.000000 0.000000 0.000000
# 2 -0.010728 0.019326 -0.001937 0.000000 0.000000 0.000000
# 3 -0.001937 -0.001937 0.017660 0.000000 0.000000 0.000000
# 4 0.000000 0.000000 0.000000 0.055831 0.000000 0.000000
# 5 0.000000 0.000000 0.000000 0.000000 0.055831 0.000000
# 6 0.000000 0.000000 0.000000 0.000000 0.000000 0.060107
#
#
# Mechanical properties :
#
#
# Convention : Reuss Voigt Hill
#
# Bulk Modulus (GPa) = 36.88984 39.77390 38.33187
# Shear Modulus (GPa) = 18.77438 20.07988 19.42713
#
# Velocity S-wave (km/s) = 3.27080 3.38261 3.32718
# Velocity P-wave (km/s) = 5.94012 6.15795 6.05002
#
# Compressibility (1/GPa) = 0.02710773
#
# Stress axis : x y z
#
# Youngs Moduli (GPa) = 51.74494 51.74494 56.62546
#
# Poissons Ratio (x) = 0.55513 0.10967
# Poissons Ratio (y) = 0.55513 0.10967
# Poissons Ratio (z) = 0.10022 0.10022
#
# Static dielectric constant tensor:
#      x y z
#    x 1.621180 0.000000 0.000000 
#    y 0.000000 1.621180 0.000000 
#    z 0.000000 0.000000 1.629880 
# 
# From -- ./inp_files/1348.got.cif
#   From: 2010.05.17/outbox.cif.g08.bks.cpg/sg190_1_cif.got.tgz:1348.got - 2010.05.20 12:16:56.
