data_PCOD9586373
_publ_section_title
;
Structure prediction by ZEFSAII (Michael W. Deem and Ramdas Pophale) SiO2 
 PCOD9586373
Probable space group: P -6 2 M
;
_chemical_formula_sum "Si O2"
_cell_formula_units_Z 66
_cell_length_a 21.680044
_cell_length_b 21.680044
_cell_length_c 8.651458
_cell_angle_alpha 90.000000
_cell_angle_beta 90.000000
_cell_angle_gamma 120.000000
_cell_volume 3521.601855
_symmetry_space_group_name_H-M "P -6 2 M"
_symmetry_group_IT_number 189
_symmetry_cell_setting 'hexagonal'
loop_
_space_group_symop_operation_xyz
x,y,z
-x+y,-x,-z
-y,x-y,z
x,y,-z
-x+y,-x,z
-y,x-y,-z
x-y,-y,-z
-x,-x+y,-z
y,x,-z
y,x,z
x-y,-y,z
-x,-x+y,z
loop_
_atom_site_type_symbol
_atom_site_label
_atom_site_fract_x
_atom_site_fract_y
_atom_site_fract_z
Si Si1 0.634740 0.847658 0.176390
Si Si2 0.917140 0.794359 0.828718
Si Si3 0.086051 0.507074 0.175111
Si Si4 0.077588 0.159716 0.500000
Si Si5 0.625159 0.707583 0.316939
Si Si6 0.082790 0.634502 0.316823
O O1 0.717002 0.909709 0.179683
O O2 0.637027 0.778498 0.234734
O O3 0.587067 0.870204 0.274023
O O4 0.609503 0.836543 0.000000
O O5 0.886092 0.802296 0.664648
O O6 0.000000 0.854963 0.830427
O O7 0.887237 0.797263 0.000000
O O8 0.101700 0.455584 0.279315
O O9 0.109841 0.585120 0.238179
O O10 0.000000 0.467787 0.172895
O O11 0.110893 0.508871 0.000000
O O12 0.139103 0.139103 0.500000
O O13 0.000000 0.090763 0.500000
O O14 0.634692 0.719319 0.500000
O O15 0.676888 0.676888 0.264582
O O16 0.082502 0.624985 0.500000
O O17 0.000000 0.603979 0.267905
#
# Coordination Sequence:
#
# PCOD9586373 Si02
#       6
#    12  12  12   6  12  12
#     4  11  22  35  53  79 110 143 182 226 274 328
#     4   9  20  37  54  75 106 142 180 229 289 345
#     4   9  17  32  54  78 105 138 175 214 259 310
#     4  10  21  36  56  76 100 134 180 230 284 344
#     4  10  21  36  54  77 109 146 184 224 267 319
#     4  10  20  33  54  83 112 141 177 222 272 324
#
# _framework density 18.741471000000001
#
# number of rings (size 3 to 8) (size 9 to 14) (size 15 to 20)
#    0.000    2.182    0.000    2.818    2.545    6.182 
#    0.000    1.818    0.000    1.818    0.000    5.091 
#    0.000    0.000    0.000    0.000    0.000    0.000 
#
# Total GULP energy -367766.262497 kJ/mol
# GULP energy per Si atom -5572.216098 kJ/mol
# Density = 1.869881 g / cm^3
# Si number density = 18.741471 Si / 1000 Ang^3
#
#
#
# Elastic Constant Matrix: (Units=GPa)
#
#
# Indices 1 2 3 4 5 6 
#
# 1 44.9144 8.4353 6.3750 0.0000 0.0000 0.0000
# 2 8.4353 44.9144 6.3750 0.0000 0.0000 0.0000
# 3 6.3750 6.3750 97.5775 0.0000 0.0000 0.0000
# 4 0.0000 0.0000 0.0000 43.4749 0.0000 0.0000
# 5 0.0000 0.0000 0.0000 0.0000 43.4749 0.0000
# 6 0.0000 0.0000 0.0000 0.0000 0.0000 18.2396
#
#
#
# Elastic Compliance Matrix: (Units=1/GPa)
#
#
# Indices 1 2 3 4 5 6 
#
# 1 0.023227 -0.004186 -0.001244 0.000000 0.000000 0.000000
# 2 -0.004186 0.023227 -0.001244 0.000000 0.000000 0.000000
# 3 -0.001244 -0.001244 0.010411 0.000000 0.000000 0.000000
# 4 0.000000 0.000000 0.000000 0.023002 0.000000 0.000000
# 5 0.000000 0.000000 0.000000 0.000000 0.023002 0.000000
# 6 0.000000 0.000000 0.000000 0.000000 0.000000 0.054826
#
#
# Mechanical properties :
#
#
# Convention : Reuss Voigt Hill
#
# Bulk Modulus (GPa) = 22.97913 25.53078 24.25496
# Shear Modulus (GPa) = 26.94718 32.11928 29.53323
#
# Velocity S-wave (km/s) = 3.79600 4.14431 3.97397
# Velocity P-wave (km/s) = 5.61253 6.04587 5.83323
#
# Compressibility (1/GPa) = 0.04351775
#
# Stress axis : x y z
#
# Youngs Moduli (GPa) = 43.05290 43.05290 96.05394
#
# Poissons Ratio (x) = 0.18021 0.11949
# Poissons Ratio (y) = 0.18021 0.11949
# Poissons Ratio (z) = 0.05356 0.05356
#
# Static dielectric constant tensor:
#      x y z
#    x 1.640810 0.000000 0.000000 
#    y 0.000000 1.640810 0.000000 
#    z 0.000000 0.000000 1.681400 
# 
# From -- ./inp_files/1046.got.cif
#   From: 2010.05.17/outbox.cif.g08.bks.cpg/sg189_1_cif.got.tgz:1046.got - 2010.05.20 12:14:34.
