data_PCOD9586479
_publ_section_title
;
Structure prediction by ZEFSAII (Michael W. Deem and Ramdas Pophale) SiO2 
 PCOD9586479
Probable space group: P -6 2 M
;
_chemical_formula_sum "Si O2"
_cell_formula_units_Z 96
_cell_length_a 14.691452
_cell_length_b 14.691452
_cell_length_c 25.469686
_cell_angle_alpha 90.000000
_cell_angle_beta 90.000000
_cell_angle_gamma 120.000000
_cell_volume 4760.840849
_symmetry_space_group_name_H-M "P -6 2 M"
_symmetry_group_IT_number 189
_symmetry_cell_setting 'hexagonal'
loop_
_space_group_symop_operation_xyz
x,y,z
-x+y,-x,-z
-y,x-y,z
x,y,-z
-x+y,-x,z
-y,x-y,-z
x-y,-y,-z
-x,-x+y,-z
y,x,-z
y,x,z
x-y,-y,z
-x,-x+y,z
loop_
_atom_site_type_symbol
_atom_site_label
_atom_site_fract_x
_atom_site_fract_y
_atom_site_fract_z
Si Si1 0.877276 0.666719 0.257836
Si Si2 0.882807 0.210352 0.629597
Si Si3 0.567270 0.126240 0.141634
Si Si4 0.340068 0.215748 0.140484
Si Si5 0.123035 0.540589 0.633614
Si Si6 0.570271 0.123397 0.745832
Si Si7 0.874853 0.296503 0.058973
Si Si8 0.696102 0.122813 0.558664
O O1 0.815955 0.671037 0.308814
O O2 0.842149 0.676165 0.198880
O O3 0.875112 0.555668 0.256844
O O4 0.000000 0.754544 0.263636
O O5 0.880293 0.316228 0.615040
O O6 0.791563 0.128827 0.592239
O O7 0.000000 0.233683 0.620164
O O8 0.680936 0.137183 0.137266
O O9 0.561472 0.170217 0.198891
O O10 0.527464 0.166603 0.093604
O O11 0.488885 0.000000 0.143690
O O12 0.258693 0.258693 0.135013
O O13 0.341954 0.145606 0.093435
O O14 0.172805 0.563303 0.691522
O O15 0.169631 0.637570 0.593982
O O16 0.000000 0.507579 0.641868
O O17 0.479567 0.000000 0.746667
O O18 0.000000 0.370954 0.054476
O O19 0.830690 0.269856 0.000000
O O20 0.726728 0.168419 0.500000
O O21 0.612256 0.000000 0.552624
#
# Coordination Sequence:
#
# PCOD9586479 Si02
#       8
#    12  12  12  12  12  12  12  12
#     4   9  17  33  56  80 112 148 184 225 277 339
#     4  11  22  33  54  89 118 143 184 236 283 329
#     4   8  16  31  51  75 102 135 172 215 272 326
#     4   9  19  35  56  81 107 147 194 232 274 333
#     4   9  18  32  51  78 107 137 175 217 265 322
#     4   8  13  27  52  73  96 133 172 209 251 314
#     4  10  21  35  52  77 110 146 186 235 286 335
#     4  10  21  40  62  77 103 154 196 224 276 341
#
# _framework density 20.164505999999999
#
# number of rings (size 3 to 8) (size 9 to 14) (size 15 to 20)
#    0.000    2.750    1.250    1.875    1.750    2.000 
#    1.500    2.500    0.000    2.250    0.000    0.000 
#    0.000    0.000    0.000    0.000    0.000    0.000 
#
# Total GULP energy -534813.640254 kJ/mol
# GULP energy per Si atom -5570.975419 kJ/mol
# Density = 2.011861 g / cm^3
# Si number density = 20.164506 Si / 1000 Ang^3
#
#
#
# Elastic Constant Matrix: (Units=GPa)
#
#
# Indices 1 2 3 4 5 6 
#
# 1 36.2939 -1.2934 23.3696 0.0000 0.0000 0.0000
# 2 -1.2934 36.2939 23.3696 0.0000 0.0000 0.0000
# 3 23.3696 23.3696 149.2689 0.0000 0.0000 0.0000
# 4 0.0000 0.0000 0.0000 14.0510 0.0000 0.0000
# 5 0.0000 0.0000 0.0000 0.0000 14.0510 0.0000
# 6 0.0000 0.0000 0.0000 0.0000 0.0000 18.7936
#
#
#
# Elastic Compliance Matrix: (Units=1/GPa)
#
#
# Indices 1 2 3 4 5 6 
#
# 1 0.031364 0.004759 -0.005655 0.000000 0.000000 0.000000
# 2 0.004759 0.031364 -0.005655 0.000000 0.000000 0.000000
# 3 -0.005655 -0.005655 0.008470 0.000000 0.000000 0.000000
# 4 0.000000 0.000000 0.000000 0.071169 0.000000 0.000000
# 5 0.000000 0.000000 0.000000 0.000000 0.071169 0.000000
# 6 0.000000 0.000000 0.000000 0.000000 0.000000 0.053210
#
#
# Mechanical properties :
#
#
# Convention : Reuss Voigt Hill
#
# Bulk Modulus (GPa) = 17.21325 34.74980 25.98152
# Shear Modulus (GPa) = 16.71040 21.13984 18.92512
#
# Velocity S-wave (km/s) = 2.88184 3.24137 3.06688
# Velocity P-wave (km/s) = 4.43039 5.59278 5.04517
#
# Compressibility (1/GPa) = 0.05809480
#
# Stress axis : x y z
#
# Youngs Moduli (GPa) = 31.88368 31.88368 118.06157
#
# Poissons Ratio (x) = -0.15174 0.66769
# Poissons Ratio (y) = -0.15174 0.66769
# Poissons Ratio (z) = 0.18032 0.18032
#
# Static dielectric constant tensor:
#      x y z
#    x 1.738260 0.000000 0.000000 
#    y 0.000000 1.738260 0.000000 
#    z 0.000000 0.000000 1.778590 
# 
# From -- ./inp_files/3705.got.cif
#   From: 2010.05.17/outbox.cif.g08.bks.cpg/sg189_2_cif.got.tgz:3705.got - 2010.05.20 12:14:34.
