data_PCOD9586468
_publ_section_title
;
Structure prediction by ZEFSAII (Michael W. Deem and Ramdas Pophale) SiO2 
 PCOD9586468
Probable space group: P -6 2 M
;
_chemical_formula_sum "Si O2"
_cell_formula_units_Z 48
_cell_length_a 18.090179
_cell_length_b 18.090179
_cell_length_c 8.482518
_cell_angle_alpha 90.000000
_cell_angle_beta 90.000000
_cell_angle_gamma 120.000000
_cell_volume 2404.037013
_symmetry_space_group_name_H-M "P -6 2 M"
_symmetry_group_IT_number 189
_symmetry_cell_setting 'hexagonal'
loop_
_space_group_symop_operation_xyz
x,y,z
-x+y,-x,-z
-y,x-y,z
x,y,-z
-x+y,-x,z
-y,x-y,-z
x-y,-y,-z
-x,-x+y,-z
y,x,-z
y,x,z
x-y,-y,z
-x,-x+y,z
loop_
_atom_site_type_symbol
_atom_site_label
_atom_site_fract_x
_atom_site_fract_y
_atom_site_fract_z
Si Si1 0.219368 0.219368 0.690154
Si Si2 0.552713 0.392199 0.315597
Si Si3 0.728050 0.517749 0.815618
Si Si4 0.384862 0.384862 0.812865
Si Si5 0.808787 0.710541 0.309617
O O1 0.229627 0.229627 0.500000
O O2 0.298767 0.298767 0.772303
O O3 0.228235 0.137215 0.730905
O O4 0.569542 0.410666 0.500000
O O5 0.627488 0.468556 0.217971
O O6 0.539097 0.299506 0.274656
O O7 0.463168 0.381969 0.265611
O O8 0.773933 0.615406 0.756892
O O9 0.746307 0.517515 0.000000
O O10 0.395650 0.395650 0.000000
O O11 0.803253 0.703361 0.500000
O O12 0.751808 0.751808 0.257254
#
# Coordination Sequence:
#
# PCOD9586468 Si02
#       5
#     6  12  12   6  12
#     4  10  20  40  68  94 127 172 217 264 325 393
#     4  12  25  43  65  91 126 171 216 260 317 386
#     4  12  25  42  64  94 131 169 215 269 321 377
#     4  12  24  40  64  96 125 162 213 266 319 379
#     4  10  22  41  65  95 131 171 217 268 327 392
#
# _framework density 19.966415000000001
#
# number of rings (size 3 to 8) (size 9 to 14) (size 15 to 20)
#    0.000    0.750    2.500    6.125    1.750    0.500 
#    0.750    0.000    0.000    0.000    0.000    0.000 
#    0.000    0.000    0.000    0.000    0.000    0.000 
#
# Total GULP energy -268384.884637 kJ/mol
# GULP energy per Si atom -5591.351763 kJ/mol
# Density = 1.992097 g / cm^3
# Si number density = 19.966415 Si / 1000 Ang^3
#
#
#
# Elastic Constant Matrix: (Units=GPa)
#
#
# Indices 1 2 3 4 5 6 
#
# 1 -7.9698 106.3007 6.6163 0.0000 0.0000 0.0000
# 2 106.3007 -7.9698 6.6163 0.0000 0.0000 0.0000
# 3 6.6163 6.6163 39.1341 0.0000 0.0000 0.0000
# 4 0.0000 0.0000 0.0000 5.5436 0.0000 0.0000
# 5 0.0000 0.0000 0.0000 0.0000 5.5436 0.0000
# 6 0.0000 0.0000 0.0000 0.0000 0.0000 -57.1353
#
#
#
# Elastic Compliance Matrix: (Units=1/GPa)
#
#
# Indices 1 2 3 4 5 6 
#
# 1 0.000828 0.009579 -0.001759 0.000000 0.000000 0.000000
# 2 0.009579 0.000828 -0.001759 0.000000 0.000000 0.000000
# 3 -0.001759 -0.001759 0.026148 0.000000 0.000000 0.000000
# 4 0.000000 0.000000 0.000000 0.180388 0.000000 0.000000
# 5 0.000000 0.000000 0.000000 0.000000 0.180388 0.000000
# 6 0.000000 0.000000 0.000000 0.000000 0.000000 -0.017502
#
#
# Mechanical properties :
#
#
# Convention : Reuss Voigt Hill
#
# Bulk Modulus (GPa) = 25.04791 29.14013 27.09402
# Shear Modulus (GPa) = 13.43126 -15.63221 -1.10047
#
# Velocity S-wave (km/s) = 2.59645 -2.80112 -0.74321
# Velocity P-wave (km/s) = 4.64338 2.04073 3.58647
#
# Compressibility (1/GPa) = 0.03992349
#
# Stress axis : x y z
#
# Youngs Moduli (GPa) = 1208.20764 1208.20763 38.24370
#
# Poissons Ratio (x) = -11.57322 0.06729
# Poissons Ratio (y) = -11.57322 0.06729
# Poissons Ratio (z) = 2.12573 2.12573
#
# Static dielectric constant tensor:
#      x y z
#    x 1.923100 0.000000 0.000000 
#    y 0.000000 1.923100 0.000000 
#    z 0.000000 0.000000 1.666550 
# 
# From -- ./inp_files/637.got.cif
#   From: 2010.05.17/outbox.cif.g08.bks.cpg/sg189_1_cif.got.tgz:637.got - 2010.05.20 12:14:34.
