data_PCOD9586905
_publ_section_title
;
Structure prediction by ZEFSAII (Michael W. Deem and Ramdas Pophale) SiO2 
 PCOD9586905
Probable space group: P -6 2 C
;
_chemical_formula_sum "Si O2"
_cell_formula_units_Z 58
_cell_length_a 14.519230
_cell_length_b 14.519230
_cell_length_c 16.846467
_cell_angle_alpha 90.000000
_cell_angle_beta 90.000000
_cell_angle_gamma 120.000000
_cell_volume 3075.577232
_symmetry_space_group_name_H-M "P -6 2 C"
_symmetry_group_IT_number 190
_symmetry_cell_setting 'hexagonal'
loop_
_space_group_symop_operation_xyz
x,y,z
-x+y,-x,1/2-z
-y,x-y,z
x,y,1/2-z
-x+y,-x,z
-y,x-y,1/2-z
x-y,-y,-z
-x,-x+y,-z
y,x,-z
y,x,1/2+z
x-y,-y,1/2+z
-x,-x+y,1/2+z
loop_
_atom_site_type_symbol
_atom_site_label
_atom_site_fract_x
_atom_site_fract_y
_atom_site_fract_z
Si Si1 0.863220 0.748203 0.153328
Si Si2 0.801215 0.424099 0.750000
Si Si3 0.666668 0.333335 0.155850
Si Si4 0.662699 0.103706 0.600173
Si Si5 0.127523 0.238611 0.154910
Si Si6 0.543857 0.850694 0.921379
O O1 0.854868 0.729822 0.250000
O O2 0.797557 0.805812 0.129171
O O3 0.830128 0.639062 0.106915
O O4 0.987537 0.830943 0.134992
O O5 0.744017 0.297544 0.750000
O O6 0.862512 0.473426 0.669447
O O7 0.666667 0.333334 0.250000
O O8 0.665687 0.228200 0.124622
O O9 0.781457 0.132650 0.624018
O O10 0.676462 0.157723 0.515008
O O11 0.593008 0.975991 0.595474
O O12 0.126771 0.242833 0.250000
#
# Coordination Sequence:
#
# PCOD9586905 Si02
#       6
#    12   6   4  12  12  12
#     4   9  17  32  55  88 122 162 203 247 301 360
#     4  10  24  40  68  92 112 148 198 254 300 358
#     4  12  27  45  66  91 119 166 204 240 291 357
#     4  10  21  43  63  89 119 158 195 251 309 344
#     4   9  16  30  56  85 123 160 201 247 298 361
#     4  10  24  41  63  86 125 160 198 249 297 358
#
# _framework density 18.858250000000002
#
# number of rings (size 3 to 8) (size 9 to 14) (size 15 to 20)
#    0.207    2.069    1.034    1.034    5.793    2.483 
#    3.724    0.000    0.000    2.483    0.000    0.000 
#    0.000    0.000    0.000    0.000    0.000    0.000 
#
# Total GULP energy -323457.510267 kJ/mol
# GULP energy per Si atom -5576.853625 kJ/mol
# Density = 1.881533 g / cm^3
# Si number density = 18.858250 Si / 1000 Ang^3
#
#
#
# Elastic Constant Matrix: (Units=GPa)
#
#
# Indices 1 2 3 4 5 6 
#
# 1 51.9991 20.4549 36.9486 0.0000 0.0001 0.0004
# 2 20.4549 52.0005 36.9487 -0.0002 -0.0002 0.0000
# 3 36.9486 36.9487 70.6141 0.0000 0.0000 0.0001
# 4 0.0000 -0.0002 0.0000 20.9492 -0.0001 0.0001
# 5 0.0001 -0.0002 0.0000 -0.0001 20.9494 -0.0001
# 6 0.0004 0.0000 0.0001 0.0001 -0.0001 15.7710
#
#
#
# Elastic Compliance Matrix: (Units=1/GPa)
#
#
# Indices 1 2 3 4 5 6 
#
# 1 0.030649 -0.001052 -0.015486 0.000000 0.000000 -0.000001
# 2 -0.001052 0.030648 -0.015486 0.000000 0.000000 0.000000
# 3 -0.015486 -0.015486 0.030368 0.000000 0.000000 0.000000
# 4 0.000000 0.000000 0.000000 0.047735 0.000000 0.000000
# 5 0.000000 0.000000 0.000000 0.000000 0.047734 0.000000
# 6 -0.000001 0.000000 0.000000 0.000000 0.000000 0.063408
#
#
# Mechanical properties :
#
#
# Convention : Reuss Voigt Hill
#
# Bulk Modulus (GPa) = 36.21155 40.36868 38.29011
# Shear Modulus (GPa) = 15.44185 16.88468 16.16327
#
# Velocity S-wave (km/s) = 2.86464 2.99548 2.93079
# Velocity P-wave (km/s) = 5.49411 5.78072 5.63923
#
# Compressibility (1/GPa) = 0.02761550
#
# Stress axis : x y z
#
# Youngs Moduli (GPa) = 32.62734 32.62860 32.92978
#
# Poissons Ratio (x) = 0.03434 0.50996
# Poissons Ratio (y) = 0.03433 0.50995
# Poissons Ratio (z) = 0.50528 0.50528
#
# Static dielectric constant tensor:
#      x y z
#    x 1.627240 0.000000 0.000000 
#    y 0.000000 1.627240 0.000000 
#    z 0.000000 0.000000 1.670390 
# 
# From -- ./inp_files/2866.got.cif
#   From: 2010.05.17/outbox.cif.g08.bks.cpg/sg190_2_cif.got.tgz:2866.got - 2010.05.20 12:16:56.
