data_PCOD9586636
_publ_section_title
;
Structure prediction by ZEFSAII (Michael W. Deem and Ramdas Pophale) SiO2 
 PCOD9586636
Probable space group: P -6 2 C
;
_chemical_formula_sum "Si O2"
_cell_formula_units_Z 54
_cell_length_a 12.467262
_cell_length_b 12.467262
_cell_length_c 22.622536
_cell_angle_alpha 90.000000
_cell_angle_beta 90.000000
_cell_angle_gamma 120.000000
_cell_volume 3045.187878
_symmetry_space_group_name_H-M "P -6 2 C"
_symmetry_group_IT_number 190
_symmetry_cell_setting 'hexagonal'
loop_
_space_group_symop_operation_xyz
x,y,z
-x+y,-x,1/2-z
-y,x-y,z
x,y,1/2-z
-x+y,-x,z
-y,x-y,1/2-z
x-y,-y,-z
-x,-x+y,-z
y,x,-z
y,x,1/2+z
x-y,-y,1/2+z
-x,-x+y,1/2+z
loop_
_atom_site_type_symbol
_atom_site_label
_atom_site_fract_x
_atom_site_fract_y
_atom_site_fract_z
Si Si1 0.492945 0.785631 0.250000
Si Si2 0.333334 0.666668 0.075965
Si Si3 0.245332 0.027049 0.570132
Si Si4 0.666668 0.333334 0.063600
Si Si5 0.000000 0.000000 0.427406
Si Si6 0.582726 0.864020 0.378206
Si Si7 0.449475 0.957045 0.930309
O O1 0.428560 0.634347 0.250000
O O2 0.574211 0.847974 0.307853
O O3 0.262871 0.529801 0.099846
O O4 0.333334 0.666667 0.006996
O O5 0.303110 0.170967 0.587861
O O6 0.235065 0.000000 0.500000
O O7 0.104498 0.967338 0.592046
O O8 0.340979 0.983669 0.591529
O O9 0.586630 0.188605 0.079114
O O10 0.000000 0.000000 0.500000
O O11 0.548023 0.966172 0.398481
O O12 0.475576 0.000000 0.000000
#
# Coordination Sequence:
#
# PCOD9586636 Si02
#       7
#     6   4  12   4   4  12  12
#     4  10  18  32  60  88 116 152 202 266 302 328
#     4  12  15  34  49  87 115 145 189 241 287 352
#     4  10  21  36  53  83 116 157 192 237 299 351
#     4  12  24  36  52  89 130 162 189 229 326 382
#     4   9  21  36  57  76 116 154 195 222 271 362
#     4  12  20  35  59  87 122 151 201 251 299 353
#     4  11  23  33  55  82 123 160 192 242 301 367
#
# _framework density 17.732896
#
# number of rings (size 3 to 8) (size 9 to 14) (size 15 to 20)
#    0.222    0.889    6.667    1.333    3.111    0.889 
#    0.000    0.000    0.000    2.667    0.000    0.000 
#    0.000    0.000    0.000    0.000    0.000    0.000 
#
# Total GULP energy -300625.616621 kJ/mol
# GULP energy per Si atom -5567.141049 kJ/mol
# Density = 1.769254 g / cm^3
# Si number density = 17.732896 Si / 1000 Ang^3
#
#
#
# Elastic Constant Matrix: (Units=GPa)
#
#
# Indices 1 2 3 4 5 6 
#
# 1 115.9320 47.5109 32.1207 0.0001 0.0000 -0.0003
# 2 47.5109 115.9302 32.1209 0.0002 0.0000 -0.0002
# 3 32.1207 32.1209 74.3389 -0.0001 0.0001 0.0001
# 4 0.0001 0.0002 -0.0001 -2.2609 0.0001 0.0000
# 5 0.0000 0.0000 0.0001 0.0001 -2.2610 0.0001
# 6 -0.0003 -0.0002 0.0001 0.0000 0.0001 34.2103
#
#
#
# Elastic Compliance Matrix: (Units=1/GPa)
#
#
# Indices 1 2 3 4 5 6 
#
# 1 0.010993 -0.003623 -0.003184 0.000000 0.000000 0.000000
# 2 -0.003623 0.010993 -0.003185 0.000001 0.000000 0.000000
# 3 -0.003184 -0.003185 0.016204 -0.000001 0.000000 0.000000
# 4 0.000000 0.000001 -0.000001 -0.442294 -0.000017 0.000000
# 5 0.000000 0.000000 0.000000 -0.000017 -0.442290 0.000001
# 6 0.000000 0.000000 0.000000 0.000000 0.000001 0.029231
#
#
# Mechanical properties :
#
#
# Convention : Reuss Voigt Hill
#
# Bulk Modulus (GPa) = 54.92699 58.85623 56.89161
# Shear Modulus (GPa) = -6.32022 18.90091 6.29034
#
# Velocity S-wave (km/s) = -1.88994 3.26830 1.88546
# Velocity P-wave (km/s) = 5.12634 6.89238 6.07389
#
# Compressibility (1/GPa) = 0.01820599
#
# Stress axis : x y z
#
# Youngs Moduli (GPa) = 90.96942 90.96768 61.71364
#
# Poissons Ratio (x) = 0.32955 0.19652
# Poissons Ratio (y) = 0.32956 0.19653
# Poissons Ratio (z) = 0.28969 0.28969
#
# Static dielectric constant tensor:
#      x y z
#    x 1.638100 0.000000 0.000000 
#    y 0.000000 1.638100 0.000000 
#    z 0.000000 0.000000 1.593640 
# 
# From -- ./inp_files/4640.got.cif
#   From: 2010.05.17/outbox.cif.g08.bks.cpg/sg190_3_cif.got.tgz:4640.got - 2010.05.20 12:16:56.
