data_PCOD9586809
_publ_section_title
;
Structure prediction by ZEFSAII (Michael W. Deem and Ramdas Pophale) SiO2 
 PCOD9586809
Probable space group: P -6 2 C
;
_chemical_formula_sum "Si O2"
_cell_formula_units_Z 84
_cell_length_a 18.029443
_cell_length_b 18.029443
_cell_length_c 15.637551
_cell_angle_alpha 90.000000
_cell_angle_beta 90.000000
_cell_angle_gamma 120.000000
_cell_volume 4402.141423
_symmetry_space_group_name_H-M "P -6 2 C"
_symmetry_group_IT_number 190
_symmetry_cell_setting 'hexagonal'
loop_
_space_group_symop_operation_xyz
x,y,z
-x+y,-x,1/2-z
-y,x-y,z
x,y,1/2-z
-x+y,-x,z
-y,x-y,1/2-z
x-y,-y,-z
-x,-x+y,-z
y,x,-z
y,x,1/2+z
x-y,-y,1/2+z
-x,-x+y,1/2+z
loop_
_atom_site_type_symbol
_atom_site_label
_atom_site_fract_x
_atom_site_fract_y
_atom_site_fract_z
Si Si1 0.435578 0.019858 0.401180
Si Si2 0.502541 0.834587 0.145486
Si Si3 0.967822 0.572824 0.350657
Si Si4 0.056644 0.294023 0.914179
Si Si5 0.231061 0.292769 0.919375
Si Si6 0.179919 0.176603 0.250000
Si Si7 0.826398 0.331911 0.648991
Si Si8 0.821540 0.824606 0.250000
O O1 0.529490 0.053716 0.364009
O O2 0.389398 0.075324 0.392328
O O3 0.440260 0.000000 0.500000
O O4 0.368889 0.926756 0.362626
O O5 0.503788 0.837143 0.250000
O O6 0.406667 0.808965 0.116755
O O7 0.523893 0.762534 0.114995
O O8 0.564548 0.932598 0.120539
O O9 0.961707 0.585196 0.250000
O O10 0.918314 0.610892 0.401859
O O11 0.142461 0.291293 0.930329
O O12 0.008262 0.231385 0.834575
O O13 0.000000 0.265478 0.000000
O O14 0.220807 0.236562 0.834373
O O15 0.253123 0.253123 0.000000
O O16 0.159139 0.077886 0.250000
O O17 0.093030 0.180624 0.250000
O O18 0.809896 0.326668 0.750000
#
# Coordination Sequence:
#
# PCOD9586809 Si02
#       8
#    12  12  12  12  12   6  12   6
#     4  10  21  36  52  77 113 149 192 234 289 348
#     4   8  15  26  45  74 109 139 177 218 268 337
#     4  10  20  36  55  83 114 151 195 235 287 351
#     4  10  23  40  59  91 118 155 202 254 304 372
#     4  11  22  39  63  87 121 155 200 255 313 357
#     4  10  21  38  55  90 114 158 202 254 303 392
#     4   9  16  28  48  76 108 145 177 217 274 337
#     4  10  21  36  61  80 122 156 200 248 323 358
#
# _framework density 19.081621999999999
#
# number of rings (size 3 to 8) (size 9 to 14) (size 15 to 20)
#    0.000    2.286    0.714    3.000    2.000    4.571 
#    0.000    0.000    0.000    5.143    0.000    0.000 
#    0.000    0.000    0.000    0.000    0.000    0.000 
#
# Total GULP energy -468636.439095 kJ/mol
# GULP energy per Si atom -5579.005227 kJ/mol
# Density = 1.903819 g / cm^3
# Si number density = 19.081622 Si / 1000 Ang^3
#
#
#
# Elastic Constant Matrix: (Units=GPa)
#
#
# Indices 1 2 3 4 5 6 
#
# 1 73.5725 50.0135 35.0037 0.0000 0.0000 0.0000
# 2 50.0135 73.5725 35.0037 0.0000 0.0000 0.0000
# 3 35.0037 35.0037 71.6427 0.0000 0.0000 0.0000
# 4 0.0000 0.0000 0.0000 -23.7229 0.0000 0.0000
# 5 0.0000 0.0000 0.0000 0.0000 -23.7229 0.0000
# 6 0.0000 0.0000 0.0000 0.0000 0.0000 11.7795
#
#
#
# Elastic Compliance Matrix: (Units=1/GPa)
#
#
# Indices 1 2 3 4 5 6 
#
# 1 0.026817 -0.015629 -0.005466 0.000000 0.000000 0.000000
# 2 -0.015629 0.026817 -0.005466 0.000000 0.000000 0.000000
# 3 -0.005466 -0.005466 0.019300 0.000000 0.000000 0.000000
# 4 0.000000 0.000000 0.000000 -0.042153 0.000000 0.000000
# 5 0.000000 0.000000 0.000000 0.000000 -0.042153 0.000000
# 6 0.000000 0.000000 0.000000 0.000000 0.000000 0.084893
#
#
# Mechanical properties :
#
#
# Convention : Reuss Voigt Hill
#
# Bulk Modulus (GPa) = 50.47840 50.98107 50.72974
# Shear Modulus (GPa) = 37.52395 -0.54881 18.48757
#
# Velocity S-wave (km/s) = 4.43933 -0.53688 3.11604
# Velocity P-wave (km/s) = 7.26555 5.13722 6.29203
#
# Compressibility (1/GPa) = 0.01981045
#
# Stress axis : x y z
#
# Youngs Moduli (GPa) = 37.28934 37.28934 51.81416
#
# Poissons Ratio (x) = 0.58281 0.28323
# Poissons Ratio (y) = 0.58281 0.28323
# Poissons Ratio (z) = 0.20384 0.20384
#
# Static dielectric constant tensor:
#      x y z
#    x 1.642370 0.000000 0.000000 
#    y 0.000000 1.642370 0.000000 
#    z 0.000000 0.000000 1.657180 
# 
# From -- ./inp_files/3211.got.cif
#   From: 2010.05.17/outbox.cif.g08.bks.cpg/sg190_2_cif.got.tgz:3211.got - 2010.05.20 12:16:56.
