data_PCOD9586741
_publ_section_title
;
Structure prediction by ZEFSAII (Michael W. Deem and Ramdas Pophale) SiO2 
 PCOD9586741
Probable space group: P -6 2 C
;
_chemical_formula_sum "Si O2"
_cell_formula_units_Z 36
_cell_length_a 11.640833
_cell_length_b 11.640833
_cell_length_c 12.730213
_cell_angle_alpha 90.000000
_cell_angle_beta 90.000000
_cell_angle_gamma 120.000000
_cell_volume 1493.944348
_symmetry_space_group_name_H-M "P -6 2 C"
_symmetry_group_IT_number 190
_symmetry_cell_setting 'hexagonal'
loop_
_space_group_symop_operation_xyz
x,y,z
-x+y,-x,1/2-z
-y,x-y,z
x,y,1/2-z
-x+y,-x,z
-y,x-y,1/2-z
x-y,-y,-z
-x,-x+y,-z
y,x,-z
y,x,1/2+z
x-y,-y,1/2+z
-x,-x+y,1/2+z
loop_
_atom_site_type_symbol
_atom_site_label
_atom_site_fract_x
_atom_site_fract_y
_atom_site_fract_z
Si Si1 0.543786 0.366347 0.907902
Si Si2 0.117804 0.675192 0.631815
Si Si3 0.832466 0.920184 0.876955
O O1 0.530358 0.225736 0.876442
O O2 0.429917 0.390128 0.865353
O O3 0.541575 0.374179 0.034672
O O4 0.170810 0.684935 0.750000
O O5 0.134902 0.816076 0.595452
O O6 0.828351 0.917383 0.750000
O O7 0.931944 0.076364 0.906159
#
# Coordination Sequence:
#
# PCOD9586741 Si02
#       3
#    12  12  12
#     4   9  22  42  53  78 120 146 184 242 289 344
#     4  10  19  37  62  82 108 152 194 233 283 347
#     4   7  13  29  51  83 114 133 173 233 278 326
#
# _framework density 24.097283000000001
#
# number of rings (size 3 to 8) (size 9 to 14) (size 15 to 20)
#    1.333    2.000    0.000    0.000    0.000    2.667 
#   12.000    5.000    0.000    0.000    0.000    0.000 
#    0.000    0.000    0.000    0.000    0.000    0.000 
#
# Total GULP energy -200503.680622 kJ/mol
# GULP energy per Si atom -5569.546684 kJ/mol
# Density = 2.404244 g / cm^3
# Si number density = 24.097283 Si / 1000 Ang^3
#
#
#
# Elastic Constant Matrix: (Units=GPa)
#
#
# Indices 1 2 3 4 5 6 
#
# 1 64.3704 1.7317 0.2097 0.0000 0.0000 0.0000
# 2 1.7317 64.3704 0.2097 0.0000 0.0000 0.0000
# 3 0.2097 0.2097 129.5576 0.0000 0.0000 0.0000
# 4 0.0000 0.0000 0.0000 -1.0545 0.0000 0.0000
# 5 0.0000 0.0000 0.0000 0.0000 -1.0545 0.0000
# 6 0.0000 0.0000 0.0000 0.0000 0.0000 31.3193
#
#
#
# Elastic Compliance Matrix: (Units=1/GPa)
#
#
# Indices 1 2 3 4 5 6 
#
# 1 0.015546 -0.000418 -0.000024 0.000000 0.000000 0.000000
# 2 -0.000418 0.015546 -0.000024 0.000000 0.000000 0.000000
# 3 -0.000024 -0.000024 0.007719 0.000000 0.000000 0.000000
# 4 0.000000 0.000000 0.000000 -0.948285 0.000000 0.000000
# 5 0.000000 0.000000 0.000000 0.000000 -0.948285 0.000000
# 6 0.000000 0.000000 0.000000 0.000000 0.000000 0.031929
#
#
# Mechanical properties :
#
#
# Convention : Reuss Voigt Hill
#
# Bulk Modulus (GPa) = 26.40109 29.17786 27.78947
# Shear Modulus (GPa) = -2.75897 22.91853 10.07978
#
# Velocity S-wave (km/s) = -1.07118 3.08731 2.04745
# Velocity P-wave (km/s) = 3.07408 4.98430 4.14085
#
# Compressibility (1/GPa) = 0.03787723
#
# Stress axis : x y z
#
# Youngs Moduli (GPa) = 64.32347 64.32347 129.55625
#
# Poissons Ratio (x) = 0.02690 0.00317
# Poissons Ratio (y) = 0.02690 0.00317
# Poissons Ratio (z) = 0.00158 0.00158
#
# Static dielectric constant tensor:
#      x y z
#    x 1.882260 0.000000 0.000000 
#    y 0.000000 1.882260 0.000000 
#    z 0.000000 0.000000 2.014770 
# 
# From -- ./inp_files/2347.got.cif
#   From: 2010.05.17/outbox.cif.g08.bks.cpg/sg190_2_cif.got.tgz:2347.got - 2010.05.20 12:16:56.
