data_PCOD9586582
_publ_section_title
;
Structure prediction by ZEFSAII (Michael W. Deem and Ramdas Pophale) SiO2 
 PCOD9586582
Probable space group: P -6 2 M
;
_chemical_formula_sum "Si O2"
_cell_formula_units_Z 84
_cell_length_a 25.430385
_cell_length_b 25.430385
_cell_length_c 7.339113
_cell_angle_alpha 90.000000
_cell_angle_beta 90.000000
_cell_angle_gamma 120.000000
_cell_volume 4110.362044
_symmetry_space_group_name_H-M "P -6 2 M"
_symmetry_group_IT_number 189
_symmetry_cell_setting 'hexagonal'
loop_
_space_group_symop_operation_xyz
x,y,z
-x+y,-x,-z
-y,x-y,z
x,y,-z
-x+y,-x,z
-y,x-y,-z
x-y,-y,-z
-x,-x+y,-z
y,x,-z
y,x,z
x-y,-y,z
-x,-x+y,z
loop_
_atom_site_type_symbol
_atom_site_label
_atom_site_fract_x
_atom_site_fract_y
_atom_site_fract_z
Si Si1 0.069368 0.614918 0.713188
Si Si2 0.704213 0.464787 0.721721
Si Si3 0.286800 0.130597 0.792584
Si Si4 0.871676 0.279839 0.722218
Si Si5 0.233646 0.000000 0.776795
Si Si6 0.000000 0.358239 0.293045
Si Si7 0.264233 0.334049 0.779978
Si Si8 0.193375 0.626862 0.723062
O O1 0.064562 0.599572 0.500000
O O2 0.088445 0.686037 0.725532
O O3 0.125484 0.608511 0.785719
O O4 0.000000 0.575473 0.788483
O O5 0.704101 0.463244 0.500000
O O6 0.718911 0.531258 0.777219
O O7 0.635765 0.417559 0.779051
O O8 0.756563 0.451170 0.780579
O O9 0.350108 0.130528 0.792465
O O10 0.239885 0.063702 0.716983
O O11 0.304778 0.195609 0.709990
O O12 0.266913 0.130970 0.000000
O O13 0.873927 0.278451 0.500000
O O14 0.934291 0.338574 0.785325
O O15 0.294112 0.000000 0.709109
O O16 0.236017 0.000000 0.000000
O O17 0.000000 0.378078 0.500000
O O18 0.293048 0.293048 0.724771
O O19 0.261935 0.335116 0.000000
O O20 0.191664 0.626504 0.500000
#
# Coordination Sequence:
#
# PCOD9586582 Si02
#       8
#    12  12  12  12   6   6  12  12
#     4   9  17  29  44  63  85 108 135 169 211 253
#     4   9  16  25  38  56  77 103 134 166 203 240
#     4   9  16  26  41  60  82 107 134 163 196 236
#     4   9  16  26  40  59  80 104 130 158 197 242
#     4   8  14  24  38  56  78 104 132 158 186 223
#     4   8  14  24  36  54  80 102 122 150 186 233
#     4   9  17  28  42  61  84 109 137 168 202 242
#     4   9  16  26  39  57  80 105 135 171 206 244
#
# _framework density 20.436157000000001
#
# number of rings (size 3 to 8) (size 9 to 14) (size 15 to 20)
#    0.000    3.143    0.000    1.143    0.000    2.857 
#    1.286    0.000    0.000    0.857    0.000    0.000 
#    0.714    2.286    2.143    0.000    0.000    0.000 
#
# Total GULP energy -468154.126190 kJ/mol
# GULP energy per Si atom -5573.263407 kJ/mol
# Density = 2.038964 g / cm^3
# Si number density = 20.436157 Si / 1000 Ang^3
#
#
#
# Elastic Constant Matrix: (Units=GPa)
#
#
# Indices 1 2 3 4 5 6 
#
# 1 75.3879 48.4977 -0.2404 0.0000 0.0000 0.0000
# 2 48.4977 75.3879 -0.2404 0.0000 0.0000 0.0000
# 3 -0.2404 -0.2404 81.6497 0.0000 0.0000 0.0000
# 4 0.0000 0.0000 0.0000 2.9043 0.0000 0.0000
# 5 0.0000 0.0000 0.0000 0.0000 2.9043 0.0000
# 6 0.0000 0.0000 0.0000 0.0000 0.0000 13.4451
#
#
#
# Elastic Compliance Matrix: (Units=1/GPa)
#
#
# Indices 1 2 3 4 5 6 
#
# 1 0.022630 -0.014558 0.000024 0.000000 0.000000 0.000000
# 2 -0.014558 0.022630 0.000024 0.000000 0.000000 0.000000
# 3 0.000024 0.000024 0.012248 0.000000 0.000000 0.000000
# 4 0.000000 0.000000 0.000000 0.344319 0.000000 0.000000
# 5 0.000000 0.000000 0.000000 0.000000 0.344319 0.000000
# 6 0.000000 0.000000 0.000000 0.000000 0.000000 0.074377
#
#
# Mechanical properties :
#
#
# Convention : Reuss Voigt Hill
#
# Bulk Modulus (GPa) = 35.10404 36.49548 35.79976
# Shear Modulus (GPa) = 5.82046 16.14463 10.98254
#
# Velocity S-wave (km/s) = 1.68947 2.81375 2.32072
# Velocity P-wave (km/s) = 4.58481 5.33416 4.97362
#
# Compressibility (1/GPa) = 0.02848675
#
# Stress axis : x y z
#
# Youngs Moduli (GPa) = 44.18882 44.18882 81.64875
#
# Poissons Ratio (x) = 0.64331 -0.00194
# Poissons Ratio (y) = 0.64331 -0.00194
# Poissons Ratio (z) = -0.00105 -0.00105
#
# Static dielectric constant tensor:
#      x y z
#    x 1.729230 0.000000 0.000000 
#    y 0.000000 1.729230 0.000000 
#    z 0.000000 0.000000 1.870800 
# 
# From -- ./inp_files/2257.got.cif
#   From: 2010.05.17/outbox.cif.g08.bks.cpg/sg189_2_cif.got.tgz:2257.got - 2010.05.20 12:14:34.
