data_PCOD9586071
_publ_section_title
;
Structure prediction by ZEFSAII (Michael W. Deem and Ramdas Pophale) SiO2 
 PCOD9586071
Probable space group: P -6 C 2
;
_chemical_formula_sum "Si O2"
_cell_formula_units_Z 34
_cell_length_a 10.692372
_cell_length_b 10.692372
_cell_length_c 15.442762
_cell_angle_alpha 90.000000
_cell_angle_beta 90.000000
_cell_angle_gamma 120.000000
_cell_volume 1528.986778
_symmetry_space_group_name_H-M "P -6 C 2"
_symmetry_group_IT_number 188
_symmetry_cell_setting 'hexagonal'
loop_
_space_group_symop_operation_xyz
x,y,z
-x+y,-x,1/2-z
-y,x-y,z
x,y,1/2-z
-x+y,-x,z
-y,x-y,1/2-z
-y,-x,-z
-x+y,y,-z
x,x-y,-z
-x+y,y,1/2+z
x,x-y,1/2+z
-y,-x,1/2+z
loop_
_atom_site_type_symbol
_atom_site_label
_atom_site_fract_x
_atom_site_fract_y
_atom_site_fract_z
Si Si1 0.748544 0.640154 0.088401
Si Si2 0.503056 0.686859 0.146257
Si Si3 0.188031 0.104088 0.250000
Si Si4 0.666668 0.333335 0.853974
O O1 0.634733 0.696137 0.094112
O O2 0.863166 0.715700 0.165461
O O3 0.660809 0.470610 0.110380
O O4 0.833324 0.666647 0.000000
O O5 0.459645 0.809223 0.128202
O O6 0.526942 0.684717 0.250000
O O7 0.070585 0.155012 0.250000
O O8 0.666667 0.333334 0.750000
#
# Coordination Sequence:
#
# PCOD9586071 Si02
#       4
#    12  12   6   4
#     4  12  24  45  75 114 154 193 251 318 381 461
#     4   8  17  38  73 115 142 190 251 310 389 436
#     4  10  26  48  70 104 142 204 256 292 380 442
#     4  12  25  47  76 109 146 208 250 311 391 445
#
# _framework density 22.23695
#
# number of rings (size 3 to 8) (size 9 to 14) (size 15 to 20)
#    1.059    0.706    3.529    1.059    0.000    4.235 
#    0.000    3.529    0.000    0.000    0.000    0.000 
#    0.000    0.000    0.000    0.000    0.000    0.000 
#
# Total GULP energy -190040.824938 kJ/mol
# GULP energy per Si atom -5589.436028 kJ/mol
# Density = 2.218634 g / cm^3
# Si number density = 22.236950 Si / 1000 Ang^3
#
#
#
# Elastic Constant Matrix: (Units=GPa)
#
#
# Indices 1 2 3 4 5 6 
#
# 1 76.9911 7.7103 46.2355 -0.0004 0.0002 0.0003
# 2 7.7103 76.9908 46.2359 0.0007 -0.0002 -0.0002
# 3 46.2355 46.2359 163.9598 -0.0002 0.0000 0.0002
# 4 -0.0004 0.0007 -0.0002 11.0013 -0.0001 0.0002
# 5 0.0002 -0.0002 0.0000 -0.0001 11.0017 0.0001
# 6 0.0003 -0.0002 0.0002 0.0002 0.0001 34.6405
#
#
#
# Elastic Compliance Matrix: (Units=1/GPa)
#
#
# Indices 1 2 3 4 5 6 
#
# 1 0.015746 0.001312 -0.004810 0.000000 0.000000 0.000000
# 2 0.001312 0.015746 -0.004810 -0.000001 0.000000 0.000000
# 3 -0.004810 -0.004810 0.008812 0.000000 0.000000 0.000000
# 4 0.000000 -0.000001 0.000000 0.090899 0.000001 0.000000
# 5 0.000000 0.000000 0.000000 0.000001 0.090895 0.000000
# 6 0.000000 0.000000 0.000000 0.000000 0.000000 0.028868
#
#
# Mechanical properties :
#
#
# Convention : Reuss Voigt Hill
#
# Bulk Modulus (GPa) = 42.21799 57.58945 49.90372
# Shear Modulus (GPa) = 18.15026 25.84602 21.99814
#
# Velocity S-wave (km/s) = 2.86006 3.41295 3.14866
# Velocity P-wave (km/s) = 5.47113 6.44091 5.97573
#
# Compressibility (1/GPa) = 0.02368659
#
# Stress axis : x y z
#
# Youngs Moduli (GPa) = 63.50908 63.50856 113.48251
#
# Poissons Ratio (x) = -0.08331 0.54587
# Poissons Ratio (y) = -0.08331 0.54587
# Poissons Ratio (z) = 0.30549 0.30549
#
# Static dielectric constant tensor:
#      x y z
#    x 1.810170 0.000000 0.000000 
#    y 0.000000 1.810170 0.000000 
#    z 0.000000 0.000000 1.876720 
# 
# From -- ./inp_files/1959.got.cif
#   From: 2010.05.17/outbox.cif.g08.bks.cpg/sg188_1_cif.got.tgz:1959.got - 2010.05.20 12:11:46.
