data_PCOD9586357
_publ_section_title
;
Structure prediction by ZEFSAII (Michael W. Deem and Ramdas Pophale) SiO2 
 PCOD9586357
Probable space group: P -6 2 M
;
_chemical_formula_sum "Si O2"
_cell_formula_units_Z 96
_cell_length_a 18.243106
_cell_length_b 18.243106
_cell_length_c 20.548579
_cell_angle_alpha 90.000000
_cell_angle_beta 90.000000
_cell_angle_gamma 120.000000
_cell_volume 5922.567093
_symmetry_space_group_name_H-M "P -6 2 M"
_symmetry_group_IT_number 189
_symmetry_cell_setting 'hexagonal'
loop_
_space_group_symop_operation_xyz
x,y,z
-x+y,-x,-z
-y,x-y,z
x,y,-z
-x+y,-x,z
-y,x-y,-z
x-y,-y,-z
-x,-x+y,-z
y,x,-z
y,x,z
x-y,-y,z
-x,-x+y,z
loop_
_atom_site_type_symbol
_atom_site_label
_atom_site_fract_x
_atom_site_fract_y
_atom_site_fract_z
Si Si1 0.360794 0.262802 0.924103
Si Si2 0.637963 0.735813 0.687768
Si Si3 0.666030 0.161612 0.424016
Si Si4 0.262802 0.902008 0.075897
Si Si5 0.161612 0.495582 0.424016
Si Si6 0.902150 0.637963 0.312232
Si Si7 0.531360 0.633636 0.808216
Si Si8 0.468640 0.366364 0.808216
O O1 0.292224 0.292224 0.910690
O O2 0.327900 0.163950 0.913941
O O3 0.438600 0.315150 0.875469
O O4 0.385475 0.282086 0.000000
O O5 0.708390 0.708390 0.695977
O O6 0.583188 0.692412 0.623137
O O7 0.670605 0.835303 0.684850
O O8 0.572084 0.696376 0.747704
O O9 0.663093 0.138371 0.500000
O O10 0.575797 0.151594 0.406415
O O11 0.740506 0.259494 0.417735
O O12 0.692412 0.109224 0.376863
O O13 0.315150 0.876550 0.124531
O O14 0.292224 0.000000 0.089310
O O15 0.282086 0.896611 0.000000
O O16 0.138371 0.475277 0.500000
O O17 0.875708 0.572084 0.252296
O O18 0.000000 0.708390 0.304023
O O19 0.577407 0.577407 0.806848
O O20 0.431773 0.568227 0.803244
O O21 0.422593 0.422593 0.806848
#
# Coordination Sequence:
#
# PCOD9586357 Si02
#       8
#    12  12  12  12  12  12  12  12
#     4   9  17  29  46  68  93 122 157 196 236 276
#     4  10  20  33  49  69  93 121 154 192 232 272
#     4   9  17  29  46  69  97 127 156 186 223 269
#     4   9  17  29  46  68  93 122 157 196 236 276
#     4   9  17  29  46  69  97 127 156 186 223 269
#     4  10  20  33  49  69  93 121 154 192 232 272
#     4   9  17  29  46  68  91 114 143 180 221 267
#     4   9  17  29  46  68  91 114 143 180 221 267
#
# _framework density 16.209187
#
# number of rings (size 3 to 8) (size 9 to 14) (size 15 to 20)
#    0.000    2.750    0.000    1.750    0.000    3.500 
#    0.000    3.750    0.000    6.000    0.000    1.750 
#    0.000    6.000    0.000    6.500    0.000    0.000 
#
# Total GULP energy -534744.607590 kJ/mol
# GULP energy per Si atom -5570.256329 kJ/mol
# Density = 1.617229 g / cm^3
# Si number density = 16.209187 Si / 1000 Ang^3
#
#
#
# Elastic Constant Matrix: (Units=GPa)
#
#
# Indices 1 2 3 4 5 6 
#
# 1 80.0391 52.9733 36.7645 0.0000 0.0000 0.0000
# 2 52.9733 80.0391 36.7645 0.0000 0.0000 0.0000
# 3 36.7645 36.7645 59.2460 0.0000 0.0000 0.0000
# 4 0.0000 0.0000 0.0000 19.8076 0.0000 0.0000
# 5 0.0000 0.0000 0.0000 0.0000 19.8076 0.0000
# 6 0.0000 0.0000 0.0000 0.0000 0.0000 13.5329
#
#
#
# Elastic Compliance Matrix: (Units=1/GPa)
#
#
# Indices 1 2 3 4 5 6 
#
# 1 0.024195 -0.012752 -0.007101 0.000000 0.000000 0.000000
# 2 -0.012752 0.024195 -0.007101 0.000000 0.000000 0.000000
# 3 -0.007101 -0.007101 0.025692 0.000000 0.000000 0.000000
# 4 0.000000 0.000000 0.000000 0.050486 0.000000 0.000000
# 5 0.000000 0.000000 0.000000 0.000000 0.050486 0.000000
# 6 0.000000 0.000000 0.000000 0.000000 0.000000 0.073894
#
#
# Mechanical properties :
#
#
# Convention : Reuss Voigt Hill
#
# Bulk Modulus (GPa) = 49.56798 52.48098 51.02448
# Shear Modulus (GPa) = 16.15085 16.81773 16.48429
#
# Velocity S-wave (km/s) = 3.16001 3.22459 3.19246
# Velocity P-wave (km/s) = 6.63029 6.80526 6.71834
#
# Compressibility (1/GPa) = 0.02017431
#
# Stress axis : x y z
#
# Youngs Moduli (GPa) = 41.33026 41.33026 38.92265
#
# Poissons Ratio (x) = 0.52703 0.27640
# Poissons Ratio (y) = 0.52703 0.27640
# Poissons Ratio (z) = 0.29350 0.29350
#
# Static dielectric constant tensor:
#      x y z
#    x 1.537540 0.000000 0.000000 
#    y 0.000000 1.537540 0.000000 
#    z 0.000000 0.000000 1.561630 
# 
# From -- ./inp_files/3503.got.cif
#   From: 2010.05.17/outbox.cif.g08.bks.cpg/sg189_2_cif.got.tgz:3503.got - 2010.05.20 12:14:34.
