data_PCOD9586391
_publ_section_title
;
Structure prediction by ZEFSAII (Michael W. Deem and Ramdas Pophale) SiO2 
 PCOD9586391
Probable space group: P -6 2 M
;
_chemical_formula_sum "Si O2"
_cell_formula_units_Z 52
_cell_length_a 13.340792
_cell_length_b 13.340792
_cell_length_c 17.793020
_cell_angle_alpha 90.000000
_cell_angle_beta 90.000000
_cell_angle_gamma 120.000000
_cell_volume 2742.480351
_symmetry_space_group_name_H-M "P -6 2 M"
_symmetry_group_IT_number 189
_symmetry_cell_setting 'hexagonal'
loop_
_space_group_symop_operation_xyz
x,y,z
-x+y,-x,-z
-y,x-y,z
x,y,-z
-x+y,-x,z
-y,x-y,-z
x-y,-y,-z
-x,-x+y,-z
y,x,-z
y,x,z
x-y,-y,z
-x,-x+y,z
loop_
_atom_site_type_symbol
_atom_site_label
_atom_site_fract_x
_atom_site_fract_y
_atom_site_fract_z
Si Si1 0.134270 0.430097 0.150408
Si Si2 0.135068 0.634082 0.083285
Si Si3 0.280484 0.866126 0.410470
Si Si4 0.666666 0.333333 0.591206
Si Si5 0.864817 0.134898 0.719086
O O1 0.159529 0.562085 0.146535
O O2 0.230149 0.435140 0.095111
O O3 0.149118 0.373200 0.226080
O O4 0.000000 0.352629 0.127082
O O5 0.000000 0.588784 0.087112
O O6 0.159991 0.603942 0.000000
O O7 0.259556 0.854274 0.500000
O O8 0.320692 0.775946 0.385885
O O9 0.168246 0.843451 0.363941
O O10 0.376674 0.000000 0.395235
O O11 0.666667 0.333334 0.500000
O O12 0.000000 0.171279 0.724736
O O13 0.782135 0.000000 0.736728
#
# Coordination Sequence:
#
# PCOD9586391 Si02
#       5
#    12  12  12   4  12
#     4  10  21  36  55  81 111 143 180 223 273 328
#     4  10  20  34  54  80 109 142 179 219 267 325
#     4   9  19  35  54  81 116 152 196 247 293 340
#     4   9  18  33  54  78 105 141 181 227 289 348
#     4  10  21  37  57  81 112 151 194 240 288 339
#
# _framework density 18.960939
#
# number of rings (size 3 to 8) (size 9 to 14) (size 15 to 20)
#    0.000    2.308    0.000    2.077    0.000    4.615 
#    0.000    4.615    0.000    1.846    0.000    0.000 
#    0.000    0.000    0.000    0.000    0.000    0.000 
#
# Total GULP energy -289680.849056 kJ/mol
# GULP energy per Si atom -5570.785559 kJ/mol
# Density = 1.891778 g / cm^3
# Si number density = 18.960939 Si / 1000 Ang^3
#
#
#
# Elastic Constant Matrix: (Units=GPa)
#
#
# Indices 1 2 3 4 5 6 
#
# 1 92.9544 48.4194 41.8519 0.0000 0.0000 0.0000
# 2 48.4194 92.9543 41.8518 0.0000 0.0000 0.0000
# 3 41.8519 41.8518 48.6886 0.0000 0.0000 0.0000
# 4 0.0000 0.0000 0.0000 24.6840 0.0000 0.0000
# 5 0.0000 0.0000 0.0000 0.0000 24.6840 0.0000
# 6 0.0000 0.0000 0.0000 0.0000 0.0000 22.2675
#
#
#
# Elastic Compliance Matrix: (Units=1/GPa)
#
#
# Indices 1 2 3 4 5 6 
#
# 1 0.018429 -0.004025 -0.012382 0.000000 0.000000 0.000000
# 2 -0.004025 0.018429 -0.012382 0.000000 0.000000 0.000000
# 3 -0.012382 -0.012382 0.041825 0.000000 0.000000 0.000000
# 4 0.000000 0.000000 0.000000 0.040512 0.000000 0.000000
# 5 0.000000 0.000000 0.000000 0.000000 0.040512 0.000000
# 6 0.000000 0.000000 0.000000 0.000000 0.000000 0.044908
#
#
# Mechanical properties :
#
#
# Convention : Reuss Voigt Hill
#
# Bulk Modulus (GPa) = 47.37826 55.42705 51.40266
# Shear Modulus (GPa) = 18.57160 21.15873 19.86516
#
# Velocity S-wave (km/s) = 3.13304 3.34415 3.24031
# Velocity P-wave (km/s) = 6.17490 6.64882 6.41624
#
# Compressibility (1/GPa) = 0.02110673
#
# Stress axis : x y z
#
# Youngs Moduli (GPa) = 54.26145 54.26139 23.90923
#
# Poissons Ratio (x) = 0.21840 0.29604
# Poissons Ratio (y) = 0.21840 0.29604
# Poissons Ratio (z) = 0.67185 0.67185
#
# Static dielectric constant tensor:
#      x y z
#    x 1.658960 0.000000 0.000000 
#    y 0.000000 1.658960 0.000000 
#    z 0.000000 0.000000 1.684320 
# 
# From -- ./inp_files/3347.got.cif
#   From: 2010.05.17/outbox.cif.g08.bks.cpg/sg189_2_cif.got.tgz:3347.got - 2010.05.20 12:14:34.
