data_PCOD9586928
_publ_section_title
;
Structure prediction by ZEFSAII (Michael W. Deem and Ramdas Pophale) SiO2 
 PCOD9586928
Probable space group: P -6 2 C
;
_chemical_formula_sum "Si O2"
_cell_formula_units_Z 36
_cell_length_a 9.388948
_cell_length_b 9.388948
_cell_length_c 18.366541
_cell_angle_alpha 90.000000
_cell_angle_beta 90.000000
_cell_angle_gamma 120.000000
_cell_volume 1402.141591
_symmetry_space_group_name_H-M "P -6 2 C"
_symmetry_group_IT_number 190
_symmetry_cell_setting 'hexagonal'
loop_
_space_group_symop_operation_xyz
x,y,z
-x+y,-x,1/2-z
-y,x-y,z
x,y,1/2-z
-x+y,-x,z
-y,x-y,1/2-z
x-y,-y,-z
-x,-x+y,-z
y,x,-z
y,x,1/2+z
x-y,-y,1/2+z
-x,-x+y,1/2+z
loop_
_atom_site_type_symbol
_atom_site_label
_atom_site_fract_x
_atom_site_fract_y
_atom_site_fract_z
Si Si1 0.850455 0.164221 0.048347
Si Si2 0.073746 0.288142 0.330319
Si Si3 0.548522 0.947229 0.833226
O O1 0.962230 0.155577 0.111660
O O2 0.707394 0.165397 0.098419
O O3 0.000000 0.311089 0.000000
O O4 0.759307 0.000000 0.000000
O O5 0.029897 0.218091 0.250000
O O6 0.018016 0.425359 0.338052
O O7 0.267712 0.370904 0.339027
O O8 0.531171 0.877906 0.750000
#
# Coordination Sequence:
#
# PCOD9586928 Si02
#       3
#    12  12  12
#     4  12  24  42  61  96 139 167 208 262 328 391
#     4  10  22  42  66  91 123 171 225 270 317 383
#     4  10  22  42  66  91 123 171 225 270 317 383
#
# _framework density 25.675007999999998
#
# number of rings (size 3 to 8) (size 9 to 14) (size 15 to 20)
#    0.000    1.333    3.333    2.000    0.000    4.000 
#    2.000    0.000    0.000    0.000    0.000    0.000 
#    0.000    0.000    0.000    0.000    0.000    0.000 
#
# Total GULP energy -200851.532915 kJ/mol
# GULP energy per Si atom -5579.209248 kJ/mol
# Density = 2.561657 g / cm^3
# Si number density = 25.675008 Si / 1000 Ang^3
#
#
#
# Elastic Constant Matrix: (Units=GPa)
#
#
# Indices 1 2 3 4 5 6 
#
# 1 129.0125 44.1180 42.8698 0.0000 0.0000 0.0000
# 2 44.1180 129.0125 42.8698 0.0000 0.0000 0.0000
# 3 42.8698 42.8698 191.7042 0.0000 0.0000 0.0000
# 4 0.0000 0.0000 0.0000 17.2251 0.0000 0.0000
# 5 0.0000 0.0000 0.0000 0.0000 17.2251 0.0000
# 6 0.0000 0.0000 0.0000 0.0000 0.0000 42.4472
#
#
#
# Elastic Compliance Matrix: (Units=1/GPa)
#
#
# Indices 1 2 3 4 5 6 
#
# 1 0.009137 -0.002642 -0.001453 0.000000 0.000000 0.000000
# 2 -0.002642 0.009137 -0.001453 0.000000 0.000000 0.000000
# 3 -0.001453 -0.001453 0.005866 0.000000 0.000000 0.000000
# 4 0.000000 0.000000 0.000000 0.058055 0.000000 0.000000
# 5 0.000000 0.000000 0.000000 0.000000 0.058055 0.000000
# 6 0.000000 0.000000 0.000000 0.000000 0.000000 0.023559
#
#
# Mechanical properties :
#
#
# Convention : Reuss Voigt Hill
#
# Bulk Modulus (GPa) = 76.64836 78.82713 77.73775
# Shear Modulus (GPa) = 27.89371 36.70426 32.29899
#
# Velocity S-wave (km/s) = 3.29966 3.78507 3.55067
# Velocity P-wave (km/s) = 6.66596 7.06193 6.86680
#
# Compressibility (1/GPa) = 0.01304659
#
# Stress axis : x y z
#
# Youngs Moduli (GPa) = 109.44122 109.44122 170.47374
#
# Poissons Ratio (x) = 0.28914 0.24762
# Poissons Ratio (y) = 0.28914 0.24762
# Poissons Ratio (z) = 0.15896 0.15896
#
# Static dielectric constant tensor:
#      x y z
#    x 2.076230 0.000000 0.000000 
#    y 0.000000 2.076230 0.000000 
#    z 0.000000 0.000000 2.158320 
# 
# From -- ./inp_files/2339.got.cif
#   From: 2010.05.17/outbox.cif.g08.bks.cpg/sg190_2_cif.got.tgz:2339.got - 2010.05.20 12:16:56.
