data_PCOD9586428
_publ_section_title
;
Structure prediction by ZEFSAII (Michael W. Deem and Ramdas Pophale) SiO2 
 PCOD9586428
Probable space group: P -6 2 M
;
_chemical_formula_sum "Si O2"
_cell_formula_units_Z 48
_cell_length_a 19.738239
_cell_length_b 19.738239
_cell_length_c 7.400701
_cell_angle_alpha 90.000000
_cell_angle_beta 90.000000
_cell_angle_gamma 120.000000
_cell_volume 2497.010087
_symmetry_space_group_name_H-M "P -6 2 M"
_symmetry_group_IT_number 189
_symmetry_cell_setting 'hexagonal'
loop_
_space_group_symop_operation_xyz
x,y,z
-x+y,-x,-z
-y,x-y,z
x,y,-z
-x+y,-x,z
-y,x-y,-z
x-y,-y,-z
-x,-x+y,-z
y,x,-z
y,x,z
x-y,-y,z
-x,-x+y,z
loop_
_atom_site_type_symbol
_atom_site_label
_atom_site_fract_x
_atom_site_fract_y
_atom_site_fract_z
Si Si1 0.322462 0.407749 0.000000
Si Si2 0.907580 0.225196 0.715464
Si Si3 0.822163 0.466519 0.284651
Si Si4 0.750780 0.909286 0.000000
Si Si5 0.188807 0.499712 0.717431
O O1 0.329459 0.454589 0.179481
O O2 0.394699 0.394699 0.000000
O O3 0.242895 0.326878 0.000000
O O4 0.893675 0.209021 0.500000
O O5 0.884504 0.146292 0.827074
O O6 0.856885 0.265914 0.778072
O O7 0.000000 0.285347 0.741257
O O8 0.833213 0.474592 0.500000
O O9 0.736715 0.455004 0.245806
O O10 0.838594 0.398482 0.220487
O O11 0.822427 0.000000 0.000000
O O12 0.180024 0.494709 0.500000
#
# Coordination Sequence:
#
# PCOD9586428 Si02
#       5
#     6  12  12   6  12
#     4  11  24  36  52  80 109 148 195 233 288 353
#     4  10  21  39  64  93 123 157 200 251 309 369
#     4  10  20  36  56  79 116 156 199 250 289 334
#     4  11  23  40  62  88 118 154 196 241 298 371
#     4   9  18  34  57  84 114 159 208 247 294 346
#
# _framework density 19.222991
#
# number of rings (size 3 to 8) (size 9 to 14) (size 15 to 20)
#    0.000    2.000    2.500    0.875    0.000    6.000 
#    0.000    5.000    0.000    2.000    0.000    0.000 
#    0.000    0.000    0.000    0.000    0.000    0.000 
#
# Total GULP energy -267419.895256 kJ/mol
# GULP energy per Si atom -5571.247818 kJ/mol
# Density = 1.917924 g / cm^3
# Si number density = 19.222991 Si / 1000 Ang^3
#
#
#
# Elastic Constant Matrix: (Units=GPa)
#
#
# Indices 1 2 3 4 5 6 
#
# 1 75.8816 32.5769 26.8971 0.0000 0.0000 0.0000
# 2 32.5769 75.8816 26.8971 0.0000 0.0000 0.0000
# 3 26.8971 26.8971 71.8378 0.0000 0.0000 0.0000
# 4 0.0000 0.0000 0.0000 19.7591 0.0000 0.0000
# 5 0.0000 0.0000 0.0000 0.0000 19.7591 0.0000
# 6 0.0000 0.0000 0.0000 0.0000 0.0000 21.6524
#
#
#
# Elastic Compliance Matrix: (Units=1/GPa)
#
#
# Indices 1 2 3 4 5 6 
#
# 1 0.017207 -0.005885 -0.004239 0.000000 0.000000 0.000000
# 2 -0.005885 0.017207 -0.004239 0.000000 0.000000 0.000000
# 3 -0.004239 -0.004239 0.017095 0.000000 0.000000 0.000000
# 4 0.000000 0.000000 0.000000 0.050610 0.000000 0.000000
# 5 0.000000 0.000000 0.000000 0.000000 0.050610 0.000000
# 6 0.000000 0.000000 0.000000 0.000000 0.000000 0.046184
#
#
# Mechanical properties :
#
#
# Convention : Reuss Voigt Hill
#
# Bulk Modulus (GPa) = 43.89278 44.03813 43.96545
# Shear Modulus (GPa) = 21.25539 21.38280 21.31909
#
# Velocity S-wave (km/s) = 3.32886 3.33882 3.33384
# Velocity P-wave (km/s) = 6.13662 6.14999 6.14331
#
# Compressibility (1/GPa) = 0.02278279
#
# Stress axis : x y z
#
# Youngs Moduli (GPa) = 58.11425 58.11425 58.49716
#
# Poissons Ratio (x) = 0.34198 0.24799
# Poissons Ratio (y) = 0.34198 0.24799
# Poissons Ratio (z) = 0.24637 0.24637
#
# Static dielectric constant tensor:
#      x y z
#    x 1.700490 0.000000 0.000000 
#    y 0.000000 1.700490 0.000000 
#    z 0.000000 0.000000 1.616710 
# 
# From -- ./inp_files/659.got.cif
#   From: 2010.05.17/outbox.cif.g08.bks.cpg/sg189_1_cif.got.tgz:659.got - 2010.05.20 12:14:34.
