data_PCOD9586077
_publ_section_title
;
Structure prediction by ZEFSAII (Michael W. Deem and Ramdas Pophale) SiO2 
 PCOD9586077
Probable space group: P -6 C 2
;
_chemical_formula_sum "Si O2"
_cell_formula_units_Z 68
_cell_length_a 12.366253
_cell_length_b 12.366253
_cell_length_c 26.475008
_cell_angle_alpha 90.000000
_cell_angle_beta 90.000000
_cell_angle_gamma 120.000000
_cell_volume 3506.250872
_symmetry_space_group_name_H-M "P -6 C 2"
_symmetry_group_IT_number 188
_symmetry_cell_setting 'hexagonal'
loop_
_space_group_symop_operation_xyz
x,y,z
-x+y,-x,1/2-z
-y,x-y,z
x,y,1/2-z
-x+y,-x,z
-y,x-y,1/2-z
-y,-x,-z
-x+y,y,-z
x,x-y,-z
-x+y,y,1/2+z
x,x-y,1/2+z
-y,-x,1/2+z
loop_
_atom_site_type_symbol
_atom_site_label
_atom_site_fract_x
_atom_site_fract_y
_atom_site_fract_z
Si Si1 0.907324 0.576365 0.508416
Si Si2 0.742813 0.758381 0.914804
Si Si3 0.767271 0.730135 0.806675
Si Si4 0.333334 0.666667 0.560922
Si Si5 0.000000 0.000000 0.561831
Si Si6 0.310819 0.412014 0.593531
Si Si7 0.718764 0.757542 0.194815
O O1 0.761111 0.522222 0.500000
O O2 0.941685 0.470843 0.500000
O O3 0.963423 0.678761 0.464854
O O4 0.974302 0.634776 0.561218
O O5 0.711625 0.679025 0.862637
O O6 0.657951 0.821754 0.917966
O O7 0.886544 0.869784 0.917757
O O8 0.715954 0.675435 0.750000
O O9 0.765035 0.859913 0.808136
O O10 0.904075 0.746039 0.808984
O O11 0.333334 0.666667 0.500000
O O12 0.359434 0.556583 0.579924
O O13 0.000000 0.000000 0.500000
O O14 0.316615 0.381813 0.651912
O O15 0.662419 0.712879 0.250000
#
# Coordination Sequence:
#
# PCOD9586077 Si02
#       7
#    12  12  12   4   4  12  12
#     4  12  24  39  57  79 108 143 184 235 293 356
#     4  11  20  33  54  83 114 146 184 232 290 349
#     4   9  16  27  47  76 111 146 181 224 283 351
#     4  12  24  42  61  80 109 159 210 246 292 356
#     4  12  21  30  49  83 121 150 183 234 301 356
#     4  11  22  37  58  83 112 150 195 239 285 348
#     4   9  17  30  50  80 116 152 187 230 287 350
#
# _framework density 19.393934000000002
#
# number of rings (size 3 to 8) (size 9 to 14) (size 15 to 20)
#    0.000    1.412    0.000    9.529    0.000    1.412 
#    0.000    0.882    0.000    3.176    0.000    0.000 
#    0.000    2.824    0.000    0.000    0.000    0.000 
#
# Total GULP energy -379074.005348 kJ/mol
# GULP energy per Si atom -5574.617726 kJ/mol
# Density = 1.934979 g / cm^3
# Si number density = 19.393934 Si / 1000 Ang^3
#
#
#
# Elastic Constant Matrix: (Units=GPa)
#
#
# Indices 1 2 3 4 5 6 
#
# 1 36.1128 23.5976 28.0282 -0.0027 0.0000 -0.0001
# 2 23.5976 36.1131 28.0282 0.0025 -0.0002 0.0000
# 3 28.0282 28.0282 145.5096 -0.0001 0.0002 -0.0001
# 4 -0.0027 0.0025 -0.0001 -0.1291 0.0001 0.0001
# 5 0.0000 -0.0002 0.0002 0.0001 -0.1294 -0.0023
# 6 -0.0001 0.0000 -0.0001 0.0001 -0.0023 6.2577
#
#
#
# Elastic Compliance Matrix: (Units=1/GPa)
#
#
# Indices 1 2 3 4 5 6 
#
# 1 0.050173 -0.029728 -0.003938 -0.001619 0.000025 0.000000
# 2 -0.029728 0.050172 -0.003938 0.001603 -0.000063 0.000000
# 3 -0.003938 -0.003938 0.008390 -0.000003 0.000016 0.000000
# 4 -0.001619 0.001603 -0.000003 -7.744123 -0.003393 0.000088
# 5 0.000025 -0.000063 0.000016 -0.003393 -7.727361 -0.002868
# 6 0.000000 0.000000 0.000000 0.000088 -0.002868 0.159803
#
#
# Mechanical properties :
#
#
# Convention : Reuss Voigt Hill
#
# Bulk Modulus (GPa) = 29.82729 41.89372 35.86050
# Shear Modulus (GPa) = -0.33076 10.40526 5.03725
#
# Velocity S-wave (km/s) = -0.41342 2.31881 1.61337
# Velocity P-wave (km/s) = 3.89682 5.36819 4.69056
#
# Compressibility (1/GPa) = 0.03352635
#
# Stress axis : x y z
#
# Youngs Moduli (GPa) = 19.93108 19.93125 119.19661
#
# Poissons Ratio (x) = 0.59252 0.46941
# Poissons Ratio (y) = 0.59251 0.46940
# Poissons Ratio (z) = 0.07849 0.07849
#
# Static dielectric constant tensor:
#      x y z
#    x 1.693990 0.000000 0.000000 
#    y 0.000000 1.693990 0.000000 
#    z 0.000000 0.000000 1.820270 
# 
# From -- ./inp_files/4492.got.cif
#   From: 2010.05.17/outbox.cif.g08.bks.cpg/sg188_3_cif.got.tgz:4492.got - 2010.05.20 12:11:46.
