data_PCOD9586133
_publ_section_title
;
Structure prediction by ZEFSAII (Michael W. Deem and Ramdas Pophale) SiO2 
 PCOD9586133
Probable space group: P -6 2 M
;
_chemical_formula_sum "Si O2"
_cell_formula_units_Z 72
_cell_length_a 24.256457
_cell_length_b 24.256457
_cell_length_c 8.423704
_cell_angle_alpha 90.000000
_cell_angle_beta 90.000000
_cell_angle_gamma 120.000000
_cell_volume 4292.284125
_symmetry_space_group_name_H-M "P -6 2 M"
_symmetry_group_IT_number 189
_symmetry_cell_setting 'hexagonal'
loop_
_space_group_symop_operation_xyz
x,y,z
-x+y,-x,-z
-y,x-y,z
x,y,-z
-x+y,-x,z
-y,x-y,-z
x-y,-y,-z
-x,-x+y,-z
y,x,-z
y,x,z
x-y,-y,z
-x,-x+y,z
loop_
_atom_site_type_symbol
_atom_site_label
_atom_site_fract_x
_atom_site_fract_y
_atom_site_fract_z
Si Si1 0.927676 0.260442 0.190153
Si Si2 0.475661 0.142205 0.692532
Si Si3 0.476656 0.267628 0.306974
Si Si4 0.721412 0.000000 0.812351
Si Si5 0.466401 0.874079 0.306267
Si Si6 0.193474 0.330245 0.310222
Si Si7 0.000000 0.596012 0.692035
O O1 0.904706 0.309478 0.245964
O O2 0.875785 0.191059 0.253554
O O3 0.000000 0.286181 0.244086
O O4 0.926196 0.258317 0.000000
O O5 0.473007 0.139281 0.500000
O O6 0.492667 0.213411 0.740769
O O7 0.530187 0.127715 0.747902
O O8 0.476700 0.268698 0.500000
O O9 0.523429 0.339445 0.253755
O O10 0.403472 0.242194 0.257290
O O11 0.600710 0.000000 0.500000
O O12 0.714750 0.934406 0.749690
O O13 0.657588 0.000000 0.757470
O O14 0.463995 0.872977 0.500000
O O15 0.530554 0.937921 0.260531
O O16 0.194156 0.330405 0.500000
O O17 0.000000 0.723850 0.000000
#
# Coordination Sequence:
#
# PCOD9586133 Si02
#       7
#    12  12  12   6  12  12   6
#     4  10  21  36  52  73 105 138 166 206 259 308
#     4   9  18  30  48  70  91 126 176 222 263 312
#     4   8  14  27  45  66  90 119 161 216 267 303
#     4  12  22  32  50  80 112 138 164 199 254 315
#     4   9  16  27  45  68  93 123 166 221 270 307
#     4  10  19  34  56  77 101 132 171 210 247 297
#     4  10  18  30  48  66  94 134 172 215 264 311
#
# _framework density 16.774286
#
# number of rings (size 3 to 8) (size 9 to 14) (size 15 to 20)
#    0.000    2.500    1.667    2.750    1.167    1.333 
#    1.000    0.833    0.000    0.000    0.000    0.000 
#    0.833    0.000    1.500    0.000    1.500    0.000 
#
# Total GULP energy -401421.683044 kJ/mol
# GULP energy per Si atom -5575.301153 kJ/mol
# Density = 1.673611 g / cm^3
# Si number density = 16.774286 Si / 1000 Ang^3
#
#
#
# Elastic Constant Matrix: (Units=GPa)
#
#
# Indices 1 2 3 4 5 6 
#
# 1 119.6516 80.1774 25.9179 0.0000 0.0000 0.0000
# 2 80.1774 119.6516 25.9179 0.0000 0.0000 0.0000
# 3 25.9179 25.9179 28.4005 0.0000 0.0000 0.0000
# 4 0.0000 0.0000 0.0000 8.9779 0.0000 0.0000
# 5 0.0000 0.0000 0.0000 0.0000 8.9779 0.0000
# 6 0.0000 0.0000 0.0000 0.0000 0.0000 19.7371
#
#
#
# Elastic Compliance Matrix: (Units=1/GPa)
#
#
# Indices 1 2 3 4 5 6 
#
# 1 0.015945 -0.009388 -0.005983 0.000000 0.000000 0.000000
# 2 -0.009388 0.015945 -0.005983 0.000000 0.000000 0.000000
# 3 -0.005983 -0.005983 0.046131 0.000000 0.000000 0.000000
# 4 0.000000 0.000000 0.000000 0.111385 0.000000 0.000000
# 5 0.000000 0.000000 0.000000 0.000000 0.111385 0.000000
# 6 0.000000 0.000000 0.000000 0.000000 0.000000 0.050666
#
#
# Mechanical properties :
#
#
# Convention : Reuss Voigt Hill
#
# Bulk Modulus (GPa) = 28.31991 59.08113 43.70052
# Shear Modulus (GPa) = 12.31721 16.58460 14.45091
#
# Velocity S-wave (km/s) = 2.71272 3.14776 2.93830
# Velocity P-wave (km/s) = 5.17024 6.96483 6.13353
#
# Compressibility (1/GPa) = 0.03531085
#
# Stress axis : x y z
#
# Youngs Moduli (GPa) = 62.71690 62.71690 21.67736
#
# Poissons Ratio (x) = 0.58881 0.12970
# Poissons Ratio (y) = 0.58881 0.12970
# Poissons Ratio (z) = 0.37525 0.37525
#
# Static dielectric constant tensor:
#      x y z
#    x 1.566500 0.000000 0.000000 
#    y 0.000000 1.566500 0.000000 
#    z 0.000000 0.000000 1.581700 
# 
# From -- ./inp_files/1318.got.cif
#   From: 2010.05.17/outbox.cif.g08.bks.cpg/sg189_1_cif.got.tgz:1318.got - 2010.05.20 12:14:34.
