data_PCOD9586750
_publ_section_title
;
Structure prediction by ZEFSAII (Michael W. Deem and Ramdas Pophale) SiO2 
 PCOD9586750
Probable space group: P -6 2 C
;
_chemical_formula_sum "Si O2"
_cell_formula_units_Z 70
_cell_length_a 13.385865
_cell_length_b 13.385865
_cell_length_c 18.112386
_cell_angle_alpha 90.000000
_cell_angle_beta 90.000000
_cell_angle_gamma 120.000000
_cell_volume 2810.600882
_symmetry_space_group_name_H-M "P -6 2 C"
_symmetry_group_IT_number 190
_symmetry_cell_setting 'hexagonal'
loop_
_space_group_symop_operation_xyz
x,y,z
-x+y,-x,1/2-z
-y,x-y,z
x,y,1/2-z
-x+y,-x,z
-y,x-y,1/2-z
x-y,-y,-z
-x,-x+y,-z
y,x,-z
y,x,1/2+z
x-y,-y,1/2+z
-x,-x+y,1/2+z
loop_
_atom_site_type_symbol
_atom_site_label
_atom_site_fract_x
_atom_site_fract_y
_atom_site_fract_z
Si Si1 0.832634 0.845182 0.750000
Si Si2 0.818194 0.578558 0.112105
Si Si3 0.880181 0.464058 0.519228
Si Si4 0.592518 0.749129 0.250000
Si Si5 0.210897 0.449951 0.404541
Si Si6 0.973014 0.689957 0.250000
Si Si7 0.333333 0.666666 0.662809
Si Si8 0.812050 0.808489 0.916569
O O1 0.737788 0.707525 0.750000
O O2 0.786861 0.934598 0.750000
O O3 0.876385 0.856271 0.836555
O O4 0.908304 0.614477 0.179016
O O5 0.701912 0.461458 0.135269
O O6 0.804679 0.689289 0.093908
O O7 0.865691 0.537774 0.044760
O O8 0.867624 0.528719 0.590418
O O9 0.795788 0.330836 0.536057
O O10 0.000000 0.472697 0.500000
O O11 0.522909 0.703485 0.324486
O O12 0.646077 0.888830 0.250000
O O13 0.114861 0.319121 0.419345
O O14 0.333334 0.666668 0.750000
O O15 0.857321 0.857321 0.000000
#
# Coordination Sequence:
#
# PCOD9586750 Si02
#       8
#     6  12  12   6  12   6   4  12
#     4   8  20  36  66  96 124 170 224 281 354 421
#     4  11  23  40  63  98 132 174 231 290 354 421
#     4  12  25  40  65  98 133 180 236 288 351 419
#     4  10  22  44  66  93 137 179 227 283 349 441
#     4  11  24  43  63  95 133 183 231 283 352 423
#     4  10  20  42  68  97 131 175 233 290 357 428
#     4  12  24  39  57  90 138 166 218 304 354 402
#     4  10  19  40  65  89 130 181 222 284 360 423
#
# _framework density 24.905705999999999
#
# number of rings (size 3 to 8) (size 9 to 14) (size 15 to 20)
#    0.000    1.371    2.571    2.914    2.400    0.686 
#    0.514    0.857    0.000    0.000    0.000    0.000 
#    0.000    0.000    0.000    0.000    0.000    0.000 
#
# Total GULP energy -390463.144157 kJ/mol
# GULP energy per Si atom -5578.044917 kJ/mol
# Density = 2.484902 g / cm^3
# Si number density = 24.905706 Si / 1000 Ang^3
#
#
#
# Elastic Constant Matrix: (Units=GPa)
#
#
# Indices 1 2 3 4 5 6 
#
# 1 85.3236 39.2842 25.4444 0.0000 0.0000 0.0000
# 2 39.2842 85.3239 25.4443 0.0000 0.0000 0.0000
# 3 25.4444 25.4443 186.7386 0.0000 0.0000 0.0000
# 4 0.0000 0.0000 0.0000 23.6813 0.0000 0.0000
# 5 0.0000 0.0000 0.0000 0.0000 23.6813 0.0000
# 6 0.0000 0.0000 0.0000 0.0000 0.0000 23.0197
#
#
#
# Elastic Compliance Matrix: (Units=1/GPa)
#
#
# Indices 1 2 3 4 5 6 
#
# 1 0.015109 -0.006611 -0.001158 0.000000 0.000000 0.000000
# 2 -0.006611 0.015109 -0.001158 0.000000 0.000000 0.000000
# 3 -0.001158 -0.001158 0.005671 0.000000 0.000000 0.000000
# 4 0.000000 0.000000 0.000000 0.042227 0.000000 0.000000
# 5 0.000000 0.000000 0.000000 0.000000 0.042227 0.000000
# 6 0.000000 0.000000 0.000000 0.000000 0.000000 0.043441
#
#
# Mechanical properties :
#
#
# Convention : Reuss Voigt Hill
#
# Bulk Modulus (GPa) = 55.44755 59.74801 57.59778
# Shear Modulus (GPa) = 26.64525 31.89069 29.26797
#
# Velocity S-wave (km/s) = 3.27440 3.58223 3.43177
# Velocity P-wave (km/s) = 6.05036 6.41495 6.23532
#
# Compressibility (1/GPa) = 0.01803506
#
# Stress axis : x y z
#
# Youngs Moduli (GPa) = 66.18448 66.18471 176.34742
#
# Poissons Ratio (x) = 0.43756 0.20420
# Poissons Ratio (y) = 0.43756 0.20419
# Poissons Ratio (z) = 0.07664 0.07664
#
# Static dielectric constant tensor:
#      x y z
#    x 1.968650 0.000000 0.000000 
#    y 0.000000 1.968640 0.000000 
#    z 0.000000 0.000000 2.036760 
# 
# From -- ./inp_files/3841.got.cif
#   From: 2010.05.17/outbox.cif.g08.bks.cpg/sg190_2_cif.got.tgz:3841.got - 2010.05.20 12:16:56.
