data_PCOD9586986
_publ_section_title
;
Structure prediction by ZEFSAII (Michael W. Deem and Ramdas Pophale) SiO2 
 PCOD9586986
Probable space group: P -6 2 C
;
_chemical_formula_sum "Si O2"
_cell_formula_units_Z 48
_cell_length_a 11.601692
_cell_length_b 11.601692
_cell_length_c 19.597045
_cell_angle_alpha 90.000000
_cell_angle_beta 90.000000
_cell_angle_gamma 120.000000
_cell_volume 2284.356518
_symmetry_space_group_name_H-M "P -6 2 C"
_symmetry_group_IT_number 190
_symmetry_cell_setting 'hexagonal'
loop_
_space_group_symop_operation_xyz
x,y,z
-x+y,-x,1/2-z
-y,x-y,z
x,y,1/2-z
-x+y,-x,z
-y,x-y,1/2-z
x-y,-y,-z
-x,-x+y,-z
y,x,-z
y,x,1/2+z
x-y,-y,1/2+z
-x,-x+y,1/2+z
loop_
_atom_site_type_symbol
_atom_site_label
_atom_site_fract_x
_atom_site_fract_y
_atom_site_fract_z
Si Si1 0.007241 0.154979 0.922730
Si Si2 0.095104 0.387093 0.170253
Si Si3 0.365504 0.445081 0.108409
Si Si4 0.811676 0.485885 0.044931
O O1 0.001791 0.251595 0.868127
O O2 0.879228 0.004783 0.916425
O O3 0.325935 0.469897 0.032662
O O4 0.000000 0.197321 0.000000
O O5 0.066790 0.381914 0.250000
O O6 0.241680 0.407152 0.157086
O O7 0.091640 0.510413 0.135654
O O8 0.416157 0.340384 0.096271
O O9 0.661690 0.455456 0.053932
#
# Coordination Sequence:
#
# PCOD9586986 Si02
#       4
#    12  12  12  12
#     4   8  20  42  63  89 113 151 196 254 307 350
#     4  12  24  38  60  87 126 164 199 243 300 370
#     4  11  22  37  59  88 127 161 197 248 308 351
#     4   9  19  39  60  90 116 155 205 260 295 346
#
# _framework density 21.012483
#
# number of rings (size 3 to 8) (size 9 to 14) (size 15 to 20)
#    1.000    1.000    2.500    1.250    3.500    7.000 
#    0.000    0.000    0.000    4.500    0.000    0.000 
#    0.000    0.000    0.000    0.000    0.000    0.000 
#
# Total GULP energy -268033.993747 kJ/mol
# GULP energy per Si atom -5584.041536 kJ/mol
# Density = 2.096466 g / cm^3
# Si number density = 21.012483 Si / 1000 Ang^3
#
#
#
# Elastic Constant Matrix: (Units=GPa)
#
#
# Indices 1 2 3 4 5 6 
#
# 1 68.1938 1.4282 16.6159 0.0000 0.0000 0.0000
# 2 1.4282 68.1938 16.6159 0.0000 0.0000 0.0000
# 3 16.6159 16.6159 81.7243 0.0000 0.0000 0.0000
# 4 0.0000 0.0000 0.0000 16.8678 0.0000 0.0000
# 5 0.0000 0.0000 0.0000 0.0000 16.8678 0.0000
# 6 0.0000 0.0000 0.0000 0.0000 0.0000 33.3828
#
#
#
# Elastic Compliance Matrix: (Units=1/GPa)
#
#
# Indices 1 2 3 4 5 6 
#
# 1 0.015442 0.000465 -0.003234 0.000000 0.000000 0.000000
# 2 0.000465 0.015442 -0.003234 0.000000 0.000000 0.000000
# 3 -0.003234 -0.003234 0.013551 0.000000 0.000000 0.000000
# 4 0.000000 0.000000 0.000000 0.059285 0.000000 0.000000
# 5 0.000000 0.000000 0.000000 0.000000 0.059285 0.000000
# 6 0.000000 0.000000 0.000000 0.000000 0.000000 0.029956
#
#
# Mechanical properties :
#
#
# Convention : Reuss Voigt Hill
#
# Bulk Modulus (GPa) = 30.83685 31.93690 31.38687
# Shear Modulus (GPa) = 23.17196 25.65378 24.41287
#
# Velocity S-wave (km/s) = 3.32440 3.49790 3.41226
# Velocity P-wave (km/s) = 5.42613 5.61656 5.52217
#
# Compressibility (1/GPa) = 0.03242873
#
# Stress axis : x y z
#
# Youngs Moduli (GPa) = 64.75679 64.75679 73.79321
#
# Poissons Ratio (x) = -0.03009 0.23866
# Poissons Ratio (y) = -0.03009 0.23866
# Poissons Ratio (z) = 0.20943 0.20943
#
# Static dielectric constant tensor:
#      x y z
#    x 1.814630 0.000000 0.000000 
#    y 0.000000 1.814630 0.000000 
#    z 0.000000 0.000000 1.689590 
# 
# From -- ./inp_files/4554.got.cif
#   From: 2010.05.17/outbox.cif.g08.bks.cpg/sg190_3_cif.got.tgz:4554.got - 2010.05.20 12:16:56.
