data_PCOD9586575
_publ_section_title
;
Structure prediction by ZEFSAII (Michael W. Deem and Ramdas Pophale) SiO2 
 PCOD9586575
Probable space group: P -6 2 M
;
_chemical_formula_sum "Si O2"
_cell_formula_units_Z 28
_cell_length_a 14.202951
_cell_length_b 14.202951
_cell_length_c 8.316526
_cell_angle_alpha 90.000000
_cell_angle_beta 90.000000
_cell_angle_gamma 120.000000
_cell_volume 1452.880045
_symmetry_space_group_name_H-M "P -6 2 M"
_symmetry_group_IT_number 189
_symmetry_cell_setting 'hexagonal'
loop_
_space_group_symop_operation_xyz
x,y,z
-x+y,-x,-z
-y,x-y,z
x,y,-z
-x+y,-x,z
-y,x-y,-z
x-y,-y,-z
-x,-x+y,-z
y,x,-z
y,x,z
x-y,-y,z
-x,-x+y,z
loop_
_atom_site_type_symbol
_atom_site_label
_atom_site_fract_x
_atom_site_fract_y
_atom_site_fract_z
Si Si1 0.460229 0.336928 0.694045
Si Si2 0.874718 0.752654 0.695999
Si Si3 0.666668 0.333335 0.810448
O O1 0.459644 0.336901 0.500000
O O2 0.420511 0.420511 0.747089
O O3 0.366480 0.216385 0.747542
O O4 0.577179 0.362457 0.749897
O O5 0.871276 0.751013 0.500000
O O6 0.794670 0.794670 0.753010
O O7 0.000000 0.836499 0.740253
O O8 0.666667 0.333334 0.000000
#
# Coordination Sequence:
#
# PCOD9586575 Si02
#       3
#    12  12   4
#     4   9  19  36  56  78 105 138 179 223 263 311
#     4   8  13  23  44  76 109 136 164 205 258 310
#     4  12  25  38  55  78 106 140 175 216 271 332
#
# _framework density 19.272065000000001
#
# number of rings (size 3 to 8) (size 9 to 14) (size 15 to 20)
#    0.000    3.000    0.000    4.286    0.000    4.286 
#    0.000    4.286    0.000    0.000    0.000    0.000 
#    0.000    3.429    0.000    0.000    0.000    0.000 
#
# Total GULP energy -156114.127227 kJ/mol
# GULP energy per Si atom -5575.504544 kJ/mol
# Density = 1.922820 g / cm^3
# Si number density = 19.272065 Si / 1000 Ang^3
#
#
#
# Elastic Constant Matrix: (Units=GPa)
#
#
# Indices 1 2 3 4 5 6 
#
# 1 106.9910 62.9955 18.9495 0.0002 0.0004 0.0001
# 2 62.9955 106.9885 18.9495 0.0002 0.0004 0.0005
# 3 18.9495 18.9495 12.7840 -0.0005 0.0001 0.0000
# 4 0.0002 0.0002 -0.0005 -9.2672 -0.0002 0.0000
# 5 0.0004 0.0004 0.0001 -0.0002 -9.2670 0.0000
# 6 0.0001 0.0005 0.0000 0.0000 0.0000 21.9975
#
#
#
# Elastic Compliance Matrix: (Units=1/GPa)
#
#
# Indices 1 2 3 4 5 6 
#
# 1 0.015758 -0.006972 -0.013024 0.000001 0.000000 0.000000
# 2 -0.006972 0.015759 -0.013025 0.000001 0.000000 0.000000
# 3 -0.013024 -0.013025 0.116834 -0.000007 0.000000 0.000000
# 4 0.000001 0.000001 -0.000007 -0.107907 0.000002 0.000000
# 5 0.000000 0.000000 0.000000 0.000002 -0.107909 0.000000
# 6 0.000000 0.000000 0.000000 0.000000 0.000000 0.045460
#
#
# Mechanical properties :
#
#
# Convention : Reuss Voigt Hill
#
# Bulk Modulus (GPa) = 12.14921 47.61694 29.88307
# Shear Modulus (GPa) = 69.95812 9.08392 39.52102
#
# Velocity S-wave (km/s) = 6.03151 2.17342 4.53337
# Velocity P-wave (km/s) = 7.40427 5.57312 6.55297
#
# Compressibility (1/GPa) = 0.08230990
#
# Stress axis : x y z
#
# Youngs Moduli (GPa) = 63.45889 63.45705 8.55917
#
# Poissons Ratio (x) = 0.44241 0.11147
# Poissons Ratio (y) = 0.44242 0.11148
# Poissons Ratio (z) = 0.82649 0.82650
#
# Static dielectric constant tensor:
#      x y z
#    x 1.673870 0.000000 0.000000 
#    y 0.000000 1.673870 0.000000 
#    z 0.000000 0.000000 1.674770 
# 
# From -- ./inp_files/260.got.cif
#   From: 2010.05.17/outbox.cif.g08.bks.cpg/sg189_1_cif.got.tgz:260.got - 2010.05.20 12:14:34.
