data_PCOD9586385
_publ_section_title
;
Structure prediction by ZEFSAII (Michael W. Deem and Ramdas Pophale) SiO2 
 PCOD9586385
Probable space group: P -6 2 M
;
_chemical_formula_sum "Si O2"
_cell_formula_units_Z 84
_cell_length_a 19.501776
_cell_length_b 19.501776
_cell_length_c 13.633235
_cell_angle_alpha 90.000000
_cell_angle_beta 90.000000
_cell_angle_gamma 120.000000
_cell_volume 4490.326082
_symmetry_space_group_name_H-M "P -6 2 M"
_symmetry_group_IT_number 189
_symmetry_cell_setting 'hexagonal'
loop_
_space_group_symop_operation_xyz
x,y,z
-x+y,-x,-z
-y,x-y,z
x,y,-z
-x+y,-x,z
-y,x-y,-z
x-y,-y,-z
-x,-x+y,-z
y,x,-z
y,x,z
x-y,-y,z
-x,-x+y,z
loop_
_atom_site_type_symbol
_atom_site_label
_atom_site_fract_x
_atom_site_fract_y
_atom_site_fract_z
Si Si1 0.000000 0.731395 0.881797
Si Si2 0.089839 0.908467 0.617890
Si Si3 0.573812 0.000000 0.117978
Si Si4 0.256955 0.745819 0.111670
Si Si5 0.095636 0.477052 0.384967
Si Si6 0.325539 0.150792 0.111830
Si Si7 0.764423 0.674053 0.315331
Si Si8 0.842936 0.424893 0.798093
O O1 0.082590 0.809482 0.858870
O O2 0.000000 0.652770 0.845431
O O3 0.000000 0.726128 0.000000
O O4 0.087591 0.911519 0.500000
O O5 0.147007 0.874016 0.644999
O O6 0.000000 0.857012 0.653612
O O7 0.130323 0.000000 0.653768
O O8 0.573935 0.077842 0.155254
O O9 0.574349 0.000000 0.000000
O O10 0.196580 0.779393 0.111748
O O11 0.225354 0.671935 0.184242
O O12 0.342922 0.814501 0.144296
O O13 0.259584 0.720051 0.000000
O O14 0.109668 0.494698 0.500000
O O15 0.123464 0.414449 0.353123
O O16 0.138155 0.551400 0.312981
O O17 0.000000 0.433019 0.368009
O O18 0.321803 0.093609 0.197765
O O19 0.306743 0.119630 0.000000
O O20 0.719813 0.719813 0.351385
#
# Coordination Sequence:
#
# PCOD9586385 Si02
#       8
#     6  12   6  12  12  12  12  12
#     4   9  18  34  54  77 107 145 182 224 281 336
#     4   9  17  30  51  79 109 141 182 235 291 344
#     4  11  20  34  59  87 115 143 191 240 280 354
#     4  11  22  36  55  84 121 146 176 231 292 349
#     4  10  21  39  61  84 113 152 199 248 291 337
#     4  10  20  34  53  79 111 145 182 226 278 335
#     4  10  20  35  54  81 112 150 190 231 288 343
#     4  12  22  38  59  88 114 155 196 232 295 357
#
# _framework density 18.706883000000001
#
# number of rings (size 3 to 8) (size 9 to 14) (size 15 to 20)
#    0.000    1.714    3.571    2.143    1.000    2.571 
#    0.000    0.714    0.000    0.000    0.000    2.000 
#    0.000    0.000    0.000    0.000    0.000    0.000 
#
# Total GULP energy -468449.509829 kJ/mol
# GULP energy per Si atom -5576.779879 kJ/mol
# Density = 1.866430 g / cm^3
# Si number density = 18.706883 Si / 1000 Ang^3
#
#
#
# Elastic Constant Matrix: (Units=GPa)
#
#
# Indices 1 2 3 4 5 6 
#
# 1 37.8990 1.1661 15.3608 0.0000 0.0000 0.0000
# 2 1.1661 37.8990 15.3608 0.0000 0.0000 0.0000
# 3 15.3608 15.3608 84.7156 0.0000 0.0000 0.0000
# 4 0.0000 0.0000 0.0000 23.9207 0.0000 0.0000
# 5 0.0000 0.0000 0.0000 0.0000 23.9207 0.0000
# 6 0.0000 0.0000 0.0000 0.0000 0.0000 18.3664
#
#
#
# Elastic Compliance Matrix: (Units=1/GPa)
#
#
# Indices 1 2 3 4 5 6 
#
# 1 0.028540 0.001316 -0.005413 0.000000 0.000000 0.000000
# 2 0.001316 0.028540 -0.005413 0.000000 0.000000 0.000000
# 3 -0.005413 -0.005413 0.013767 0.000000 0.000000 0.000000
# 4 0.000000 0.000000 0.000000 0.041805 0.000000 0.000000
# 5 0.000000 0.000000 0.000000 0.000000 0.041805 0.000000
# 6 0.000000 0.000000 0.000000 0.000000 0.000000 0.054447
#
#
# Mechanical properties :
#
#
# Convention : Reuss Voigt Hill
#
# Bulk Modulus (GPa) = 19.29585 24.92101 22.10843
# Shear Modulus (GPa) = 20.39151 21.81663 21.10407
#
# Velocity S-wave (km/s) = 3.30518 3.41872 3.36243
# Velocity P-wave (km/s) = 4.99027 5.37906 5.18831
#
# Compressibility (1/GPa) = 0.05182460
#
# Stress axis : x y z
#
# Youngs Moduli (GPa) = 35.03904 35.03904 72.63555
#
# Poissons Ratio (x) = -0.04611 0.39321
# Poissons Ratio (y) = -0.04611 0.39321
# Poissons Ratio (z) = 0.18968 0.18968
#
# Static dielectric constant tensor:
#      x y z
#    x 1.667290 0.000000 0.000000 
#    y 0.000000 1.667290 0.000000 
#    z 0.000000 0.000000 1.639320 
# 
# From -- ./inp_files/2847.got.cif
#   From: 2010.05.17/outbox.cif.g08.bks.cpg/sg189_2_cif.got.tgz:2847.got - 2010.05.20 12:14:34.
