data_PCOD9586895
_publ_section_title
;
Structure prediction by ZEFSAII (Michael W. Deem and Ramdas Pophale) SiO2 
 PCOD9586895
Probable space group: P -6 2 C
;
_chemical_formula_sum "Si O2"
_cell_formula_units_Z 60
_cell_length_a 12.170577
_cell_length_b 12.170577
_cell_length_c 23.751775
_cell_angle_alpha 90.000000
_cell_angle_beta 90.000000
_cell_angle_gamma 120.000000
_cell_volume 3046.835724
_symmetry_space_group_name_H-M "P -6 2 C"
_symmetry_group_IT_number 190
_symmetry_cell_setting 'hexagonal'
loop_
_space_group_symop_operation_xyz
x,y,z
-x+y,-x,1/2-z
-y,x-y,z
x,y,1/2-z
-x+y,-x,z
-y,x-y,1/2-z
x-y,-y,-z
-x,-x+y,-z
y,x,-z
y,x,1/2+z
x-y,-y,1/2+z
-x,-x+y,1/2+z
loop_
_atom_site_type_symbol
_atom_site_label
_atom_site_fract_x
_atom_site_fract_y
_atom_site_fract_z
Si Si1 0.958581 0.482210 0.250000
Si Si2 0.333334 0.666667 0.972539
Si Si3 0.647816 0.579385 0.057739
Si Si4 0.644171 0.820823 0.750000
Si Si5 0.472461 0.401642 0.631814
Si Si6 0.171747 0.264975 0.626226
Si Si7 0.000000 0.000000 0.068760
Si Si8 0.333334 0.666667 0.106073
O O1 0.899850 0.331557 0.250000
O O2 0.858111 0.533053 0.250000
O O3 0.038474 0.541169 0.305995
O O4 0.197904 0.553049 0.952823
O O5 0.333334 0.666667 0.039391
O O6 0.518341 0.545413 0.089208
O O7 0.771045 0.661100 0.095502
O O8 0.649001 0.649001 0.000000
O O9 0.727106 0.877788 0.693312
O O10 0.323482 0.334585 0.619055
O O11 0.531812 0.311218 0.626426
O O12 0.110584 0.129807 0.595822
O O13 0.000000 0.000000 0.000000
#
# Coordination Sequence:
#
# PCOD9586895 Si02
#       8
#     6   4  12   6  12  12   4   4
#     4  10  21  40  66 104 135 176 220 282 346 398
#     4  12  24  39  64 101 136 177 225 286 329 400
#     4  12  23  40  67 100 133 174 227 284 338 402
#     4  10  21  40  72 102 137 178 226 292 338 410
#     4  11  25  42  68  98 135 173 225 279 343 410
#     4  11  26  45  70 102 135 177 235 284 347 408
#     4  12  30  49  71  97 141 192 232 293 355 429
#     4  12  27  43  64  96 136 184 219 265 344 415
#
# _framework density 19.692563
#
# number of rings (size 3 to 8) (size 9 to 14) (size 15 to 20)
#    0.000    0.800    6.000    0.800    2.800    4.000 
#    0.000    2.000    0.000    0.000    0.000    0.000 
#    0.000    0.000    0.000    0.000    0.000    0.000 
#
# Total GULP energy -335324.439416 kJ/mol
# GULP energy per Si atom -5588.740657 kJ/mol
# Density = 1.964774 g / cm^3
# Si number density = 19.692563 Si / 1000 Ang^3
#
#
#
# Elastic Constant Matrix: (Units=GPa)
#
#
# Indices 1 2 3 4 5 6 
#
# 1 66.6082 14.6265 37.2577 0.0003 -0.0001 -0.0001
# 2 14.6265 66.6078 37.2578 0.0000 0.0002 0.0001
# 3 37.2577 37.2578 138.8804 0.0003 -0.0003 0.0000
# 4 0.0003 0.0000 0.0003 35.3956 -0.0001 -0.0001
# 5 -0.0001 0.0002 -0.0003 -0.0001 35.3970 -0.0001
# 6 -0.0001 0.0001 0.0000 -0.0001 -0.0001 25.9910
#
#
#
# Elastic Compliance Matrix: (Units=1/GPa)
#
#
# Indices 1 2 3 4 5 6 
#
# 1 0.017783 -0.001455 -0.004380 0.000000 0.000000 0.000000
# 2 -0.001455 0.017783 -0.004380 0.000000 0.000000 0.000000
# 3 -0.004380 -0.004380 0.009551 0.000000 0.000000 0.000000
# 4 0.000000 0.000000 0.000000 0.028252 0.000000 0.000000
# 5 0.000000 0.000000 0.000000 0.000000 0.028251 0.000000
# 6 0.000000 0.000000 0.000000 0.000000 0.000000 0.038475
#
#
# Mechanical properties :
#
#
# Convention : Reuss Voigt Hill
#
# Bulk Modulus (GPa) = 40.50975 50.04226 45.27601
# Shear Modulus (GPa) = 29.62894 31.55367 30.59131
#
# Velocity S-wave (km/s) = 3.88309 4.00723 3.94565
# Velocity P-wave (km/s) = 6.38125 6.84671 6.61807
#
# Compressibility (1/GPa) = 0.02468541
#
# Stress axis : x y z
#
# Youngs Moduli (GPa) = 56.23415 56.23365 104.70431
#
# Poissons Ratio (x) = 0.08181 0.45864
# Poissons Ratio (y) = 0.08181 0.45865
# Poissons Ratio (z) = 0.24633 0.24633
#
# Static dielectric constant tensor:
#      x y z
#    x 1.679260 0.000000 0.000000 
#    y 0.000000 1.679270 0.000000 
#    z 0.000000 0.000000 1.668880 
# 
# From -- ./inp_files/4926.got.cif
#   From: 2010.05.17/outbox.cif.g08.bks.cpg/sg190_3_cif.got.tgz:4926.got - 2010.05.20 12:16:56.
