data_PCOD9586178
_publ_section_title
;
Structure prediction by ZEFSAII (Michael W. Deem and Ramdas Pophale) SiO2 
 PCOD9586178
Probable space group: P -6 2 M
;
_chemical_formula_sum "Si O2"
_cell_formula_units_Z 84
_cell_length_a 24.598398
_cell_length_b 24.598398
_cell_length_c 7.267653
_cell_angle_alpha 90.000000
_cell_angle_beta 90.000000
_cell_angle_gamma 120.000000
_cell_volume 3808.364106
_symmetry_space_group_name_H-M "P -6 2 M"
_symmetry_group_IT_number 189
_symmetry_cell_setting 'hexagonal'
loop_
_space_group_symop_operation_xyz
x,y,z
-x+y,-x,-z
-y,x-y,z
x,y,-z
-x+y,-x,z
-y,x-y,-z
x-y,-y,-z
-x,-x+y,-z
y,x,-z
y,x,z
x-y,-y,z
-x,-x+y,z
loop_
_atom_site_type_symbol
_atom_site_label
_atom_site_fract_x
_atom_site_fract_y
_atom_site_fract_z
Si Si1 0.604790 0.115147 0.708733
Si Si2 0.587297 0.740503 0.723221
Si Si3 0.866998 0.598261 0.275299
Si Si4 0.929782 0.742594 0.723863
Si Si5 0.352680 0.609642 0.779102
Si Si6 0.468402 0.069964 0.724716
Si Si7 0.196224 0.928817 0.723774
O O1 0.596655 0.091151 0.500000
O O2 0.661147 0.108473 0.791116
O O3 0.629205 0.189813 0.703453
O O4 0.535680 0.082468 0.790539
O O5 0.585278 0.740055 0.500000
O O6 0.573302 0.794982 0.782523
O O7 0.544936 0.669481 0.786299
O O8 0.659393 0.763885 0.775355
O O9 0.866804 0.596637 0.500000
O O10 0.907486 0.670900 0.222088
O O11 0.930006 0.742911 0.500000
O O12 0.875134 0.756527 0.781550
O O13 0.000000 0.789607 0.785696
O O14 0.398636 0.683273 0.727518
O O15 0.353954 0.605800 0.000000
O O16 0.470161 0.072308 0.500000
O O17 0.414713 0.000000 0.775003
O O18 0.196609 0.930074 0.500000
O O19 0.227408 0.000000 0.787465
#
# Coordination Sequence:
#
# PCOD9586178 Si02
#       7
#    12  12  12  12  12  12  12
#     4  10  19  27  42  66  87 108 136 177 218 252
#     4   8  13  21  33  46  67  96 124 154 191 241
#     4   8  15  24  33  52  77  97 125 165 206 243
#     4   8  13  21  32  45  65  98 132 160 198 250
#     4   8  18  34  47  60  82 112 142 171 212 264
#     4   9  17  26  35  53  82 111 132 155 201 257
#     4   8  12  18  29  44  60  84 122 163 196 231
#
# _framework density 22.056715000000001
#
# number of rings (size 3 to 8) (size 9 to 14) (size 15 to 20)
#    0.286    3.286    0.000    2.143    2.000    2.857 
#    0.000    2.857    0.000    0.714    0.000    2.000 
#    0.000    0.000    0.000    0.000    0.000    0.000 
#
# Total GULP energy -468682.905023 kJ/mol
# GULP energy per Si atom -5579.558393 kJ/mol
# Density = 2.200651 g / cm^3
# Si number density = 22.056715 Si / 1000 Ang^3
#
#
#
# Elastic Constant Matrix: (Units=GPa)
#
#
# Indices 1 2 3 4 5 6 
#
# 1 78.0002 31.4511 -0.1643 0.0000 0.0000 0.0000
# 2 31.4511 78.0002 -0.1643 0.0000 0.0000 0.0000
# 3 -0.1643 -0.1643 98.8503 0.0000 0.0000 0.0000
# 4 0.0000 0.0000 0.0000-5337.9968 -0.0017 0.0000
# 5 0.0000 0.0000 0.0000 -0.0017-5337.9948 0.0000
# 6 0.0000 0.0000 0.0000 0.0000 0.0000 23.2745
#
#
#
# Elastic Compliance Matrix: (Units=1/GPa)
#
#
# Indices 1 2 3 4 5 6 
#
# 1 0.015310 -0.006173 0.000015 0.000000 0.000000 0.000000
# 2 -0.006173 0.015310 0.000015 0.000000 0.000000 0.000000
# 3 0.000015 0.000015 0.010116 0.000000 0.000000 0.000000
# 4 0.000000 0.000000 0.000000 -0.000187 0.000000 0.000000
# 5 0.000000 0.000000 0.000000 0.000000 -0.000187 0.000000
# 6 0.000000 0.000000 0.000000 0.000000 0.000000 0.042965
#
#
# Mechanical properties :
#
#
# Convention : Reuss Voigt Hill
#
# Bulk Modulus (GPa) = 35.14918 35.23285 35.19102
# Shear Modulus (GPa) = 47.57588 -2115.62822 -1034.02617
#
# Velocity S-wave (km/s) = 4.64937 -31.00417 -21.67536
# Velocity P-wave (km/s) = 6.69273 35.57625 24.70706
#
# Compressibility (1/GPa) = 0.02845016
#
# Stress axis : x y z
#
# Youngs Moduli (GPa) = 65.31835 65.31835 98.84979
#
# Poissons Ratio (x) = 0.40322 -0.00150
# Poissons Ratio (y) = 0.40322 -0.00150
# Poissons Ratio (z) = -0.00099 -0.00099
#
# Static dielectric constant tensor:
#      x y z
#    x 1.784290 0.000000 0.000000 
#    y 0.000000 1.784290 0.000000 
#    z 0.000000 0.000000 1.835960 
# 
# From -- ./inp_files/2251.got.cif
#   From: 2010.05.17/outbox.cif.g08.bks.cpg/sg189_2_cif.got.tgz:2251.got - 2010.05.20 12:14:34.
