data_PCOD9586509
_publ_section_title
;
Structure prediction by ZEFSAII (Michael W. Deem and Ramdas Pophale) SiO2 
 PCOD9586509
Probable space group: P -6 2 M
;
_chemical_formula_sum "Si O2"
_cell_formula_units_Z 68
_cell_length_a 22.151708
_cell_length_b 22.151708
_cell_length_c 7.990514
_cell_angle_alpha 90.000000
_cell_angle_beta 90.000000
_cell_angle_gamma 120.000000
_cell_volume 3395.625485
_symmetry_space_group_name_H-M "P -6 2 M"
_symmetry_group_IT_number 189
_symmetry_cell_setting 'hexagonal'
loop_
_space_group_symop_operation_xyz
x,y,z
-x+y,-x,-z
-y,x-y,z
x,y,-z
-x+y,-x,z
-y,x-y,-z
x-y,-y,-z
-x,-x+y,-z
y,x,-z
y,x,z
x-y,-y,z
-x,-x+y,z
loop_
_atom_site_type_symbol
_atom_site_label
_atom_site_fract_x
_atom_site_fract_y
_atom_site_fract_z
Si Si1 0.601897 0.440026 0.702869
Si Si2 0.478527 0.000000 0.199565
Si Si3 0.136784 0.751168 0.193950
Si Si4 0.614822 0.000000 0.204503
Si Si5 0.475277 0.754427 0.307650
Si Si6 0.080853 0.847145 0.697027
Si Si7 0.000000 0.000000 0.202834
Si Si8 0.137529 0.000000 0.798510
O O1 0.601457 0.441545 0.500000
O O2 0.580165 0.498505 0.753536
O O3 0.551298 0.358360 0.758666
O O4 0.678052 0.453829 0.762852
O O5 0.547045 0.000000 0.263564
O O6 0.475000 0.000000 0.000000
O O7 0.202390 0.760952 0.295144
O O8 0.116277 0.809994 0.208302
O O9 0.068850 0.682763 0.260426
O O10 0.148521 0.740994 0.000000
O O11 0.615632 0.000000 0.000000
O O12 0.451153 0.741509 0.500000
O O13 0.079096 0.832922 0.500000
O O14 0.000000 0.816222 0.752745
O O15 0.127499 0.928597 0.730397
O O16 0.068138 0.000000 0.259051
O O17 0.000000 0.000000 0.000000
O O18 0.139892 0.000000 0.000000
#
# Coordination Sequence:
#
# PCOD9586509 Si02
#       8
#    12   6  12   6  12  12   2   6
#     4  10  21  38  61  89 122 161 200 244 300 359
#     4  11  21  37  59  89 123 156 198 247 296 353
#     4  11  21  37  59  85 117 153 192 238 292 347
#     4   9  18  32  54  84 117 148 182 235 291 338
#     4  10  21  38  60  88 121 156 197 243 294 355
#     4  11  23  37  55  83 115 148 188 237 289 341
#     4   9  18  30  52  80 109 144 184 227 277 336
#     4  11  21  37  57  81 111 150 192 233 286 347
#
# _framework density 20.025766000000001
#
# number of rings (size 3 to 8) (size 9 to 14) (size 15 to 20)
#    0.000    1.588    3.529    1.941    0.000    2.824 
#    0.000    0.882    0.000    5.294    0.000    0.000 
#    0.000    0.000    0.000    0.000    0.000    0.000 
#
# Total GULP energy -378732.843551 kJ/mol
# GULP energy per Si atom -5569.600640 kJ/mol
# Density = 1.998019 g / cm^3
# Si number density = 20.025766 Si / 1000 Ang^3
#
#
#
# Elastic Constant Matrix: (Units=GPa)
#
#
# Indices 1 2 3 4 5 6 
#
# 1 69.8521 66.3020 6.3581 0.0000 0.0000 0.0000
# 2 66.3020 69.8521 6.3581 0.0000 0.0000 0.0000
# 3 6.3581 6.3581 41.4962 0.0000 0.0000 0.0000
# 4 0.0000 0.0000 0.0000 13.5858 0.0000 0.0000
# 5 0.0000 0.0000 0.0000 0.0000 13.5858 0.0000
# 6 0.0000 0.0000 0.0000 0.0000 0.0000 1.7750
#
#
#
# Elastic Compliance Matrix: (Units=1/GPa)
#
#
# Indices 1 2 3 4 5 6 
#
# 1 0.144568 -0.137117 -0.001142 0.000000 0.000000 0.000000
# 2 -0.137117 0.144568 -0.001142 0.000000 0.000000 0.000000
# 3 -0.001142 -0.001142 0.024448 0.000000 0.000000 0.000000
# 4 0.000000 0.000000 0.000000 0.073606 0.000000 0.000000
# 5 0.000000 0.000000 0.000000 0.000000 0.073606 0.000000
# 6 0.000000 0.000000 0.000000 0.000000 0.000000 0.563370
#
#
# Mechanical properties :
#
#
# Convention : Reuss Voigt Hill
#
# Bulk Modulus (GPa) = 28.74872 37.69301 33.22087
# Shear Modulus (GPa) = 3.80355 12.60146 8.20251
#
# Velocity S-wave (km/s) = 1.37966 2.51123 2.02605
# Velocity P-wave (km/s) = 4.11400 5.22221 4.70088
#
# Compressibility (1/GPa) = 0.03478415
#
# Stress axis : x y z
#
# Youngs Moduli (GPa) = 6.91717 6.91717 40.90240
#
# Poissons Ratio (x) = 0.94846 0.04670
# Poissons Ratio (y) = 0.94846 0.04670
# Poissons Ratio (z) = 0.00790 0.00790
#
# Static dielectric constant tensor:
#      x y z
#    x 2.241700 0.000000 0.000000 
#    y 0.000000 2.241700 0.000000 
#    z 0.000000 0.000000 1.741700 
# 
# From -- ./inp_files/1108.got.cif
#   From: 2010.05.17/outbox.cif.g08.bks.cpg/sg189_1_cif.got.tgz:1108.got - 2010.05.20 12:14:34.
