data_PCOD9586974
_publ_section_title
;
Structure prediction by ZEFSAII (Michael W. Deem and Ramdas Pophale) SiO2 
 PCOD9586974
Probable space group: P -6 2 C
;
_chemical_formula_sum "Si O2"
_cell_formula_units_Z 42
_cell_length_a 11.351468
_cell_length_b 11.351468
_cell_length_c 16.018467
_cell_angle_alpha 90.000000
_cell_angle_beta 90.000000
_cell_angle_gamma 120.000000
_cell_volume 1787.539474
_symmetry_space_group_name_H-M "P -6 2 C"
_symmetry_group_IT_number 190
_symmetry_cell_setting 'hexagonal'
loop_
_space_group_symop_operation_xyz
x,y,z
-x+y,-x,1/2-z
-y,x-y,z
x,y,1/2-z
-x+y,-x,z
-y,x-y,1/2-z
x-y,-y,-z
-x,-x+y,-z
y,x,-z
y,x,1/2+z
x-y,-y,1/2+z
-x,-x+y,1/2+z
loop_
_atom_site_type_symbol
_atom_site_label
_atom_site_fract_x
_atom_site_fract_y
_atom_site_fract_z
Si Si1 0.000000 0.842417 0.500000
Si Si2 0.062254 0.709947 0.340640
Si Si3 0.557011 0.640769 0.379616
Si Si4 0.318465 0.809216 0.568736
O O1 0.006855 0.760884 0.418649
O O2 0.873349 0.873349 0.500000
O O3 0.995166 0.698086 0.250000
O O4 0.220526 0.824532 0.334341
O O5 0.076292 0.575870 0.354509
O O6 0.798235 0.454371 0.416453
O O7 0.526168 0.672873 0.473227
O O8 0.675997 0.603767 0.377886
#
# Coordination Sequence:
#
# PCOD9586974 Si02
#       4
#     6  12  12  12
#     4  10  28  50  72  94 140 194 252 292 346 416
#     4  12  25  43  70 106 140 181 231 293 362 428
#     4  11  21  36  65 101 144 172 223 288 352 414
#     4   9  18  34  60  95 130 178 226 264 332 411
#
# _framework density 23.495984
#
# number of rings (size 3 to 8) (size 9 to 14) (size 15 to 20)
#    0.857    0.571    2.857    3.143    4.000    1.143 
#    0.000    0.000    0.000    5.143    0.000    0.000 
#    0.000    0.000    0.000    0.000    0.000    0.000 
#
# Total GULP energy -234263.459964 kJ/mol
# GULP energy per Si atom -5577.701428 kJ/mol
# Density = 2.344251 g / cm^3
# Si number density = 23.495984 Si / 1000 Ang^3
#
#
#
# Elastic Constant Matrix: (Units=GPa)
#
#
# Indices 1 2 3 4 5 6 
#
# 1 95.0254 19.6059 32.2163 0.0000 0.0000 0.0000
# 2 19.6059 95.0254 32.2163 0.0000 0.0000 0.0000
# 3 32.2163 32.2163 119.8861 0.0000 0.0000 0.0000
# 4 0.0000 0.0000 0.0000 -51.9236 0.0000 0.0000
# 5 0.0000 0.0000 0.0000 0.0000 -51.9236 0.0000
# 6 0.0000 0.0000 0.0000 0.0000 0.0000 37.7097
#
#
#
# Elastic Compliance Matrix: (Units=1/GPa)
#
#
# Indices 1 2 3 4 5 6 
#
# 1 0.011767 -0.001492 -0.002761 0.000000 0.000000 0.000000
# 2 -0.001492 0.011767 -0.002761 0.000000 0.000000 0.000000
# 3 -0.002761 -0.002761 0.009825 0.000000 0.000000 0.000000
# 4 0.000000 0.000000 0.000000 -0.019259 0.000000 0.000000
# 5 0.000000 0.000000 0.000000 0.000000 -0.019259 0.000000
# 6 0.000000 0.000000 0.000000 0.000000 0.000000 0.026518
#
#
# Mechanical properties :
#
#
# Convention : Reuss Voigt Hill
#
# Bulk Modulus (GPa) = 51.72921 53.11264 52.42093
# Shear Modulus (GPa) = 119.52271 1.83239 60.67755
#
# Velocity S-wave (km/s) = 7.14002 0.88406 5.08731
# Velocity P-wave (km/s) = 9.48879 4.86787 7.54100
#
# Compressibility (1/GPa) = 0.01933144
#
# Stress axis : x y z
#
# Youngs Moduli (GPa) = 84.98019 84.98019 101.77781
#
# Poissons Ratio (x) = 0.12677 0.28104
# Poissons Ratio (y) = 0.12677 0.28104
# Poissons Ratio (z) = 0.23466 0.23466
#
# Static dielectric constant tensor:
#      x y z
#    x 1.938880 0.000000 0.000000 
#    y 0.000000 1.938880 0.000000 
#    z 0.000000 0.000000 1.928690 
# 
# From -- ./inp_files/3495.got.cif
#   From: 2010.05.17/outbox.cif.g08.bks.cpg/sg190_2_cif.got.tgz:3495.got - 2010.05.20 12:16:56.
