data_PCOD9586723
_publ_section_title
;
Structure prediction by ZEFSAII (Michael W. Deem and Ramdas Pophale) SiO2 
 PCOD9586723
Probable space group: P -6 2 C
;
_chemical_formula_sum "Si O2"
_cell_formula_units_Z 52
_cell_length_a 13.405463
_cell_length_b 13.405463
_cell_length_c 14.016730
_cell_angle_alpha 90.000000
_cell_angle_beta 90.000000
_cell_angle_gamma 120.000000
_cell_volume 2181.428466
_symmetry_space_group_name_H-M "P -6 2 C"
_symmetry_group_IT_number 190
_symmetry_cell_setting 'hexagonal'
loop_
_space_group_symop_operation_xyz
x,y,z
-x+y,-x,1/2-z
-y,x-y,z
x,y,1/2-z
-x+y,-x,z
-y,x-y,1/2-z
x-y,-y,-z
-x,-x+y,-z
y,x,-z
y,x,1/2+z
x-y,-y,1/2+z
-x,-x+y,1/2+z
loop_
_atom_site_type_symbol
_atom_site_label
_atom_site_fract_x
_atom_site_fract_y
_atom_site_fract_z
Si Si1 0.836001 0.520838 0.351958
Si Si2 0.527949 0.475383 0.602826
Si Si3 0.790960 0.018010 0.639601
Si Si4 0.443641 0.227365 0.558855
Si Si5 0.000000 0.000000 0.364032
O O1 0.772171 0.491110 0.250000
O O2 0.768333 0.499851 0.452593
O O3 0.931083 0.479207 0.345506
O O4 0.919419 0.658965 0.356588
O O5 0.474456 0.474456 0.500000
O O6 0.499726 0.344804 0.622339
O O7 0.665144 0.543833 0.596336
O O8 0.820500 0.063230 0.750000
O O9 0.807670 0.118759 0.568736
O O10 0.873387 0.970184 0.609084
O O11 0.000000 0.000000 0.250000
#
# Coordination Sequence:
#
# PCOD9586723 Si02
#       5
#    12  12  12  12   4
#     4   9  19  37  56  77 111 152 190 235 290 346
#     4   9  19  34  54  79 110 145 190 243 289 341
#     4   9  18  33  54  80 113 149 186 230 283 341
#     4  10  19  35  55  80 111 149 192 238 287 340
#     4   9  18  33  52  80 116 149 184 228 277 344
#
# _framework density 23.837589999999999
#
# number of rings (size 3 to 8) (size 9 to 14) (size 15 to 20)
#    0.000    2.769    0.000    2.538    0.000    2.769 
#    0.000    8.077    0.000    4.154    0.000    0.000 
#    0.000    0.000    0.000    0.000    0.000    0.000 
#
# Total GULP energy -289470.811823 kJ/mol
# GULP energy per Si atom -5566.746381 kJ/mol
# Density = 2.378333 g / cm^3
# Si number density = 23.837590 Si / 1000 Ang^3
#
#
#
# Elastic Constant Matrix: (Units=GPa)
#
#
# Indices 1 2 3 4 5 6 
#
# 1 81.2529 42.2033 -14.1586 0.0000 0.0000 0.0000
# 2 42.2033 81.2529 -14.1586 0.0000 0.0000 0.0000
# 3 -14.1586 -14.1586 112.2216 0.0000 0.0000 0.0000
# 4 0.0000 0.0000 0.0000 2.6816 0.0000 0.0000
# 5 0.0000 0.0000 0.0000 0.0000 2.6816 0.0000
# 6 0.0000 0.0000 0.0000 0.0000 0.0000 19.5248
#
#
#
# Elastic Compliance Matrix: (Units=1/GPa)
#
#
# Indices 1 2 3 4 5 6 
#
# 1 0.016975 -0.008634 0.001052 0.000000 0.000000 0.000000
# 2 -0.008634 0.016975 0.001052 0.000000 0.000000 0.000000
# 3 0.001052 0.001052 0.009176 0.000000 0.000000 0.000000
# 4 0.000000 0.000000 0.000000 0.372905 0.000000 0.000000
# 5 0.000000 0.000000 0.000000 0.000000 0.372905 0.000000
# 6 0.000000 0.000000 0.000000 0.000000 0.000000 0.051217
#
#
# Mechanical properties :
#
#
# Convention : Reuss Voigt Hill
#
# Bulk Modulus (GPa) = 33.25685 33.61106 33.43395
# Shear Modulus (GPa) = 5.79218 22.36704 14.07961
#
# Velocity S-wave (km/s) = 1.56049 3.06651 2.43296
# Velocity P-wave (km/s) = 4.15073 5.16416 4.68493
#
# Compressibility (1/GPa) = 0.03006899
#
# Stress axis : x y z
#
# Youngs Moduli (GPa) = 58.91036 58.91036 108.97407
#
# Poissons Ratio (x) = 0.50860 -0.11469
# Poissons Ratio (y) = 0.50860 -0.11469
# Poissons Ratio (z) = -0.06200 -0.06200
#
# Static dielectric constant tensor:
#      x y z
#    x 1.917330 0.000000 0.000000 
#    y 0.000000 1.917330 0.000000 
#    z 0.000000 0.000000 2.116130 
# 
# From -- ./inp_files/2706.got.cif
#   From: 2010.05.17/outbox.cif.g08.bks.cpg/sg190_2_cif.got.tgz:2706.got - 2010.05.20 12:16:56.
