data_PCOD9586378
_publ_section_title
;
Structure prediction by ZEFSAII (Michael W. Deem and Ramdas Pophale) SiO2 
 PCOD9586378
Probable space group: P -6 2 M
;
_chemical_formula_sum "Si O2"
_cell_formula_units_Z 48
_cell_length_a 19.283784
_cell_length_b 19.283784
_cell_length_c 7.851082
_cell_angle_alpha 90.000000
_cell_angle_beta 90.000000
_cell_angle_gamma 120.000000
_cell_volume 2528.393479
_symmetry_space_group_name_H-M "P -6 2 M"
_symmetry_group_IT_number 189
_symmetry_cell_setting 'hexagonal'
loop_
_space_group_symop_operation_xyz
x,y,z
-x+y,-x,-z
-y,x-y,z
x,y,-z
-x+y,-x,z
-y,x-y,-z
x-y,-y,-z
-x,-x+y,-z
y,x,-z
y,x,z
x-y,-y,z
-x,-x+y,z
loop_
_atom_site_type_symbol
_atom_site_label
_atom_site_fract_x
_atom_site_fract_y
_atom_site_fract_z
Si Si1 0.361637 0.214059 0.696769
Si Si2 0.627226 0.469028 0.000000
Si Si3 0.425503 0.089403 0.314354
Si Si4 0.706541 0.183857 0.000000
Si Si5 0.909097 0.818673 0.707368
O O1 0.364344 0.242216 0.500000
O O2 0.392421 0.150221 0.691444
O O3 0.420990 0.277985 0.834276
O O4 0.269547 0.161419 0.757197
O O5 0.620102 0.512130 0.833166
O O6 0.557678 0.378256 0.000000
O O7 0.720067 0.490015 0.000000
O O8 0.462679 0.096681 0.500000
O O9 0.352497 0.000000 0.296158
O O10 0.904596 0.815855 0.500000
O O11 0.847341 0.847341 0.766676
O O12 0.000000 0.883146 0.754777
#
# Coordination Sequence:
#
# PCOD9586378 Si02
#       5
#    12   6  12   6  12
#     4   9  18  33  53  76 103 136 172 209 252 304
#     4  10  20  34  52  75 100 128 162 205 252 304
#     4   9  17  31  52  76  99 125 162 208 254 298
#     4  10  21  36  54  75 101 132 167 207 256 312
#     4   9  16  28  49  77 108 142 180 220 258 296
#
# _framework density 18.984387000000002
#
# number of rings (size 3 to 8) (size 9 to 14) (size 15 to 20)
#    0.000    2.750    0.000    1.625    0.000    5.000 
#    0.000    5.000    0.000    6.000    0.000    1.750 
#    0.000    0.000    0.000    0.000    0.000    0.000 
#
# Total GULP energy -267410.961978 kJ/mol
# GULP energy per Si atom -5571.061708 kJ/mol
# Density = 1.894118 g / cm^3
# Si number density = 18.984387 Si / 1000 Ang^3
#
#
#
# Elastic Constant Matrix: (Units=GPa)
#
#
# Indices 1 2 3 4 5 6 
#
# 1 51.6143 -1.4044 19.0726 0.0000 0.0000 0.0000
# 2 -1.4044 51.6143 19.0726 0.0000 0.0000 0.0000
# 3 19.0726 19.0726 76.1940 0.0000 0.0000 0.0000
# 4 0.0000 0.0000 0.0000 15.9968 0.0000 0.0000
# 5 0.0000 0.0000 0.0000 0.0000 15.9968 0.0000
# 6 0.0000 0.0000 0.0000 0.0000 0.0000 26.5094
#
#
#
# Elastic Compliance Matrix: (Units=1/GPa)
#
#
# Indices 1 2 3 4 5 6 
#
# 1 0.021727 0.002866 -0.006156 0.000000 0.000000 0.000000
# 2 0.002866 0.021727 -0.006156 0.000000 0.000000 0.000000
# 3 -0.006156 -0.006156 0.016206 0.000000 0.000000 0.000000
# 4 0.000000 0.000000 0.000000 0.062513 0.000000 0.000000
# 5 0.000000 0.000000 0.000000 0.000000 0.062513 0.000000
# 6 0.000000 0.000000 0.000000 0.000000 0.000000 0.037723
#
#
# Mechanical properties :
#
#
# Convention : Reuss Voigt Hill
#
# Bulk Modulus (GPa) = 24.52873 28.10043 26.31458
# Shear Modulus (GPa) = 19.61627 21.21270 20.41449
#
# Velocity S-wave (km/s) = 3.21796 3.34634 3.28278
# Velocity P-wave (km/s) = 5.17258 5.45570 5.31603
#
# Compressibility (1/GPa) = 0.04076853
#
# Stress axis : x y z
#
# Youngs Moduli (GPa) = 46.02512 46.02512 61.70427
#
# Poissons Ratio (x) = -0.13191 0.37986
# Poissons Ratio (y) = -0.13191 0.37986
# Poissons Ratio (z) = 0.28333 0.28333
#
# Static dielectric constant tensor:
#      x y z
#    x 1.644020 0.000000 0.000000 
#    y 0.000000 1.644020 0.000000 
#    z 0.000000 0.000000 1.700760 
# 
# From -- ./inp_files/633.got.cif
#   From: 2010.05.17/outbox.cif.g08.bks.cpg/sg189_1_cif.got.tgz:633.got - 2010.05.20 12:14:34.
