data_PCOD9586948
_publ_section_title
;
Structure prediction by ZEFSAII (Michael W. Deem and Ramdas Pophale) SiO2 
 PCOD9586948
Probable space group: P -6 2 C
;
_chemical_formula_sum "Si O2"
_cell_formula_units_Z 52
_cell_length_a 13.540627
_cell_length_b 13.540627
_cell_length_c 14.145201
_cell_angle_alpha 90.000000
_cell_angle_beta 90.000000
_cell_angle_gamma 120.000000
_cell_volume 2246.039059
_symmetry_space_group_name_H-M "P -6 2 C"
_symmetry_group_IT_number 190
_symmetry_cell_setting 'hexagonal'
loop_
_space_group_symop_operation_xyz
x,y,z
-x+y,-x,1/2-z
-y,x-y,z
x,y,1/2-z
-x+y,-x,z
-y,x-y,1/2-z
x-y,-y,-z
-x,-x+y,-z
y,x,-z
y,x,1/2+z
x-y,-y,1/2+z
-x,-x+y,1/2+z
loop_
_atom_site_type_symbol
_atom_site_label
_atom_site_fract_x
_atom_site_fract_y
_atom_site_fract_z
Si Si1 0.000000 0.000000 0.888017
Si Si2 0.251136 0.202780 0.854195
Si Si3 0.599317 0.604393 0.141272
Si Si4 0.242950 0.832219 0.001960
Si Si5 0.332611 0.469240 0.854389
O O1 0.992726 0.882242 0.857763
O O2 0.000000 0.000000 0.000000
O O3 0.293892 0.192250 0.750000
O O4 0.278947 0.332688 0.859952
O O5 0.317183 0.181658 0.938853
O O6 0.619563 0.639165 0.250000
O O7 0.714640 0.640971 0.082256
O O8 0.528388 0.467913 0.138537
O O9 0.537826 0.657588 0.080018
O O10 0.216916 0.720407 0.944275
O O11 0.303068 0.496261 0.750000
#
# Coordination Sequence:
#
# PCOD9586948 Si02
#       5
#     4  12  12  12  12
#     4  12  25  41  64 108 142 188 227 269 346 427
#     4  11  25  42  67 101 146 182 222 284 345 417
#     4  10  24  44  68 101 138 184 234 291 352 411
#     4  11  23  39  72  99 131 180 231 283 335 415
#     4  10  23  46  71  99 138 182 231 285 350 414
#
# _framework density 23.151869999999999
#
# number of rings (size 3 to 8) (size 9 to 14) (size 15 to 20)
#    0.000    1.385    0.000    4.154   16.154    0.000 
#    1.385    0.000    0.000    0.000    0.000    0.000 
#    0.000    0.000    0.000    0.000    0.000    0.000 
#
# Total GULP energy -290788.211820 kJ/mol
# GULP energy per Si atom -5592.080997 kJ/mol
# Density = 2.309917 g / cm^3
# Si number density = 23.151870 Si / 1000 Ang^3
#
#
#
# Elastic Constant Matrix: (Units=GPa)
#
#
# Indices 1 2 3 4 5 6 
#
# 1 69.8486 20.1365 48.7875 0.0000 0.0000 0.0000
# 2 20.1365 69.8486 48.7875 0.0000 0.0000 0.0000
# 3 48.7875 48.7875 241.4861 0.0000 0.0000 0.0000
# 4 0.0000 0.0000 0.0000 28.4136 0.0000 0.0000
# 5 0.0000 0.0000 0.0000 0.0000 28.4136 0.0000
# 6 0.0000 0.0000 0.0000 0.0000 0.0000 24.8561
#
#
#
# Elastic Compliance Matrix: (Units=1/GPa)
#
#
# Indices 1 2 3 4 5 6 
#
# 1 0.017173 -0.002943 -0.002875 0.000000 0.000000 0.000000
# 2 -0.002943 0.017173 -0.002875 0.000000 0.000000 0.000000
# 3 -0.002875 -0.002875 0.005303 0.000000 0.000000 0.000000
# 4 0.000000 0.000000 0.000000 0.035194 0.000000 0.000000
# 5 0.000000 0.000000 0.000000 0.000000 0.035194 0.000000
# 6 0.000000 0.000000 0.000000 0.000000 0.000000 0.040232
#
#
# Mechanical properties :
#
#
# Convention : Reuss Voigt Hill
#
# Bulk Modulus (GPa) = 44.91630 68.51179 56.71404
# Shear Modulus (GPa) = 28.55904 33.90144 31.23024
#
# Velocity S-wave (km/s) = 3.51601 3.83078 3.67676
# Velocity P-wave (km/s) = 5.99382 7.01591 6.52491
#
# Compressibility (1/GPa) = 0.02226363
#
# Stress axis : x y z
#
# Youngs Moduli (GPa) = 58.23054 58.23054 188.58362
#
# Poissons Ratio (x) = 0.17135 0.54217
# Poissons Ratio (y) = 0.17135 0.54217
# Poissons Ratio (z) = 0.16741 0.16741
#
# Static dielectric constant tensor:
#      x y z
#    x 1.909290 0.000000 0.000000 
#    y 0.000000 1.909290 0.000000 
#    z 0.000000 0.000000 1.895270 
# 
# From -- ./inp_files/2725.got.cif
#   From: 2010.05.17/outbox.cif.g08.bks.cpg/sg190_2_cif.got.tgz:2725.got - 2010.05.20 12:16:56.
