data_PCOD9586246
_publ_section_title
;
Structure prediction by ZEFSAII (Michael W. Deem and Ramdas Pophale) SiO2 
 PCOD9586246
Probable space group: P -6 2 M
;
_chemical_formula_sum "Si O2"
_cell_formula_units_Z 60
_cell_length_a 21.301827
_cell_length_b 21.301827
_cell_length_c 8.770202
_cell_angle_alpha 90.000000
_cell_angle_beta 90.000000
_cell_angle_gamma 120.000000
_cell_volume 3446.465494
_symmetry_space_group_name_H-M "P -6 2 M"
_symmetry_group_IT_number 189
_symmetry_cell_setting 'hexagonal'
loop_
_space_group_symop_operation_xyz
x,y,z
-x+y,-x,-z
-y,x-y,z
x,y,-z
-x+y,-x,z
-y,x-y,-z
x-y,-y,-z
-x,-x+y,-z
y,x,-z
y,x,z
x-y,-y,z
-x,-x+y,z
loop_
_atom_site_type_symbol
_atom_site_label
_atom_site_fract_x
_atom_site_fract_y
_atom_site_fract_z
Si Si1 0.644455 0.793947 0.183798
Si Si2 0.919846 0.919846 0.682381
Si Si3 0.812753 0.455066 0.317304
Si Si4 0.209365 0.520358 0.817092
Si Si5 0.703699 0.083008 0.316349
Si Si6 0.000000 0.218284 0.816049
O O1 0.564624 0.728486 0.226258
O O2 0.650309 0.867050 0.248339
O O3 0.710121 0.782937 0.236624
O O4 0.646426 0.798104 0.000000
O O5 0.910770 0.910770 0.500000
O O6 0.853691 0.853691 0.763151
O O7 0.000000 0.932075 0.719725
O O8 0.806469 0.449221 0.500000
O O9 0.740444 0.450484 0.248501
O O10 0.821933 0.390569 0.250432
O O11 0.877906 0.535310 0.276996
O O12 0.212750 0.525850 0.000000
O O13 0.709367 0.084173 0.500000
O O14 0.664638 0.000000 0.264624
O O15 0.000000 0.219694 0.000000
#
# Coordination Sequence:
#
# PCOD9586246 Si02
#       6
#    12   6  12  12  12   6
#     4   9  20  36  53  74 104 138 172 211 253 306
#     4   8  18  36  54  76 106 133 164 209 254 301
#     4  10  19  32  52  75 102 134 171 214 259 305
#     4  10  19  33  51  74 103 136 174 213 257 305
#     4   9  19  36  55  76 103 135 171 213 259 305
#     4  10  20  36  56  78 106 139 172 209 256 307
#
# _framework density 17.409140000000001
#
# number of rings (size 3 to 8) (size 9 to 14) (size 15 to 20)
#    0.200    2.400    0.000    1.600    0.000    4.000 
#    1.800    4.000    0.000    0.000    0.000    0.000 
#    0.000    0.000    0.000    0.000    0.000    0.000 
#
# Total GULP energy -334560.812654 kJ/mol
# GULP energy per Si atom -5576.013544 kJ/mol
# Density = 1.736952 g / cm^3
# Si number density = 17.409140 Si / 1000 Ang^3
#
#
#
# Elastic Constant Matrix: (Units=GPa)
#
#
# Indices 1 2 3 4 5 6 
#
# 1 141.0466 106.9183 35.3648 0.0000 0.0000 0.0000
# 2 106.9183 141.0466 35.3648 0.0000 0.0000 0.0000
# 3 35.3648 35.3648 27.7282 0.0000 0.0000 0.0000
# 4 0.0000 0.0000 0.0000 24.1877 0.0000 0.0000
# 5 0.0000 0.0000 0.0000 0.0000 24.1877 0.0000
# 6 0.0000 0.0000 0.0000 0.0000 0.0000 17.0641
#
#
#
# Elastic Compliance Matrix: (Units=1/GPa)
#
#
# Indices 1 2 3 4 5 6 
#
# 1 0.017820 -0.011481 -0.008085 0.000000 0.000000 0.000000
# 2 -0.011481 0.017820 -0.008085 0.000000 0.000000 0.000000
# 3 -0.008085 -0.008085 0.056687 0.000000 0.000000 0.000000
# 4 0.000000 0.000000 0.000000 0.041343 0.000000 0.000000
# 5 0.000000 0.000000 0.000000 0.000000 0.041343 0.000000
# 6 0.000000 0.000000 0.000000 0.000000 0.000000 0.058602
#
#
# Mechanical properties :
#
#
# Convention : Reuss Voigt Hill
#
# Bulk Modulus (GPa) = 27.00801 73.90189 50.45495
# Shear Modulus (GPa) = 16.59699 21.89948 19.24824
#
# Velocity S-wave (km/s) = 3.09099 3.55058 3.32872
# Velocity P-wave (km/s) = 5.31849 7.70396 6.61957
#
# Compressibility (1/GPa) = 0.03702605
#
# Stress axis : x y z
#
# Youngs Moduli (GPa) = 56.11653 56.11653 17.64071
#
# Poissons Ratio (x) = 0.64428 0.14262
# Poissons Ratio (y) = 0.64428 0.14262
# Poissons Ratio (z) = 0.45369 0.45369
#
# Static dielectric constant tensor:
#      x y z
#    x 1.580890 0.000000 0.000000 
#    y 0.000000 1.580890 0.000000 
#    z 0.000000 0.000000 1.586060 
# 
# From -- ./inp_files/941.got.cif
#   From: 2010.05.17/outbox.cif.g08.bks.cpg/sg189_1_cif.got.tgz:941.got - 2010.05.20 12:14:34.
