data_PCOD9586893
_publ_section_title
;
Structure prediction by ZEFSAII (Michael W. Deem and Ramdas Pophale) SiO2 
 PCOD9586893
Probable space group: P -6 2 C
;
_chemical_formula_sum "Si O2"
_cell_formula_units_Z 70
_cell_length_a 15.158743
_cell_length_b 15.158743
_cell_length_c 16.535177
_cell_angle_alpha 90.000000
_cell_angle_beta 90.000000
_cell_angle_gamma 120.000000
_cell_volume 3290.530040
_symmetry_space_group_name_H-M "P -6 2 C"
_symmetry_group_IT_number 190
_symmetry_cell_setting 'hexagonal'
loop_
_space_group_symop_operation_xyz
x,y,z
-x+y,-x,1/2-z
-y,x-y,z
x,y,1/2-z
-x+y,-x,z
-y,x-y,1/2-z
x-y,-y,-z
-x,-x+y,-z
y,x,-z
y,x,1/2+z
x-y,-y,1/2+z
-x,-x+y,1/2+z
loop_
_atom_site_type_symbol
_atom_site_label
_atom_site_fract_x
_atom_site_fract_y
_atom_site_fract_z
Si Si1 0.455303 0.559193 0.250000
Si Si2 0.104570 0.243401 0.386519
Si Si3 0.200329 0.786169 0.250000
Si Si4 0.683791 0.683791 0.500000
Si Si5 0.089271 0.869012 0.654216
Si Si6 0.032530 0.504204 0.910427
Si Si7 0.729295 0.184431 0.152344
Si Si8 0.333334 0.666667 0.652292
O O1 0.502462 0.680380 0.250000
O O2 0.335110 0.480916 0.250000
O O3 0.494517 0.537295 0.166100
O O4 0.168187 0.336578 0.325270
O O5 0.160826 0.177932 0.393465
O O6 0.085407 0.294732 0.464084
O O7 0.989319 0.164495 0.356872
O O8 0.593755 0.638754 0.566994
O O9 0.061991 0.851211 0.750000
O O10 0.146140 0.806939 0.631750
O O11 0.110759 0.617032 0.880882
O O12 0.000000 0.521403 0.000000
O O13 0.726633 0.182964 0.250000
O O14 0.742762 0.293321 0.126641
O O15 0.333334 0.666668 0.750000
#
# Coordination Sequence:
#
# PCOD9586893 Si02
#       8
#     6  12   6   6  12  12  12   4
#     4  12  23  44  74 106 146 200 255 327 389 471
#     4  12  24  46  71 105 152 197 255 325 388 480
#     4  12  23  42  76 106 150 198 255 323 395 471
#     4  10  26  44  68 106 144 204 252 308 410 450
#     4  11  23  41  73 108 140 195 257 314 392 464
#     4  10  22  43  68 102 143 195 252 308 386 472
#     4  10  21  39  65 100 137 185 247 303 377 449
#     4   9  21  36  60  99 141 172 236 313 369 450
#
# _framework density 21.273167000000001
#
# number of rings (size 3 to 8) (size 9 to 14) (size 15 to 20)
#    0.514    0.686    4.286    1.543    2.400    0.686 
#    6.171    1.714    0.000    0.000    0.000    0.000 
#    0.000    0.000    0.000    0.000    0.000    0.000 
#
# Total GULP energy -390197.740206 kJ/mol
# GULP energy per Si atom -5574.253432 kJ/mol
# Density = 2.122475 g / cm^3
# Si number density = 21.273167 Si / 1000 Ang^3
#
#
#
# Elastic Constant Matrix: (Units=GPa)
#
#
# Indices 1 2 3 4 5 6 
#
# 1 163.2258 85.9938 49.3013 0.0000 0.0000 0.0000
# 2 85.9938 163.2252 49.3012 -0.0001 0.0000 -0.0001
# 3 49.3013 49.3012 91.5231 -0.0001 0.0000 0.0000
# 4 0.0000 -0.0001 -0.0001 23.2659 0.0000 0.0000
# 5 0.0000 0.0000 0.0000 0.0000 23.2659 0.0000
# 6 0.0000 -0.0001 0.0000 0.0000 0.0000 38.6160
#
#
#
# Elastic Compliance Matrix: (Units=1/GPa)
#
#
# Indices 1 2 3 4 5 6 
#
# 1 0.009024 -0.003924 -0.002747 0.000000 0.000000 0.000000
# 2 -0.003924 0.009024 -0.002747 0.000000 0.000000 0.000000
# 3 -0.002747 -0.002747 0.013886 0.000000 0.000000 0.000000
# 4 0.000000 0.000000 0.000000 0.042981 0.000000 0.000000
# 5 0.000000 0.000000 0.000000 0.000000 0.042981 0.000000
# 6 0.000000 0.000000 0.000000 0.000000 0.000000 0.025896
#
#
# Mechanical properties :
#
#
# Convention : Reuss Voigt Hill
#
# Bulk Modulus (GPa) = 76.35522 87.46297 81.90910
# Shear Modulus (GPa) = 29.94129 32.58808 31.26468
#
# Velocity S-wave (km/s) = 3.75569 3.91818 3.83780
# Velocity P-wave (km/s) = 7.40119 7.85321 7.63055
#
# Compressibility (1/GPa) = 0.01309668
#
# Stress axis : x y z
#
# Youngs Moduli (GPa) = 110.81961 110.81923 72.01725
#
# Poissons Ratio (x) = 0.43490 0.19782
# Poissons Ratio (y) = 0.43490 0.19782
# Poissons Ratio (z) = 0.30441 0.30441
#
# Static dielectric constant tensor:
#      x y z
#    x 1.801090 0.000000 0.000000 
#    y 0.000000 1.801090 0.000000 
#    z 0.000000 0.000000 1.757410 
# 
# From -- ./inp_files/3836.got.cif
#   From: 2010.05.17/outbox.cif.g08.bks.cpg/sg190_2_cif.got.tgz:3836.got - 2010.05.20 12:16:56.
