data_PCOD9586285
_publ_section_title
;
Structure prediction by ZEFSAII (Michael W. Deem and Ramdas Pophale) SiO2 
 PCOD9586285
Probable space group: P -6 2 M
;
_chemical_formula_sum "Si O2"
_cell_formula_units_Z 96
_cell_length_a 15.779651
_cell_length_b 15.779651
_cell_length_c 21.726003
_cell_angle_alpha 90.000000
_cell_angle_beta 90.000000
_cell_angle_gamma 120.000000
_cell_volume 4684.953171
_symmetry_space_group_name_H-M "P -6 2 M"
_symmetry_group_IT_number 189
_symmetry_cell_setting 'hexagonal'
loop_
_space_group_symop_operation_xyz
x,y,z
-x+y,-x,-z
-y,x-y,z
x,y,-z
-x+y,-x,z
-y,x-y,-z
x-y,-y,-z
-x,-x+y,-z
y,x,-z
y,x,z
x-y,-y,z
-x,-x+y,z
loop_
_atom_site_type_symbol
_atom_site_label
_atom_site_fract_x
_atom_site_fract_y
_atom_site_fract_z
Si Si1 0.346764 0.235389 0.807135
Si Si2 0.594332 0.710323 0.260340
Si Si3 0.825326 0.557120 0.073212
Si Si4 0.507501 0.109853 0.074197
Si Si5 0.891562 0.782886 0.426896
Si Si6 0.585059 0.113163 0.396359
Si Si7 0.750219 0.558796 0.397881
Si Si8 0.526940 0.413400 0.752856
O O1 0.275974 0.275974 0.786030
O O2 0.331153 0.135379 0.778753
O O3 0.353636 0.238542 0.880626
O O4 0.457881 0.308698 0.782280
O O5 0.644059 0.644059 0.274772
O O6 0.569444 0.744375 0.324167
O O7 0.489647 0.637638 0.228092
O O8 0.856555 0.476346 0.088121
O O9 0.711950 0.518529 0.088512
O O10 0.840952 0.578089 0.000000
O O11 0.435226 0.000000 0.098750
O O12 0.501165 0.102888 0.000000
O O13 0.901208 0.798781 0.500000
O O14 0.851227 0.851227 0.400497
O O15 0.810562 0.670418 0.418903
O O16 0.000000 0.814429 0.402499
O O17 0.506807 0.144213 0.417817
O O18 0.695086 0.187850 0.416755
O O19 0.590883 0.120780 0.321444
O O20 0.545805 0.000000 0.412575
O O21 0.467645 0.467645 0.769420
#
# Coordination Sequence:
#
# PCOD9586285 Si02
#       8
#    12  12  12  12  12  12  12  12
#     4  11  22  35  53  78 108 142 184 231 284 341
#     4  10  21  37  57  80 111 147 188 236 288 344
#     4  10  21  35  51  74 105 143 186 229 285 349
#     4   9  18  34  54  74 101 138 180 228 278 334
#     4  10  21  38  61  89 120 156 201 253 305 356
#     4  10  19  33  54  81 114 149 187 234 280 335
#     4  11  20  36  59  85 117 157 199 237 292 349
#     4   8  17  34  50  73 105 136 172 219 272 328
#
# _framework density 20.491132
#
# number of rings (size 3 to 8) (size 9 to 14) (size 15 to 20)
#    0.000    2.125    1.250    3.250    1.750    3.250 
#    0.750    0.625    0.000    2.500    0.000    0.000 
#    0.000    0.000    0.000    0.000    0.000    0.000 
#
# Total GULP energy -535409.093762 kJ/mol
# GULP energy per Si atom -5577.178060 kJ/mol
# Density = 2.044449 g / cm^3
# Si number density = 20.491132 Si / 1000 Ang^3
#
#
#
# Elastic Constant Matrix: (Units=GPa)
#
#
# Indices 1 2 3 4 5 6 
#
# 1 94.7483 32.0291 0.4514 0.0000 0.0000 0.0000
# 2 32.0291 94.7483 0.4514 0.0000 0.0000 0.0000
# 3 0.4514 0.4514 26.5379 0.0000 0.0000 0.0000
# 4 0.0000 0.0000 0.0000 8.4067 0.0000 0.0000
# 5 0.0000 0.0000 0.0000 0.0000 8.4067 0.0000
# 6 0.0000 0.0000 0.0000 0.0000 0.0000 31.3596
#
#
#
# Elastic Compliance Matrix: (Units=1/GPa)
#
#
# Indices 1 2 3 4 5 6 
#
# 1 0.011916 -0.004028 -0.000134 0.000000 0.000000 0.000000
# 2 -0.004028 0.011916 -0.000134 0.000000 0.000000 0.000000
# 3 -0.000134 -0.000134 0.037686 0.000000 0.000000 0.000000
# 4 0.000000 0.000000 0.000000 0.118952 0.000000 0.000000
# 5 0.000000 0.000000 0.000000 0.000000 0.118952 0.000000
# 6 0.000000 0.000000 0.000000 0.000000 0.000000 0.031888
#
#
# Mechanical properties :
#
#
# Convention : Reuss Voigt Hill
#
# Bulk Modulus (GPa) = 18.89385 31.32205 25.10795
# Shear Modulus (GPa) = 13.98419 21.84146 17.91283
#
# Velocity S-wave (km/s) = 2.61521 3.26835 2.95985
# Velocity P-wave (km/s) = 4.28481 5.43707 4.89496
#
# Compressibility (1/GPa) = 0.05292727
#
# Stress axis : x y z
#
# Youngs Moduli (GPa) = 83.91775 83.91775 26.53473
#
# Poissons Ratio (x) = 0.33799 0.00356
# Poissons Ratio (y) = 0.33799 0.00356
# Poissons Ratio (z) = 0.01126 0.01126
#
# Static dielectric constant tensor:
#      x y z
#    x 1.744770 0.000000 0.000000 
#    y 0.000000 1.744770 0.000000 
#    z 0.000000 0.000000 1.795230 
# 
# From -- ./inp_files/3724.got.cif
#   From: 2010.05.17/outbox.cif.g08.bks.cpg/sg189_2_cif.got.tgz:3724.got - 2010.05.20 12:14:34.
