data_PCOD9586106
_publ_section_title
;
Structure prediction by ZEFSAII (Michael W. Deem and Ramdas Pophale) SiO2 
 PCOD9586106
Probable space group: P -6 2 M
;
_chemical_formula_sum "Si O2"
_cell_formula_units_Z 72
_cell_length_a 13.838081
_cell_length_b 13.838081
_cell_length_c 21.607891
_cell_angle_alpha 90.000000
_cell_angle_beta 90.000000
_cell_angle_gamma 120.000000
_cell_volume 3583.395540
_symmetry_space_group_name_H-M "P -6 2 M"
_symmetry_group_IT_number 189
_symmetry_cell_setting 'hexagonal'
loop_
_space_group_symop_operation_xyz
x,y,z
-x+y,-x,-z
-y,x-y,z
x,y,-z
-x+y,-x,z
-y,x-y,-z
x-y,-y,-z
-x,-x+y,-z
y,x,-z
y,x,z
x-y,-y,z
-x,-x+y,z
loop_
_atom_site_type_symbol
_atom_site_label
_atom_site_fract_x
_atom_site_fract_y
_atom_site_fract_z
Si Si1 0.591391 0.460752 0.373294
Si Si2 0.819116 0.694439 0.361434
Si Si3 0.874040 0.182095 0.500000
Si Si4 0.468445 0.128697 0.072449
Si Si5 0.446573 0.319974 0.272416
Si Si6 0.633807 0.137776 0.500000
Si Si7 0.133022 0.679112 0.133382
O O1 0.497240 0.497240 0.373733
O O2 0.706009 0.575383 0.370507
O O3 0.555647 0.376440 0.315933
O O4 0.575314 0.401761 0.438220
O O5 0.781877 0.781877 0.338879
O O6 0.869210 0.734046 0.430958
O O7 0.878098 0.655277 0.311844
O O8 0.765541 0.192368 0.500000
O O9 0.000000 0.289175 0.500000
O O10 0.575256 0.147679 0.112213
O O11 0.430431 0.216200 0.091472
O O12 0.374080 0.000000 0.082171
O O13 0.499966 0.142402 0.000000
O O14 0.415443 0.415443 0.259081
O O15 0.459709 0.285134 0.204118
O O16 0.575518 0.000000 0.500000
O O17 0.000000 0.635319 0.127608
#
# Coordination Sequence:
#
# PCOD9586106 Si02
#       7
#    12  12   6  12  12   6  12
#     4   9  18  32  49  69  96 133 179 224 271 320
#     4  10  20  34  53  74 104 143 185 235 281 327
#     4  10  19  31  47  72  97 130 179 227 278 331
#     4  10  21  38  63  92 118 152 197 235 278 341
#     4  10  21  36  53  78 109 145 186 221 268 335
#     4  10  17  31  53  70  94 136 177 227 278 327
#     4  10  22  38  58  87 126 160 190 236 287 341
#
# _framework density 20.092676000000001
#
# number of rings (size 3 to 8) (size 9 to 14) (size 15 to 20)
#    0.000    2.167    1.667    1.333    2.333    3.667 
#    1.000    0.000    0.000    0.833    0.000    0.000 
#    0.000    0.000    0.000    0.000    0.000    0.000 
#
# Total GULP energy -401269.474760 kJ/mol
# GULP energy per Si atom -5573.187149 kJ/mol
# Density = 2.004694 g / cm^3
# Si number density = 20.092676 Si / 1000 Ang^3
#
#
#
# Elastic Constant Matrix: (Units=GPa)
#
#
# Indices 1 2 3 4 5 6 
#
# 1 75.1450 29.6180 29.2501 0.0000 0.0000 0.0000
# 2 29.6180 75.1450 29.2501 0.0000 0.0000 0.0000
# 3 29.2501 29.2501 110.4346 0.0000 0.0000 0.0000
# 4 0.0000 0.0000 0.0000 16.7099 0.0000 0.0000
# 5 0.0000 0.0000 0.0000 0.0000 16.7099 0.0000
# 6 0.0000 0.0000 0.0000 0.0000 0.0000 22.7635
#
#
#
# Elastic Compliance Matrix: (Units=1/GPa)
#
#
# Indices 1 2 3 4 5 6 
#
# 1 0.016584 -0.005381 -0.002967 0.000000 0.000000 0.000000
# 2 -0.005381 0.016584 -0.002967 0.000000 0.000000 0.000000
# 3 -0.002967 -0.002967 0.010627 0.000000 0.000000 0.000000
# 4 0.000000 0.000000 0.000000 0.059845 0.000000 0.000000
# 5 0.000000 0.000000 0.000000 0.000000 0.059845 0.000000
# 6 0.000000 0.000000 0.000000 0.000000 0.000000 0.043930
#
#
# Mechanical properties :
#
#
# Convention : Reuss Voigt Hill
#
# Bulk Modulus (GPa) = 47.25229 48.55125 47.90177
# Shear Modulus (GPa) = 21.08824 22.74374 21.91599
#
# Velocity S-wave (km/s) = 3.24319 3.36808 3.30623
# Velocity P-wave (km/s) = 6.13128 6.27228 6.20218
#
# Compressibility (1/GPa) = 0.02116300
#
# Stress axis : x y z
#
# Youngs Moduli (GPa) = 60.30064 60.30064 94.10111
#
# Poissons Ratio (x) = 0.32450 0.27920
# Poissons Ratio (y) = 0.32450 0.27920
# Poissons Ratio (z) = 0.17892 0.17892
#
# Static dielectric constant tensor:
#      x y z
#    x 1.723860 0.000000 0.000000 
#    y 0.000000 1.723860 0.000000 
#    z 0.000000 0.000000 1.764230 
# 
# From -- ./inp_files/3436.got.cif
#   From: 2010.05.17/outbox.cif.g08.bks.cpg/sg189_2_cif.got.tgz:3436.got - 2010.05.20 12:14:34.
