data_PCOD9586041
_publ_section_title
;
Structure prediction by ZEFSAII (Michael W. Deem and Ramdas Pophale) SiO2 
 PCOD9586041
Probable space group: P -6 C 2
;
_chemical_formula_sum "Si O2"
_cell_formula_units_Z 72
_cell_length_a 16.120116
_cell_length_b 16.120116
_cell_length_c 17.894173
_cell_angle_alpha 90.000000
_cell_angle_beta 90.000000
_cell_angle_gamma 120.000000
_cell_volume 4026.971804
_symmetry_space_group_name_H-M "P -6 C 2"
_symmetry_group_IT_number 188
_symmetry_cell_setting 'hexagonal'
loop_
_space_group_symop_operation_xyz
x,y,z
-x+y,-x,1/2-z
-y,x-y,z
x,y,1/2-z
-x+y,-x,z
-y,x-y,1/2-z
-y,-x,-z
-x+y,y,-z
x,x-y,-z
-x+y,y,1/2+z
x,x-y,1/2+z
-y,-x,1/2+z
loop_
_atom_site_type_symbol
_atom_site_label
_atom_site_fract_x
_atom_site_fract_y
_atom_site_fract_z
Si Si1 0.231755 0.273258 0.411268
Si Si2 0.333602 0.857513 0.837369
Si Si3 0.332569 0.166285 0.338931
Si Si4 0.728396 0.271605 0.589500
Si Si5 0.231755 0.273258 0.588731
Si Si6 0.142486 0.666398 0.837369
O O1 0.297690 0.384155 0.388910
O O2 0.274552 0.216572 0.368709
O O3 0.234414 0.260332 0.500000
O O4 0.123217 0.246435 0.390607
O O5 0.333321 0.884179 0.750000
O O6 0.254608 0.745391 0.843301
O O7 0.437483 0.874966 0.856255
O O8 0.336782 0.168391 0.250000
O O9 0.441521 0.220762 0.370578
O O10 0.274553 0.057981 0.368710
O O11 0.770260 0.385130 0.607086
O O12 0.735959 0.264042 0.500000
O O13 0.297690 0.384155 0.611090
O O14 0.115821 0.666679 0.750000
#
# Coordination Sequence:
#
# PCOD9586041 Si02
#       6
#    12  12  12  12  12  12
#     4  10  22  40  59  80 109 146 190 238 284 337
#     4   9  17  31  53  82 116 151 186 226 273 327
#     4  12  24  38  62  88 114 150 188 238 299 352
#     4   8  18  38  62  88 120 156 194 238 285 342
#     4  10  22  40  59  80 109 146 190 238 284 337
#     4   9  17  31  53  82 116 151 186 226 273 327
#
# _framework density 17.879439000000001
#
# number of rings (size 3 to 8) (size 9 to 14) (size 15 to 20)
#    0.333    2.000    0.000    2.833    0.000    6.000 
#    1.000    0.000    0.000    2.000    0.000    0.000 
#    0.000    0.000    0.000    0.000    0.000    0.000 
#
# Total GULP energy -401483.473209 kJ/mol
# GULP energy per Si atom -5576.159350 kJ/mol
# Density = 1.783874 g / cm^3
# Si number density = 17.879439 Si / 1000 Ang^3
#
#
#
# Elastic Constant Matrix: (Units=GPa)
#
#
# Indices 1 2 3 4 5 6 
#
# 1 111.0872 88.5318 70.1908 0.0000 0.0000 0.0000
# 2 88.5318 111.0872 70.1908 0.0000 0.0000 0.0000
# 3 70.1908 70.1908 91.2158 0.0000 0.0000 0.0000
# 4 0.0000 0.0000 0.0000 19.7532 0.0000 0.0000
# 5 0.0000 0.0000 0.0000 0.0000 19.7532 0.0000
# 6 0.0000 0.0000 0.0000 0.0000 0.0000 11.2777
#
#
#
# Elastic Compliance Matrix: (Units=1/GPa)
#
#
# Indices 1 2 3 4 5 6 
#
# 1 0.027626 -0.016709 -0.008401 0.000000 0.000000 0.000000
# 2 -0.016709 0.027626 -0.008401 0.000000 0.000000 0.000000
# 3 -0.008401 -0.008401 0.023892 0.000000 0.000000 0.000000
# 4 0.000000 0.000000 0.000000 0.050625 0.000000 0.000000
# 5 0.000000 0.000000 0.000000 0.000000 0.050625 0.000000
# 6 0.000000 0.000000 0.000000 0.000000 0.000000 0.088670
#
#
# Mechanical properties :
#
#
# Convention : Reuss Voigt Hill
#
# Bulk Modulus (GPa) = 82.48716 85.69077 84.08897
# Shear Modulus (GPa) = 14.70033 15.78861 15.24447
#
# Velocity S-wave (km/s) = 2.87050 2.97486 2.92314
# Velocity P-wave (km/s) = 7.56450 7.73503 7.65024
#
# Compressibility (1/GPa) = 0.01212310
#
# Stress axis : x y z
#
# Youngs Moduli (GPa) = 36.19725 36.19725 41.85425
#
# Poissons Ratio (x) = 0.60481 0.35162
# Poissons Ratio (y) = 0.60481 0.35162
# Poissons Ratio (z) = 0.30410 0.30410
#
# Static dielectric constant tensor:
#      x y z
#    x 1.601670 0.000000 0.000000 
#    y 0.000000 1.601670 0.000000 
#    z 0.000000 0.000000 1.598940 
# 
# From -- ./inp_files/3183.got.cif
#   From: 2010.05.17/outbox.cif.g08.bks.cpg/sg188_2_cif.got.tgz:3183.got - 2010.05.20 12:11:46.
