data_PCOD9586720
_publ_section_title
;
Structure prediction by ZEFSAII (Michael W. Deem and Ramdas Pophale) SiO2 
 PCOD9586720
Probable space group: P -6 2 C
;
_chemical_formula_sum "Si O2"
_cell_formula_units_Z 72
_cell_length_a 15.288958
_cell_length_b 15.288958
_cell_length_c 18.107526
_cell_angle_alpha 90.000000
_cell_angle_beta 90.000000
_cell_angle_gamma 120.000000
_cell_volume 3665.603820
_symmetry_space_group_name_H-M "P -6 2 C"
_symmetry_group_IT_number 190
_symmetry_cell_setting 'hexagonal'
loop_
_space_group_symop_operation_xyz
x,y,z
-x+y,-x,1/2-z
-y,x-y,z
x,y,1/2-z
-x+y,-x,z
-y,x-y,1/2-z
x-y,-y,-z
-x,-x+y,-z
y,x,-z
y,x,1/2+z
x-y,-y,1/2+z
-x,-x+y,1/2+z
loop_
_atom_site_type_symbol
_atom_site_label
_atom_site_fract_x
_atom_site_fract_y
_atom_site_fract_z
Si Si1 0.790006 0.945531 0.660874
Si Si2 0.247885 0.711148 0.546937
Si Si3 0.759960 0.553270 0.894415
Si Si4 0.422119 0.336116 0.161502
Si Si5 0.056521 0.223748 0.339753
Si Si6 0.536082 0.426965 0.663955
O O1 0.790367 0.940211 0.750000
O O2 0.694358 0.956387 0.640490
O O3 0.783094 0.842295 0.635030
O O4 0.890129 0.048508 0.641087
O O5 0.226734 0.596205 0.543362
O O6 0.211916 0.748492 0.477054
O O7 0.192997 0.711382 0.621324
O O8 0.789037 0.666670 0.875221
O O9 0.820175 0.514101 0.843678
O O10 0.640542 0.482109 0.879953
O O11 0.431569 0.335193 0.250000
O O12 0.452923 0.449997 0.139383
O O13 0.060404 0.236478 0.250000
O O14 0.558877 0.455267 0.750000
#
# Coordination Sequence:
#
# PCOD9586720 Si02
#       6
#    12  12  12  12  12  12
#     4   9  18  35  57  88 125 161 208 262 314 375
#     4  10  23  44  61  83 120 162 214 258 317 389
#     4  12  21  39  60  94 130 168 208 259 328 390
#     4  10  22  40  64  90 121 163 212 271 327 380
#     4  10  19  34  60  91 126 169 213 259 317 388
#     4  11  21  36  61  94 130 165 206 262 324 384
#
# _framework density 19.642057000000001
#
# number of rings (size 3 to 8) (size 9 to 14) (size 15 to 20)
#    0.333    1.333    3.333    2.167    0.000    4.000 
#    0.000    5.833    0.000    0.000    0.000    2.333 
#    0.000    0.000    0.000    0.000    0.000    0.000 
#
# Total GULP energy -401375.816725 kJ/mol
# GULP energy per Si atom -5574.664121 kJ/mol
# Density = 1.959735 g / cm^3
# Si number density = 19.642057 Si / 1000 Ang^3
#
#
#
# Elastic Constant Matrix: (Units=GPa)
#
#
# Indices 1 2 3 4 5 6 
#
# 1 89.2588 25.5914 19.6915 0.0000 0.0000 0.0000
# 2 25.5914 89.2588 19.6915 0.0000 0.0000 0.0000
# 3 19.6915 19.6915 37.5029 0.0000 0.0000 0.0000
# 4 0.0000 0.0000 0.0000 10.0504 0.0000 0.0000
# 5 0.0000 0.0000 0.0000 0.0000 10.0504 0.0000
# 6 0.0000 0.0000 0.0000 0.0000 0.0000 31.8337
#
#
#
# Elastic Compliance Matrix: (Units=1/GPa)
#
#
# Indices 1 2 3 4 5 6 
#
# 1 0.013163 -0.002544 -0.005576 0.000000 0.000000 0.000000
# 2 -0.002544 0.013163 -0.005576 0.000000 0.000000 0.000000
# 3 -0.005576 -0.005576 0.032520 0.000000 0.000000 0.000000
# 4 0.000000 0.000000 0.000000 0.099499 0.000000 0.000000
# 5 0.000000 0.000000 0.000000 0.000000 0.099499 0.000000
# 6 0.000000 0.000000 0.000000 0.000000 0.000000 0.031413
#
#
# Mechanical properties :
#
#
# Convention : Reuss Voigt Hill
#
# Bulk Modulus (GPa) = 31.79141 38.44104 35.11622
# Shear Modulus (GPa) = 15.28438 20.45663 17.87050
#
# Velocity S-wave (km/s) = 2.79255 3.23068 3.01957
# Velocity P-wave (km/s) = 5.15929 5.79048 5.48398
#
# Compressibility (1/GPa) = 0.03145504
#
# Stress axis : x y z
#
# Youngs Moduli (GPa) = 75.97181 75.97181 30.75051
#
# Poissons Ratio (x) = 0.19326 0.17145
# Poissons Ratio (y) = 0.19326 0.17145
# Poissons Ratio (z) = 0.42359 0.42359
#
# Static dielectric constant tensor:
#      x y z
#    x 1.691450 0.000000 0.000000 
#    y 0.000000 1.691450 0.000000 
#    z 0.000000 0.000000 1.695400 
# 
# From -- ./inp_files/3743.got.cif
#   From: 2010.05.17/outbox.cif.g08.bks.cpg/sg190_2_cif.got.tgz:3743.got - 2010.05.20 12:16:56.
