data_PCOD9586438
_publ_section_title
;
Structure prediction by ZEFSAII (Michael W. Deem and Ramdas Pophale) SiO2 
 PCOD9586438
Probable space group: P -6 2 M
;
_chemical_formula_sum "Si O2"
_cell_formula_units_Z 48
_cell_length_a 18.924322
_cell_length_b 18.924322
_cell_length_c 8.605287
_cell_angle_alpha 90.000000
_cell_angle_beta 90.000000
_cell_angle_gamma 120.000000
_cell_volume 2668.926716
_symmetry_space_group_name_H-M "P -6 2 M"
_symmetry_group_IT_number 189
_symmetry_cell_setting 'hexagonal'
loop_
_space_group_symop_operation_xyz
x,y,z
-x+y,-x,-z
-y,x-y,z
x,y,-z
-x+y,-x,z
-y,x-y,-z
x-y,-y,-z
-x,-x+y,-z
y,x,-z
y,x,z
x-y,-y,z
-x,-x+y,z
loop_
_atom_site_type_symbol
_atom_site_label
_atom_site_fract_x
_atom_site_fract_y
_atom_site_fract_z
Si Si1 0.248006 0.000000 0.187094
Si Si2 0.756165 0.595598 0.313835
Si Si3 0.088301 0.000000 0.188206
Si Si4 0.583587 0.488818 0.814065
Si Si5 0.906880 0.573886 0.687780
O O1 0.245051 0.918709 0.245909
O O2 0.167151 0.000000 0.246039
O O3 0.249552 0.000000 0.000000
O O4 0.756547 0.599194 0.500000
O O5 0.671674 0.518363 0.258192
O O6 0.836733 0.593224 0.262497
O O7 0.076606 0.076606 0.233023
O O8 0.092010 0.000000 0.000000
O O9 0.552893 0.552893 0.771084
O O10 0.512734 0.401980 0.753997
O O11 0.588583 0.488220 0.000000
O O12 0.905487 0.569518 0.500000
O O13 0.000000 0.639896 0.734457
#
# Coordination Sequence:
#
# PCOD9586438 Si02
#       5
#     6  12   6  12  12
#     4  11  21  33  55  85 114 147 194 243 279 330
#     4  11  22  36  57  84 114 152 189 228 280 340
#     4   7  14  31  51  73 106 149 190 231 285 334
#     4  10  20  36  59  84 111 144 183 232 279 327
#     4   9  20  39  60  82 111 148 188 229 278 339
#
# _framework density 17.984757999999999
#
# number of rings (size 3 to 8) (size 9 to 14) (size 15 to 20)
#    0.250    2.000    1.250    1.875    0.000    4.000 
#    1.500    0.000    0.000    2.250    0.000    0.000 
#    0.000    0.000    0.000    0.000    0.000    0.000 
#
# Total GULP energy -267669.334708 kJ/mol
# GULP energy per Si atom -5576.444473 kJ/mol
# Density = 1.794382 g / cm^3
# Si number density = 17.984758 Si / 1000 Ang^3
#
#
#
# Elastic Constant Matrix: (Units=GPa)
#
#
# Indices 1 2 3 4 5 6 
#
# 1 146.8256 93.7787 34.5516 0.0000 0.0000 0.0000
# 2 93.7787 146.8256 34.5516 0.0000 0.0000 0.0000
# 3 34.5516 34.5516 31.2988 0.0000 0.0000 0.0000
# 4 0.0000 0.0000 0.0000 21.5513 0.0000 0.0000
# 5 0.0000 0.0000 0.0000 0.0000 21.5513 0.0000
# 6 0.0000 0.0000 0.0000 0.0000 0.0000 26.5235
#
#
#
# Elastic Compliance Matrix: (Units=1/GPa)
#
#
# Indices 1 2 3 4 5 6 
#
# 1 0.012468 -0.006383 -0.006718 0.000000 0.000000 0.000000
# 2 -0.006383 0.012468 -0.006718 0.000000 0.000000 0.000000
# 3 -0.006718 -0.006718 0.046783 0.000000 0.000000 0.000000
# 4 0.000000 0.000000 0.000000 0.046401 0.000000 0.000000
# 5 0.000000 0.000000 0.000000 0.000000 0.046401 0.000000
# 6 0.000000 0.000000 0.000000 0.000000 0.000000 0.037702
#
#
# Mechanical properties :
#
#
# Convention : Reuss Voigt Hill
#
# Bulk Modulus (GPa) = 31.17053 72.30151 51.73602
# Shear Modulus (GPa) = 19.79759 24.72977 22.26368
#
# Velocity S-wave (km/s) = 3.32143 3.71218 3.52222
# Velocity P-wave (km/s) = 5.66378 7.65914 6.73576
#
# Compressibility (1/GPa) = 0.03208159
#
# Stress axis : x y z
#
# Youngs Moduli (GPa) = 80.20229 80.20229 21.37535
#
# Poissons Ratio (x) = 0.51191 0.14360
# Poissons Ratio (y) = 0.51191 0.14360
# Poissons Ratio (z) = 0.53881 0.53881
#
# Static dielectric constant tensor:
#      x y z
#    x 1.616450 0.000000 0.000000 
#    y 0.000000 1.616450 0.000000 
#    z 0.000000 0.000000 1.607910 
# 
# From -- ./inp_files/662.got.cif
#   From: 2010.05.17/outbox.cif.g08.bks.cpg/sg189_1_cif.got.tgz:662.got - 2010.05.20 12:14:34.
