data_PCOD9586152
_publ_section_title
;
Structure prediction by ZEFSAII (Michael W. Deem and Ramdas Pophale) SiO2 
 PCOD9586152
Probable space group: P -6 2 M
;
_chemical_formula_sum "Si O2"
_cell_formula_units_Z 44
_cell_length_a 18.061435
_cell_length_b 18.061435
_cell_length_c 7.588628
_cell_angle_alpha 90.000000
_cell_angle_beta 90.000000
_cell_angle_gamma 120.000000
_cell_volume 2143.869771
_symmetry_space_group_name_H-M "P -6 2 M"
_symmetry_group_IT_number 189
_symmetry_cell_setting 'hexagonal'
loop_
_space_group_symop_operation_xyz
x,y,z
-x+y,-x,-z
-y,x-y,z
x,y,-z
-x+y,-x,z
-y,x-y,-z
x-y,-y,-z
-x,-x+y,-z
y,x,-z
y,x,z
x-y,-y,z
-x,-x+y,z
loop_
_atom_site_type_symbol
_atom_site_label
_atom_site_fract_x
_atom_site_fract_y
_atom_site_fract_z
Si Si1 0.638989 0.849880 0.287567
Si Si2 0.000000 0.000000 0.782463
Si Si3 0.442444 0.098525 0.715939
Si Si4 0.501249 0.897216 0.295697
Si Si5 0.170678 0.170678 0.793032
O O1 0.634356 0.849521 0.500000
O O2 0.604753 0.753597 0.226610
O O3 0.570412 0.875612 0.218159
O O4 0.737528 0.917313 0.249095
O O5 0.913690 0.000000 0.721388
O O6 0.000000 0.000000 0.000000
O O7 0.445385 0.100523 0.500000
O O8 0.539943 0.133039 0.777771
O O9 0.386531 0.000000 0.768614
O O10 0.488478 0.868080 0.500000
O O11 0.547691 0.000000 0.296698
O O12 0.160788 0.160788 0.000000
#
# Coordination Sequence:
#
# PCOD9586152 Si02
#       5
#    12   2  12  12   6
#     4  10  18  31  53  80 104 134 175 217 259 307
#     4   9  24  45  55  68 103 144 172 215 277 327
#     4   8  15  26  43  70 104 134 161 203 253 299
#     4   8  13  25  43  67 101 131 154 192 250 301
#     4  11  23  39  57  74  99 138 182 223 271 327
#
# _framework density 20.523634999999999
#
# number of rings (size 3 to 8) (size 9 to 14) (size 15 to 20)
#    0.000    3.000    1.364    2.045    1.909    0.000 
#    1.636    2.045    0.000    1.636    0.000    0.000 
#    0.000    0.000    0.000    0.000    0.000    0.000 
#
# Total GULP energy -245038.328402 kJ/mol
# GULP energy per Si atom -5569.052918 kJ/mol
# Density = 2.047692 g / cm^3
# Si number density = 20.523635 Si / 1000 Ang^3
#
#
#
# Elastic Constant Matrix: (Units=GPa)
#
#
# Indices 1 2 3 4 5 6 
#
# 1 181.8305 115.6106 9.3332 0.0000 0.0000 0.0000
# 2 115.6106 181.8305 9.3332 0.0000 0.0000 0.0000
# 3 9.3332 9.3332 44.1942 0.0000 0.0000 0.0000
# 4 0.0000 0.0000 0.0000 35.3203 0.0000 0.0000
# 5 0.0000 0.0000 0.0000 0.0000 35.3203 0.0000
# 6 0.0000 0.0000 0.0000 0.0000 0.0000 33.1099
#
#
#
# Elastic Compliance Matrix: (Units=1/GPa)
#
#
# Indices 1 2 3 4 5 6 
#
# 1 0.009254 -0.005847 -0.000720 0.000000 0.000000 0.000000
# 2 -0.005847 0.009254 -0.000720 0.000000 0.000000 0.000000
# 3 -0.000720 -0.000720 0.022931 0.000000 0.000000 0.000000
# 4 0.000000 0.000000 0.000000 0.028312 0.000000 0.000000
# 5 0.000000 0.000000 0.000000 0.000000 0.028312 0.000000
# 6 0.000000 0.000000 0.000000 0.000000 0.000000 0.030202
#
#
# Mechanical properties :
#
#
# Convention : Reuss Voigt Hill
#
# Bulk Modulus (GPa) = 37.21973 75.15655 56.18814
# Shear Modulus (GPa) = 32.93922 38.98867 35.96394
#
# Velocity S-wave (km/s) = 4.01052 4.36328 4.19061
# Velocity P-wave (km/s) = 6.29445 7.87929 7.13104
#
# Compressibility (1/GPa) = 0.02686747
#
# Stress axis : x y z
#
# Youngs Moduli (GPa) = 108.05921 108.05921 43.60850
#
# Poissons Ratio (x) = 0.63182 0.03138
# Poissons Ratio (y) = 0.63182 0.03138
# Poissons Ratio (z) = 0.07775 0.07775
#
# Static dielectric constant tensor:
#      x y z
#    x 1.748890 0.000000 0.000000 
#    y 0.000000 1.748890 0.000000 
#    z 0.000000 0.000000 1.790430 
# 
# From -- ./inp_files/572.got.cif
#   From: 2010.05.17/outbox.cif.g08.bks.cpg/sg189_1_cif.got.tgz:572.got - 2010.05.20 12:14:34.
