data_PCOD9586921
_publ_section_title
;
Structure prediction by ZEFSAII (Michael W. Deem and Ramdas Pophale) SiO2 
 PCOD9586921
Probable space group: P -6 2 C
;
_chemical_formula_sum "Si O2"
_cell_formula_units_Z 70
_cell_length_a 16.001076
_cell_length_b 16.001076
_cell_length_c 16.273357
_cell_angle_alpha 90.000000
_cell_angle_beta 90.000000
_cell_angle_gamma 120.000000
_cell_volume 3608.329256
_symmetry_space_group_name_H-M "P -6 2 C"
_symmetry_group_IT_number 190
_symmetry_cell_setting 'hexagonal'
loop_
_space_group_symop_operation_xyz
x,y,z
-x+y,-x,1/2-z
-y,x-y,z
x,y,1/2-z
-x+y,-x,z
-y,x-y,1/2-z
x-y,-y,-z
-x,-x+y,-z
y,x,-z
y,x,1/2+z
x-y,-y,1/2+z
-x,-x+y,1/2+z
loop_
_atom_site_type_symbol
_atom_site_label
_atom_site_fract_x
_atom_site_fract_y
_atom_site_fract_z
Si Si1 0.574590 0.001328 0.656434
Si Si2 0.115213 0.011181 0.250000
Si Si3 0.666668 0.333335 0.150137
Si Si4 0.406336 0.044898 0.344650
Si Si5 0.034497 0.233232 0.408661
Si Si6 0.256244 0.455714 0.612221
Si Si7 0.247234 0.346959 0.046458
O O1 0.586686 0.034705 0.750000
O O2 0.466799 0.974400 0.628944
O O3 0.584108 0.905044 0.653046
O O4 0.659647 0.077517 0.599574
O O5 0.170886 0.012335 0.167085
O O6 0.008614 0.914428 0.250000
O O7 0.666667 0.333334 0.250000
O O8 0.569797 0.325266 0.116406
O O9 0.383366 0.012264 0.250000
O O10 0.437461 0.157703 0.346746
O O11 0.309273 0.992462 0.397021
O O12 0.149759 0.283395 0.404082
O O13 0.000000 0.188504 0.500000
O O14 0.230258 0.408521 0.522549
O O15 0.276262 0.276262 0.000000
#
# Coordination Sequence:
#
# PCOD9586921 Si02
#       7
#    12   6   4  12  12  12  12
#     4  10  22  39  64  93 129 173 211 268 323 400
#     4  10  28  46  68  98 126 176 222 282 350 398
#     4  12  21  33  63  96 133 167 211 261 333 390
#     4  11  22  39  64  96 129 168 219 267 327 388
#     4  12  25  44  70  97 131 173 225 282 330 398
#     4  11  21  38  59  94 132 166 207 261 332 393
#     4  10  25  41  60  93 127 172 214 263 332 389
#
# _framework density 19.399560999999999
#
# number of rings (size 3 to 8) (size 9 to 14) (size 15 to 20)
#    0.171    1.029    4.286    1.543    3.600    3.429 
#    0.000    0.000    0.000    0.686    0.000    0.000 
#    0.000    0.000    0.000    0.000    0.000    0.000 
#
# Total GULP energy -390609.567957 kJ/mol
# GULP energy per Si atom -5580.136685 kJ/mol
# Density = 1.935541 g / cm^3
# Si number density = 19.399561 Si / 1000 Ang^3
#
#
#
# Elastic Constant Matrix: (Units=GPa)
#
#
# Indices 1 2 3 4 5 6 
#
# 1 67.3974 17.4522 22.6709 -0.0001 -0.0002 0.0006
# 2 17.4522 67.3979 22.6709 0.0001 0.0002 -0.0002
# 3 22.6709 22.6709 75.2209 -0.0001 0.0000 -0.0002
# 4 -0.0001 0.0001 -0.0001 18.9468 0.0001 -0.0002
# 5 -0.0002 0.0002 0.0000 0.0001 18.9464 0.0001
# 6 0.0006 -0.0002 -0.0002 -0.0002 0.0001 24.9732
#
#
#
# Elastic Compliance Matrix: (Units=1/GPa)
#
#
# Indices 1 2 3 4 5 6 
#
# 1 0.017035 -0.002987 -0.004234 0.000000 0.000000 0.000000
# 2 -0.002987 0.017035 -0.004234 0.000000 0.000000 0.000000
# 3 -0.004234 -0.004234 0.015846 0.000000 0.000000 0.000000
# 4 0.000000 0.000000 0.000000 0.052779 0.000000 0.000000
# 5 0.000000 0.000000 0.000000 0.000000 0.052780 0.000000
# 6 0.000000 0.000000 0.000000 0.000000 0.000000 0.040043
#
#
# Mechanical properties :
#
#
# Convention : Reuss Voigt Hill
#
# Bulk Modulus (GPa) = 37.02798 37.28936 37.15867
# Shear Modulus (GPa) = 21.98470 22.38809 22.18639
#
# Velocity S-wave (km/s) = 3.37004 3.40082 3.38546
# Velocity P-wave (km/s) = 5.85417 5.88933 5.87178
#
# Compressibility (1/GPa) = 0.02700661
#
# Stress axis : x y z
#
# Youngs Moduli (GPa) = 58.70255 58.70306 63.10610
#
# Poissons Ratio (x) = 0.17534 0.26719
# Poissons Ratio (y) = 0.17534 0.26719
# Poissons Ratio (z) = 0.24855 0.24854
#
# Static dielectric constant tensor:
#      x y z
#    x 1.688650 0.000000 0.000000 
#    y 0.000000 1.688650 0.000000 
#    z 0.000000 0.000000 1.690200 
# 
# From -- ./inp_files/3792.got.cif
#   From: 2010.05.17/outbox.cif.g08.bks.cpg/sg190_2_cif.got.tgz:3792.got - 2010.05.20 12:16:56.
