data_PCOD9586911
_publ_section_title
;
Structure prediction by ZEFSAII (Michael W. Deem and Ramdas Pophale) SiO2 
 PCOD9586911
Probable space group: P -6 2 C
;
_chemical_formula_sum "Si O2"
_cell_formula_units_Z 74
_cell_length_a 15.098579
_cell_length_b 15.098579
_cell_length_c 19.048999
_cell_angle_alpha 90.000000
_cell_angle_beta 90.000000
_cell_angle_gamma 120.000000
_cell_volume 3760.754138
_symmetry_space_group_name_H-M "P -6 2 C"
_symmetry_group_IT_number 190
_symmetry_cell_setting 'hexagonal'
loop_
_space_group_symop_operation_xyz
x,y,z
-x+y,-x,1/2-z
-y,x-y,z
x,y,1/2-z
-x+y,-x,z
-y,x-y,1/2-z
x-y,-y,-z
-x,-x+y,-z
y,x,-z
y,x,1/2+z
x-y,-y,1/2+z
-x,-x+y,1/2+z
loop_
_atom_site_type_symbol
_atom_site_label
_atom_site_fract_x
_atom_site_fract_y
_atom_site_fract_z
Si Si1 0.134557 0.449699 0.114664
Si Si2 0.796156 0.515887 0.329527
Si Si3 0.666668 0.333334 0.586220
Si Si4 0.666667 0.333335 0.420113
Si Si5 0.300105 0.000000 0.000000
Si Si6 0.695310 0.878528 0.928938
Si Si7 0.455323 0.469916 0.328047
Si Si8 0.254448 0.349768 0.417378
O O1 0.235662 0.560998 0.110244
O O2 0.055610 0.466081 0.161214
O O3 0.177350 0.371962 0.127558
O O4 0.074584 0.402102 0.042453
O O5 0.756942 0.499188 0.250000
O O6 0.714467 0.444244 0.385927
O O7 0.838572 0.628914 0.358843
O O8 0.893012 0.497594 0.331319
O O9 0.666668 0.333334 0.502375
O O10 0.201764 0.932128 0.950758
O O11 0.766345 0.000133 0.916029
O O12 0.631519 0.876572 0.999536
O O13 0.408780 0.455493 0.250000
O O14 0.366749 0.425874 0.386928
#
# Coordination Sequence:
#
# PCOD9586911 Si02
#       8
#    12  12   4   4   6  12  12  12
#     4  11  22  37  55  86 119 154 200 248 299 369
#     4  10  22  36  52  80 115 159 201 241 302 361
#     4  12  24  37  56  91 117 157 209 247 300 379
#     4  12  22  34  54  76 112 154 197 241 283 346
#     4  10  22  36  58  88 112 152 206 254 302 362
#     4   9  19  37  60  84 112 154 199 256 303 363
#     4  10  22  36  53  79 119 161 198 243 298 366
#     4   9  18  37  59  81 115 153 204 245 309 359
#
# _framework density 19.676905000000001
#
# number of rings (size 3 to 8) (size 9 to 14) (size 15 to 20)
#    0.000    1.946    1.622    2.432    4.541    1.946 
#    0.000    0.000    0.000   21.730    0.000    0.000 
#    0.000    0.000    0.000   41.514    0.000    0.000 
#
# Total GULP energy -411983.999726 kJ/mol
# GULP energy per Si atom -5567.351348 kJ/mol
# Density = 1.963212 g / cm^3
# Si number density = 19.676905 Si / 1000 Ang^3
#
#
#
# Elastic Constant Matrix: (Units=GPa)
#
#
# Indices 1 2 3 4 5 6 
#
# 1 59.8318 26.7658 -2.3363 0.0000 0.0000 -0.0002
# 2 26.7658 59.8322 -2.3365 -0.0003 0.0005 0.0002
# 3 -2.3363 -2.3365 32.4623 0.0001 -0.0002 -0.0001
# 4 0.0000 -0.0003 0.0001 6.2563 -0.0007 -0.0002
# 5 0.0000 0.0005 -0.0002 -0.0007 6.2583 -0.0001
# 6 -0.0002 0.0002 -0.0001 -0.0002 -0.0001 16.5336
#
#
#
# Elastic Compliance Matrix: (Units=1/GPa)
#
#
# Indices 1 2 3 4 5 6 
#
# 1 0.020918 -0.009325 0.000834 0.000000 0.000001 0.000000
# 2 -0.009325 0.020917 0.000834 0.000001 -0.000001 0.000000
# 3 0.000834 0.000834 0.030925 0.000000 0.000001 0.000000
# 4 0.000000 0.000001 0.000000 0.159839 0.000018 0.000002
# 5 0.000001 -0.000001 0.000001 0.000018 0.159789 0.000001
# 6 0.000000 0.000000 0.000000 0.000002 0.000001 0.060483
#
#
# Mechanical properties :
#
#
# Convention : Reuss Voigt Hill
#
# Bulk Modulus (GPa) = 17.40710 21.81249 19.60979
# Shear Modulus (GPa) = 10.25993 14.47851 12.36922
#
# Velocity S-wave (km/s) = 2.28594 2.71553 2.50994
# Velocity P-wave (km/s) = 3.97907 4.57619 4.28804
#
# Compressibility (1/GPa) = 0.05744783
#
# Stress axis : x y z
#
# Youngs Moduli (GPa) = 47.80668 47.80700 32.33619
#
# Poissons Ratio (x) = 0.44579 -0.02698
# Poissons Ratio (y) = 0.44579 -0.02698
# Poissons Ratio (z) = -0.03988 -0.03989
#
# Static dielectric constant tensor:
#      x y z
#    x 1.744540 0.000000 0.000000 
#    y 0.000000 1.744550 0.000000 
#    z 0.000000 0.000000 1.706270 
# 
# From -- ./inp_files/4421.got.cif
#   From: 2010.05.17/outbox.cif.g08.bks.cpg/sg190_3_cif.got.tgz:4421.got - 2010.05.20 12:16:56.
