data_PCOD9586142
_publ_section_title
;
Structure prediction by ZEFSAII (Michael W. Deem and Ramdas Pophale) SiO2 
 PCOD9586142
Probable space group: P -6 2 M
;
_chemical_formula_sum "Si O2"
_cell_formula_units_Z 48
_cell_length_a 20.963217
_cell_length_b 20.963217
_cell_length_c 7.928220
_cell_angle_alpha 90.000000
_cell_angle_beta 90.000000
_cell_angle_gamma 120.000000
_cell_volume 3017.325648
_symmetry_space_group_name_H-M "P -6 2 M"
_symmetry_group_IT_number 189
_symmetry_cell_setting 'hexagonal'
loop_
_space_group_symop_operation_xyz
x,y,z
-x+y,-x,-z
-y,x-y,z
x,y,-z
-x+y,-x,z
-y,x-y,-z
x-y,-y,-z
-x,-x+y,-z
y,x,-z
y,x,z
x-y,-y,z
-x,-x+y,z
loop_
_atom_site_type_symbol
_atom_site_label
_atom_site_fract_x
_atom_site_fract_y
_atom_site_fract_z
Si Si1 0.090266 0.557666 0.000000
Si Si2 0.084517 0.785967 0.796983
Si Si3 0.356106 0.445387 0.688783
Si Si4 0.588933 0.678192 0.000000
Si Si5 0.680875 0.767988 0.692096
O O1 0.114447 0.608294 0.833864
O O2 0.115012 0.496812 0.000000
O O3 0.000000 0.512825 0.000000
O O4 0.105310 0.725013 0.737340
O O5 0.145105 0.863644 0.723437
O O6 0.000000 0.755983 0.744317
O O7 0.086892 0.788706 0.000000
O O8 0.357054 0.472974 0.500000
O O9 0.404885 0.404885 0.686704
O O10 0.617676 0.728121 0.167052
O O11 0.631226 0.631226 0.000000
O O12 0.652874 0.750796 0.500000
O O13 0.736948 0.736948 0.714939
#
# Coordination Sequence:
#
# PCOD9586142 Si02
#       5
#     6  12  12   6  12
#     4   9  16  27  42  63  92 122 147 175 220 279
#     4  10  18  30  50  73  98 130 167 211 262 307
#     4   9  16  26  42  66  95 122 148 184 232 283
#     4   9  18  31  45  63  93 126 156 193 231 283
#     4  10  20  33  49  69  96 133 172 208 253 307
#
# _framework density 15.908128
#
# number of rings (size 3 to 8) (size 9 to 14) (size 15 to 20)
#    0.000    2.500    2.500    0.750    0.000    2.500 
#    0.000    5.000    0.000    0.500    0.000    0.000 
#   10.000    0.000    3.000    0.000    0.000    0.000 
#
# Total GULP energy -267368.957544 kJ/mol
# GULP energy per Si atom -5570.186615 kJ/mol
# Density = 1.587192 g / cm^3
# Si number density = 15.908128 Si / 1000 Ang^3
#
#
#
# Elastic Constant Matrix: (Units=GPa)
#
#
# Indices 1 2 3 4 5 6 
#
# 1 61.9924 32.6188 46.1103 0.0000 0.0000 0.0000
# 2 32.6188 61.9924 46.1103 0.0000 0.0000 0.0000
# 3 46.1103 46.1103 135.3596 0.0000 0.0000 0.0000
# 4 0.0000 0.0000 0.0000 10.2836 0.0000 0.0000
# 5 0.0000 0.0000 0.0000 0.0000 10.2836 0.0000
# 6 0.0000 0.0000 0.0000 0.0000 0.0000 14.6868
#
#
#
# Elastic Compliance Matrix: (Units=1/GPa)
#
#
# Indices 1 2 3 4 5 6 
#
# 1 0.024934 -0.009110 -0.005390 0.000000 0.000000 0.000000
# 2 -0.009110 0.024934 -0.005390 0.000000 0.000000 0.000000
# 3 -0.005390 -0.005390 0.011060 0.000000 0.000000 0.000000
# 4 0.000000 0.000000 0.000000 0.097243 0.000000 0.000000
# 5 0.000000 0.000000 0.000000 0.000000 0.097243 0.000000
# 6 0.000000 0.000000 0.000000 0.000000 0.000000 0.068088
#
#
# Mechanical properties :
#
#
# Convention : Reuss Voigt Hill
#
# Bulk Modulus (GPa) = 47.28980 56.55811 51.92396
# Shear Modulus (GPa) = 13.50139 16.01779 14.75959
#
# Velocity S-wave (km/s) = 2.91642 3.17660 3.04929
# Velocity P-wave (km/s) = 6.41343 7.00604 6.71627
#
# Compressibility (1/GPa) = 0.02114621
#
# Stress axis : x y z
#
# Youngs Moduli (GPa) = 40.10596 40.10596 90.41452
#
# Poissons Ratio (x) = 0.36537 0.48737
# Poissons Ratio (y) = 0.36537 0.48737
# Poissons Ratio (z) = 0.21619 0.21619
#
# Static dielectric constant tensor:
#      x y z
#    x 1.518180 0.000000 0.000000 
#    y 0.000000 1.518180 0.000000 
#    z 0.000000 0.000000 1.561680 
# 
# From -- ./inp_files/776.got.cif
#   From: 2010.05.17/outbox.cif.g08.bks.cpg/sg189_1_cif.got.tgz:776.got - 2010.05.20 12:14:34.
