data_PCOD9586307
_publ_section_title
;
Structure prediction by ZEFSAII (Michael W. Deem and Ramdas Pophale) SiO2 
 PCOD9586307
Probable space group: P -6 2 M
;
_chemical_formula_sum "Si O2"
_cell_formula_units_Z 84
_cell_length_a 14.270534
_cell_length_b 14.270534
_cell_length_c 26.741079
_cell_angle_alpha 90.000000
_cell_angle_beta 90.000000
_cell_angle_gamma 120.000000
_cell_volume 4716.176044
_symmetry_space_group_name_H-M "P -6 2 M"
_symmetry_group_IT_number 189
_symmetry_cell_setting 'hexagonal'
loop_
_space_group_symop_operation_xyz
x,y,z
-x+y,-x,-z
-y,x-y,z
x,y,-z
-x+y,-x,z
-y,x-y,-z
x-y,-y,-z
-x,-x+y,-z
y,x,-z
y,x,z
x-y,-y,z
-x,-x+y,z
loop_
_atom_site_type_symbol
_atom_site_label
_atom_site_fract_x
_atom_site_fract_y
_atom_site_fract_z
Si Si1 0.173206 0.435658 0.638511
Si Si2 0.331966 0.874900 0.059893
Si Si3 0.427495 0.297107 0.218316
Si Si4 0.000000 0.331217 0.440589
Si Si5 0.114810 0.000000 0.439642
Si Si6 0.874472 0.481057 0.680311
Si Si7 0.130328 0.668312 0.895450
Si Si8 0.746294 0.871347 0.283094
O O1 0.108607 0.419235 0.587200
O O2 0.302950 0.499189 0.639294
O O3 0.135767 0.502337 0.672973
O O4 0.140493 0.324730 0.667536
O O5 0.425120 0.855428 0.084001
O O6 0.213496 0.780323 0.077004
O O7 0.366970 0.000000 0.072770
O O8 0.338994 0.869491 0.000000
O O9 0.367807 0.367807 0.217560
O O10 0.509798 0.344165 0.264662
O O11 0.472312 0.308811 0.163012
O O12 0.337345 0.178435 0.236952
O O13 0.000000 0.345776 0.500000
O O14 0.000000 0.221150 0.427234
O O15 0.114066 0.000000 0.500000
O O16 0.000000 0.898481 0.423000
O O17 0.000000 0.572422 0.675511
O O18 0.000000 0.625099 0.900450
O O19 0.827512 0.827512 0.275086
O O20 0.809109 0.000000 0.288623
#
# Coordination Sequence:
#
# PCOD9586307 Si02
#       8
#    12  12  12   6   6  12  12  12
#     4  11  21  38  58  82 105 149 185 229 281 328
#     4  10  21  35  54  81 112 151 199 242 288 349
#     4   8  18  33  52  79 111 143 182 229 273 334
#     4  11  22  38  58  83 115 141 183 240 281 332
#     4   7  14  30  50  75 109 143 167 202 272 334
#     4  10  20  37  58  80 112 142 183 227 271 339
#     4  10  20  36  56  81 114 151 189 240 303 350
#     4  10  19  34  55  86 121 154 190 225 283 350
#
# _framework density 17.811040999999999
#
# number of rings (size 3 to 8) (size 9 to 14) (size 15 to 20)
#    0.143    2.143    1.429    2.429    0.000    4.857 
#    0.000    2.143    0.000    0.286    0.000    0.000 
#    0.000    0.000    0.000    0.000    0.000    0.000 
#
# Total GULP energy -467776.216407 kJ/mol
# GULP energy per Si atom -5568.764481 kJ/mol
# Density = 1.777050 g / cm^3
# Si number density = 17.811041 Si / 1000 Ang^3
#
#
#
# Elastic Constant Matrix: (Units=GPa)
#
#
# Indices 1 2 3 4 5 6 
#
# 1 85.9232 41.3491 40.8909 0.0000 0.0000 0.0000
# 2 41.3491 85.9232 40.8909 0.0000 0.0000 0.0000
# 3 40.8909 40.8909 102.1065 0.0000 0.0000 0.0000
# 4 0.0000 0.0000 0.0000 22.9229 0.0000 0.0000
# 5 0.0000 0.0000 0.0000 0.0000 22.9229 0.0000
# 6 0.0000 0.0000 0.0000 0.0000 0.0000 22.2870
#
#
#
# Elastic Compliance Matrix: (Units=1/GPa)
#
#
# Indices 1 2 3 4 5 6 
#
# 1 0.016507 -0.005927 -0.004237 0.000000 0.000000 0.000000
# 2 -0.005927 0.016507 -0.004237 0.000000 0.000000 0.000000
# 3 -0.004237 -0.004237 0.013187 0.000000 0.000000 0.000000
# 4 0.000000 0.000000 0.000000 0.043625 0.000000 0.000000
# 5 0.000000 0.000000 0.000000 0.000000 0.043625 0.000000
# 6 0.000000 0.000000 0.000000 0.000000 0.000000 0.044869
#
#
# Mechanical properties :
#
#
# Convention : Reuss Voigt Hill
#
# Bulk Modulus (GPa) = 57.47440 57.80164 57.63802
# Shear Modulus (GPa) = 23.48280 23.68134 23.58207
#
# Velocity S-wave (km/s) = 3.63497 3.65031 3.64265
# Velocity P-wave (km/s) = 7.06798 7.09151 7.07976
#
# Compressibility (1/GPa) = 0.01739905
#
# Stress axis : x y z
#
# Youngs Moduli (GPa) = 60.57987 60.57987 75.83103
#
# Poissons Ratio (x) = 0.35908 0.32129
# Poissons Ratio (y) = 0.35908 0.32129
# Poissons Ratio (z) = 0.25667 0.25667
#
# Static dielectric constant tensor:
#      x y z
#    x 1.639410 0.000000 0.000000 
#    y 0.000000 1.639410 0.000000 
#    z 0.000000 0.000000 1.608880 
# 
# From -- ./inp_files/3695.got.cif
#   From: 2010.05.17/outbox.cif.g08.bks.cpg/sg189_2_cif.got.tgz:3695.got - 2010.05.20 12:14:34.
