data_PCOD9586959
_publ_section_title
;
Structure prediction by ZEFSAII (Michael W. Deem and Ramdas Pophale) SiO2 
 PCOD9586959
Probable space group: P -6 2 C
;
_chemical_formula_sum "Si O2"
_cell_formula_units_Z 60
_cell_length_a 20.833873
_cell_length_b 20.833873
_cell_length_c 9.116973
_cell_angle_alpha 90.000000
_cell_angle_beta 90.000000
_cell_angle_gamma 120.000000
_cell_volume 3427.056979
_symmetry_space_group_name_H-M "P -6 2 C"
_symmetry_group_IT_number 190
_symmetry_cell_setting 'hexagonal'
loop_
_space_group_symop_operation_xyz
x,y,z
-x+y,-x,1/2-z
-y,x-y,z
x,y,1/2-z
-x+y,-x,z
-y,x-y,1/2-z
x-y,-y,-z
-x,-x+y,-z
y,x,-z
y,x,1/2+z
x-y,-y,1/2+z
-x,-x+y,1/2+z
loop_
_atom_site_type_symbol
_atom_site_label
_atom_site_fract_x
_atom_site_fract_y
_atom_site_fract_z
Si Si1 0.515492 0.433891 0.426236
Si Si2 0.081406 0.439926 0.074311
Si Si3 0.000000 0.176762 0.500000
Si Si4 0.971446 0.066760 0.750000
Si Si5 0.868569 0.206798 0.421038
Si Si6 0.079235 0.707112 0.575686
O O1 0.522786 0.446134 0.250000
O O2 0.471315 0.471315 0.500000
O O3 0.595022 0.477876 0.504388
O O4 0.459975 0.347023 0.455114
O O5 0.075778 0.441789 0.250000
O O6 0.120079 0.394165 0.023039
O O7 0.000000 0.394925 0.000000
O O8 0.962947 0.109296 0.613933
O O9 0.063101 0.254778 0.564086
O O10 0.054980 0.077403 0.750000
O O11 0.864302 0.224865 0.250000
O O12 0.791656 0.134805 0.463052
O O13 0.066896 0.703000 0.750000
O O14 0.000000 0.673977 0.500000
#
# Coordination Sequence:
#
# PCOD9586959 Si02
#       6
#    12  12   6   6  12  12
#     4   9  16  31  55  80 106 136 170 213 263 328
#     4  11  21  33  55  81 110 143 179 220 278 338
#     4  12  22  40  60  80 112 148 198 264 308 350
#     4  10  24  42  60  76 102 148 208 254 306 370
#     4  11  23  38  55  83 117 150 191 245 297 347
#     4   9  20  37  56  82 113 148 188 233 287 345
#
# _framework density 17.507733000000002
#
# number of rings (size 3 to 8) (size 9 to 14) (size 15 to 20)
#    0.200    1.600    2.000    4.200    1.400    3.200 
#    0.000    0.000    0.000    0.800    0.000    2.800 
#    0.000    0.000    0.000    0.000    0.000    0.000 
#
# Total GULP energy -334305.431438 kJ/mol
# GULP energy per Si atom -5571.757191 kJ/mol
# Density = 1.746788 g / cm^3
# Si number density = 17.507733 Si / 1000 Ang^3
#
#
#
# Elastic Constant Matrix: (Units=GPa)
#
#
# Indices 1 2 3 4 5 6 
#
# 1 85.9325 39.9556 29.0683 0.0000 0.0000 0.0000
# 2 39.9556 85.9325 29.0683 0.0000 0.0000 0.0000
# 3 29.0683 29.0683 91.7777 0.0000 0.0000 0.0000
# 4 0.0000 0.0000 0.0000 23.0617 0.0000 0.0000
# 5 0.0000 0.0000 0.0000 0.0000 23.0617 0.0000
# 6 0.0000 0.0000 0.0000 0.0000 0.0000 22.9885
#
#
#
# Elastic Compliance Matrix: (Units=1/GPa)
#
#
# Indices 1 2 3 4 5 6 
#
# 1 0.015527 -0.006223 -0.002947 0.000000 0.000000 0.000000
# 2 -0.006223 0.015527 -0.002947 0.000000 0.000000 0.000000
# 3 -0.002947 -0.002947 0.012763 0.000000 0.000000 0.000000
# 4 0.000000 0.000000 0.000000 0.043362 0.000000 0.000000
# 5 0.000000 0.000000 0.000000 0.000000 0.043362 0.000000
# 6 0.000000 0.000000 0.000000 0.000000 0.000000 0.043500
#
#
# Mechanical properties :
#
#
# Convention : Reuss Voigt Hill
#
# Bulk Modulus (GPa) = 51.06266 51.09190 51.07728
# Shear Modulus (GPa) = 24.41376 24.85907 24.63642
#
# Velocity S-wave (km/s) = 3.73829 3.77223 3.75530
# Velocity P-wave (km/s) = 6.91825 6.94398 6.93113
#
# Compressibility (1/GPa) = 0.01958378
#
# Stress axis : x y z
#
# Youngs Moduli (GPa) = 64.40276 64.40276 78.35356
#
# Poissons Ratio (x) = 0.40076 0.23091
# Poissons Ratio (y) = 0.40076 0.23091
# Poissons Ratio (z) = 0.18979 0.18979
#
# Static dielectric constant tensor:
#      x y z
#    x 1.607570 0.000000 0.000000 
#    y 0.000000 1.607570 0.000000 
#    z 0.000000 0.000000 1.543460 
# 
# From -- ./inp_files/974.got.cif
#   From: 2010.05.17/outbox.cif.g08.bks.cpg/sg190_1_cif.got.tgz:974.got - 2010.05.20 12:16:56.
