data_PCOD9586078
_publ_section_title
;
Structure prediction by ZEFSAII (Michael W. Deem and Ramdas Pophale) SiO2 
 PCOD9586078
Probable space group: P -6 C 2
;
_chemical_formula_sum "Si O2"
_cell_formula_units_Z 76
_cell_length_a 18.002654
_cell_length_b 18.002654
_cell_length_c 14.560889
_cell_angle_alpha 90.000000
_cell_angle_beta 90.000000
_cell_angle_gamma 120.000000
_cell_volume 4086.877236
_symmetry_space_group_name_H-M "P -6 C 2"
_symmetry_group_IT_number 188
_symmetry_cell_setting 'hexagonal'
loop_
_space_group_symop_operation_xyz
x,y,z
-x+y,-x,1/2-z
-y,x-y,z
x,y,1/2-z
-x+y,-x,z
-y,x-y,1/2-z
-y,-x,-z
-x+y,y,-z
x,x-y,-z
-x+y,y,1/2+z
x,x-y,1/2+z
-y,-x,1/2+z
loop_
_atom_site_type_symbol
_atom_site_label
_atom_site_fract_x
_atom_site_fract_y
_atom_site_fract_z
Si Si1 0.000000 0.000000 0.388871
Si Si2 0.852061 0.423187 0.352853
Si Si3 0.473498 0.939392 0.645931
Si Si4 0.026589 0.226433 0.502125
Si Si5 0.200258 0.097602 0.145430
Si Si6 0.851199 0.545536 0.008259
Si Si7 0.057000 0.650979 0.004451
O O1 0.096924 0.044941 0.354775
O O2 0.000000 0.000000 0.500000
O O3 0.819885 0.397850 0.250000
O O4 0.829453 0.490144 0.399044
O O5 0.825531 0.346168 0.423691
O O6 0.956364 0.473297 0.351275
O O7 0.459364 0.907666 0.750000
O O8 0.532776 0.914911 0.584714
O O9 0.386852 0.916185 0.590582
O O10 0.099094 0.198187 0.500000
O O11 0.076822 0.329308 0.506108
O O12 0.964489 0.187774 0.413280
O O13 0.962136 0.182893 0.588337
O O14 0.232948 0.113850 0.250000
O O15 0.952961 0.602504 0.004555
O O16 0.796029 0.592058 0.000000
#
# Coordination Sequence:
#
# PCOD9586078 Si02
#       7
#     4  12  12  12  12  12  12
#     4  12  16  35  55  70  89 145 214 248 277 334
#     4   8  15  29  44  57  77 108 146 185 233 285
#     4   8  15  33  56  73  89 118 159 198 252 328
#     4  11  22  35  50  77 111 141 182 235 283 325
#     4  11  21  34  51  69 100 153 206 244 278 322
#     4   9  17  28  43  61  84 116 151 193 239 279
#     4   9  19  32  52  73  99 132 160 211 266 312
#
# _framework density 18.596104
#
# number of rings (size 3 to 8) (size 9 to 14) (size 15 to 20)
#    0.000    2.526    3.158    2.368    2.211    1.895 
#    3.789    0.000    0.000    0.000    0.000    0.000 
#    6.316    0.000    0.000    0.000    0.000    0.000 
#
# Total GULP energy -423391.565675 kJ/mol
# GULP energy per Si atom -5570.941654 kJ/mol
# Density = 1.855378 g / cm^3
# Si number density = 18.596104 Si / 1000 Ang^3
#
#
#
# Elastic Constant Matrix: (Units=GPa)
#
#
# Indices 1 2 3 4 5 6 
#
# 1 55.8732 3.1996 20.5445 0.0000 0.0000 0.0000
# 2 3.1996 55.8732 20.5445 0.0000 0.0000 0.0000
# 3 20.5445 20.5445 154.3942 0.0000 0.0000 0.0000
# 4 0.0000 0.0000 0.0000 5.5644 0.0000 0.0000
# 5 0.0000 0.0000 0.0000 0.0000 5.5644 0.0000
# 6 0.0000 0.0000 0.0000 0.0000 0.0000 26.3368
#
#
#
# Elastic Compliance Matrix: (Units=1/GPa)
#
#
# Indices 1 2 3 4 5 6 
#
# 1 0.018820 -0.000165 -0.002482 0.000000 0.000000 0.000000
# 2 -0.000165 0.018820 -0.002482 0.000000 0.000000 0.000000
# 3 -0.002482 -0.002482 0.007138 0.000000 0.000000 0.000000
# 4 0.000000 0.000000 0.000000 0.179714 0.000000 0.000000
# 5 0.000000 0.000000 0.000000 0.000000 0.179714 0.000000
# 6 0.000000 0.000000 0.000000 0.000000 0.000000 0.037970
#
#
# Mechanical properties :
#
#
# Convention : Reuss Voigt Hill
#
# Bulk Modulus (GPa) = 28.97035 39.41307 34.19171
# Shear Modulus (GPa) = 10.77726 22.28328 16.53027
#
# Velocity S-wave (km/s) = 2.40998 3.46537 2.98469
# Velocity P-wave (km/s) = 4.83286 6.10344 5.50493
#
# Compressibility (1/GPa) = 0.03451805
#
# Stress axis : x y z
#
# Youngs Moduli (GPa) = 53.13541 53.13541 140.10420
#
# Poissons Ratio (x) = 0.00877 0.34778
# Poissons Ratio (y) = 0.00877 0.34778
# Poissons Ratio (z) = 0.13190 0.13190
#
# Static dielectric constant tensor:
#      x y z
#    x 1.662540 0.000000 0.000000 
#    y 0.000000 1.662540 0.000000 
#    z 0.000000 0.000000 1.665700 
# 
# From -- ./inp_files/2537.got.cif
#   From: 2010.05.17/outbox.cif.g08.bks.cpg/sg188_2_cif.got.tgz:2537.got - 2010.05.20 12:11:46.
