data_PCOD9586224
_publ_section_title
;
Structure prediction by ZEFSAII (Michael W. Deem and Ramdas Pophale) SiO2 
 PCOD9586224
Probable space group: P -6 2 M
;
_chemical_formula_sum "Si O2"
_cell_formula_units_Z 96
_cell_length_a 14.757056
_cell_length_b 14.757056
_cell_length_c 28.963171
_cell_angle_alpha 90.000000
_cell_angle_beta 90.000000
_cell_angle_gamma 120.000000
_cell_volume 5462.308075
_symmetry_space_group_name_H-M "P -6 2 M"
_symmetry_group_IT_number 189
_symmetry_cell_setting 'hexagonal'
loop_
_space_group_symop_operation_xyz
x,y,z
-x+y,-x,-z
-y,x-y,z
x,y,-z
-x+y,-x,z
-y,x-y,-z
x-y,-y,-z
-x,-x+y,-z
y,x,-z
y,x,z
x-y,-y,z
-x,-x+y,z
loop_
_atom_site_type_symbol
_atom_site_label
_atom_site_fract_x
_atom_site_fract_y
_atom_site_fract_z
Si Si1 0.877661 0.423148 0.760685
Si Si2 0.750815 0.874859 0.549539
Si Si3 0.125436 0.250960 0.348263
Si Si4 0.118540 0.339746 0.904092
Si Si5 0.126719 0.667696 0.949260
Si Si6 0.187895 0.770688 0.266984
Si Si7 0.122904 0.544749 0.135325
Si Si8 0.242872 0.121987 0.809465
O O1 0.865934 0.512110 0.734759
O O2 0.817524 0.311822 0.736297
O O3 0.834541 0.413299 0.813160
O O4 0.000000 0.458687 0.764157
O O5 0.692184 0.839427 0.500000
O O6 0.831262 0.831262 0.550046
O O7 0.699316 0.845915 0.600046
O O8 0.814891 0.000000 0.548676
O O9 0.172432 0.172432 0.346367
O O10 0.182974 0.339450 0.310027
O O11 0.000000 0.186465 0.340546
O O12 0.210431 0.378914 0.940836
O O13 0.126687 0.442237 0.879750
O O14 0.134849 0.276123 0.862977
O O15 0.000000 0.271927 0.922200
O O16 0.166379 0.627109 0.906365
O O17 0.000000 0.603819 0.948223
O O18 0.158676 0.649774 0.000000
O O19 0.153050 0.809293 0.221667
O O20 0.000000 0.508937 0.138817
O O21 0.160429 0.160429 0.801430
O O22 0.193713 0.000000 0.797598
#
# Coordination Sequence:
#
# PCOD9586224 Si02
#       8
#    12  12  12  12  12  12  12  12
#     4  11  22  38  55  74 101 134 175 222 264 316
#     4   8  13  22  39  66 103 146 186 219 255 309
#     4  10  19  31  49  78 115 151 183 218 266 327
#     4  10  20  36  57  79 105 136 172 207 247 309
#     4  10  21  37  56  79 106 133 165 208 260 313
#     4  12  23  36  54  76 102 139 183 228 280 322
#     4   9  19  36  55  73  96 128 163 207 253 298
#     4  11  21  35  55  83 116 148 178 211 255 318
#
# _framework density 17.574988000000001
#
# number of rings (size 3 to 8) (size 9 to 14) (size 15 to 20)
#    0.000    1.875    1.250    4.000    0.000    3.250 
#    0.750    2.500    0.000    0.250    0.000    0.875 
#    0.000    5.000    0.000    0.000    0.000    0.000 
#
# Total GULP energy -535501.469410 kJ/mol
# GULP energy per Si atom -5578.140306 kJ/mol
# Density = 1.753499 g / cm^3
# Si number density = 17.574988 Si / 1000 Ang^3
#
#
#
# Elastic Constant Matrix: (Units=GPa)
#
#
# Indices 1 2 3 4 5 6 
#
# 1 46.1407 -2.3312 15.6092 0.0000 0.0000 0.0000
# 2 -2.3312 46.1407 15.6092 0.0000 0.0000 0.0000
# 3 15.6092 15.6092 79.3187 0.0000 0.0000 0.0000
# 4 0.0000 0.0000 0.0000 9.5585 0.0000 0.0000
# 5 0.0000 0.0000 0.0000 0.0000 9.5585 0.0000
# 6 0.0000 0.0000 0.0000 0.0000 0.0000 24.2360
#
#
#
# Elastic Compliance Matrix: (Units=1/GPa)
#
#
# Indices 1 2 3 4 5 6 
#
# 1 0.023590 0.002959 -0.005225 0.000000 0.000000 0.000000
# 2 0.002959 0.023590 -0.005225 0.000000 0.000000 0.000000
# 3 -0.005225 -0.005225 0.014664 0.000000 0.000000 0.000000
# 4 0.000000 0.000000 0.000000 0.104619 0.000000 0.000000
# 5 0.000000 0.000000 0.000000 0.000000 0.104619 0.000000
# 6 0.000000 0.000000 0.000000 0.000000 0.000000 0.041261
#
#
# Mechanical properties :
#
#
# Convention : Reuss Voigt Hill
#
# Bulk Modulus (GPa) = 21.33857 25.48603 23.41230
# Shear Modulus (GPa) = 14.57966 18.18478 16.38222
#
# Velocity S-wave (km/s) = 2.88335 3.22016 3.05640
# Velocity P-wave (km/s) = 4.82211 5.32529 5.07993
#
# Compressibility (1/GPa) = 0.04686349
#
# Stress axis : x y z
#
# Youngs Moduli (GPa) = 42.39117 42.39117 68.19567
#
# Poissons Ratio (x) = -0.12545 0.35630
# Poissons Ratio (y) = -0.12545 0.35630
# Poissons Ratio (z) = 0.22148 0.22148
#
# Static dielectric constant tensor:
#      x y z
#    x 1.596210 0.000000 0.000000 
#    y 0.000000 1.596210 0.000000 
#    z 0.000000 0.000000 1.635930 
# 
# From -- ./inp_files/3737.got.cif
#   From: 2010.05.17/outbox.cif.g08.bks.cpg/sg189_2_cif.got.tgz:3737.got - 2010.05.20 12:14:34.
