data_PCOD9586806
_publ_section_title
;
Structure prediction by ZEFSAII (Michael W. Deem and Ramdas Pophale) SiO2 
 PCOD9586806
Probable space group: P -6 2 C
;
_chemical_formula_sum "Si O2"
_cell_formula_units_Z 58
_cell_length_a 14.482077
_cell_length_b 14.482077
_cell_length_c 15.004352
_cell_angle_alpha 90.000000
_cell_angle_beta 90.000000
_cell_angle_gamma 120.000000
_cell_volume 2725.270281
_symmetry_space_group_name_H-M "P -6 2 C"
_symmetry_group_IT_number 190
_symmetry_cell_setting 'hexagonal'
loop_
_space_group_symop_operation_xyz
x,y,z
-x+y,-x,1/2-z
-y,x-y,z
x,y,1/2-z
-x+y,-x,z
-y,x-y,1/2-z
x-y,-y,-z
-x,-x+y,-z
y,x,-z
y,x,1/2+z
x-y,-y,1/2+z
-x,-x+y,1/2+z
loop_
_atom_site_type_symbol
_atom_site_label
_atom_site_fract_x
_atom_site_fract_y
_atom_site_fract_z
Si Si1 0.806170 0.375543 0.750000
Si Si2 0.468588 0.001924 0.890650
Si Si3 0.882206 0.767814 0.644771
Si Si4 0.324538 0.093294 0.146404
Si Si5 0.000000 0.000000 0.858518
Si Si6 0.968420 0.653537 0.100364
O O1 0.700605 0.255491 0.750000
O O2 0.883904 0.399928 0.836771
O O3 0.348513 0.923903 0.859759
O O4 0.547231 0.959171 0.860294
O O5 0.461006 0.000000 0.000000
O O6 0.871468 0.774420 0.750000
O O7 0.771532 0.752663 0.608486
O O8 0.972562 0.883967 0.611617
O O9 0.929763 0.691104 0.634534
O O10 0.301782 0.104000 0.250000
O O11 0.339003 0.200720 0.104159
O O12 0.000000 0.000000 0.750000
O O13 0.000000 0.652884 0.000000
#
# Coordination Sequence:
#
# PCOD9586806 Si02
#       6
#     6  12  12  12   4  12
#     4  10  26  48  82 110 144 208 284 326 400 480
#     4  11  27  46  70 106 148 192 259 332 394 466
#     4  10  20  35  63  94 132 169 220 272 345 431
#     4  11  24  42  70 102 135 187 235 295 374 466
#     4   9  15  33  52  89 127 162 199 251 328 414
#     4  11  26  42  64 100 138 185 232 298 374 451
#
# _framework density 21.282294
#
# number of rings (size 3 to 8) (size 9 to 14) (size 15 to 20)
#    0.207    1.241    3.103    0.621    8.690    1.655 
#    1.241    0.000    0.000    0.000    0.000    0.000 
#    0.000    0.000    0.000    0.000    0.000    0.000 
#
# Total GULP energy -323118.229222 kJ/mol
# GULP energy per Si atom -5571.003952 kJ/mol
# Density = 2.123386 g / cm^3
# Si number density = 21.282294 Si / 1000 Ang^3
#
#
#
# Elastic Constant Matrix: (Units=GPa)
#
#
# Indices 1 2 3 4 5 6 
#
# 1 101.2367 38.1423 10.9336 0.0000 0.0000 0.0000
# 2 38.1423 101.2367 10.9336 0.0000 0.0000 0.0000
# 3 10.9336 10.9336 81.3310 0.0000 0.0000 0.0000
# 4 0.0000 0.0000 0.0000 -0.3186 0.0000 0.0000
# 5 0.0000 0.0000 0.0000 0.0000 -0.3186 0.0000
# 6 0.0000 0.0000 0.0000 0.0000 0.0000 31.5472
#
#
#
# Elastic Compliance Matrix: (Units=1/GPa)
#
#
# Indices 1 2 3 4 5 6 
#
# 1 0.011589 -0.004260 -0.000985 0.000000 0.000000 0.000000
# 2 -0.004260 0.011589 -0.000985 0.000000 0.000000 0.000000
# 3 -0.000985 -0.000985 0.012560 0.000000 0.000000 0.000000
# 4 0.000000 0.000000 0.000000 -3.138879 0.000000 0.000000
# 5 0.000000 0.000000 0.000000 0.000000 -3.138880 0.000000
# 6 0.000000 0.000000 0.000000 0.000000 0.000000 0.031699
#
#
# Mechanical properties :
#
#
# Convention : Reuss Voigt Hill
#
# Bulk Modulus (GPa) = 42.95962 44.86929 43.91445
# Shear Modulus (GPa) = -0.80774 21.10165 10.14695
#
# Velocity S-wave (km/s) = -0.61673 3.15224 2.18590
# Velocity P-wave (km/s) = 4.44098 5.86324 5.20095
#
# Compressibility (1/GPa) = 0.02327768
#
# Stress axis : x y z
#
# Youngs Moduli (GPa) = 86.28668 86.28668 79.61562
#
# Poissons Ratio (x) = 0.36758 0.07845
# Poissons Ratio (y) = 0.36758 0.07845
# Poissons Ratio (z) = 0.08502 0.08502
#
# Static dielectric constant tensor:
#      x y z
#    x 1.842650 0.000000 0.000000 
#    y 0.000000 1.842650 0.000000 
#    z 0.000000 0.000000 1.798740 
# 
# From -- ./inp_files/2854.got.cif
#   From: 2010.05.17/outbox.cif.g08.bks.cpg/sg190_2_cif.got.tgz:2854.got - 2010.05.20 12:16:56.
