data_PCOD9586866
_publ_section_title
;
Structure prediction by ZEFSAII (Michael W. Deem and Ramdas Pophale) SiO2 
 PCOD9586866
Probable space group: P -6 2 C
;
_chemical_formula_sum "Si O2"
_cell_formula_units_Z 78
_cell_length_a 24.805213
_cell_length_b 24.805213
_cell_length_c 7.454905
_cell_angle_alpha 90.000000
_cell_angle_beta 90.000000
_cell_angle_gamma 120.000000
_cell_volume 3972.452075
_symmetry_space_group_name_H-M "P -6 2 C"
_symmetry_group_IT_number 190
_symmetry_cell_setting 'hexagonal'
loop_
_space_group_symop_operation_xyz
x,y,z
-x+y,-x,1/2-z
-y,x-y,z
x,y,1/2-z
-x+y,-x,z
-y,x-y,1/2-z
x-y,-y,-z
-x,-x+y,-z
y,x,-z
y,x,1/2+z
x-y,-y,1/2+z
-x,-x+y,1/2+z
loop_
_atom_site_type_symbol
_atom_site_label
_atom_site_fract_x
_atom_site_fract_y
_atom_site_fract_z
Si Si1 0.405116 0.144784 0.467698
Si Si2 0.806790 0.735018 0.464416
Si Si3 0.256331 0.606375 0.250000
Si Si4 0.847652 0.378373 0.467293
Si Si5 0.810463 0.071136 0.035964
Si Si6 0.926912 0.520075 0.036155
Si Si7 0.266173 0.401800 0.530825
O O1 0.403943 0.144101 0.250000
O O2 0.335465 0.095739 0.530172
O O3 0.460245 0.132433 0.519664
O O4 0.418854 0.213587 0.522340
O O5 0.808278 0.730582 0.250000
O O6 0.781622 0.781622 0.500000
O O7 0.875850 0.753981 0.530928
O O8 0.283231 0.680648 0.250000
O O9 0.215256 0.574876 0.425190
O O10 0.839166 0.375760 0.250000
O O11 0.897117 0.448726 0.522908
O O12 0.811598 0.077080 0.250000
O O13 0.760169 0.090411 0.972611
O O14 0.788545 0.000000 0.000000
O O15 0.919429 0.517139 0.250000
O O16 0.889454 0.553400 0.966256
O O17 0.000000 0.560878 0.000000
O O18 0.267497 0.402752 0.750000
#
# Coordination Sequence:
#
# PCOD9586866 Si02
#       7
#    12  12   6  12  12  12  12
#     4   8  16  33  56  78 102 141 184 224 271 333
#     4   9  18  33  52  78 109 141 181 226 269 323
#     4  10  26  42  58  90 118 142 198 254 296 346
#     4  10  22  40  61  82 114 157 194 234 298 354
#     4   9  17  30  50  74 105 137 168 213 266 318
#     4  10  21  34  53  80 106 145 185 222 278 340
#     4   8  15  29  51  76 103 132 173 219 266 325
#
# _framework density 19.635227
#
# number of rings (size 3 to 8) (size 9 to 14) (size 15 to 20)
#    0.154    2.769    0.000    2.308    3.231    1.846 
#    1.385    0.000    1.692    0.308    0.000    0.000 
#    0.000    0.000    0.000    0.000    0.000    0.000 
#
# Total GULP energy -434920.810366 kJ/mol
# GULP energy per Si atom -5575.907825 kJ/mol
# Density = 1.959054 g / cm^3
# Si number density = 19.635227 Si / 1000 Ang^3
#
#
#
# Elastic Constant Matrix: (Units=GPa)
#
#
# Indices 1 2 3 4 5 6 
#
# 1 146.6624 100.9638 6.4658 0.0000 0.0000 0.0000
# 2 100.9638 146.6624 6.4658 0.0000 0.0000 0.0000
# 3 6.4658 6.4658 61.0547 0.0000 0.0000 0.0000
# 4 0.0000 0.0000 0.0000 2.0204 0.0000 0.0000
# 5 0.0000 0.0000 0.0000 0.0000 2.0204 0.0000
# 6 0.0000 0.0000 0.0000 0.0000 0.0000 22.8493
#
#
#
# Elastic Compliance Matrix: (Units=1/GPa)
#
#
# Indices 1 2 3 4 5 6 
#
# 1 0.012972 -0.008911 -0.000430 0.000000 0.000000 0.000000
# 2 -0.008911 0.012972 -0.000430 0.000000 0.000000 0.000000
# 3 -0.000430 -0.000430 0.016470 0.000000 0.000000 0.000000
# 4 0.000000 0.000000 0.000000 0.494949 0.000000 0.000000
# 5 0.000000 0.000000 0.000000 0.000000 0.494950 0.000000
# 6 0.000000 0.000000 0.000000 0.000000 0.000000 0.043765
#
#
# Mechanical properties :
#
#
# Convention : Reuss Voigt Hill
#
# Bulk Modulus (GPa) = 43.72303 64.68563 54.20433
# Shear Modulus (GPa) = 4.53209 21.41030 12.97120
#
# Velocity S-wave (km/s) = 1.52091 3.30571 2.57302
# Velocity P-wave (km/s) = 5.03986 6.89822 6.04093
#
# Compressibility (1/GPa) = 0.02287124
#
# Stress axis : x y z
#
# Youngs Moduli (GPa) = 77.09117 77.09117 60.71707
#
# Poissons Ratio (x) = 0.68695 0.02611
# Poissons Ratio (y) = 0.68695 0.02611
# Poissons Ratio (z) = 0.03315 0.03315
#
# Static dielectric constant tensor:
#      x y z
#    x 1.688480 0.000000 0.000000 
#    y 0.000000 1.688480 0.000000 
#    z 0.000000 0.000000 1.769420 
# 
# From -- ./inp_files/1351.got.cif
#   From: 2010.05.17/outbox.cif.g08.bks.cpg/sg190_1_cif.got.tgz:1351.got - 2010.05.20 12:16:56.
