data_PCOD9586211
_publ_section_title
;
Structure prediction by ZEFSAII (Michael W. Deem and Ramdas Pophale) SiO2 
 PCOD9586211
Probable space group: P -6 2 M
;
_chemical_formula_sum "Si O2"
_cell_formula_units_Z 72
_cell_length_a 24.524356
_cell_length_b 24.524356
_cell_length_c 8.338637
_cell_angle_alpha 90.000000
_cell_angle_beta 90.000000
_cell_angle_gamma 120.000000
_cell_volume 4343.310959
_symmetry_space_group_name_H-M "P -6 2 M"
_symmetry_group_IT_number 189
_symmetry_cell_setting 'hexagonal'
loop_
_space_group_symop_operation_xyz
x,y,z
-x+y,-x,-z
-y,x-y,z
x,y,-z
-x+y,-x,z
-y,x-y,-z
x-y,-y,-z
-x,-x+y,-z
y,x,-z
y,x,z
x-y,-y,z
-x,-x+y,z
loop_
_atom_site_type_symbol
_atom_site_label
_atom_site_fract_x
_atom_site_fract_y
_atom_site_fract_z
Si Si1 0.143540 0.070958 0.804417
Si Si2 0.522239 0.928989 0.304583
Si Si3 0.261656 0.407972 0.308647
Si Si4 0.530143 0.270387 0.813897
Si Si5 0.601922 0.409705 0.311081
Si Si6 0.194368 0.267213 0.806281
O O1 0.096284 0.096284 0.757825
O O2 0.213382 0.124470 0.754958
O O3 0.118086 0.000000 0.748320
O O4 0.143697 0.070148 0.000000
O O5 0.521537 0.929679 0.500000
O O6 0.568516 0.902490 0.258317
O O7 0.452158 0.876712 0.253602
O O8 0.548889 0.000000 0.247815
O O9 0.261439 0.414524 0.500000
O O10 0.244969 0.457665 0.231350
O O11 0.217694 0.336046 0.260512
O O12 0.571607 0.334779 0.715369
O O13 0.553090 0.221303 0.776149
O O14 0.539962 0.287673 0.000000
O O15 0.612168 0.423127 0.500000
O O16 0.241343 0.241343 0.758468
O O17 0.194929 0.269895 0.000000
#
# Coordination Sequence:
#
# PCOD9586211 Si02
#       6
#    12  12  12  12  12  12
#     4   8  13  22  39  64  93 124 157 193 235 284
#     4   8  15  28  47  70  92 115 145 182 223 268
#     4  10  19  31  48  69  93 123 158 193 231 280
#     4  11  21  33  49  70  97 126 157 193 234 275
#     4  10  19  32  50  72  98 125 155 189 227 276
#     4   9  17  28  43  67  97 124 152 192 240 284
#
# _framework density 16.577214000000001
#
# number of rings (size 3 to 8) (size 9 to 14) (size 15 to 20)
#    0.000    2.667    0.000    5.500    0.000    1.667 
#    0.000    0.000    0.000   11.500    0.000    0.000 
#    0.000    1.333    0.000    0.000    0.000    0.000 
#
# Total GULP energy -401430.000633 kJ/mol
# GULP energy per Si atom -5575.416675 kJ/mol
# Density = 1.653948 g / cm^3
# Si number density = 16.577214 Si / 1000 Ang^3
#
#
#
# Elastic Constant Matrix: (Units=GPa)
#
#
# Indices 1 2 3 4 5 6 
#
# 1 110.8198 63.5807 0.0605 0.0000 0.0000 0.0000
# 2 63.5807 110.8198 0.0605 0.0000 0.0000 0.0000
# 3 0.0605 0.0605 14.5636 0.0000 0.0000 0.0000
# 4 0.0000 0.0000 0.0000 12.8199 0.0000 0.0000
# 5 0.0000 0.0000 0.0000 0.0000 12.8199 0.0000
# 6 0.0000 0.0000 0.0000 0.0000 0.0000 23.6196
#
#
#
# Elastic Compliance Matrix: (Units=1/GPa)
#
#
# Indices 1 2 3 4 5 6 
#
# 1 0.013451 -0.007717 -0.000024 0.000000 0.000000 0.000000
# 2 -0.007717 0.013451 -0.000024 0.000000 0.000000 0.000000
# 3 -0.000024 -0.000024 0.068665 0.000000 0.000000 0.000000
# 4 0.000000 0.000000 0.000000 0.078004 0.000000 0.000000
# 5 0.000000 0.000000 0.000000 0.000000 0.078004 0.000000
# 6 0.000000 0.000000 0.000000 0.000000 0.000000 0.042338
#
#
# Mechanical properties :
#
#
# Convention : Reuss Voigt Hill
#
# Bulk Modulus (GPa) = 12.49418 40.40074 26.44746
# Shear Modulus (GPa) = 14.87555 21.35198 18.11377
#
# Velocity S-wave (km/s) = 2.99883 3.59281 3.30917
# Velocity P-wave (km/s) = 4.42085 6.45253 5.53078
#
# Compressibility (1/GPa) = 0.08003729
#
# Stress axis : x y z
#
# Youngs Moduli (GPa) = 74.34165 74.34165 14.56352
#
# Poissons Ratio (x) = 0.57373 0.00035
# Poissons Ratio (y) = 0.57373 0.00035
# Poissons Ratio (z) = 0.00177 0.00177
#
# Static dielectric constant tensor:
#      x y z
#    x 1.547520 0.000000 0.000000 
#    y 0.000000 1.547520 0.000000 
#    z 0.000000 0.000000 1.568110 
# 
# From -- ./inp_files/1231.got.cif
#   From: 2010.05.17/outbox.cif.g08.bks.cpg/sg189_1_cif.got.tgz:1231.got - 2010.05.20 12:14:34.
