data_PCOD9586506
_publ_section_title
;
Structure prediction by ZEFSAII (Michael W. Deem and Ramdas Pophale) SiO2 
 PCOD9586506
Probable space group: P -6 2 M
;
_chemical_formula_sum "Si O2"
_cell_formula_units_Z 72
_cell_length_a 15.548806
_cell_length_b 15.548806
_cell_length_c 15.673729
_cell_angle_alpha 90.000000
_cell_angle_beta 90.000000
_cell_angle_gamma 120.000000
_cell_volume 3281.686233
_symmetry_space_group_name_H-M "P -6 2 M"
_symmetry_group_IT_number 189
_symmetry_cell_setting 'hexagonal'
loop_
_space_group_symop_operation_xyz
x,y,z
-x+y,-x,-z
-y,x-y,z
x,y,-z
-x+y,-x,z
-y,x-y,-z
x-y,-y,-z
-x,-x+y,-z
y,x,-z
y,x,z
x-y,-y,z
-x,-x+y,z
loop_
_atom_site_type_symbol
_atom_site_label
_atom_site_fract_x
_atom_site_fract_y
_atom_site_fract_z
Si Si1 0.539055 0.832386 0.145524
Si Si2 0.768138 0.880450 0.710163
Si Si3 0.416088 0.883965 0.401429
Si Si4 0.197551 0.746546 0.661696
Si Si5 0.889900 0.744511 0.093860
Si Si6 0.889377 0.377716 0.900782
O O1 0.540755 0.844804 0.246514
O O2 0.644063 0.894312 0.100339
O O3 0.516575 0.719986 0.135813
O O4 0.462671 0.860786 0.107332
O O5 0.832882 0.832882 0.678756
O O6 0.666489 0.841505 0.657438
O O7 0.744147 0.849295 0.811230
O O8 0.828978 0.000000 0.708292
O O9 0.384021 0.878516 0.500000
O O10 0.494987 0.845131 0.397594
O O11 0.317172 0.811094 0.347879
O O12 0.469646 0.000000 0.374377
O O13 0.000000 0.838571 0.093089
O O14 0.845677 0.742011 0.000000
O O15 0.000000 0.416840 0.863835
O O16 0.893858 0.356972 0.000000
#
# Coordination Sequence:
#
# PCOD9586506 Si02
#       6
#    12  12  12  12  12  12
#     4  11  22  35  54  78 111 153 194 244 300 356
#     4  10  21  37  59  87 121 163 208 254 301 349
#     4  11  24  43  68  95 123 155 190 233 289 358
#     4  11  23  40  62  91 125 156 192 240 296 358
#     4   9  18  33  52  75 107 152 206 259 306 347
#     4  11  23  37  54  78 111 155 207 258 303 349
#
# _framework density 21.939941000000001
#
# number of rings (size 3 to 8) (size 9 to 14) (size 15 to 20)
#    0.000    1.500    0.000    5.333    0.000    8.333 
#    0.000    0.000    0.000    1.000    0.000    0.000 
#    0.000    8.000    0.000    0.000    0.000    0.000 
#
# Total GULP energy -401561.319037 kJ/mol
# GULP energy per Si atom -5577.240542 kJ/mol
# Density = 2.189000 g / cm^3
# Si number density = 21.939941 Si / 1000 Ang^3
#
#
#
# Elastic Constant Matrix: (Units=GPa)
#
#
# Indices 1 2 3 4 5 6 
#
# 1 82.6472 62.4043 -0.6821 0.0000 0.0000 0.0000
# 2 62.4043 82.6472 -0.6821 0.0000 0.0000 0.0000
# 3 -0.6821 -0.6821 51.0087 0.0000 0.0000 0.0000
# 4 0.0000 0.0000 0.0000 31.7198 0.0000 0.0000
# 5 0.0000 0.0000 0.0000 0.0000 31.7198 0.0000
# 6 0.0000 0.0000 0.0000 0.0000 0.0000 10.1215
#
#
#
# Elastic Compliance Matrix: (Units=1/GPa)
#
#
# Indices 1 2 3 4 5 6 
#
# 1 0.028147 -0.021253 0.000092 0.000000 0.000000 0.000000
# 2 -0.021253 0.028147 0.000092 0.000000 0.000000 0.000000
# 3 0.000092 0.000092 0.019607 0.000000 0.000000 0.000000
# 4 0.000000 0.000000 0.000000 0.031526 0.000000 0.000000
# 5 0.000000 0.000000 0.000000 0.000000 0.031526 0.000000
# 6 0.000000 0.000000 0.000000 0.000000 0.000000 0.098800
#
#
# Mechanical properties :
#
#
# Convention : Reuss Voigt Hill
#
# Bulk Modulus (GPa) = 29.61583 37.59814 33.60698
# Shear Modulus (GPa) = 17.17354 25.06308 21.11831
#
# Velocity S-wave (km/s) = 2.80081 3.38353 3.10587
# Velocity P-wave (km/s) = 4.89768 5.69548 5.31158
#
# Compressibility (1/GPa) = 0.03376573
#
# Stress axis : x y z
#
# Youngs Moduli (GPa) = 35.52715 35.52715 51.00225
#
# Poissons Ratio (x) = 0.75504 -0.00470
# Poissons Ratio (y) = 0.75504 -0.00470
# Poissons Ratio (z) = -0.00328 -0.00328
#
# Static dielectric constant tensor:
#      x y z
#    x 1.806400 0.000000 0.000000 
#    y 0.000000 1.806400 0.000000 
#    z 0.000000 0.000000 1.797720 
# 
# From -- ./inp_files/3125.got.cif
#   From: 2010.05.17/outbox.cif.g08.bks.cpg/sg189_2_cif.got.tgz:3125.got - 2010.05.20 12:14:34.
