data_PCOD9586564
_publ_section_title
;
Structure prediction by ZEFSAII (Michael W. Deem and Ramdas Pophale) SiO2 
 PCOD9586564
Probable space group: P -6 2 M
;
_chemical_formula_sum "Si O2"
_cell_formula_units_Z 72
_cell_length_a 16.014478
_cell_length_b 16.014478
_cell_length_c 18.531946
_cell_angle_alpha 90.000000
_cell_angle_beta 90.000000
_cell_angle_gamma 120.000000
_cell_volume 4116.017685
_symmetry_space_group_name_H-M "P -6 2 M"
_symmetry_group_IT_number 189
_symmetry_cell_setting 'hexagonal'
loop_
_space_group_symop_operation_xyz
x,y,z
-x+y,-x,-z
-y,x-y,z
x,y,-z
-x+y,-x,z
-y,x-y,-z
x-y,-y,-z
-x,-x+y,-z
y,x,-z
y,x,z
x-y,-y,z
-x,-x+y,z
loop_
_atom_site_type_symbol
_atom_site_label
_atom_site_fract_x
_atom_site_fract_y
_atom_site_fract_z
Si Si1 0.595330 0.706558 0.917105
Si Si2 0.224147 0.775853 0.586810
Si Si3 0.558779 0.441221 0.351712
Si Si4 0.883489 0.441744 0.816970
Si Si5 0.888122 0.776245 0.587855
Si Si6 0.888772 0.595330 0.082895
O O1 0.670006 0.670006 0.903098
O O2 0.507996 0.654357 0.861532
O O3 0.640057 0.820028 0.911154
O O4 0.560253 0.678451 0.000000
O O5 0.225746 0.774254 0.500000
O O6 0.166100 0.665610 0.614309
O O7 0.334390 0.833900 0.614309
O O8 0.167904 0.832096 0.609973
O O9 0.500000 0.500000 0.360538
O O10 0.571186 0.428814 0.266573
O O11 0.853640 0.507996 0.861532
O O12 0.000000 0.500000 0.819888
O O13 0.888507 0.777014 0.500000
O O14 0.831979 0.831979 0.611029
O O15 0.000000 0.831979 0.611029
O O16 0.000000 0.670006 0.096902
O O17 0.881803 0.560253 0.000000
#
# Coordination Sequence:
#
# PCOD9586564 Si02
#       6
#    12  12  12  12  12  12
#     4   9  17  31  53  80 111 146 181 217 259 312
#     4  11  23  38  57  79 103 141 185 224 272 329
#     4  11  24  40  58  80 109 145 184 230 276 325
#     4   9  19  34  52  75 105 139 177 218 266 312
#     4   9  17  31  54  83 109 130 159 208 270 329
#     4   9  17  31  53  80 111 146 181 217 259 312
#
# _framework density 17.492636000000001
#
# number of rings (size 3 to 8) (size 9 to 14) (size 15 to 20)
#    0.000    2.333    0.000    2.500    2.333    5.333 
#    1.000    0.000    0.000    0.333    0.000    2.333 
#    0.000    0.000    0.000    0.000    0.000    0.000 
#
# Total GULP energy -401326.146647 kJ/mol
# GULP energy per Si atom -5573.974259 kJ/mol
# Density = 1.745282 g / cm^3
# Si number density = 17.492636 Si / 1000 Ang^3
#
#
#
# Elastic Constant Matrix: (Units=GPa)
#
#
# Indices 1 2 3 4 5 6 
#
# 1 145.6267 87.7544 52.3567 0.0000 0.0000 0.0000
# 2 87.7544 145.6267 52.3567 0.0000 0.0000 0.0000
# 3 52.3567 52.3567 80.6040 0.0000 0.0000 0.0000
# 4 0.0000 0.0000 0.0000 3.2165 0.0000 0.0000
# 5 0.0000 0.0000 0.0000 0.0000 3.2165 0.0000
# 6 0.0000 0.0000 0.0000 0.0000 0.0000 28.9362
#
#
#
# Elastic Compliance Matrix: (Units=1/GPa)
#
#
# Indices 1 2 3 4 5 6 
#
# 1 0.011663 -0.005616 -0.003928 0.000000 0.000000 0.000000
# 2 -0.005616 0.011663 -0.003928 0.000000 0.000000 0.000000
# 3 -0.003928 -0.003928 0.017509 0.000000 0.000000 0.000000
# 4 0.000000 0.000000 0.000000 0.310894 0.000000 0.000000
# 5 0.000000 0.000000 0.000000 0.000000 0.310894 0.000000
# 6 0.000000 0.000000 0.000000 0.000000 0.000000 0.034559
#
#
# Mechanical properties :
#
#
# Convention : Reuss Voigt Hill
#
# Bulk Modulus (GPa) = 71.98552 84.08810 78.03681
# Shear Modulus (GPa) = 6.86099 19.03315 12.94707
#
# Velocity S-wave (km/s) = 1.98261 3.30216 2.72351
# Velocity P-wave (km/s) = 6.81779 7.91922 7.38905
#
# Compressibility (1/GPa) = 0.01389168
#
# Stress axis : x y z
#
# Youngs Moduli (GPa) = 85.73871 85.73871 57.11264
#
# Poissons Ratio (x) = 0.48152 0.22434
# Poissons Ratio (y) = 0.48152 0.22434
# Poissons Ratio (z) = 0.33678 0.33678
#
# Static dielectric constant tensor:
#      x y z
#    x 1.585370 0.000000 0.000000 
#    y 0.000000 1.585370 0.000000 
#    z 0.000000 0.000000 1.598380 
# 
# From -- ./inp_files/3099.got.cif
#   From: 2010.05.17/outbox.cif.g08.bks.cpg/sg189_2_cif.got.tgz:3099.got - 2010.05.20 12:14:34.
