data_PCOD9586390
_publ_section_title
;
Structure prediction by ZEFSAII (Michael W. Deem and Ramdas Pophale) SiO2 
 PCOD9586390
Probable space group: P -6 2 M
;
_chemical_formula_sum "Si O2"
_cell_formula_units_Z 52
_cell_length_a 13.465948
_cell_length_b 13.465948
_cell_length_c 17.532413
_cell_angle_alpha 90.000000
_cell_angle_beta 90.000000
_cell_angle_gamma 120.000000
_cell_volume 2753.253439
_symmetry_space_group_name_H-M "P -6 2 M"
_symmetry_group_IT_number 189
_symmetry_cell_setting 'hexagonal'
loop_
_space_group_symop_operation_xyz
x,y,z
-x+y,-x,-z
-y,x-y,z
x,y,-z
-x+y,-x,z
-y,x-y,-z
x-y,-y,-z
-x,-x+y,-z
y,x,-z
y,x,z
x-y,-y,z
-x,-x+y,z
loop_
_atom_site_type_symbol
_atom_site_label
_atom_site_fract_x
_atom_site_fract_y
_atom_site_fract_z
Si Si1 0.132239 0.428731 0.648491
Si Si2 0.866002 0.133596 0.779838
Si Si3 0.130285 0.709595 0.090273
Si Si4 0.132741 0.633002 0.584785
Si Si5 0.333334 0.666668 0.092776
O O1 0.144169 0.367870 0.724021
O O2 0.154784 0.558868 0.647992
O O3 0.232427 0.439867 0.594861
O O4 0.000000 0.352054 0.622132
O O5 0.815283 0.142297 0.860901
O O6 0.000000 0.173659 0.783765
O O7 0.791216 0.000000 0.754714
O O8 0.223862 0.676414 0.116440
O O9 0.000000 0.606960 0.101552
O O10 0.145845 0.735649 0.000000
O O11 0.153114 0.599864 0.500000
O O12 0.000000 0.593370 0.590293
O O13 0.333334 0.666668 0.000000
#
# Coordination Sequence:
#
# PCOD9586390 Si02
#       5
#    12  12  12  12   4
#     4  10  21  36  55  80 109 143 181 221 271 329
#     4  10  21  37  57  81 112 151 194 240 288 339
#     4   9  19  35  54  80 113 148 192 244 292 340
#     4  10  20  34  54  80 108 138 174 218 268 324
#     4   9  18  33  54  78 105 141 181 227 289 348
#
# _framework density 18.886747
#
# number of rings (size 3 to 8) (size 9 to 14) (size 15 to 20)
#    0.000    2.308    0.000    2.077    0.000    4.615 
#    0.000    6.923    0.000    1.846    0.000    0.000 
#    0.000    0.000    0.000    0.000    0.000    0.000 
#
# Total GULP energy -289688.137268 kJ/mol
# GULP energy per Si atom -5570.925717 kJ/mol
# Density = 1.884376 g / cm^3
# Si number density = 18.886747 Si / 1000 Ang^3
#
#
#
# Elastic Constant Matrix: (Units=GPa)
#
#
# Indices 1 2 3 4 5 6 
#
# 1 101.4459 50.3549 47.6734 0.0001 0.0001 -0.0002
# 2 50.3549 101.4449 47.6735 0.0000 0.0000 0.0000
# 3 47.6734 47.6735 45.1127 0.0000 0.0000 0.0000
# 4 0.0001 0.0000 0.0000 25.8605 0.0000 0.0000
# 5 0.0001 0.0000 0.0000 0.0000 25.8604 0.0000
# 6 -0.0002 0.0000 0.0000 0.0000 0.0000 25.5455
#
#
#
# Elastic Compliance Matrix: (Units=1/GPa)
#
#
# Indices 1 2 3 4 5 6 
#
# 1 0.019582 0.000009 -0.020704 0.000000 0.000000 0.000000
# 2 0.000009 0.019583 -0.020704 0.000000 0.000000 0.000000
# 3 -0.020704 -0.020704 0.065925 0.000000 0.000000 0.000000
# 4 0.000000 0.000000 0.000000 0.038669 0.000000 0.000000
# 5 0.000000 0.000000 0.000000 0.000000 0.038669 0.000000
# 6 0.000000 0.000000 0.000000 0.000000 0.000000 0.039146
#
#
# Mechanical properties :
#
#
# Convention : Reuss Voigt Hill
#
# Bulk Modulus (GPa) = 44.85724 59.93412 52.39568
# Shear Modulus (GPa) = 16.03578 22.27340 19.15459
#
# Velocity S-wave (km/s) = 2.91701 3.43784 3.18808
# Velocity P-wave (km/s) = 5.92853 6.89642 6.43071
#
# Compressibility (1/GPa) = 0.02229295
#
# Stress axis : x y z
#
# Youngs Moduli (GPa) = 51.06654 51.06523 15.16869
#
# Poissons Ratio (x) = -0.00048 0.31405
# Poissons Ratio (y) = -0.00048 0.31406
# Poissons Ratio (z) = 1.05727 1.05727
#
# Static dielectric constant tensor:
#      x y z
#    x 1.658330 0.000000 0.000000 
#    y 0.000000 1.658330 0.000000 
#    z 0.000000 0.000000 1.656310 
# 
# From -- ./inp_files/3348.got.cif
#   From: 2010.05.17/outbox.cif.g08.bks.cpg/sg189_2_cif.got.tgz:3348.got - 2010.05.20 12:14:34.
