data_PCOD9586634
_publ_section_title
;
Structure prediction by ZEFSAII (Michael W. Deem and Ramdas Pophale) SiO2 
 PCOD9586634
Probable space group: P -6 2 C
;
_chemical_formula_sum "Si O2"
_cell_formula_units_Z 60
_cell_length_a 13.610587
_cell_length_b 13.610587
_cell_length_c 16.220843
_cell_angle_alpha 90.000000
_cell_angle_beta 90.000000
_cell_angle_gamma 120.000000
_cell_volume 2602.302413
_symmetry_space_group_name_H-M "P -6 2 C"
_symmetry_group_IT_number 190
_symmetry_cell_setting 'hexagonal'
loop_
_space_group_symop_operation_xyz
x,y,z
-x+y,-x,1/2-z
-y,x-y,z
x,y,1/2-z
-x+y,-x,z
-y,x-y,1/2-z
x-y,-y,-z
-x,-x+y,-z
y,x,-z
y,x,1/2+z
x-y,-y,1/2+z
-x,-x+y,1/2+z
loop_
_atom_site_type_symbol
_atom_site_label
_atom_site_fract_x
_atom_site_fract_y
_atom_site_fract_z
Si Si1 0.709780 0.703799 0.154869
Si Si2 0.628386 0.999474 0.151762
Si Si3 0.511347 0.109158 0.939871
Si Si4 0.913383 0.770426 0.562248
Si Si5 0.773693 0.217952 0.440561
O O1 0.729652 0.725780 0.250000
O O2 0.581832 0.669446 0.129646
O O3 0.788016 0.817921 0.104271
O O4 0.729472 0.601941 0.127849
O O5 0.614568 0.003176 0.250000
O O6 0.664174 0.120333 0.106898
O O7 0.512836 0.905628 0.106646
O O8 0.728679 0.972419 0.130115
O O9 0.531514 0.211989 0.999909
O O10 0.447059 0.000000 0.000000
O O11 0.850384 0.661379 0.502190
O O12 0.000000 0.863419 0.500000
#
# Coordination Sequence:
#
# PCOD9586634 Si02
#       5
#    12  12  12  12  12
#     4  10  18  32  54  82 113 153 197 246 302 361
#     4  11  20  33  57  90 117 151 207 268 308 356
#     4   9  18  33  54  80 115 159 202 246 310 380
#     4   9  18  32  52  78 110 150 197 246 304 373
#     4   9  19  34  55  80 113 155 199 244 304 376
#
# _framework density 23.056505000000001
#
# number of rings (size 3 to 8) (size 9 to 14) (size 15 to 20)
#    0.000    2.400    0.000    5.400    0.000    0.000 
#    0.000    0.000    0.000   72.000    0.000   56.000 
#    0.000    0.000    0.000    0.000    0.000    0.000 
#
# Total GULP energy -334691.678240 kJ/mol
# GULP energy per Si atom -5578.194637 kJ/mol
# Density = 2.300403 g / cm^3
# Si number density = 23.056505 Si / 1000 Ang^3
#
#
#
# Elastic Constant Matrix: (Units=GPa)
#
#
# Indices 1 2 3 4 5 6 
#
# 1 87.8925 33.8482 43.0994 0.0000 0.0000 0.0000
# 2 33.8482 87.8925 43.0994 0.0000 0.0000 0.0000
# 3 43.0994 43.0994 165.3539 0.0000 0.0000 0.0000
# 4 0.0000 0.0000 0.0000 27.4537 0.0000 0.0000
# 5 0.0000 0.0000 0.0000 0.0000 27.4537 0.0000
# 6 0.0000 0.0000 0.0000 0.0000 0.0000 27.0221
#
#
#
# Elastic Compliance Matrix: (Units=1/GPa)
#
#
# Indices 1 2 3 4 5 6 
#
# 1 0.014288 -0.004215 -0.002626 0.000000 0.000000 0.000000
# 2 -0.004215 0.014288 -0.002626 0.000000 0.000000 0.000000
# 3 -0.002626 -0.002626 0.007416 0.000000 0.000000 0.000000
# 4 0.000000 0.000000 0.000000 0.036425 0.000000 0.000000
# 5 0.000000 0.000000 0.000000 0.000000 0.036425 0.000000
# 6 0.000000 0.000000 0.000000 0.000000 0.000000 0.037007
#
#
# Mechanical properties :
#
#
# Convention : Reuss Voigt Hill
#
# Bulk Modulus (GPa) = 58.61500 64.58144 61.59822
# Shear Modulus (GPa) = 29.33087 31.12536 30.22812
#
# Velocity S-wave (km/s) = 3.57056 3.67817 3.62476
# Velocity P-wave (km/s) = 6.51737 6.79039 6.65528
#
# Compressibility (1/GPa) = 0.01706048
#
# Stress axis : x y z
#
# Youngs Moduli (GPa) = 69.98736 69.98736 134.83721
#
# Poissons Ratio (x) = 0.29500 0.35403
# Poissons Ratio (y) = 0.29500 0.35403
# Poissons Ratio (z) = 0.18376 0.18376
#
# Static dielectric constant tensor:
#      x y z
#    x 1.975540 0.000000 0.000000 
#    y 0.000000 1.975540 0.000000 
#    z 0.000000 0.000000 1.799820 
# 
# From -- ./inp_files/2825.got.cif
#   From: 2010.05.17/outbox.cif.g08.bks.cpg/sg190_2_cif.got.tgz:2825.got - 2010.05.20 12:16:56.
