data_PCOD9586751
_publ_section_title
;
Structure prediction by ZEFSAII (Michael W. Deem and Ramdas Pophale) SiO2 
 PCOD9586751
Probable space group: P -6 2 C
;
_chemical_formula_sum "Si O2"
_cell_formula_units_Z 84
_cell_length_a 17.307941
_cell_length_b 17.307941
_cell_length_c 15.896683
_cell_angle_alpha 90.000000
_cell_angle_beta 90.000000
_cell_angle_gamma 120.000000
_cell_volume 4124.088324
_symmetry_space_group_name_H-M "P -6 2 C"
_symmetry_group_IT_number 190
_symmetry_cell_setting 'hexagonal'
loop_
_space_group_symop_operation_xyz
x,y,z
-x+y,-x,1/2-z
-y,x-y,z
x,y,1/2-z
-x+y,-x,z
-y,x-y,1/2-z
x-y,-y,-z
-x,-x+y,-z
y,x,-z
y,x,1/2+z
x-y,-y,1/2+z
-x,-x+y,1/2+z
loop_
_atom_site_type_symbol
_atom_site_label
_atom_site_fract_x
_atom_site_fract_y
_atom_site_fract_z
Si Si1 0.846352 0.039309 0.648748
Si Si2 0.896485 0.405579 0.345392
Si Si3 0.645272 0.721410 0.939357
Si Si4 0.495553 0.892314 0.007086
Si Si5 0.486732 0.112805 0.844775
Si Si6 0.620914 0.823565 0.081780
Si Si7 0.852952 0.814352 0.350872
O O1 0.847639 0.037010 0.750000
O O2 0.794928 0.091593 0.624927
O O3 0.948902 0.098901 0.619524
O O4 0.809637 0.938782 0.618547
O O5 0.867888 0.404656 0.250000
O O6 0.865929 0.310770 0.388420
O O7 0.869949 0.458037 0.411924
O O8 0.004178 0.441100 0.343011
O O9 0.728739 0.761457 0.877997
O O10 0.646424 0.646424 0.000000
O O11 0.660541 0.798306 0.002635
O O12 0.415750 0.864513 0.074806
O O13 0.550893 0.849364 0.044766
O O14 0.557448 0.000000 0.000000
O O15 0.525707 0.141405 0.750000
O O16 0.424939 0.157216 0.862518
O O17 0.856331 0.817394 0.250000
#
# Coordination Sequence:
#
# PCOD9586751 Si02
#       7
#    12  12  12  12  12  12  12
#     4  10  21  37  58  87 131 183 227 271 318 369
#     4  10  19  40  69  90 115 159 212 261 317 386
#     4  12  20  36  61  93 121 156 213 269 318 376
#     4  10  23  42  61  92 129 165 202 253 324 393
#     4  10  20  39  67  93 121 159 205 257 318 385
#     4  12  23  37  62  94 130 160 210 267 326 385
#     4  10  21  37  56  86 127 177 229 270 314 370
#
# _framework density 20.368137000000001
#
# number of rings (size 3 to 8) (size 9 to 14) (size 15 to 20)
#    0.000    1.429    4.286    1.571    2.000    4.571 
#    0.857    1.429    0.000    0.000    0.000    0.000 
#    0.000    0.000    0.000    0.000    0.000    0.000 
#
# Total GULP energy -468191.041615 kJ/mol
# GULP energy per Si atom -5573.702876 kJ/mol
# Density = 2.032178 g / cm^3
# Si number density = 20.368137 Si / 1000 Ang^3
#
#
#
# Elastic Constant Matrix: (Units=GPa)
#
#
# Indices 1 2 3 4 5 6 
#
# 1 71.1393 22.6564 30.8295 0.0000 0.0000 0.0000
# 2 22.6564 71.1393 30.8295 0.0000 0.0000 0.0000
# 3 30.8295 30.8295 111.6789 0.0000 0.0000 0.0000
# 4 0.0000 0.0000 0.0000 20.8013 0.0000 0.0000
# 5 0.0000 0.0000 0.0000 0.0000 20.8013 0.0000
# 6 0.0000 0.0000 0.0000 0.0000 0.0000 24.2415
#
#
#
# Elastic Compliance Matrix: (Units=1/GPa)
#
#
# Indices 1 2 3 4 5 6 
#
# 1 0.016825 -0.003800 -0.003596 0.000000 0.000000 0.000000
# 2 -0.003800 0.016825 -0.003596 0.000000 0.000000 0.000000
# 3 -0.003596 -0.003596 0.010939 0.000000 0.000000 0.000000
# 4 0.000000 0.000000 0.000000 0.048074 0.000000 0.000000
# 5 0.000000 0.000000 0.000000 0.000000 0.048074 0.000000
# 6 0.000000 0.000000 0.000000 0.000000 0.000000 0.041252
#
#
# Mechanical properties :
#
#
# Convention : Reuss Voigt Hill
#
# Bulk Modulus (GPa) = 44.23383 46.95426 45.59404
# Shear Modulus (GPa) = 23.63968 24.47830 24.05899
#
# Velocity S-wave (km/s) = 3.41048 3.47045 3.44060
# Velocity P-wave (km/s) = 6.10515 6.25792 6.18201
#
# Compressibility (1/GPa) = 0.02260713
#
# Stress axis : x y z
#
# Youngs Moduli (GPa) = 59.43363 59.43363 91.41230
#
# Poissons Ratio (x) = 0.22587 0.32869
# Poissons Ratio (y) = 0.22587 0.32869
# Poissons Ratio (z) = 0.21370 0.21370
#
# Static dielectric constant tensor:
#      x y z
#    x 1.745490 0.000000 0.000000 
#    y 0.000000 1.745490 0.000000 
#    z 0.000000 0.000000 1.747950 
# 
# From -- ./inp_files/3171.got.cif
#   From: 2010.05.17/outbox.cif.g08.bks.cpg/sg190_2_cif.got.tgz:3171.got - 2010.05.20 12:16:56.
