data_PCOD9586352
_publ_section_title
;
Structure prediction by ZEFSAII (Michael W. Deem and Ramdas Pophale) SiO2 
 PCOD9586352
Probable space group: P -6 2 M
;
_chemical_formula_sum "Si O2"
_cell_formula_units_Z 66
_cell_length_a 14.727821
_cell_length_b 14.727821
_cell_length_c 18.645275
_cell_angle_alpha 90.000000
_cell_angle_beta 90.000000
_cell_angle_gamma 120.000000
_cell_volume 3502.486090
_symmetry_space_group_name_H-M "P -6 2 M"
_symmetry_group_IT_number 189
_symmetry_cell_setting 'hexagonal'
loop_
_space_group_symop_operation_xyz
x,y,z
-x+y,-x,-z
-y,x-y,z
x,y,-z
-x+y,-x,z
-y,x-y,-z
x-y,-y,-z
-x,-x+y,-z
y,x,-z
y,x,z
x-y,-y,z
-x,-x+y,z
loop_
_atom_site_type_symbol
_atom_site_label
_atom_site_fract_x
_atom_site_fract_y
_atom_site_fract_z
Si Si1 0.878470 0.468167 0.583045
Si Si2 0.414221 0.175123 0.628568
Si Si3 0.884581 0.483187 0.817854
Si Si4 0.248795 0.122335 0.500000
Si Si5 0.426446 0.174801 0.213317
Si Si6 0.368239 0.246343 0.080265
O O1 0.844302 0.449914 0.500000
O O2 0.868439 0.361221 0.611935
O O3 0.813042 0.512545 0.622125
O O4 0.000000 0.555525 0.585949
O O5 0.323745 0.142682 0.569247
O O6 0.373533 0.139939 0.709524
O O7 0.794424 0.494132 0.778778
O O8 0.873874 0.371598 0.808893
O O9 0.875980 0.523113 0.897502
O O10 0.000000 0.568671 0.790618
O O11 0.197813 0.197813 0.500000
O O12 0.160223 0.000000 0.500000
O O13 0.356408 0.169610 0.145351
O O14 0.279969 0.279969 0.083007
O O15 0.373871 0.212027 0.000000
#
# Coordination Sequence:
#
# PCOD9586352 Si02
#       6
#    12  12  12   6  12  12
#     4  11  22  38  58  81 112 149 184 226 275 327
#     4  12  23  37  59  86 116 149 189 228 281 343
#     4   9  19  34  50  76 111 146 186 227 267 321
#     4  12  27  46  64  82 106 142 191 248 302 354
#     4  10  20  32  52  79 109 148 187 227 278 327
#     4   8  17  34  52  74 107 146 189 233 273 318
#
# _framework density 18.843758000000001
#
# number of rings (size 3 to 8) (size 9 to 14) (size 15 to 20)
#    1.091    0.727    1.818    3.000    0.000    6.545 
#    0.000    0.000    0.000    0.000    0.000    0.000 
#    0.000    0.000    0.000    0.000    0.000    2.182 
#
# Total GULP energy -367410.245847 kJ/mol
# GULP energy per Si atom -5566.821907 kJ/mol
# Density = 1.880087 g / cm^3
# Si number density = 18.843758 Si / 1000 Ang^3
#
#
#
# Elastic Constant Matrix: (Units=GPa)
#
#
# Indices 1 2 3 4 5 6 
#
# 1 51.4638 -0.8310 1.4806 0.0000 0.0000 0.0000
# 2 -0.8310 51.4638 1.4806 0.0000 0.0000 0.0000
# 3 1.4806 1.4806 129.2511 0.0000 0.0000 0.0000
# 4 0.0000 0.0000 0.0000 52.1085 0.0000 0.0000
# 5 0.0000 0.0000 0.0000 0.0000 52.1085 0.0000
# 6 0.0000 0.0000 0.0000 0.0000 0.0000 26.1474
#
#
#
# Elastic Compliance Matrix: (Units=1/GPa)
#
#
# Indices 1 2 3 4 5 6 
#
# 1 0.019443 0.000320 -0.000226 0.000000 0.000000 0.000000
# 2 0.000320 0.019443 -0.000226 0.000000 0.000000 0.000000
# 3 -0.000226 -0.000226 0.007742 0.000000 0.000000 0.000000
# 4 0.000000 0.000000 0.000000 0.019191 0.000000 0.000000
# 5 0.000000 0.000000 0.000000 0.000000 0.019191 0.000000
# 6 0.000000 0.000000 0.000000 0.000000 0.000000 0.038245
#
#
# Mechanical properties :
#
#
# Convention : Reuss Voigt Hill
#
# Bulk Modulus (GPa) = 21.56892 26.27101 23.91996
# Shear Modulus (GPa) = 35.97824 41.40943 38.69384
#
# Velocity S-wave (km/s) = 4.37429 4.69285 4.53637
# Velocity P-wave (km/s) = 6.08141 6.58297 6.33716
#
# Compressibility (1/GPa) = 0.04636301
#
# Stress axis : x y z
#
# Youngs Moduli (GPa) = 51.43291 51.43291 129.16447
#
# Poissons Ratio (x) = -0.01648 0.02924
# Poissons Ratio (y) = -0.01648 0.02924
# Poissons Ratio (z) = 0.01164 0.01164
#
# Static dielectric constant tensor:
#      x y z
#    x 1.645280 0.000000 0.000000 
#    y 0.000000 1.645280 0.000000 
#    z 0.000000 0.000000 1.702050 
# 
# From -- ./inp_files/3416.got.cif
#   From: 2010.05.17/outbox.cif.g08.bks.cpg/sg189_2_cif.got.tgz:3416.got - 2010.05.20 12:14:34.
