data_PCOD9586807
_publ_section_title
;
Structure prediction by ZEFSAII (Michael W. Deem and Ramdas Pophale) SiO2 
 PCOD9586807
Probable space group: P -6 2 C
;
_chemical_formula_sum "Si O2"
_cell_formula_units_Z 54
_cell_length_a 17.872615
_cell_length_b 17.872615
_cell_length_c 10.929260
_cell_angle_alpha 90.000000
_cell_angle_beta 90.000000
_cell_angle_gamma 120.000000
_cell_volume 3023.413791
_symmetry_space_group_name_H-M "P -6 2 C"
_symmetry_group_IT_number 190
_symmetry_cell_setting 'hexagonal'
loop_
_space_group_symop_operation_xyz
x,y,z
-x+y,-x,1/2-z
-y,x-y,z
x,y,1/2-z
-x+y,-x,z
-y,x-y,1/2-z
x-y,-y,-z
-x,-x+y,-z
y,x,-z
y,x,1/2+z
x-y,-y,1/2+z
-x,-x+y,1/2+z
loop_
_atom_site_type_symbol
_atom_site_label
_atom_site_fract_x
_atom_site_fract_y
_atom_site_fract_z
Si Si1 0.931970 0.627746 0.750000
Si Si2 0.523722 0.338728 0.006091
Si Si3 0.442393 0.928947 0.250000
Si Si4 0.247832 0.501793 0.250000
Si Si5 0.000000 0.408438 0.500000
Si Si6 0.000000 0.643434 0.000000
Si Si7 0.168501 0.487375 0.890557
O O1 0.929956 0.533918 0.750000
O O2 0.829528 0.596479 0.750000
O O3 0.981166 0.676396 0.872833
O O4 0.608930 0.421851 0.052237
O O5 0.489314 0.257436 0.094583
O O6 0.537639 0.303615 0.875258
O O7 0.449103 0.363108 0.008909
O O8 0.350168 0.836387 0.250000
O O9 0.441131 0.975898 0.375588
O O10 0.088672 0.411904 0.535789
O O11 0.145717 0.483866 0.750000
#
# Coordination Sequence:
#
# PCOD9586807 Si02
#       7
#     6  12   6   6   6   6  12
#     4  10  20  36  51  71  93 132 170 214 261 301
#     4  11  23  38  53  75 103 133 176 225 262 313
#     4  12  20  38  51  77  99 133 174 216 260 326
#     4  10  22  34  52  74  96 125 172 220 271 295
#     4  12  23  36  58  72 106 134 175 214 267 312
#     4  10  23  36  54  72  94 136 171 212 259 310
#     4  12  24  37  54  77 102 140 176 222 271 315
#
# _framework density 17.860606000000001
#
# number of rings (size 3 to 8) (size 9 to 14) (size 15 to 20)
#    0.000    0.889    3.333    6.444    3.111    0.000 
#    0.667    0.000    0.000    0.000    0.000    0.000 
#    0.000    0.000    0.000    0.667    0.000    7.333 
#
# Total GULP energy -301135.098334 kJ/mol
# GULP energy per Si atom -5576.575895 kJ/mol
# Density = 1.781995 g / cm^3
# Si number density = 17.860606 Si / 1000 Ang^3
#
#
#
# Elastic Constant Matrix: (Units=GPa)
#
#
# Indices 1 2 3 4 5 6 
#
# 1 58.0971 33.4813 18.8546 0.0000 0.0000 0.0000
# 2 33.4813 58.0971 18.8546 0.0000 0.0000 0.0000
# 3 18.8546 18.8546 134.8277 0.0000 0.0000 0.0000
# 4 0.0000 0.0000 0.0000 1.0616 0.0000 0.0000
# 5 0.0000 0.0000 0.0000 0.0000 1.0616 0.0000
# 6 0.0000 0.0000 0.0000 0.0000 0.0000 12.3079
#
#
#
# Elastic Compliance Matrix: (Units=1/GPa)
#
#
# Indices 1 2 3 4 5 6 
#
# 1 0.026106 -0.014519 -0.001620 0.000000 0.000000 0.000000
# 2 -0.014519 0.026106 -0.001620 0.000000 0.000000 0.000000
# 3 -0.001620 -0.001620 0.007870 0.000000 0.000000 0.000000
# 4 0.000000 0.000000 0.000000 0.941967 -0.000004 0.000000
# 5 0.000000 0.000000 0.000000 -0.000004 0.941971 0.000000
# 6 0.000000 0.000000 0.000000 0.000000 0.000000 0.081248
#
#
# Mechanical properties :
#
#
# Convention : Reuss Voigt Hill
#
# Bulk Modulus (GPa) = 40.71270 43.71144 42.21207
# Shear Modulus (GPa) = 2.41666 14.87498 8.64582
#
# Velocity S-wave (km/s) = 1.16448 2.88902 2.20255
# Velocity P-wave (km/s) = 4.96510 5.97121 5.49125
#
# Compressibility (1/GPa) = 0.02456236
#
# Stress axis : x y z
#
# Youngs Moduli (GPa) = 38.30608 38.30608 127.06387
#
# Poissons Ratio (x) = 0.55615 0.20589
# Poissons Ratio (y) = 0.55615 0.20589
# Poissons Ratio (z) = 0.06207 0.06207
#
# Static dielectric constant tensor:
#      x y z
#    x 1.633970 0.000000 0.000000 
#    y 0.000000 1.633970 0.000000 
#    z 0.000000 0.000000 1.719450 
# 
# From -- ./inp_files/1974.got.cif
#   From: 2010.05.17/outbox.cif.g08.bks.cpg/sg190_1_cif.got.tgz:1974.got - 2010.05.20 12:16:56.
