data_PCOD9586031
_publ_section_title
;
Structure prediction by ZEFSAII (Michael W. Deem and Ramdas Pophale) SiO2 
 PCOD9586031
Probable space group: P -6 C 2
;
_chemical_formula_sum "Si O2"
_cell_formula_units_Z 52
_cell_length_a 11.470711
_cell_length_b 11.470711
_cell_length_c 22.390348
_cell_angle_alpha 90.000000
_cell_angle_beta 90.000000
_cell_angle_gamma 120.000000
_cell_volume 2551.362402
_symmetry_space_group_name_H-M "P -6 C 2"
_symmetry_group_IT_number 188
_symmetry_cell_setting 'hexagonal'
loop_
_space_group_symop_operation_xyz
x,y,z
-x+y,-x,1/2-z
-y,x-y,z
x,y,1/2-z
-x+y,-x,z
-y,x-y,1/2-z
-y,-x,-z
-x+y,y,-z
x,x-y,-z
-x+y,y,1/2+z
x,x-y,1/2+z
-y,-x,1/2+z
loop_
_atom_site_type_symbol
_atom_site_label
_atom_site_fract_x
_atom_site_fract_y
_atom_site_fract_z
Si Si1 0.787669 0.611216 0.869701
Si Si2 0.378358 0.431629 0.819682
Si Si3 0.841826 0.158175 0.500000
Si Si4 0.678820 0.839410 0.000000
Si Si5 0.666667 0.333334 0.319638
Si Si6 0.596196 0.713841 0.871674
O O1 0.785124 0.596792 0.940831
O O2 0.678970 0.469997 0.842223
O O3 0.737948 0.718207 0.859942
O O4 0.929215 0.638863 0.843242
O O5 0.419450 0.450165 0.750000
O O6 0.481152 0.560826 0.858884
O O7 0.235008 0.422542 0.827903
O O8 0.001319 0.226799 0.489081
O O9 0.597884 0.833017 0.060308
O O10 0.666667 0.333334 0.250000
#
# Coordination Sequence:
#
# PCOD9586031 Si02
#       6
#    12  12   6   6   4  12
#     4  11  24  43  70 101 135 182 230 289 360 426
#     4  12  25  44  69 100 142 188 240 297 356 432
#     4  10  21  42  68 100 137 176 224 290 352 423
#     4  10  21  42  70 100 141 176 230 288 360 425
#     4  12  24  43  68  97 138 180 223 287 349 423
#     4  11  25  45  70 103 136 192 239 296 363 432
#
# _framework density 20.381267000000001
#
# number of rings (size 3 to 8) (size 9 to 14) (size 15 to 20)
#    0.000    0.923    4.615    2.077    0.000    4.615 
#    1.385    0.000    0.000    0.000    0.000    0.000 
#    0.000    0.000    0.000    0.000    0.000    0.000 
#
# Total GULP energy -290362.968780 kJ/mol
# GULP energy per Si atom -5583.903246 kJ/mol
# Density = 2.033488 g / cm^3
# Si number density = 20.381267 Si / 1000 Ang^3
#
#
#
# Elastic Constant Matrix: (Units=GPa)
#
#
# Indices 1 2 3 4 5 6 
#
# 1 98.1617 33.5582 51.3340 0.0003 0.0001 -0.0001
# 2 33.5582 98.1616 51.3343 -0.0001 0.0000 0.0001
# 3 51.3340 51.3343 158.1818 -0.0001 0.0003 0.0000
# 4 0.0003 -0.0001 -0.0001 33.9934 0.0008 0.0000
# 5 0.0001 0.0000 0.0003 0.0008 33.9922 -0.0002
# 6 -0.0001 0.0001 0.0000 0.0000 -0.0002 32.3020
#
#
#
# Elastic Compliance Matrix: (Units=1/GPa)
#
#
# Indices 1 2 3 4 5 6 
#
# 1 0.012821 -0.002658 -0.003298 0.000000 0.000000 0.000000
# 2 -0.002658 0.012821 -0.003298 0.000000 0.000000 0.000000
# 3 -0.003298 -0.003298 0.008462 0.000000 0.000000 0.000000
# 4 0.000000 0.000000 0.000000 0.029417 -0.000001 0.000000
# 5 0.000000 0.000000 0.000000 -0.000001 0.029419 0.000000
# 6 0.000000 0.000000 0.000000 0.000000 0.000000 0.030958
#
#
# Mechanical properties :
#
#
# Convention : Reuss Voigt Hill
#
# Bulk Modulus (GPa) = 64.12149 69.66199 66.89174
# Shear Modulus (GPa) = 33.87426 34.60944 34.24185
#
# Velocity S-wave (km/s) = 4.08122 4.12527 4.10331
# Velocity P-wave (km/s) = 7.33061 7.54613 7.43915
#
# Compressibility (1/GPa) = 0.01559540
#
# Stress axis : x y z
#
# Youngs Moduli (GPa) = 77.99870 77.99834 118.16971
#
# Poissons Ratio (x) = 0.20734 0.38972
# Poissons Ratio (y) = 0.20734 0.38973
# Poissons Ratio (z) = 0.25724 0.25724
#
# Static dielectric constant tensor:
#      x y z
#    x 1.741610 0.000000 0.000000 
#    y 0.000000 1.741610 0.000000 
#    z 0.000000 0.000000 1.717190 
# 
# From -- ./inp_files/3661.got.cif
#   From: 2010.05.17/outbox.cif.g08.bks.cpg/sg188_2_cif.got.tgz:3661.got - 2010.05.20 12:11:46.
