data_PCOD9586698
_publ_section_title
;
Structure prediction by ZEFSAII (Michael W. Deem and Ramdas Pophale) SiO2 
 PCOD9586698
Probable space group: P -6 2 C
;
_chemical_formula_sum "Si O2"
_cell_formula_units_Z 76
_cell_length_a 18.079201
_cell_length_b 18.079201
_cell_length_c 13.618517
_cell_angle_alpha 90.000000
_cell_angle_beta 90.000000
_cell_angle_gamma 120.000000
_cell_volume 3854.951472
_symmetry_space_group_name_H-M "P -6 2 C"
_symmetry_group_IT_number 190
_symmetry_cell_setting 'hexagonal'
loop_
_space_group_symop_operation_xyz
x,y,z
-x+y,-x,1/2-z
-y,x-y,z
x,y,1/2-z
-x+y,-x,z
-y,x-y,1/2-z
x-y,-y,-z
-x,-x+y,-z
y,x,-z
y,x,1/2+z
x-y,-y,1/2+z
-x,-x+y,1/2+z
loop_
_atom_site_type_symbol
_atom_site_label
_atom_site_fract_x
_atom_site_fract_y
_atom_site_fract_z
Si Si1 0.526624 0.145934 0.368855
Si Si2 0.333334 0.666668 0.631679
Si Si3 0.200380 0.812341 0.552363
Si Si4 0.801084 0.863986 0.869720
Si Si5 0.633049 0.891546 0.364490
Si Si6 0.429405 0.373316 0.131395
Si Si7 0.881759 0.055427 0.634444
O O1 0.518149 0.143655 0.250000
O O2 0.608429 0.236197 0.398514
O O3 0.446800 0.149512 0.413039
O O4 0.552458 0.076075 0.398577
O O5 0.333334 0.666668 0.750000
O O6 0.171729 0.880285 0.582975
O O7 0.187754 0.788351 0.437304
O O8 0.132502 0.720817 0.601025
O O9 0.789335 0.859611 0.750000
O O10 0.856919 0.820599 0.898114
O O11 0.859719 0.962789 0.901393
O O12 0.611636 0.869676 0.250000
O O13 0.735613 0.938963 0.374903
O O14 0.608782 0.962247 0.397305
O O15 0.427889 0.371354 0.250000
O O16 0.898991 0.052927 0.750000
#
# Coordination Sequence:
#
# PCOD9586698 Si02
#       7
#    12   4  12  12  12  12  12
#     4  10  19  32  57  94 126 146 179 247 327 390
#     4   9  15  27  48  81 121 149 166 213 306 393
#     4  12  21  33  60  90 119 158 205 259 312 370
#     4  10  19  32  55  88 125 164 209 258 304 356
#     4  10  22  39  57  78 114 172 221 248 290 365
#     4  10  19  34  58  90 124 155 196 247 314 394
#     4   9  18  33  53  81 122 167 208 247 295 351
#
# _framework density 19.714905000000002
#
# number of rings (size 3 to 8) (size 9 to 14) (size 15 to 20)
#    0.000    1.895    3.158    2.211    0.000    1.895 
#    0.000    0.000    6.947    2.842    0.000    0.000 
#    0.000    0.000    0.000    0.000    0.000    0.000 
#
# Total GULP energy -424192.197720 kJ/mol
# GULP energy per Si atom -5581.476286 kJ/mol
# Density = 1.967003 g / cm^3
# Si number density = 19.714905 Si / 1000 Ang^3
#
#
#
# Elastic Constant Matrix: (Units=GPa)
#
#
# Indices 1 2 3 4 5 6 
#
# 1 109.7570 70.9363 38.3007 0.0000 0.0000 0.0001
# 2 70.9363 109.7580 38.3008 0.0000 0.0000 0.0002
# 3 38.3007 38.3008 77.5755 0.0000 0.0000 0.0001
# 4 0.0000 0.0000 0.0000 19.7501 0.0000 0.0000
# 5 0.0000 0.0000 0.0000 0.0000 19.7500 0.0000
# 6 0.0001 0.0002 0.0001 0.0000 0.0000 19.4104
#
#
#
# Elastic Compliance Matrix: (Units=1/GPa)
#
#
# Indices 1 2 3 4 5 6 
#
# 1 0.016379 -0.009380 -0.003456 0.000000 0.000000 0.000000
# 2 -0.009380 0.016379 -0.003456 0.000000 0.000000 0.000000
# 3 -0.003456 -0.003456 0.016303 0.000000 0.000000 0.000000
# 4 0.000000 0.000000 0.000000 0.050633 0.000000 0.000000
# 5 0.000000 0.000000 0.000000 0.000000 0.050633 0.000000
# 6 0.000000 0.000000 0.000000 0.000000 0.000000 0.051519
#
#
# Mechanical properties :
#
#
# Convention : Reuss Voigt Hill
#
# Bulk Modulus (GPa) = 60.68444 65.79623 63.24033
# Shear Modulus (GPa) = 20.84021 21.75229 21.29625
#
# Velocity S-wave (km/s) = 3.25480 3.32526 3.29022
# Velocity P-wave (km/s) = 6.70618 6.94186 6.82504
#
# Compressibility (1/GPa) = 0.01647869
#
# Stress axis : x y z
#
# Youngs Moduli (GPa) = 61.05292 61.05348 61.33861
#
# Poissons Ratio (x) = 0.57268 0.21197
# Poissons Ratio (y) = 0.57267 0.21196
# Poissons Ratio (z) = 0.21098 0.21098
#
# Static dielectric constant tensor:
#      x y z
#    x 1.680540 0.000000 0.000000 
#    y 0.000000 1.680540 0.000000 
#    z 0.000000 0.000000 1.773300 
# 
# From -- ./inp_files/3078.got.cif
#   From: 2010.05.17/outbox.cif.g08.bks.cpg/sg190_2_cif.got.tgz:3078.got - 2010.05.20 12:16:56.
