data_PCOD9586956
_publ_section_title
;
Structure prediction by ZEFSAII (Michael W. Deem and Ramdas Pophale) SiO2 
 PCOD9586956
Probable space group: P -6 2 C
;
_chemical_formula_sum "Si O2"
_cell_formula_units_Z 30
_cell_length_a 7.664861
_cell_length_b 7.664861
_cell_length_c 26.990966
_cell_angle_alpha 90.000000
_cell_angle_beta 90.000000
_cell_angle_gamma 120.000000
_cell_volume 1373.275357
_symmetry_space_group_name_H-M "P -6 2 C"
_symmetry_group_IT_number 190
_symmetry_cell_setting 'hexagonal'
loop_
_space_group_symop_operation_xyz
x,y,z
-x+y,-x,1/2-z
-y,x-y,z
x,y,1/2-z
-x+y,-x,z
-y,x-y,1/2-z
x-y,-y,-z
-x,-x+y,-z
y,x,-z
y,x,1/2+z
x-y,-y,1/2+z
-x,-x+y,1/2+z
loop_
_atom_site_type_symbol
_atom_site_label
_atom_site_fract_x
_atom_site_fract_y
_atom_site_fract_z
Si Si1 0.779930 0.765087 0.346044
Si Si2 0.372619 0.912420 0.250000
Si Si3 0.430470 0.115026 0.450958
O O1 0.652667 0.631163 0.300050
O O2 0.693563 0.674475 0.399438
O O3 0.011913 0.818419 0.342928
O O4 0.533714 0.837631 0.250000
O O5 0.652324 0.138231 0.451750
O O6 0.313969 0.000000 0.500000
#
# Coordination Sequence:
#
# PCOD9586956 Si02
#       3
#    12   6  12
#     4  10  24  41  67  90 131 162 211 259 322 372
#     4  10  24  38  68  88 124 158 206 248 314 376
#     4  10  26  40  64  93 128 169 218 264 323 380
#
# _framework density 21.845579000000001
#
# number of rings (size 3 to 8) (size 9 to 14) (size 15 to 20)
#    2.000    0.000    0.000    1.200   11.200    0.000 
#    0.000    0.000    0.000    0.000    0.000    0.000 
#    0.000    0.000    0.000    0.000    0.000    0.000 
#
# Total GULP energy -167250.038723 kJ/mol
# GULP energy per Si atom -5575.001291 kJ/mol
# Density = 2.179586 g / cm^3
# Si number density = 21.845579 Si / 1000 Ang^3
#
#
#
# Elastic Constant Matrix: (Units=GPa)
#
#
# Indices 1 2 3 4 5 6 
#
# 1 36.5226 9.8516 33.1536 0.0000 0.0000 0.0000
# 2 9.8516 36.5226 33.1536 0.0000 0.0000 0.0000
# 3 33.1536 33.1536 210.9808 0.0000 0.0000 0.0000
# 4 0.0000 0.0000 0.0000 44.4665 0.0000 0.0000
# 5 0.0000 0.0000 0.0000 0.0000 44.4665 0.0000
# 6 0.0000 0.0000 0.0000 0.0000 0.0000 13.3355
#
#
#
# Elastic Compliance Matrix: (Units=1/GPa)
#
#
# Indices 1 2 3 4 5 6 
#
# 1 0.032653 -0.004841 -0.004371 0.000000 0.000000 0.000000
# 2 -0.004841 0.032653 -0.004371 0.000000 0.000000 0.000000
# 3 -0.004371 -0.004371 0.006113 0.000000 0.000000 0.000000
# 4 0.000000 0.000000 0.000000 0.022489 0.000000 0.000000
# 5 0.000000 0.000000 0.000000 0.000000 0.022489 0.000000
# 6 0.000000 0.000000 0.000000 0.000000 0.000000 0.074988
#
#
# Mechanical properties :
#
#
# Convention : Reuss Voigt Hill
#
# Bulk Modulus (GPa) = 22.59536 48.48261 35.53898
# Shear Modulus (GPa) = 21.43157 34.31153 27.87155
#
# Velocity S-wave (km/s) = 3.13557 3.96743 3.57577
# Velocity P-wave (km/s) = 4.84507 6.57486 5.77510
#
# Compressibility (1/GPa) = 0.04425688
#
# Stress axis : x y z
#
# Youngs Moduli (GPa) = 30.62477 30.62477 163.57689
#
# Poissons Ratio (x) = 0.14824 0.71491
# Poissons Ratio (y) = 0.14824 0.71491
# Poissons Ratio (z) = 0.13385 0.13385
#
# Static dielectric constant tensor:
#      x y z
#    x 1.831410 0.000000 0.000000 
#    y 0.000000 1.831410 0.000000 
#    z 0.000000 0.000000 1.724820 
# 
# From -- ./inp_files/4482.got.cif
#   From: 2010.05.17/outbox.cif.g08.bks.cpg/sg190_3_cif.got.tgz:4482.got - 2010.05.20 12:16:56.
