data_PCOD9586520
_publ_section_title
;
Structure prediction by ZEFSAII (Michael W. Deem and Ramdas Pophale) SiO2 
 PCOD9586520
Probable space group: P -6 2 M
;
_chemical_formula_sum "Si O2"
_cell_formula_units_Z 66
_cell_length_a 21.966608
_cell_length_b 21.966608
_cell_length_c 7.847316
_cell_angle_alpha 90.000000
_cell_angle_beta 90.000000
_cell_angle_gamma 120.000000
_cell_volume 3279.274509
_symmetry_space_group_name_H-M "P -6 2 M"
_symmetry_group_IT_number 189
_symmetry_cell_setting 'hexagonal'
loop_
_space_group_symop_operation_xyz
x,y,z
-x+y,-x,-z
-y,x-y,z
x,y,-z
-x+y,-x,z
-y,x-y,-z
x-y,-y,-z
-x,-x+y,-z
y,x,-z
y,x,z
x-y,-y,z
-x,-x+y,z
loop_
_atom_site_type_symbol
_atom_site_label
_atom_site_fract_x
_atom_site_fract_y
_atom_site_fract_z
Si Si1 0.720221 0.856284 0.703670
Si Si2 0.806577 0.350271 0.191021
Si Si3 0.300711 0.379039 0.293969
Si Si4 0.681558 0.205924 0.305391
Si Si5 0.917728 0.083871 0.000000
Si Si6 0.307318 0.919932 0.705025
O O1 0.737593 0.861813 0.500000
O O2 0.678715 0.898431 0.735953
O O3 0.785324 0.885654 0.831434
O O4 0.666439 0.774367 0.743553
O O5 0.733406 0.278100 0.212498
O O6 0.808283 0.411092 0.305010
O O7 0.867702 0.332398 0.226965
O O8 0.813198 0.376816 0.000000
O O9 0.309599 0.385323 0.500000
O O10 0.351693 0.351693 0.227428
O O11 0.315021 0.454496 0.232199
O O12 0.708730 0.216521 0.500000
O O13 0.000000 0.110299 0.000000
O O14 0.871297 0.000000 0.000000
O O15 0.312292 0.919789 0.500000
O O16 0.354512 0.000000 0.765800
#
# Coordination Sequence:
#
# PCOD9586520 Si02
#       6
#    12  12  12  12   6  12
#     4  10  21  42  69  98 130 167 218 272 326 391
#     4  12  25  40  59  88 126 163 209 263 319 376
#     4   9  18  35  63  94 121 152 198 259 318 376
#     4  11  22  40  63  85 117 163 212 253 308 380
#     4  12  27  44  66  98 136 180 224 270 328 396
#     4  10  21  39  64  93 124 162 211 264 317 380
#
# _framework density 20.126403
#
# number of rings (size 3 to 8) (size 9 to 14) (size 15 to 20)
#    0.000    1.455    1.818    3.727    1.273    3.273 
#    1.636    1.818    0.000    1.091    0.000    0.000 
#    0.000    0.000    0.000    0.000    0.000    0.000 
#
# Total GULP energy -368893.244666 kJ/mol
# GULP energy per Si atom -5589.291586 kJ/mol
# Density = 2.008059 g / cm^3
# Si number density = 20.126403 Si / 1000 Ang^3
#
#
#
# Elastic Constant Matrix: (Units=GPa)
#
#
# Indices 1 2 3 4 5 6 
#
# 1 91.4271 39.3931 16.5396 0.0000 0.0000 0.0000
# 2 39.3931 91.4271 16.5396 0.0000 0.0000 0.0000
# 3 16.5396 16.5396 50.4946 0.0000 0.0000 0.0000
# 4 0.0000 0.0000 0.0000 27.6957 0.0000 0.0000
# 5 0.0000 0.0000 0.0000 0.0000 27.6957 0.0000
# 6 0.0000 0.0000 0.0000 0.0000 0.0000 26.0170
#
#
#
# Elastic Compliance Matrix: (Units=1/GPa)
#
#
# Indices 1 2 3 4 5 6 
#
# 1 0.013776 -0.005442 -0.002730 0.000000 0.000000 0.000000
# 2 -0.005442 0.013776 -0.002730 0.000000 0.000000 0.000000
# 3 -0.002730 -0.002730 0.021593 0.000000 0.000000 0.000000
# 4 0.000000 0.000000 0.000000 0.036107 0.000000 0.000000
# 5 0.000000 0.000000 0.000000 0.000000 0.036107 0.000000
# 6 0.000000 0.000000 0.000000 0.000000 0.000000 0.038436
#
#
# Mechanical properties :
#
#
# Convention : Reuss Voigt Hill
#
# Bulk Modulus (GPa) = 36.57449 42.03262 39.30355
# Shear Modulus (GPa) = 26.21752 27.00679 26.61215
#
# Velocity S-wave (km/s) = 3.61313 3.66711 3.64022
# Velocity P-wave (km/s) = 5.96809 6.23377 6.10238
#
# Compressibility (1/GPa) = 0.02734146
#
# Stress axis : x y z
#
# Youngs Moduli (GPa) = 72.58851 72.58851 46.31237
#
# Poissons Ratio (x) = 0.39502 0.12643
# Poissons Ratio (y) = 0.39502 0.12643
# Poissons Ratio (z) = 0.19816 0.19816
#
# Static dielectric constant tensor:
#      x y z
#    x 1.681020 0.000000 0.000000 
#    y 0.000000 1.681020 0.000000 
#    z 0.000000 0.000000 1.716050 
# 
# From -- ./inp_files/1058.got.cif
#   From: 2010.05.17/outbox.cif.g08.bks.cpg/sg189_1_cif.got.tgz:1058.got - 2010.05.20 12:14:34.
