data_PCOD9586402
_publ_section_title
;
Structure prediction by ZEFSAII (Michael W. Deem and Ramdas Pophale) SiO2 
 PCOD9586402
Probable space group: P -6 2 M
;
_chemical_formula_sum "Si O2"
_cell_formula_units_Z 84
_cell_length_a 19.815623
_cell_length_b 19.815623
_cell_length_c 14.507360
_cell_angle_alpha 90.000000
_cell_angle_beta 90.000000
_cell_angle_gamma 120.000000
_cell_volume 4933.265419
_symmetry_space_group_name_H-M "P -6 2 M"
_symmetry_group_IT_number 189
_symmetry_cell_setting 'hexagonal'
loop_
_space_group_symop_operation_xyz
x,y,z
-x+y,-x,-z
-y,x-y,z
x,y,-z
-x+y,-x,z
-y,x-y,-z
x-y,-y,-z
-x,-x+y,-z
y,x,-z
y,x,z
x-y,-y,z
-x,-x+y,z
loop_
_atom_site_type_symbol
_atom_site_label
_atom_site_fract_x
_atom_site_fract_y
_atom_site_fract_z
Si Si1 0.336458 0.164183 0.889580
Si Si2 0.653036 0.093457 0.895810
Si Si3 0.141307 0.316248 0.610034
Si Si4 0.910587 0.585584 0.609416
Si Si5 0.402655 0.091498 0.251270
Si Si6 0.538459 0.443740 0.733660
Si Si7 0.093403 0.906989 0.239512
O O1 0.384171 0.256868 0.872068
O O2 0.383476 0.130035 0.834809
O O3 0.251883 0.125925 0.841154
O O4 0.330922 0.150956 0.000000
O O5 0.605496 0.116920 0.827349
O O6 0.611432 0.000000 0.891867
O O7 0.648909 0.116894 0.000000
O O8 0.128864 0.306197 0.500000
O O9 0.233633 0.370645 0.629256
O O10 0.102156 0.360839 0.659133
O O11 0.111530 0.235799 0.665349
O O12 0.911744 0.577700 0.500000
O O13 0.880243 0.501917 0.655316
O O14 0.000000 0.641038 0.641643
O O15 0.493613 0.122885 0.269087
O O16 0.361627 0.000000 0.230966
O O17 0.494470 0.494470 0.727921
O O18 0.000000 0.863232 0.237787
O O19 0.132418 0.000000 0.230133
#
# Coordination Sequence:
#
# PCOD9586402 Si02
#       7
#    12  12  12  12  12  12  12
#     4  10  20  35  55  77 103 136 174 217 264 315
#     4   9  17  30  51  77  98 120 157 204 252 299
#     4  10  20  35  55  77 103 136 174 217 264 315
#     4   9  17  30  51  77  98 120 157 204 252 299
#     4  10  21  33  48  74 103 134 170 205 249 306
#     4   9  17  30  48  71  99 125 151 191 240 287
#     4  11  23  37  53  75 105 143 186 230 276 325
#
# _framework density 17.027260999999999
#
# number of rings (size 3 to 8) (size 9 to 14) (size 15 to 20)
#    0.000    2.286    0.000    4.429    0.000    6.286 
#    0.000    2.857    0.000    6.286    0.000    0.000 
#    0.000    0.000    0.000    0.000    0.000    0.000 
#
# Total GULP energy -468305.788791 kJ/mol
# GULP energy per Si atom -5575.068914 kJ/mol
# Density = 1.698851 g / cm^3
# Si number density = 17.027261 Si / 1000 Ang^3
#
#
#
# Elastic Constant Matrix: (Units=GPa)
#
#
# Indices 1 2 3 4 5 6 
#
# 1 73.5519 12.9574 7.5643 0.0000 0.0000 0.0000
# 2 12.9574 73.5519 7.5643 0.0000 0.0000 0.0000
# 3 7.5643 7.5643 54.9673 0.0000 0.0000 0.0000
# 4 0.0000 0.0000 0.0000 0.8089 0.0000 0.0000
# 5 0.0000 0.0000 0.0000 0.0000 0.8089 0.0000
# 6 0.0000 0.0000 0.0000 0.0000 0.0000 30.2973
#
#
#
# Elastic Compliance Matrix: (Units=1/GPa)
#
#
# Indices 1 2 3 4 5 6 
#
# 1 0.014174 -0.002329 -0.001630 0.000000 0.000000 0.000000
# 2 -0.002329 0.014174 -0.001630 0.000000 0.000000 0.000000
# 3 -0.001630 -0.001630 0.018641 0.000000 0.000000 0.000000
# 4 0.000000 0.000000 0.000000 1.236296 0.000000 0.000000
# 5 0.000000 0.000000 0.000000 0.000000 1.236296 0.000000
# 6 0.000000 0.000000 0.000000 0.000000 0.000000 0.033006
#
#
# Mechanical properties :
#
#
# Convention : Reuss Voigt Hill
#
# Bulk Modulus (GPa) = 27.92489 28.69368 28.30929
# Shear Modulus (GPa) = 1.94122 17.98201 9.96161
#
# Velocity S-wave (km/s) = 1.06890 3.25325 2.42138
# Velocity P-wave (km/s) = 4.23782 5.56774 4.94767
#
# Compressibility (1/GPa) = 0.03581034
#
# Stress axis : x y z
#
# Youngs Moduli (GPa) = 70.55261 70.55261 53.64447
#
# Poissons Ratio (x) = 0.16434 0.08744
# Poissons Ratio (y) = 0.16434 0.08744
# Poissons Ratio (z) = 0.11500 0.11500
#
# Static dielectric constant tensor:
#      x y z
#    x 1.571630 0.000000 0.000000 
#    y 0.000000 1.571630 0.000000 
#    z 0.000000 0.000000 1.596900 
# 
# From -- ./inp_files/2815.got.cif
#   From: 2010.05.17/outbox.cif.g08.bks.cpg/sg189_2_cif.got.tgz:2815.got - 2010.05.20 12:14:34.
