data_PCOD9586770
_publ_section_title
;
Structure prediction by ZEFSAII (Michael W. Deem and Ramdas Pophale) SiO2 
 PCOD9586770
Probable space group: P -6 2 C
;
_chemical_formula_sum "Si O2"
_cell_formula_units_Z 60
_cell_length_a 16.010253
_cell_length_b 16.010253
_cell_length_c 15.038251
_cell_angle_alpha 90.000000
_cell_angle_beta 90.000000
_cell_angle_gamma 120.000000
_cell_volume 3338.292223
_symmetry_space_group_name_H-M "P -6 2 C"
_symmetry_group_IT_number 190
_symmetry_cell_setting 'hexagonal'
loop_
_space_group_symop_operation_xyz
x,y,z
-x+y,-x,1/2-z
-y,x-y,z
x,y,1/2-z
-x+y,-x,z
-y,x-y,1/2-z
x-y,-y,-z
-x,-x+y,-z
y,x,-z
y,x,1/2+z
x-y,-y,1/2+z
-x,-x+y,1/2+z
loop_
_atom_site_type_symbol
_atom_site_label
_atom_site_fract_x
_atom_site_fract_y
_atom_site_fract_z
Si Si1 0.957525 0.395655 0.410368
Si Si2 0.088573 0.688530 0.350576
Si Si3 0.233511 0.788046 0.496288
Si Si4 0.844537 0.373909 0.653314
Si Si5 0.127777 0.647136 0.650451
O O1 0.890134 0.289743 0.450927
O O2 0.895714 0.433218 0.359204
O O3 0.000000 0.460379 0.500000
O O4 0.053892 0.427416 0.354504
O O5 0.105651 0.729373 0.250000
O O6 0.145472 0.764149 0.428846
O O7 0.127829 0.612466 0.352716
O O8 0.973858 0.619505 0.362376
O O9 0.312010 0.785992 0.430400
O O10 0.196977 0.708854 0.572207
O O11 0.799712 0.335879 0.750000
O O12 0.163216 0.682565 0.750000
#
# Coordination Sequence:
#
# PCOD9586770 Si02
#       5
#    12  12  12  12  12
#     4   9  18  32  48  63  87 124 157 189 235 286
#     4   9  18  34  51  65  87 121 158 193 237 287
#     4  11  18  28  47  69  86 108 154 203 232 263
#     4   9  18  33  50  65  88 124 159 193 236 282
#     4  10  20  33  47  62  89 129 160 186 231 290
#
# _framework density 17.973261999999998
#
# number of rings (size 3 to 8) (size 9 to 14) (size 15 to 20)
#    0.000    2.400    0.000    6.600    0.000    1.600 
#    9.600    0.000    0.000    0.000    0.000    0.000 
#    0.000    0.000    0.000  129.600    0.000  388.800 
#
# Total GULP energy -334203.353428 kJ/mol
# GULP energy per Si atom -5570.055890 kJ/mol
# Density = 1.793235 g / cm^3
# Si number density = 17.973262 Si / 1000 Ang^3
#
#
#
# Elastic Constant Matrix: (Units=GPa)
#
#
# Indices 1 2 3 4 5 6 
#
# 1 47.4247 11.4859 34.9548 0.0000 0.0000 0.0000
# 2 11.4859 47.4247 34.9548 0.0000 0.0000 0.0000
# 3 34.9548 34.9548 135.5351 0.0000 0.0000 0.0000
# 4 0.0000 0.0000 0.0000 27.2614 0.0000 0.0000
# 5 0.0000 0.0000 0.0000 0.0000 27.2614 0.0000
# 6 0.0000 0.0000 0.0000 0.0000 0.0000 17.9694
#
#
#
# Elastic Compliance Matrix: (Units=1/GPa)
#
#
# Indices 1 2 3 4 5 6 
#
# 1 0.026143 -0.001682 -0.006309 0.000000 0.000000 0.000000
# 2 -0.001682 0.026143 -0.006309 0.000000 0.000000 0.000000
# 3 -0.006309 -0.006309 0.010632 0.000000 0.000000 0.000000
# 4 0.000000 0.000000 0.000000 0.036682 0.000000 0.000000
# 5 0.000000 0.000000 0.000000 0.000000 0.036682 0.000000
# 6 0.000000 0.000000 0.000000 0.000000 0.000000 0.055650
#
#
# Mechanical properties :
#
#
# Convention : Reuss Voigt Hill
#
# Bulk Modulus (GPa) = 29.13720 43.68614 36.41167
# Shear Modulus (GPa) = 21.55440 24.43103 22.99271
#
# Velocity S-wave (km/s) = 3.46677 3.69087 3.58057
# Velocity P-wave (km/s) = 5.68078 6.52091 6.11529
#
# Compressibility (1/GPa) = 0.03432039
#
# Stress axis : x y z
#
# Youngs Moduli (GPa) = 38.25080 38.25080 94.05406
#
# Poissons Ratio (x) = 0.06433 0.59335
# Poissons Ratio (y) = 0.06433 0.59335
# Poissons Ratio (z) = 0.24131 0.24131
#
# Static dielectric constant tensor:
#      x y z
#    x 1.659470 0.000000 0.000000 
#    y 0.000000 1.659470 0.000000 
#    z 0.000000 0.000000 1.671500 
# 
# From -- ./inp_files/2912.got.cif
#   From: 2010.05.17/outbox.cif.g08.bks.cpg/sg190_2_cif.got.tgz:2912.got - 2010.05.20 12:16:56.
