data_PCOD9586336
_publ_section_title
;
Structure prediction by ZEFSAII (Michael W. Deem and Ramdas Pophale) SiO2 
 PCOD9586336
Probable space group: P -6 2 M
;
_chemical_formula_sum "Si O2"
_cell_formula_units_Z 84
_cell_length_a 19.570214
_cell_length_b 19.570214
_cell_length_c 14.904459
_cell_angle_alpha 90.000000
_cell_angle_beta 90.000000
_cell_angle_gamma 120.000000
_cell_volume 4943.539376
_symmetry_space_group_name_H-M "P -6 2 M"
_symmetry_group_IT_number 189
_symmetry_cell_setting 'hexagonal'
loop_
_space_group_symop_operation_xyz
x,y,z
-x+y,-x,-z
-y,x-y,z
x,y,-z
-x+y,-x,z
-y,x-y,-z
x-y,-y,-z
-x,-x+y,-z
y,x,-z
y,x,z
x-y,-y,z
-x,-x+y,z
loop_
_atom_site_type_symbol
_atom_site_label
_atom_site_fract_x
_atom_site_fract_y
_atom_site_fract_z
Si Si1 0.562220 0.095558 0.395128
Si Si2 0.567150 0.471477 0.099613
Si Si3 0.904742 0.346038 0.734593
Si Si4 0.811708 0.905335 0.103484
Si Si5 0.715082 0.094618 0.397136
Si Si6 0.171170 0.335015 0.763995
Si Si7 0.409207 0.316231 0.892894
O O1 0.563914 0.114246 0.500000
O O2 0.510323 0.123216 0.339496
O O3 0.652139 0.121998 0.367608
O O4 0.514928 0.000000 0.386434
O O5 0.521989 0.521989 0.096414
O O6 0.634565 0.512747 0.171449
O O7 0.498109 0.384946 0.126074
O O8 0.595621 0.469787 0.000000
O O9 0.874819 0.254271 0.733383
O O10 0.000000 0.392595 0.731206
O O11 0.871810 0.871810 0.109374
O O12 0.745895 0.864992 0.180872
O O13 0.856952 0.000000 0.113953
O O14 0.779066 0.888142 0.000000
O O15 0.740653 0.122036 0.500000
O O16 0.784051 0.117705 0.325984
O O17 0.664678 0.000000 0.400111
O O18 0.240083 0.385919 0.835211
O O19 0.351453 0.351453 0.870100
O O20 0.402396 0.302224 0.000000
#
# Coordination Sequence:
#
# PCOD9586336 Si02
#       7
#    12  12  12  12  12  12  12
#     4   8  15  31  54  73  89 116 156 197 233 275
#     4   8  15  29  48  66  86 117 155 191 226 271
#     4  10  20  31  44  67  98 130 162 192 231 289
#     4  10  21  37  55  74 100 139 184 225 269 327
#     4   9  18  33  54  78  99 122 157 201 250 302
#     4  12  21  29  47  77 108 131 158 210 269 307
#     4   9  17  30  49  72  94 119 157 203 251 302
#
# _framework density 16.991875
#
# number of rings (size 3 to 8) (size 9 to 14) (size 15 to 20)
#    0.000    2.571    0.000    4.857    0.000    5.714 
#    0.000    1.429    0.000    5.857    0.000    0.000 
#    0.000    1.143    0.000    0.000    0.000    0.000 
#
# Total GULP energy -467850.021418 kJ/mol
# GULP energy per Si atom -5569.643112 kJ/mol
# Density = 1.695320 g / cm^3
# Si number density = 16.991875 Si / 1000 Ang^3
#
#
#
# Elastic Constant Matrix: (Units=GPa)
#
#
# Indices 1 2 3 4 5 6 
#
# 1 43.1896 19.6111 34.3970 0.0000 0.0000 0.0000
# 2 19.6111 43.1896 34.3970 0.0000 0.0000 0.0000
# 3 34.3970 34.3970 63.1915 0.0000 0.0000 0.0000
# 4 0.0000 0.0000 0.0000 5.5576 0.0000 0.0000
# 5 0.0000 0.0000 0.0000 0.0000 5.5576 0.0000
# 6 0.0000 0.0000 0.0000 0.0000 0.0000 11.7893
#
#
#
# Elastic Compliance Matrix: (Units=1/GPa)
#
#
# Indices 1 2 3 4 5 6 
#
# 1 0.040926 -0.001485 -0.021469 0.000000 0.000000 0.000000
# 2 -0.001485 0.040926 -0.021469 0.000000 0.000000 0.000000
# 3 -0.021469 -0.021469 0.039197 0.000000 0.000000 0.000000
# 4 0.000000 0.000000 0.000000 0.179933 0.000000 0.000000
# 5 0.000000 0.000000 0.000000 0.000000 0.179933 0.000000
# 6 0.000000 0.000000 0.000000 0.000000 0.000000 0.084823
#
#
# Mechanical properties :
#
#
# Convention : Reuss Voigt Hill
#
# Bulk Modulus (GPa) = 31.05230 36.26453 33.65842
# Shear Modulus (GPa) = 7.51519 8.65862 8.08691
#
# Velocity S-wave (km/s) = 2.10533 2.25982 2.18394
# Velocity P-wave (km/s) = 4.92182 5.31015 5.11967
#
# Compressibility (1/GPa) = 0.03220373
#
# Stress axis : x y z
#
# Youngs Moduli (GPa) = 24.43416 24.43416 25.51197
#
# Poissons Ratio (x) = 0.03629 0.54772
# Poissons Ratio (y) = 0.03629 0.54772
# Poissons Ratio (z) = 0.52458 0.52458
#
# Static dielectric constant tensor:
#      x y z
#    x 1.574900 0.000000 0.000000 
#    y 0.000000 1.574900 0.000000 
#    z 0.000000 0.000000 1.600020 
# 
# From -- ./inp_files/2790.got.cif
#   From: 2010.05.17/outbox.cif.g08.bks.cpg/sg189_2_cif.got.tgz:2790.got - 2010.05.20 12:14:34.
