data_PCOD9586491
_publ_section_title
;
Structure prediction by ZEFSAII (Michael W. Deem and Ramdas Pophale) SiO2 
 PCOD9586491
Probable space group: P -6 2 M
;
_chemical_formula_sum "Si O2"
_cell_formula_units_Z 64
_cell_length_a 14.262207
_cell_length_b 14.262207
_cell_length_c 18.251479
_cell_angle_alpha 90.000000
_cell_angle_beta 90.000000
_cell_angle_gamma 120.000000
_cell_volume 3215.156858
_symmetry_space_group_name_H-M "P -6 2 M"
_symmetry_group_IT_number 189
_symmetry_cell_setting 'hexagonal'
loop_
_space_group_symop_operation_xyz
x,y,z
-x+y,-x,-z
-y,x-y,z
x,y,-z
-x+y,-x,z
-y,x-y,-z
x-y,-y,-z
-x,-x+y,-z
y,x,-z
y,x,z
x-y,-y,z
-x,-x+y,z
loop_
_atom_site_type_symbol
_atom_site_label
_atom_site_fract_x
_atom_site_fract_y
_atom_site_fract_z
Si Si1 0.528778 0.715088 0.170862
Si Si2 0.876313 0.659872 0.272125
Si Si3 0.873921 0.438534 0.311689
Si Si4 0.119225 0.601576 0.086316
Si Si5 0.666668 0.333335 0.412183
Si Si6 0.129705 0.874687 0.421279
O O1 0.645046 0.802604 0.202389
O O2 0.472470 0.646334 0.244589
O O3 0.506558 0.625781 0.110711
O O4 0.483817 0.786548 0.132678
O O5 0.877526 0.548182 0.284387
O O6 0.829106 0.676687 0.347738
O O7 0.000000 0.753416 0.262944
O O8 0.788509 0.389217 0.378136
O O9 0.000000 0.475193 0.327192
O O10 0.000000 0.581775 0.104307
O O11 0.138223 0.620737 0.000000
O O12 0.666667 0.333334 0.500000
O O13 0.168591 0.854880 0.500000
O O14 0.000000 0.800407 0.420577
O O15 0.164473 0.000000 0.419351
#
# Coordination Sequence:
#
# PCOD9586491 Si02
#       6
#    12  12  12  12   4  12
#     4  12  20  37  61  81 112 152 196 241 287 344
#     4  10  21  36  57  81 112 153 195 241 296 355
#     4  11  23  41  61  85 116 157 206 253 297 353
#     4  11  24  39  59  91 125 158 198 241 292 360
#     4  12  24  42  63  87 118 164 214 258 318 375
#     4   9  18  34  57  84 113 146 189 244 304 359
#
# _framework density 19.905714
#
# number of rings (size 3 to 8) (size 9 to 14) (size 15 to 20)
#    0.000    1.312    3.750    2.250    0.000    3.375 
#    0.000    1.875    0.000    0.000    0.000    0.000 
#    0.000    0.000    0.000    0.000    0.000   72.562 
#
# Total GULP energy -356840.809699 kJ/mol
# GULP energy per Si atom -5575.637652 kJ/mol
# Density = 1.986041 g / cm^3
# Si number density = 19.905714 Si / 1000 Ang^3
#
#
#
# Elastic Constant Matrix: (Units=GPa)
#
#
# Indices 1 2 3 4 5 6 
#
# 1 71.9450 22.9931 41.5854 0.0000 0.0000 0.0000
# 2 22.9931 71.9450 41.5855 0.0000 0.0000 0.0001
# 3 41.5854 41.5855 110.6679 -0.0001 -0.0001 0.0001
# 4 0.0000 0.0000 -0.0001 20.3474 0.0000 0.0000
# 5 0.0000 0.0000 -0.0001 0.0000 20.3475 0.0000
# 6 0.0000 0.0001 0.0001 0.0000 0.0000 24.4760
#
#
#
# Elastic Compliance Matrix: (Units=1/GPa)
#
#
# Indices 1 2 3 4 5 6 
#
# 1 0.018065 -0.002363 -0.005900 0.000000 0.000000 0.000000
# 2 -0.002363 0.018065 -0.005900 0.000000 0.000000 0.000000
# 3 -0.005900 -0.005900 0.013470 0.000000 0.000000 0.000000
# 4 0.000000 0.000000 0.000000 0.049146 0.000000 0.000000
# 5 0.000000 0.000000 0.000000 0.000000 0.049146 0.000000
# 6 0.000000 0.000000 0.000000 0.000000 0.000000 0.040856
#
#
# Mechanical properties :
#
#
# Convention : Reuss Voigt Hill
#
# Bulk Modulus (GPa) = 47.00728 51.87622 49.44175
# Shear Modulus (GPa) = 22.30465 22.92710 22.61587
#
# Velocity S-wave (km/s) = 3.35104 3.39748 3.37434
# Velocity P-wave (km/s) = 6.21602 6.44267 6.33036
#
# Compressibility (1/GPa) = 0.02127330
#
# Stress axis : x y z
#
# Youngs Moduli (GPa) = 55.35495 55.35486 74.23677
#
# Poissons Ratio (x) = 0.13080 0.43803
# Poissons Ratio (y) = 0.13080 0.43803
# Poissons Ratio (z) = 0.32662 0.32662
#
# Static dielectric constant tensor:
#      x y z
#    x 1.746680 0.000000 0.000000 
#    y 0.000000 1.746680 0.000000 
#    z 0.000000 0.000000 1.718440 
# 
# From -- ./inp_files/3059.got.cif
#   From: 2010.05.17/outbox.cif.g08.bks.cpg/sg189_2_cif.got.tgz:3059.got - 2010.05.20 12:14:34.
