data_PCOD9586964
_publ_section_title
;
Structure prediction by ZEFSAII (Michael W. Deem and Ramdas Pophale) SiO2 
 PCOD9586964
Probable space group: P -6 2 C
;
_chemical_formula_sum "Si O2"
_cell_formula_units_Z 70
_cell_length_a 13.445022
_cell_length_b 13.445022
_cell_length_c 18.115310
_cell_angle_alpha 90.000000
_cell_angle_beta 90.000000
_cell_angle_gamma 120.000000
_cell_volume 2835.955660
_symmetry_space_group_name_H-M "P -6 2 C"
_symmetry_group_IT_number 190
_symmetry_cell_setting 'hexagonal'
loop_
_space_group_symop_operation_xyz
x,y,z
-x+y,-x,1/2-z
-y,x-y,z
x,y,1/2-z
-x+y,-x,z
-y,x-y,1/2-z
x-y,-y,-z
-x,-x+y,-z
y,x,-z
y,x,1/2+z
x-y,-y,1/2+z
-x,-x+y,1/2+z
loop_
_atom_site_type_symbol
_atom_site_label
_atom_site_fract_x
_atom_site_fract_y
_atom_site_fract_z
Si Si1 0.634835 0.957206 0.250000
Si Si2 0.000000 0.000000 0.662674
Si Si3 0.803406 0.911081 0.947226
Si Si4 0.816620 0.256367 0.091017
Si Si5 0.285695 0.909937 0.250000
Si Si6 0.613752 0.171265 0.025963
Si Si7 0.490177 0.528092 0.123931
Si Si8 0.832348 0.208456 0.250000
O O1 0.638347 0.839433 0.250000
O O2 0.562913 0.962749 0.180563
O O3 0.756835 0.072597 0.250000
O O4 0.000000 0.000000 0.750000
O O5 0.090213 0.123363 0.626597
O O6 0.691227 0.791709 0.929360
O O7 0.877751 0.877751 0.000000
O O8 0.790209 0.000000 0.000000
O O9 0.691145 0.131849 0.073050
O O10 0.748362 0.298164 0.030868
O O11 0.803121 0.260130 0.178922
O O12 0.358410 0.915810 0.176188
O O13 0.289150 0.031431 0.250000
O O14 0.493237 0.083202 0.084498
O O15 0.577683 0.117496 0.945208
#
# Coordination Sequence:
#
# PCOD9586964 Si02
#       8
#     6   4  12  12   6  12  12   6
#     4  11  25  51  78 109 156 201 244 322 372 455
#     4   9  19  44  73  99 139 191 244 297 337 443
#     4   9  22  44  69 100 143 191 238 291 367 431
#     4  12  26  44  72 108 145 186 239 309 361 445
#     4  11  25  51  78 109 156 201 244 322 372 455
#     4  11  25  46  75 106 140 186 250 315 363 443
#     4  10  24  48  76 108 139 198 256 303 385 433
#     4  12  26  48  72 110 152 200 246 282 392 448
#
# _framework density 24.683038
#
# number of rings (size 3 to 8) (size 9 to 14) (size 15 to 20)
#    0.000    1.371    3.429    1.029    8.400    0.686 
#   10.800    0.000    0.000    0.000    0.000    0.000 
#    0.000    0.000    0.000    0.000    0.000    0.000 
#
# Total GULP energy -390365.509064 kJ/mol
# GULP energy per Si atom -5576.650129 kJ/mol
# Density = 2.462686 g / cm^3
# Si number density = 24.683038 Si / 1000 Ang^3
#
#
#
# Elastic Constant Matrix: (Units=GPa)
#
#
# Indices 1 2 3 4 5 6 
#
# 1 146.2182 78.3610 85.3161 0.0000 0.0000 0.0000
# 2 78.3610 146.2182 85.3161 0.0000 0.0000 0.0000
# 3 85.3161 85.3161 254.9516 0.0000 0.0000 0.0000
# 4 0.0000 0.0000 0.0000 39.2761 0.0000 0.0000
# 5 0.0000 0.0000 0.0000 0.0000 39.2761 0.0000
# 6 0.0000 0.0000 0.0000 0.0000 0.0000 33.9286
#
#
#
# Elastic Compliance Matrix: (Units=1/GPa)
#
#
# Indices 1 2 3 4 5 6 
#
# 1 0.010354 -0.004383 -0.001998 0.000000 0.000000 0.000000
# 2 -0.004383 0.010354 -0.001998 0.000000 0.000000 0.000000
# 3 -0.001998 -0.001998 0.005260 0.000000 0.000000 0.000000
# 4 0.000000 0.000000 0.000000 0.025461 0.000000 0.000000
# 5 0.000000 0.000000 0.000000 0.000000 0.025461 0.000000
# 6 0.000000 0.000000 0.000000 0.000000 0.000000 0.029474
#
#
# Mechanical properties :
#
#
# Convention : Reuss Voigt Hill
#
# Bulk Modulus (GPa) = 108.58901 116.15272 112.37087
# Shear Modulus (GPa) = 39.62263 42.38912 41.00587
#
# Velocity S-wave (km/s) = 4.01091 4.14857 4.08032
# Velocity P-wave (km/s) = 8.09560 8.37302 8.23548
#
# Compressibility (1/GPa) = 0.00920903
#
# Stress axis : x y z
#
# Youngs Moduli (GPa) = 96.58233 96.58233 190.12954
#
# Poissons Ratio (x) = 0.42332 0.37989
# Poissons Ratio (y) = 0.42332 0.37989
# Poissons Ratio (z) = 0.19298 0.19298
#
# Static dielectric constant tensor:
#      x y z
#    x 2.061340 0.000000 0.000000 
#    y 0.000000 2.061340 0.000000 
#    z 0.000000 0.000000 2.003940 
# 
# From -- ./inp_files/3826.got.cif
#   From: 2010.05.17/outbox.cif.g08.bks.cpg/sg190_2_cif.got.tgz:3826.got - 2010.05.20 12:16:56.
