data_PCOD9586021
_publ_section_title
;
Structure prediction by ZEFSAII (Michael W. Deem and Ramdas Pophale) SiO2 
 PCOD9586021
Probable space group: P -6 C 2
;
_chemical_formula_sum "Si O2"
_cell_formula_units_Z 84
_cell_length_a 17.689686
_cell_length_b 17.689686
_cell_length_c 14.122999
_cell_angle_alpha 90.000000
_cell_angle_beta 90.000000
_cell_angle_gamma 120.000000
_cell_volume 3827.346732
_symmetry_space_group_name_H-M "P -6 C 2"
_symmetry_group_IT_number 188
_symmetry_cell_setting 'hexagonal'
loop_
_space_group_symop_operation_xyz
x,y,z
-x+y,-x,1/2-z
-y,x-y,z
x,y,1/2-z
-x+y,-x,z
-y,x-y,1/2-z
-y,-x,-z
-x+y,y,-z
x,x-y,-z
-x+y,y,1/2+z
x,x-y,1/2+z
-y,-x,1/2+z
loop_
_atom_site_type_symbol
_atom_site_label
_atom_site_fract_x
_atom_site_fract_y
_atom_site_fract_z
Si Si1 0.207182 0.466883 0.897179
Si Si2 0.454242 0.594059 0.141409
Si Si3 0.928336 0.336020 0.862813
Si Si4 0.001669 0.255862 0.004811
Si Si5 0.770984 0.629087 0.138621
Si Si6 0.126339 0.274883 0.644206
Si Si7 0.945977 0.518106 0.635823
O O1 0.305505 0.519765 0.858145
O O2 0.168817 0.531209 0.906879
O O3 0.148697 0.375262 0.847148
O O4 0.220039 0.440078 0.000000
O O5 0.437314 0.562956 0.250000
O O6 0.532053 0.579130 0.106270
O O7 0.955584 0.344821 0.750000
O O8 0.838186 0.244267 0.868922
O O9 0.919742 0.419665 0.889316
O O10 0.988434 0.324720 0.940843
O O11 0.074244 0.283338 0.086947
O O12 0.914530 0.205232 0.068126
O O13 0.040515 0.221480 0.921493
O O14 0.770317 0.652319 0.250000
O O15 0.672495 0.557044 0.109153
O O16 0.117143 0.239340 0.750000
O O17 0.944791 0.519784 0.750000
#
# Coordination Sequence:
#
# PCOD9586021 Si02
#       7
#    12  12  12  12  12  12  12
#     4  12  23  38  51  80 112 160 216 271 319 370
#     4  11  22  36  57  77 117 172 222 271 321 380
#     4  10  21  39  62  91 129 172 222 280 340 398
#     4  11  21  37  60  88 119 160 202 252 322 393
#     4  10  21  39  62  91 129 172 222 280 340 398
#     4  11  23  39  60  89 122 157 204 260 318 386
#     4   9  20  37  59  88 120 169 227 281 336 393
#
# _framework density 21.947317999999999
#
# number of rings (size 3 to 8) (size 9 to 14) (size 15 to 20)
#    0.000    1.429    1.429    5.000    0.000    2.857 
#    3.429    0.000    0.000    0.000    0.000    0.000 
#   45.714    0.000   27.429    0.000    0.000    0.000 
#
# Total GULP energy -468609.853776 kJ/mol
# GULP energy per Si atom -5578.688735 kJ/mol
# Density = 2.189736 g / cm^3
# Si number density = 21.947318 Si / 1000 Ang^3
#
#
#
# Elastic Constant Matrix: (Units=GPa)
#
#
# Indices 1 2 3 4 5 6 
#
# 1 88.3264 45.6010 36.3114 0.0000 0.0000 0.0000
# 2 45.6010 88.3264 36.3114 0.0000 0.0000 0.0000
# 3 36.3114 36.3114 148.9316 0.0000 0.0000 0.0000
# 4 0.0000 0.0000 0.0000 29.0387 0.0000 0.0000
# 5 0.0000 0.0000 0.0000 0.0000 29.0387 0.0000
# 6 0.0000 0.0000 0.0000 0.0000 0.0000 21.3627
#
#
#
# Elastic Compliance Matrix: (Units=1/GPa)
#
#
# Indices 1 2 3 4 5 6 
#
# 1 0.016005 -0.007400 -0.002098 0.000000 0.000000 0.000000
# 2 -0.007400 0.016005 -0.002098 0.000000 0.000000 0.000000
# 3 -0.002098 -0.002098 0.007737 0.000000 0.000000 0.000000
# 4 0.000000 0.000000 0.000000 0.034437 0.000000 0.000000
# 5 0.000000 0.000000 0.000000 0.000000 0.034437 0.000000
# 6 0.000000 0.000000 0.000000 0.000000 0.000000 0.046811
#
#
# Mechanical properties :
#
#
# Convention : Reuss Voigt Hill
#
# Bulk Modulus (GPa) = 60.40585 62.44802 61.42694
# Shear Modulus (GPa) = 27.15299 29.71206 28.43253
#
# Velocity S-wave (km/s) = 3.52119 3.68338 3.60320
# Velocity P-wave (km/s) = 6.64188 6.82679 6.73497
#
# Compressibility (1/GPa) = 0.01655469
#
# Stress axis : x y z
#
# Youngs Moduli (GPa) = 62.48130 62.48130 129.24159
#
# Poissons Ratio (x) = 0.46239 0.27113
# Poissons Ratio (y) = 0.46239 0.27113
# Poissons Ratio (z) = 0.13108 0.13108
#
# Static dielectric constant tensor:
#      x y z
#    x 1.812530 0.000000 0.000000 
#    y 0.000000 1.812530 0.000000 
#    z 0.000000 0.000000 1.891910 
# 
# From -- ./inp_files/2604.got.cif
#   From: 2010.05.17/outbox.cif.g08.bks.cpg/sg188_2_cif.got.tgz:2604.got - 2010.05.20 12:11:46.
