data_PCOD9586263
_publ_section_title
;
Structure prediction by ZEFSAII (Michael W. Deem and Ramdas Pophale) SiO2 
 PCOD9586263
Probable space group: P -6 2 M
;
_chemical_formula_sum "Si O2"
_cell_formula_units_Z 76
_cell_length_a 18.336297
_cell_length_b 18.336297
_cell_length_c 14.048012
_cell_angle_alpha 90.000000
_cell_angle_beta 90.000000
_cell_angle_gamma 120.000000
_cell_volume 4090.428172
_symmetry_space_group_name_H-M "P -6 2 M"
_symmetry_group_IT_number 189
_symmetry_cell_setting 'hexagonal'
loop_
_space_group_symop_operation_xyz
x,y,z
-x+y,-x,-z
-y,x-y,z
x,y,-z
-x+y,-x,z
-y,x-y,-z
x-y,-y,-z
-x,-x+y,-z
y,x,-z
y,x,z
x-y,-y,z
-x,-x+y,z
loop_
_atom_site_type_symbol
_atom_site_label
_atom_site_fract_x
_atom_site_fract_y
_atom_site_fract_z
Si Si1 0.351214 0.840980 0.390512
Si Si2 0.898086 0.548646 0.893236
Si Si3 0.501645 0.098474 0.806487
Si Si4 0.252973 0.902182 0.889072
Si Si5 0.100161 0.312595 0.608947
Si Si6 0.333334 0.666668 0.613734
Si Si7 0.791511 0.099696 0.219692
O O1 0.383542 0.853668 0.500000
O O2 0.413724 0.893543 0.305832
O O3 0.280428 0.868214 0.389690
O O4 0.319702 0.744400 0.360865
O O5 0.864819 0.452339 0.865048
O O6 0.882747 0.598688 0.809037
O O7 0.000000 0.595604 0.898412
O O8 0.869117 0.556025 0.000000
O O9 0.439005 0.133215 0.832575
O O10 0.448247 0.000000 0.832035
O O11 0.155744 0.857590 0.861430
O O12 0.294480 0.000000 0.863799
O O13 0.265625 0.895400 0.000000
O O14 0.108676 0.290543 0.500000
O O15 0.159474 0.299919 0.682624
O O16 0.000000 0.260661 0.633188
O O17 0.333334 0.666668 0.500000
O O18 0.753865 0.000000 0.215945
#
# Coordination Sequence:
#
# PCOD9586263 Si02
#       7
#    12  12  12  12  12   4  12
#     4  10  20  34  55  80 114 153 191 231 278 333
#     4   9  19  35  53  77 113 155 191 229 284 341
#     4  10  19  32  54  82 111 148 196 241 280 328
#     4  10  20  35  57  83 111 148 195 242 286 341
#     4  10  21  39  63  87 113 150 196 245 293 347
#     4   9  21  36  48  75 115 155 184 213 267 330
#     4  11  22  36  57  85 116 149 187 235 297 360
#
# _framework density 18.579961000000001
#
# number of rings (size 3 to 8) (size 9 to 14) (size 15 to 20)
#    0.000    2.053    1.579    1.895    2.211    4.105 
#    0.000    0.000    0.000    5.368    0.000    2.211 
#    0.000    0.000    0.000    0.000    0.000    0.000 
#
# Total GULP energy -423128.189631 kJ/mol
# GULP energy per Si atom -5567.476179 kJ/mol
# Density = 1.853767 g / cm^3
# Si number density = 18.579961 Si / 1000 Ang^3
#
#
#
# Elastic Constant Matrix: (Units=GPa)
#
#
# Indices 1 2 3 4 5 6 
#
# 1 81.8818 46.7993 30.3091 -0.0002 0.0001 -0.0001
# 2 46.7993 81.8815 30.3092 0.0000 0.0004 -0.0001
# 3 30.3091 30.3092 102.0324 -0.0002 0.0004 -0.0001
# 4 -0.0002 0.0000 -0.0002 -34.5328 -0.0001 -0.0001
# 5 0.0001 0.0004 0.0004 -0.0001 -34.5317 0.0001
# 6 -0.0001 -0.0001 -0.0001 -0.0001 0.0001 17.5412
#
#
#
# Elastic Compliance Matrix: (Units=1/GPa)
#
#
# Indices 1 2 3 4 5 6 
#
# 1 0.018770 -0.009734 -0.002684 0.000000 0.000000 0.000000
# 2 -0.009734 0.018770 -0.002684 0.000000 0.000000 0.000000
# 3 -0.002684 -0.002684 0.011395 0.000000 0.000000 0.000000
# 4 0.000000 0.000000 0.000000 -0.028958 0.000000 0.000000
# 5 0.000000 0.000000 0.000000 0.000000 -0.028959 0.000000
# 6 0.000000 0.000000 0.000000 0.000000 0.000000 0.057009
#
#
# Mechanical properties :
#
#
# Convention : Reuss Voigt Hill
#
# Bulk Modulus (GPa) = 53.38934 53.40342 53.39638
# Shear Modulus (GPa) = 59.18869 0.25389 29.72129
#
# Velocity S-wave (km/s) = 5.65025 0.37006 4.00389
# Velocity P-wave (km/s) = 8.44775 5.38400 7.08350
#
# Compressibility (1/GPa) = 0.01873033
#
# Stress axis : x y z
#
# Youngs Moduli (GPa) = 53.27675 53.27655 87.75452
#
# Poissons Ratio (x) = 0.51862 0.23553
# Poissons Ratio (y) = 0.51862 0.23554
# Poissons Ratio (z) = 0.14300 0.14300
#
# Static dielectric constant tensor:
#      x y z
#    x 1.672970 0.000000 0.000000 
#    y 0.000000 1.672970 0.000000 
#    z 0.000000 0.000000 1.674370 
# 
# From -- ./inp_files/2726.got.cif
#   From: 2010.05.17/outbox.cif.g08.bks.cpg/sg189_2_cif.got.tgz:2726.got - 2010.05.20 12:14:34.
