data_PCOD9586242
_publ_section_title
;
Structure prediction by ZEFSAII (Michael W. Deem and Ramdas Pophale) SiO2 
 PCOD9586242
Probable space group: P -6 2 M
;
_chemical_formula_sum "Si O2"
_cell_formula_units_Z 72
_cell_length_a 23.797069
_cell_length_b 23.797069
_cell_length_c 7.620843
_cell_angle_alpha 90.000000
_cell_angle_beta 90.000000
_cell_angle_gamma 120.000000
_cell_volume 3737.494705
_symmetry_space_group_name_H-M "P -6 2 M"
_symmetry_group_IT_number 189
_symmetry_cell_setting 'hexagonal'
loop_
_space_group_symop_operation_xyz
x,y,z
-x+y,-x,-z
-y,x-y,z
x,y,-z
-x+y,-x,z
-y,x-y,-z
x-y,-y,-z
-x,-x+y,-z
y,x,-z
y,x,z
x-y,-y,z
-x,-x+y,z
loop_
_atom_site_type_symbol
_atom_site_label
_atom_site_fract_x
_atom_site_fract_y
_atom_site_fract_z
Si Si1 0.441296 0.366711 0.711812
Si Si2 0.699734 0.699734 0.288046
Si Si3 0.168579 0.000000 0.286895
Si Si4 0.426070 0.133950 0.202302
Si Si5 0.781216 0.924980 0.284975
Si Si6 0.146057 0.778950 0.295431
Si Si7 0.074402 0.507419 0.790742
O O1 0.440065 0.365483 0.500000
O O2 0.398742 0.398742 0.771829
O O3 0.408711 0.293428 0.779169
O O4 0.515042 0.417566 0.761817
O O5 0.695182 0.695182 0.500000
O O6 0.765359 0.765359 0.243207
O O7 0.702023 0.638300 0.215704
O O8 0.164728 0.000000 0.500000
O O9 0.109440 0.931218 0.226596
O O10 0.407119 0.183532 0.285826
O O11 0.481707 0.121069 0.278749
O O12 0.441176 0.153874 0.000000
O O13 0.780864 0.923257 0.500000
O O14 0.706154 0.883777 0.224189
O O15 0.814356 0.000000 0.232671
O O16 0.127439 0.770421 0.500000
O O17 0.000000 0.465475 0.721364
O O18 0.070317 0.496186 0.000000
#
# Coordination Sequence:
#
# PCOD9586242 Si02
#       7
#    12   6   6  12  12  12  12
#     4   9  18  32  51  76 102 130 168 210 251 298
#     4  11  19  31  51  75 103 131 164 209 258 310
#     4   9  16  27  43  69  97 129 170 209 260 310
#     4  11  21  33  50  76 106 135 167 204 251 309
#     4   9  16  27  44  66  96 133 171 214 261 304
#     4  10  19  32  50  74 102 133 169 211 257 302
#     4   9  18  33  50  70 100 132 159 195 244 297
#
# _framework density 19.264240999999998
#
# number of rings (size 3 to 8) (size 9 to 14) (size 15 to 20)
#    0.000    2.333    2.500    1.250    0.000    4.000 
#    0.500    0.000    0.000    2.167    0.000    0.000 
#    0.000    0.000    0.000    0.000    0.000    0.000 
#
# Total GULP energy -401595.769911 kJ/mol
# GULP energy per Si atom -5577.719027 kJ/mol
# Density = 1.922040 g / cm^3
# Si number density = 19.264241 Si / 1000 Ang^3
#
#
#
# Elastic Constant Matrix: (Units=GPa)
#
#
# Indices 1 2 3 4 5 6 
#
# 1 138.8197 82.6247 -1.6470 0.0000 0.0000 0.0000
# 2 82.6247 138.8197 -1.6470 0.0000 0.0000 0.0000
# 3 -1.6470 -1.6470 36.9174 0.0000 0.0000 0.0000
# 4 0.0000 0.0000 0.0000 57.6411 0.0000 0.0000
# 5 0.0000 0.0000 0.0000 0.0000 57.6411 0.0000
# 6 0.0000 0.0000 0.0000 0.0000 0.0000 28.0975
#
#
#
# Elastic Compliance Matrix: (Units=1/GPa)
#
#
# Indices 1 2 3 4 5 6 
#
# 1 0.011157 -0.006638 0.000202 0.000000 0.000000 0.000000
# 2 -0.006638 0.011157 0.000202 0.000000 0.000000 0.000000
# 3 0.000202 0.000202 0.027105 0.000000 0.000000 0.000000
# 4 0.000000 0.000000 0.000000 0.017349 0.000000 0.000000
# 5 0.000000 0.000000 0.000000 0.000000 0.017349 0.000000
# 6 0.000000 0.000000 0.000000 0.000000 0.000000 0.035590
#
#
# Mechanical properties :
#
#
# Convention : Reuss Voigt Hill
#
# Bulk Modulus (GPa) = 27.06398 52.57981 39.82189
# Shear Modulus (GPa) = 34.60356 44.35768 39.48062
#
# Velocity S-wave (km/s) = 4.24283 4.80374 4.53197
# Velocity P-wave (km/s) = 6.17101 7.62372 6.93551
#
# Compressibility (1/GPa) = 0.03694949
#
# Stress axis : x y z
#
# Youngs Moduli (GPa) = 89.62990 89.62990 36.89288
#
# Poissons Ratio (x) = 0.59498 -0.00744
# Poissons Ratio (y) = 0.59498 -0.00744
# Poissons Ratio (z) = -0.01807 -0.01807
#
# Static dielectric constant tensor:
#      x y z
#    x 1.665670 0.000000 0.000000 
#    y 0.000000 1.665670 0.000000 
#    z 0.000000 0.000000 1.724910 
# 
# From -- ./inp_files/1370.got.cif
#   From: 2010.05.17/outbox.cif.g08.bks.cpg/sg189_1_cif.got.tgz:1370.got - 2010.05.20 12:14:34.
