data_PCOD9586732
_publ_section_title
;
Structure prediction by ZEFSAII (Michael W. Deem and Ramdas Pophale) SiO2 
 PCOD9586732
Probable space group: P -6 2 C
;
_chemical_formula_sum "Si O2"
_cell_formula_units_Z 60
_cell_length_a 14.292504
_cell_length_b 14.292504
_cell_length_c 17.093824
_cell_angle_alpha 90.000000
_cell_angle_beta 90.000000
_cell_angle_gamma 120.000000
_cell_volume 3024.032850
_symmetry_space_group_name_H-M "P -6 2 C"
_symmetry_group_IT_number 190
_symmetry_cell_setting 'hexagonal'
loop_
_space_group_symop_operation_xyz
x,y,z
-x+y,-x,1/2-z
-y,x-y,z
x,y,1/2-z
-x+y,-x,z
-y,x-y,1/2-z
x-y,-y,-z
-x,-x+y,-z
y,x,-z
y,x,1/2+z
x-y,-y,1/2+z
-x,-x+y,1/2+z
loop_
_atom_site_type_symbol
_atom_site_label
_atom_site_fract_x
_atom_site_fract_y
_atom_site_fract_z
Si Si1 0.844959 0.785939 0.927585
Si Si2 0.015486 0.727700 0.340513
Si Si3 0.376751 0.480759 0.449029
Si Si4 0.293298 0.841080 0.998783
Si Si5 0.354628 0.124282 0.159840
O O1 0.944946 0.782604 0.889326
O O2 0.776387 0.668331 0.968081
O O3 0.764148 0.790349 0.863888
O O4 0.865487 0.865487 0.000000
O O5 0.039113 0.756383 0.250000
O O6 0.080418 0.668797 0.370095
O O7 0.886557 0.654065 0.349017
O O8 0.400309 0.400309 0.500000
O O9 0.483546 0.596809 0.452891
O O10 0.285547 0.500932 0.486834
O O11 0.307106 0.868797 0.906422
O O12 0.379741 0.113876 0.250000
#
# Coordination Sequence:
#
# PCOD9586732 Si02
#       5
#    12  12  12  12  12
#     4   9  19  34  58  85 114 152 200 242 299 371
#     4  10  21  37  59  87 123 164 201 255 317 367
#     4  11  20  38  60  84 121 159 208 258 308 381
#     4  10  21  36  58  87 112 159 203 247 308 368
#     4  10  19  36  57  84 120 155 200 251 307 365
#
# _framework density 19.841054
#
# number of rings (size 3 to 8) (size 9 to 14) (size 15 to 20)
#    0.000    2.000    2.000    2.800    0.000    0.000 
#    1.200    9.000    0.000    0.000    0.000    0.000 
#    0.000    0.000    0.000    0.000    0.000    0.000 
#
# Total GULP energy -334605.733775 kJ/mol
# GULP energy per Si atom -5576.762230 kJ/mol
# Density = 1.979589 g / cm^3
# Si number density = 19.841054 Si / 1000 Ang^3
#
#
#
# Elastic Constant Matrix: (Units=GPa)
#
#
# Indices 1 2 3 4 5 6 
#
# 1 57.3451 4.8108 21.1994 0.0000 0.0000 0.0000
# 2 4.8108 57.3451 21.1994 0.0000 0.0000 0.0000
# 3 21.1994 21.1994 104.0836 0.0000 0.0000 0.0000
# 4 0.0000 0.0000 0.0000 21.4017 0.0000 0.0000
# 5 0.0000 0.0000 0.0000 0.0000 21.4017 0.0000
# 6 0.0000 0.0000 0.0000 0.0000 0.0000 26.2672
#
#
#
# Elastic Compliance Matrix: (Units=1/GPa)
#
#
# Indices 1 2 3 4 5 6 
#
# 1 0.018860 -0.000175 -0.003806 0.000000 0.000000 0.000000
# 2 -0.000175 0.018860 -0.003806 0.000000 0.000000 0.000000
# 3 -0.003806 -0.003806 0.011158 0.000000 0.000000 0.000000
# 4 0.000000 0.000000 0.000000 0.046725 0.000000 0.000000
# 5 0.000000 0.000000 0.000000 0.000000 0.046725 0.000000
# 6 0.000000 0.000000 0.000000 0.000000 0.000000 0.038070
#
#
# Mechanical properties :
#
#
# Convention : Reuss Voigt Hill
#
# Bulk Modulus (GPa) = 30.02596 34.79922 32.41259
# Shear Modulus (GPa) = 24.14608 25.25173 24.69891
#
# Velocity S-wave (km/s) = 3.49230 3.57136 3.53205
# Velocity P-wave (km/s) = 5.60604 5.88075 5.74504
#
# Compressibility (1/GPa) = 0.03330452
#
# Stress axis : x y z
#
# Youngs Moduli (GPa) = 53.02270 53.02270 89.62270
#
# Poissons Ratio (x) = 0.00930 0.34107
# Poissons Ratio (y) = 0.00930 0.34107
# Poissons Ratio (z) = 0.20178 0.20178
#
# Static dielectric constant tensor:
#      x y z
#    x 1.739390 0.000000 0.000000 
#    y 0.000000 1.739390 0.000000 
#    z 0.000000 0.000000 1.705930 
# 
# From -- ./inp_files/2796.got.cif
#   From: 2010.05.17/outbox.cif.g08.bks.cpg/sg190_2_cif.got.tgz:2796.got - 2010.05.20 12:16:56.
