data_PCOD9586191
_publ_section_title
;
Structure prediction by ZEFSAII (Michael W. Deem and Ramdas Pophale) SiO2 
 PCOD9586191
Probable space group: P -6 2 M
;
_chemical_formula_sum "Si O2"
_cell_formula_units_Z 72
_cell_length_a 23.952351
_cell_length_b 23.952351
_cell_length_c 9.260394
_cell_angle_alpha 90.000000
_cell_angle_beta 90.000000
_cell_angle_gamma 120.000000
_cell_volume 4601.044049
_symmetry_space_group_name_H-M "P -6 2 M"
_symmetry_group_IT_number 189
_symmetry_cell_setting 'hexagonal'
loop_
_space_group_symop_operation_xyz
x,y,z
-x+y,-x,-z
-y,x-y,z
x,y,-z
-x+y,-x,z
-y,x-y,-z
x-y,-y,-z
-x,-x+y,-z
y,x,-z
y,x,z
x-y,-y,z
-x,-x+y,z
loop_
_atom_site_type_symbol
_atom_site_label
_atom_site_fract_x
_atom_site_fract_y
_atom_site_fract_z
Si Si1 0.925778 0.074477 0.175922
Si Si2 0.156536 0.298473 0.826276
Si Si3 0.484295 0.405807 0.166376
Si Si4 0.629139 0.922391 0.330297
Si Si5 0.293563 0.924118 0.828504
Si Si6 0.921487 0.404595 0.333610
O O1 0.884777 0.108272 0.217896
O O2 0.000000 0.114218 0.224316
O O3 0.890732 0.000000 0.222475
O O4 0.926929 0.074581 0.000000
O O5 0.224522 0.334272 0.746592
O O6 0.116119 0.334222 0.795595
O O7 0.166470 0.300297 0.000000
O O8 0.445904 0.445904 0.166545
O O9 0.438443 0.340738 0.252683
O O10 0.551637 0.451743 0.245230
O O11 0.492826 0.393434 0.000000
O O12 0.619638 0.907048 0.500000
O O13 0.672608 0.000000 0.316240
O O14 0.337012 0.902202 0.741088
O O15 0.321560 0.000000 0.798100
O O16 0.302259 0.918768 0.000000
O O17 0.901206 0.397284 0.500000
O O18 0.000000 0.444385 0.331325
#
# Coordination Sequence:
#
# PCOD9586191 Si02
#       6
#    12  12  12  12  12  12
#     4   9  16  26  42  64  88 115 154 209 269 321
#     4  10  19  30  45  65  90 121 158 200 247 299
#     4   9  16  27  45  67  90 116 145 176 212 257
#     4  10  20  32  45  63  90 122 154 190 234 285
#     4   9  17  29  44  63  90 123 157 193 234 281
#     4   9  16  26  42  65  92 119 146 176 212 257
#
# _framework density 15.648621
#
# number of rings (size 3 to 8) (size 9 to 14) (size 15 to 20)
#    0.000    2.667    0.000    2.667    0.000    9.000 
#    0.000    0.000    0.000    1.500    0.000    0.000 
#    1.667    1.333    3.000    0.000    3.000    0.000 
#
# Total GULP energy -401335.571719 kJ/mol
# GULP energy per Si atom -5574.105163 kJ/mol
# Density = 1.561300 g / cm^3
# Si number density = 15.648621 Si / 1000 Ang^3
#
#
#
# Elastic Constant Matrix: (Units=GPa)
#
#
# Indices 1 2 3 4 5 6 
#
# 1 105.0064 65.2270 62.8482 0.0000 0.0000 0.0000
# 2 65.2270 105.0064 62.8482 0.0000 0.0000 0.0000
# 3 62.8482 62.8482 82.5209 0.0000 0.0000 0.0000
# 4 0.0000 0.0000 0.0000 14.0534 0.0000 0.0000
# 5 0.0000 0.0000 0.0000 0.0000 14.0534 0.0000
# 6 0.0000 0.0000 0.0000 0.0000 0.0000 19.8897
#
#
#
# Elastic Compliance Matrix: (Units=1/GPa)
#
#
# Indices 1 2 3 4 5 6 
#
# 1 0.019281 -0.005858 -0.010222 0.000000 0.000000 0.000000
# 2 -0.005858 0.019281 -0.010222 0.000000 0.000000 0.000000
# 3 -0.010222 -0.010222 0.027689 0.000000 0.000000 0.000000
# 4 0.000000 0.000000 0.000000 0.071157 0.000000 0.000000
# 5 0.000000 0.000000 0.000000 0.000000 0.071157 0.000000
# 6 0.000000 0.000000 0.000000 0.000000 0.000000 0.050277
#
#
# Mechanical properties :
#
#
# Convention : Reuss Voigt Hill
#
# Bulk Modulus (GPa) = 73.29331 74.93114 74.11223
# Shear Modulus (GPa) = 15.82298 16.37331 16.09815
#
# Velocity S-wave (km/s) = 3.18330 3.23818 3.21086
# Velocity P-wave (km/s) = 7.77494 7.87201 7.82363
#
# Compressibility (1/GPa) = 0.01364381
#
# Stress axis : x y z
#
# Youngs Moduli (GPa) = 51.86587 51.86587 36.11529
#
# Poissons Ratio (x) = 0.30384 0.36919
# Poissons Ratio (y) = 0.30384 0.36919
# Poissons Ratio (z) = 0.53020 0.53020
#
# Static dielectric constant tensor:
#      x y z
#    x 1.500840 0.000000 0.000000 
#    y 0.000000 1.500840 0.000000 
#    z 0.000000 0.000000 1.521360 
# 
# From -- ./inp_files/1269.got.cif
#   From: 2010.05.17/outbox.cif.g08.bks.cpg/sg189_1_cif.got.tgz:1269.got - 2010.05.20 12:14:34.
