data_PCOD9586743
_publ_section_title
;
Structure prediction by ZEFSAII (Michael W. Deem and Ramdas Pophale) SiO2 
 PCOD9586743
Probable space group: P -6 2 C
;
_chemical_formula_sum "Si O2"
_cell_formula_units_Z 28
_cell_length_a 13.130220
_cell_length_b 13.130220
_cell_length_c 10.360589
_cell_angle_alpha 90.000000
_cell_angle_beta 90.000000
_cell_angle_gamma 120.000000
_cell_volume 1546.888758
_symmetry_space_group_name_H-M "P -6 2 C"
_symmetry_group_IT_number 190
_symmetry_cell_setting 'hexagonal'
loop_
_space_group_symop_operation_xyz
x,y,z
-x+y,-x,1/2-z
-y,x-y,z
x,y,1/2-z
-x+y,-x,z
-y,x-y,1/2-z
x-y,-y,-z
-x,-x+y,-z
y,x,-z
y,x,1/2+z
x-y,-y,1/2+z
-x,-x+y,1/2+z
loop_
_atom_site_type_symbol
_atom_site_label
_atom_site_fract_x
_atom_site_fract_y
_atom_site_fract_z
Si Si1 0.138009 0.416224 0.494432
Si Si2 0.865281 0.729531 0.750000
Si Si3 0.286576 0.141796 0.250000
Si Si4 0.666668 0.333334 0.907528
O O1 0.157474 0.348423 0.376489
O O2 0.164829 0.368290 0.625351
O O3 0.218918 0.552706 0.463266
O O4 0.000000 0.375468 0.500000
O O5 0.816160 0.820598 0.750000
O O6 0.004440 0.785314 0.750000
O O7 0.666667 0.333334 0.750000
#
# Coordination Sequence:
#
# PCOD9586743 Si02
#       4
#    12   6   6   4
#     4  10  23  40  62  92 124 159 209 258 298 366
#     4  10  19  38  60  92 127 172 200 250 316 362
#     4  10  21  36  62  94 131 160 210 256 300 364
#     4  12  24  46  68  88 120 172 203 247 324 367
#
# _framework density 18.100847999999999
#
# number of rings (size 3 to 8) (size 9 to 14) (size 15 to 20)
#    0.000    1.714    2.143    1.714    0.000    5.143 
#    0.000    4.286    0.000    0.000    0.000    0.000 
#    0.000    0.000    0.000    0.000    0.000    0.000 
#
# Total GULP energy -156333.599681 kJ/mol
# GULP energy per Si atom -5583.342846 kJ/mol
# Density = 1.805965 g / cm^3
# Si number density = 18.100848 Si / 1000 Ang^3
#
#
#
# Elastic Constant Matrix: (Units=GPa)
#
#
# Indices 1 2 3 4 5 6 
#
# 1 96.9985 59.8363 54.9883 -0.0001 0.0004 -0.0003
# 2 59.8363 96.9950 54.9873 -0.0001 0.0002 -0.0003
# 3 54.9883 54.9873 171.6384 0.0001 0.0001 -0.0001
# 4 -0.0001 -0.0001 0.0001 5.4622 0.0001 0.0001
# 5 0.0004 0.0002 0.0001 0.0001 5.4612 0.0000
# 6 -0.0003 -0.0003 -0.0001 0.0001 0.0000 18.5798
#
#
#
# Elastic Compliance Matrix: (Units=1/GPa)
#
#
# Indices 1 2 3 4 5 6 
#
# 1 0.017567 -0.009343 -0.002635 0.000000 -0.000001 0.000000
# 2 -0.009343 0.017567 -0.002635 0.000000 0.000000 0.000000
# 3 -0.002635 -0.002635 0.007514 0.000000 0.000000 0.000000
# 4 0.000000 0.000000 0.000000 0.183078 -0.000003 -0.000001
# 5 -0.000001 0.000000 0.000000 -0.000003 0.183110 0.000000
# 6 0.000000 0.000000 0.000000 -0.000001 0.000000 0.053822
#
#
# Mechanical properties :
#
#
# Convention : Reuss Voigt Hill
#
# Bulk Modulus (GPa) = 74.49800 78.36174 76.42987
# Shear Modulus (GPa) = 10.07338 18.95530 14.51434
#
# Velocity S-wave (km/s) = 2.36161 3.23957 2.83478
# Velocity P-wave (km/s) = 6.97731 7.57488 7.28223
#
# Compressibility (1/GPa) = 0.01342318
#
# Stress axis : x y z
#
# Youngs Moduli (GPa) = 56.92596 56.92387 133.07950
#
# Poissons Ratio (x) = 0.53186 0.35061
# Poissons Ratio (y) = 0.53188 0.35062
# Poissons Ratio (z) = 0.14998 0.14997
#
# Static dielectric constant tensor:
#      x y z
#    x 1.609170 0.000000 0.000000 
#    y 0.000000 1.609170 0.000000 
#    z 0.000000 0.000000 1.627420 
# 
# From -- ./inp_files/361.got.cif
#   From: 2010.05.17/outbox.cif.g08.bks.cpg/sg190_1_cif.got.tgz:361.got - 2010.05.20 12:16:56.
