data_PCOD9586690
_publ_section_title
;
Structure prediction by ZEFSAII (Michael W. Deem and Ramdas Pophale) SiO2 
 PCOD9586690
Probable space group: P -6 2 C
;
_chemical_formula_sum "Si O2"
_cell_formula_units_Z 72
_cell_length_a 24.883078
_cell_length_b 24.883078
_cell_length_c 8.670776
_cell_angle_alpha 90.000000
_cell_angle_beta 90.000000
_cell_angle_gamma 120.000000
_cell_volume 4649.398813
_symmetry_space_group_name_H-M "P -6 2 C"
_symmetry_group_IT_number 190
_symmetry_cell_setting 'hexagonal'
loop_
_space_group_symop_operation_xyz
x,y,z
-x+y,-x,1/2-z
-y,x-y,z
x,y,1/2-z
-x+y,-x,z
-y,x-y,1/2-z
x-y,-y,-z
-x,-x+y,-z
y,x,-z
y,x,1/2+z
x-y,-y,1/2+z
-x,-x+y,1/2+z
loop_
_atom_site_type_symbol
_atom_site_label
_atom_site_fract_x
_atom_site_fract_y
_atom_site_fract_z
Si Si1 0.068662 0.696932 0.436104
Si Si2 0.817225 0.182775 0.927007
Si Si3 0.483728 0.741864 0.426810
Si Si4 0.858996 0.368661 0.434347
Si Si5 0.490334 0.858996 0.934347
Si Si6 0.931338 0.303068 0.563896
O O1 0.068831 0.698036 0.250000
O O2 0.116487 0.767087 0.494702
O O3 0.097130 0.654137 0.489461
O O4 0.000000 0.669402 0.500000
O O5 0.828359 0.171641 0.750000
O O6 0.779597 0.220403 0.923767
O O7 0.883513 0.232913 0.994702
O O8 0.462036 0.731018 0.250000
O O9 0.466879 0.678278 0.511073
O O10 0.466879 0.788600 0.511073
O O11 0.862284 0.364550 0.250000
O O12 0.876570 0.438285 0.476540
O O13 0.902870 0.345863 0.510539
O O14 0.497735 0.862284 0.750000
O O15 0.931169 0.301964 0.750000
O O16 0.000000 0.330598 0.500000
#
# Coordination Sequence:
#
# PCOD9586690 Si02
#       6
#    12  12  12  12  12  12
#     4  10  19  32  50  71  94 122 156 192 232 281
#     4   7  14  29  47  65  87 115 144 178 219 266
#     4   9  17  31  49  65  83 111 147 186 235 290
#     4  10  20  33  48  66  89 118 153 197 244 289
#     4  10  20  33  48  66  89 118 153 197 244 289
#     4  10  19  32  50  71  94 122 156 192 232 281
#
# _framework density 15.485873
#
# number of rings (size 3 to 8) (size 9 to 14) (size 15 to 20)
#    0.000    2.667    0.000    4.500    0.000    3.333 
#    1.000    2.500    0.000    0.000    0.000    0.000 
#    0.000    0.000    0.000    0.500    0.000    6.000 
#
# Total GULP energy -401010.504243 kJ/mol
# GULP energy per Si atom -5569.590337 kJ/mol
# Density = 1.545063 g / cm^3
# Si number density = 15.485873 Si / 1000 Ang^3
#
#
#
# Elastic Constant Matrix: (Units=GPa)
#
#
# Indices 1 2 3 4 5 6 
#
# 1 95.0065 67.3564 29.1536 0.0000 0.0000 0.0000
# 2 67.3564 95.0065 29.1536 0.0000 0.0000 0.0000
# 3 29.1536 29.1536 48.4426 0.0000 0.0000 0.0000
# 4 0.0000 0.0000 0.0000 19.5241 0.0000 0.0000
# 5 0.0000 0.0000 0.0000 0.0000 19.5241 0.0000
# 6 0.0000 0.0000 0.0000 0.0000 0.0000 13.8251
#
#
#
# Elastic Compliance Matrix: (Units=1/GPa)
#
#
# Indices 1 2 3 4 5 6 
#
# 1 0.022012 -0.014155 -0.004729 0.000000 0.000000 0.000000
# 2 -0.014155 0.022012 -0.004729 0.000000 0.000000 0.000000
# 3 -0.004729 -0.004729 0.026334 0.000000 0.000000 0.000000
# 4 0.000000 0.000000 0.000000 0.051219 0.000000 0.000000
# 5 0.000000 0.000000 0.000000 0.000000 0.051219 0.000000
# 6 0.000000 0.000000 0.000000 0.000000 0.000000 0.072332
#
#
# Mechanical properties :
#
#
# Convention : Reuss Voigt Hill
#
# Bulk Modulus (GPa) = 43.22554 54.42031 48.82292
# Shear Modulus (GPa) = 16.66321 18.09414 17.37868
#
# Velocity S-wave (km/s) = 3.28384 3.42194 3.35360
# Velocity P-wave (km/s) = 6.50781 7.12959 6.82579
#
# Compressibility (1/GPa) = 0.02313447
#
# Stress axis : x y z
#
# Youngs Moduli (GPa) = 45.43049 45.43049 37.97310
#
# Poissons Ratio (x) = 0.64305 0.17956
# Poissons Ratio (y) = 0.64305 0.17956
# Poissons Ratio (z) = 0.21482 0.21482
#
# Static dielectric constant tensor:
#      x y z
#    x 1.521940 0.000000 0.000000 
#    y 0.000000 1.521940 0.000000 
#    z 0.000000 0.000000 1.525960 
# 
# From -- ./inp_files/1262.got.cif
#   From: 2010.05.17/outbox.cif.g08.bks.cpg/sg190_1_cif.got.tgz:1262.got - 2010.05.20 12:16:56.
