data_PCOD9586983
_publ_section_title
;
Structure prediction by ZEFSAII (Michael W. Deem and Ramdas Pophale) SiO2 
 PCOD9586983
Probable space group: P -6 2 C
;
_chemical_formula_sum "Si O2"
_cell_formula_units_Z 28
_cell_length_a 13.933974
_cell_length_b 13.933974
_cell_length_c 8.571329
_cell_angle_alpha 90.000000
_cell_angle_beta 90.000000
_cell_angle_gamma 120.000000
_cell_volume 1441.215050
_symmetry_space_group_name_H-M "P -6 2 C"
_symmetry_group_IT_number 190
_symmetry_cell_setting 'hexagonal'
loop_
_space_group_symop_operation_xyz
x,y,z
-x+y,-x,1/2-z
-y,x-y,z
x,y,1/2-z
-x+y,-x,z
-y,x-y,1/2-z
x-y,-y,-z
-x,-x+y,-z
y,x,-z
y,x,1/2+z
x-y,-y,1/2+z
-x,-x+y,1/2+z
loop_
_atom_site_type_symbol
_atom_site_label
_atom_site_fract_x
_atom_site_fract_y
_atom_site_fract_z
Si Si1 0.457269 0.335140 0.936696
Si Si2 0.333335 0.666667 0.563737
Si Si3 0.121594 0.244760 0.937046
O O1 0.455490 0.334605 0.750000
O O2 0.420252 0.420252 0.000000
O O3 0.575399 0.361409 0.999844
O O4 0.363856 0.214828 0.999544
O O5 0.333334 0.666668 0.750000
O O6 0.123250 0.244993 0.750000
O O7 0.159014 0.159014 0.000000
O O8 0.000000 0.207205 0.000000
#
# Coordination Sequence:
#
# PCOD9586983 Si02
#       3
#    12   4  12
#     4  11  23  42  64  91 122 157 198 247 298 354
#     4  12  25  44  67  93 121 158 199 243 295 353
#     4  11  21  36  57  86 121 161 203 250 301 357
#
# _framework density 19.428051
#
# number of rings (size 3 to 8) (size 9 to 14) (size 15 to 20)
#    0.000    0.857    0.000   12.000    0.000    1.714 
#    0.000    8.571    0.000    0.000    0.000    0.000 
#    0.000    0.000    0.000    0.000    0.000    0.000 
#
# Total GULP energy -156725.719526 kJ/mol
# GULP energy per Si atom -5597.347126 kJ/mol
# Density = 1.938383 g / cm^3
# Si number density = 19.428051 Si / 1000 Ang^3
#
#
#
# Elastic Constant Matrix: (Units=GPa)
#
#
# Indices 1 2 3 4 5 6 
#
# 1 92.6186 64.7764 54.1945 -0.0002 0.0000 -0.0001
# 2 64.7764 92.6221 54.1947 -0.0003 0.0002 0.0000
# 3 54.1945 54.1947 250.5360 0.0000 0.0000 -0.0003
# 4 -0.0002 -0.0003 0.0000 37.3419 0.0000 -0.0001
# 5 0.0000 0.0002 0.0000 0.0000 37.3419 0.0000
# 6 -0.0001 0.0000 -0.0003 -0.0001 0.0000 13.9224
#
#
#
# Elastic Compliance Matrix: (Units=1/GPa)
#
#
# Indices 1 2 3 4 5 6 
#
# 1 0.021690 -0.014224 -0.001615 0.000000 0.000000 0.000000
# 2 -0.014224 0.021689 -0.001615 0.000000 0.000000 0.000000
# 3 -0.001615 -0.001615 0.004690 0.000000 0.000000 0.000000
# 4 0.000000 0.000000 0.000000 0.026780 0.000000 0.000000
# 5 0.000000 0.000000 0.000000 0.000000 0.026780 0.000000
# 6 0.000000 0.000000 0.000000 0.000000 0.000000 0.071826
#
#
# Mechanical properties :
#
#
# Convention : Reuss Voigt Hill
#
# Bulk Modulus (GPa) = 75.97954 86.90086 81.44020
# Shear Modulus (GPa) = 23.50163 35.22866 29.36514
#
# Velocity S-wave (km/s) = 3.48181 4.26289 3.89200
# Velocity P-wave (km/s) = 7.44023 8.31002 7.88712
#
# Compressibility (1/GPa) = 0.01316144
#
# Stress axis : x y z
#
# Youngs Moduli (GPa) = 46.10338 46.10531 213.21566
#
# Poissons Ratio (x) = 0.65582 0.34434
# Poissons Ratio (y) = 0.65580 0.34430
# Poissons Ratio (z) = 0.07446 0.07445
#
# Static dielectric constant tensor:
#      x y z
#    x 1.671220 0.000000 0.000000 
#    y 0.000000 1.671230 0.000000 
#    z 0.000000 0.000000 1.639740 
# 
# From -- ./inp_files/318.got.cif
#   From: 2010.05.17/outbox.cif.g08.bks.cpg/sg190_1_cif.got.tgz:318.got - 2010.05.20 12:16:56.
