data_PCOD9586702
_publ_section_title
;
Structure prediction by ZEFSAII (Michael W. Deem and Ramdas Pophale) SiO2 
 PCOD9586702
Probable space group: P -6 2 C
;
_chemical_formula_sum "Si O2"
_cell_formula_units_Z 72
_cell_length_a 24.368465
_cell_length_b 24.368465
_cell_length_c 8.586346
_cell_angle_alpha 90.000000
_cell_angle_beta 90.000000
_cell_angle_gamma 120.000000
_cell_volume 4415.657330
_symmetry_space_group_name_H-M "P -6 2 C"
_symmetry_group_IT_number 190
_symmetry_cell_setting 'hexagonal'
loop_
_space_group_symop_operation_xyz
x,y,z
-x+y,-x,1/2-z
-y,x-y,z
x,y,1/2-z
-x+y,-x,z
-y,x-y,1/2-z
x-y,-y,-z
-x,-x+y,-z
y,x,-z
y,x,1/2+z
x-y,-y,1/2+z
-x,-x+y,1/2+z
loop_
_atom_site_type_symbol
_atom_site_label
_atom_site_fract_x
_atom_site_fract_y
_atom_site_fract_z
Si Si1 0.597244 0.740009 0.062276
Si Si2 0.139501 0.738348 0.935727
Si Si3 0.403972 0.929629 0.062563
Si Si4 0.071010 0.599390 0.062634
Si Si5 0.740115 0.929971 0.436271
Si Si6 0.738637 0.808535 0.563538
O O1 0.599046 0.744262 0.250000
O O2 0.549930 0.667815 0.013681
O O3 0.579788 0.790519 0.994025
O O4 0.667899 0.762137 0.001655
O O5 0.136414 0.740862 0.750000
O O6 0.116920 0.667894 0.992646
O O7 0.093487 0.761815 0.008035
O O8 0.404442 0.932512 0.250000
O O9 0.457295 0.911982 0.016443
O O10 0.427763 0.000000 0.000000
O O11 0.070886 0.603176 0.250000
O O12 0.000000 0.574086 0.000000
O O13 0.741524 0.929088 0.250000
O O14 0.756258 0.878071 0.503865
O O15 0.785635 0.000000 0.500000
O O16 0.737018 0.807112 0.750000
O O17 0.784987 0.784987 0.500000
#
# Coordination Sequence:
#
# PCOD9586702 Si02
#       6
#    12  12  12  12  12  12
#     4  10  19  33  51  74 100 130 164 203 246 293
#     4  11  21  33  49  73 100 131 165 202 245 293
#     4   9  19  32  50  73  99 128 161 197 241 289
#     4  10  19  33  50  72  99 129 162 201 243 291
#     4  11  21  35  53  75 101 132 165 204 247 293
#     4  11  21  34  51  75 103 134 167 203 244 291
#
# _framework density 16.305613000000001
#
# number of rings (size 3 to 8) (size 9 to 14) (size 15 to 20)
#    0.000    1.667    0.000    8.500    0.000    3.333 
#    0.000    0.000    0.000    1.000    0.000    4.667 
#    0.000    0.000    0.000    0.000    0.000    0.000 
#
# Total GULP energy -402107.739623 kJ/mol
# GULP energy per Si atom -5584.829717 kJ/mol
# Density = 1.626850 g / cm^3
# Si number density = 16.305613 Si / 1000 Ang^3
#
#
#
# Elastic Constant Matrix: (Units=GPa)
#
#
# Indices 1 2 3 4 5 6 
#
# 1 125.9329 87.2990 42.3873 0.0000 0.0000 0.0000
# 2 87.2990 125.9329 42.3873 0.0000 0.0000 0.0000
# 3 42.3873 42.3873 108.4998 0.0000 0.0000 0.0000
# 4 0.0000 0.0000 0.0000 23.9994 0.0000 0.0000
# 5 0.0000 0.0000 0.0000 0.0000 23.9994 0.0000
# 6 0.0000 0.0000 0.0000 0.0000 0.0000 19.3169
#
#
#
# Elastic Compliance Matrix: (Units=1/GPa)
#
#
# Indices 1 2 3 4 5 6 
#
# 1 0.015718 -0.010166 -0.002169 0.000000 0.000000 0.000000
# 2 -0.010166 0.015718 -0.002169 0.000000 0.000000 0.000000
# 3 -0.002169 -0.002169 0.010911 0.000000 0.000000 0.000000
# 4 0.000000 0.000000 0.000000 0.041668 0.000000 0.000000
# 5 0.000000 0.000000 0.000000 0.000000 0.041668 0.000000
# 6 0.000000 0.000000 0.000000 0.000000 0.000000 0.051768
#
#
# Mechanical properties :
#
#
# Convention : Reuss Voigt Hill
#
# Bulk Modulus (GPa) = 74.96578 78.27921 76.62249
# Shear Modulus (GPa) = 23.70732 26.01595 24.86163
#
# Velocity S-wave (km/s) = 3.81719 3.99873 3.90901
# Velocity P-wave (km/s) = 8.09340 8.33256 8.21385
#
# Compressibility (1/GPa) = 0.01333942
#
# Stress axis : x y z
#
# Youngs Moduli (GPa) = 63.62118 63.62118 91.64789
#
# Poissons Ratio (x) = 0.64677 0.19878
# Poissons Ratio (y) = 0.64677 0.19878
# Poissons Ratio (z) = 0.13799 0.13799
#
# Static dielectric constant tensor:
#      x y z
#    x 1.534490 0.000000 0.000000 
#    y 0.000000 1.534490 0.000000 
#    z 0.000000 0.000000 1.546430 
# 
# From -- ./inp_files/1240.got.cif
#   From: 2010.05.17/outbox.cif.g08.bks.cpg/sg190_1_cif.got.tgz:1240.got - 2010.05.20 12:16:56.
