data_PCOD9586120
_publ_section_title
;
Structure prediction by ZEFSAII (Michael W. Deem and Ramdas Pophale) SiO2 
 PCOD9586120
Probable space group: P -6 2 M
;
_chemical_formula_sum "Si O2"
_cell_formula_units_Z 40
_cell_length_a 17.349081
_cell_length_b 17.349081
_cell_length_c 7.481391
_cell_angle_alpha 90.000000
_cell_angle_beta 90.000000
_cell_angle_gamma 120.000000
_cell_volume 1950.140645
_symmetry_space_group_name_H-M "P -6 2 M"
_symmetry_group_IT_number 189
_symmetry_cell_setting 'hexagonal'
loop_
_space_group_symop_operation_xyz
x,y,z
-x+y,-x,-z
-y,x-y,z
x,y,-z
-x+y,-x,z
-y,x-y,-z
x-y,-y,-z
-x,-x+y,-z
y,x,-z
y,x,z
x-y,-y,z
-x,-x+y,z
loop_
_atom_site_type_symbol
_atom_site_label
_atom_site_fract_x
_atom_site_fract_y
_atom_site_fract_z
Si Si1 0.000000 0.387532 0.299419
Si Si2 0.788402 0.788402 0.209208
Si Si3 0.666668 0.333335 0.282086
Si Si4 0.901745 0.706168 0.286880
Si Si5 0.530976 0.724102 0.280347
O O1 0.000000 0.420523 0.500000
O O2 0.000000 0.293969 0.308181
O O3 0.096568 0.452323 0.218626
O O4 0.874762 0.781683 0.253982
O O5 0.770875 0.770875 0.000000
O O6 0.666667 0.333334 0.500000
O O7 0.706863 0.435196 0.225879
O O8 0.904264 0.696009 0.500000
O O9 0.818795 0.613350 0.220341
O O10 0.000000 0.737881 0.215553
O O11 0.533957 0.723429 0.500000
#
# Coordination Sequence:
#
# PCOD9586120 Si02
#       5
#     6   6   4  12  12
#     4   8  14  28  46  62  86 123 160 183 220 289
#     4  10  18  28  46  70  92 115 148 197 242 271
#     4   9  15  24  39  69 106 122 145 204 259 275
#     4   9  17  31  48  65  92 130 165 190 223 283
#     4   8  14  25  41  63  93 125 154 191 238 281
#
# _framework density 20.511343
#
# number of rings (size 3 to 8) (size 9 to 14) (size 15 to 20)
#    0.000    3.300    0.000    3.150    0.000    0.600 
#    3.600    0.000    0.000    0.000    0.000   33.600 
#    0.000    0.000    0.000    0.000    0.000    0.000 
#
# Total GULP energy -222813.523319 kJ/mol
# GULP energy per Si atom -5570.338083 kJ/mol
# Density = 2.046466 g / cm^3
# Si number density = 20.511343 Si / 1000 Ang^3
#
#
#
# Elastic Constant Matrix: (Units=GPa)
#
#
# Indices 1 2 3 4 5 6 
#
# 1 144.8146 88.6981 -0.8175 -0.0001 0.0000 0.0004
# 2 88.6981 144.8170 -0.8175 -0.0001 0.0000 0.0001
# 3 -0.8175 -0.8175 63.5078 0.0000 0.0000 0.0000
# 4 -0.0001 -0.0001 0.0000 -18.6795 0.0000 0.0000
# 5 0.0000 0.0000 0.0000 0.0000 -18.6795 0.0000
# 6 0.0004 0.0001 0.0000 0.0000 0.0000 28.0580
#
#
#
# Elastic Compliance Matrix: (Units=1/GPa)
#
#
# Indices 1 2 3 4 5 6 
#
# 1 0.011051 -0.006768 0.000055 0.000000 0.000000 0.000000
# 2 -0.006768 0.011051 0.000055 0.000000 0.000000 0.000000
# 3 0.000055 0.000055 0.015748 0.000000 0.000000 0.000000
# 4 0.000000 0.000000 0.000000 -0.053535 0.000000 0.000000
# 5 0.000000 0.000000 0.000000 0.000000 -0.053535 0.000000
# 6 0.000000 0.000000 0.000000 0.000000 0.000000 0.035640
#
#
# Mechanical properties :
#
#
# Convention : Reuss Voigt Hill
#
# Bulk Modulus (GPa) = 40.76044 58.58509 49.67277
# Shear Modulus (GPa) = -413.75501 15.87821 -198.93840
#
# Velocity S-wave (km/s) = -14.21823 2.78532 -9.85901
# Velocity P-wave (km/s) = 15.79964 6.24246 10.26305
#
# Compressibility (1/GPa) = 0.02453359
#
# Stress axis : x y z
#
# Youngs Moduli (GPa) = 90.48681 90.48828 63.50211
#
# Poissons Ratio (x) = 0.61247 -0.00350
# Poissons Ratio (y) = 0.61246 -0.00350
# Poissons Ratio (z) = -0.00499 -0.00499
#
# Static dielectric constant tensor:
#      x y z
#    x 1.732950 0.000000 0.000000 
#    y 0.000000 1.732950 0.000000 
#    z 0.000000 0.000000 1.764900 
# 
# From -- ./inp_files/515.got.cif
#   From: 2010.05.17/outbox.cif.g08.bks.cpg/sg189_1_cif.got.tgz:515.got - 2010.05.20 12:14:34.
