data_PCOD9586623
_publ_section_title
;
Structure prediction by ZEFSAII (Michael W. Deem and Ramdas Pophale) SiO2 
 PCOD9586623
Probable space group: P -6 2 C
;
_chemical_formula_sum "Si O2"
_cell_formula_units_Z 40
_cell_length_a 19.660111
_cell_length_b 19.660111
_cell_length_c 8.631595
_cell_angle_alpha 90.000000
_cell_angle_beta 90.000000
_cell_angle_gamma 120.000000
_cell_volume 2889.306519
_symmetry_space_group_name_H-M "P -6 2 C"
_symmetry_group_IT_number 190
_symmetry_cell_setting 'hexagonal'
loop_
_space_group_symop_operation_xyz
x,y,z
-x+y,-x,1/2-z
-y,x-y,z
x,y,1/2-z
-x+y,-x,z
-y,x-y,1/2-z
x-y,-y,-z
-x,-x+y,-z
y,x,-z
y,x,1/2+z
x-y,-y,1/2+z
-x,-x+y,1/2+z
loop_
_atom_site_type_symbol
_atom_site_label
_atom_site_fract_x
_atom_site_fract_y
_atom_site_fract_z
Si Si1 0.239399 0.484970 0.437111
Si Si2 0.085347 0.614912 0.063966
Si Si3 0.333334 0.666668 0.062051
Si Si4 0.085493 0.463393 0.565594
O O1 0.231520 0.482048 0.250000
O O2 0.298608 0.453695 0.479064
O O3 0.285038 0.576502 0.486490
O O4 0.153904 0.447009 0.511231
O O5 0.082815 0.608994 0.250000
O O6 0.103267 0.547968 0.001122
O O7 0.000000 0.591575 0.000000
O O8 0.333334 0.666668 0.250000
O O9 0.082127 0.465861 0.750000
O O10 0.000000 0.401703 0.500000
#
# Coordination Sequence:
#
# PCOD9586623 Si02
#       4
#    12  12   4  12
#     4  10  18  31  47  61  81 114 147 180 222 260
#     4  10  19  31  46  62  85 114 143 178 219 261
#     4   9  15  27  43  59  82 111 145 176 217 261
#     4  11  21  31  44  62  85 111 143 182 219 259
#
# _framework density 13.844153
#
# number of rings (size 3 to 8) (size 9 to 14) (size 15 to 20)
#    0.000    1.800    3.000    5.400    0.000    2.400 
#    0.000    0.000    0.000    0.000    0.000    0.000 
#    0.000    0.000    0.000    0.900    0.000   14.400 
#
# Total GULP energy -223150.348465 kJ/mol
# GULP energy per Si atom -5578.758712 kJ/mol
# Density = 1.381264 g / cm^3
# Si number density = 13.844153 Si / 1000 Ang^3
#
#
#
# Elastic Constant Matrix: (Units=GPa)
#
#
# Indices 1 2 3 4 5 6 
#
# 1 97.2554 50.4651 36.9838 0.0005 0.0014 0.0000
# 2 50.4651 97.2548 36.9838 0.0010 -0.0045 0.0000
# 3 36.9838 36.9838 65.3435 0.0002 -0.0009 0.0000
# 4 0.0005 0.0010 0.0002 207.3770 -0.2876 0.0030
# 5 0.0014 -0.0045 -0.0009 -0.2876 207.6783 0.0003
# 6 0.0000 0.0000 0.0000 0.0030 0.0003 23.3952
#
#
#
# Elastic Compliance Matrix: (Units=1/GPa)
#
#
# Indices 1 2 3 4 5 6 
#
# 1 0.015409 -0.005963 -0.005347 0.000000 0.000000 0.000000
# 2 -0.005963 0.015410 -0.005347 0.000000 0.000000 0.000000
# 3 -0.005347 -0.005347 0.021356 0.000000 0.000000 0.000000
# 4 0.000000 0.000000 0.000000 0.004822 0.000007 -0.000001
# 5 0.000000 0.000000 0.000000 0.000007 0.004815 0.000000
# 6 0.000000 0.000000 0.000000 -0.000001 0.000000 0.042744
#
#
# Mechanical properties :
#
#
# Convention : Reuss Voigt Hill
#
# Bulk Modulus (GPa) = 53.01485 56.52435 54.76960
# Shear Modulus (GPa) = 34.68455 96.71818 65.70136
#
# Velocity S-wave (km/s) = 5.01078 8.36742 6.89644
# Velocity P-wave (km/s) = 8.47670 11.58747 10.15194
#
# Compressibility (1/GPa) = 0.01886264
#
# Stress axis : x y z
#
# Youngs Moduli (GPa) = 64.89544 64.89493 46.82473
#
# Poissons Ratio (x) = 0.38694 0.25036
# Poissons Ratio (y) = 0.38695 0.25037
# Poissons Ratio (z) = 0.34698 0.34698
#
# Static dielectric constant tensor:
#      x y z
#    x 1.453700 0.000000 0.000000 
#    y 0.000000 1.453700 0.000000 
#    z 0.000000 0.000000 1.465990 
# 
# From -- ./inp_files/526.got.cif
#   From: 2010.05.17/outbox.cif.g08.bks.cpg/sg190_1_cif.got.tgz:526.got - 2010.05.20 12:16:56.
