data_PCOD9586501
_publ_section_title
;
Structure prediction by ZEFSAII (Michael W. Deem and Ramdas Pophale) SiO2 
 PCOD9586501
Probable space group: P -6 2 M
;
_chemical_formula_sum "Si O2"
_cell_formula_units_Z 84
_cell_length_a 18.092278
_cell_length_b 18.092278
_cell_length_c 15.072575
_cell_angle_alpha 90.000000
_cell_angle_beta 90.000000
_cell_angle_gamma 120.000000
_cell_volume 4272.721539
_symmetry_space_group_name_H-M "P -6 2 M"
_symmetry_group_IT_number 189
_symmetry_cell_setting 'hexagonal'
loop_
_space_group_symop_operation_xyz
x,y,z
-x+y,-x,-z
-y,x-y,z
x,y,-z
-x+y,-x,z
-y,x-y,-z
x-y,-y,-z
-x,-x+y,-z
y,x,-z
y,x,z
x-y,-y,z
-x,-x+y,z
loop_
_atom_site_type_symbol
_atom_site_label
_atom_site_fract_x
_atom_site_fract_y
_atom_site_fract_z
Si Si1 0.377766 0.184690 0.098625
Si Si2 0.383747 0.178004 0.707225
Si Si3 0.184727 0.092574 0.106329
Si Si4 0.101784 0.617635 0.286684
Si Si5 0.897798 0.795901 0.394308
Si Si6 0.379197 0.900649 0.395030
Si Si7 0.489558 0.388094 0.906228
O O1 0.392695 0.151210 0.191567
O O2 0.281605 0.164976 0.115360
O O3 0.439501 0.285685 0.093045
O O4 0.378810 0.148565 0.000000
O O5 0.428111 0.280677 0.708072
O O6 0.287629 0.136699 0.668344
O O7 0.436886 0.150802 0.645064
O O8 0.121035 0.121035 0.145223
O O9 0.163008 0.000000 0.139877
O O10 0.171822 0.084883 0.000000
O O11 0.129610 0.573018 0.359811
O O12 0.119418 0.588613 0.190394
O O13 0.000000 0.578965 0.294403
O O14 0.885206 0.771206 0.500000
O O15 0.856377 0.856377 0.380781
O O16 0.000000 0.847165 0.378142
O O17 0.375481 0.897326 0.500000
O O18 0.420985 0.000000 0.367081
O O19 0.422809 0.422809 0.906792
O O20 0.539095 0.418248 0.000000
#
# Coordination Sequence:
#
# PCOD9586501 Si02
#       7
#    12  12  12  12  12  12  12
#     4   9  18  31  47  70 102 139 179 226 274 320
#     4  11  21  36  60  86 112 149 194 233 275 341
#     4   9  16  25  37  56  89 137 190 238 281 322
#     4   9  19  36  57  83 113 143 179 227 278 327
#     4  10  21  37  58  85 117 153 196 247 297 343
#     4  10  22  40  59  80 111 147 179 222 285 345
#     4   8  13  25  49  77 102 131 170 214 261 317
#
# _framework density 19.659602
#
# number of rings (size 3 to 8) (size 9 to 14) (size 15 to 20)
#    0.000    2.571    0.000    2.000    0.000    8.000 
#    0.857    2.143    0.000    2.571    0.000    0.000 
#    0.000    0.000    0.000    0.000    0.000    0.000 
#
# Total GULP energy -467681.562475 kJ/mol
# GULP energy per Si atom -5567.637649 kJ/mol
# Density = 1.961486 g / cm^3
# Si number density = 19.659602 Si / 1000 Ang^3
#
#
#
# Elastic Constant Matrix: (Units=GPa)
#
#
# Indices 1 2 3 4 5 6 
#
# 1 48.8149 19.8550 33.6401 0.0000 0.0000 0.0000
# 2 19.8550 48.8149 33.6401 0.0000 0.0000 0.0000
# 3 33.6401 33.6401 105.8810 0.0000 0.0000 0.0000
# 4 0.0000 0.0000 0.0000 14.2631 0.0000 0.0000
# 5 0.0000 0.0000 0.0000 0.0000 14.2631 0.0000
# 6 0.0000 0.0000 0.0000 0.0000 0.0000 14.4799
#
#
#
# Elastic Compliance Matrix: (Units=1/GPa)
#
#
# Indices 1 2 3 4 5 6 
#
# 1 0.027837 -0.006693 -0.006718 0.000000 0.000000 0.000000
# 2 -0.006693 0.027837 -0.006718 0.000000 0.000000 0.000000
# 3 -0.006718 -0.006718 0.013713 0.000000 0.000000 0.000000
# 4 0.000000 0.000000 0.000000 0.070111 0.000000 0.000000
# 5 0.000000 0.000000 0.000000 0.000000 0.070111 0.000000
# 6 0.000000 0.000000 0.000000 0.000000 0.000000 0.069061
#
#
# Mechanical properties :
#
#
# Convention : Reuss Voigt Hill
#
# Bulk Modulus (GPa) = 34.32834 41.97570 38.15202
# Shear Modulus (GPa) = 15.21426 16.35961 15.78693
#
# Velocity S-wave (km/s) = 2.78490 2.88782 2.83682
# Velocity P-wave (km/s) = 5.27637 5.70236 5.49350
#
# Compressibility (1/GPa) = 0.02913045
#
# Stress axis : x y z
#
# Youngs Moduli (GPa) = 35.92281 35.92281 72.92162
#
# Poissons Ratio (x) = 0.24043 0.48988
# Poissons Ratio (y) = 0.24043 0.48988
# Poissons Ratio (z) = 0.24133 0.24133
#
# Static dielectric constant tensor:
#      x y z
#    x 1.679720 0.000000 0.000000 
#    y 0.000000 1.679720 0.000000 
#    z 0.000000 0.000000 1.777620 
# 
# From -- ./inp_files/2795.got.cif
#   From: 2010.05.17/outbox.cif.g08.bks.cpg/sg189_2_cif.got.tgz:2795.got - 2010.05.20 12:14:34.
