data_PCOD9586511
_publ_section_title
;
Structure prediction by ZEFSAII (Michael W. Deem and Ramdas Pophale) SiO2 
 PCOD9586511
Probable space group: P -6 2 M
;
_chemical_formula_sum "Si O2"
_cell_formula_units_Z 48
_cell_length_a 18.052944
_cell_length_b 18.052944
_cell_length_c 8.842262
_cell_angle_alpha 90.000000
_cell_angle_beta 90.000000
_cell_angle_gamma 120.000000
_cell_volume 2495.686793
_symmetry_space_group_name_H-M "P -6 2 M"
_symmetry_group_IT_number 189
_symmetry_cell_setting 'hexagonal'
loop_
_space_group_symop_operation_xyz
x,y,z
-x+y,-x,-z
-y,x-y,z
x,y,-z
-x+y,-x,z
-y,x-y,-z
x-y,-y,-z
-x,-x+y,-z
y,x,-z
y,x,z
x-y,-y,z
-x,-x+y,z
loop_
_atom_site_type_symbol
_atom_site_label
_atom_site_fract_x
_atom_site_fract_y
_atom_site_fract_z
Si Si1 0.282514 0.182793 0.819248
Si Si2 0.000000 0.369490 0.174789
Si Si3 0.723302 0.194013 0.678218
Si Si4 0.535022 0.147274 0.679045
Si Si5 0.789667 0.789667 0.678875
O O1 0.243275 0.243275 0.778494
O O2 0.380621 0.225406 0.763397
O O3 0.225185 0.088582 0.748763
O O4 0.281229 0.174562 0.000000
O O5 0.919579 0.379002 0.217401
O O6 0.000000 0.297409 0.279628
O O7 0.000000 0.346584 0.000000
O O8 0.727015 0.177133 0.500000
O O9 0.624664 0.155087 0.721779
O O10 0.766975 0.296336 0.694587
O O11 0.519264 0.123034 0.500000
O O12 0.800284 0.800284 0.500000
#
# Coordination Sequence:
#
# PCOD9586511 Si02
#       5
#    12   6  12  12   6
#     4  11  25  44  66  95 131 167 205 258 325 387
#     4  12  24  38  60  90 123 164 207 256 314 376
#     4  10  21  38  63  91 127 170 216 261 307 364
#     4  10  21  38  60  90 123 164 211 260 306 363
#     4  12  24  44  72  96 121 160 213 266 318 384
#
# _framework density 19.233184000000001
#
# number of rings (size 3 to 8) (size 9 to 14) (size 15 to 20)
#    0.000    1.250    2.500    3.500    1.750    5.000 
#    0.750    0.000    0.000    3.000    0.000    0.000 
#    0.000    0.000    0.000    0.000    0.000    0.000 
#
# Total GULP energy -268174.325952 kJ/mol
# GULP energy per Si atom -5586.965124 kJ/mol
# Density = 1.918941 g / cm^3
# Si number density = 19.233184 Si / 1000 Ang^3
#
#
#
# Elastic Constant Matrix: (Units=GPa)
#
#
# Indices 1 2 3 4 5 6 
#
# 1 71.1062 43.9911 28.5135 0.0000 0.0000 0.0000
# 2 43.9911 71.1062 28.5135 0.0000 0.0000 0.0000
# 3 28.5135 28.5135 48.3151 0.0000 0.0000 0.0000
# 4 0.0000 0.0000 0.0000 42.3629 0.0000 0.0000
# 5 0.0000 0.0000 0.0000 0.0000 42.3629 0.0000
# 6 0.0000 0.0000 0.0000 0.0000 0.0000 13.5576
#
#
#
# Elastic Compliance Matrix: (Units=1/GPa)
#
#
# Indices 1 2 3 4 5 6 
#
# 1 0.024579 -0.012301 -0.007246 0.000000 0.000000 0.000000
# 2 -0.012301 0.024579 -0.007246 0.000000 0.000000 0.000000
# 3 -0.007246 -0.007246 0.029250 0.000000 0.000000 0.000000
# 4 0.000000 0.000000 0.000000 0.023606 0.000000 0.000000
# 5 0.000000 0.000000 0.000000 0.000000 0.023606 0.000000
# 6 0.000000 0.000000 0.000000 0.000000 0.000000 0.073760
#
#
# Mechanical properties :
#
#
# Convention : Reuss Voigt Hill
#
# Bulk Modulus (GPa) = 40.28623 43.61818 41.95221
# Shear Modulus (GPa) = 19.13950 25.62397 22.38174
#
# Velocity S-wave (km/s) = 3.15799 3.65400 3.41501
# Velocity P-wave (km/s) = 5.85567 6.36633 6.11633
#
# Compressibility (1/GPa) = 0.02482238
#
# Stress axis : x y z
#
# Youngs Moduli (GPa) = 40.68484 40.68484 34.18761
#
# Poissons Ratio (x) = 0.50045 0.24773
# Poissons Ratio (y) = 0.50045 0.24773
# Poissons Ratio (z) = 0.29481 0.29481
#
# Static dielectric constant tensor:
#      x y z
#    x 1.703810 0.000000 0.000000 
#    y 0.000000 1.703810 0.000000 
#    z 0.000000 0.000000 1.652680 
# 
# From -- ./inp_files/675.got.cif
#   From: 2010.05.17/outbox.cif.g08.bks.cpg/sg189_1_cif.got.tgz:675.got - 2010.05.20 12:14:34.
