data_PCOD9586628
_publ_section_title
;
Structure prediction by ZEFSAII (Michael W. Deem and Ramdas Pophale) SiO2 
 PCOD9586628
Probable space group: P -6 2 C
;
_chemical_formula_sum "Si O2"
_cell_formula_units_Z 66
_cell_length_a 21.371153
_cell_length_b 21.371153
_cell_length_c 7.705728
_cell_angle_alpha 90.000000
_cell_angle_beta 90.000000
_cell_angle_gamma 120.000000
_cell_volume 3047.896490
_symmetry_space_group_name_H-M "P -6 2 C"
_symmetry_group_IT_number 190
_symmetry_cell_setting 'hexagonal'
loop_
_space_group_symop_operation_xyz
x,y,z
-x+y,-x,1/2-z
-y,x-y,z
x,y,1/2-z
-x+y,-x,z
-y,x-y,1/2-z
x-y,-y,-z
-x,-x+y,-z
y,x,-z
y,x,1/2+z
x-y,-y,1/2+z
-x,-x+y,1/2+z
loop_
_atom_site_type_symbol
_atom_site_label
_atom_site_fract_x
_atom_site_fract_y
_atom_site_fract_z
Si Si1 0.803216 0.083792 0.956651
Si Si2 0.687407 0.770533 0.950197
Si Si3 0.666774 0.084979 0.957783
Si Si4 0.286211 0.715245 0.250000
Si Si5 0.445097 0.914739 0.041173
Si Si6 0.470976 0.188613 0.450842
O O1 0.803511 0.088332 0.750000
O O2 0.745668 0.106784 0.027717
O O3 0.881265 0.143826 0.021400
O O4 0.773088 0.000000 0.000000
O O5 0.670013 0.755407 0.750000
O O6 0.609439 0.747612 0.030548
O O7 0.725492 0.725492 0.000000
O O8 0.672624 0.095185 0.750000
O O9 0.612049 0.110477 0.019783
O O10 0.623191 0.000000 0.000000
O O11 0.373274 0.744183 0.250000
O O12 0.265968 0.745961 0.418525
O O13 0.438079 0.908902 0.250000
O O14 0.368367 0.865306 0.956133
O O15 0.479778 0.000000 0.000000
O O16 0.471506 0.211333 0.250000
#
# Coordination Sequence:
#
# PCOD9586628 Si02
#       6
#    12  12  12   6  12  12
#     4  10  20  37  62  92 131 173 215 270 331 400
#     4  11  25  42  65 100 135 178 229 286 345 416
#     4   8  16  29  48  79 115 156 203 255 316 380
#     4  10  26  48  68  92 126 174 230 286 344 420
#     4  10  18  31  53  86 127 169 216 270 335 403
#     4  11  24  42  66  95 129 174 229 286 352 417
#
# _framework density 21.654278999999999
#
# number of rings (size 3 to 8) (size 9 to 14) (size 15 to 20)
#    0.182    1.818    0.909    2.182    2.545    5.091 
#    0.000    1.818    0.000    0.364    0.000    2.545 
#    0.000    0.000    0.000    0.000    0.000    0.000 
#
# Total GULP energy -368499.615399 kJ/mol
# GULP energy per Si atom -5583.327506 kJ/mol
# Density = 2.160499 g / cm^3
# Si number density = 21.654279 Si / 1000 Ang^3
#
#
#
# Elastic Constant Matrix: (Units=GPa)
#
#
# Indices 1 2 3 4 5 6 
#
# 1 102.5250 50.2349 14.1029 0.0000 0.0000 0.0000
# 2 50.2349 102.5250 14.1029 0.0000 0.0000 0.0000
# 3 14.1029 14.1029 81.9608 0.0000 0.0000 0.0000
# 4 0.0000 0.0000 0.0000 6.7641 0.0000 0.0000
# 5 0.0000 0.0000 0.0000 0.0000 6.7641 0.0000
# 6 0.0000 0.0000 0.0000 0.0000 0.0000 26.1451
#
#
#
# Elastic Compliance Matrix: (Units=1/GPa)
#
#
# Indices 1 2 3 4 5 6 
#
# 1 0.012943 -0.006182 -0.001163 0.000000 0.000000 0.000000
# 2 -0.006182 0.012943 -0.001163 0.000000 0.000000 0.000000
# 3 -0.001163 -0.001163 0.012601 0.000000 0.000000 0.000000
# 4 0.000000 0.000000 0.000000 0.147840 0.000000 0.000000
# 5 0.000000 0.000000 0.000000 0.000000 0.147840 0.000000
# 6 0.000000 0.000000 0.000000 0.000000 0.000000 0.038248
#
#
# Mechanical properties :
#
#
# Convention : Reuss Voigt Hill
#
# Bulk Modulus (GPa) = 46.57678 49.32133 47.94906
# Shear Modulus (GPa) = 12.60754 21.83930 17.22342
#
# Velocity S-wave (km/s) = 2.41554 3.17920 2.82331
# Velocity P-wave (km/s) = 5.41625 6.02517 5.72880
#
# Compressibility (1/GPa) = 0.02146992
#
# Stress axis : x y z
#
# Youngs Moduli (GPa) = 77.26450 77.26450 79.35679
#
# Poissons Ratio (x) = 0.47761 0.09232
# Poissons Ratio (y) = 0.47761 0.09232
# Poissons Ratio (z) = 0.08989 0.08989
#
# Static dielectric constant tensor:
#      x y z
#    x 1.814330 0.000000 0.000000 
#    y 0.000000 1.814330 0.000000 
#    z 0.000000 0.000000 1.793240 
# 
# From -- ./inp_files/1043.got.cif
#   From: 2010.05.17/outbox.cif.g08.bks.cpg/sg190_1_cif.got.tgz:1043.got - 2010.05.20 12:16:56.
