data_PCOD9586348
_publ_section_title
;
Structure prediction by ZEFSAII (Michael W. Deem and Ramdas Pophale) SiO2 
 PCOD9586348
Probable space group: P -6 2 M
;
_chemical_formula_sum "Si O2"
_cell_formula_units_Z 60
_cell_length_a 13.795649
_cell_length_b 13.795649
_cell_length_c 19.065068
_cell_angle_alpha 90.000000
_cell_angle_beta 90.000000
_cell_angle_gamma 120.000000
_cell_volume 3142.340643
_symmetry_space_group_name_H-M "P -6 2 M"
_symmetry_group_IT_number 189
_symmetry_cell_setting 'hexagonal'
loop_
_space_group_symop_operation_xyz
x,y,z
-x+y,-x,-z
-y,x-y,z
x,y,-z
-x+y,-x,z
-y,x-y,-z
x-y,-y,-z
-x,-x+y,-z
y,x,-z
y,x,z
x-y,-y,z
-x,-x+y,z
loop_
_atom_site_type_symbol
_atom_site_label
_atom_site_fract_x
_atom_site_fract_y
_atom_site_fract_z
Si Si1 0.441976 0.573481 0.074954
Si Si2 0.527961 0.657252 0.418468
Si Si3 0.323994 0.129117 0.078950
Si Si4 0.871270 0.564268 0.808108
Si Si5 0.133473 0.682144 0.349737
O O1 0.478873 0.478873 0.073089
O O2 0.557757 0.688457 0.078709
O O3 0.364016 0.544360 0.142021
O O4 0.385975 0.566534 0.000000
O O5 0.492606 0.636456 0.500000
O O6 0.622371 0.622371 0.408584
O O7 0.422730 0.571527 0.371141
O O8 0.568947 0.784395 0.398734
O O9 0.340886 0.209096 0.143866
O O10 0.228845 0.000000 0.088642
O O11 0.310521 0.164670 0.000000
O O12 0.825552 0.548305 0.729978
O O13 0.000000 0.600501 0.795137
O O14 0.000000 0.637138 0.357271
#
# Coordination Sequence:
#
# PCOD9586348 Si02
#       5
#    12  12  12  12  12
#     4   8  15  29  46  64  92 130 170 211 251 295
#     4  10  21  38  61  85 110 147 186 222 277 343
#     4   9  18  32  50  71  98 138 183 223 264 307
#     4  10  20  32  49  74 103 136 172 210 263 317
#     4  10  22  37  56  86 118 147 184 231 282 336
#
# _framework density 19.094047
#
# number of rings (size 3 to 8) (size 9 to 14) (size 15 to 20)
#    0.000    2.600    0.000    2.800    2.800    3.200 
#    1.200    0.000    0.000    0.800    0.000    0.000 
#    0.000    0.000    0.000    0.000    0.000    0.000 
#
# Total GULP energy -334323.369593 kJ/mol
# GULP energy per Si atom -5572.056160 kJ/mol
# Density = 1.905059 g / cm^3
# Si number density = 19.094047 Si / 1000 Ang^3
#
#
#
# Elastic Constant Matrix: (Units=GPa)
#
#
# Indices 1 2 3 4 5 6 
#
# 1 62.7520 16.7462 25.7293 0.0000 0.0000 0.0000
# 2 16.7462 62.7520 25.7293 0.0000 0.0000 0.0000
# 3 25.7293 25.7293 102.0771 0.0000 0.0000 0.0000
# 4 0.0000 0.0000 0.0000 16.8698 0.0000 0.0000
# 5 0.0000 0.0000 0.0000 0.0000 16.8698 0.0000
# 6 0.0000 0.0000 0.0000 0.0000 0.0000 23.0029
#
#
#
# Elastic Compliance Matrix: (Units=1/GPa)
#
#
# Indices 1 2 3 4 5 6 
#
# 1 0.018384 -0.003353 -0.003789 0.000000 0.000000 0.000000
# 2 -0.003353 0.018384 -0.003789 0.000000 0.000000 0.000000
# 3 -0.003789 -0.003789 0.011706 0.000000 0.000000 0.000000
# 4 0.000000 0.000000 0.000000 0.059277 0.000000 0.000000
# 5 0.000000 0.000000 0.000000 0.000000 0.059277 0.000000
# 6 0.000000 0.000000 0.000000 0.000000 0.000000 0.043473
#
#
# Mechanical properties :
#
#
# Convention : Reuss Voigt Hill
#
# Bulk Modulus (GPa) = 37.57401 40.44338 39.00870
# Shear Modulus (GPa) = 20.72682 21.97360 21.35021
#
# Velocity S-wave (km/s) = 3.29829 3.39604 3.34752
# Velocity P-wave (km/s) = 5.85030 6.05017 5.95107
#
# Compressibility (1/GPa) = 0.02661414
#
# Stress axis : x y z
#
# Youngs Moduli (GPa) = 54.39552 54.39552 85.42272
#
# Poissons Ratio (x) = 0.18236 0.32365
# Poissons Ratio (y) = 0.18236 0.32365
# Poissons Ratio (z) = 0.20609 0.20609
#
# Static dielectric constant tensor:
#      x y z
#    x 1.682230 0.000000 0.000000 
#    y 0.000000 1.682230 0.000000 
#    z 0.000000 0.000000 1.728670 
# 
# From -- ./inp_files/2542.got.cif
#   From: 2010.05.17/outbox.cif.g08.bks.cpg/sg189_2_cif.got.tgz:2542.got - 2010.05.20 12:14:34.
