data_PCOD9586990
_publ_section_title
;
Structure prediction by ZEFSAII (Michael W. Deem and Ramdas Pophale) SiO2 
 PCOD9586990
Probable space group: P -6 2 C
;
_chemical_formula_sum "Si O2"
_cell_formula_units_Z 70
_cell_length_a 15.506524
_cell_length_b 15.506524
_cell_length_c 17.936893
_cell_angle_alpha 90.000000
_cell_angle_beta 90.000000
_cell_angle_gamma 120.000000
_cell_volume 3735.138932
_symmetry_space_group_name_H-M "P -6 2 C"
_symmetry_group_IT_number 190
_symmetry_cell_setting 'hexagonal'
loop_
_space_group_symop_operation_xyz
x,y,z
-x+y,-x,1/2-z
-y,x-y,z
x,y,1/2-z
-x+y,-x,z
-y,x-y,1/2-z
x-y,-y,-z
-x,-x+y,-z
y,x,-z
y,x,1/2+z
x-y,-y,1/2+z
-x,-x+y,1/2+z
loop_
_atom_site_type_symbol
_atom_site_label
_atom_site_fract_x
_atom_site_fract_y
_atom_site_fract_z
Si Si1 0.460752 0.147639 0.422951
Si Si2 0.029773 0.654319 0.389087
Si Si3 0.859841 0.057542 0.579597
Si Si4 0.093807 0.622899 0.750000
Si Si5 0.349953 0.494344 0.979747
Si Si6 0.297600 0.833441 0.750000
Si Si7 0.000000 0.000000 0.161691
Si Si8 0.255541 0.000000 0.500000
O O1 0.512035 0.263086 0.449375
O O2 0.543154 0.119149 0.448093
O O3 0.431728 0.129989 0.335524
O O4 0.359243 0.085077 0.467282
O O5 0.061098 0.769004 0.380120
O O6 0.117482 0.646696 0.432814
O O7 0.981153 0.582716 0.318669
O O8 0.933546 0.609626 0.442512
O O9 0.906260 0.005618 0.629359
O O10 0.946896 0.168512 0.560336
O O11 0.825862 0.000000 0.500000
O O12 0.188499 0.734320 0.750000
O O13 0.153147 0.561903 0.750000
O O14 0.000000 0.000000 0.250000
#
# Coordination Sequence:
#
# PCOD9586990 Si02
#       8
#    12  12  12   6  12   6   4   6
#     4  12  23  41  64 101 134 170 214 281 331 397
#     4  11  22  41  63  94 125 180 224 258 330 410
#     4  12  22  43  66  88 126 173 223 271 333 392
#     4  12  25  40  67  94 144 174 212 288 343 419
#     4  11  22  40  67  93 132 175 222 264 321 415
#     4  12  23  38  59 102 130 166 204 272 351 381
#     4  12  28  41  61  99 133 170 217 285 337 407
#     4  12  24  42  68  92 124 172 226 280 322 388
#
# _framework density 18.740936999999999
#
# number of rings (size 3 to 8) (size 9 to 14) (size 15 to 20)
#    0.000    0.343    8.571    1.543    1.200    0.000 
#    1.543    0.000    0.000    1.029    0.000    0.000 
#    0.000    0.000    0.000    0.000    0.000    0.000 
#
# Total GULP energy -389777.719795 kJ/mol
# GULP energy per Si atom -5568.253140 kJ/mol
# Density = 1.869828 g / cm^3
# Si number density = 18.740937 Si / 1000 Ang^3
#
#
#
# Elastic Constant Matrix: (Units=GPa)
#
#
# Indices 1 2 3 4 5 6 
#
# 1 69.8930 9.5326 19.9766 0.0000 0.0000 0.0000
# 2 9.5326 69.8930 19.9766 0.0000 0.0000 0.0000
# 3 19.9766 19.9766 108.6162 0.0000 0.0000 0.0000
# 4 0.0000 0.0000 0.0000 16.8676 0.0000 0.0000
# 5 0.0000 0.0000 0.0000 0.0000 16.8676 0.0000
# 6 0.0000 0.0000 0.0000 0.0000 0.0000 30.1802
#
#
#
# Elastic Compliance Matrix: (Units=1/GPa)
#
#
# Indices 1 2 3 4 5 6 
#
# 1 0.015221 -0.001347 -0.002552 0.000000 0.000000 0.000000
# 2 -0.001347 0.015221 -0.002552 0.000000 0.000000 0.000000
# 3 -0.002552 -0.002552 0.010145 0.000000 0.000000 0.000000
# 4 0.000000 0.000000 0.000000 0.059285 0.000000 0.000000
# 5 0.000000 0.000000 0.000000 0.000000 0.059285 0.000000
# 6 0.000000 0.000000 0.000000 0.000000 0.000000 0.033134
#
#
# Mechanical properties :
#
#
# Convention : Reuss Voigt Hill
#
# Bulk Modulus (GPa) = 36.11866 38.59709 37.35787
# Shear Modulus (GPa) = 23.31870 26.04417 24.68144
#
# Velocity S-wave (km/s) = 3.53124 3.73190 3.63296
# Velocity P-wave (km/s) = 5.99505 6.26173 6.12984
#
# Compressibility (1/GPa) = 0.02768652
#
# Stress axis : x y z
#
# Youngs Moduli (GPa) = 65.70062 65.70062 98.56744
#
# Poissons Ratio (x) = 0.08847 0.25151
# Poissons Ratio (y) = 0.08847 0.25151
# Poissons Ratio (z) = 0.16765 0.16765
#
# Static dielectric constant tensor:
#      x y z
#    x 1.657840 0.000000 0.000000 
#    y 0.000000 1.657840 0.000000 
#    z 0.000000 0.000000 1.720810 
# 
# From -- ./inp_files/3848.got.cif
#   From: 2010.05.17/outbox.cif.g08.bks.cpg/sg190_2_cif.got.tgz:3848.got - 2010.05.20 12:16:56.
