data_PCOD9586693
_publ_section_title
;
Structure prediction by ZEFSAII (Michael W. Deem and Ramdas Pophale) SiO2 
 PCOD9586693
Probable space group: P -6 2 C
;
_chemical_formula_sum "Si O2"
_cell_formula_units_Z 72
_cell_length_a 24.458290
_cell_length_b 24.458290
_cell_length_c 8.645536
_cell_angle_alpha 90.000000
_cell_angle_beta 90.000000
_cell_angle_gamma 120.000000
_cell_volume 4478.934748
_symmetry_space_group_name_H-M "P -6 2 C"
_symmetry_group_IT_number 190
_symmetry_cell_setting 'hexagonal'
loop_
_space_group_symop_operation_xyz
x,y,z
-x+y,-x,1/2-z
-y,x-y,z
x,y,1/2-z
-x+y,-x,z
-y,x-y,1/2-z
x-y,-y,-z
-x,-x+y,-z
y,x,-z
y,x,1/2+z
x-y,-y,1/2+z
-x,-x+y,1/2+z
loop_
_atom_site_type_symbol
_atom_site_label
_atom_site_fract_x
_atom_site_fract_y
_atom_site_fract_z
Si Si1 0.137933 0.069708 0.565025
Si Si2 0.523913 0.265017 0.062586
Si Si3 0.069815 0.263751 0.435313
Si Si4 0.591981 0.187022 0.437714
Si Si5 0.529467 0.598982 0.434617
Si Si6 0.400984 0.140918 0.064049
O O1 0.133398 0.067729 0.750000
O O2 0.118520 0.118520 0.500000
O O3 0.208134 0.084415 0.521616
O O4 0.090371 0.000000 0.500000
O O5 0.524398 0.267351 0.250000
O O6 0.550120 0.336285 0.009351
O O7 0.569501 0.237243 0.020014
O O8 0.453647 0.211820 0.015429
O O9 0.068446 0.267075 0.250000
O O10 0.118359 0.331535 0.503082
O O11 0.000000 0.241369 0.500000
O O12 0.588993 0.181649 0.250000
O O13 0.540495 0.120421 0.507768
O O14 0.531997 0.600064 0.250000
O O15 0.553724 0.553724 0.500000
O O16 0.574715 0.669788 0.498875
O O17 0.400861 0.137705 0.250000
#
# Coordination Sequence:
#
# PCOD9586693 Si02
#       6
#    12  12  12  12  12  12
#     4  10  20  33  50  71  97 126 158 193 235 281
#     4   8  15  27  48  73  96 123 155 189 228 274
#     4  10  20  33  49  71  97 127 159 197 239 282
#     4   9  16  30  50  73  98 126 159 193 230 279
#     4  11  21  33  48  69  96 127 160 198 240 283
#     4  10  19  32  50  73  98 127 159 194 236 285
#
# _framework density 16.075251999999999
#
# number of rings (size 3 to 8) (size 9 to 14) (size 15 to 20)
#    0.000    2.333    0.000    5.000    0.000    3.333 
#    0.000    4.167    0.000    1.000    0.000    2.333 
#    0.000    0.000    0.000    0.000    0.000    0.000 
#
# Total GULP energy -401652.676902 kJ/mol
# GULP energy per Si atom -5578.509401 kJ/mol
# Density = 1.603866 g / cm^3
# Si number density = 16.075252 Si / 1000 Ang^3
#
#
#
# Elastic Constant Matrix: (Units=GPa)
#
#
# Indices 1 2 3 4 5 6 
#
# 1 126.5108 83.4288 39.1461 0.0000 0.0000 0.0000
# 2 83.4288 126.5108 39.1461 0.0000 0.0000 0.0000
# 3 39.1461 39.1461 58.7908 0.0000 0.0000 0.0000
# 4 0.0000 0.0000 0.0000 24.0658 0.0000 0.0000
# 5 0.0000 0.0000 0.0000 0.0000 24.0658 0.0000
# 6 0.0000 0.0000 0.0000 0.0000 0.0000 21.5410
#
#
#
# Elastic Compliance Matrix: (Units=1/GPa)
#
#
# Indices 1 2 3 4 5 6 
#
# 1 0.014774 -0.008437 -0.004219 0.000000 0.000000 0.000000
# 2 -0.008437 0.014774 -0.004219 0.000000 0.000000 0.000000
# 3 -0.004219 -0.004219 0.022628 0.000000 0.000000 0.000000
# 4 0.000000 0.000000 0.000000 0.041553 0.000000 0.000000
# 5 0.000000 0.000000 0.000000 0.000000 0.041553 0.000000
# 6 0.000000 0.000000 0.000000 0.000000 0.000000 0.046423
#
#
# Mechanical properties :
#
#
# Convention : Reuss Voigt Hill
#
# Bulk Modulus (GPa) = 54.27556 70.58384 62.42970
# Shear Modulus (GPa) = 22.56327 23.94062 23.25195
#
# Velocity S-wave (km/s) = 3.75053 3.86331 3.80734
# Velocity P-wave (km/s) = 7.25204 7.99399 7.63204
#
# Compressibility (1/GPa) = 0.01842450
#
# Stress axis : x y z
#
# Youngs Moduli (GPa) = 67.68572 67.68572 44.19217
#
# Poissons Ratio (x) = 0.57109 0.18646
# Poissons Ratio (y) = 0.57109 0.18646
# Poissons Ratio (z) = 0.28559 0.28559
#
# Static dielectric constant tensor:
#      x y z
#    x 1.528070 0.000000 0.000000 
#    y 0.000000 1.528070 0.000000 
#    z 0.000000 0.000000 1.543410 
# 
# From -- ./inp_files/1195.got.cif
#   From: 2010.05.17/outbox.cif.g08.bks.cpg/sg190_1_cif.got.tgz:1195.got - 2010.05.20 12:16:56.
