data_PCOD9586946
_publ_section_title
;
Structure prediction by ZEFSAII (Michael W. Deem and Ramdas Pophale) SiO2 
 PCOD9586946
Probable space group: P -6 2 C
;
_chemical_formula_sum "Si O2"
_cell_formula_units_Z 84
_cell_length_a 14.287166
_cell_length_b 14.287166
_cell_length_c 23.195947
_cell_angle_alpha 90.000000
_cell_angle_beta 90.000000
_cell_angle_gamma 120.000000
_cell_volume 4100.482105
_symmetry_space_group_name_H-M "P -6 2 C"
_symmetry_group_IT_number 190
_symmetry_cell_setting 'hexagonal'
loop_
_space_group_symop_operation_xyz
x,y,z
-x+y,-x,1/2-z
-y,x-y,z
x,y,1/2-z
-x+y,-x,z
-y,x-y,1/2-z
x-y,-y,-z
-x,-x+y,-z
y,x,-z
y,x,1/2+z
x-y,-y,1/2+z
-x,-x+y,1/2+z
loop_
_atom_site_type_symbol
_atom_site_label
_atom_site_fract_x
_atom_site_fract_y
_atom_site_fract_z
Si Si1 0.580432 0.731643 0.250000
Si Si2 0.606893 0.089522 0.750000
Si Si3 0.127399 0.241058 0.689898
Si Si4 0.395431 0.412573 0.122744
Si Si5 0.895547 0.123884 0.666231
Si Si6 0.374327 0.196716 0.076377
Si Si7 0.171764 0.332071 0.055455
Si Si8 0.414944 0.005984 0.062213
O O1 0.513460 0.795066 0.250000
O O2 0.498331 0.603484 0.250000
O O3 0.662547 0.778200 0.305260
O O4 0.611349 0.030416 0.808336
O O5 0.140439 0.302206 0.750000
O O6 0.211717 0.200043 0.687980
O O7 0.135119 0.299188 0.630491
O O8 0.007662 0.140752 0.687924
O O9 0.419051 0.319729 0.097814
O O10 0.288109 0.396873 0.088665
O O11 0.499059 0.525938 0.108129
O O12 0.886641 0.115377 0.597059
O O13 0.435595 0.127698 0.069703
O O14 0.323771 0.187823 0.012624
O O15 0.085955 0.374639 0.059587
O O16 0.460708 0.000000 0.000000
#
# Coordination Sequence:
#
# PCOD9586946 Si02
#       8
#     6   6  12  12  12  12  12  12
#     4  12  23  46  62  98 138 176 221 289 341 415
#     4  12  27  40  70 100 136 180 233 279 355 417
#     4  12  23  37  62  93 131 175 219 265 331 409
#     4  12  25  44  68 100 139 182 232 290 351 418
#     4  12  23  40  65  94 137 176 222 274 333 409
#     4  11  24  40  69  94 129 180 226 285 347 410
#     4  11  22  42  67  97 132 173 224 287 354 410
#     4  10  23  45  68  98 133 176 233 287 348 419
#
# _framework density 20.485396999999999
#
# number of rings (size 3 to 8) (size 9 to 14) (size 15 to 20)
#    0.000    0.571    5.714    2.571    1.000    0.000 
#    1.714    0.000    0.000    1.714    0.000    0.000 
#    0.000    0.000    0.000    0.000    0.000    0.000 
#
# Total GULP energy -467653.705242 kJ/mol
# GULP energy per Si atom -5567.306015 kJ/mol
# Density = 2.043877 g / cm^3
# Si number density = 20.485397 Si / 1000 Ang^3
#
#
#
# Elastic Constant Matrix: (Units=GPa)
#
#
# Indices 1 2 3 4 5 6 
#
# 1 75.5900 19.1683 25.1590 0.0000 0.0000 0.0000
# 2 19.1683 75.5900 25.1590 0.0000 0.0000 0.0000
# 3 25.1590 25.1590 205.9298 0.0000 0.0000 0.0000
# 4 0.0000 0.0000 0.0000 24.8884 0.0000 0.0000
# 5 0.0000 0.0000 0.0000 0.0000 24.8884 0.0000
# 6 0.0000 0.0000 0.0000 0.0000 0.0000 28.2108
#
#
#
# Elastic Compliance Matrix: (Units=1/GPa)
#
#
# Indices 1 2 3 4 5 6 
#
# 1 0.014504 -0.003219 -0.001379 0.000000 0.000000 0.000000
# 2 -0.003219 0.014504 -0.001379 0.000000 0.000000 0.000000
# 3 -0.001379 -0.001379 0.005193 0.000000 0.000000 0.000000
# 4 0.000000 0.000000 0.000000 0.040179 0.000000 0.000000
# 5 0.000000 0.000000 0.000000 0.000000 0.040179 0.000000
# 6 0.000000 0.000000 0.000000 0.000000 0.000000 0.035447
#
#
# Mechanical properties :
#
#
# Convention : Reuss Voigt Hill
#
# Bulk Modulus (GPa) = 44.94681 55.12024 50.03353
# Shear Modulus (GPa) = 29.51986 34.77243 32.14614
#
# Velocity S-wave (km/s) = 3.80019 4.12445 3.96564
# Velocity P-wave (km/s) = 6.42214 7.04606 6.74132
#
# Compressibility (1/GPa) = 0.02224852
#
# Stress axis : x y z
#
# Youngs Moduli (GPa) = 68.94413 68.94413 192.57000
#
# Poissons Ratio (x) = 0.22194 0.26551
# Poissons Ratio (y) = 0.22194 0.26551
# Poissons Ratio (z) = 0.09506 0.09506
#
# Static dielectric constant tensor:
#      x y z
#    x 1.754400 0.000000 0.000000 
#    y 0.000000 1.754400 0.000000 
#    z 0.000000 0.000000 1.925880 
# 
# From -- ./inp_files/4741.got.cif
#   From: 2010.05.17/outbox.cif.g08.bks.cpg/sg190_3_cif.got.tgz:4741.got - 2010.05.20 12:16:56.
