data_PCOD9586286
_publ_section_title
;
Structure prediction by ZEFSAII (Michael W. Deem and Ramdas Pophale) SiO2 
 PCOD9586286
Probable space group: P -6 2 M
;
_chemical_formula_sum "Si O2"
_cell_formula_units_Z 96
_cell_length_a 18.129890
_cell_length_b 18.129890
_cell_length_c 20.533517
_cell_angle_alpha 90.000000
_cell_angle_beta 90.000000
_cell_angle_gamma 120.000000
_cell_volume 5844.997261
_symmetry_space_group_name_H-M "P -6 2 M"
_symmetry_group_IT_number 189
_symmetry_cell_setting 'hexagonal'
loop_
_space_group_symop_operation_xyz
x,y,z
-x+y,-x,-z
-y,x-y,z
x,y,-z
-x+y,-x,z
-y,x-y,-z
x-y,-y,-z
-x,-x+y,-z
y,x,-z
y,x,z
x-y,-y,z
-x,-x+y,z
loop_
_atom_site_type_symbol
_atom_site_label
_atom_site_fract_x
_atom_site_fract_y
_atom_site_fract_z
Si Si1 0.755018 0.904996 0.255879
Si Si2 0.902522 0.805683 0.889832
Si Si3 0.194589 0.389246 0.925242
Si Si4 0.604943 0.102040 0.075523
Si Si5 0.898152 0.363526 0.159125
Si Si6 0.807102 0.904153 0.400910
Si Si7 0.102808 0.364482 0.429867
Si Si8 0.103367 0.384227 0.714628
O O1 0.797348 0.899661 0.188969
O O2 0.801570 0.903382 0.322087
O O3 0.664801 0.817592 0.261474
O O4 0.765634 0.000000 0.254853
O O5 0.842911 0.842911 0.910877
O O6 0.868305 0.710941 0.915651
O O7 0.000000 0.867054 0.909223
O O8 0.295019 0.441678 0.911387
O O9 0.144680 0.420098 0.879456
O O10 0.181717 0.405162 0.000000
O O11 0.555702 0.129518 0.126205
O O12 0.563106 0.000000 0.080489
O O13 0.592494 0.120333 0.000000
O O14 0.881006 0.339262 0.235171
O O15 0.000000 0.409775 0.150223
O O16 0.869989 0.869989 0.420584
O O17 0.713141 0.835410 0.424373
O O18 0.841548 0.000000 0.422708
O O19 0.134847 0.408534 0.500000
O O20 0.128125 0.411306 0.360387
O O21 0.000000 0.318426 0.431212
O O22 0.000000 0.316215 0.716476
#
# Coordination Sequence:
#
# PCOD9586286 Si02
#       8
#    12  12  12  12  12  12  12  12
#     4   9  16  25  38  57  84 120 162 210 256 292
#     4  11  21  32  46  66  96 134 177 218 253 289
#     4  11  22  35  52  73  96 126 160 200 250 304
#     4   9  19  36  53  70  94 122 153 191 239 294
#     4  10  19  33  55  77  97 123 158 200 243 291
#     4   9  15  21  30  44  68 107 159 212 256 292
#     4   8  14  23  34  51  80 116 149 189 245 297
#     4   9  15  26  44  65  89 119 160 208 250 289
#
# _framework density 16.424302000000001
#
# number of rings (size 3 to 8) (size 9 to 14) (size 15 to 20)
#    0.000    2.500    1.250    3.250    0.000    2.500 
#    0.750    1.250    0.000    1.750    0.000    0.000 
#    0.000    1.000    0.000    0.375    0.000    0.250 
#
# Total GULP energy -534675.084723 kJ/mol
# GULP energy per Si atom -5569.532133 kJ/mol
# Density = 1.638692 g / cm^3
# Si number density = 16.424302 Si / 1000 Ang^3
#
#
#
# Elastic Constant Matrix: (Units=GPa)
#
#
# Indices 1 2 3 4 5 6 
#
# 1 50.7140 22.6544 38.0390 0.0000 0.0000 0.0000
# 2 22.6544 50.7140 38.0390 0.0000 0.0000 0.0000
# 3 38.0390 38.0390 104.1057 0.0000 0.0000 0.0000
# 4 0.0000 0.0000 0.0000 4.3712 0.0000 0.0000
# 5 0.0000 0.0000 0.0000 0.0000 4.3712 0.0000
# 6 0.0000 0.0000 0.0000 0.0000 0.0000 14.0298
#
#
#
# Elastic Compliance Matrix: (Units=1/GPa)
#
#
# Indices 1 2 3 4 5 6 
#
# 1 0.028791 -0.006847 -0.008018 0.000000 0.000000 0.000000
# 2 -0.006847 0.028791 -0.008018 0.000000 0.000000 0.000000
# 3 -0.008018 -0.008018 0.015465 0.000000 0.000000 0.000000
# 4 0.000000 0.000000 0.000000 0.228768 0.000000 0.000000
# 5 0.000000 0.000000 0.000000 0.000000 0.228768 0.000000
# 6 0.000000 0.000000 0.000000 0.000000 0.000000 0.071277
#
#
# Mechanical properties :
#
#
# Convention : Reuss Voigt Hill
#
# Bulk Modulus (GPa) = 36.65583 44.77759 40.71671
# Shear Modulus (GPa) = 7.61359 11.67453 9.64406
#
# Velocity S-wave (km/s) = 2.15537 2.66899 2.42581
# Velocity P-wave (km/s) = 5.34422 6.06797 5.71756
#
# Compressibility (1/GPa) = 0.02728079
#
# Stress axis : x y z
#
# Youngs Moduli (GPa) = 34.73273 34.73273 64.66194
#
# Poissons Ratio (x) = 0.23782 0.51847
# Poissons Ratio (y) = 0.23782 0.51847
# Poissons Ratio (z) = 0.27849 0.27849
#
# Static dielectric constant tensor:
#      x y z
#    x 1.534570 0.000000 0.000000 
#    y 0.000000 1.534570 0.000000 
#    z 0.000000 0.000000 1.611650 
# 
# From -- ./inp_files/3500.got.cif
#   From: 2010.05.17/outbox.cif.g08.bks.cpg/sg189_2_cif.got.tgz:3500.got - 2010.05.20 12:14:34.
