data_PCOD9586213
_publ_section_title
;
Structure prediction by ZEFSAII (Michael W. Deem and Ramdas Pophale) SiO2 
 PCOD9586213
Probable space group: P -6 2 M
;
_chemical_formula_sum "Si O2"
_cell_formula_units_Z 76
_cell_length_a 18.036371
_cell_length_b 18.036371
_cell_length_c 13.855842
_cell_angle_alpha 90.000000
_cell_angle_beta 90.000000
_cell_angle_gamma 120.000000
_cell_volume 3903.569122
_symmetry_space_group_name_H-M "P -6 2 M"
_symmetry_group_IT_number 189
_symmetry_cell_setting 'hexagonal'
loop_
_space_group_symop_operation_xyz
x,y,z
-x+y,-x,-z
-y,x-y,z
x,y,-z
-x+y,-x,z
-y,x-y,-z
x-y,-y,-z
-x,-x+y,-z
y,x,-z
y,x,z
x-y,-y,z
-x,-x+y,z
loop_
_atom_site_type_symbol
_atom_site_label
_atom_site_fract_x
_atom_site_fract_y
_atom_site_fract_z
Si Si1 0.096396 0.189776 0.612274
Si Si2 0.097507 0.331499 0.254011
Si Si3 0.824262 0.501178 0.611491
Si Si4 0.666668 0.333334 0.383253
Si Si5 0.376377 0.275205 0.206725
Si Si6 0.498624 0.102480 0.302396
Si Si7 0.102710 0.570973 0.894030
O O1 0.114384 0.211367 0.500000
O O2 0.162372 0.162372 0.650827
O O3 0.097590 0.266324 0.668296
O O4 0.000000 0.110580 0.619168
O O5 0.176376 0.346873 0.186174
O O6 0.117516 0.418718 0.307631
O O7 0.000000 0.288626 0.213277
O O8 0.825427 0.526949 0.500000
O O9 0.727653 0.432082 0.645428
O O10 0.873630 0.578210 0.686821
O O11 0.865734 0.439633 0.619951
O O12 0.666667 0.333334 0.500000
O O13 0.305876 0.305876 0.204911
O O14 0.451337 0.337602 0.134215
O O15 0.541357 0.136218 0.196935
O O16 0.456742 0.000000 0.301641
O O17 0.000000 0.506829 0.897297
O O18 0.137802 0.571269 0.000000
#
# Coordination Sequence:
#
# PCOD9586213 Si02
#       7
#    12  12  12   4  12  12  12
#     4   9  17  29  45  65  92 134 189 241 283 323
#     4  10  20  33  48  69 102 137 166 209 268 317
#     4  10  19  31  48  71  99 130 163 202 246 294
#     4   9  18  30  45  66  94 131 166 189 231 303
#     4  10  20  33  51  75  99 129 172 212 249 299
#     4   9  18  31  48  72  99 130 169 206 248 307
#     4   8  15  31  54  75  95 122 157 198 243 292
#
# _framework density 19.469362
#
# number of rings (size 3 to 8) (size 9 to 14) (size 15 to 20)
#    0.000    2.684    0.000    3.000    0.000    3.158 
#    0.000    2.368    0.000    1.737    0.000    0.000 
#    0.000    0.000    0.000    0.000    0.000    3.158 
#
# Total GULP energy -423327.211524 kJ/mol
# GULP energy per Si atom -5570.094888 kJ/mol
# Density = 1.942505 g / cm^3
# Si number density = 19.469362 Si / 1000 Ang^3
#
#
#
# Elastic Constant Matrix: (Units=GPa)
#
#
# Indices 1 2 3 4 5 6 
#
# 1 74.7415 9.3176 -5.8923 0.0000 0.0000 -0.0001
# 2 9.3176 74.7420 -5.8924 0.0000 0.0000 0.0000
# 3 -5.8923 -5.8924 48.9904 0.0000 0.0000 0.0000
# 4 0.0000 0.0000 0.0000 5.2652 0.0000 0.0000
# 5 0.0000 0.0000 0.0000 0.0000 5.2653 0.0000
# 6 -0.0001 0.0000 0.0000 0.0000 0.0000 32.7122
#
#
#
# Elastic Compliance Matrix: (Units=1/GPa)
#
#
# Indices 1 2 3 4 5 6 
#
# 1 0.013693 -0.001592 0.001455 0.000000 0.000000 0.000000
# 2 -0.001592 0.013693 0.001455 0.000000 0.000000 0.000000
# 3 0.001455 0.001455 0.020762 0.000000 0.000000 0.000000
# 4 0.000000 0.000000 0.000000 0.189926 0.000001 0.000000
# 5 0.000000 0.000000 0.000000 0.000001 0.189924 0.000000
# 6 0.000000 0.000000 0.000000 0.000000 0.000000 0.030570
#
#
# Mechanical properties :
#
#
# Convention : Reuss Voigt Hill
#
# Bulk Modulus (GPa) = 19.69101 21.50441 20.59771
# Shear Modulus (GPa) = 10.57399 22.04459 16.30929
#
# Velocity S-wave (km/s) = 2.33300 3.36857 2.89743
# Velocity P-wave (km/s) = 4.17049 5.11849 4.66861
#
# Compressibility (1/GPa) = 0.05078460
#
# Stress axis : x y z
#
# Youngs Moduli (GPa) = 73.03168 73.03215 48.16429
#
# Poissons Ratio (x) = 0.11629 -0.07010
# Poissons Ratio (y) = 0.11628 -0.07010
# Poissons Ratio (z) = -0.10629 -0.10629
#
# Static dielectric constant tensor:
#      x y z
#    x 1.747710 0.000000 0.000000 
#    y 0.000000 1.747710 0.000000 
#    z 0.000000 0.000000 1.658720 
# 
# From -- ./inp_files/2734.got.cif
#   From: 2010.05.17/outbox.cif.g08.bks.cpg/sg189_2_cif.got.tgz:2734.got - 2010.05.20 12:14:34.
