data_PCOD9586306
_publ_section_title
;
Structure prediction by ZEFSAII (Michael W. Deem and Ramdas Pophale) SiO2 
 PCOD9586306
Probable space group: P -6 2 M
;
_chemical_formula_sum "Si O2"
_cell_formula_units_Z 84
_cell_length_a 18.928995
_cell_length_b 18.928995
_cell_length_c 15.302411
_cell_angle_alpha 90.000000
_cell_angle_beta 90.000000
_cell_angle_gamma 120.000000
_cell_volume 4748.381530
_symmetry_space_group_name_H-M "P -6 2 M"
_symmetry_group_IT_number 189
_symmetry_cell_setting 'hexagonal'
loop_
_space_group_symop_operation_xyz
x,y,z
-x+y,-x,-z
-y,x-y,z
x,y,-z
-x+y,-x,z
-y,x-y,-z
x-y,-y,-z
-x,-x+y,-z
y,x,-z
y,x,z
x-y,-y,z
-x,-x+y,z
loop_
_atom_site_type_symbol
_atom_site_label
_atom_site_fract_x
_atom_site_fract_y
_atom_site_fract_z
Si Si1 0.622560 0.527470 0.640073
Si Si2 0.094561 0.442286 0.845778
Si Si3 0.320462 0.096904 0.402758
Si Si4 0.672269 0.904416 0.715570
Si Si5 0.534149 0.901081 0.600350
Si Si6 0.505040 0.908886 0.102836
Si Si7 0.165950 0.778048 0.897607
O O1 0.570055 0.570055 0.613251
O O2 0.645163 0.546666 0.741713
O O3 0.709994 0.582653 0.596173
O O4 0.560696 0.431895 0.622749
O O5 0.119429 0.531751 0.879076
O O6 0.151748 0.409850 0.881480
O O7 0.000000 0.383168 0.870917
O O8 0.296213 0.107301 0.500000
O O9 0.302264 0.148186 0.333533
O O10 0.273387 0.000000 0.382112
O O11 0.583841 0.880297 0.671851
O O12 0.670805 0.888683 0.819447
O O13 0.730218 0.000000 0.697583
O O14 0.540138 0.877025 0.500000
O O15 0.581110 0.000000 0.601670
O O16 0.534720 0.845742 0.123086
O O17 0.561156 0.000000 0.144814
O O18 0.516257 0.920173 0.000000
O O19 0.143498 0.779440 0.000000
#
# Coordination Sequence:
#
# PCOD9586306 Si02
#       7
#    12  12  12  12  12  12  12
#     4   9  16  29  51  77 106 137 170 213 264 323
#     4  10  19  34  55  79 108 143 184 229 278 331
#     4  10  20  35  56  81 110 145 185 230 283 343
#     4  11  22  36  55  81 113 147 186 237 288 332
#     4   9  17  30  52  82 110 137 174 217 266 330
#     4   9  18  33  51  71 100 140 183 226 275 327
#     4  11  22  35  53  79 110 147 190 234 279 331
#
# _framework density 17.690238000000001
#
# number of rings (size 3 to 8) (size 9 to 14) (size 15 to 20)
#    0.000    2.143    1.429    2.571    0.000    6.571 
#    0.857    0.000    0.000    0.857    0.000    2.000 
#    0.000    0.000    0.000    0.000    0.000    0.000 
#
# Total GULP energy -467714.892674 kJ/mol
# GULP energy per Si atom -5568.034437 kJ/mol
# Density = 1.764997 g / cm^3
# Si number density = 17.690238 Si / 1000 Ang^3
#
#
#
# Elastic Constant Matrix: (Units=GPa)
#
#
# Indices 1 2 3 4 5 6 
#
# 1 60.1868 27.5757 31.0226 0.0000 0.0000 0.0000
# 2 27.5757 60.1868 31.0226 0.0000 0.0000 0.0000
# 3 31.0226 31.0226 93.1093 0.0000 0.0000 0.0000
# 4 0.0000 0.0000 0.0000 23.4450 0.0000 0.0000
# 5 0.0000 0.0000 0.0000 0.0000 23.4450 0.0000
# 6 0.0000 0.0000 0.0000 0.0000 0.0000 16.3055
#
#
#
# Elastic Compliance Matrix: (Units=1/GPa)
#
#
# Indices 1 2 3 4 5 6 
#
# 1 0.022785 -0.007880 -0.004966 0.000000 0.000000 0.000000
# 2 -0.007880 0.022785 -0.004966 0.000000 0.000000 0.000000
# 3 -0.004966 -0.004966 0.014049 0.000000 0.000000 0.000000
# 4 0.000000 0.000000 0.000000 0.042653 0.000000 0.000000
# 5 0.000000 0.000000 0.000000 0.000000 0.042653 0.000000
# 6 0.000000 0.000000 0.000000 0.000000 0.000000 0.061329
#
#
# Mechanical properties :
#
#
# Convention : Reuss Voigt Hill
#
# Bulk Modulus (GPa) = 41.67506 43.63610 42.65558
# Shear Modulus (GPa) = 20.00988 20.89658 20.45323
#
# Velocity S-wave (km/s) = 3.36687 3.44066 3.40396
# Velocity P-wave (km/s) = 6.22284 6.36431 6.29398
#
# Compressibility (1/GPa) = 0.02399516
#
# Stress axis : x y z
#
# Youngs Moduli (GPa) = 43.88870 43.88870 71.17734
#
# Poissons Ratio (x) = 0.34582 0.35348
# Poissons Ratio (y) = 0.34582 0.35348
# Poissons Ratio (z) = 0.21796 0.21796
#
# Static dielectric constant tensor:
#      x y z
#    x 1.624020 0.000000 0.000000 
#    y 0.000000 1.624020 0.000000 
#    z 0.000000 0.000000 1.736450 
# 
# From -- ./inp_files/2814.got.cif
#   From: 2010.05.17/outbox.cif.g08.bks.cpg/sg189_2_cif.got.tgz:2814.got - 2010.05.20 12:14:34.
