data_PCOD9586096
_publ_section_title
;
Structure prediction by ZEFSAII (Michael W. Deem and Ramdas Pophale) SiO2 
 PCOD9586096
Probable space group: P -6 C 2
;
_chemical_formula_sum "Si O2"
_cell_formula_units_Z 72
_cell_length_a 24.000000
_cell_length_b 24.000000
_cell_length_c 9.000000
_cell_angle_alpha 90.000000
_cell_angle_beta 90.000000
_cell_angle_gamma 120.000000
_cell_volume 4489.475693
_symmetry_space_group_name_H-M "P -6 C 2"
_symmetry_group_IT_number 188
_symmetry_cell_setting 'hexagonal'
loop_
_space_group_symop_operation_xyz
x,y,z
-x+y,-x,1/2-z
-y,x-y,z
x,y,1/2-z
-x+y,-x,z
-y,x-y,1/2-z
-y,-x,-z
-x+y,y,-z
x,x-y,-z
-x+y,y,1/2+z
x,x-y,1/2+z
-y,-x,1/2+z
loop_
_atom_site_type_symbol
_atom_site_label
_atom_site_fract_x
_atom_site_fract_y
_atom_site_fract_z
Si Si1 0.225661 0.886260 0.579110
Si Si2 0.337925 0.334854 0.926931
Si Si3 0.275527 0.080349 0.570051
Si Si4 0.668630 0.217234 0.075452
Si Si5 0.933487 0.526597 0.074095
Si Si6 0.036127 0.182751 0.918667
O O1 0.240750 0.880411 0.750000
O O2 0.181204 0.818797 0.500000
O O3 0.183865 0.922833 0.582075
O O4 0.287925 0.931837 0.483769
O O5 0.335472 0.327864 0.750000
O O6 0.315878 0.266557 0.005798
O O7 0.408037 0.383338 0.986963
O O8 0.277876 0.081196 0.750000
O O9 0.298384 0.149192 0.500000
O O10 0.201196 0.032418 0.520903
O O11 0.671407 0.231205 0.250000
O O12 0.645394 0.142227 0.057024
O O13 0.736148 0.263853 0.000000
O O14 0.614291 0.228582 0.000000
O O15 0.947636 0.533002 0.250000
O O16 0.942499 0.471250 0.000000
O O17 0.026998 0.160121 0.750000
O O18 0.079777 0.159554 0.000000
#
# Coordination Sequence:
#
# PCOD9586096 Si02
#       6
#    12  12  12  12  12  12
#     4   9  16  28  46  70  97 122 150 184 220 263
#     4  11  21  33  50  71  96 128 160 194 238 288
#     4  10  20  33  47  67  93 121 155 199 246 295
#     4  10  20  33  50  68  88 113 148 196 251 305
#     4  10  21  37  53  70  93 124 162 203 244 295
#     4   8  15  26  42  62  84 110 142 178 219 268
#
# _framework density 16.037507000000002
#
# number of rings (size 3 to 8) (size 9 to 14) (size 15 to 20)
#    0.000    2.333    0.000    4.667    0.000    7.333 
#    0.000    1.667    0.000    0.333    0.000    0.000 
#    0.000    0.000    0.000    0.500    0.000    7.000 
#
# Total GULP energy -401404.137865 kJ/mol
# GULP energy per Si atom -5575.057470 kJ/mol
# Density = 1.600101 g / cm^3
# Si number density = 16.037507 Si / 1000 Ang^3
#
#
#
# Elastic Constant Matrix: (Units=GPa)
#
#
# Indices 1 2 3 4 5 6 
#
# 1 53.1436 61.6764 48.6238 0.0002 0.0000 0.0000
# 2 61.6764 53.1436 48.6238 -0.0002 0.0000 0.0000
# 3 48.6238 48.6238 111.6611 0.0000 0.0000 0.0000
# 4 0.0002 -0.0002 0.0000 21.9834 0.0000 0.0000
# 5 0.0000 0.0000 0.0000 0.0000 21.9834 0.0002
# 6 0.0000 0.0000 0.0000 0.0000 0.0002 -4.2664
#
#
#
# Elastic Compliance Matrix: (Units=1/GPa)
#
#
# Indices 1 2 3 4 5 6 
#
# 1 -0.051699 0.065497 -0.006009 0.000001 0.000000 0.000000
# 2 0.065497 -0.051699 -0.006009 -0.000001 0.000000 0.000000
# 3 -0.006009 -0.006009 0.014189 0.000000 0.000000 0.000000
# 4 0.000001 -0.000001 0.000000 0.045489 0.000000 0.000000
# 5 0.000000 0.000000 0.000000 0.000000 0.045489 0.000002
# 6 0.000000 0.000000 0.000000 0.000000 0.000002 -0.234391
#
#
# Mechanical properties :
#
#
# Convention : Reuss Voigt Hill
#
# Bulk Modulus (GPa) = 56.33519 59.53292 57.93405
# Shear Modulus (GPa) = -14.98514 11.87504 -1.55505
#
# Velocity S-wave (km/s) = -3.06008 2.72408 -0.98577
# Velocity P-wave (km/s) = 4.76633 6.86264 5.90820
#
# Compressibility (1/GPa) = 0.01775090
#
# Stress axis : x y z
#
# Youngs Moduli (GPa) = -19.34290 -19.34290 70.47890
#
# Poissons Ratio (x) = 1.26690 0.42348
# Poissons Ratio (y) = 1.26690 0.42348
# Poissons Ratio (z) = -0.11622 -0.11622
#
# Static dielectric constant tensor:
#      x y z
#    x 1.555310 0.000000 0.000000 
#    y 0.000000 1.555310 0.000000 
#    z 0.000000 0.000000 1.534220 
# 
# From -- ./inp_files/990.got.cif
#   From: 2010.05.17/outbox.ucp.g08.bks.cvg/sg188_1_cif.got.tgz:990.got - 2010.06.11 15:21:59.
