data_PCOD9586434
_publ_section_title
;
Structure prediction by ZEFSAII (Michael W. Deem and Ramdas Pophale) SiO2 
 PCOD9586434
Probable space group: P -6 2 M
;
_chemical_formula_sum "Si O2"
_cell_formula_units_Z 84
_cell_length_a 14.862768
_cell_length_b 14.862768
_cell_length_c 23.734838
_cell_angle_alpha 90.000000
_cell_angle_beta 90.000000
_cell_angle_gamma 120.000000
_cell_volume 4540.631953
_symmetry_space_group_name_H-M "P -6 2 M"
_symmetry_group_IT_number 189
_symmetry_cell_setting 'hexagonal'
loop_
_space_group_symop_operation_xyz
x,y,z
-x+y,-x,-z
-y,x-y,z
x,y,-z
-x+y,-x,z
-y,x-y,-z
x-y,-y,-z
-x,-x+y,-z
y,x,-z
y,x,z
x-y,-y,z
-x,-x+y,z
loop_
_atom_site_type_symbol
_atom_site_label
_atom_site_fract_x
_atom_site_fract_y
_atom_site_fract_z
Si Si1 0.886947 0.226870 0.198565
Si Si2 0.661548 0.120465 0.827481
Si Si3 0.377673 0.576698 0.061683
Si Si4 0.265448 0.798309 0.628246
Si Si5 0.755846 0.876992 0.317524
Si Si6 0.879854 0.407790 0.734165
Si Si7 0.534520 0.413983 0.565415
O O1 0.783398 0.170675 0.162585
O O2 0.872840 0.154771 0.252761
O O3 0.888956 0.328796 0.223146
O O4 0.000000 0.264547 0.172701
O O5 0.607980 0.135138 0.882552
O O6 0.632157 0.162080 0.771114
O O7 0.613218 0.000000 0.816221
O O8 0.442437 0.702166 0.063833
O O9 0.394109 0.542768 0.000000
O O10 0.191350 0.843915 0.645466
O O11 0.336110 0.812027 0.683094
O O12 0.194145 0.683014 0.604731
O O13 0.352393 0.861373 0.581334
O O14 0.837066 0.837066 0.328794
O O15 0.807165 0.000000 0.325768
O O16 0.000000 0.486354 0.714431
O O17 0.532458 0.385657 0.500000
O O18 0.450890 0.450890 0.574188
#
# Coordination Sequence:
#
# PCOD9586434 Si02
#       7
#    12  12  12  12  12  12  12
#     4   9  19  35  50  72 114 155 185 225 281 345
#     4  11  20  31  53  84 114 146 191 241 287 339
#     4   8  17  34  52  72 105 151 196 234 281 339
#     4  11  22  39  58  82 118 150 182 234 289 342
#     4  10  20  36  58  84 114 150 190 234 286 342
#     4   9  20  34  51  80 115 147 183 226 284 349
#     4  11  24  41  61  84 110 148 196 235 277 347
#
# _framework density 18.499628000000001
#
# number of rings (size 3 to 8) (size 9 to 14) (size 15 to 20)
#    0.286    1.857    0.000    4.714    4.000    0.286 
#    0.857    0.000    0.000    1.571    0.000    0.000 
#    0.000    6.857    0.000    0.000    0.000    0.000 
#
# Total GULP energy -468263.035754 kJ/mol
# GULP energy per Si atom -5574.559949 kJ/mol
# Density = 1.845752 g / cm^3
# Si number density = 18.499628 Si / 1000 Ang^3
#
#
#
# Elastic Constant Matrix: (Units=GPa)
#
#
# Indices 1 2 3 4 5 6 
#
# 1 76.9967 31.8840 37.0831 0.0000 0.0000 0.0000
# 2 31.8840 76.9967 37.0831 0.0000 0.0000 0.0000
# 3 37.0831 37.0831 74.6247 0.0000 0.0000 0.0000
# 4 0.0000 0.0000 0.0000 9.0398 0.0000 0.0000
# 5 0.0000 0.0000 0.0000 0.0000 9.0398 0.0000
# 6 0.0000 0.0000 0.0000 0.0000 0.0000 22.5564
#
#
#
# Elastic Compliance Matrix: (Units=1/GPa)
#
#
# Indices 1 2 3 4 5 6 
#
# 1 0.018025 -0.004141 -0.006899 0.000000 0.000000 0.000000
# 2 -0.004141 0.018025 -0.006899 0.000000 0.000000 0.000000
# 3 -0.006899 -0.006899 0.020257 0.000000 0.000000 0.000000
# 4 0.000000 0.000000 0.000000 0.110622 0.000000 0.000000
# 5 0.000000 0.000000 0.000000 0.000000 0.110622 0.000000
# 6 0.000000 0.000000 0.000000 0.000000 0.000000 0.044333
#
#
# Mechanical properties :
#
#
# Convention : Reuss Voigt Hill
#
# Bulk Modulus (GPa) = 48.95254 48.96871 48.96062
# Shear Modulus (GPa) = 13.71460 16.29838 15.00649
#
# Velocity S-wave (km/s) = 2.72572 2.97140 2.85121
# Velocity P-wave (km/s) = 6.03530 6.18869 6.11248
#
# Compressibility (1/GPa) = 0.02042795
#
# Stress axis : x y z
#
# Youngs Moduli (GPa) = 55.47747 55.47747 49.36484
#
# Poissons Ratio (x) = 0.22975 0.34058
# Poissons Ratio (y) = 0.22975 0.34058
# Poissons Ratio (z) = 0.38276 0.38276
#
# Static dielectric constant tensor:
#      x y z
#    x 1.658080 0.000000 0.000000 
#    y 0.000000 1.658080 0.000000 
#    z 0.000000 0.000000 1.658240 
# 
# From -- ./inp_files/3620.got.cif
#   From: 2010.05.17/outbox.cif.g08.bks.cpg/sg189_2_cif.got.tgz:3620.got - 2010.05.20 12:14:34.
