data_PCOD9586212
_publ_section_title
;
Structure prediction by ZEFSAII (Michael W. Deem and Ramdas Pophale) SiO2 
 PCOD9586212
Probable space group: P -6 2 M
;
_chemical_formula_sum "Si O2"
_cell_formula_units_Z 84
_cell_length_a 17.039543
_cell_length_b 17.039543
_cell_length_c 19.635774
_cell_angle_alpha 90.000000
_cell_angle_beta 90.000000
_cell_angle_gamma 120.000000
_cell_volume 4937.357135
_symmetry_space_group_name_H-M "P -6 2 M"
_symmetry_group_IT_number 189
_symmetry_cell_setting 'hexagonal'
loop_
_space_group_symop_operation_xyz
x,y,z
-x+y,-x,-z
-y,x-y,z
x,y,-z
-x+y,-x,z
-y,x-y,-z
x-y,-y,-z
-x,-x+y,-z
y,x,-z
y,x,z
x-y,-y,z
-x,-x+y,z
loop_
_atom_site_type_symbol
_atom_site_label
_atom_site_fract_x
_atom_site_fract_y
_atom_site_fract_z
Si Si1 0.666046 0.512855 0.213829
Si Si2 0.890201 0.445100 0.422018
Si Si3 0.104393 0.716234 0.649215
Si Si4 0.101974 0.384511 0.076241
Si Si5 0.717463 0.101974 0.076241
Si Si6 0.104393 0.388160 0.649215
Si Si7 0.512855 0.846809 0.213829
O O1 0.666676 0.547927 0.138029
O O2 0.699505 0.591327 0.270027
O O3 0.740187 0.480374 0.215371
O O4 0.567500 0.432500 0.232080
O O5 0.858513 0.429256 0.500000
O O6 0.865161 0.514156 0.385493
O O7 0.865161 0.351005 0.385493
O O8 0.000000 0.500000 0.421751
O O9 0.180264 0.819736 0.633714
O O10 0.108178 0.699505 0.729973
O O11 0.000000 0.681539 0.629586
O O12 0.177911 0.355822 0.083440
O O13 0.000000 0.303057 0.081118
O O14 0.113017 0.424703 0.000000
O O15 0.666676 0.118749 0.138029
O O16 0.696943 0.000000 0.081118
O O17 0.688313 0.113017 0.000000
O O18 0.000000 0.318461 0.629586
#
# Coordination Sequence:
#
# PCOD9586212 Si02
#       7
#    12  12  12  12  12  12  12
#     4  10  19  31  48  69  95 126 161 199 240 287
#     4   9  18  34  54  76 103 133 165 203 246 294
#     4  10  20  34  53  76 103 136 172 210 252 299
#     4   9  18  31  46  65  89 119 155 195 239 285
#     4   9  18  31  46  65  89 119 155 195 239 285
#     4  10  20  34  53  76 103 136 172 210 252 299
#     4  10  19  31  48  69  95 126 161 199 240 287
#
# _framework density 17.013151000000001
#
# number of rings (size 3 to 8) (size 9 to 14) (size 15 to 20)
#    0.000    2.429    1.429    1.143    0.000    2.857 
#    0.857    1.429    0.000    2.286    0.000    2.000 
#    0.000    6.857    0.000    7.429    0.000    0.000 
#
# Total GULP energy -467879.174888 kJ/mol
# GULP energy per Si atom -5569.990177 kJ/mol
# Density = 1.697443 g / cm^3
# Si number density = 17.013151 Si / 1000 Ang^3
#
#
#
# Elastic Constant Matrix: (Units=GPa)
#
#
# Indices 1 2 3 4 5 6 
#
# 1 66.4627 45.2699 10.8056 0.0000 0.0000 0.0000
# 2 45.2699 66.4627 10.8056 0.0000 0.0000 0.0000
# 3 10.8056 10.8056 70.5534 0.0000 0.0000 0.0000
# 4 0.0000 0.0000 0.0000 15.0812 0.0000 0.0000
# 5 0.0000 0.0000 0.0000 0.0000 15.0812 0.0000
# 6 0.0000 0.0000 0.0000 0.0000 0.0000 10.5964
#
#
#
# Elastic Compliance Matrix: (Units=1/GPa)
#
#
# Indices 1 2 3 4 5 6 
#
# 1 0.028205 -0.018981 -0.001413 0.000000 0.000000 0.000000
# 2 -0.018981 0.028205 -0.001413 0.000000 0.000000 0.000000
# 3 -0.001413 -0.001413 0.014606 0.000000 0.000000 0.000000
# 4 0.000000 0.000000 0.000000 0.066308 0.000000 0.000000
# 5 0.000000 0.000000 0.000000 0.000000 0.066308 0.000000
# 6 0.000000 0.000000 0.000000 0.000000 0.000000 0.094372
#
#
# Mechanical properties :
#
#
# Convention : Reuss Voigt Hill
#
# Bulk Modulus (GPa) = 36.49319 37.47122 36.98220
# Shear Modulus (GPa) = 14.25517 17.25827 15.75672
#
# Velocity S-wave (km/s) = 2.89778 3.18843 3.04657
# Velocity P-wave (km/s) = 5.71775 5.96887 5.84466
#
# Compressibility (1/GPa) = 0.02740237
#
# Stress axis : x y z
#
# Youngs Moduli (GPa) = 35.45526 35.45526 68.46344
#
# Poissons Ratio (x) = 0.67299 0.09671
# Poissons Ratio (y) = 0.67299 0.09671
# Poissons Ratio (z) = 0.05008 0.05008
#
# Static dielectric constant tensor:
#      x y z
#    x 1.570090 0.000000 0.000000 
#    y 0.000000 1.570090 0.000000 
#    z 0.000000 0.000000 1.616770 
# 
# From -- ./inp_files/3466.got.cif
#   From: 2010.05.17/outbox.cif.g08.bks.cpg/sg189_2_cif.got.tgz:3466.got - 2010.05.20 12:14:34.
