data_PCOD9586445
_publ_section_title
;
Structure prediction by ZEFSAII (Michael W. Deem and Ramdas Pophale) SiO2 
 PCOD9586445
Probable space group: P -6 2 M
;
_chemical_formula_sum "Si O2"
_cell_formula_units_Z 78
_cell_length_a 24.973034
_cell_length_b 24.973034
_cell_length_c 7.997589
_cell_angle_alpha 90.000000
_cell_angle_beta 90.000000
_cell_angle_gamma 120.000000
_cell_volume 4319.488582
_symmetry_space_group_name_H-M "P -6 2 M"
_symmetry_group_IT_number 189
_symmetry_cell_setting 'hexagonal'
loop_
_space_group_symop_operation_xyz
x,y,z
-x+y,-x,-z
-y,x-y,z
x,y,-z
-x+y,-x,z
-y,x-y,-z
x-y,-y,-z
-x,-x+y,-z
y,x,-z
y,x,z
x-y,-y,z
-x,-x+y,z
loop_
_atom_site_type_symbol
_atom_site_label
_atom_site_fract_x
_atom_site_fract_y
_atom_site_fract_z
Si Si1 0.358621 0.287941 0.202321
Si Si2 0.386176 0.190835 0.307243
Si Si3 0.070429 0.377140 0.797280
Si Si4 0.518330 0.136732 0.198656
Si Si5 0.591252 0.072091 0.796933
Si Si6 0.258964 0.736288 0.184992
Si Si7 0.324342 0.592462 0.500000
O O1 0.311699 0.311699 0.251185
O O2 0.345868 0.222983 0.272327
O O3 0.427105 0.341504 0.260427
O O4 0.359133 0.285994 0.000000
O O5 0.405484 0.199196 0.500000
O O6 0.357338 0.119313 0.261797
O O7 0.448661 0.228663 0.199092
O O8 0.097359 0.447950 0.736270
O O9 0.000000 0.334254 0.743213
O O10 0.071644 0.378517 0.000000
O O11 0.563859 0.114185 0.267661
O O12 0.537944 0.208376 0.209025
O O13 0.513836 0.123300 0.000000
O O14 0.543634 0.000000 0.759795
O O15 0.596204 0.077447 0.000000
O O16 0.241638 0.687641 0.332080
O O17 0.251203 0.708764 0.000000
O O18 0.272433 0.614110 0.500000
#
# Coordination Sequence:
#
# PCOD9586445 Si02
#       7
#    12  12  12  12  12  12   6
#     4   9  18  32  50  74 101 131 173 220 265 319
#     4  11  21  34  53  75 104 140 175 215 260 313
#     4   9  17  30  50  76 104 135 172 212 259 320
#     4   8  14  25  46  74  98 126 161 200 254 315
#     4   8  13  23  42  70  96 116 152 205 254 302
#     4  10  20  37  56  74  98 131 171 211 265 326
#     4  10  24  40  52  72  98 120 169 224 272 324
#
# _framework density 18.057693
#
# number of rings (size 3 to 8) (size 9 to 14) (size 15 to 20)
#    0.154    2.615    0.769    3.692    0.000    4.308 
#    0.000    1.538    0.000    0.000    0.000    0.000 
#    0.000    0.000    0.000    0.462    0.000    8.923 
#
# Total GULP energy -435219.019321 kJ/mol
# GULP energy per Si atom -5579.731017 kJ/mol
# Density = 1.801659 g / cm^3
# Si number density = 18.057693 Si / 1000 Ang^3
#
#
#
# Elastic Constant Matrix: (Units=GPa)
#
#
# Indices 1 2 3 4 5 6 
#
# 1 82.0364 35.1863 21.9532 0.0000 0.0000 0.0000
# 2 35.1863 82.0364 21.9532 0.0000 0.0000 0.0000
# 3 21.9532 21.9532 61.5367 0.0000 0.0000 0.0000
# 4 0.0000 0.0000 0.0000 10.4751 0.0000 0.0000
# 5 0.0000 0.0000 0.0000 0.0000 10.4751 0.0000
# 6 0.0000 0.0000 0.0000 0.0000 0.0000 23.4251
#
#
#
# Elastic Compliance Matrix: (Units=1/GPa)
#
#
# Indices 1 2 3 4 5 6 
#
# 1 0.015596 -0.005749 -0.003513 0.000000 0.000000 0.000000
# 2 -0.005749 0.015596 -0.003513 0.000000 0.000000 0.000000
# 3 -0.003513 -0.003513 0.018757 0.000000 0.000000 0.000000
# 4 0.000000 0.000000 0.000000 0.095465 0.000000 0.000000
# 5 0.000000 0.000000 0.000000 0.000000 0.095465 0.000000
# 6 0.000000 0.000000 0.000000 0.000000 0.000000 0.042689
#
#
# Mechanical properties :
#
#
# Convention : Reuss Voigt Hill
#
# Bulk Modulus (GPa) = 40.98556 42.64387 41.81471
# Shear Modulus (GPa) = 15.76052 18.64283 17.20167
#
# Velocity S-wave (km/s) = 2.95750 3.21659 3.08976
# Velocity P-wave (km/s) = 5.86589 6.12061 5.99461
#
# Compressibility (1/GPa) = 0.02439884
#
# Stress axis : x y z
#
# Youngs Moduli (GPa) = 64.12072 64.12072 53.31399
#
# Poissons Ratio (x) = 0.36864 0.18728
# Poissons Ratio (y) = 0.36864 0.18728
# Poissons Ratio (z) = 0.22524 0.22524
#
# Static dielectric constant tensor:
#      x y z
#    x 1.627570 0.000000 0.000000 
#    y 0.000000 1.627570 0.000000 
#    z 0.000000 0.000000 1.654560 
# 
# From -- ./inp_files/1417.got.cif
#   From: 2010.05.17/outbox.cif.g08.bks.cpg/sg189_1_cif.got.tgz:1417.got - 2010.05.20 12:14:34.
