data_PCOD9586256
_publ_section_title
;
Structure prediction by ZEFSAII (Michael W. Deem and Ramdas Pophale) SiO2 
 PCOD9586256
Probable space group: P -6 2 M
;
_chemical_formula_sum "Si O2"
_cell_formula_units_Z 84
_cell_length_a 19.948374
_cell_length_b 19.948374
_cell_length_c 13.953244
_cell_angle_alpha 90.000000
_cell_angle_beta 90.000000
_cell_angle_gamma 120.000000
_cell_volume 4808.624052
_symmetry_space_group_name_H-M "P -6 2 M"
_symmetry_group_IT_number 189
_symmetry_cell_setting 'hexagonal'
loop_
_space_group_symop_operation_xyz
x,y,z
-x+y,-x,-z
-y,x-y,z
x,y,-z
-x+y,-x,z
-y,x-y,-z
x-y,-y,-z
-x,-x+y,-z
y,x,-z
y,x,z
x-y,-y,z
-x,-x+y,z
loop_
_atom_site_type_symbol
_atom_site_label
_atom_site_fract_x
_atom_site_fract_y
_atom_site_fract_z
Si Si1 0.784051 0.313607 0.391121
Si Si2 0.398314 0.398314 0.385055
Si Si3 0.241821 0.241821 0.616345
Si Si4 0.237144 0.085143 0.384754
Si Si5 0.090500 0.593990 0.109144
Si Si6 0.357336 0.523005 0.303518
Si Si7 0.908562 0.341190 0.103854
Si Si8 0.299590 0.912157 0.307388
O O1 0.763981 0.322829 0.500000
O O2 0.797125 0.385620 0.325933
O O3 0.722677 0.229534 0.350269
O O4 0.865151 0.316279 0.385866
O O5 0.399399 0.399399 0.500000
O O6 0.319685 0.319685 0.352634
O O7 0.392236 0.472398 0.350331
O O8 0.243972 0.243972 0.500000
O O9 0.236164 0.161600 0.645803
O O10 0.248351 0.089392 0.500000
O O11 0.309961 0.087296 0.334661
O O12 0.163573 0.000000 0.364822
O O13 0.148303 0.646742 0.191671
O O14 0.094929 0.514989 0.111546
O O15 0.000000 0.566142 0.129655
O O16 0.107862 0.623819 0.000000
O O17 0.876916 0.294413 0.201700
O O18 0.000000 0.369109 0.100935
O O19 0.874774 0.304838 0.000000
O O20 0.369098 0.000000 0.304993
#
# Coordination Sequence:
#
# PCOD9586256 Si02
#       8
#    12   6   6  12  12  12  12  12
#     4  12  25  38  53  75 114 153 187 237 292 335
#     4  11  22  36  59  81 105 148 213 254 276 357
#     4   9  18  34  52  73 107 144 186 236 275 317
#     4   9  17  30  48  74 108 143 178 220 276 334
#     4   9  17  35  62  87 110 140 184 244 300 347
#     4  12  24  41  57  82 112 154 201 239 300 360
#     4   8  14  27  50  80 107 131 166 218 276 326
#     4  10  19  32  53  80 106 135 176 223 275 324
#
# _framework density 17.468613999999999
#
# number of rings (size 3 to 8) (size 9 to 14) (size 15 to 20)
#    0.000    2.000    2.143    3.714    1.000    2.000 
#    0.429    1.429    0.000    0.000    0.000    0.500 
#    0.000    0.000    0.000    0.000    0.143    0.000 
#
# Total GULP energy -467959.887094 kJ/mol
# GULP energy per Si atom -5570.951037 kJ/mol
# Density = 1.742885 g / cm^3
# Si number density = 17.468614 Si / 1000 Ang^3
#
#
#
# Elastic Constant Matrix: (Units=GPa)
#
#
# Indices 1 2 3 4 5 6 
#
# 1 42.2086 2.2916 9.8796 0.0000 0.0000 0.0000
# 2 2.2916 42.2086 9.8796 0.0000 0.0000 0.0000
# 3 9.8796 9.8796 86.7056 0.0000 0.0000 0.0000
# 4 0.0000 0.0000 0.0000 10.2542 0.0000 0.0000
# 5 0.0000 0.0000 0.0000 0.0000 10.2542 0.0000
# 6 0.0000 0.0000 0.0000 0.0000 0.0000 19.9585
#
#
#
# Elastic Compliance Matrix: (Units=1/GPa)
#
#
# Indices 1 2 3 4 5 6 
#
# 1 0.024361 -0.000691 -0.002697 0.000000 0.000000 0.000000
# 2 -0.000691 0.024361 -0.002697 0.000000 0.000000 0.000000
# 3 -0.002697 -0.002697 0.012148 0.000000 0.000000 0.000000
# 4 0.000000 0.000000 0.000000 0.097521 0.000000 0.000000
# 5 0.000000 0.000000 0.000000 0.000000 0.097521 0.000000
# 6 0.000000 0.000000 0.000000 0.000000 0.000000 0.050104
#
#
# Mechanical properties :
#
#
# Convention : Reuss Voigt Hill
#
# Bulk Modulus (GPa) = 20.53444 23.91381 22.22413
# Shear Modulus (GPa) = 14.95129 18.03150 16.49140
#
# Velocity S-wave (km/s) = 2.92874 3.21631 3.07589
# Velocity P-wave (km/s) = 4.81843 5.24520 5.03634
#
# Compressibility (1/GPa) = 0.04869866
#
# Stress axis : x y z
#
# Youngs Moduli (GPa) = 41.04979 41.04979 82.31885
#
# Poissons Ratio (x) = 0.02838 0.22201
# Poissons Ratio (y) = 0.02838 0.22201
# Poissons Ratio (z) = 0.11071 0.11071
#
# Static dielectric constant tensor:
#      x y z
#    x 1.617490 0.000000 0.000000 
#    y 0.000000 1.617490 0.000000 
#    z 0.000000 0.000000 1.649470 
# 
# From -- ./inp_files/2841.got.cif
#   From: 2010.05.17/outbox.cif.g08.bks.cpg/sg189_2_cif.got.tgz:2841.got - 2010.05.20 12:14:34.
