data_PCOD9586666
_publ_section_title
;
Structure prediction by ZEFSAII (Michael W. Deem and Ramdas Pophale) SiO2 
 PCOD9586666
Probable space group: P -6 2 C
;
_chemical_formula_sum "Si O2"
_cell_formula_units_Z 72
_cell_length_a 24.610218
_cell_length_b 24.610218
_cell_length_c 8.520136
_cell_angle_alpha 90.000000
_cell_angle_beta 90.000000
_cell_angle_gamma 120.000000
_cell_volume 4468.976596
_symmetry_space_group_name_H-M "P -6 2 C"
_symmetry_group_IT_number 190
_symmetry_cell_setting 'hexagonal'
loop_
_space_group_symop_operation_xyz
x,y,z
-x+y,-x,1/2-z
-y,x-y,z
x,y,1/2-z
-x+y,-x,z
-y,x-y,1/2-z
x-y,-y,-z
-x,-x+y,-z
y,x,-z
y,x,1/2+z
x-y,-y,1/2+z
-x,-x+y,1/2+z
loop_
_atom_site_type_symbol
_atom_site_label
_atom_site_fract_x
_atom_site_fract_y
_atom_site_fract_z
Si Si1 0.260605 0.856522 0.438309
Si Si2 0.069777 0.262127 0.060583
Si Si3 0.930027 0.068783 0.938078
Si Si4 0.471202 0.069584 0.438375
Si Si5 0.190553 0.595130 0.559208
Si Si6 0.737097 0.259445 0.439959
O O1 0.262610 0.857016 0.250000
O O2 0.214785 0.882083 0.490946
O O3 0.330669 0.903171 0.501050
O O4 0.241578 0.787486 0.498110
O O5 0.068067 0.261726 0.250000
O O6 0.085306 0.208231 0.010741
O O7 0.000000 0.240021 0.000000
O O8 0.931155 0.067690 0.750000
O O9 0.000000 0.091362 0.000000
O O10 0.882458 0.000000 0.000000
O O11 0.469271 0.068895 0.250000
O O12 0.541980 0.120849 0.489157
O O13 0.446091 0.000000 0.500000
O O14 0.191044 0.596823 0.750000
O O15 0.236933 0.569013 0.513550
O O16 0.216012 0.665856 0.504795
O O17 0.738045 0.258097 0.250000
#
# Coordination Sequence:
#
# PCOD9586666 Si02
#       6
#    12  12  12  12  12  12
#     4  10  19  31  46  68  95 122 150 187 230 273
#     4   9  19  32  47  66  91 119 149 183 223 266
#     4  10  19  32  48  68  91 118 148 181 219 263
#     4  10  19  31  47  69  94 123 155 190 229 273
#     4   8  15  27  46  68  90 116 150 186 224 268
#     4   9  16  29  48  69  91 120 154 189 226 271
#
# _framework density 16.111070999999999
#
# number of rings (size 3 to 8) (size 9 to 14) (size 15 to 20)
#    0.000    2.667    0.000    3.500    0.000    4.667 
#    0.000    4.167    0.000    1.000    0.000    7.000 
#    0.000    0.000    0.000    0.000    0.000    0.000 
#
# Total GULP energy -401360.880653 kJ/mol
# GULP energy per Si atom -5574.456676 kJ/mol
# Density = 1.607440 g / cm^3
# Si number density = 16.111071 Si / 1000 Ang^3
#
#
#
# Elastic Constant Matrix: (Units=GPa)
#
#
# Indices 1 2 3 4 5 6 
#
# 1 139.1458 92.8143 25.3274 0.0000 0.0000 0.0000
# 2 92.8143 139.1458 25.3274 0.0000 0.0000 0.0000
# 3 25.3274 25.3274 26.2777 0.0000 0.0000 0.0000
# 4 0.0000 0.0000 0.0000 20.1593 0.0000 0.0000
# 5 0.0000 0.0000 0.0000 0.0000 20.1593 0.0000
# 6 0.0000 0.0000 0.0000 0.0000 0.0000 23.1657
#
#
#
# Elastic Compliance Matrix: (Units=1/GPa)
#
#
# Indices 1 2 3 4 5 6 
#
# 1 0.013522 -0.008062 -0.005263 0.000000 0.000000 0.000000
# 2 -0.008062 0.013522 -0.005263 0.000000 0.000000 0.000000
# 3 -0.005263 -0.005263 0.048200 0.000000 0.000000 0.000000
# 4 0.000000 0.000000 0.000000 0.049605 0.000000 0.000000
# 5 0.000000 0.000000 0.000000 0.000000 0.049605 0.000000
# 6 0.000000 0.000000 0.000000 0.000000 0.000000 0.043167
#
#
# Mechanical properties :
#
#
# Convention : Reuss Voigt Hill
#
# Bulk Modulus (GPa) = 26.26785 65.72305 45.99545
# Shear Modulus (GPa) = 18.69257 23.43687 21.06472
#
# Velocity S-wave (km/s) = 3.40991 3.81820 3.61982
# Velocity P-wave (km/s) = 5.64296 7.76663 6.78835
#
# Compressibility (1/GPa) = 0.03806935
#
# Stress axis : x y z
#
# Youngs Moduli (GPa) = 73.95351 73.95351 20.74678
#
# Poissons Ratio (x) = 0.59619 0.10919
# Poissons Ratio (y) = 0.59619 0.10919
# Poissons Ratio (z) = 0.38921 0.38921
#
# Static dielectric constant tensor:
#      x y z
#    x 1.534160 0.000000 0.000000 
#    y 0.000000 1.534160 0.000000 
#    z 0.000000 0.000000 1.553460 
# 
# From -- ./inp_files/1192.got.cif
#   From: 2010.05.17/outbox.cif.g08.bks.cpg/sg190_1_cif.got.tgz:1192.got - 2010.05.20 12:16:56.
