data_PCOD9586407
_publ_section_title
;
Structure prediction by ZEFSAII (Michael W. Deem and Ramdas Pophale) SiO2 
 PCOD9586407
Probable space group: P -6 2 M
;
_chemical_formula_sum "Si O2"
_cell_formula_units_Z 44
_cell_length_a 17.187404
_cell_length_b 17.187404
_cell_length_c 9.594577
_cell_angle_alpha 90.000000
_cell_angle_beta 90.000000
_cell_angle_gamma 120.000000
_cell_volume 2454.579118
_symmetry_space_group_name_H-M "P -6 2 M"
_symmetry_group_IT_number 189
_symmetry_cell_setting 'hexagonal'
loop_
_space_group_symop_operation_xyz
x,y,z
-x+y,-x,-z
-y,x-y,z
x,y,-z
-x+y,-x,z
-y,x-y,-z
x-y,-y,-z
-x,-x+y,-z
y,x,-z
y,x,z
x-y,-y,z
-x,-x+y,z
loop_
_atom_site_type_symbol
_atom_site_label
_atom_site_fract_x
_atom_site_fract_y
_atom_site_fract_z
Si Si1 0.639785 0.531973 0.659099
Si Si2 0.000000 0.837627 0.666477
Si Si3 0.611287 0.107998 0.157336
Si Si4 0.784522 0.150571 0.336126
Si Si5 0.000000 0.000000 0.169948
O O1 0.630187 0.498360 0.500000
O O2 0.589039 0.589039 0.667441
O O3 0.590378 0.448456 0.762932
O O4 0.744488 0.597950 0.686430
O O5 0.000000 0.858445 0.500000
O O6 0.086543 0.825987 0.693618
O O7 0.000000 0.913116 0.763941
O O8 0.698220 0.126735 0.244106
O O9 0.549885 0.000000 0.150842
O O10 0.634013 0.142823 0.000000
O O11 0.758885 0.136498 0.500000
O O12 0.000000 0.000000 0.000000
#
# Coordination Sequence:
#
# PCOD9586407 Si02
#       5
#    12   6  12  12   2
#     4   9  19  35  57  82 110 142 186 238 285 339
#     4  10  22  40  66  91 118 157 204 255 306 357
#     4  10  20  35  55  80 113 148 183 225 281 345
#     4  10  20  36  62  90 113 148 196 245 295 349
#     4  12  28  44  58  87 130 167 202 249 304 353
#
# _framework density 17.925681000000001
#
# number of rings (size 3 to 8) (size 9 to 14) (size 15 to 20)
#    0.000    2.182    1.364    1.227    1.909    3.273 
#    1.636    0.000    0.000    0.000    0.000    0.000 
#    0.000    0.000    0.000    0.000    0.000    0.000 
#
# Total GULP energy -245420.358847 kJ/mol
# GULP energy per Si atom -5577.735428 kJ/mol
# Density = 1.788488 g / cm^3
# Si number density = 17.925681 Si / 1000 Ang^3
#
#
#
# Elastic Constant Matrix: (Units=GPa)
#
#
# Indices 1 2 3 4 5 6 
#
# 1 96.0830 47.9277 83.4376 0.0000 0.0000 0.0000
# 2 47.9277 96.0830 83.4376 0.0000 0.0000 0.0000
# 3 83.4376 83.4376 123.8979 0.0000 0.0000 0.0000
# 4 0.0000 0.0000 0.0000 17.3335 0.0000 0.0000
# 5 0.0000 0.0000 0.0000 0.0000 17.3335 0.0000
# 6 0.0000 0.0000 0.0000 0.0000 0.0000 24.0777
#
#
#
# Elastic Compliance Matrix: (Units=1/GPa)
#
#
# Indices 1 2 3 4 5 6 
#
# 1 0.026191 0.005424 -0.021291 0.000000 0.000000 0.000000
# 2 0.005424 0.026191 -0.021291 0.000000 0.000000 0.000000
# 3 -0.021291 -0.021291 0.036747 0.000000 0.000000 0.000000
# 4 0.000000 0.000000 0.000000 0.057692 0.000000 0.000000
# 5 0.000000 0.000000 0.000000 0.000000 0.057692 0.000000
# 6 0.000000 0.000000 0.000000 0.000000 0.000000 0.041532
#
#
# Mechanical properties :
#
#
# Convention : Reuss Voigt Hill
#
# Bulk Modulus (GPa) = 67.50295 82.85217 75.17756
# Shear Modulus (GPa) = 15.37061 18.49968 16.93514
#
# Velocity S-wave (km/s) = 2.93142 3.21599 3.07700
# Velocity P-wave (km/s) = 7.01402 7.75308 7.39279
#
# Compressibility (1/GPa) = 0.01481417
#
# Stress axis : x y z
#
# Youngs Moduli (GPa) = 38.18171 38.18171 27.21299
#
# Poissons Ratio (x) = -0.20711 0.57938
# Poissons Ratio (y) = -0.20711 0.57938
# Poissons Ratio (z) = 0.81292 0.81292
#
# Static dielectric constant tensor:
#      x y z
#    x 1.598330 0.000000 0.000000 
#    y 0.000000 1.598330 0.000000 
#    z 0.000000 0.000000 1.620990 
# 
# From -- ./inp_files/592.got.cif
#   From: 2010.05.17/outbox.cif.g08.bks.cpg/sg189_1_cif.got.tgz:592.got - 2010.05.20 12:14:34.
