data_PCOD9586392
_publ_section_title
;
Structure prediction by ZEFSAII (Michael W. Deem and Ramdas Pophale) SiO2 
 PCOD9586392
Probable space group: P -6 2 M
;
_chemical_formula_sum "Si O2"
_cell_formula_units_Z 45
_cell_length_a 18.739013
_cell_length_b 18.739013
_cell_length_c 7.722976
_cell_angle_alpha 90.000000
_cell_angle_beta 90.000000
_cell_angle_gamma 120.000000
_cell_volume 2348.598298
_symmetry_space_group_name_H-M "P -6 2 M"
_symmetry_group_IT_number 189
_symmetry_cell_setting 'hexagonal'
loop_
_space_group_symop_operation_xyz
x,y,z
-x+y,-x,-z
-y,x-y,z
x,y,-z
-x+y,-x,z
-y,x-y,-z
x-y,-y,-z
-x,-x+y,-z
y,x,-z
y,x,z
x-y,-y,z
-x,-x+y,z
loop_
_atom_site_type_symbol
_atom_site_label
_atom_site_fract_x
_atom_site_fract_y
_atom_site_fract_z
Si Si1 0.213502 0.213502 0.787698
Si Si2 0.407527 0.501472 0.293757
Si Si3 0.000000 0.906443 0.500000
Si Si4 0.223219 0.383939 0.795036
Si Si5 0.339629 0.906121 0.208035
O O1 0.142290 0.142290 0.671869
O O2 0.218926 0.299739 0.736226
O O3 0.202678 0.202678 0.000000
O O4 0.405712 0.495863 0.500000
O O5 0.447494 0.447494 0.224222
O O6 0.314307 0.460381 0.232755
O O7 0.471147 0.595362 0.245298
O O8 0.922790 0.922790 0.500000
O O9 0.154221 0.402692 0.722312
O O10 0.209438 0.373128 0.000000
O O11 0.380663 0.000000 0.274859
O O12 0.334623 0.909723 0.000000
#
# Coordination Sequence:
#
# PCOD9586392 Si02
#       5
#     6  12   3  12  12
#     4  10  22  40  68  98 125 165 216 261 315 382
#     4  10  20  34  55  81 113 150 188 235 293 355
#     4  10  26  46  62  94 132 170 210 256 328 372
#     4  10  20  35  60  90 116 155 203 249 303 364
#     4   9  19  36  56  80 113 147 190 242 295 356
#
# _framework density 19.160366
#
# number of rings (size 3 to 8) (size 9 to 14) (size 15 to 20)
#    0.133    2.133    1.333    0.800    1.867    3.733 
#    1.600    2.667    0.000    0.000    0.000    0.000 
#    0.000    0.000    0.000    0.000    0.000    0.000 
#
# Total GULP energy -250952.121698 kJ/mol
# GULP energy per Si atom -5576.713816 kJ/mol
# Density = 1.911676 g / cm^3
# Si number density = 19.160366 Si / 1000 Ang^3
#
#
#
# Elastic Constant Matrix: (Units=GPa)
#
#
# Indices 1 2 3 4 5 6 
#
# 1 140.4302 88.0589 7.3906 0.0000 0.0000 0.0000
# 2 88.0589 140.4302 7.3906 0.0000 0.0000 0.0000
# 3 7.3906 7.3906 29.7690 0.0000 0.0000 0.0000
# 4 0.0000 0.0000 0.0000 6.2087 0.0000 0.0000
# 5 0.0000 0.0000 0.0000 0.0000 6.2087 0.0000
# 6 0.0000 0.0000 0.0000 0.0000 0.0000 26.1857
#
#
#
# Elastic Compliance Matrix: (Units=1/GPa)
#
#
# Indices 1 2 3 4 5 6 
#
# 1 0.011771 -0.007323 -0.001104 0.000000 0.000000 0.000000
# 2 -0.007323 0.011771 -0.001104 0.000000 0.000000 0.000000
# 3 -0.001104 -0.001104 0.034140 0.000000 0.000000 0.000000
# 4 0.000000 0.000000 0.000000 0.161064 0.000000 0.000000
# 5 0.000000 0.000000 0.000000 0.000000 0.161064 0.000000
# 6 0.000000 0.000000 0.000000 0.000000 0.000000 0.038189
#
#
# Mechanical properties :
#
#
# Convention : Reuss Voigt Hill
#
# Bulk Modulus (GPa) = 25.89385 57.36775 41.63080
# Shear Modulus (GPa) = 11.11268 21.57323 16.34296
#
# Velocity S-wave (km/s) = 2.41090 3.35913 2.92371
# Velocity P-wave (km/s) = 4.61449 6.71199 5.75953
#
# Compressibility (1/GPa) = 0.03861921
#
# Stress axis : x y z
#
# Youngs Moduli (GPa) = 84.95296 84.95296 29.29087
#
# Poissons Ratio (x) = 0.62213 0.03235
# Poissons Ratio (y) = 0.62213 0.03235
# Poissons Ratio (z) = 0.09381 0.09381
#
# Static dielectric constant tensor:
#      x y z
#    x 1.668730 0.000000 0.000000 
#    y 0.000000 1.668730 0.000000 
#    z 0.000000 0.000000 1.683060 
# 
# From -- ./inp_files/561.got.cif
#   From: 2010.05.17/outbox.cif.g08.bks.cpg/sg189_1_cif.got.tgz:561.got - 2010.05.20 12:14:34.
