data_PCOD9586789
_publ_section_title
;
Structure prediction by ZEFSAII (Michael W. Deem and Ramdas Pophale) SiO2 
 PCOD9586789
Probable space group: P -6 2 C
;
_chemical_formula_sum "Si O2"
_cell_formula_units_Z 54
_cell_length_a 15.859050
_cell_length_b 15.859050
_cell_length_c 13.453894
_cell_angle_alpha 90.000000
_cell_angle_beta 90.000000
_cell_angle_gamma 120.000000
_cell_volume 2930.440920
_symmetry_space_group_name_H-M "P -6 2 C"
_symmetry_group_IT_number 190
_symmetry_cell_setting 'hexagonal'
loop_
_space_group_symop_operation_xyz
x,y,z
-x+y,-x,1/2-z
-y,x-y,z
x,y,1/2-z
-x+y,-x,z
-y,x-y,1/2-z
x-y,-y,-z
-x,-x+y,-z
y,x,-z
y,x,1/2+z
x-y,-y,1/2+z
-x,-x+y,1/2+z
loop_
_atom_site_type_symbol
_atom_site_label
_atom_site_fract_x
_atom_site_fract_y
_atom_site_fract_z
Si Si1 0.668879 0.000000 0.500000
Si Si2 0.936068 0.159899 0.370096
Si Si3 0.165745 0.449522 0.870390
Si Si4 0.934233 0.778982 0.869356
Si Si5 0.617779 0.129990 0.369234
O O1 0.692633 0.928674 0.435542
O O2 0.585382 0.949934 0.580505
O O3 0.938863 0.167315 0.250000
O O4 0.888886 0.225435 0.403996
O O5 0.047075 0.195373 0.399376
O O6 0.867145 0.044525 0.389076
O O7 0.159365 0.445286 0.750000
O O8 0.124908 0.518952 0.904831
O O9 0.280957 0.508910 0.893355
O O10 0.927268 0.760290 0.750000
O O11 0.613290 0.120513 0.250000
#
# Coordination Sequence:
#
# PCOD9586789 Si02
#       5
#     6  12  12  12  12
#     4  12  22  34  52  82 112 146 176 226 290 338
#     4   9  17  33  56  80 109 150 187 225 274 336
#     4   9  17  34  59  79 103 140 188 238 283 325
#     4  10  20  35  54  79 115 150 185 225 276 340
#     4  10  20  37  58  82 108 141 187 240 289 333
#
# _framework density 18.42726
#
# number of rings (size 3 to 8) (size 9 to 14) (size 15 to 20)
#    0.000    2.222    2.222    1.556    0.000    4.444 
#    4.000    0.000    0.000    0.000    0.000    0.000 
#    0.000    0.000    0.000    0.000    0.000    0.000 
#
# Total GULP energy -301058.447113 kJ/mol
# GULP energy per Si atom -5575.156428 kJ/mol
# Density = 1.838532 g / cm^3
# Si number density = 18.427260 Si / 1000 Ang^3
#
#
#
# Elastic Constant Matrix: (Units=GPa)
#
#
# Indices 1 2 3 4 5 6 
#
# 1 136.8782 82.3252 30.4878 0.0000 0.0000 0.0000
# 2 82.3252 136.8782 30.4878 0.0000 0.0000 0.0000
# 3 30.4878 30.4878 48.7604 0.0000 0.0000 0.0000
# 4 0.0000 0.0000 0.0000 20.7599 0.0000 0.0000
# 5 0.0000 0.0000 0.0000 0.0000 20.7599 0.0000
# 6 0.0000 0.0000 0.0000 0.0000 0.0000 27.2765
#
#
#
# Elastic Compliance Matrix: (Units=1/GPa)
#
#
# Indices 1 2 3 4 5 6 
#
# 1 0.011927 -0.006404 -0.003453 0.000000 0.000000 0.000000
# 2 -0.006404 0.011927 -0.003453 0.000000 0.000000 0.000000
# 3 -0.003453 -0.003453 0.024826 0.000000 0.000000 0.000000
# 4 0.000000 0.000000 0.000000 0.048170 0.000000 0.000000
# 5 0.000000 0.000000 0.000000 0.000000 0.048170 0.000000
# 6 0.000000 0.000000 0.000000 0.000000 0.000000 0.036662
#
#
# Mechanical properties :
#
#
# Convention : Reuss Voigt Hill
#
# Bulk Modulus (GPa) = 45.33194 67.67982 56.50588
# Shear Modulus (GPa) = 23.18525 25.70699 24.44612
#
# Velocity S-wave (km/s) = 3.55097 3.73909 3.64624
# Velocity P-wave (km/s) = 6.43944 7.44640 6.96115
#
# Compressibility (1/GPa) = 0.02205950
#
# Stress axis : x y z
#
# Youngs Moduli (GPa) = 83.84588 83.84588 40.27969
#
# Poissons Ratio (x) = 0.53696 0.13908
# Poissons Ratio (y) = 0.53696 0.13908
# Poissons Ratio (z) = 0.28952 0.28952
#
# Static dielectric constant tensor:
#      x y z
#    x 1.672530 0.000000 0.000000 
#    y 0.000000 1.672530 0.000000 
#    z 0.000000 0.000000 1.678150 
# 
# From -- ./inp_files/2683.got.cif
#   From: 2010.05.17/outbox.cif.g08.bks.cpg/sg190_2_cif.got.tgz:2683.got - 2010.05.20 12:16:56.
