data_PCOD9586765
_publ_section_title
;
Structure prediction by ZEFSAII (Michael W. Deem and Ramdas Pophale) SiO2 
 PCOD9586765
Probable space group: P -6 2 C
;
_chemical_formula_sum "Si O2"
_cell_formula_units_Z 72
_cell_length_a 24.159698
_cell_length_b 24.159698
_cell_length_c 9.021863
_cell_angle_alpha 90.000000
_cell_angle_beta 90.000000
_cell_angle_gamma 120.000000
_cell_volume 4560.472719
_symmetry_space_group_name_H-M "P -6 2 C"
_symmetry_group_IT_number 190
_symmetry_cell_setting 'hexagonal'
loop_
_space_group_symop_operation_xyz
x,y,z
-x+y,-x,1/2-z
-y,x-y,z
x,y,1/2-z
-x+y,-x,z
-y,x-y,1/2-z
x-y,-y,-z
-x,-x+y,-z
y,x,-z
y,x,1/2+z
x-y,-y,1/2+z
-x,-x+y,1/2+z
loop_
_atom_site_type_symbol
_atom_site_label
_atom_site_fract_x
_atom_site_fract_y
_atom_site_fract_z
Si Si1 0.481821 0.736670 0.572171
Si Si2 0.068711 0.803987 0.926095
Si Si3 0.589023 0.404475 0.072202
Si Si4 0.068811 0.933817 0.926214
Si Si5 0.401375 0.470499 0.073356
Si Si6 0.250317 0.399134 0.073414
O O1 0.491858 0.741189 0.750000
O O2 0.448890 0.662664 0.528998
O O3 0.434568 0.764641 0.539831
O O4 0.547977 0.783138 0.491252
O O5 0.064373 0.792646 0.750000
O O6 0.082978 0.876038 0.951824
O O7 0.120905 0.790103 0.997090
O O8 0.000000 0.757762 0.000000
O O9 0.584051 0.409492 0.250000
O O10 0.539714 0.420511 0.991975
O O11 0.065164 0.941339 0.750000
O O12 0.000000 0.911106 0.000000
O O13 0.119542 0.000000 0.000000
O O14 0.409463 0.473798 0.250000
O O15 0.325581 0.425949 0.040783
O O16 0.440396 0.440396 0.000000
O O17 0.241960 0.394030 0.250000
#
# Coordination Sequence:
#
# PCOD9586765 Si02
#       6
#    12  12  12  12  12  12
#     4   9  17  30  49  72  98 127 159 194 234 281
#     4  10  20  33  50  72  97 126 159 196 238 283
#     4   9  17  30  49  72  97 126 158 193 233 279
#     4  10  20  33  50  72  98 127 158 193 234 279
#     4  10  20  32  47  69  96 126 159 195 236 281
#     4  10  20  32  48  71  98 128 160 195 237 283
#
# _framework density 15.787836
#
# number of rings (size 3 to 8) (size 9 to 14) (size 15 to 20)
#    0.000    2.333    0.000    3.000    0.000    7.333 
#    0.000    0.000    0.000    3.000    0.000    4.667 
#    0.000    0.000    0.000    0.000    0.000    0.000 
#
# Total GULP energy -401772.265649 kJ/mol
# GULP energy per Si atom -5580.170356 kJ/mol
# Density = 1.575190 g / cm^3
# Si number density = 15.787836 Si / 1000 Ang^3
#
#
#
# Elastic Constant Matrix: (Units=GPa)
#
#
# Indices 1 2 3 4 5 6 
#
# 1 103.7262 61.0019 60.5091 0.0000 0.0000 0.0000
# 2 61.0019 103.7262 60.5091 0.0000 0.0000 0.0000
# 3 60.5091 60.5091 63.6747 0.0000 0.0000 0.0000
# 4 0.0000 0.0000 0.0000 25.6969 0.0000 0.0000
# 5 0.0000 0.0000 0.0000 0.0000 25.6969 0.0000
# 6 0.0000 0.0000 0.0000 0.0000 0.0000 21.3621
#
#
#
# Elastic Compliance Matrix: (Units=1/GPa)
#
#
# Indices 1 2 3 4 5 6 
#
# 1 0.021758 -0.001648 -0.019110 0.000000 0.000000 0.000000
# 2 -0.001648 0.021758 -0.019110 0.000000 0.000000 0.000000
# 3 -0.019110 -0.019110 0.052025 0.000000 0.000000 0.000000
# 4 0.000000 0.000000 0.000000 0.038915 0.000000 0.000000
# 5 0.000000 0.000000 0.000000 0.000000 0.038915 0.000000
# 6 0.000000 0.000000 0.000000 0.000000 0.000000 0.046812
#
#
# Mechanical properties :
#
#
# Convention : Reuss Voigt Hill
#
# Bulk Modulus (GPa) = 63.27421 70.57416 66.92418
# Shear Modulus (GPa) = 16.38335 20.49164 18.43749
#
# Velocity S-wave (km/s) = 3.22486 3.60660 3.42106
# Velocity P-wave (km/s) = 7.35059 7.88302 7.62146
#
# Compressibility (1/GPa) = 0.01580423
#
# Stress axis : x y z
#
# Youngs Moduli (GPa) = 45.96024 45.96024 19.22152
#
# Poissons Ratio (x) = 0.07574 0.36733
# Poissons Ratio (y) = 0.07574 0.36733
# Poissons Ratio (z) = 0.87831 0.87831
#
# Static dielectric constant tensor:
#      x y z
#    x 1.507520 0.000000 0.000000 
#    y 0.000000 1.507520 0.000000 
#    z 0.000000 0.000000 1.523250 
# 
# From -- ./inp_files/1198.got.cif
#   From: 2010.05.17/outbox.cif.g08.bks.cpg/sg190_1_cif.got.tgz:1198.got - 2010.05.20 12:16:56.
