data_PCOD9586962
_publ_section_title
;
Structure prediction by ZEFSAII (Michael W. Deem and Ramdas Pophale) SiO2 
 PCOD9586962
Probable space group: P -6 2 C
;
_chemical_formula_sum "Si O2"
_cell_formula_units_Z 40
_cell_length_a 9.678985
_cell_length_b 9.678985
_cell_length_c 22.344678
_cell_angle_alpha 90.000000
_cell_angle_beta 90.000000
_cell_angle_gamma 120.000000
_cell_volume 1812.860415
_symmetry_space_group_name_H-M "P -6 2 C"
_symmetry_group_IT_number 190
_symmetry_cell_setting 'hexagonal'
loop_
_space_group_symop_operation_xyz
x,y,z
-x+y,-x,1/2-z
-y,x-y,z
x,y,1/2-z
-x+y,-x,z
-y,x-y,1/2-z
x-y,-y,-z
-x,-x+y,-z
y,x,-z
y,x,1/2+z
x-y,-y,1/2+z
-x,-x+y,1/2+z
loop_
_atom_site_type_symbol
_atom_site_label
_atom_site_fract_x
_atom_site_fract_y
_atom_site_fract_z
Si Si1 0.017225 0.609587 0.750000
Si Si2 0.850265 0.342931 0.039757
Si Si3 0.074314 0.328401 0.250000
Si Si4 0.000000 0.000000 0.428942
Si Si5 0.302814 0.134838 0.146133
O O1 0.835990 0.573305 0.750000
O O2 0.013568 0.444429 0.750000
O O3 0.097608 0.714940 0.809266
O O4 0.810880 0.485325 0.028755
O O5 0.883780 0.317935 0.108153
O O6 0.000000 0.373992 0.000000
O O7 0.012629 0.220425 0.191327
O O8 0.946773 0.824783 0.402659
O O9 0.000000 0.000000 0.500000
#
# Coordination Sequence:
#
# PCOD9586962 Si02
#       5
#     6  12   6   4  12
#     4  11  23  42  72 102 145 185 238 294 386 435
#     4  10  24  46  72 103 144 191 247 297 366 431
#     4  11  23  42  68 102 137 183 228 294 376 433
#     4  12  24  40  74 103 141 195 250 299 379 429
#     4  11  23  44  71 102 143 181 238 310 356 453
#
# _framework density 22.064575999999999
#
# number of rings (size 3 to 8) (size 9 to 14) (size 15 to 20)
#    0.600    0.600    3.000    3.000    0.000    3.600 
#   12.600    0.000    0.000    0.600    0.000    0.000 
#    0.000    0.000    0.000    0.000    0.000    0.000 
#
# Total GULP energy -223192.066161 kJ/mol
# GULP energy per Si atom -5579.801654 kJ/mol
# Density = 2.201436 g / cm^3
# Si number density = 22.064576 Si / 1000 Ang^3
#
#
#
# Elastic Constant Matrix: (Units=GPa)
#
#
# Indices 1 2 3 4 5 6 
#
# 1 85.8879 18.9609 58.5687 0.0000 0.0000 0.0000
# 2 18.9609 85.8879 58.5687 0.0000 0.0000 0.0000
# 3 58.5687 58.5687 181.9671 0.0000 0.0000 0.0000
# 4 0.0000 0.0000 0.0000 25.7545 0.0000 0.0000
# 5 0.0000 0.0000 0.0000 0.0000 25.7545 0.0000
# 6 0.0000 0.0000 0.0000 0.0000 0.0000 33.4635
#
#
#
# Elastic Compliance Matrix: (Units=1/GPa)
#
#
# Indices 1 2 3 4 5 6 
#
# 1 0.014917 -0.000024 -0.004793 0.000000 0.000000 0.000000
# 2 -0.000024 0.014917 -0.004793 0.000000 0.000000 0.000000
# 3 -0.004793 -0.004793 0.008581 0.000000 0.000000 0.000000
# 4 0.000000 0.000000 0.000000 0.038828 0.000000 0.000000
# 5 0.000000 0.000000 0.000000 0.000000 0.038828 0.000000
# 6 0.000000 0.000000 0.000000 0.000000 0.000000 0.029883
#
#
# Mechanical properties :
#
#
# Convention : Reuss Voigt Hill
#
# Bulk Modulus (GPa) = 52.10243 69.54881 60.82562
# Shear Modulus (GPa) = 29.14168 31.50415 30.32291
#
# Velocity S-wave (km/s) = 3.63815 3.78274 3.71115
# Velocity P-wave (km/s) = 6.42752 7.11814 6.78163
#
# Compressibility (1/GPa) = 0.01919296
#
# Stress axis : x y z
#
# Youngs Moduli (GPa) = 67.03655 67.03655 116.53408
#
# Poissons Ratio (x) = 0.00164 0.55860
# Poissons Ratio (y) = 0.00164 0.55860
# Poissons Ratio (z) = 0.32134 0.32134
#
# Static dielectric constant tensor:
#      x y z
#    x 1.817740 0.000000 0.000000 
#    y 0.000000 1.817740 0.000000 
#    z 0.000000 0.000000 1.794580 
# 
# From -- ./inp_files/3447.got.cif
#   From: 2010.05.17/outbox.cif.g08.bks.cpg/sg190_2_cif.got.tgz:3447.got - 2010.05.20 12:16:56.
