data_PCOD9586991
_publ_section_title
;
Structure prediction by ZEFSAII (Michael W. Deem and Ramdas Pophale) SiO2 
 PCOD9586991
Probable space group: P -6 2 C
;
_chemical_formula_sum "Si O2"
_cell_formula_units_Z 60
_cell_length_a 15.291543
_cell_length_b 15.291543
_cell_length_c 14.117426
_cell_angle_alpha 90.000000
_cell_angle_beta 90.000000
_cell_angle_gamma 120.000000
_cell_volume 2858.832906
_symmetry_space_group_name_H-M "P -6 2 C"
_symmetry_group_IT_number 190
_symmetry_cell_setting 'hexagonal'
loop_
_space_group_symop_operation_xyz
x,y,z
-x+y,-x,1/2-z
-y,x-y,z
x,y,1/2-z
-x+y,-x,z
-y,x-y,1/2-z
x-y,-y,-z
-x,-x+y,-z
y,x,-z
y,x,1/2+z
x-y,-y,1/2+z
-x,-x+y,1/2+z
loop_
_atom_site_type_symbol
_atom_site_label
_atom_site_fract_x
_atom_site_fract_y
_atom_site_fract_z
Si Si1 0.451846 0.163547 0.136682
Si Si2 0.490865 0.867642 0.939177
Si Si3 0.217639 0.168615 0.900786
Si Si4 0.952343 0.169237 0.142593
Si Si5 0.344737 0.425582 0.143102
O O1 0.456462 0.152557 0.250000
O O2 0.516650 0.123610 0.082785
O O3 0.506019 0.281367 0.110256
O O4 0.333291 0.106725 0.108372
O O5 0.581604 0.965193 0.888378
O O6 0.506046 0.861774 0.052022
O O7 0.126762 0.176430 0.852769
O O8 0.327141 0.233983 0.855867
O O9 0.190351 0.053624 0.910071
O O10 0.220658 0.220658 0.000000
O O11 0.985976 0.205083 0.250000
O O12 0.368997 0.468992 0.250000
#
# Coordination Sequence:
#
# PCOD9586991 Si02
#       5
#    12  12  12  12  12
#     4  11  22  41  70 102 135 173 227 290 341 404
#     4  11  23  43  69 101 130 171 231 284 343 403
#     4  12  22  41  63  94 134 183 221 274 333 407
#     4  11  23  38  64 100 135 174 225 274 334 409
#     4  11  22  44  68  90 132 182 221 271 345 411
#
# _framework density 20.987584999999999
#
# number of rings (size 3 to 8) (size 9 to 14) (size 15 to 20)
#    0.000    0.800    4.000    5.000    0.000    0.000 
#   14.400    1.000    0.000    0.000    0.000    0.000 
#    0.000    0.000    0.000    0.000    0.000    0.000 
#
# Total GULP energy -335025.663531 kJ/mol
# GULP energy per Si atom -5583.761059 kJ/mol
# Density = 2.093982 g / cm^3
# Si number density = 20.987585 Si / 1000 Ang^3
#
#
#
# Elastic Constant Matrix: (Units=GPa)
#
#
# Indices 1 2 3 4 5 6 
#
# 1 90.1594 67.0328 31.7731 0.0000 0.0000 0.0000
# 2 67.0328 90.1594 31.7731 0.0000 0.0000 0.0000
# 3 31.7731 31.7731 137.6619 0.0000 0.0000 0.0000
# 4 0.0000 0.0000 0.0000 28.6711 0.0000 0.0000
# 5 0.0000 0.0000 0.0000 0.0000 28.6711 0.0000
# 6 0.0000 0.0000 0.0000 0.0000 0.0000 11.5633
#
#
#
# Elastic Compliance Matrix: (Units=1/GPa)
#
#
# Indices 1 2 3 4 5 6 
#
# 1 0.025128 -0.018112 -0.001619 0.000000 0.000000 0.000000
# 2 -0.018112 0.025128 -0.001619 0.000000 0.000000 0.000000
# 3 -0.001619 -0.001619 0.008012 0.000000 0.000000 0.000000
# 4 0.000000 0.000000 0.000000 0.034878 0.000000 0.000000
# 5 0.000000 0.000000 0.000000 0.000000 0.034878 0.000000
# 6 0.000000 0.000000 0.000000 0.000000 0.000000 0.086481
#
#
# Mechanical properties :
#
#
# Convention : Reuss Voigt Hill
#
# Bulk Modulus (GPa) = 64.23969 64.34874 64.29421
# Shear Modulus (GPa) = 19.05515 26.27453 22.66484
#
# Velocity S-wave (km/s) = 3.01645 3.54207 3.28977
# Velocity P-wave (km/s) = 6.54269 6.88878 6.71797
#
# Compressibility (1/GPa) = 0.01556670
#
# Stress axis : x y z
#
# Youngs Moduli (GPa) = 39.79574 39.79574 124.81736
#
# Poissons Ratio (x) = 0.72078 0.20213
# Poissons Ratio (y) = 0.72078 0.20213
# Poissons Ratio (z) = 0.06445 0.06445
#
# Static dielectric constant tensor:
#      x y z
#    x 1.810110 0.000000 0.000000 
#    y 0.000000 1.810110 0.000000 
#    z 0.000000 0.000000 1.841140 
# 
# From -- ./inp_files/2791.got.cif
#   From: 2010.05.17/outbox.cif.g08.bks.cpg/sg190_2_cif.got.tgz:2791.got - 2010.05.20 12:16:56.
