data_PCOD9586932
_publ_section_title
;
Structure prediction by ZEFSAII (Michael W. Deem and Ramdas Pophale) SiO2 
 PCOD9586932
Probable space group: P -6 2 C
;
_chemical_formula_sum "Si O2"
_cell_formula_units_Z 70
_cell_length_a 14.520174
_cell_length_b 14.520174
_cell_length_c 17.752509
_cell_angle_alpha 90.000000
_cell_angle_beta 90.000000
_cell_angle_gamma 120.000000
_cell_volume 3241.410350
_symmetry_space_group_name_H-M "P -6 2 C"
_symmetry_group_IT_number 190
_symmetry_cell_setting 'hexagonal'
loop_
_space_group_symop_operation_xyz
x,y,z
-x+y,-x,1/2-z
-y,x-y,z
x,y,1/2-z
-x+y,-x,z
-y,x-y,1/2-z
x-y,-y,-z
-x,-x+y,-z
y,x,-z
y,x,1/2+z
x-y,-y,1/2+z
-x,-x+y,1/2+z
loop_
_atom_site_type_symbol
_atom_site_label
_atom_site_fract_x
_atom_site_fract_y
_atom_site_fract_z
Si Si1 0.915950 0.141309 0.162561
Si Si2 0.007983 0.445723 0.584558
Si Si3 0.868165 0.225955 0.835172
Si Si4 0.000000 0.000000 0.341758
Si Si5 0.229405 0.780713 0.903702
Si Si6 0.097643 0.685954 0.044926
Si Si7 0.226074 0.687757 0.750000
O O1 0.876798 0.129269 0.250000
O O2 0.853402 0.175980 0.107249
O O3 0.037807 0.235887 0.164533
O O4 0.919180 0.038809 0.135761
O O5 0.931553 0.349261 0.638661
O O6 0.958294 0.523408 0.577644
O O7 0.000000 0.401658 0.500000
O O8 0.132941 0.488644 0.600822
O O9 0.828377 0.216211 0.750000
O O10 0.773399 0.152495 0.890970
O O11 0.000000 0.000000 0.250000
O O12 0.188580 0.707009 0.829510
O O13 0.188529 0.714850 0.980841
O O14 0.000000 0.683603 0.000000
O O15 0.352329 0.774724 0.750000
#
# Coordination Sequence:
#
# PCOD9586932 Si02
#       7
#    12  12  12   4  12  12   6
#     4   9  19  36  64  94 128 175 214 270 341 400
#     4  10  22  43  70  93 130 186 226 280 363 415
#     4  10  22  44  66  97 132 177 228 288 348 414
#     4   9  18  33  57  94 125 160 214 257 322 399
#     4  11  22  45  66  92 143 173 226 284 347 420
#     4  11  26  41  67 104 132 181 237 281 351 428
#     4  10  26  38  64 100 126 176 228 286 340 398
#
# _framework density 21.595537
#
# number of rings (size 3 to 8) (size 9 to 14) (size 15 to 20)
#    0.171    1.714    2.571    0.000    8.400    0.686 
#    2.571    0.000    0.000    0.000    0.000    0.000 
#    0.000    0.000    0.000    0.000    0.000    0.000 
#
# Total GULP energy -390290.329245 kJ/mol
# GULP energy per Si atom -5575.576132 kJ/mol
# Density = 2.154638 g / cm^3
# Si number density = 21.595537 Si / 1000 Ang^3
#
#
#
# Elastic Constant Matrix: (Units=GPa)
#
#
# Indices 1 2 3 4 5 6 
#
# 1 76.1564 28.4237 29.0699 0.0000 0.0000 0.0000
# 2 28.4237 76.1564 29.0699 0.0000 0.0000 0.0000
# 3 29.0699 29.0699 119.3106 0.0000 0.0000 0.0000
# 4 0.0000 0.0000 0.0000 24.2759 0.0000 0.0000
# 5 0.0000 0.0000 0.0000 0.0000 24.2759 0.0000
# 6 0.0000 0.0000 0.0000 0.0000 0.0000 23.8663
#
#
#
# Elastic Compliance Matrix: (Units=1/GPa)
#
#
# Indices 1 2 3 4 5 6 
#
# 1 0.016005 -0.004945 -0.002695 0.000000 0.000000 0.000000
# 2 -0.004945 0.016005 -0.002695 0.000000 0.000000 0.000000
# 3 -0.002695 -0.002695 0.009695 0.000000 0.000000 0.000000
# 4 0.000000 0.000000 0.000000 0.041193 0.000000 0.000000
# 5 0.000000 0.000000 0.000000 0.000000 0.041193 0.000000
# 6 0.000000 0.000000 0.000000 0.000000 0.000000 0.041900
#
#
# Mechanical properties :
#
#
# Convention : Reuss Voigt Hill
#
# Bulk Modulus (GPa) = 47.53796 49.41670 48.47733
# Shear Modulus (GPa) = 25.81682 26.82094 26.31888
#
# Velocity S-wave (km/s) = 3.46131 3.52798 3.49480
# Velocity P-wave (km/s) = 6.16724 6.28713 6.22747
#
# Compressibility (1/GPa) = 0.02103582
#
# Stress axis : x y z
#
# Youngs Moduli (GPa) = 62.48009 62.48009 103.14960
#
# Poissons Ratio (x) = 0.30896 0.27797
# Poissons Ratio (y) = 0.30896 0.27797
# Poissons Ratio (z) = 0.16837 0.16837
#
# Static dielectric constant tensor:
#      x y z
#    x 1.831370 0.000000 0.000000 
#    y 0.000000 1.831370 0.000000 
#    z 0.000000 0.000000 1.797670 
# 
# From -- ./inp_files/3783.got.cif
#   From: 2010.05.17/outbox.cif.g08.bks.cpg/sg190_2_cif.got.tgz:3783.got - 2010.05.20 12:16:56.
