data_PCOD9586418
_publ_section_title
;
Structure prediction by ZEFSAII (Michael W. Deem and Ramdas Pophale) SiO2 
 PCOD9586418
Probable space group: P -6 2 M
;
_chemical_formula_sum "Si O2"
_cell_formula_units_Z 60
_cell_length_a 15.353806
_cell_length_b 15.353806
_cell_length_c 15.302388
_cell_angle_alpha 90.000000
_cell_angle_beta 90.000000
_cell_angle_gamma 120.000000
_cell_volume 3124.078507
_symmetry_space_group_name_H-M "P -6 2 M"
_symmetry_group_IT_number 189
_symmetry_cell_setting 'hexagonal'
loop_
_space_group_symop_operation_xyz
x,y,z
-x+y,-x,-z
-y,x-y,z
x,y,-z
-x+y,-x,z
-y,x-y,-z
x-y,-y,-z
-x,-x+y,-z
y,x,-z
y,x,z
x-y,-y,z
-x,-x+y,z
loop_
_atom_site_type_symbol
_atom_site_label
_atom_site_fract_x
_atom_site_fract_y
_atom_site_fract_z
Si Si1 0.246841 0.878223 0.903594
Si Si2 0.446231 0.779531 0.273740
Si Si3 0.759282 0.879320 0.253549
Si Si4 0.120509 0.574348 0.901582
Si Si5 0.374377 0.253930 0.598844
O O1 0.167534 0.847211 0.825858
O O2 0.339422 0.857622 0.893277
O O3 0.302832 0.000000 0.904466
O O4 0.200852 0.842455 0.000000
O O5 0.333246 0.760662 0.284409
O O6 0.475802 0.824459 0.176571
O O7 0.524771 0.846236 0.346304
O O8 0.830799 0.830799 0.251765
O O9 0.694806 0.850970 0.342661
O O10 0.823943 0.000000 0.246425
O O11 0.000000 0.525351 0.893957
O O12 0.151206 0.615341 0.000000
O O13 0.393257 0.232881 0.500000
O O14 0.313929 0.313929 0.594531
#
# Coordination Sequence:
#
# PCOD9586418 Si02
#       5
#    12  12  12  12  12
#     4   8  15  29  51  80 115 153 188 225 271 327
#     4  10  22  35  55  84 113 148 189 237 290 338
#     4  10  20  35  58  87 118 151 190 239 292 352
#     4   9  17  32  55  81 112 151 193 235 279 332
#     4  10  22  41  61  80 109 149 190 239 301 363
#
# _framework density 19.205662
#
# number of rings (size 3 to 8) (size 9 to 14) (size 15 to 20)
#    0.400    2.200    0.000    3.200    0.000    2.400 
#    0.000    2.000    0.000    3.600    0.000    0.000 
#    0.000    0.000    0.000    0.000    0.000    0.000 
#
# Total GULP energy -334588.624427 kJ/mol
# GULP energy per Si atom -5576.477074 kJ/mol
# Density = 1.916195 g / cm^3
# Si number density = 19.205662 Si / 1000 Ang^3
#
#
#
# Elastic Constant Matrix: (Units=GPa)
#
#
# Indices 1 2 3 4 5 6 
#
# 1 71.0350 25.0733 60.0249 0.0000 0.0000 0.0000
# 2 25.0733 71.0350 60.0249 0.0000 0.0000 0.0000
# 3 60.0249 60.0249 181.2204 0.0000 0.0000 0.0000
# 4 0.0000 0.0000 0.0000 26.4512 0.0000 0.0000
# 5 0.0000 0.0000 0.0000 0.0000 26.4512 0.0000
# 6 0.0000 0.0000 0.0000 0.0000 0.0000 22.9808
#
#
#
# Elastic Compliance Matrix: (Units=1/GPa)
#
#
# Indices 1 2 3 4 5 6 
#
# 1 0.019753 -0.002005 -0.005879 0.000000 0.000000 0.000000
# 2 -0.002005 0.019753 -0.005879 0.000000 0.000000 0.000000
# 3 -0.005879 -0.005879 0.009412 0.000000 0.000000 0.000000
# 4 0.000000 0.000000 0.000000 0.037805 0.000000 0.000000
# 5 0.000000 0.000000 0.000000 0.000000 0.037805 0.000000
# 6 0.000000 0.000000 0.000000 0.000000 0.000000 0.043515
#
#
# Mechanical properties :
#
#
# Convention : Reuss Voigt Hill
#
# Bulk Modulus (GPa) = 46.74219 68.17074 57.45647
# Shear Modulus (GPa) = 24.66725 27.05447 25.86086
#
# Velocity S-wave (km/s) = 3.58770 3.75730 3.67348
# Velocity P-wave (km/s) = 6.44614 7.37531 6.92633
#
# Compressibility (1/GPa) = 0.02139395
#
# Stress axis : x y z
#
# Youngs Moduli (GPa) = 50.62631 50.62631 106.24273
#
# Poissons Ratio (x) = 0.10149 0.62455
# Poissons Ratio (y) = 0.10149 0.62455
# Poissons Ratio (z) = 0.29761 0.29761
#
# Static dielectric constant tensor:
#      x y z
#    x 1.678410 0.000000 0.000000 
#    y 0.000000 1.678410 0.000000 
#    z 0.000000 0.000000 1.675150 
# 
# From -- ./inp_files/1920.got.cif
#   From: 2010.05.17/outbox.cif.g08.bks.cpg/sg189_1_cif.got.tgz:1920.got - 2010.05.20 12:14:34.
