data_PCOD9586781
_publ_section_title
;
Structure prediction by ZEFSAII (Michael W. Deem and Ramdas Pophale) SiO2 
 PCOD9586781
Probable space group: P -6 2 C
;
_chemical_formula_sum "Si O2"
_cell_formula_units_Z 46
_cell_length_a 15.273593
_cell_length_b 15.273593
_cell_length_c 11.362044
_cell_angle_alpha 90.000000
_cell_angle_beta 90.000000
_cell_angle_gamma 120.000000
_cell_volume 2295.458924
_symmetry_space_group_name_H-M "P -6 2 C"
_symmetry_group_IT_number 190
_symmetry_cell_setting 'hexagonal'
loop_
_space_group_symop_operation_xyz
x,y,z
-x+y,-x,1/2-z
-y,x-y,z
x,y,1/2-z
-x+y,-x,z
-y,x-y,1/2-z
x-y,-y,-z
-x,-x+y,-z
y,x,-z
y,x,1/2+z
x-y,-y,1/2+z
-x,-x+y,1/2+z
loop_
_atom_site_type_symbol
_atom_site_label
_atom_site_fract_x
_atom_site_fract_y
_atom_site_fract_z
Si Si1 0.815688 0.262319 0.116080
Si Si2 0.346984 0.370838 0.877242
Si Si3 0.333335 0.666668 0.894743
Si Si4 0.867813 0.055807 0.619648
Si Si5 0.739943 0.739943 0.500000
O O1 0.845797 0.297083 0.250000
O O2 0.734197 0.142804 0.120200
O O3 0.758761 0.318463 0.066921
O O4 0.910679 0.274458 0.047756
O O5 0.400239 0.401941 0.750000
O O6 0.283303 0.247603 0.880056
O O7 0.406360 0.406360 0.000000
O O8 0.333334 0.666668 0.750000
O O9 0.880805 0.021271 0.750000
O O10 0.950142 0.172321 0.598613
O O11 0.871530 0.000000 0.500000
#
# Coordination Sequence:
#
# PCOD9586781 Si02
#       5
#    12  12   4  12   6
#     4  10  20  37  60  84 118 160 207 259 308 364
#     4   9  16  32  54  80 112 155 196 239 299 355
#     4   9  21  42  63  87 118 155 211 276 316 359
#     4  10  20  34  53  81 122 165 200 246 299 362
#     4  12  20  34  56  92 124 162 206 254 308 382
#
# _framework density 20.039565
#
# number of rings (size 3 to 8) (size 9 to 14) (size 15 to 20)
#    0.000    2.087    5.217    0.783    0.000    1.043 
#    3.130    0.000    0.000    0.000    0.000   10.957 
#    0.000    0.000    0.000    0.000    0.000    0.000 
#
# Total GULP energy -256425.696356 kJ/mol
# GULP energy per Si atom -5574.471660 kJ/mol
# Density = 1.999395 g / cm^3
# Si number density = 20.039565 Si / 1000 Ang^3
#
#
#
# Elastic Constant Matrix: (Units=GPa)
#
#
# Indices 1 2 3 4 5 6 
#
# 1 53.9054 33.1854 30.0625 0.0009 0.0007 -0.0003
# 2 33.1854 53.9042 30.0625 0.0012 -0.0001 -0.0005
# 3 30.0625 30.0625 177.2862 0.0001 -0.0002 0.0001
# 4 0.0009 0.0012 0.0001 10.1309 0.0042 0.0004
# 5 0.0007 -0.0001 -0.0002 0.0042 10.1149 0.0002
# 6 -0.0003 -0.0005 0.0001 0.0004 0.0002 10.3598
#
#
#
# Elastic Compliance Matrix: (Units=1/GPa)
#
#
# Indices 1 2 3 4 5 6 
#
# 1 0.030634 -0.017630 -0.002205 -0.000001 -0.000002 0.000000
# 2 -0.017630 0.030635 -0.002205 -0.000002 0.000002 0.000001
# 3 -0.002205 -0.002205 0.006388 0.000000 0.000000 0.000000
# 4 -0.000001 -0.000002 0.000000 0.098708 -0.000041 -0.000004
# 5 -0.000002 0.000002 0.000000 -0.000041 0.098864 -0.000002
# 6 0.000000 0.000001 0.000000 -0.000004 -0.000002 0.096527
#
#
# Mechanical properties :
#
#
# Convention : Reuss Voigt Hill
#
# Bulk Modulus (GPa) = 42.41395 52.41296 47.41345
# Shear Modulus (GPa) = 12.08617 18.90679 15.49648
#
# Velocity S-wave (km/s) = 2.45851 3.07493 2.78383
# Velocity P-wave (km/s) = 5.41018 6.23045 5.83475
#
# Compressibility (1/GPa) = 0.02357715
#
# Stress axis : x y z
#
# Youngs Moduli (GPa) = 32.64345 32.64266 156.53170
#
# Poissons Ratio (x) = 0.57548 0.34518
# Poissons Ratio (y) = 0.57549 0.34520
# Poissons Ratio (z) = 0.07198 0.07199
#
# Static dielectric constant tensor:
#      x y z
#    x 1.703540 0.000000 0.000000 
#    y 0.000000 1.703540 -0.000010 
#    z 0.000000 -0.000010 1.609730 
# 
# From -- ./inp_files/1813.got.cif
#   From: 2010.05.17/outbox.cif.g08.bks.cpg/sg190_1_cif.got.tgz:1813.got - 2010.05.20 12:16:56.
