data_PCOD9586080
_publ_section_title
;
Structure prediction by ZEFSAII (Michael W. Deem and Ramdas Pophale) SiO2 
 PCOD9586080
Probable space group: P -6 C 2
;
_chemical_formula_sum "Si O2"
_cell_formula_units_Z 72
_cell_length_a 24.738794
_cell_length_b 24.738794
_cell_length_c 8.756897
_cell_angle_alpha 90.000000
_cell_angle_beta 90.000000
_cell_angle_gamma 120.000000
_cell_volume 4641.281627
_symmetry_space_group_name_H-M "P -6 C 2"
_symmetry_group_IT_number 188
_symmetry_cell_setting 'hexagonal'
loop_
_space_group_symop_operation_xyz
x,y,z
-x+y,-x,1/2-z
-y,x-y,z
x,y,1/2-z
-x+y,-x,z
-y,x-y,1/2-z
-y,-x,-z
-x+y,y,-z
x,x-y,-z
-x+y,y,1/2+z
x,x-y,1/2+z
-y,-x,1/2+z
loop_
_atom_site_type_symbol
_atom_site_label
_atom_site_fract_x
_atom_site_fract_y
_atom_site_fract_z
Si Si1 0.332658 0.548312 0.433786
Si Si2 0.338918 0.344567 0.435825
Si Si3 0.187838 0.038239 0.926450
Si Si4 0.401873 0.480611 0.566938
Si Si5 0.728765 0.807214 0.934517
Si Si6 0.885673 0.660448 0.426261
O O1 0.333263 0.549755 0.250000
O O2 0.384384 0.615617 0.500000
O O3 0.266173 0.532346 0.500000
O O4 0.354544 0.501052 0.495030
O O5 0.343565 0.349256 0.250000
O O6 0.379766 0.411048 0.512490
O O7 0.265474 0.315951 0.474378
O O8 0.357519 0.293232 0.487707
O O9 0.169357 0.029841 0.750000
O O10 0.263691 0.077003 0.932682
O O11 0.171732 0.970987 0.991085
O O12 0.165138 0.082569 0.000000
O O13 0.402186 0.485691 0.750000
O O14 0.469203 0.530798 0.500000
O O15 0.730804 0.810242 0.750000
O O16 0.708005 0.854003 0.000000
O O17 0.875531 0.642524 0.250000
O O18 0.818910 0.637820 0.500000
#
# Coordination Sequence:
#
# PCOD9586080 Si02
#       6
#    12  12  12  12  12  12
#     4  11  21  35  52  70  90 114 148 194 247 300
#     4   9  18  33  48  65  92 124 152 186 229 275
#     4   8  14  25  40  59  80 106 137 171 210 256
#     4  11  22  36  52  70  91 121 158 195 235 284
#     4   9  18  30  44  63  89 116 146 185 232 278
#     4   8  14  25  43  65  90 115 140 171 211 253
#
# _framework density 15.512956000000001
#
# number of rings (size 3 to 8) (size 9 to 14) (size 15 to 20)
#    0.000    2.667    0.000    6.167    0.000    2.667 
#    0.000    5.000    0.000    0.333    0.000    0.000 
#    0.000    0.000    0.000    0.500    0.000    8.000 
#
# Total GULP energy -401039.687057 kJ/mol
# GULP energy per Si atom -5569.995654 kJ/mol
# Density = 1.547765 g / cm^3
# Si number density = 15.512956 Si / 1000 Ang^3
#
#
#
# Elastic Constant Matrix: (Units=GPa)
#
#
# Indices 1 2 3 4 5 6 
#
# 1 82.4813 68.9942 40.3144 0.0047 0.0000 0.0000
# 2 68.9942 82.4813 40.3144 -0.0047 0.0000 0.0000
# 3 40.3144 40.3144 77.8713 0.0000 0.0000 0.0000
# 4 0.0047 -0.0047 0.0000 42.5053 0.0000 0.0000
# 5 0.0000 0.0000 0.0000 0.0000 42.5053 0.0047
# 6 0.0000 0.0000 0.0000 0.0000 0.0047 6.7436
#
#
#
# Elastic Compliance Matrix: (Units=1/GPa)
#
#
# Indices 1 2 3 4 5 6 
#
# 1 0.041629 -0.032516 -0.004718 -0.000008 0.000000 0.000000
# 2 -0.032516 0.041629 -0.004718 0.000008 0.000000 0.000000
# 3 -0.004718 -0.004718 0.017727 0.000000 0.000000 0.000000
# 4 -0.000008 0.000008 0.000000 0.023526 0.000000 0.000000
# 5 0.000000 0.000000 0.000000 0.000000 0.023526 -0.000016
# 6 0.000000 0.000000 0.000000 0.000000 -0.000016 0.148290
#
#
# Mechanical properties :
#
#
# Convention : Reuss Voigt Hill
#
# Bulk Modulus (GPa) = 58.54387 60.23109 59.38748
# Shear Modulus (GPa) = 12.95591 24.56489 18.76040
#
# Velocity S-wave (km/s) = 2.89306 3.98365 3.48133
# Velocity P-wave (km/s) = 6.99860 7.75048 7.38411
#
# Compressibility (1/GPa) = 0.01708121
#
# Stress axis : x y z
#
# Youngs Moduli (GPa) = 24.02175 24.02175 56.41241
#
# Poissons Ratio (x) = 0.78109 0.26614
# Poissons Ratio (y) = 0.78109 0.26614
# Poissons Ratio (z) = 0.11333 0.11333
#
# Static dielectric constant tensor:
#      x y z
#    x 1.520920 0.000000 0.000000 
#    y 0.000000 1.520920 0.000000 
#    z 0.000000 0.000000 1.525770 
# 
# From -- ./inp_files/1046.got.cif
#   From: 2010.05.17/outbox.cif.g08.bks.cpg/sg188_1_cif.got.tgz:1046.got - 2010.05.20 12:11:46.
