data_PCOD9586291
_publ_section_title
;
Structure prediction by ZEFSAII (Michael W. Deem and Ramdas Pophale) SiO2 
 PCOD9586291
Probable space group: P -6 2 M
;
_chemical_formula_sum "Si O2"
_cell_formula_units_Z 84
_cell_length_a 13.827773
_cell_length_b 13.827773
_cell_length_c 25.010033
_cell_angle_alpha 90.000000
_cell_angle_beta 90.000000
_cell_angle_gamma 120.000000
_cell_volume 4141.420981
_symmetry_space_group_name_H-M "P -6 2 M"
_symmetry_group_IT_number 189
_symmetry_cell_setting 'hexagonal'
loop_
_space_group_symop_operation_xyz
x,y,z
-x+y,-x,-z
-y,x-y,z
x,y,-z
-x+y,-x,z
-y,x-y,-z
x-y,-y,-z
-x,-x+y,-z
y,x,-z
y,x,z
x-y,-y,z
-x,-x+y,z
loop_
_atom_site_type_symbol
_atom_site_label
_atom_site_fract_x
_atom_site_fract_y
_atom_site_fract_z
Si Si1 0.482591 0.350444 0.613782
Si Si2 0.744214 0.873427 0.758033
Si Si3 0.327354 0.125736 0.873189
Si Si4 0.864231 0.522258 0.267006
Si Si5 0.559177 0.687355 0.563419
Si Si6 0.334016 0.466518 0.059285
Si Si7 0.867469 0.417769 0.839035
O O1 0.392485 0.392485 0.614130
O O2 0.528732 0.362268 0.674190
O O3 0.583929 0.436171 0.576582
O O4 0.430723 0.224556 0.593592
O O5 0.791881 0.791881 0.744642
O O6 0.735930 0.875231 0.822731
O O7 0.620075 0.833585 0.737342
O O8 0.825550 0.000000 0.739273
O O9 0.366200 0.217488 0.918807
O O10 0.439589 0.139200 0.846024
O O11 0.257022 0.000000 0.894301
O O12 0.822862 0.440561 0.216033
O O13 0.000000 0.587740 0.264537
O O14 0.570471 0.707355 0.500000
O O15 0.645339 0.645339 0.580154
O O16 0.419684 0.419684 0.055559
O O17 0.378681 0.556584 0.106801
O O18 0.323036 0.503767 0.000000
O O19 0.000000 0.507890 0.838502
#
# Coordination Sequence:
#
# PCOD9586291 Si02
#       7
#    12  12  12  12  12  12  12
#     4  10  21  37  59  88 120 160 200 243 301 355
#     4  10  19  33  55  83 115 151 190 231 279 340
#     4  10  20  33  54  79 102 137 181 227 282 339
#     4   9  18  34  55  78 111 148 186 233 282 337
#     4  10  21  37  59  88 120 155 200 249 291 342
#     4  10  20  36  57  76 101 140 180 225 284 342
#     4   9  18  35  53  71 100 138 178 223 276 333
#
# _framework density 20.282893000000001
#
# number of rings (size 3 to 8) (size 9 to 14) (size 15 to 20)
#    0.000    2.286    1.429    1.286    0.000    3.429 
#    0.857    4.286    0.000    0.571    0.000    0.000 
#    0.000    0.000    0.000    0.000    0.000    0.000 
#
# Total GULP energy -468807.773431 kJ/mol
# GULP energy per Si atom -5581.044922 kJ/mol
# Density = 2.023673 g / cm^3
# Si number density = 20.282893 Si / 1000 Ang^3
#
#
#
# Elastic Constant Matrix: (Units=GPa)
#
#
# Indices 1 2 3 4 5 6 
#
# 1 59.8615 13.8702 15.7548 0.0000 0.0000 0.0000
# 2 13.8702 59.8615 15.7548 0.0000 0.0000 0.0000
# 3 15.7548 15.7548 84.7798 0.0000 0.0000 0.0000
# 4 0.0000 0.0000 0.0000 8.6381 0.0000 0.0000
# 5 0.0000 0.0000 0.0000 0.0000 8.6381 0.0000
# 6 0.0000 0.0000 0.0000 0.0000 0.0000 22.9956
#
#
#
# Elastic Compliance Matrix: (Units=1/GPa)
#
#
# Indices 1 2 3 4 5 6 
#
# 1 0.018238 -0.003505 -0.002738 0.000000 0.000000 0.000000
# 2 -0.003505 0.018238 -0.002738 0.000000 0.000000 0.000000
# 3 -0.002738 -0.002738 0.012813 0.000000 0.000000 0.000000
# 4 0.000000 0.000000 0.000000 0.115766 0.000000 0.000000
# 5 0.000000 0.000000 0.000000 0.000000 0.115766 0.000000
# 6 0.000000 0.000000 0.000000 0.000000 0.000000 0.043486
#
#
# Mechanical properties :
#
#
# Convention : Reuss Voigt Hill
#
# Bulk Modulus (GPa) = 31.92138 32.80695 32.36416
# Shear Modulus (GPa) = 14.17592 18.66259 16.41925
#
# Velocity S-wave (km/s) = 2.64656 3.03663 2.84828
# Velocity P-wave (km/s) = 5.01112 5.33897 5.17764
#
# Compressibility (1/GPa) = 0.03132697
#
# Stress axis : x y z
#
# Youngs Moduli (GPa) = 54.83067 54.83067 78.04696
#
# Poissons Ratio (x) = 0.19220 0.21368
# Poissons Ratio (y) = 0.19220 0.21368
# Poissons Ratio (z) = 0.15012 0.15012
#
# Static dielectric constant tensor:
#      x y z
#    x 1.755890 0.000000 0.000000 
#    y 0.000000 1.755890 0.000000 
#    z 0.000000 0.000000 1.717660 
# 
# From -- ./inp_files/3593.got.cif
#   From: 2010.05.17/outbox.cif.g08.bks.cpg/sg189_2_cif.got.tgz:3593.got - 2010.05.20 12:14:34.
