data_PCOD9586738
_publ_section_title
;
Structure prediction by ZEFSAII (Michael W. Deem and Ramdas Pophale) SiO2 
 PCOD9586738
Probable space group: P -6 2 C
;
_chemical_formula_sum "Si O2"
_cell_formula_units_Z 48
_cell_length_a 12.728449
_cell_length_b 12.728449
_cell_length_c 14.852392
_cell_angle_alpha 90.000000
_cell_angle_beta 90.000000
_cell_angle_gamma 120.000000
_cell_volume 2083.905440
_symmetry_space_group_name_H-M "P -6 2 C"
_symmetry_group_IT_number 190
_symmetry_cell_setting 'hexagonal'
loop_
_space_group_symop_operation_xyz
x,y,z
-x+y,-x,1/2-z
-y,x-y,z
x,y,1/2-z
-x+y,-x,z
-y,x-y,1/2-z
x-y,-y,-z
-x,-x+y,-z
y,x,-z
y,x,1/2+z
x-y,-y,1/2+z
-x,-x+y,1/2+z
loop_
_atom_site_type_symbol
_atom_site_label
_atom_site_fract_x
_atom_site_fract_y
_atom_site_fract_z
Si Si1 0.736206 0.930990 0.360685
Si Si2 0.333335 0.666668 0.910902
Si Si3 0.333335 0.666668 0.375924
Si Si4 0.000000 0.000000 0.359329
Si Si5 0.603287 0.075843 0.142006
Si Si6 0.422891 0.083948 0.647969
O O1 0.730360 0.927272 0.250000
O O2 0.666605 0.791744 0.393707
O O3 0.669006 0.003234 0.390523
O O4 0.876149 0.994381 0.387216
O O5 0.456526 0.782452 0.877990
O O6 0.333334 0.666667 0.017261
O O7 0.347232 0.793656 0.346391
O O8 0.000000 0.000000 0.250000
O O9 0.593116 0.059968 0.250000
O O10 0.465501 0.016336 0.106192
O O11 0.376634 0.042138 0.750000
#
# Coordination Sequence:
#
# PCOD9586738 Si02
#       6
#    12   4   4   4  12  12
#     4   9  18  32  56  87 115 145 183 241 294 339
#     4  12  28  38  52  87 127 167 187 225 310 374
#     4  12  22  38  58  87 121 155 193 252 289 353
#     4   9  18  30  51  87 121 140 175 231 301 353
#     4  10  21  38  60  83 116 154 198 245 284 345
#     4  10  19  36  63  89 111 146 202 254 291 333
#
# _framework density 23.033674000000001
#
# number of rings (size 3 to 8) (size 9 to 14) (size 15 to 20)
#    0.000    2.000    2.500    1.500    3.500    1.000 
#    0.000    0.000    0.000    0.000    0.000    0.000 
#    0.000    0.000    0.000    0.000    0.000    0.000 
#
# Total GULP energy -268315.662610 kJ/mol
# GULP energy per Si atom -5589.909638 kJ/mol
# Density = 2.298125 g / cm^3
# Si number density = 23.033674 Si / 1000 Ang^3
#
#
#
# Elastic Constant Matrix: (Units=GPa)
#
#
# Indices 1 2 3 4 5 6 
#
# 1 105.8232 72.0162 3.3615 -0.0003 -0.0001 -0.0004
# 2 72.0162 105.8209 3.3621 -0.0003 0.0002 0.0005
# 3 3.3615 3.3621 55.7487 -0.0009 0.0003 -0.0001
# 4 -0.0003 -0.0003 -0.0009 -58.7798 0.0060 -0.0001
# 5 -0.0001 0.0002 0.0003 0.0060 -58.7841 0.0000
# 6 -0.0004 0.0005 -0.0001 -0.0001 0.0000 16.9033
#
#
#
# Elastic Compliance Matrix: (Units=1/GPa)
#
#
# Indices 1 2 3 4 5 6 
#
# 1 0.017608 -0.011972 -0.000340 0.000000 0.000000 0.000001
# 2 -0.011972 0.017609 -0.000340 0.000000 0.000000 -0.000001
# 3 -0.000340 -0.000340 0.017979 0.000000 0.000000 0.000000
# 4 0.000000 0.000000 0.000000 -0.017013 -0.000002 0.000000
# 5 0.000000 0.000000 0.000000 -0.000002 -0.017011 0.000000
# 6 0.000001 -0.000001 0.000000 0.000000 0.000000 0.059160
#
#
# Mechanical properties :
#
#
# Convention : Reuss Voigt Hill
#
# Bulk Modulus (GPa) = 35.85377 47.20803 41.53090
# Shear Modulus (GPa) = 44.27416 -7.55526 18.35945
#
# Velocity S-wave (km/s) = 4.38899 -1.81307 2.82631
# Velocity P-wave (km/s) = 6.42525 4.01955 5.35914
#
# Compressibility (1/GPa) = 0.02789107
#
# Stress axis : x y z
#
# Youngs Moduli (GPa) = 56.79194 56.79067 55.62156
#
# Poissons Ratio (x) = 0.67992 0.01889
# Poissons Ratio (y) = 0.67994 0.01891
# Poissons Ratio (z) = 0.01929 0.01931
#
# Static dielectric constant tensor:
#      x y z
#    x 1.840680 0.000000 0.000000 
#    y 0.000000 1.840680 0.000000 
#    z 0.000000 0.000000 1.856100 
# 
# From -- ./inp_files/4170.got.cif
#   From: 2010.05.17/outbox.cif.g08.bks.cpg/sg190_3_cif.got.tgz:4170.got - 2010.05.20 12:16:56.
