data_PCOD9586840
_publ_section_title
;
Structure prediction by ZEFSAII (Michael W. Deem and Ramdas Pophale) SiO2 
 PCOD9586840
Probable space group: P -6 2 C
;
_chemical_formula_sum "Si O2"
_cell_formula_units_Z 30
_cell_length_a 8.446043
_cell_length_b 8.446043
_cell_length_c 22.805352
_cell_angle_alpha 90.000000
_cell_angle_beta 90.000000
_cell_angle_gamma 120.000000
_cell_volume 1408.879948
_symmetry_space_group_name_H-M "P -6 2 C"
_symmetry_group_IT_number 190
_symmetry_cell_setting 'hexagonal'
loop_
_space_group_symop_operation_xyz
x,y,z
-x+y,-x,1/2-z
-y,x-y,z
x,y,1/2-z
-x+y,-x,z
-y,x-y,1/2-z
x-y,-y,-z
-x,-x+y,-z
y,x,-z
y,x,1/2+z
x-y,-y,1/2+z
-x,-x+y,1/2+z
loop_
_atom_site_type_symbol
_atom_site_label
_atom_site_fract_x
_atom_site_fract_y
_atom_site_fract_z
Si Si1 0.666668 0.333335 0.079828
Si Si2 0.000000 0.000000 0.320155
Si Si3 0.983021 0.639207 0.866256
Si Si4 0.908682 0.466755 0.250000
Si Si5 0.333334 0.666668 0.059757
O O1 0.472259 0.290408 0.105467
O O2 0.666668 0.333334 0.010067
O O3 0.804897 0.959705 0.344006
O O4 0.000000 0.000000 0.250000
O O5 0.833835 0.516395 0.913690
O O6 0.977683 0.522698 0.808890
O O7 0.777028 0.247218 0.250000
#
# Coordination Sequence:
#
# PCOD9586840 Si02
#       5
#     4   4  12   6   4
#     4  12  24  52  71  94 141 183 235 281 331 405
#     4  12  27  42  70 107 139 171 222 283 353 415
#     4  12  24  44  72 100 138 178 224 285 345 400
#     4  10  20  38  72  98 134 176 218 282 354 408
#     4  12  30  43  68 103 135 189 235 272 331 417
#
# _framework density 21.293510000000001
#
# number of rings (size 3 to 8) (size 9 to 14) (size 15 to 20)
#    0.400    0.000    6.000    3.600    0.000    1.600 
#    0.000    6.000    0.000    0.000    0.000    0.000 
#    0.000    0.000    0.000    0.000    0.000    0.000 
#
# Total GULP energy -167996.437301 kJ/mol
# GULP energy per Si atom -5599.881243 kJ/mol
# Density = 2.124505 g / cm^3
# Si number density = 21.293510 Si / 1000 Ang^3
#
#
#
# Elastic Constant Matrix: (Units=GPa)
#
#
# Indices 1 2 3 4 5 6 
#
# 1 62.6827 2.6441 18.8310 0.0002 0.0004 -0.0001
# 2 2.6441 62.6849 18.8310 0.0001 0.0004 0.0004
# 3 18.8310 18.8310 181.1368 0.0006 0.0000 -0.0001
# 4 0.0002 0.0001 0.0006 20.9970 0.0000 0.0000
# 5 0.0004 0.0004 0.0000 0.0000 20.9973 0.0000
# 6 -0.0001 0.0004 -0.0001 0.0000 0.0000 30.0203
#
#
#
# Elastic Compliance Matrix: (Units=1/GPa)
#
#
# Indices 1 2 3 4 5 6 
#
# 1 0.016470 -0.000186 -0.001693 0.000000 0.000000 0.000000
# 2 -0.000186 0.016469 -0.001693 0.000000 0.000000 0.000000
# 3 -0.001693 -0.001693 0.005873 0.000000 0.000000 0.000000
# 4 0.000000 0.000000 0.000000 0.047626 0.000000 0.000000
# 5 0.000000 0.000000 0.000000 0.000000 0.047625 0.000000
# 6 0.000000 0.000000 0.000000 0.000000 0.000000 0.033311
#
#
# Mechanical properties :
#
#
# Convention : Reuss Voigt Hill
#
# Bulk Modulus (GPa) = 31.57761 43.01296 37.29528
# Shear Modulus (GPa) = 27.01636 32.14947 29.58292
#
# Velocity S-wave (km/s) = 3.56583 3.88986 3.73137
# Velocity P-wave (km/s) = 5.64052 6.35756 6.00974
#
# Compressibility (1/GPa) = 0.03166801
#
# Stress axis : x y z
#
# Youngs Moduli (GPa) = 60.71732 60.71946 170.28057
#
# Poissons Ratio (x) = 0.01130 0.28826
# Poissons Ratio (y) = 0.01130 0.28825
# Poissons Ratio (z) = 0.10278 0.10278
#
# Static dielectric constant tensor:
#      x y z
#    x 1.768240 0.000000 0.000000 
#    y 0.000000 1.768240 0.000000 
#    z 0.000000 0.000000 1.717550 
# 
# From -- ./inp_files/4505.got.cif
#   From: 2010.05.17/outbox.cif.g08.bks.cpg/sg190_3_cif.got.tgz:4505.got - 2010.05.20 12:16:56.
