data_PCOD9586924
_publ_section_title
;
Structure prediction by ZEFSAII (Michael W. Deem and Ramdas Pophale) SiO2 
 PCOD9586924
Probable space group: P -6 2 C
;
_chemical_formula_sum "Si O2"
_cell_formula_units_Z 72
_cell_length_a 14.546693
_cell_length_b 14.546693
_cell_length_c 18.740764
_cell_angle_alpha 90.000000
_cell_angle_beta 90.000000
_cell_angle_gamma 120.000000
_cell_volume 3434.365163
_symmetry_space_group_name_H-M "P -6 2 C"
_symmetry_group_IT_number 190
_symmetry_cell_setting 'hexagonal'
loop_
_space_group_symop_operation_xyz
x,y,z
-x+y,-x,1/2-z
-y,x-y,z
x,y,1/2-z
-x+y,-x,z
-y,x-y,1/2-z
x-y,-y,-z
-x,-x+y,-z
y,x,-z
y,x,1/2+z
x-y,-y,1/2+z
-x,-x+y,1/2+z
loop_
_atom_site_type_symbol
_atom_site_label
_atom_site_fract_x
_atom_site_fract_y
_atom_site_fract_z
Si Si1 0.473096 0.199796 0.669087
Si Si2 0.881719 0.117830 0.526151
Si Si3 0.174132 0.402834 0.904637
Si Si4 0.480752 0.866745 0.416975
Si Si5 0.412207 0.531108 0.919956
Si Si6 0.976551 0.219507 0.829884
O O1 0.502430 0.238708 0.750000
O O2 0.562609 0.189983 0.627292
O O3 0.446750 0.276663 0.623326
O O4 0.370931 0.083613 0.672102
O O5 0.849758 0.196764 0.484174
O O6 0.905656 0.132397 0.610723
O O7 0.000000 0.152463 0.500000
O O8 0.798248 0.000000 0.500000
O O9 0.297737 0.461832 0.883117
O O10 0.145927 0.496782 0.899430
O O11 0.094914 0.301303 0.856910
O O12 0.459033 0.837086 0.499493
O O13 0.532370 0.992530 0.416498
O O14 0.974582 0.179222 0.750000
#
# Coordination Sequence:
#
# PCOD9586924 Si02
#       6
#    12  12  12  12  12  12
#     4  11  22  39  61  89 132 173 208 266 345 414
#     4  10  22  40  70  98 132 173 227 286 353 414
#     4  11  23  42  64  99 132 181 230 284 341 408
#     4  11  22  36  60 100 129 167 219 273 333 405
#     4  11  23  37  65  93 136 171 228 281 329 401
#     4  10  22  42  65  92 131 176 222 277 344 407
#
# _framework density 20.964572
#
# number of rings (size 3 to 8) (size 9 to 14) (size 15 to 20)
#    0.000    1.333    1.667    4.333    9.333    0.000 
#    0.000    5.833    0.000    0.000    0.000    0.000 
#    0.000    0.000    0.000    0.000    0.000    0.000 
#
# Total GULP energy -401512.768113 kJ/mol
# GULP energy per Si atom -5576.566224 kJ/mol
# Density = 2.091686 g / cm^3
# Si number density = 20.964572 Si / 1000 Ang^3
#
#
#
# Elastic Constant Matrix: (Units=GPa)
#
#
# Indices 1 2 3 4 5 6 
#
# 1 74.6629 13.5748 20.4561 0.0000 0.0000 0.0000
# 2 13.5748 74.6629 20.4561 0.0000 0.0000 0.0000
# 3 20.4561 20.4561 125.6561 0.0000 0.0000 0.0000
# 4 0.0000 0.0000 0.0000 18.0755 0.0000 0.0000
# 5 0.0000 0.0000 0.0000 0.0000 18.0755 0.0000
# 6 0.0000 0.0000 0.0000 0.0000 0.0000 30.5441
#
#
#
# Elastic Compliance Matrix: (Units=1/GPa)
#
#
# Indices 1 2 3 4 5 6 
#
# 1 0.014314 -0.002056 -0.001996 0.000000 0.000000 0.000000
# 2 -0.002056 0.014314 -0.001996 0.000000 0.000000 0.000000
# 3 -0.001996 -0.001996 0.008608 0.000000 0.000000 0.000000
# 4 0.000000 0.000000 0.000000 0.055323 0.000000 0.000000
# 5 0.000000 0.000000 0.000000 0.000000 0.055323 0.000000
# 6 0.000000 0.000000 0.000000 0.000000 0.000000 0.032740
#
#
# Mechanical properties :
#
#
# Convention : Reuss Voigt Hill
#
# Bulk Modulus (GPa) = 39.77371 42.66176 41.21774
# Shear Modulus (GPa) = 24.86362 28.03868 26.45115
#
# Velocity S-wave (km/s) = 3.44755 3.66106 3.55591
# Velocity P-wave (km/s) = 5.90428 6.18585 6.04670
#
# Compressibility (1/GPa) = 0.02514224
#
# Stress axis : x y z
#
# Youngs Moduli (GPa) = 69.86144 69.86144 116.17139
#
# Poissons Ratio (x) = 0.14362 0.23183
# Poissons Ratio (y) = 0.14362 0.23183
# Poissons Ratio (z) = 0.13941 0.13941
#
# Static dielectric constant tensor:
#      x y z
#    x 1.773930 0.000000 0.000000 
#    y 0.000000 1.773930 0.000000 
#    z 0.000000 0.000000 1.804470 
# 
# From -- ./inp_files/3751.got.cif
#   From: 2010.05.17/outbox.cif.g08.bks.cpg/sg190_2_cif.got.tgz:3751.got - 2010.05.20 12:16:56.
