data_PCOD9586267
_publ_section_title
;
Structure prediction by ZEFSAII (Michael W. Deem and Ramdas Pophale) SiO2 
 PCOD9586267
Probable space group: P -6 2 M
;
_chemical_formula_sum "Si O2"
_cell_formula_units_Z 42
_cell_length_a 15.420845
_cell_length_b 15.420845
_cell_length_c 10.706910
_cell_angle_alpha 90.000000
_cell_angle_beta 90.000000
_cell_angle_gamma 120.000000
_cell_volume 2205.012865
_symmetry_space_group_name_H-M "P -6 2 M"
_symmetry_group_IT_number 189
_symmetry_cell_setting 'hexagonal'
loop_
_space_group_symop_operation_xyz
x,y,z
-x+y,-x,-z
-y,x-y,z
x,y,-z
-x+y,-x,z
-y,x-y,-z
x-y,-y,-z
-x,-x+y,-z
y,x,-z
y,x,z
x-y,-y,z
-x,-x+y,z
loop_
_atom_site_type_symbol
_atom_site_label
_atom_site_fract_x
_atom_site_fract_y
_atom_site_fract_z
Si Si1 0.685425 0.565626 0.360434
Si Si2 0.361262 0.244851 0.233437
Si Si3 0.115472 0.882705 0.000000
Si Si4 0.436898 0.557696 0.860763
O O1 0.659178 0.521936 0.500000
O O2 0.640307 0.640307 0.348199
O O3 0.803916 0.622293 0.338801
O O4 0.637078 0.484128 0.250356
O O5 0.302199 0.302199 0.273146
O O6 0.299358 0.170076 0.121271
O O7 0.467603 0.328765 0.177912
O O8 0.000000 0.855735 0.000000
O O9 0.190366 0.000000 0.000000
O O10 0.506240 0.506240 0.867295
O O11 0.436322 0.596920 0.000000
#
# Coordination Sequence:
#
# PCOD9586267 Si02
#       4
#    12  12   6  12
#     4  10  22  38  57  85 119 156 199 244 297 359
#     4  10  20  36  59  87 118 154 202 247 291 354
#     4  10  19  32  54  88 126 162 199 248 300 350
#     4   9  18  35  58  82 109 143 189 243 295 349
#
# _framework density 19.047507
#
# number of rings (size 3 to 8) (size 9 to 14) (size 15 to 20)
#    0.000    2.286    1.429    1.000    2.000    1.714 
#    1.714    2.857    0.000    0.571    0.000    0.000 
#    0.000    0.000    0.000    0.000    0.000    0.000 
#
# Total GULP energy -234349.090699 kJ/mol
# GULP energy per Si atom -5579.740255 kJ/mol
# Density = 1.900415 g / cm^3
# Si number density = 19.047507 Si / 1000 Ang^3
#
#
#
# Elastic Constant Matrix: (Units=GPa)
#
#
# Indices 1 2 3 4 5 6 
#
# 1 85.9001 38.4360 50.8295 0.0000 0.0000 0.0000
# 2 38.4360 85.9001 50.8295 0.0000 0.0000 0.0000
# 3 50.8295 50.8295 124.4839 0.0000 0.0000 0.0000
# 4 0.0000 0.0000 0.0000 17.3966 0.0000 0.0000
# 5 0.0000 0.0000 0.0000 0.0000 17.3966 0.0000
# 6 0.0000 0.0000 0.0000 0.0000 0.0000 23.7320
#
#
#
# Elastic Compliance Matrix: (Units=1/GPa)
#
#
# Indices 1 2 3 4 5 6 
#
# 1 0.016571 -0.004498 -0.004930 0.000000 0.000000 0.000000
# 2 -0.004498 0.016571 -0.004930 0.000000 0.000000 0.000000
# 3 -0.004930 -0.004930 0.012059 0.000000 0.000000 0.000000
# 4 0.000000 0.000000 0.000000 0.057483 0.000000 0.000000
# 5 0.000000 0.000000 0.000000 0.000000 0.057483 0.000000
# 6 0.000000 0.000000 0.000000 0.000000 0.000000 0.042137
#
#
# Mechanical properties :
#
#
# Convention : Reuss Voigt Hill
#
# Bulk Modulus (GPa) = 60.65541 64.05267 62.35404
# Shear Modulus (GPa) = 21.14045 22.11764 21.62904
#
# Velocity S-wave (km/s) = 3.33510 3.41131 3.37342
# Velocity P-wave (km/s) = 6.83695 7.01548 6.92679
#
# Compressibility (1/GPa) = 0.01648658
#
# Stress axis : x y z
#
# Youngs Moduli (GPa) = 60.34639 60.34639 82.92492
#
# Poissons Ratio (x) = 0.27141 0.40881
# Poissons Ratio (y) = 0.27141 0.40881
# Poissons Ratio (z) = 0.29750 0.29750
#
# Static dielectric constant tensor:
#      x y z
#    x 1.654710 0.000000 0.000000 
#    y 0.000000 1.654710 0.000000 
#    z 0.000000 0.000000 1.659860 
# 
# From -- ./inp_files/1635.got.cif
#   From: 2010.05.17/outbox.cif.g08.bks.cpg/sg189_1_cif.got.tgz:1635.got - 2010.05.20 12:14:34.
