data_PCOD9586888
_publ_section_title
;
Structure prediction by ZEFSAII (Michael W. Deem and Ramdas Pophale) SiO2 
 PCOD9586888
Probable space group: P -6 2 C
;
_chemical_formula_sum "Si O2"
_cell_formula_units_Z 72
_cell_length_a 14.743361
_cell_length_b 14.743361
_cell_length_c 17.924139
_cell_angle_alpha 90.000000
_cell_angle_beta 90.000000
_cell_angle_gamma 120.000000
_cell_volume 3374.130954
_symmetry_space_group_name_H-M "P -6 2 C"
_symmetry_group_IT_number 190
_symmetry_cell_setting 'hexagonal'
loop_
_space_group_symop_operation_xyz
x,y,z
-x+y,-x,1/2-z
-y,x-y,z
x,y,1/2-z
-x+y,-x,z
-y,x-y,1/2-z
x-y,-y,-z
-x,-x+y,-z
y,x,-z
y,x,1/2+z
x-y,-y,1/2+z
-x,-x+y,1/2+z
loop_
_atom_site_type_symbol
_atom_site_label
_atom_site_fract_x
_atom_site_fract_y
_atom_site_fract_z
Si Si1 0.510833 0.918252 0.569887
Si Si2 0.832743 0.264828 0.441179
Si Si3 0.075902 0.862075 0.336599
Si Si4 0.809878 0.245151 0.611317
Si Si5 0.151751 0.911595 0.659528
Si Si6 0.114549 0.587952 0.163716
O O1 0.536709 0.824812 0.571664
O O2 0.384942 0.862797 0.567447
O O3 0.561217 0.000000 0.500000
O O4 0.555828 0.997343 0.639841
O O5 0.851672 0.252639 0.528011
O O6 0.900457 0.239640 0.383981
O O7 0.054934 0.869262 0.250000
O O8 0.158526 0.823728 0.345527
O O9 0.962017 0.781967 0.367165
O O10 0.136370 0.981254 0.363291
O O11 0.684822 0.198538 0.613810
O O12 0.867457 0.358450 0.648266
O O13 0.166347 0.911281 0.750000
O O14 0.135047 0.618499 0.250000
#
# Coordination Sequence:
#
# PCOD9586888 Si02
#       6
#    12  12  12  12  12  12
#     4  12  25  46  66  96 134 179 217 271 339 402
#     4  12  25  42  69  94 131 173 221 269 333 409
#     4  10  21  39  61  89 127 167 212 268 326 382
#     4  12  23  40  64  95 133 169 215 276 337 391
#     4  10  23  41  66  96 131 177 224 270 328 398
#     4  12  25  42  68 100 135 176 228 282 336 399
#
# _framework density 21.338826999999998
#
# number of rings (size 3 to 8) (size 9 to 14) (size 15 to 20)
#    0.000    0.667    3.333    4.500    0.000    5.333 
#    0.000    0.000    0.000    4.000    0.000    0.000 
#    0.000    0.000    0.000    0.000    0.000    0.000 
#
# Total GULP energy -402490.934806 kJ/mol
# GULP energy per Si atom -5590.151872 kJ/mol
# Density = 2.129026 g / cm^3
# Si number density = 21.338827 Si / 1000 Ang^3
#
#
#
# Elastic Constant Matrix: (Units=GPa)
#
#
# Indices 1 2 3 4 5 6 
#
# 1 74.4297 -2.6775 7.8753 0.0000 0.0000 0.0000
# 2 -2.6775 74.4297 7.8753 0.0000 0.0000 0.0000
# 3 7.8753 7.8753 71.8182 0.0000 0.0000 0.0000
# 4 0.0000 0.0000 0.0000 19.8306 0.0000 0.0000
# 5 0.0000 0.0000 0.0000 0.0000 19.8306 0.0000
# 6 0.0000 0.0000 0.0000 0.0000 0.0000 38.5536
#
#
#
# Elastic Compliance Matrix: (Units=1/GPa)
#
#
# Indices 1 2 3 4 5 6 
#
# 1 0.013625 0.000656 -0.001566 0.000000 0.000000 0.000000
# 2 0.000656 0.013625 -0.001566 0.000000 0.000000 0.000000
# 3 -0.001566 -0.001566 0.014267 0.000000 0.000000 0.000000
# 4 0.000000 0.000000 0.000000 0.050427 0.000000 0.000000
# 5 0.000000 0.000000 0.000000 0.000000 0.050427 0.000000
# 6 0.000000 0.000000 0.000000 0.000000 0.000000 0.025938
#
#
# Mechanical properties :
#
#
# Convention : Reuss Voigt Hill
#
# Bulk Modulus (GPa) = 27.34863 27.42484 27.38674
# Shear Modulus (GPa) = 26.96150 29.48326 28.22238
#
# Velocity S-wave (km/s) = 3.55842 3.72112 3.64068
# Velocity P-wave (km/s) = 5.45228 5.59842 5.52583
#
# Compressibility (1/GPa) = 0.03656490
#
# Stress axis : x y z
#
# Youngs Moduli (GPa) = 73.39568 73.39568 70.08947
#
# Poissons Ratio (x) = -0.04813 0.10976
# Poissons Ratio (y) = -0.04813 0.10976
# Poissons Ratio (z) = 0.11493 0.11493
#
# Static dielectric constant tensor:
#      x y z
#    x 1.801890 0.000000 0.000000 
#    y 0.000000 1.801890 0.000000 
#    z 0.000000 0.000000 1.767830 
# 
# From -- ./inp_files/3745.got.cif
#   From: 2010.05.17/outbox.cif.g08.bks.cpg/sg190_2_cif.got.tgz:3745.got - 2010.05.20 12:16:56.
