data_PCOD9586955
_publ_section_title
;
Structure prediction by ZEFSAII (Michael W. Deem and Ramdas Pophale) SiO2 
 PCOD9586955
Probable space group: P -6 2 C
;
_chemical_formula_sum "Si O2"
_cell_formula_units_Z 24
_cell_length_a 7.691203
_cell_length_b 7.691203
_cell_length_c 21.606868
_cell_angle_alpha 90.000000
_cell_angle_beta 90.000000
_cell_angle_gamma 120.000000
_cell_volume 1106.906656
_symmetry_space_group_name_H-M "P -6 2 C"
_symmetry_group_IT_number 190
_symmetry_cell_setting 'hexagonal'
loop_
_space_group_symop_operation_xyz
x,y,z
-x+y,-x,1/2-z
-y,x-y,z
x,y,1/2-z
-x+y,-x,z
-y,x-y,1/2-z
x-y,-y,-z
-x,-x+y,-z
y,x,-z
y,x,1/2+z
x-y,-y,1/2+z
-x,-x+y,1/2+z
loop_
_atom_site_type_symbol
_atom_site_label
_atom_site_fract_x
_atom_site_fract_y
_atom_site_fract_z
Si Si1 0.564093 0.890967 0.872184
Si Si2 0.696982 0.122584 0.750000
Si Si3 0.773281 0.000000 0.500000
O O1 0.338507 0.856247 0.869892
O O2 0.690384 0.010588 0.812762
O O3 0.662765 0.991209 0.936915
O O4 0.491505 0.135792 0.750000
O O5 0.000000 0.188082 0.500000
#
# Coordination Sequence:
#
# PCOD9586955 Si02
#       3
#    12   6   6
#     4  10  24  41  67  89 131 169 213 258 328 384
#     4  10  24  38  68  88 124 156 214 260 318 376
#     4  10  26  40  62  98 130 166 222 266 318 374
#
# _framework density 21.682041999999999
#
# number of rings (size 3 to 8) (size 9 to 14) (size 15 to 20)
#    2.000    0.000    0.000    1.500   10.500    0.000 
#    0.000    0.000    0.000    0.000    0.000    0.000 
#    0.000    0.000    0.000    0.000    0.000    0.000 
#
# Total GULP energy -133795.123490 kJ/mol
# GULP energy per Si atom -5574.796812 kJ/mol
# Density = 2.163269 g / cm^3
# Si number density = 21.682042 Si / 1000 Ang^3
#
#
#
# Elastic Constant Matrix: (Units=GPa)
#
#
# Indices 1 2 3 4 5 6 
#
# 1 40.2712 10.1414 38.9449 0.0000 0.0000 0.0000
# 2 10.1414 40.2712 38.9449 0.0000 0.0000 0.0000
# 3 38.9449 38.9449 224.0180 0.0000 0.0000 0.0000
# 4 0.0000 0.0000 0.0000 39.5396 0.0000 0.0000
# 5 0.0000 0.0000 0.0000 0.0000 39.5396 0.0000
# 6 0.0000 0.0000 0.0000 0.0000 0.0000 15.0649
#
#
#
# Elastic Compliance Matrix: (Units=1/GPa)
#
#
# Indices 1 2 3 4 5 6 
#
# 1 0.030155 -0.003034 -0.004715 0.000000 0.000000 0.000000
# 2 -0.003034 0.030155 -0.004715 0.000000 0.000000 0.000000
# 3 -0.004715 -0.004715 0.006103 0.000000 0.000000 0.000000
# 4 0.000000 0.000000 0.000000 0.025291 0.000000 0.000000
# 5 0.000000 0.000000 0.000000 0.000000 0.025291 0.000000
# 6 0.000000 0.000000 0.000000 0.000000 0.000000 0.066380
#
#
# Mechanical properties :
#
#
# Convention : Reuss Voigt Hill
#
# Bulk Modulus (GPa) = 24.10465 53.40253 38.75359
# Shear Modulus (GPa) = 22.50904 33.26408 27.88656
#
# Velocity S-wave (km/s) = 3.22552 3.92111 3.59020
# Velocity P-wave (km/s) = 5.00134 6.72186 5.92439
#
# Compressibility (1/GPa) = 0.04148578
#
# Stress axis : x y z
#
# Youngs Moduli (GPa) = 33.16150 33.16150 163.84630
#
# Poissons Ratio (x) = 0.10062 0.77252
# Poissons Ratio (y) = 0.10062 0.77252
# Poissons Ratio (z) = 0.15635 0.15635
#
# Static dielectric constant tensor:
#      x y z
#    x 1.817790 0.000000 0.000000 
#    y 0.000000 1.817790 0.000000 
#    z 0.000000 0.000000 1.717380 
# 
# From -- ./inp_files/4001.got.cif
#   From: 2010.05.17/outbox.cif.g08.bks.cpg/sg190_3_cif.got.tgz:4001.got - 2010.05.20 12:16:56.
