data_PCOD9586098
_publ_section_title
;
Structure prediction by ZEFSAII (Michael W. Deem and Ramdas Pophale) SiO2 
 PCOD9586098
Probable space group: P -6 C 2
;
_chemical_formula_sum "Si O2"
_cell_formula_units_Z 84
_cell_length_a 15.000000
_cell_length_b 15.000000
_cell_length_c 24.000000
_cell_angle_alpha 90.000000
_cell_angle_beta 90.000000
_cell_angle_gamma 120.000000
_cell_volume 4676.537180
_symmetry_space_group_name_H-M "P -6 C 2"
_symmetry_group_IT_number 188
_symmetry_cell_setting 'hexagonal'
loop_
_space_group_symop_operation_xyz
x,y,z
-x+y,-x,1/2-z
-y,x-y,z
x,y,1/2-z
-x+y,-x,z
-y,x-y,1/2-z
-y,-x,-z
-x+y,y,-z
x,x-y,-z
-x+y,y,1/2+z
x,x-y,1/2+z
-y,-x,1/2+z
loop_
_atom_site_type_symbol
_atom_site_label
_atom_site_fract_x
_atom_site_fract_y
_atom_site_fract_z
Si Si1 0.634973 0.123503 0.183839
Si Si2 0.446570 0.298721 0.644487
Si Si3 0.981860 0.753933 0.490559
Si Si4 0.043909 0.740379 0.185363
Si Si5 0.135113 0.236086 0.598764
Si Si6 0.666702 0.535357 0.485831
Si Si7 0.852408 0.781305 0.186044
O O1 0.657379 0.142309 0.250000
O O2 0.730243 0.217928 0.152180
O O3 0.529257 0.121155 0.170416
O O4 0.637333 0.018650 0.171295
O O5 0.437309 0.317501 0.579487
O O6 0.334088 0.241879 0.673155
O O7 0.878144 0.756287 0.500000
O O8 0.944834 0.635814 0.478716
O O9 0.047259 0.784625 0.547898
O O10 0.036023 0.830165 0.439492
O O11 0.077814 0.752862 0.250000
O O12 0.955943 0.774038 0.181833
O O13 0.132237 0.814958 0.142349
O O14 0.146481 0.156613 0.639456
O O15 0.556309 0.443692 0.500000
O O16 0.752392 0.504783 0.500000
O O17 0.845263 0.811025 0.250000
#
# Coordination Sequence:
#
# PCOD9586098 Si02
#       7
#    12  12  12  12  12  12  12
#     4  10  20  33  53  82 112 146 179 213 265 333
#     4  11  20  34  55  78 113 150 177 221 265 325
#     4  10  23  39  55  79 107 145 184 230 269 312
#     4   9  20  35  54  78 110 143 177 227 274 317
#     4  11  20  36  55  70 104 144 187 225 270 315
#     4  11  23  37  56  84 115 147 181 213 262 323
#     4  10  20  36  54  79 110 143 181 230 276 324
#
# _framework density 17.962008000000001
#
# number of rings (size 3 to 8) (size 9 to 14) (size 15 to 20)
#    0.000    1.714    1.429    4.714    8.000    0.000 
#   12.000    0.000    0.000    0.000    0.000    0.000 
#   20.000    0.000    3.429    0.000    0.000    0.000 
#
# Total GULP energy -468525.741146 kJ/mol
# GULP energy per Si atom -5577.687395 kJ/mol
# Density = 1.792113 g / cm^3
# Si number density = 17.962008 Si / 1000 Ang^3
#
#
#
# Elastic Constant Matrix: (Units=GPa)
#
#
# Indices 1 2 3 4 5 6 
#
# 1 66.6065 34.9298 17.5406 -0.0001 0.0000 0.0000
# 2 34.9298 66.6065 17.5406 0.0001 0.0000 0.0000
# 3 17.5406 17.5406 97.2692 0.0000 0.0000 0.0000
# 4 -0.0001 0.0001 0.0000 19.6577 0.0000 0.0000
# 5 0.0000 0.0000 0.0000 0.0000 19.6577 -0.0001
# 6 0.0000 0.0000 0.0000 0.0000 -0.0001 15.8383
#
#
#
# Elastic Compliance Matrix: (Units=1/GPa)
#
#
# Indices 1 2 3 4 5 6 
#
# 1 0.021036 -0.010533 -0.001894 0.000000 0.000000 0.000000
# 2 -0.010533 0.021036 -0.001894 0.000000 0.000000 0.000000
# 3 -0.001894 -0.001894 0.010964 0.000000 0.000000 0.000000
# 4 0.000000 0.000000 0.000000 0.050871 0.000000 0.000000
# 5 0.000000 0.000000 0.000000 0.000000 0.050871 0.000000
# 6 0.000000 0.000000 0.000000 0.000000 0.000000 0.063138
#
#
# Mechanical properties :
#
#
# Convention : Reuss Voigt Hill
#
# Bulk Modulus (GPa) = 40.99382 41.16713 41.08048
# Shear Modulus (GPa) = 19.63185 21.72885 20.68035
#
# Velocity S-wave (km/s) = 3.30959 3.48186 3.39682
# Velocity P-wave (km/s) = 6.12181 6.25566 6.18910
#
# Compressibility (1/GPa) = 0.02439392
#
# Stress axis : x y z
#
# Youngs Moduli (GPa) = 47.53753 47.53753 91.20888
#
# Poissons Ratio (x) = 0.50071 0.17275
# Poissons Ratio (y) = 0.50071 0.17275
# Poissons Ratio (z) = 0.09004 0.09004
#
# Static dielectric constant tensor:
#      x y z
#    x 1.620190 0.000000 0.000000 
#    y 0.000000 1.620190 0.000000 
#    z 0.000000 0.000000 1.659180 
# 
# From -- ./inp_files/4089.got.cif
#   From: 2010.05.17/outbox.ucp.g08.bks.cvg/sg188_3_cif.got.tgz:4089.got - 2010.06.11 15:21:59.
