data_PCOD9586535
_publ_section_title
;
Structure prediction by ZEFSAII (Michael W. Deem and Ramdas Pophale) SiO2 
 PCOD9586535
Probable space group: P -6 2 M
;
_chemical_formula_sum "Si O2"
_cell_formula_units_Z 64
_cell_length_a 14.616181
_cell_length_b 14.616181
_cell_length_c 15.423356
_cell_angle_alpha 90.000000
_cell_angle_beta 90.000000
_cell_angle_gamma 120.000000
_cell_volume 2853.496470
_symmetry_space_group_name_H-M "P -6 2 M"
_symmetry_group_IT_number 189
_symmetry_cell_setting 'hexagonal'
loop_
_space_group_symop_operation_xyz
x,y,z
-x+y,-x,-z
-y,x-y,z
x,y,-z
-x+y,-x,z
-y,x-y,-z
x-y,-y,-z
-x,-x+y,-z
y,x,-z
y,x,z
x-y,-y,z
-x,-x+y,z
loop_
_atom_site_type_symbol
_atom_site_label
_atom_site_fract_x
_atom_site_fract_y
_atom_site_fract_z
Si Si1 0.449815 0.287678 0.347957
Si Si2 0.115406 0.886787 0.354820
Si Si3 0.450994 0.330267 0.148202
Si Si4 0.506395 0.623905 0.401223
Si Si5 0.877803 0.758033 0.856145
Si Si6 0.666666 0.333333 0.897592
O O1 0.335197 0.212095 0.386980
O O2 0.442263 0.324837 0.252422
O O3 0.523185 0.390612 0.401477
O O4 0.497257 0.209415 0.343537
O O5 0.126027 0.884373 0.249718
O O6 0.000000 0.867122 0.373280
O O7 0.203192 0.000000 0.387352
O O8 0.415149 0.415149 0.119114
O O9 0.358172 0.213693 0.117111
O O10 0.567288 0.348496 0.129123
O O11 0.534085 0.662524 0.500000
O O12 0.586416 0.586416 0.368498
O O13 0.799878 0.799878 0.886497
O O14 0.000000 0.839654 0.879751
O O15 0.666667 0.333334 0.000000
#
# Coordination Sequence:
#
# PCOD9586535 Si02
#       6
#    12  12  12  12  12   4
#     4  11  20  36  58  81 111 149 193 245 301 350
#     4   9  16  27  47  77 111 144 179 225 284 347
#     4  10  22  40  63  93 124 156 202 257 307 361
#     4  11  23  36  52  78 112 152 198 246 299 361
#     4   8  14  26  49  84 123 158 192 236 293 352
#     4  12  27  45  66  90 121 164 202 240 300 372
#
# _framework density 22.428625
#
# number of rings (size 3 to 8) (size 9 to 14) (size 15 to 20)
#    0.000    2.062    0.000    5.812    0.000    3.375 
#    0.000    0.000    0.000    0.000    0.000    0.000 
#    0.000   10.500    0.000    0.000    0.000    0.000 
#
# Total GULP energy -357290.632683 kJ/mol
# GULP energy per Si atom -5582.666136 kJ/mol
# Density = 2.237758 g / cm^3
# Si number density = 22.428625 Si / 1000 Ang^3
#
#
#
# Elastic Constant Matrix: (Units=GPa)
#
#
# Indices 1 2 3 4 5 6 
#
# 1 147.5503 81.3285 13.5030 0.0000 -0.0001 0.0000
# 2 81.3285 147.5503 13.5030 -0.0001 -0.0002 -0.0001
# 3 13.5030 13.5030 43.0716 0.0001 0.0000 0.0000
# 4 0.0000 -0.0001 0.0001 -13.4759 0.0000 0.0000
# 5 -0.0001 -0.0002 0.0000 0.0000 -13.4757 -0.0001
# 6 0.0000 -0.0001 0.0000 0.0000 -0.0001 33.1109
#
#
#
# Elastic Compliance Matrix: (Units=1/GPa)
#
#
# Indices 1 2 3 4 5 6 
#
# 1 0.009819 -0.005282 -0.001422 0.000000 0.000000 0.000000
# 2 -0.005282 0.009819 -0.001422 0.000000 0.000000 0.000000
# 3 -0.001422 -0.001422 0.024109 0.000000 0.000000 0.000000
# 4 0.000000 0.000000 0.000000 -0.074207 0.000000 0.000000
# 5 0.000000 0.000000 0.000000 0.000000 -0.074208 0.000000
# 6 0.000000 0.000000 0.000000 0.000000 0.000000 0.030202
#
#
# Mechanical properties :
#
#
# Convention : Reuss Voigt Hill
#
# Bulk Modulus (GPa) = 36.37222 61.64902 49.01062
# Shear Modulus (GPa) = -101.94011 16.55438 -42.69286
#
# Velocity S-wave (km/s) = -6.74904 2.71973 -4.36764
# Velocity P-wave (km/s) = 6.66938 6.11629 1.88038
#
# Compressibility (1/GPa) = 0.02749351
#
# Stress axis : x y z
#
# Youngs Moduli (GPa) = 101.84491 101.84487 41.47835
#
# Poissons Ratio (x) = 0.53793 0.05900
# Poissons Ratio (y) = 0.53793 0.05900
# Poissons Ratio (z) = 0.14486 0.14486
#
# Static dielectric constant tensor:
#      x y z
#    x 1.887380 0.000000 0.000000 
#    y 0.000000 1.887380 0.000000 
#    z 0.000000 0.000000 1.804110 
# 
# From -- ./inp_files/3043.got.cif
#   From: 2010.05.17/outbox.cif.g08.bks.cpg/sg189_2_cif.got.tgz:3043.got - 2010.05.20 12:14:34.
