data_PCOD9586803
_publ_section_title
;
Structure prediction by ZEFSAII (Michael W. Deem and Ramdas Pophale) SiO2 
 PCOD9586803
Probable space group: P -6 2 C
;
_chemical_formula_sum "Si O2"
_cell_formula_units_Z 96
_cell_length_a 13.895102
_cell_length_b 13.895102
_cell_length_c 27.414978
_cell_angle_alpha 90.000000
_cell_angle_beta 90.000000
_cell_angle_gamma 120.000000
_cell_volume 4583.972586
_symmetry_space_group_name_H-M "P -6 2 C"
_symmetry_group_IT_number 190
_symmetry_cell_setting 'hexagonal'
loop_
_space_group_symop_operation_xyz
x,y,z
-x+y,-x,1/2-z
-y,x-y,z
x,y,1/2-z
-x+y,-x,z
-y,x-y,1/2-z
x-y,-y,-z
-x,-x+y,-z
y,x,-z
y,x,1/2+z
x-y,-y,1/2+z
-x,-x+y,1/2+z
loop_
_atom_site_type_symbol
_atom_site_label
_atom_site_fract_x
_atom_site_fract_y
_atom_site_fract_z
Si Si1 0.069690 0.648419 0.545375
Si Si2 0.443009 0.637554 0.433829
Si Si3 0.739851 0.627427 0.192941
Si Si4 0.235931 0.029642 0.394998
Si Si5 0.338987 0.317801 0.192959
Si Si6 0.718443 0.601460 0.477041
Si Si7 0.494564 0.018232 0.369107
Si Si8 0.230508 0.198068 0.896330
O O1 0.172545 0.761447 0.526004
O O2 0.088823 0.574705 0.585362
O O3 0.992752 0.686460 0.573666
O O4 0.000000 0.578279 0.500000
O O5 0.446183 0.755868 0.428770
O O6 0.497553 0.643968 0.486903
O O7 0.504550 0.601142 0.394246
O O8 0.722634 0.635014 0.250000
O O9 0.776253 0.739686 0.162470
O O10 0.844771 0.607929 0.187162
O O11 0.627674 0.540014 0.166211
O O12 0.147174 0.907070 0.410657
O O13 0.356344 0.080546 0.421022
O O14 0.186544 0.110568 0.405885
O O15 0.322252 0.327279 0.250000
O O16 0.419733 0.432984 0.166693
O O17 0.227892 0.258884 0.160509
O O18 0.698294 0.698294 0.500000
#
# Coordination Sequence:
#
# PCOD9586803 Si02
#       8
#    12  12  12  12  12  12  12  12
#     4  10  21  36  60  90 126 164 208 262 318 387
#     4  10  25  44  62  89 126 170 215 272 324 372
#     4  10  22  40  62  93 126 160 208 260 320 390
#     4  10  20  35  59  89 125 164 204 255 307 385
#     4   9  20  40  64  91 125 163 205 258 322 391
#     4  11  22  38  62  90 124 166 215 261 321 382
#     4  11  22  40  67  91 124 163 212 270 324 376
#     4   9  19  35  56  89 124 161 203 249 309 376
#
# _framework density 20.942532
#
# number of rings (size 3 to 8) (size 9 to 14) (size 15 to 20)
#    0.250    1.750    0.000    3.625    0.000    7.000 
#    0.750    0.000    0.000    7.750    0.000    0.000 
#    0.000    0.000    0.000    0.000    0.000    0.000 
#
# Total GULP energy -534470.960554 kJ/mol
# GULP energy per Si atom -5567.405839 kJ/mol
# Density = 2.089487 g / cm^3
# Si number density = 20.942532 Si / 1000 Ang^3
#
#
#
# Elastic Constant Matrix: (Units=GPa)
#
#
# Indices 1 2 3 4 5 6 
#
# 1 85.7449 48.6806 32.0679 0.0000 0.0000 0.0000
# 2 48.6806 85.7449 32.0679 0.0000 0.0000 0.0000
# 3 32.0679 32.0679 111.4793 0.0000 0.0000 0.0000
# 4 0.0000 0.0000 0.0000 26.7866 0.0000 0.0000
# 5 0.0000 0.0000 0.0000 0.0000 26.7866 0.0000
# 6 0.0000 0.0000 0.0000 0.0000 0.0000 18.5322
#
#
#
# Elastic Compliance Matrix: (Units=1/GPa)
#
#
# Indices 1 2 3 4 5 6 
#
# 1 0.017801 -0.009179 -0.002480 0.000000 0.000000 0.000000
# 2 -0.009179 0.017801 -0.002480 0.000000 0.000000 0.000000
# 3 -0.002480 -0.002480 0.010397 0.000000 0.000000 0.000000
# 4 0.000000 0.000000 0.000000 0.037332 0.000000 0.000000
# 5 0.000000 0.000000 0.000000 0.000000 0.037332 0.000000
# 6 0.000000 0.000000 0.000000 0.000000 0.000000 0.053960
#
#
# Mechanical properties :
#
#
# Convention : Reuss Voigt Hill
#
# Bulk Modulus (GPa) = 56.43059 56.51130 56.47095
# Shear Modulus (GPa) = 23.94521 25.76460 24.85491
#
# Velocity S-wave (km/s) = 3.38505 3.51130 3.44876
# Velocity P-wave (km/s) = 6.50247 6.59405 6.54842
#
# Compressibility (1/GPa) = 0.01772088
#
# Stress axis : x y z
#
# Youngs Moduli (GPa) = 56.17573 56.17573 96.17941
#
# Poissons Ratio (x) = 0.51563 0.23856
# Poissons Ratio (y) = 0.51563 0.23856
# Poissons Ratio (z) = 0.13933 0.13933
#
# Static dielectric constant tensor:
#      x y z
#    x 1.803700 0.000000 0.000000 
#    y 0.000000 1.803700 0.000000 
#    z 0.000000 0.000000 1.767410 
# 
# From -- ./inp_files/5005.got.cif
#   From: 2010.05.17/outbox.cif.g08.bks.cpg/sg190_3_cif.got.tgz:5005.got - 2010.05.20 12:16:56.
