data_PCOD9586218
_publ_section_title
;
Structure prediction by ZEFSAII (Michael W. Deem and Ramdas Pophale) SiO2 
 PCOD9586218
Probable space group: P -6 2 M
;
_chemical_formula_sum "Si O2"
_cell_formula_units_Z 72
_cell_length_a 24.310468
_cell_length_b 24.310468
_cell_length_c 8.908979
_cell_angle_alpha 90.000000
_cell_angle_beta 90.000000
_cell_angle_gamma 120.000000
_cell_volume 4559.793823
_symmetry_space_group_name_H-M "P -6 2 M"
_symmetry_group_IT_number 189
_symmetry_cell_setting 'hexagonal'
loop_
_space_group_symop_operation_xyz
x,y,z
-x+y,-x,-z
-y,x-y,z
x,y,-z
-x+y,-x,z
-y,x-y,-z
x-y,-y,-z
-x,-x+y,-z
y,x,-z
y,x,z
x-y,-y,z
-x,-x+y,z
loop_
_atom_site_type_symbol
_atom_site_label
_atom_site_fract_x
_atom_site_fract_y
_atom_site_fract_z
Si Si1 0.928183 0.402132 0.179718
Si Si2 0.803346 0.404790 0.820246
Si Si3 0.529624 0.263708 0.679602
Si Si4 0.074134 0.147187 0.680602
Si Si5 0.598549 0.735383 0.678772
Si Si6 0.074350 0.264790 0.820577
O O1 0.874986 0.420968 0.215527
O O2 0.908137 0.335808 0.260153
O O3 0.000000 0.453758 0.218873
O O4 0.925149 0.391242 0.000000
O O5 0.758554 0.334307 0.754288
O O6 0.783729 0.452126 0.746109
O O7 0.796009 0.403769 0.000000
O O8 0.538228 0.267146 0.500000
O O9 0.457736 0.208374 0.713304
O O10 0.078440 0.154874 0.500000
O O11 0.117313 0.117313 0.726892
O O12 0.091705 0.213676 0.755975
O O13 0.000000 0.098666 0.716621
O O14 0.605931 0.736364 0.500000
O O15 0.665507 0.782209 0.753611
O O16 0.000000 0.237550 0.779864
O O17 0.078840 0.266782 0.000000
#
# Coordination Sequence:
#
# PCOD9586218 Si02
#       6
#    12  12  12  12  12  12
#     4   9  18  32  49  70  96 123 150 185 230 277
#     4  10  19  31  49  71  94 122 156 189 226 276
#     4  10  20  33  48  68  96 125 154 191 234 275
#     4   9  17  30  49  72  97 125 157 193 233 278
#     4  10  20  32  48  70  94 123 158 194 232 275
#     4  10  20  32  47  69  97 127 157 192 235 280
#
# _framework density 15.790187
#
# number of rings (size 3 to 8) (size 9 to 14) (size 15 to 20)
#    0.000    2.333    0.000    3.000    0.000    7.000 
#    0.000    0.000    0.000    2.000    0.000    4.667 
#    0.000    0.000    0.000    0.000    0.000    0.000 
#
# Total GULP energy -401698.443774 kJ/mol
# GULP energy per Si atom -5579.145052 kJ/mol
# Density = 1.575425 g / cm^3
# Si number density = 15.790187 Si / 1000 Ang^3
#
#
#
# Elastic Constant Matrix: (Units=GPa)
#
#
# Indices 1 2 3 4 5 6 
#
# 1 119.8923 78.3846 50.3496 0.0000 0.0000 0.0000
# 2 78.3846 119.8923 50.3496 0.0000 0.0000 0.0000
# 3 50.3496 50.3496 45.6719 0.0000 0.0000 0.0000
# 4 0.0000 0.0000 0.0000 23.6942 0.0000 0.0000
# 5 0.0000 0.0000 0.0000 0.0000 23.6942 0.0000
# 6 0.0000 0.0000 0.0000 0.0000 0.0000 20.7538
#
#
#
# Elastic Compliance Matrix: (Units=1/GPa)
#
#
# Indices 1 2 3 4 5 6 
#
# 1 0.017776 -0.006316 -0.012633 0.000000 0.000000 0.000000
# 2 -0.006316 0.017776 -0.012633 0.000000 0.000000 0.000000
# 3 -0.012633 -0.012633 0.049749 0.000000 0.000000 0.000000
# 4 0.000000 0.000000 0.000000 0.042204 0.000000 0.000000
# 5 0.000000 0.000000 0.000000 0.000000 0.042204 0.000000
# 6 0.000000 0.000000 0.000000 0.000000 0.000000 0.048184
#
#
# Mechanical properties :
#
#
# Convention : Reuss Voigt Hill
#
# Bulk Modulus (GPa) = 45.17588 71.51378 58.34483
# Shear Modulus (GPa) = 17.33480 20.71995 19.02738
#
# Velocity S-wave (km/s) = 3.31693 3.62637 3.47510
# Velocity P-wave (km/s) = 6.58343 7.93236 7.28917
#
# Compressibility (1/GPa) = 0.02213571
#
# Stress axis : x y z
#
# Youngs Moduli (GPa) = 56.25659 56.25659 20.10077
#
# Poissons Ratio (x) = 0.35533 0.25394
# Poissons Ratio (y) = 0.35533 0.25394
# Poissons Ratio (z) = 0.71070 0.71070
#
# Static dielectric constant tensor:
#      x y z
#    x 1.512300 0.000000 0.000000 
#    y 0.000000 1.512300 0.000000 
#    z 0.000000 0.000000 1.526110 
# 
# From -- ./inp_files/1233.got.cif
#   From: 2010.05.17/outbox.cif.g08.bks.cpg/sg189_1_cif.got.tgz:1233.got - 2010.05.20 12:14:34.
