data_PCOD9586084
_publ_section_title
;
Structure prediction by ZEFSAII (Michael W. Deem and Ramdas Pophale) SiO2 
 PCOD9586084
Probable space group: P -6 C 2
;
_chemical_formula_sum "Si O2"
_cell_formula_units_Z 40
_cell_length_a 11.221803
_cell_length_b 11.221803
_cell_length_c 15.852706
_cell_angle_alpha 90.000000
_cell_angle_beta 90.000000
_cell_angle_gamma 120.000000
_cell_volume 1728.857976
_symmetry_space_group_name_H-M "P -6 C 2"
_symmetry_group_IT_number 188
_symmetry_cell_setting 'hexagonal'
loop_
_space_group_symop_operation_xyz
x,y,z
-x+y,-x,1/2-z
-y,x-y,z
x,y,1/2-z
-x+y,-x,z
-y,x-y,1/2-z
-y,-x,-z
-x+y,y,-z
x,x-y,-z
-x+y,y,1/2+z
x,x-y,1/2+z
-y,-x,1/2+z
loop_
_atom_site_type_symbol
_atom_site_label
_atom_site_fract_x
_atom_site_fract_y
_atom_site_fract_z
Si Si1 0.604885 0.728103 0.911981
Si Si2 0.061808 0.452593 0.343480
Si Si3 0.666668 0.333335 0.602582
Si Si4 0.808638 0.638226 0.601369
O O1 0.496757 0.564721 0.909310
O O2 0.543829 0.794175 0.848898
O O3 0.747767 0.738571 0.882939
O O4 0.617138 0.808569 0.000000
O O5 0.035030 0.485819 0.250000
O O6 0.951173 0.293709 0.364497
O O7 0.666668 0.333334 0.500000
O O8 0.701319 0.483166 0.630921
O O9 0.818210 0.636420 0.500000
#
# Coordination Sequence:
#
# PCOD9586084 Si02
#       4
#    12  12   4  12
#     4  12  25  46  75 106 146 197 257 310 377 466
#     4  12  27  46  71 108 152 194 247 319 391 454
#     4   9  18  36  70  98 127 159 229 308 346 423
#     4  11  22  44  73 105 135 182 245 308 368 452
#
# _framework density 23.136659999999999
#
# number of rings (size 3 to 8) (size 9 to 14) (size 15 to 20)
#    0.000    0.600    6.000    2.400    0.000    2.400 
#    1.800    1.500    0.000    0.000    0.000    0.000 
#    0.000    0.000    0.000    0.000    0.000    0.000 
#
# Total GULP energy -223260.664268 kJ/mol
# GULP energy per Si atom -5581.516607 kJ/mol
# Density = 2.308400 g / cm^3
# Si number density = 23.136660 Si / 1000 Ang^3
#
#
#
# Elastic Constant Matrix: (Units=GPa)
#
#
# Indices 1 2 3 4 5 6 
#
# 1 110.8760 27.0928 12.3084 0.0000 0.0000 0.0001
# 2 27.0928 110.8772 12.3086 0.0001 0.0000 0.0001
# 3 12.3084 12.3086 84.2019 0.0000 0.0000 0.0001
# 4 0.0000 0.0001 0.0000 19.5285 0.0000 0.0000
# 5 0.0000 0.0000 0.0000 0.0000 19.5284 0.0000
# 6 0.0001 0.0001 0.0001 0.0000 0.0000 41.8917
#
#
#
# Elastic Compliance Matrix: (Units=1/GPa)
#
#
# Indices 1 2 3 4 5 6 
#
# 1 0.009689 -0.002247 -0.001088 0.000000 0.000000 0.000000
# 2 -0.002247 0.009689 -0.001088 0.000000 0.000000 0.000000
# 3 -0.001088 -0.001088 0.012194 0.000000 0.000000 0.000000
# 4 0.000000 0.000000 0.000000 0.051207 0.000000 0.000000
# 5 0.000000 0.000000 0.000000 0.000000 0.051207 0.000000
# 6 0.000000 0.000000 0.000000 0.000000 0.000000 0.023871
#
#
# Mechanical properties :
#
#
# Convention : Reuss Voigt Hill
#
# Bulk Modulus (GPa) = 44.00064 45.48608 44.74336
# Shear Modulus (GPa) = 28.68980 33.13941 30.91461
#
# Velocity S-wave (km/s) = 3.52520 3.78872 3.65934
# Velocity P-wave (km/s) = 5.96895 6.23231 6.10205
#
# Compressibility (1/GPa) = 0.02272694
#
# Stress axis : x y z
#
# Youngs Moduli (GPa) = 103.21154 103.21270 82.00577
#
# Poissons Ratio (x) = 0.23189 0.08921
# Poissons Ratio (y) = 0.23189 0.08921
# Poissons Ratio (z) = 0.11228 0.11228
#
# Static dielectric constant tensor:
#      x y z
#    x 1.909910 0.000000 0.000000 
#    y 0.000000 1.909920 0.000000 
#    z 0.000000 0.000000 2.104470 
# 
# From -- ./inp_files/2849.got.cif
#   From: 2010.05.17/outbox.cif.g08.bks.cpg/sg188_2_cif.got.tgz:2849.got - 2010.05.20 12:11:46.
