data_PCOD9586177
_publ_section_title
;
Structure prediction by ZEFSAII (Michael W. Deem and Ramdas Pophale) SiO2 
 PCOD9586177
Probable space group: P -6 2 M
;
_chemical_formula_sum "Si O2"
_cell_formula_units_Z 60
_cell_length_a 20.304668
_cell_length_b 20.304668
_cell_length_c 9.188900
_cell_angle_alpha 90.000000
_cell_angle_beta 90.000000
_cell_angle_gamma 120.000000
_cell_volume 3280.846733
_symmetry_space_group_name_H-M "P -6 2 M"
_symmetry_group_IT_number 189
_symmetry_cell_setting 'hexagonal'
loop_
_space_group_symop_operation_xyz
x,y,z
-x+y,-x,-z
-y,x-y,z
x,y,-z
-x+y,-x,z
-y,x-y,-z
x-y,-y,-z
-x,-x+y,-z
y,x,-z
y,x,z
x-y,-y,z
-x,-x+y,z
loop_
_atom_site_type_symbol
_atom_site_label
_atom_site_fract_x
_atom_site_fract_y
_atom_site_fract_z
Si Si1 0.165416 0.421758 0.675194
Si Si2 0.910707 0.155186 0.673273
Si Si3 0.848943 0.511047 0.670300
Si Si4 0.000000 0.810711 0.827532
Si Si5 0.582489 0.493691 0.173703
Si Si6 0.000000 0.674659 0.333796
O O1 0.158025 0.424381 0.500000
O O2 0.135594 0.333762 0.713238
O O3 0.254589 0.473374 0.712117
O O4 0.116553 0.452704 0.753917
O O5 0.899995 0.139578 0.500000
O O6 0.000000 0.210237 0.700153
O O7 0.878377 0.076643 0.758623
O O8 0.839920 0.488484 0.500000
O O9 0.861092 0.452296 0.764416
O O10 0.925614 0.592839 0.682153
O O11 0.000000 0.734305 0.777782
O O12 0.000000 0.817040 0.000000
O O13 0.526150 0.526150 0.211349
O O14 0.589222 0.494305 0.000000
O O15 0.000000 0.701634 0.500000
#
# Coordination Sequence:
#
# PCOD9586177 Si02
#       6
#    12  12  12   6  12   6
#     4  10  21  39  64  90 114 148 198 249 292 339
#     4  10  21  40  65  89 115 152 202 251 292 342
#     4  10  20  37  64  90 113 147 194 249 292 336
#     4  12  24  36  58  90 126 159 188 235 298 362
#     4  11  24  39  57  86 124 159 191 232 289 358
#     4  10  18  36  64  90 116 145 192 247 290 338
#
# _framework density 18.287960000000002
#
# number of rings (size 3 to 8) (size 9 to 14) (size 15 to 20)
#    0.000    1.600    3.000    2.100    0.000    4.800 
#    1.800    0.000    0.000    0.000    0.000    0.000 
#    0.000    0.000    0.000    0.000    0.000    0.000 
#
# Total GULP energy -335196.093972 kJ/mol
# GULP energy per Si atom -5586.601566 kJ/mol
# Density = 1.824634 g / cm^3
# Si number density = 18.287960 Si / 1000 Ang^3
#
#
#
# Elastic Constant Matrix: (Units=GPa)
#
#
# Indices 1 2 3 4 5 6 
#
# 1 94.0093 34.5326 45.9082 0.0000 0.0000 0.0000
# 2 34.5326 94.0093 45.9082 0.0000 0.0000 0.0000
# 3 45.9082 45.9082 52.7881 0.0000 0.0000 0.0000
# 4 0.0000 0.0000 0.0000 18.1185 0.0000 0.0000
# 5 0.0000 0.0000 0.0000 0.0000 18.1185 0.0000
# 6 0.0000 0.0000 0.0000 0.0000 0.0000 29.7384
#
#
#
# Elastic Compliance Matrix: (Units=1/GPa)
#
#
# Indices 1 2 3 4 5 6 
#
# 1 0.018675 0.001862 -0.017861 0.000000 0.000000 0.000000
# 2 0.001862 0.018675 -0.017861 0.000000 0.000000 0.000000
# 3 -0.017861 -0.017861 0.050009 0.000000 0.000000 0.000000
# 4 0.000000 0.000000 0.000000 0.055192 0.000000 0.000000
# 5 0.000000 0.000000 0.000000 0.000000 0.055192 0.000000
# 6 0.000000 0.000000 0.000000 0.000000 0.000000 0.033627
#
#
# Mechanical properties :
#
#
# Convention : Reuss Voigt Hill
#
# Bulk Modulus (GPa) = 50.91299 54.83385 52.87342
# Shear Modulus (GPa) = 16.35934 20.82560 18.59247
#
# Velocity S-wave (km/s) = 2.99413 3.37821 3.19196
# Velocity P-wave (km/s) = 6.31294 6.72793 6.52374
#
# Compressibility (1/GPa) = 0.01964135
#
# Stress axis : x y z
#
# Youngs Moduli (GPa) = 53.54685 53.54685 19.99637
#
# Poissons Ratio (x) = -0.09970 0.35715
# Poissons Ratio (y) = -0.09970 0.35715
# Poissons Ratio (z) = 0.95637 0.95637
#
# Static dielectric constant tensor:
#      x y z
#    x 1.611380 0.000000 0.000000 
#    y 0.000000 1.611380 0.000000 
#    z 0.000000 0.000000 1.606530 
# 
# From -- ./inp_files/912.got.cif
#   From: 2010.05.17/outbox.cif.g08.bks.cpg/sg189_1_cif.got.tgz:912.got - 2010.05.20 12:14:34.
