data_PCOD9586896
_publ_section_title
;
Structure prediction by ZEFSAII (Michael W. Deem and Ramdas Pophale) SiO2 
 PCOD9586896
Probable space group: P -6 2 C
;
_chemical_formula_sum "Si O2"
_cell_formula_units_Z 48
_cell_length_a 17.812024
_cell_length_b 17.812024
_cell_length_c 9.270981
_cell_angle_alpha 90.000000
_cell_angle_beta 90.000000
_cell_angle_gamma 120.000000
_cell_volume 2547.316249
_symmetry_space_group_name_H-M "P -6 2 C"
_symmetry_group_IT_number 190
_symmetry_cell_setting 'hexagonal'
loop_
_space_group_symop_operation_xyz
x,y,z
-x+y,-x,1/2-z
-y,x-y,z
x,y,1/2-z
-x+y,-x,z
-y,x-y,1/2-z
x-y,-y,-z
-x,-x+y,-z
y,x,-z
y,x,1/2+z
x-y,-y,1/2+z
-x,-x+y,1/2+z
loop_
_atom_site_type_symbol
_atom_site_label
_atom_site_fract_x
_atom_site_fract_y
_atom_site_fract_z
Si Si1 0.792798 0.000000 0.500000
Si Si2 0.092028 0.419606 0.920451
Si Si3 0.501673 0.409046 0.420675
Si Si4 0.968598 0.888738 0.250000
Si Si5 0.767481 0.159916 0.580874
O O1 0.829328 0.958905 0.615303
O O2 0.775655 0.073881 0.563837
O O3 0.083209 0.399149 0.750000
O O4 0.126468 0.522644 0.933808
O O5 0.153462 0.392130 0.999816
O O6 0.000000 0.371689 0.000000
O O7 0.480007 0.396854 0.250000
O O8 0.454040 0.454040 0.500000
O O9 0.464822 0.318275 0.500328
O O10 0.909826 0.934483 0.250000
O O11 0.765678 0.177191 0.750000
#
# Coordination Sequence:
#
# PCOD9586896 Si02
#       5
#     6  12  12   6  12
#     4  12  24  42  64 100 128 170 230 274 324 394
#     4  10  23  43  66  95 127 167 210 267 332 389
#     4  10  21  40  67  92 125 164 206 261 323 387
#     4  10  24  44  64  86 128 182 220 274 336 382
#     4  12  25  40  65  99 132 172 219 270 324 396
#
# _framework density 18.843361000000002
#
# number of rings (size 3 to 8) (size 9 to 14) (size 15 to 20)
#    0.250    1.000    2.500    3.000    3.500    5.000 
#    1.500    0.000    0.000    0.000    0.000    0.000 
#    0.000    0.000    0.000    0.000    0.000    0.000 
#
# Total GULP energy -267993.942465 kJ/mol
# GULP energy per Si atom -5583.207135 kJ/mol
# Density = 1.880047 g / cm^3
# Si number density = 18.843361 Si / 1000 Ang^3
#
#
#
# Elastic Constant Matrix: (Units=GPa)
#
#
# Indices 1 2 3 4 5 6 
#
# 1 79.8179 35.2690 42.8641 0.0000 0.0000 0.0000
# 2 35.2690 79.8179 42.8641 0.0000 0.0000 0.0000
# 3 42.8641 42.8641 156.4118 0.0000 0.0000 0.0000
# 4 0.0000 0.0000 0.0000 27.2164 0.0000 0.0000
# 5 0.0000 0.0000 0.0000 0.0000 27.2164 0.0000
# 6 0.0000 0.0000 0.0000 0.0000 0.0000 22.2745
#
#
#
# Elastic Compliance Matrix: (Units=1/GPa)
#
#
# Indices 1 2 3 4 5 6 
#
# 1 0.016683 -0.005765 -0.002992 0.000000 0.000000 0.000000
# 2 -0.005765 0.016683 -0.002992 0.000000 0.000000 0.000000
# 3 -0.002992 -0.002992 0.008033 0.000000 0.000000 0.000000
# 4 0.000000 0.000000 0.000000 0.036743 0.000000 0.000000
# 5 0.000000 0.000000 0.000000 0.000000 0.036743 0.000000
# 6 0.000000 0.000000 0.000000 0.000000 0.000000 0.044894
#
#
# Mechanical properties :
#
#
# Convention : Reuss Voigt Hill
#
# Bulk Modulus (GPa) = 55.86296 62.00467 58.93382
# Shear Modulus (GPa) = 26.42114 28.34479 27.38296
#
# Velocity S-wave (km/s) = 3.74859 3.88265 3.81621
# Velocity P-wave (km/s) = 6.96033 7.28538 7.12471
#
# Compressibility (1/GPa) = 0.01790095
#
# Stress axis : x y z
#
# Youngs Moduli (GPa) = 59.94294 59.94294 124.48224
#
# Poissons Ratio (x) = 0.34555 0.37245
# Poissons Ratio (y) = 0.34555 0.37245
# Poissons Ratio (z) = 0.17935 0.17935
#
# Static dielectric constant tensor:
#      x y z
#    x 1.650260 0.000000 0.000000 
#    y 0.000000 1.650260 0.000000 
#    z 0.000000 0.000000 1.817500 
# 
# From -- ./inp_files/700.got.cif
#   From: 2010.05.17/outbox.cif.g08.bks.cpg/sg190_1_cif.got.tgz:700.got - 2010.05.20 12:16:56.
