data_PCOD9586783
_publ_section_title
;
Structure prediction by ZEFSAII (Michael W. Deem and Ramdas Pophale) SiO2 
 PCOD9586783
Probable space group: P -6 2 C
;
_chemical_formula_sum "Si O2"
_cell_formula_units_Z 30
_cell_length_a 11.841525
_cell_length_b 11.841525
_cell_length_c 14.013004
_cell_angle_alpha 90.000000
_cell_angle_beta 90.000000
_cell_angle_gamma 120.000000
_cell_volume 1701.677083
_symmetry_space_group_name_H-M "P -6 2 C"
_symmetry_group_IT_number 190
_symmetry_cell_setting 'hexagonal'
loop_
_space_group_symop_operation_xyz
x,y,z
-x+y,-x,1/2-z
-y,x-y,z
x,y,1/2-z
-x+y,-x,z
-y,x-y,1/2-z
x-y,-y,-z
-x,-x+y,-z
y,x,-z
y,x,1/2+z
x-y,-y,1/2+z
-x,-x+y,1/2+z
loop_
_atom_site_type_symbol
_atom_site_label
_atom_site_fract_x
_atom_site_fract_y
_atom_site_fract_z
Si Si1 0.333333 0.666668 0.887045
Si Si2 0.209424 0.999985 0.250000
Si Si3 0.844350 0.557156 0.750000
Si Si4 0.000000 0.000000 0.113269
Si Si5 0.333335 0.666667 0.112955
Si Si6 0.442831 0.287171 0.250000
O O1 0.212046 0.673865 0.841068
O O2 0.333334 0.666667 1.000000
O O3 0.346056 0.132098 0.250000
O O4 0.125074 0.999980 0.341004
O O5 0.213961 0.867881 0.250000
O O6 0.787969 0.461805 0.841068
O O7 0.000004 0.641582 0.750000
O O8 0.000000 0.000000 0.000000
#
# Coordination Sequence:
#
# PCOD9586783 Si02
#       6
#     4   6   6   4   4   6
#     4  10  26  40  61  92 115 157 209 241 286 353
#     4  10  20  40  60  86 126 160 192 244 304 346
#     4  10  21  42  65  83 124 160 191 247 302 349
#     4  10  20  34  55  92 124 154 203 241 292 353
#     4  10  26  40  61  92 115 157 209 241 286 353
#     4  10  21  42  65  83 124 160 191 247 302 349
#
# _framework density 17.629664999999999
#
# number of rings (size 3 to 8) (size 9 to 14) (size 15 to 20)
#    0.000    2.400    4.000    0.000   11.200    4.800 
#    0.000    0.000    0.000    0.000    0.000    0.000 
#    0.000    0.000    0.000    0.000    0.000    0.000 
#
# Total GULP energy -167378.676849 kJ/mol
# GULP energy per Si atom -5579.289228 kJ/mol
# Density = 1.758954 g / cm^3
# Si number density = 17.629665 Si / 1000 Ang^3
#
#
#
# Elastic Constant Matrix: (Units=GPa)
#
#
# Indices 1 2 3 4 5 6 
#
# 1 99.5934 62.2094 41.7054 0.0001 0.0000 0.0002
# 2 62.2094 99.5950 41.7059 0.0001 0.0000 0.0003
# 3 41.7054 41.7059 190.0258 0.0002 -0.0002 0.0001
# 4 0.0001 0.0001 0.0002 2.7442 0.0000 0.0000
# 5 0.0000 0.0000 -0.0002 0.0000 2.7442 0.0000
# 6 0.0002 0.0003 0.0001 0.0000 0.0000 18.6926
#
#
#
# Elastic Compliance Matrix: (Units=1/GPa)
#
#
# Indices 1 2 3 4 5 6 
#
# 1 0.016859 -0.009890 -0.001529 0.000000 0.000000 0.000000
# 2 -0.009890 0.016859 -0.001529 0.000000 0.000000 0.000000
# 3 -0.001529 -0.001529 0.005934 0.000000 0.000000 0.000000
# 4 0.000000 0.000000 0.000000 0.364403 -0.000004 0.000000
# 5 0.000000 0.000000 0.000000 -0.000004 0.364400 0.000000
# 6 0.000000 0.000000 0.000000 0.000000 0.000000 0.053497
#
#
# Mechanical properties :
#
#
# Convention : Reuss Voigt Hill
#
# Bulk Modulus (GPa) = 72.70870 75.60616 74.15743
# Shear Modulus (GPa) = 5.86556 21.07578 13.47067
#
# Velocity S-wave (km/s) = 1.82601 3.46131 2.76722
# Velocity P-wave (km/s) = 6.76591 7.67809 7.23639
#
# Compressibility (1/GPa) = 0.01375351
#
# Stress axis : x y z
#
# Youngs Moduli (GPa) = 59.31573 59.31667 168.52620
#
# Poissons Ratio (x) = 0.58664 0.25775
# Poissons Ratio (y) = 0.58663 0.25776
# Poissons Ratio (z) = 0.09072 0.09072
#
# Static dielectric constant tensor:
#      x y z
#    x 1.609770 0.000000 0.000000 
#    y 0.000000 1.609770 0.000000 
#    z 0.000000 0.000000 1.562210 
# 
# From -- ./inp_files/2336.got.cif
#   From: 2010.05.17/outbox.cif.g08.bks.cpg/sg190_2_cif.got.tgz:2336.got - 2010.05.20 12:16:56.
