data_PCOD9586527
_publ_section_title
;
Structure prediction by ZEFSAII (Michael W. Deem and Ramdas Pophale) SiO2 
 PCOD9586527
Probable space group: P -6 2 M
;
_chemical_formula_sum "Si O2"
_cell_formula_units_Z 78
_cell_length_a 23.619541
_cell_length_b 23.619541
_cell_length_c 10.015002
_cell_angle_alpha 90.000000
_cell_angle_beta 90.000000
_cell_angle_gamma 120.000000
_cell_volume 4838.654128
_symmetry_space_group_name_H-M "P -6 2 M"
_symmetry_group_IT_number 189
_symmetry_cell_setting 'hexagonal'
loop_
_space_group_symop_operation_xyz
x,y,z
-x+y,-x,-z
-y,x-y,z
x,y,-z
-x+y,-x,z
-y,x-y,-z
x-y,-y,-z
-x,-x+y,-z
y,x,-z
y,x,z
x-y,-y,z
-x,-x+y,z
loop_
_atom_site_type_symbol
_atom_site_label
_atom_site_fract_x
_atom_site_fract_y
_atom_site_fract_z
Si Si1 0.344855 0.143165 0.339002
Si Si2 0.303308 0.721280 0.500000
Si Si3 0.334590 0.471077 0.150704
Si Si4 0.000000 0.418603 0.342944
Si Si5 0.727100 0.075235 0.658476
Si Si6 0.520570 0.111937 0.151213
Si Si7 0.000000 0.282068 0.656454
Si Si8 0.507020 0.727745 0.760163
O O1 0.350135 0.139752 0.500000
O O2 0.324105 0.197243 0.310479
O O3 0.297238 0.069873 0.287699
O O4 0.417578 0.172288 0.280907
O O5 0.378281 0.736342 0.500000
O O6 0.287267 0.750188 0.628616
O O7 0.315572 0.413670 0.256907
O O8 0.406496 0.531823 0.173397
O O9 0.280961 0.493914 0.164485
O O10 0.331842 0.446554 0.000000
O O11 0.000000 0.434213 0.500000
O O12 0.062554 0.473305 0.263420
O O13 0.000000 0.350395 0.336355
O O14 0.718022 0.081609 0.500000
O O15 0.703540 0.000000 0.685958
O O16 0.518207 0.178561 0.162609
O O17 0.500385 0.085609 0.000000
O O18 0.000000 0.265809 0.500000
#
# Coordination Sequence:
#
# PCOD9586527 Si02
#       8
#    12   6  12   6  12  12   6  12
#     4   9  16  29  51  76 105 130 158 211 254 302
#     4  10  22  32  48  77 103 131 176 238 283 314
#     4  10  23  38  54  73  99 138 176 217 269 324
#     4  11  23  37  57  79 101 133 175 220 263 318
#     4   9  19  35  55  79 103 132 170 214 260 305
#     4  11  24  39  55  74 105 138 173 219 271 327
#     4   9  16  29  49  81 103 127 163 200 253 304
#     4  11  19  36  54  73 100 134 173 220 272 323
#
# _framework density 16.120184999999999
#
# number of rings (size 3 to 8) (size 9 to 14) (size 15 to 20)
#    0.154    1.846    2.308    1.615    3.231    0.923 
#    0.923    0.000    0.000    0.000    0.000    0.000 
#    0.769    0.000    2.308    0.000    0.000    0.000 
#
# Total GULP energy -434906.634906 kJ/mol
# GULP energy per Si atom -5575.726089 kJ/mol
# Density = 1.608349 g / cm^3
# Si number density = 16.120185 Si / 1000 Ang^3
#
#
#
# Elastic Constant Matrix: (Units=GPa)
#
#
# Indices 1 2 3 4 5 6 
#
# 1 90.7721 53.6340 38.4575 0.0000 0.0000 0.0000
# 2 53.6340 90.7721 38.4575 0.0000 0.0000 0.0000
# 3 38.4575 38.4575 65.2541 0.0000 0.0000 0.0000
# 4 0.0000 0.0000 0.0000 -2.2826 0.0000 0.0000
# 5 0.0000 0.0000 0.0000 0.0000 -2.2826 0.0000
# 6 0.0000 0.0000 0.0000 0.0000 0.0000 18.5691
#
#
#
# Elastic Compliance Matrix: (Units=1/GPa)
#
#
# Indices 1 2 3 4 5 6 
#
# 1 0.018510 -0.008417 -0.005948 0.000000 0.000000 0.000000
# 2 -0.008417 0.018510 -0.005948 0.000000 0.000000 0.000000
# 3 -0.005948 -0.005948 0.022336 0.000000 0.000000 0.000000
# 4 0.000000 0.000000 0.000000 -0.438106 0.000000 0.000000
# 5 0.000000 0.000000 0.000000 0.000000 -0.438106 0.000000
# 6 0.000000 0.000000 0.000000 0.000000 0.000000 0.053853
#
#
# Mechanical properties :
#
#
# Convention : Reuss Voigt Hill
#
# Bulk Modulus (GPa) = 53.39365 56.43294 54.91329
# Shear Modulus (GPa) = -6.98194 10.55075 1.78440
#
# Velocity S-wave (km/s) = -2.08341 2.56111 1.05325
# Velocity P-wave (km/s) = 5.23514 6.62037 5.96808
#
# Compressibility (1/GPa) = 0.01872882
#
# Stress axis : x y z
#
# Youngs Moduli (GPa) = 54.02521 54.02521 44.77051
#
# Poissons Ratio (x) = 0.45471 0.26631
# Poissons Ratio (y) = 0.45471 0.26631
# Poissons Ratio (z) = 0.32137 0.32137
#
# Static dielectric constant tensor:
#      x y z
#    x 1.539790 0.000000 0.000000 
#    y 0.000000 1.539790 0.000000 
#    z 0.000000 0.000000 1.539320 
# 
# From -- ./inp_files/1453.got.cif
#   From: 2010.05.17/outbox.cif.g08.bks.cpg/sg189_1_cif.got.tgz:1453.got - 2010.05.20 12:14:34.
