data_PCOD9586356
_publ_section_title
;
Structure prediction by ZEFSAII (Michael W. Deem and Ramdas Pophale) SiO2 
 PCOD9586356
Probable space group: P -6 2 M
;
_chemical_formula_sum "Si O2"
_cell_formula_units_Z 78
_cell_length_a 24.868780
_cell_length_b 24.868780
_cell_length_c 8.224889
_cell_angle_alpha 90.000000
_cell_angle_beta 90.000000
_cell_angle_gamma 120.000000
_cell_volume 4405.240650
_symmetry_space_group_name_H-M "P -6 2 M"
_symmetry_group_IT_number 189
_symmetry_cell_setting 'hexagonal'
loop_
_space_group_symop_operation_xyz
x,y,z
-x+y,-x,-z
-y,x-y,z
x,y,-z
-x+y,-x,z
-y,x-y,-z
x-y,-y,-z
-x,-x+y,-z
y,x,-z
y,x,z
x-y,-y,z
-x,-x+y,z
loop_
_atom_site_type_symbol
_atom_site_label
_atom_site_fract_x
_atom_site_fract_y
_atom_site_fract_z
Si Si1 0.927287 0.420135 0.308943
Si Si2 0.373984 0.303704 0.697068
Si Si3 0.409874 0.681049 0.000000
Si Si4 0.188749 0.816061 0.688372
Si Si5 0.857291 0.486258 0.189388
Si Si6 0.070767 0.374354 0.190931
Si Si7 0.522208 0.259991 0.318723
O O1 0.921985 0.429707 0.500000
O O2 0.885799 0.441788 0.213560
O O3 0.910430 0.349459 0.280326
O O4 0.000000 0.461845 0.261270
O O5 0.373721 0.301716 0.500000
O O6 0.329012 0.329012 0.750917
O O7 0.356201 0.234745 0.754886
O O8 0.444498 0.350889 0.749341
O O9 0.383329 0.729072 0.000000
O O10 0.447263 0.692410 0.166112
O O11 0.182087 0.828399 0.500000
O O12 0.232138 0.880871 0.774752
O O13 0.228340 0.780474 0.693185
O O14 0.794605 0.464536 0.291688
O O15 0.846476 0.492832 0.000000
O O16 0.000000 0.326003 0.240250
O O17 0.071189 0.386759 0.000000
O O18 0.541916 0.252597 0.500000
#
# Coordination Sequence:
#
# PCOD9586356 Si02
#       7
#    12  12   6  12  12  12  12
#     4  10  20  33  48  68  95 126 162 206 256 308
#     4   9  18  33  52  76 106 137 171 209 252 310
#     4  10  24  40  54  74  96 122 169 216 270 314
#     4   9  19  34  55  78  99 135 171 202 254 310
#     4  11  20  31  50  74 102 132 166 210 258 312
#     4  10  21  35  51  74 101 130 167 213 261 309
#     4  10  21  39  57  75  99 129 170 212 262 323
#
# _framework density 17.706185000000001
#
# number of rings (size 3 to 8) (size 9 to 14) (size 15 to 20)
#    0.154    2.000    0.769    3.692    1.077    6.462 
#    0.000    1.538    0.000    0.000    0.000    0.000 
#    0.000    0.000    0.000    0.462    0.000    7.077 
#
# Total GULP energy -435548.248075 kJ/mol
# GULP energy per Si atom -5583.951898 kJ/mol
# Density = 1.766588 g / cm^3
# Si number density = 17.706185 Si / 1000 Ang^3
#
#
#
# Elastic Constant Matrix: (Units=GPa)
#
#
# Indices 1 2 3 4 5 6 
#
# 1 74.3348 30.8050 10.7456 0.0000 0.0000 0.0000
# 2 30.8050 74.3348 10.7456 0.0000 0.0000 0.0000
# 3 10.7456 10.7456 66.1686 0.0000 0.0000 0.0000
# 4 0.0000 0.0000 0.0000 -17.7537 0.0000 0.0000
# 5 0.0000 0.0000 0.0000 0.0000 -17.7537 0.0000
# 6 0.0000 0.0000 0.0000 0.0000 0.0000 21.7649
#
#
#
# Elastic Compliance Matrix: (Units=1/GPa)
#
#
# Indices 1 2 3 4 5 6 
#
# 1 0.016405 -0.006568 -0.001598 0.000000 0.000000 0.000000
# 2 -0.006568 0.016405 -0.001598 0.000000 0.000000 0.000000
# 3 -0.001598 -0.001598 0.015632 0.000000 0.000000 0.000000
# 4 0.000000 0.000000 0.000000 -0.056326 0.000000 0.000000
# 5 0.000000 0.000000 0.000000 0.000000 -0.056326 0.000000
# 6 0.000000 0.000000 0.000000 0.000000 0.000000 0.045946
#
#
# Mechanical properties :
#
#
# Convention : Reuss Voigt Hill
#
# Bulk Modulus (GPa) = 34.58202 35.49228 35.03715
# Shear Modulus (GPa) = 458.72700 8.08764 233.40732
#
# Velocity S-wave (km/s) = 16.11334 2.13953 11.49385
# Velocity P-wave (km/s) = 19.12485 5.11782 13.99914
#
# Compressibility (1/GPa) = 0.02891676
#
# Stress axis : x y z
#
# Youngs Moduli (GPa) = 60.95616 60.95616 63.97219
#
# Poissons Ratio (x) = 0.40033 0.10220
# Poissons Ratio (y) = 0.40033 0.10220
# Poissons Ratio (z) = 0.09738 0.09738
#
# Static dielectric constant tensor:
#      x y z
#    x 1.618960 0.000000 0.000000 
#    y 0.000000 1.618960 0.000000 
#    z 0.000000 0.000000 1.626310 
# 
# From -- ./inp_files/1424.got.cif
#   From: 2010.05.17/outbox.cif.g08.bks.cpg/sg189_1_cif.got.tgz:1424.got - 2010.05.20 12:14:34.
