data_PCOD9586915
_publ_section_title
;
Structure prediction by ZEFSAII (Michael W. Deem and Ramdas Pophale) SiO2 
 PCOD9586915
Probable space group: P -6 2 C
;
_chemical_formula_sum "Si O2"
_cell_formula_units_Z 42
_cell_length_a 10.368621
_cell_length_b 10.368621
_cell_length_c 23.176692
_cell_angle_alpha 90.000000
_cell_angle_beta 90.000000
_cell_angle_gamma 120.000000
_cell_volume 2157.864058
_symmetry_space_group_name_H-M "P -6 2 C"
_symmetry_group_IT_number 190
_symmetry_cell_setting 'hexagonal'
loop_
_space_group_symop_operation_xyz
x,y,z
-x+y,-x,1/2-z
-y,x-y,z
x,y,1/2-z
-x+y,-x,z
-y,x-y,1/2-z
x-y,-y,-z
-x,-x+y,-z
y,x,-z
y,x,1/2+z
x-y,-y,1/2+z
-x,-x+y,1/2+z
loop_
_atom_site_type_symbol
_atom_site_label
_atom_site_fract_x
_atom_site_fract_y
_atom_site_fract_z
Si Si1 0.196507 0.844887 0.032766
Si Si2 0.270257 0.381528 0.915682
Si Si3 0.649744 0.493045 0.750000
Si Si4 0.402937 0.995949 0.629741
O O1 0.042155 0.767854 0.068000
O O2 0.324496 0.883479 0.079032
O O3 0.180421 0.738970 0.979420
O O4 0.238292 0.000000 0.000000
O O5 0.418442 0.494805 0.882400
O O6 0.128147 0.359554 0.880562
O O7 0.798330 0.479561 0.750000
O O8 0.636683 0.567984 0.807892
#
# Coordination Sequence:
#
# PCOD9586915 Si02
#       4
#    12  12   6  12
#     4   9  21  39  59  96 135 170 211 270 341 404
#     4  10  22  38  63  97 128 172 220 270 343 390
#     4  10  24  44  68  92 130 176 228 272 334 394
#     4  11  22  43  63  99 132 175 227 278 330 402
#
# _framework density 19.46369
#
# number of rings (size 3 to 8) (size 9 to 14) (size 15 to 20)
#    0.286    1.714    0.000    2.286   12.000    1.143 
#   46.286    1.429    0.000    0.000    0.000    0.000 
#    0.000    0.000    0.000    0.000    0.000    0.000 
#
# Total GULP energy -234298.973727 kJ/mol
# GULP energy per Si atom -5578.546994 kJ/mol
# Density = 1.941939 g / cm^3
# Si number density = 19.463690 Si / 1000 Ang^3
#
#
#
# Elastic Constant Matrix: (Units=GPa)
#
#
# Indices 1 2 3 4 5 6 
#
# 1 56.3341 12.3818 46.1678 0.0000 0.0000 0.0000
# 2 12.3818 56.3341 46.1678 0.0000 0.0000 0.0000
# 3 46.1678 46.1678 136.8800 0.0000 0.0000 0.0000
# 4 0.0000 0.0000 0.0000 34.3885 0.0000 0.0000
# 5 0.0000 0.0000 0.0000 0.0000 34.3885 0.0000
# 6 0.0000 0.0000 0.0000 0.0000 0.0000 21.9761
#
#
#
# Elastic Compliance Matrix: (Units=1/GPa)
#
#
# Indices 1 2 3 4 5 6 
#
# 1 0.024684 0.001932 -0.008977 0.000000 0.000000 0.000000
# 2 0.001932 0.024684 -0.008977 0.000000 0.000000 0.000000
# 3 -0.008977 -0.008977 0.013361 0.000000 0.000000 0.000000
# 4 0.000000 0.000000 0.000000 0.029079 0.000000 0.000000
# 5 0.000000 0.000000 0.000000 0.000000 0.029079 0.000000
# 6 0.000000 0.000000 0.000000 0.000000 0.000000 0.045504
#
#
# Mechanical properties :
#
#
# Convention : Reuss Voigt Hill
#
# Bulk Modulus (GPa) = 32.59033 50.99816 41.79424
# Shear Modulus (GPa) = 23.96197 27.80603 25.88400
#
# Velocity S-wave (km/s) = 3.51253 3.78380 3.65068
# Velocity P-wave (km/s) = 5.76463 6.73410 6.26814
#
# Compressibility (1/GPa) = 0.03068395
#
# Stress axis : x y z
#
# Youngs Moduli (GPa) = 40.51269 40.51269 74.84295
#
# Poissons Ratio (x) = -0.07826 0.67186
# Poissons Ratio (y) = -0.07826 0.67186
# Poissons Ratio (z) = 0.36368 0.36368
#
# Static dielectric constant tensor:
#      x y z
#    x 1.714780 0.000000 0.000000 
#    y 0.000000 1.714780 0.000000 
#    z 0.000000 0.000000 1.650230 
# 
# From -- ./inp_files/4071.got.cif
#   From: 2010.05.17/outbox.cif.g08.bks.cpg/sg190_3_cif.got.tgz:4071.got - 2010.05.20 12:16:56.
