data_PCOD9586035
_publ_section_title
;
Structure prediction by ZEFSAII (Michael W. Deem and Ramdas Pophale) SiO2 
 PCOD9586035
Probable space group: P -6 C 2
;
_chemical_formula_sum "Si O2"
_cell_formula_units_Z 58
_cell_length_a 14.789017
_cell_length_b 14.789017
_cell_length_c 16.055727
_cell_angle_alpha 90.000000
_cell_angle_beta 90.000000
_cell_angle_gamma 120.000000
_cell_volume 3041.159674
_symmetry_space_group_name_H-M "P -6 C 2"
_symmetry_group_IT_number 188
_symmetry_cell_setting 'hexagonal'
loop_
_space_group_symop_operation_xyz
x,y,z
-x+y,-x,1/2-z
-y,x-y,z
x,y,1/2-z
-x+y,-x,z
-y,x-y,1/2-z
-y,-x,-z
-x+y,y,-z
x,x-y,-z
-x+y,y,1/2+z
x,x-y,1/2+z
-y,-x,1/2+z
loop_
_atom_site_type_symbol
_atom_site_label
_atom_site_fract_x
_atom_site_fract_y
_atom_site_fract_z
Si Si1 0.609539 0.578423 0.032566
Si Si2 0.848199 0.696397 0.500000
Si Si3 0.189918 0.195414 0.345858
Si Si4 0.000000 0.000000 0.100652
Si Si5 0.294363 0.857087 0.892789
Si Si6 0.502763 0.865801 0.656982
O O1 0.576171 0.594573 0.123265
O O2 0.539066 0.460935 0.000000
O O3 0.730899 0.624495 0.029532
O O4 0.578843 0.645668 0.970289
O O5 0.920526 0.760094 0.420979
O O6 0.211863 0.178536 0.250000
O O7 0.067124 0.117934 0.364402
O O8 0.232011 0.319440 0.355438
O O9 0.000000 0.000000 0.000000
O O10 0.388332 0.852781 0.845595
O O11 0.212223 0.734326 0.900384
O O12 0.527852 0.848792 0.750000
#
# Coordination Sequence:
#
# PCOD9586035 Si02
#       6
#    12   6  12   4  12  12
#     4   9  21  39  57  81 113 151 192 239 295 352
#     4  10  22  40  62  84 116 152 196 250 302 352
#     4  11  23  40  60  86 121 160 202 249 303 359
#     4  12  25  41  61  88 122 163 208 260 304 358
#     4  10  22  38  58  86 123 159 193 237 289 358
#     4  11  20  33  57  87 117 151 191 233 287 349
#
# _framework density 19.071670999999998
#
# number of rings (size 3 to 8) (size 9 to 14) (size 15 to 20)
#    0.000    1.655    1.034    3.517    2.897    0.828 
#    0.621    2.069    0.000    0.000    0.000    0.000 
#    0.000    0.000    0.000    0.000    0.000    0.000 
#
# Total GULP energy -323010.802056 kJ/mol
# GULP energy per Si atom -5569.151760 kJ/mol
# Density = 1.902826 g / cm^3
# Si number density = 19.071671 Si / 1000 Ang^3
#
#
#
# Elastic Constant Matrix: (Units=GPa)
#
#
# Indices 1 2 3 4 5 6 
#
# 1 90.5948 59.2887 23.6494 0.0003 0.0000 0.0000
# 2 59.2887 90.5948 23.6494 -0.0003 0.0000 0.0000
# 3 23.6494 23.6494 59.2052 0.0000 0.0000 0.0000
# 4 0.0003 -0.0003 0.0000 10.3227 0.0000 0.0000
# 5 0.0000 0.0000 0.0000 0.0000 10.3227 0.0003
# 6 0.0000 0.0000 0.0000 0.0000 0.0003 15.6530
#
#
#
# Elastic Compliance Matrix: (Units=1/GPa)
#
#
# Indices 1 2 3 4 5 6 
#
# 1 0.019788 -0.012154 -0.003049 -0.000001 0.000000 0.000000
# 2 -0.012154 0.019788 -0.003049 0.000001 0.000000 0.000000
# 3 -0.003049 -0.003049 0.019327 0.000000 0.000000 0.000000
# 4 -0.000001 0.000001 0.000000 0.096874 0.000000 0.000000
# 5 0.000000 0.000000 0.000000 0.000000 0.096874 -0.000002
# 6 0.000000 0.000000 0.000000 0.000000 -0.000002 0.063885
#
#
# Mechanical properties :
#
#
# Convention : Reuss Voigt Hill
#
# Bulk Modulus (GPa) = 44.64861 50.39665 47.52263
# Shear Modulus (GPa) = 13.86930 16.18017 15.02473
#
# Velocity S-wave (km/s) = 2.69963 2.91587 2.80983
# Velocity P-wave (km/s) = 5.76013 6.14969 5.95809
#
# Compressibility (1/GPa) = 0.02239712
#
# Stress axis : x y z
#
# Youngs Moduli (GPa) = 50.53460 50.53460 51.74215
#
# Poissons Ratio (x) = 0.61421 0.15779
# Poissons Ratio (y) = 0.61421 0.15779
# Poissons Ratio (z) = 0.15410 0.15410
#
# Static dielectric constant tensor:
#      x y z
#    x 1.684490 0.000000 0.000000 
#    y 0.000000 1.684490 0.000000 
#    z 0.000000 0.000000 4.435930 
# 
# From -- ./inp_files/2307.got.cif
#   From: 2010.05.17/outbox.cif.g08.bks.cpg/sg188_2_cif.got.tgz:2307.got - 2010.05.20 12:11:46.
