data_PCOD9586350
_publ_section_title
;
Structure prediction by ZEFSAII (Michael W. Deem and Ramdas Pophale) SiO2 
 PCOD9586350
Probable space group: P -6 2 M
;
_chemical_formula_sum "Si O2"
_cell_formula_units_Z 44
_cell_length_a 12.375020
_cell_length_b 12.375020
_cell_length_c 17.982126
_cell_angle_alpha 90.000000
_cell_angle_beta 90.000000
_cell_angle_gamma 120.000000
_cell_volume 2384.863282
_symmetry_space_group_name_H-M "P -6 2 M"
_symmetry_group_IT_number 189
_symmetry_cell_setting 'hexagonal'
loop_
_space_group_symop_operation_xyz
x,y,z
-x+y,-x,-z
-y,x-y,z
x,y,-z
-x+y,-x,z
-y,x-y,-z
x-y,-y,-z
-x,-x+y,-z
y,x,-z
y,x,z
x-y,-y,z
-x,-x+y,z
loop_
_atom_site_type_symbol
_atom_site_label
_atom_site_fract_x
_atom_site_fract_y
_atom_site_fract_z
Si Si1 0.521158 0.855659 0.685013
Si Si2 0.852877 0.307101 0.414834
Si Si3 0.224108 0.711091 0.851987
Si Si4 0.000000 0.000000 0.909401
Si Si5 0.746870 0.000000 0.089078
O O1 0.600226 0.821424 0.629064
O O2 0.401890 0.829478 0.635218
O O3 0.496366 0.784266 0.762494
O O4 0.590833 0.000000 0.705110
O O5 0.811404 0.299468 0.500000
O O6 0.000000 0.362168 0.415228
O O7 0.201906 0.572780 0.872800
O O8 0.123137 0.742916 0.884110
O O9 0.126819 0.126819 0.886036
O O10 0.000000 0.000000 0.000000
O O11 0.747018 0.000000 0.000000
#
# Coordination Sequence:
#
# PCOD9586350 Si02
#       5
#    12  12  12   2   6
#     4  11  19  34  56  82 113 156 200 244 305 372
#     4  10  20  32  50  78 113 151 198 252 300 353
#     4  10  21  38  62  96 131 166 203 260 327 379
#     4   9  24  51  69  93 129 162 208 260 316 381
#     4  11  24  45  71  97 126 168 216 262 317 387
#
# _framework density 18.449694000000001
#
# number of rings (size 3 to 8) (size 9 to 14) (size 15 to 20)
#    0.545    1.091    4.091    1.364    0.000    3.818 
#    2.455    1.364    0.000    0.545    0.000    0.000 
#    0.000    0.000    0.000    0.000    0.000    0.000 
#
# Total GULP energy -244987.014684 kJ/mol
# GULP energy per Si atom -5567.886697 kJ/mol
# Density = 1.840770 g / cm^3
# Si number density = 18.449694 Si / 1000 Ang^3
#
#
#
# Elastic Constant Matrix: (Units=GPa)
#
#
# Indices 1 2 3 4 5 6 
#
# 1 95.8496 40.9217 23.3426 0.0000 0.0000 0.0000
# 2 40.9217 95.8496 23.3426 0.0000 0.0000 0.0000
# 3 23.3426 23.3426 70.7983 0.0000 0.0000 0.0000
# 4 0.0000 0.0000 0.0000 26.3064 0.0000 0.0000
# 5 0.0000 0.0000 0.0000 0.0000 26.3064 0.0000
# 6 0.0000 0.0000 0.0000 0.0000 0.0000 27.4639
#
#
#
# Elastic Compliance Matrix: (Units=1/GPa)
#
#
# Indices 1 2 3 4 5 6 
#
# 1 0.013222 -0.004984 -0.002716 0.000000 0.000000 0.000000
# 2 -0.004984 0.013222 -0.002716 0.000000 0.000000 0.000000
# 3 -0.002716 -0.002716 0.015916 0.000000 0.000000 0.000000
# 4 0.000000 0.000000 0.000000 0.038014 0.000000 0.000000
# 5 0.000000 0.000000 0.000000 0.000000 0.038014 0.000000
# 6 0.000000 0.000000 0.000000 0.000000 0.000000 0.036411
#
#
# Mechanical properties :
#
#
# Convention : Reuss Voigt Hill
#
# Bulk Modulus (GPa) = 46.45152 48.63456 47.54304
# Shear Modulus (GPa) = 27.35127 27.67473 27.51300
#
# Velocity S-wave (km/s) = 3.85447 3.87720 3.86585
# Velocity P-wave (km/s) = 6.71128 6.81626 6.76398
#
# Compressibility (1/GPa) = 0.02152782
#
# Stress axis : x y z
#
# Youngs Moduli (GPa) = 75.63051 75.63051 62.83058
#
# Poissons Ratio (x) = 0.37691 0.17067
# Poissons Ratio (y) = 0.37691 0.17067
# Poissons Ratio (z) = 0.20544 0.20544
#
# Static dielectric constant tensor:
#      x y z
#    x 1.683520 0.000000 0.000000 
#    y 0.000000 1.683520 0.000000 
#    z 0.000000 0.000000 1.630430 
# 
# From -- ./inp_files/2962.got.cif
#   From: 2010.05.17/outbox.cif.g08.bks.cpg/sg189_2_cif.got.tgz:2962.got - 2010.05.20 12:14:34.
