data_PCOD9586864
_publ_section_title
;
Structure prediction by ZEFSAII (Michael W. Deem and Ramdas Pophale) SiO2 
 PCOD9586864
Probable space group: P -6 2 C
;
_chemical_formula_sum "Si O2"
_cell_formula_units_Z 70
_cell_length_a 15.595549
_cell_length_b 15.595549
_cell_length_c 15.452137
_cell_angle_alpha 90.000000
_cell_angle_beta 90.000000
_cell_angle_gamma 120.000000
_cell_volume 3254.771592
_symmetry_space_group_name_H-M "P -6 2 C"
_symmetry_group_IT_number 190
_symmetry_cell_setting 'hexagonal'
loop_
_space_group_symop_operation_xyz
x,y,z
-x+y,-x,1/2-z
-y,x-y,z
x,y,1/2-z
-x+y,-x,z
-y,x-y,1/2-z
x-y,-y,-z
-x,-x+y,-z
y,x,-z
y,x,1/2+z
x-y,-y,1/2+z
-x,-x+y,1/2+z
loop_
_atom_site_type_symbol
_atom_site_label
_atom_site_fract_x
_atom_site_fract_y
_atom_site_fract_z
Si Si1 0.808890 0.677944 0.353273
Si Si2 0.666667 0.333335 0.148042
Si Si3 0.307751 0.287707 0.904666
Si Si4 0.618382 0.489228 0.084761
Si Si5 0.471211 0.365713 0.750000
Si Si6 0.801826 0.705989 0.648509
Si Si7 0.094102 0.493890 0.117083
O O1 0.793940 0.662480 0.250000
O O2 0.730290 0.576327 0.398580
O O3 0.776947 0.758788 0.376801
O O4 0.919151 0.707763 0.376761
O O5 0.666667 0.333334 0.250000
O O6 0.608164 0.387843 0.116731
O O7 0.387513 0.332131 0.827831
O O8 0.282940 0.174125 0.909310
O O9 0.337395 0.337395 0.000000
O O10 0.551518 0.527050 0.132949
O O11 0.597895 0.484339 0.983498
O O12 0.558889 0.410729 0.824697
O O13 0.831853 0.723370 0.750000
O O14 0.709515 0.594029 0.641188
#
# Coordination Sequence:
#
# PCOD9586864 Si02
#       7
#    12   4  12  12   6  12  12
#     4  10  21  42  72 101 140 185 235 292 353 424
#     4  12  27  39  66 103 146 166 219 297 354 409
#     4  12  26  42  70 105 143 183 241 302 351 422
#     4  10  24  41  63  98 132 180 222 275 350 422
#     4  12  26  42  66 100 132 178 238 294 344 412
#     4  10  20  44  70  99 135 183 235 279 353 430
#     4  10  23  43  67  88 132 184 230 275 344 429
#
# _framework density 21.506886999999999
#
# number of rings (size 3 to 8) (size 9 to 14) (size 15 to 20)
#    0.000    1.371    2.571    1.543    7.200    3.429 
#    1.029    0.000    0.000    2.743    0.000    0.000 
#    0.000    0.000    0.000    0.000    0.000    0.000 
#
# Total GULP energy -389929.020354 kJ/mol
# GULP energy per Si atom -5570.414576 kJ/mol
# Density = 2.145794 g / cm^3
# Si number density = 21.506887 Si / 1000 Ang^3
#
#
#
# Elastic Constant Matrix: (Units=GPa)
#
#
# Indices 1 2 3 4 5 6 
#
# 1 53.4912 26.2590 14.0107 0.0000 0.0003 0.0011
# 2 26.2590 53.4909 14.0122 -0.0001 -0.0003 -0.0002
# 3 14.0107 14.0122 107.3560 0.0000 -0.0001 0.0003
# 4 0.0000 -0.0001 0.0000 25.8218 0.0000 0.0003
# 5 0.0003 -0.0003 -0.0001 0.0000 25.8220 0.0000
# 6 0.0011 -0.0002 0.0003 0.0003 0.0000 13.6108
#
#
#
# Elastic Compliance Matrix: (Units=1/GPa)
#
#
# Indices 1 2 3 4 5 6 
#
# 1 0.024931 -0.011790 -0.001715 0.000000 0.000000 -0.000002
# 2 -0.011790 0.024932 -0.001715 0.000000 0.000000 0.000001
# 3 -0.001715 -0.001715 0.009763 0.000000 0.000000 0.000000
# 4 0.000000 0.000000 0.000000 0.038727 0.000000 -0.000001
# 5 0.000000 0.000000 0.000000 0.000000 0.038727 0.000000
# 6 -0.000002 0.000001 0.000000 -0.000001 0.000000 0.073471
#
#
# Mechanical properties :
#
#
# Convention : Reuss Voigt Hill
#
# Bulk Modulus (GPa) = 34.26363 35.87798 35.07081
# Shear Modulus (GPa) = 19.94263 23.72134 21.83198
#
# Velocity S-wave (km/s) = 3.04841 3.32469 3.18954
# Velocity P-wave (km/s) = 5.32508 5.60860 5.46868
#
# Compressibility (1/GPa) = 0.02918547
#
# Stress axis : x y z
#
# Youngs Moduli (GPa) = 40.10996 40.10941 102.43259
#
# Poissons Ratio (x) = 0.47288 0.17566
# Poissons Ratio (y) = 0.47289 0.17572
# Poissons Ratio (z) = 0.06879 0.06881
#
# Static dielectric constant tensor:
#      x y z
#    x 1.805770 0.000000 0.000000 
#    y 0.000000 1.805760 0.000000 
#    z 0.000000 0.000000 1.754380 
# 
# From -- ./inp_files/3803.got.cif
#   From: 2010.05.17/outbox.cif.g08.bks.cpg/sg190_2_cif.got.tgz:3803.got - 2010.05.20 12:16:56.
