data_PCOD9586187
_publ_section_title
;
Structure prediction by ZEFSAII (Michael W. Deem and Ramdas Pophale) SiO2 
 PCOD9586187
Probable space group: P -6 2 M
;
_chemical_formula_sum "Si O2"
_cell_formula_units_Z 52
_cell_length_a 13.368478
_cell_length_b 13.368478
_cell_length_c 22.321606
_cell_angle_alpha 90.000000
_cell_angle_beta 90.000000
_cell_angle_gamma 120.000000
_cell_volume 3454.776853
_symmetry_space_group_name_H-M "P -6 2 M"
_symmetry_group_IT_number 189
_symmetry_cell_setting 'hexagonal'
loop_
_space_group_symop_operation_xyz
x,y,z
-x+y,-x,-z
-y,x-y,z
x,y,-z
-x+y,-x,z
-y,x-y,-z
x-y,-y,-z
-x,-x+y,-z
y,x,-z
y,x,z
x-y,-y,z
-x,-x+y,z
loop_
_atom_site_type_symbol
_atom_site_label
_atom_site_fract_x
_atom_site_fract_y
_atom_site_fract_z
Si Si1 0.683461 0.136093 0.635299
Si Si2 0.333334 0.666668 0.928825
Si Si3 0.135025 0.485364 0.846366
Si Si4 0.659619 0.522526 0.431059
Si Si5 0.693619 0.133760 0.776321
O O1 0.796452 0.214238 0.596988
O O2 0.587276 0.164033 0.609740
O O3 0.704668 0.160246 0.705790
O O4 0.631561 0.000000 0.626180
O O5 0.217594 0.557345 0.901735
O O6 0.333334 0.666668 0.000000
O O7 0.142598 0.585113 0.802029
O O8 0.195120 0.422620 0.812529
O O9 0.000000 0.402164 0.860863
O O10 0.658913 0.487554 0.500000
O O11 0.605566 0.605566 0.429504
O O12 0.658634 0.000000 0.784565
#
# Coordination Sequence:
#
# PCOD9586187 Si02
#       5
#    12   4  12  12  12
#     4  10  19  30  45  64  86 111 141 183 230 271
#     4   9  18  30  45  72 102 123 154 188 205 240
#     4   9  17  30  47  66  94 127 150 177 220 260
#     4  10  20  31  43  61  84 112 146 182 225 280
#     4   9  17  28  44  67  89 113 149 186 222 268
#
# _framework density 15.051622999999999
#
# number of rings (size 3 to 8) (size 9 to 14) (size 15 to 20)
#    0.000    2.538    0.000    3.000    0.000    4.615 
#    0.000    0.000    0.000    0.923    0.000    0.000 
#    0.000    0.000    0.000    0.692    0.000    0.923 
#
# Total GULP energy -289814.059760 kJ/mol
# GULP energy per Si atom -5573.347303 kJ/mol
# Density = 1.501736 g / cm^3
# Si number density = 15.051623 Si / 1000 Ang^3
#
#
#
# Elastic Constant Matrix: (Units=GPa)
#
#
# Indices 1 2 3 4 5 6 
#
# 1 73.7828 42.3474 54.9300 -0.0001 0.0000 -0.0001
# 2 42.3474 73.7828 54.9301 0.0000 -0.0001 0.0000
# 3 54.9300 54.9301 111.8018 -0.0002 0.0000 -0.0001
# 4 -0.0001 0.0000 -0.0002 10.8794 0.0000 0.0000
# 5 0.0000 -0.0001 0.0000 0.0000 10.8794 0.0000
# 6 -0.0001 0.0000 -0.0001 0.0000 0.0000 15.7176
#
#
#
# Elastic Compliance Matrix: (Units=1/GPa)
#
#
# Indices 1 2 3 4 5 6 
#
# 1 0.023950 -0.007861 -0.007905 0.000000 0.000000 0.000000
# 2 -0.007861 0.023950 -0.007905 0.000000 0.000000 0.000000
# 3 -0.007905 -0.007905 0.016712 0.000000 0.000000 0.000000
# 4 0.000000 0.000000 0.000000 0.091917 0.000000 0.000000
# 5 0.000000 0.000000 0.000000 0.000000 0.091917 0.000000
# 6 0.000000 0.000000 0.000000 0.000000 0.000000 0.063623
#
#
# Mechanical properties :
#
#
# Convention : Reuss Voigt Hill
#
# Bulk Modulus (GPa) = 57.90132 62.64249 60.27191
# Shear Modulus (GPa) = 13.69234 14.63926 14.16580
#
# Velocity S-wave (km/s) = 3.01938 3.12204 3.07114
# Velocity P-wave (km/s) = 7.12092 7.39628 7.25991
#
# Compressibility (1/GPa) = 0.01727076
#
# Stress axis : x y z
#
# Youngs Moduli (GPa) = 41.75337 41.75339 59.83755
#
# Poissons Ratio (x) = 0.32823 0.47300
# Poissons Ratio (y) = 0.32823 0.47300
# Poissons Ratio (z) = 0.33005 0.33005
#
# Static dielectric constant tensor:
#      x y z
#    x 1.502840 0.000000 0.000000 
#    y 0.000000 1.502840 0.000000 
#    z 0.000000 0.000000 1.484350 
# 
# From -- ./inp_files/3359.got.cif
#   From: 2010.05.17/outbox.cif.g08.bks.cpg/sg189_2_cif.got.tgz:3359.got - 2010.05.20 12:14:34.
