data_PCOD9586898
_publ_section_title
;
Structure prediction by ZEFSAII (Michael W. Deem and Ramdas Pophale) SiO2 
 PCOD9586898
Probable space group: P -6 2 C
;
_chemical_formula_sum "Si O2"
_cell_formula_units_Z 70
_cell_length_a 15.036484
_cell_length_b 15.036484
_cell_length_c 14.823791
_cell_angle_alpha 90.000000
_cell_angle_beta 90.000000
_cell_angle_gamma 120.000000
_cell_volume 2902.568702
_symmetry_space_group_name_H-M "P -6 2 C"
_symmetry_group_IT_number 190
_symmetry_cell_setting 'hexagonal'
loop_
_space_group_symop_operation_xyz
x,y,z
-x+y,-x,1/2-z
-y,x-y,z
x,y,1/2-z
-x+y,-x,z
-y,x-y,1/2-z
x-y,-y,-z
-x,-x+y,-z
y,x,-z
y,x,1/2+z
x-y,-y,1/2+z
-x,-x+y,1/2+z
loop_
_atom_site_type_symbol
_atom_site_label
_atom_site_fract_x
_atom_site_fract_y
_atom_site_fract_z
Si Si1 0.454905 0.575254 0.100615
Si Si2 0.631828 0.809153 0.598026
Si Si3 0.425217 0.232159 0.892194
Si Si4 0.000000 0.000000 0.640700
Si Si5 0.115116 0.689203 0.750000
Si Si6 0.181691 0.967666 0.145498
Si Si7 0.476018 0.587268 0.885336
O O1 0.487119 0.689632 0.128934
O O2 0.350567 0.478492 0.136317
O O3 0.546969 0.556253 0.126168
O O4 0.449545 0.577611 0.991551
O O5 0.597793 0.822378 0.499417
O O6 0.655175 0.897367 0.669017
O O7 0.724341 0.784723 0.592223
O O8 0.535398 0.706296 0.640447
O O9 0.318129 0.141478 0.856297
O O10 0.923489 0.883367 0.612419
O O11 0.000000 0.000000 0.750000
O O12 0.132651 0.620622 0.672392
O O13 0.198926 0.001707 0.250000
#
# Coordination Sequence:
#
# PCOD9586898 Si02
#       7
#    12  12  12   4   6  12  12
#     4  10  21  41  64  92 136 178 228 268 332 410
#     4  11  22  42  66  98 142 179 218 278 356 406
#     4  11  22  42  68  99 136 188 226 276 345 411
#     4   9  24  48  70 101 133 163 233 304 363 403
#     4  12  22  38  64 100 130 170 228 278 320 402
#     4  11  23  45  72  97 133 182 229 293 356 417
#     4  10  22  40  60  94 139 176 214 277 336 409
#
# _framework density 24.116568999999998
#
# number of rings (size 3 to 8) (size 9 to 14) (size 15 to 20)
#    0.000    1.371    4.286    1.371    0.000    1.371 
#    8.743    2.571    0.000    0.000    0.000    0.000 
#    0.000    0.000    0.000    0.000    0.000    0.000 
#
# Total GULP energy -389985.074197 kJ/mol
# GULP energy per Si atom -5571.215346 kJ/mol
# Density = 2.406168 g / cm^3
# Si number density = 24.116569 Si / 1000 Ang^3
#
#
#
# Elastic Constant Matrix: (Units=GPa)
#
#
# Indices 1 2 3 4 5 6 
#
# 1 67.6554 9.4173 -6.9646 0.0000 0.0000 0.0000
# 2 9.4173 67.6554 -6.9646 0.0000 0.0000 0.0000
# 3 -6.9646 -6.9646 73.5120 0.0000 0.0000 0.0000
# 4 0.0000 0.0000 0.0000 7.5247 0.0000 0.0000
# 5 0.0000 0.0000 0.0000 0.0000 7.5247 0.0000
# 6 0.0000 0.0000 0.0000 0.0000 0.0000 29.1190
#
#
#
# Elastic Compliance Matrix: (Units=1/GPa)
#
#
# Indices 1 2 3 4 5 6 
#
# 1 0.015186 -0.001985 0.001251 0.000000 0.000000 0.000000
# 2 -0.001985 0.015186 0.001251 0.000000 0.000000 0.000000
# 3 0.001251 0.001251 0.013840 0.000000 0.000000 0.000000
# 4 0.000000 0.000000 0.000000 0.132895 0.000000 0.000000
# 5 0.000000 0.000000 0.000000 0.000000 0.132895 0.000000
# 6 0.000000 0.000000 0.000000 0.000000 0.000000 0.034342
#
#
# Mechanical properties :
#
#
# Convention : Reuss Voigt Hill
#
# Bulk Modulus (GPa) = 22.10215 22.19986 22.15101
# Shear Modulus (GPa) = 13.95116 23.05601 18.50359
#
# Velocity S-wave (km/s) = 2.40779 3.09532 2.77294
# Velocity P-wave (km/s) = 4.11273 4.69040 4.41103
#
# Compressibility (1/GPa) = 0.04524446
#
# Stress axis : x y z
#
# Youngs Moduli (GPa) = 65.85078 65.85078 72.25325
#
# Poissons Ratio (x) = 0.13072 -0.09036
# Poissons Ratio (y) = 0.13072 -0.09036
# Poissons Ratio (z) = -0.08236 -0.08236
#
# Static dielectric constant tensor:
#      x y z
#    x 1.920080 0.000000 0.000000 
#    y 0.000000 1.920080 0.000000 
#    z 0.000000 0.000000 1.929360 
# 
# From -- ./inp_files/3810.got.cif
#   From: 2010.05.17/outbox.cif.g08.bks.cpg/sg190_2_cif.got.tgz:3810.got - 2010.05.20 12:16:56.
