data_PCOD9586202
_publ_section_title
;
Structure prediction by ZEFSAII (Michael W. Deem and Ramdas Pophale) SiO2 
 PCOD9586202
Probable space group: P -6 2 M
;
_chemical_formula_sum "Si O2"
_cell_formula_units_Z 72
_cell_length_a 23.889979
_cell_length_b 23.889979
_cell_length_c 8.874932
_cell_angle_alpha 90.000000
_cell_angle_beta 90.000000
_cell_angle_gamma 120.000000
_cell_volume 4386.591592
_symmetry_space_group_name_H-M "P -6 2 M"
_symmetry_group_IT_number 189
_symmetry_cell_setting 'hexagonal'
loop_
_space_group_symop_operation_xyz
x,y,z
-x+y,-x,-z
-y,x-y,z
x,y,-z
-x+y,-x,z
-y,x-y,-z
x-y,-y,-z
-x,-x+y,-z
y,x,-z
y,x,z
x-y,-y,z
-x,-x+y,z
loop_
_atom_site_type_symbol
_atom_site_label
_atom_site_fract_x
_atom_site_fract_y
_atom_site_fract_z
Si Si1 0.131561 0.401593 0.171811
Si Si2 0.733189 0.927490 0.817919
Si Si3 0.861381 0.589821 0.172679
Si Si4 0.927354 0.195471 0.320526
Si Si5 0.791464 0.336133 0.182084
Si Si6 0.210777 0.667631 0.679481
O O1 0.201959 0.406738 0.169051
O O2 0.087798 0.339579 0.271677
O O3 0.149397 0.473183 0.221514
O O4 0.107066 0.390028 0.000000
O O5 0.661426 0.913462 0.774141
O O6 0.743427 0.871097 0.751431
O O7 0.785922 0.000000 0.774441
O O8 0.731962 0.922279 0.000000
O O9 0.845299 0.528517 0.273573
O O10 0.875180 0.579504 0.000000
O O11 0.923091 0.189188 0.500000
O O12 0.000000 0.216839 0.272065
O O13 0.800607 0.402432 0.245889
O O14 0.726163 0.277377 0.252529
O O15 0.785475 0.333164 0.000000
O O16 0.216179 0.665970 0.500000
#
# Coordination Sequence:
#
# PCOD9586202 Si02
#       6
#    12  12  12  12  12  12
#     4   8  16  30  48  67  87 119 162 201 235 274
#     4   9  18  33  54  78 100 124 157 194 227 262
#     4   8  15  29  46  65  91 121 153 191 236 280
#     4  10  20  32  49  76 106 131 153 182 226 276
#     4  10  19  31  44  60  87 122 159 201 249 292
#     4  11  20  28  41  64  91 120 158 200 243 292
#
# _framework density 16.413654000000001
#
# number of rings (size 3 to 8) (size 9 to 14) (size 15 to 20)
#    0.000    2.667    0.000    4.833    0.000    8.333 
#    0.000    0.000    0.000    1.333    0.000    2.333 
#    0.000    0.000    0.000    0.000    0.000    0.000 
#
# Total GULP energy -401101.763657 kJ/mol
# GULP energy per Si atom -5570.857829 kJ/mol
# Density = 1.637630 g / cm^3
# Si number density = 16.413654 Si / 1000 Ang^3
#
#
#
# Elastic Constant Matrix: (Units=GPa)
#
#
# Indices 1 2 3 4 5 6 
#
# 1 96.8670 57.4014 40.1739 0.0000 0.0000 0.0000
# 2 57.4014 96.8670 40.1739 0.0000 0.0000 0.0000
# 3 40.1739 40.1739 62.5889 0.0000 0.0000 0.0000
# 4 0.0000 0.0000 0.0000 12.5757 0.0000 0.0000
# 5 0.0000 0.0000 0.0000 0.0000 12.5757 0.0000
# 6 0.0000 0.0000 0.0000 0.0000 0.0000 19.7328
#
#
#
# Elastic Compliance Matrix: (Units=1/GPa)
#
#
# Indices 1 2 3 4 5 6 
#
# 1 0.017538 -0.007801 -0.006250 0.000000 0.000000 0.000000
# 2 -0.007801 0.017538 -0.006250 0.000000 0.000000 0.000000
# 3 -0.006250 -0.006250 0.024001 0.000000 0.000000 0.000000
# 4 0.000000 0.000000 0.000000 0.079518 0.000000 0.000000
# 5 0.000000 0.000000 0.000000 0.000000 0.079518 0.000000
# 6 0.000000 0.000000 0.000000 0.000000 0.000000 0.050677
#
#
# Mechanical properties :
#
#
# Convention : Reuss Voigt Hill
#
# Bulk Modulus (GPa) = 54.12696 59.09129 56.60913
# Shear Modulus (GPa) = 15.84528 16.88174 16.36351
#
# Velocity S-wave (km/s) = 3.11041 3.21053 3.16087
# Velocity P-wave (km/s) = 6.77849 7.05853 6.91993
#
# Compressibility (1/GPa) = 0.01847508
#
# Stress axis : x y z
#
# Youngs Moduli (GPa) = 57.01893 57.01893 41.66508
#
# Poissons Ratio (x) = 0.44478 0.26042
# Poissons Ratio (y) = 0.44478 0.26042
# Poissons Ratio (z) = 0.35638 0.35638
#
# Static dielectric constant tensor:
#      x y z
#    x 1.558890 0.000000 0.000000 
#    y 0.000000 1.558890 0.000000 
#    z 0.000000 0.000000 1.548300 
# 
# From -- ./inp_files/1251.got.cif
#   From: 2010.05.17/outbox.cif.g08.bks.cpg/sg189_1_cif.got.tgz:1251.got - 2010.05.20 12:14:34.
