data_PCOD9586010
_publ_section_title
;
Structure prediction by ZEFSAII (Michael W. Deem and Ramdas Pophale) SiO2 
 PCOD9586010
Probable space group: P -6 C 2
;
_chemical_formula_sum "Si O2"
_cell_formula_units_Z 46
_cell_length_a 11.585192
_cell_length_b 11.585192
_cell_length_c 23.840531
_cell_angle_alpha 90.000000
_cell_angle_beta 90.000000
_cell_angle_gamma 120.000000
_cell_volume 2771.105289
_symmetry_space_group_name_H-M "P -6 C 2"
_symmetry_group_IT_number 188
_symmetry_cell_setting 'hexagonal'
loop_
_space_group_symop_operation_xyz
x,y,z
-x+y,-x,1/2-z
-y,x-y,z
x,y,1/2-z
-x+y,-x,z
-y,x-y,1/2-z
-y,-x,-z
-x+y,y,-z
x,x-y,-z
-x+y,y,1/2+z
x,x-y,1/2+z
-y,-x,1/2+z
loop_
_atom_site_type_symbol
_atom_site_label
_atom_site_fract_x
_atom_site_fract_y
_atom_site_fract_z
Si Si1 0.999875 0.726584 0.066193
Si Si2 0.841710 0.420854 0.750000
Si Si3 0.999873 0.273291 0.433808
Si Si4 0.028466 0.514234 0.858863
Si Si5 0.333334 0.666668 0.817282
O O1 0.002245 0.614267 0.103922
O O2 0.867730 0.735458 0.076770
O O3 0.131629 0.868373 0.077146
O O4 0.001023 0.696213 0.000000
O O5 0.738650 0.261350 0.750000
O O6 0.932847 0.466423 0.804871
O O7 0.002240 0.387976 0.396079
O O8 0.182036 0.591022 0.839328
O O9 0.333334 0.666668 0.750000
#
# Coordination Sequence:
#
# PCOD9586010 Si02
#       5
#    12   6  12  12   4
#     4  10  21  37  59  87 120 159 198 243 293 353
#     4  10  24  40  60  88 110 156 194 248 302 344
#     4  10  21  37  59  87 120 159 198 243 293 353
#     4  12  21  40  61  86 122 150 205 241 304 361
#     4  12  24  39  61  92 115 159 192 253 305 361
#
# _framework density 16.599872999999999
#
# number of rings (size 3 to 8) (size 9 to 14) (size 15 to 20)
#    0.261    1.043    3.913    2.870    0.000    2.087 
#    1.565    0.000    0.000    0.000    0.000    0.000 
#    0.000    0.000    0.000    0.000    0.000    0.000 
#
# Total GULP energy -256871.145697 kJ/mol
# GULP energy per Si atom -5584.155341 kJ/mol
# Density = 1.656209 g / cm^3
# Si number density = 16.599873 Si / 1000 Ang^3
#
#
#
# Elastic Constant Matrix: (Units=GPa)
#
#
# Indices 1 2 3 4 5 6 
#
# 1 166.2394 96.6404 112.6622 0.0001 0.0000 0.0000
# 2 96.6404 166.2398 112.6623 0.0001 0.0000 0.0000
# 3 112.6622 112.6623 136.1872 0.0000 0.0000 0.0000
# 4 0.0001 0.0001 0.0000 33.3168 0.0000 0.0000
# 5 0.0000 0.0000 0.0000 0.0000 33.3168 0.0000
# 6 0.0000 0.0000 0.0000 0.0000 0.0000 34.7994
#
#
#
# Elastic Compliance Matrix: (Units=1/GPa)
#
#
# Indices 1 2 3 4 5 6 
#
# 1 0.013722 -0.000646 -0.010817 0.000000 0.000000 0.000000
# 2 -0.000646 0.013722 -0.010817 0.000000 0.000000 0.000000
# 3 -0.010817 -0.010817 0.025240 0.000000 0.000000 0.000000
# 4 0.000000 0.000000 0.000000 0.030015 0.000000 0.000000
# 5 0.000000 0.000000 0.000000 0.000000 0.030015 0.000000
# 6 0.000000 0.000000 0.000000 0.000000 0.000000 0.028736
#
#
# Mechanical properties :
#
#
# Convention : Reuss Voigt Hill
#
# Bulk Modulus (GPa) = 123.10475 123.62181 123.36328
# Shear Modulus (GPa) = 26.49467 30.06670 28.28068
#
# Velocity S-wave (km/s) = 3.99943 4.26051 4.13203
# Velocity P-wave (km/s) = 9.77999 9.94162 9.86114
#
# Compressibility (1/GPa) = 0.00812316
#
# Stress axis : x y z
#
# Youngs Moduli (GPa) = 72.87647 72.87674 39.62010
#
# Poissons Ratio (x) = 0.04709 0.42857
# Poissons Ratio (y) = 0.04709 0.42857
# Poissons Ratio (z) = 0.78830 0.78830
#
# Static dielectric constant tensor:
#      x y z
#    x 1.529580 0.000000 0.000000 
#    y 0.000000 1.529580 0.000000 
#    z 0.000000 0.000000 1.529140 
# 
# From -- ./inp_files/3594.got.cif
#   From: 2010.05.17/outbox.cif.g08.bks.cpg/sg188_2_cif.got.tgz:3594.got - 2010.05.20 12:11:46.
