data_PCOD9586929
_publ_section_title
;
Structure prediction by ZEFSAII (Michael W. Deem and Ramdas Pophale) SiO2 
 PCOD9586929
Probable space group: P -6 2 C
;
_chemical_formula_sum "Si O2"
_cell_formula_units_Z 36
_cell_length_a 10.003921
_cell_length_b 10.003921
_cell_length_c 18.101979
_cell_angle_alpha 90.000000
_cell_angle_beta 90.000000
_cell_angle_gamma 120.000000
_cell_volume 1568.906981
_symmetry_space_group_name_H-M "P -6 2 C"
_symmetry_group_IT_number 190
_symmetry_cell_setting 'hexagonal'
loop_
_space_group_symop_operation_xyz
x,y,z
-x+y,-x,1/2-z
-y,x-y,z
x,y,1/2-z
-x+y,-x,z
-y,x-y,1/2-z
x-y,-y,-z
-x,-x+y,-z
y,x,-z
y,x,1/2+z
x-y,-y,1/2+z
-x,-x+y,1/2+z
loop_
_atom_site_type_symbol
_atom_site_label
_atom_site_fract_x
_atom_site_fract_y
_atom_site_fract_z
Si Si1 0.417929 0.014196 0.168240
Si Si2 0.736405 0.113508 0.610586
Si Si3 0.795369 0.631913 0.459352
O O1 0.438186 0.080230 0.250000
O O2 0.239045 0.888112 0.152480
O O3 0.513574 0.926499 0.158000
O O4 0.466393 0.134286 0.101241
O O5 0.728992 0.179940 0.529663
O O6 0.726576 0.953711 0.586443
O O7 0.742198 0.742198 0.500000
#
# Coordination Sequence:
#
# PCOD9586929 Si02
#       3
#    12  12  12
#     4  11  23  41  67 101 134 174 220 277 343 396
#     4  10  22  42  67  94 135 170 223 274 332 399
#     4   9  22  42  65  93 127 176 228 270 319 405
#
# _framework density 22.945909
#
# number of rings (size 3 to 8) (size 9 to 14) (size 15 to 20)
#    0.000    2.000    0.000    1.667   14.000    2.667 
#   54.000    0.000    0.000    0.000    0.000    0.000 
#    0.000    0.000    0.000    0.000    0.000    0.000 
#
# Total GULP energy -201025.917867 kJ/mol
# GULP energy per Si atom -5584.053274 kJ/mol
# Density = 2.289368 g / cm^3
# Si number density = 22.945909 Si / 1000 Ang^3
#
#
#
# Elastic Constant Matrix: (Units=GPa)
#
#
# Indices 1 2 3 4 5 6 
#
# 1 45.6542 -3.0100 13.1881 0.0000 0.0000 0.0000
# 2 -3.0100 45.6542 13.1881 0.0000 0.0000 0.0000
# 3 13.1881 13.1881 141.4321 0.0000 0.0000 0.0000
# 4 0.0000 0.0000 0.0000 23.0293 0.0000 0.0000
# 5 0.0000 0.0000 0.0000 0.0000 23.0293 0.0000
# 6 0.0000 0.0000 0.0000 0.0000 0.0000 24.3321
#
#
#
# Elastic Compliance Matrix: (Units=1/GPa)
#
#
# Indices 1 2 3 4 5 6 
#
# 1 0.022717 0.002168 -0.002320 0.000000 0.000000 0.000000
# 2 0.002168 0.022717 -0.002320 0.000000 0.000000 0.000000
# 3 -0.002320 -0.002320 0.007503 0.000000 0.000000 0.000000
# 4 0.000000 0.000000 0.000000 0.043423 0.000000 0.000000
# 5 0.000000 0.000000 0.000000 0.000000 0.043423 0.000000
# 6 0.000000 0.000000 0.000000 0.000000 0.000000 0.041098
#
#
# Mechanical properties :
#
#
# Convention : Reuss Voigt Hill
#
# Bulk Modulus (GPa) = 20.83697 31.05253 25.94475
# Shear Modulus (GPa) = 24.77404 28.03642 26.40523
#
# Velocity S-wave (km/s) = 3.28940 3.49929 3.39597
# Velocity P-wave (km/s) = 4.85051 5.46708 5.16800
#
# Compressibility (1/GPa) = 0.04799163
#
# Stress axis : x y z
#
# Youngs Moduli (GPa) = 44.01981 44.01981 133.27504
#
# Poissons Ratio (x) = -0.09544 0.30926
# Poissons Ratio (y) = -0.09544 0.30926
# Poissons Ratio (z) = 0.10215 0.10215
#
# Static dielectric constant tensor:
#      x y z
#    x 1.892250 0.000000 0.000000 
#    y 0.000000 1.892250 0.000000 
#    z 0.000000 0.000000 1.842560 
# 
# From -- ./inp_files/2341.got.cif
#   From: 2010.05.17/outbox.cif.g08.bks.cpg/sg190_2_cif.got.tgz:2341.got - 2010.05.20 12:16:56.
