data_PCOD9586425
_publ_section_title
;
Structure prediction by ZEFSAII (Michael W. Deem and Ramdas Pophale) SiO2 
 PCOD9586425
Probable space group: P -6 2 M
;
_chemical_formula_sum "Si O2"
_cell_formula_units_Z 90
_cell_length_a 16.012335
_cell_length_b 16.012335
_cell_length_c 21.286876
_cell_angle_alpha 90.000000
_cell_angle_beta 90.000000
_cell_angle_gamma 120.000000
_cell_volume 4726.633157
_symmetry_space_group_name_H-M "P -6 2 M"
_symmetry_group_IT_number 189
_symmetry_cell_setting 'hexagonal'
loop_
_space_group_symop_operation_xyz
x,y,z
-x+y,-x,-z
-y,x-y,z
x,y,-z
-x+y,-x,z
-y,x-y,-z
x-y,-y,-z
-x,-x+y,-z
y,x,-z
y,x,z
x-y,-y,z
-x,-x+y,z
loop_
_atom_site_type_symbol
_atom_site_label
_atom_site_fract_x
_atom_site_fract_y
_atom_site_fract_z
Si Si1 0.630010 0.803793 0.171161
Si Si2 0.112979 0.351771 0.685907
Si Si3 0.115678 0.479268 0.930321
Si Si4 0.107262 0.888141 0.068881
Si Si5 0.692819 0.237087 0.500000
Si Si6 0.115514 0.538191 0.704654
Si Si7 0.512571 0.395738 0.167084
Si Si8 0.697899 0.116011 0.381527
O O1 0.657427 0.779964 0.238771
O O2 0.579922 0.715831 0.122096
O O3 0.718792 0.880742 0.129721
O O4 0.558320 0.844077 0.181517
O O5 0.142270 0.463698 0.674493
O O6 0.196906 0.345822 0.648185
O O7 0.000000 0.281848 0.668424
O O8 0.149376 0.582882 0.899174
O O9 0.000000 0.425482 0.935269
O O10 0.154541 0.482804 0.000000
O O11 0.000000 0.870922 0.068907
O O12 0.185223 0.000000 0.072013
O O13 0.119332 0.851508 0.000000
O O14 0.589027 0.234948 0.500000
O O15 0.704569 0.181125 0.441008
O O16 0.151660 0.563108 0.775860
O O17 0.137109 0.633459 0.667829
O O18 0.000000 0.475988 0.708769
O O19 0.452118 0.452118 0.167320
O O20 0.639401 0.000000 0.394183
#
# Coordination Sequence:
#
# PCOD9586425 Si02
#       8
#    12  12  12  12   6  12  12  12
#     4  12  21  34  56  82 109 146 193 251 303 370
#     4  11  22  37  60  91 125 165 212 257 305 370
#     4  10  21  37  53  70 101 146 193 246 312 378
#     4  10  21  36  54  76 104 141 188 246 311 375
#     4  10  23  42  66 102 137 170 208 250 296 362
#     4   9  18  35  57  83 115 153 201 249 302 359
#     4  10  20  36  54  77 106 141 188 244 307 368
#     4  11  22  40  66  97 135 175 209 253 307 363
#
# _framework density 19.041038
#
# number of rings (size 3 to 8) (size 9 to 14) (size 15 to 20)
#    0.133    1.467    2.667    3.133    0.000    3.200 
#    1.600    3.667    0.000    0.267    0.000    0.000 
#    0.000    0.000    0.000    0.000    0.000    0.000 
#
# Total GULP energy -501544.339963 kJ/mol
# GULP energy per Si atom -5572.714888 kJ/mol
# Density = 1.899770 g / cm^3
# Si number density = 19.041038 Si / 1000 Ang^3
#
#
#
# Elastic Constant Matrix: (Units=GPa)
#
#
# Indices 1 2 3 4 5 6 
#
# 1 63.3452 13.4718 29.8353 0.0000 0.0000 0.0000
# 2 13.4718 63.3452 29.8353 0.0000 0.0000 0.0000
# 3 29.8353 29.8353 103.9131 0.0000 0.0000 0.0000
# 4 0.0000 0.0000 0.0000 23.3399 0.0000 0.0000
# 5 0.0000 0.0000 0.0000 0.0000 23.3399 0.0000
# 6 0.0000 0.0000 0.0000 0.0000 0.0000 24.9367
#
#
#
# Elastic Compliance Matrix: (Units=1/GPa)
#
#
# Indices 1 2 3 4 5 6 
#
# 1 0.018403 -0.001648 -0.004811 0.000000 0.000000 0.000000
# 2 -0.001648 0.018403 -0.004811 0.000000 0.000000 0.000000
# 3 -0.004811 -0.004811 0.012386 0.000000 0.000000 0.000000
# 4 0.000000 0.000000 0.000000 0.042845 0.000000 0.000000
# 5 0.000000 0.000000 0.000000 0.000000 0.042845 0.000000
# 6 0.000000 0.000000 0.000000 0.000000 0.000000 0.040102
#
#
# Mechanical properties :
#
#
# Convention : Reuss Voigt Hill
#
# Bulk Modulus (GPa) = 37.51919 41.87647 39.69783
# Shear Modulus (GPa) = 24.22410 24.82068 24.52239
#
# Velocity S-wave (km/s) = 3.57067 3.61437 3.59258
# Velocity P-wave (km/s) = 6.06191 6.28162 6.17274
#
# Compressibility (1/GPa) = 0.02665302
#
# Stress axis : x y z
#
# Youngs Moduli (GPa) = 54.33959 54.33959 80.73729
#
# Poissons Ratio (x) = 0.08955 0.38840
# Poissons Ratio (y) = 0.08955 0.38840
# Poissons Ratio (z) = 0.26141 0.26141
#
# Static dielectric constant tensor:
#      x y z
#    x 1.680260 0.000000 0.000000 
#    y 0.000000 1.680260 0.000000 
#    z 0.000000 0.000000 1.697770 
# 
# From -- ./inp_files/3271.got.cif
#   From: 2010.05.17/outbox.cif.g08.bks.cpg/sg189_2_cif.got.tgz:3271.got - 2010.05.20 12:14:34.
