data_PCOD9586616
_publ_section_title
;
Structure prediction by ZEFSAII (Michael W. Deem and Ramdas Pophale) SiO2 
 PCOD9586616
Probable space group: P -6 2 C
;
_chemical_formula_sum "Si O2"
_cell_formula_units_Z 72
_cell_length_a 15.852372
_cell_length_b 15.852372
_cell_length_c 16.061458
_cell_angle_alpha 90.000000
_cell_angle_beta 90.000000
_cell_angle_gamma 120.000000
_cell_volume 3495.458163
_symmetry_space_group_name_H-M "P -6 2 C"
_symmetry_group_IT_number 190
_symmetry_cell_setting 'hexagonal'
loop_
_space_group_symop_operation_xyz
x,y,z
-x+y,-x,1/2-z
-y,x-y,z
x,y,1/2-z
-x+y,-x,z
-y,x-y,1/2-z
x-y,-y,-z
-x,-x+y,-z
y,x,-z
y,x,1/2+z
x-y,-y,1/2+z
-x,-x+y,1/2+z
loop_
_atom_site_type_symbol
_atom_site_label
_atom_site_fract_x
_atom_site_fract_y
_atom_site_fract_z
Si Si1 0.660348 0.902951 0.657053
Si Si2 0.494611 0.447444 0.090480
Si Si3 0.594224 0.154393 0.840780
Si Si4 0.863083 0.649842 0.658127
Si Si5 0.883624 0.119251 0.497351
Si Si6 0.354517 0.781762 0.985257
O O1 0.652191 0.862456 0.750000
O O2 0.562890 0.904245 0.631146
O O3 0.699557 0.860091 0.586030
O O4 0.736223 0.019400 0.661014
O O5 0.480352 0.519972 0.149146
O O6 0.445446 0.445446 0.000000
O O7 0.606043 0.484175 0.067295
O O8 0.588865 0.191068 0.750000
O O9 0.698533 0.159716 0.851273
O O10 0.567607 0.201276 0.916454
O O11 0.825500 0.657618 0.750000
O O12 0.838230 0.690961 0.576490
O O13 0.000000 0.167138 0.500000
O O14 0.830186 0.000000 0.500000
O O15 0.254103 0.687057 0.966578
#
# Coordination Sequence:
#
# PCOD9586616 Si02
#       6
#    12  12  12  12  12  12
#     4   9  16  27  46  68  85 108 155 211 246 274
#     4   9  15  29  52  73  93 123 166 206 239 288
#     4   9  16  29  53  77  94 121 163 210 252 290
#     4   8  15  28  46  68  88 110 152 207 248 278
#     4  10  18  27  39  59  89 123 155 193 247 306
#     4   9  19  30  45  75 108 133 155 191 250 308
#
# _framework density 20.598158999999999
#
# number of rings (size 3 to 8) (size 9 to 14) (size 15 to 20)
#    0.333    2.667    0.000    5.167    0.000    1.333 
#    0.000    0.000    0.000   18.000    0.000    0.000 
#    0.000    0.000    0.000    0.000    0.000    0.000 
#
# Total GULP energy -400973.747200 kJ/mol
# GULP energy per Si atom -5569.079822 kJ/mol
# Density = 2.055128 g / cm^3
# Si number density = 20.598159 Si / 1000 Ang^3
#
#
#
# Elastic Constant Matrix: (Units=GPa)
#
#
# Indices 1 2 3 4 5 6 
#
# 1 30.6147 -7.5498 14.9278 0.0000 0.0000 0.0000
# 2 -7.5498 30.6147 14.9278 0.0000 0.0000 0.0000
# 3 14.9278 14.9278 110.4028 0.0000 0.0000 0.0000
# 4 0.0000 0.0000 0.0000 3.4673 0.0000 0.0000
# 5 0.0000 0.0000 0.0000 0.0000 3.4673 0.0000
# 6 0.0000 0.0000 0.0000 0.0000 0.0000 19.0823
#
#
#
# Elastic Compliance Matrix: (Units=1/GPa)
#
#
# Indices 1 2 3 4 5 6 
#
# 1 0.039378 0.013176 -0.007106 0.000000 0.000000 0.000000
# 2 0.013176 0.039378 -0.007106 0.000000 0.000000 0.000000
# 3 -0.007106 -0.007106 0.010979 0.000000 0.000000 0.000000
# 4 0.000000 0.000000 0.000000 0.288409 0.000000 0.000000
# 5 0.000000 0.000000 0.000000 0.000000 0.288409 0.000000
# 6 0.000000 0.000000 0.000000 0.000000 0.000000 0.052405
#
#
# Mechanical properties :
#
#
# Convention : Reuss Voigt Hill
#
# Bulk Modulus (GPa) = 11.40725 24.02710 17.71718
# Shear Modulus (GPa) = 6.66442 15.15846 10.91144
#
# Velocity S-wave (km/s) = 1.80069 2.71572 2.30408
# Velocity P-wave (km/s) = 3.14218 4.63934 3.96212
#
# Compressibility (1/GPa) = 0.08766356
#
# Stress axis : x y z
#
# Youngs Moduli (GPa) = 25.39478 25.39478 91.07988
#
# Poissons Ratio (x) = -0.33460 0.64721
# Poissons Ratio (y) = -0.33460 0.64721
# Poissons Ratio (z) = 0.18045 0.18045
#
# Static dielectric constant tensor:
#      x y z
#    x 1.743750 0.000000 0.000000 
#    y 0.000000 1.743750 0.000000 
#    z 0.000000 0.000000 1.762690 
# 
# From -- ./inp_files/3873.got.cif
#   From: 2010.05.17/outbox.cif.g08.bks.cpg/sg190_2_cif.got.tgz:3873.got - 2010.05.20 12:16:56.
