data_PCOD9586099
_publ_section_title
;
Structure prediction by ZEFSAII (Michael W. Deem and Ramdas Pophale) SiO2 
 PCOD9586099
Probable space group: P -6 C 2
;
_chemical_formula_sum "Si O2"
_cell_formula_units_Z 72
_cell_length_a 24.000000
_cell_length_b 24.000000
_cell_length_c 9.000000
_cell_angle_alpha 90.000000
_cell_angle_beta 90.000000
_cell_angle_gamma 120.000000
_cell_volume 4489.475693
_symmetry_space_group_name_H-M "P -6 C 2"
_symmetry_group_IT_number 188
_symmetry_cell_setting 'hexagonal'
loop_
_space_group_symop_operation_xyz
x,y,z
-x+y,-x,1/2-z
-y,x-y,z
x,y,1/2-z
-x+y,-x,z
-y,x-y,1/2-z
-y,-x,-z
-x+y,y,-z
x,x-y,-z
-x+y,y,1/2+z
x,x-y,1/2+z
-y,-x,1/2+z
loop_
_atom_site_type_symbol
_atom_site_label
_atom_site_fract_x
_atom_site_fract_y
_atom_site_fract_z
Si Si1 0.933431 0.743839 0.929412
Si Si2 0.202155 0.277230 0.067980
Si Si3 0.589533 0.666667 0.928954
Si Si4 0.457892 0.666667 0.931160
Si Si5 0.591592 0.056104 0.432020
Si Si6 0.410507 0.143742 0.429412
O O1 0.937567 0.754232 0.750000
O O2 0.903987 0.666666 0.954778
O O3 0.879441 0.758882 0.000000
O O4 0.004938 0.782642 0.003583
O O5 0.197294 0.273071 0.250000
O O6 0.266623 0.345851 0.026554
O O7 0.136949 0.273899 0.000000
O O8 0.591215 0.666667 0.750000
O O9 0.524025 0.666667 0.970870
O O10 0.587439 0.599957 0.973446
O O11 0.452869 0.666667 0.750000
O O12 0.396554 0.603447 0.000000
O O13 0.459774 0.729887 0.000000
O O14 0.590889 0.060262 0.250000
O O15 0.529717 0.059434 0.500000
O O16 0.661729 0.111038 0.496417
O O17 0.420900 0.150000 0.250000
O O18 0.425550 0.212775 0.500000
#
# Coordination Sequence:
#
# PCOD9586099 Si02
#       6
#    12  12  12  12  12  12
#     4  10  20  35  57  85 114 147 186 230 279 331
#     4  11  21  36  56  83 117 153 190 234 283 336
#     4   9  20  36  55  78 109 144 184 231 284 335
#     4  11  22  38  55  74  97 132 179 231 284 339
#     4  11  21  36  56  83 117 153 190 234 283 336
#     4  10  20  35  57  85 114 147 186 230 279 331
#
# _framework density 16.037507000000002
#
# number of rings (size 3 to 8) (size 9 to 14) (size 15 to 20)
#    0.000    1.667    1.667    3.667    0.000    1.333 
#    0.000    5.000    0.000    0.667    0.000    4.667 
#    0.000    0.000    0.000    0.000    0.000    0.000 
#
# Total GULP energy -401617.656816 kJ/mol
# GULP energy per Si atom -5578.023011 kJ/mol
# Density = 1.600101 g / cm^3
# Si number density = 16.037507 Si / 1000 Ang^3
#
#
#
# Elastic Constant Matrix: (Units=GPa)
#
#
# Indices 1 2 3 4 5 6 
#
# 1 161.1442 83.7214 55.5565 0.0000 0.0000 0.0000
# 2 83.7214 161.1442 55.5565 0.0000 0.0000 0.0000
# 3 55.5565 55.5565 107.8222 0.0000 0.0000 0.0000
# 4 0.0000 0.0000 0.0000 33.0723 0.0000 0.0000
# 5 0.0000 0.0000 0.0000 0.0000 33.0723 0.0000
# 6 0.0000 0.0000 0.0000 0.0000 0.0000 38.7114
#
#
#
# Elastic Compliance Matrix: (Units=1/GPa)
#
#
# Indices 1 2 3 4 5 6 
#
# 1 0.009123 -0.003793 -0.002746 0.000000 0.000000 0.000000
# 2 -0.003793 0.009123 -0.002746 0.000000 0.000000 0.000000
# 3 -0.002746 -0.002746 0.012105 0.000000 0.000000 0.000000
# 4 0.000000 0.000000 0.000000 0.030237 0.000000 0.000000
# 5 0.000000 0.000000 0.000000 0.000000 0.030237 0.000000
# 6 0.000000 0.000000 0.000000 0.000000 0.000000 0.025832
#
#
# Mechanical properties :
#
#
# Convention : Reuss Voigt Hill
#
# Bulk Modulus (GPa) = 84.89408 91.08661 87.99034
# Shear Modulus (GPa) = 35.93121 36.65626 36.29374
#
# Velocity S-wave (km/s) = 4.73847 4.78604 4.76232
# Velocity P-wave (km/s) = 9.10973 9.35205 9.23169
#
# Compressibility (1/GPa) = 0.01177938
#
# Stress axis : x y z
#
# Youngs Moduli (GPa) = 109.61186 109.61186 82.61228
#
# Poissons Ratio (x) = 0.41576 0.22689
# Poissons Ratio (y) = 0.41576 0.22689
# Poissons Ratio (z) = 0.30104 0.30104
#
# Static dielectric constant tensor:
#      x y z
#    x 1.535220 0.000000 0.000000 
#    y 0.000000 1.535220 0.000000 
#    z 0.000000 0.000000 1.545180 
# 
# From -- ./inp_files/1054.got.cif
#   From: 2010.05.17/outbox.ucp.g08.bks.cvg/sg188_1_cif.got.tgz:1054.got - 2010.06.11 15:21:59.
