data_PCOD9586661
_publ_section_title
;
Structure prediction by ZEFSAII (Michael W. Deem and Ramdas Pophale) SiO2 
 PCOD9586661
Probable space group: P -6 2 C
;
_chemical_formula_sum "Si O2"
_cell_formula_units_Z 48
_cell_length_a 11.952936
_cell_length_b 11.952936
_cell_length_c 14.122197
_cell_angle_alpha 90.000000
_cell_angle_beta 90.000000
_cell_angle_gamma 120.000000
_cell_volume 1747.358776
_symmetry_space_group_name_H-M "P -6 2 C"
_symmetry_group_IT_number 190
_symmetry_cell_setting 'hexagonal'
loop_
_space_group_symop_operation_xyz
x,y,z
-x+y,-x,1/2-z
-y,x-y,z
x,y,1/2-z
-x+y,-x,z
-y,x-y,1/2-z
x-y,-y,-z
-x,-x+y,-z
y,x,-z
y,x,1/2+z
x-y,-y,1/2+z
-x,-x+y,1/2+z
loop_
_atom_site_type_symbol
_atom_site_label
_atom_site_fract_x
_atom_site_fract_y
_atom_site_fract_z
Si Si1 0.098875 0.685801 0.859510
Si Si2 0.986380 0.853568 0.612558
Si Si3 0.790006 0.302462 0.864781
Si Si4 0.350868 0.936217 0.633562
O O1 0.129900 0.680986 0.750000
O O2 0.222006 0.811779 0.901982
O O3 0.079614 0.552221 0.896541
O O4 0.988198 0.726104 0.858528
O O5 0.000000 0.858911 0.500000
O O6 0.875339 0.885582 0.643550
O O7 0.797053 0.439412 0.890552
O O8 0.792595 0.297831 0.750000
O O9 0.919832 0.309077 0.899011
O O10 0.345152 0.936316 0.750000
#
# Coordination Sequence:
#
# PCOD9586661 Si02
#       4
#    12  12  12  12
#     4  10  19  30  51  80 110 139 173 214 262 326
#     4   8  18  37  56  73  99 143 178 225 281 321
#     4   7  12  23  37  55  84 127 162 185 232 294
#     4   9  17  28  42  71 108 137 161 202 260 310
#
# _framework density 27.470030000000001
#
# number of rings (size 3 to 8) (size 9 to 14) (size 15 to 20)
#    1.000    2.500    0.000    0.500    0.000    5.000 
#    0.000    5.000    5.500    0.000    0.000    0.000 
#    0.000    0.000    0.000    0.000    0.000    0.000 
#
# Total GULP energy -267855.047046 kJ/mol
# GULP energy per Si atom -5580.313480 kJ/mol
# Density = 2.740751 g / cm^3
# Si number density = 27.470030 Si / 1000 Ang^3
#
#
#
# Elastic Constant Matrix: (Units=GPa)
#
#
# Indices 1 2 3 4 5 6 
#
# 1 98.6585 14.2159 -1.6548 0.0000 0.0000 0.0000
# 2 14.2159 98.6585 -1.6548 0.0000 0.0000 0.0000
# 3 -1.6548 -1.6548 110.3368 0.0000 0.0000 0.0000
# 4 0.0000 0.0000 0.0000 25.1841 0.0000 0.0000
# 5 0.0000 0.0000 0.0000 0.0000 25.1841 0.0000
# 6 0.0000 0.0000 0.0000 0.0000 0.0000 42.2213
#
#
#
# Elastic Compliance Matrix: (Units=1/GPa)
#
#
# Indices 1 2 3 4 5 6 
#
# 1 0.010353 -0.001490 0.000133 0.000000 0.000000 0.000000
# 2 -0.001490 0.010353 0.000133 0.000000 0.000000 0.000000
# 3 0.000133 0.000133 0.009067 0.000000 0.000000 0.000000
# 4 0.000000 0.000000 0.000000 0.039708 0.000000 0.000000
# 5 0.000000 0.000000 0.000000 0.000000 0.039708 0.000000
# 6 0.000000 0.000000 0.000000 0.000000 0.000000 0.023685
#
#
# Mechanical properties :
#
#
# Convention : Reuss Voigt Hill
#
# Bulk Modulus (GPa) = 36.59590 36.60738 36.60164
# Shear Modulus (GPa) = 34.61917 38.30107 36.46012
#
# Velocity S-wave (km/s) = 3.55385 3.73806 3.64712
# Velocity P-wave (km/s) = 5.49462 5.65562 5.57570
#
# Compressibility (1/GPa) = 0.02732547
#
# Stress axis : x y z
#
# Youngs Moduli (GPa) = 96.59196 96.59196 110.28827
#
# Poissons Ratio (x) = 0.14388 -0.01466
# Poissons Ratio (y) = 0.14388 -0.01466
# Poissons Ratio (z) = -0.01284 -0.01284
#
# Static dielectric constant tensor:
#      x y z
#    x 2.164050 0.000000 0.000000 
#    y 0.000000 2.164050 0.000000 
#    z 0.000000 0.000000 2.095760 
# 
# From -- ./inp_files/4124.got.cif
#   From: 2010.05.17/outbox.cif.g08.bks.cpg/sg190_3_cif.got.tgz:4124.got - 2010.05.20 12:16:56.
