data_PCOD9586556
_publ_section_title
;
Structure prediction by ZEFSAII (Michael W. Deem and Ramdas Pophale) SiO2 
 PCOD9586556
Probable space group: P -6 2 M
;
_chemical_formula_sum "Si O2"
_cell_formula_units_Z 72
_cell_length_a 24.313412
_cell_length_b 24.313412
_cell_length_c 8.567652
_cell_angle_alpha 90.000000
_cell_angle_beta 90.000000
_cell_angle_gamma 120.000000
_cell_volume 4386.157966
_symmetry_space_group_name_H-M "P -6 2 M"
_symmetry_group_IT_number 189
_symmetry_cell_setting 'hexagonal'
loop_
_space_group_symop_operation_xyz
x,y,z
-x+y,-x,-z
-y,x-y,z
x,y,-z
-x+y,-x,z
-y,x-y,-z
x-y,-y,-z
-x,-x+y,-z
y,x,-z
y,x,z
x-y,-y,z
-x,-x+y,z
loop_
_atom_site_type_symbol
_atom_site_label
_atom_site_fract_x
_atom_site_fract_y
_atom_site_fract_z
Si Si1 0.480867 0.271869 0.812052
Si Si2 0.853049 0.336172 0.811806
Si Si3 0.409532 0.409532 0.186665
Si Si4 0.194085 0.333146 0.189962
Si Si5 0.875482 0.468409 0.315447
Si Si6 0.000000 0.718337 0.809337
Si Si7 0.928052 0.264555 0.809443
O O1 0.497472 0.217553 0.769169
O O2 0.406643 0.243198 0.768197
O O3 0.523885 0.340099 0.737834
O O4 0.484376 0.278410 0.000000
O O5 0.869058 0.402945 0.742554
O O6 0.901140 0.311229 0.764794
O O7 0.855488 0.340912 0.000000
O O8 0.471916 0.409543 0.243898
O O9 0.345846 0.345846 0.237803
O O10 0.409101 0.409101 0.000000
O O11 0.222257 0.289012 0.242956
O O12 0.124422 0.318028 0.241922
O O13 0.192658 0.331655 0.000000
O O14 0.880668 0.471790 0.500000
O O15 0.000000 0.719565 0.000000
O O16 0.000000 0.291641 0.756023
O O17 0.928358 0.263784 0.000000
#
# Coordination Sequence:
#
# PCOD9586556 Si02
#       7
#    12  12   6  12  12   6  12
#     4   9  17  34  54  69  87 120 166 207 243 293
#     4   9  19  34  53  72  90 123 171 208 241 297
#     4  11  21  35  55  71  93 131 169 204 247 296
#     4   8  13  23  42  68  92 113 150 196 237 281
#     4  12  24  35  49  74 105 128 156 204 265 317
#     4   9  14  23  45  71  91 117 151 196 241 276
#     4   8  14  25  43  68  94 118 150 198 245 279
#
# _framework density 16.415278000000001
#
# number of rings (size 3 to 8) (size 9 to 14) (size 15 to 20)
#    0.000    2.667    1.667    3.750    1.167    0.667 
#    1.000    0.000    0.000    0.000    0.000    0.000 
#    0.833    0.000    2.500    0.000    0.000    0.000 
#
# Total GULP energy -401338.167886 kJ/mol
# GULP energy per Si atom -5574.141221 kJ/mol
# Density = 1.637792 g / cm^3
# Si number density = 16.415278 Si / 1000 Ang^3
#
#
#
# Elastic Constant Matrix: (Units=GPa)
#
#
# Indices 1 2 3 4 5 6 
#
# 1 52.8779 151.0616 20.8638 0.0000 0.0000 0.0000
# 2 151.0616 52.8779 20.8638 0.0000 0.0000 0.0000
# 3 20.8638 20.8638 17.9598 0.0000 0.0000 0.0000
# 4 0.0000 0.0000 0.0000 -4.5946 0.0000 0.0000
# 5 0.0000 0.0000 0.0000 0.0000 -4.5946 0.0000
# 6 0.0000 0.0000 0.0000 0.0000 0.0000 -49.0919
#
#
#
# Elastic Compliance Matrix: (Units=1/GPa)
#
#
# Indices 1 2 3 4 5 6 
#
# 1 -0.001876 0.008309 -0.007472 0.000000 0.000000 0.000000
# 2 0.008309 -0.001876 -0.007472 0.000000 0.000000 0.000000
# 3 -0.007472 -0.007472 0.073041 0.000000 0.000000 0.000000
# 4 0.000000 0.000000 0.000000 -0.217647 0.000000 0.000000
# 5 0.000000 0.000000 0.000000 0.000000 -0.217647 0.000000
# 6 0.000000 0.000000 0.000000 0.000000 0.000000 -0.020370
#
#
# Mechanical properties :
#
#
# Convention : Reuss Voigt Hill
#
# Bulk Modulus (GPa) = 17.85196 56.58826 37.22011
# Shear Modulus (GPa) = -14.10715 -16.26112 -15.18414
#
# Velocity S-wave (km/s) = -2.93472 -3.15081 -3.04468
# Velocity P-wave (km/s) = 0.76460 4.61638 3.21919
#
# Compressibility (1/GPa) = 0.05601626
#
# Stress axis : x y z
#
# Youngs Moduli (GPa) = -532.95521 -532.95520 13.69089
#
# Poissons Ratio (x) = 4.42814 0.10230
# Poissons Ratio (y) = 4.42814 0.10230
# Poissons Ratio (z) = -3.98246 -3.98246
#
# Static dielectric constant tensor:
#      x y z
#    x 1.551780 0.000000 0.000000 
#    y 0.000000 1.551780 0.000000 
#    z 0.000000 0.000000 1.542810 
# 
# From -- ./inp_files/1311.got.cif
#   From: 2010.05.17/outbox.cif.g08.bks.cpg/sg189_1_cif.got.tgz:1311.got - 2010.05.20 12:14:34.
