data_PCOD9586227
_publ_section_title
;
Structure prediction by ZEFSAII (Michael W. Deem and Ramdas Pophale) SiO2 
 PCOD9586227
Probable space group: P -6 2 M
;
_chemical_formula_sum "Si O2"
_cell_formula_units_Z 84
_cell_length_a 15.320236
_cell_length_b 15.320236
_cell_length_c 22.655620
_cell_angle_alpha 90.000000
_cell_angle_beta 90.000000
_cell_angle_gamma 120.000000
_cell_volume 4605.083340
_symmetry_space_group_name_H-M "P -6 2 M"
_symmetry_group_IT_number 189
_symmetry_cell_setting 'hexagonal'
loop_
_space_group_symop_operation_xyz
x,y,z
-x+y,-x,-z
-y,x-y,z
x,y,-z
-x+y,-x,z
-y,x-y,-z
x-y,-y,-z
-x,-x+y,-z
y,x,-z
y,x,z
x-y,-y,z
-x,-x+y,z
loop_
_atom_site_type_symbol
_atom_site_label
_atom_site_fract_x
_atom_site_fract_y
_atom_site_fract_z
Si Si1 0.884128 0.393393 0.361830
Si Si2 0.543429 0.230172 0.245924
Si Si3 0.880778 0.554219 0.432285
Si Si4 0.116889 0.882626 0.930196
Si Si5 0.810982 0.261119 0.121731
Si Si6 0.476538 0.883610 0.930141
Si Si7 0.225119 0.892357 0.430153
O O1 0.822276 0.321809 0.307949
O O2 0.839164 0.460066 0.388281
O O3 0.887898 0.325377 0.414579
O O4 0.000000 0.465989 0.341950
O O5 0.650563 0.232109 0.242647
O O6 0.473357 0.179546 0.189919
O O7 0.842278 0.525920 0.500000
O O8 0.860894 0.643041 0.410947
O O9 0.000000 0.598251 0.434721
O O10 0.192320 0.858785 0.894359
O O11 0.000000 0.812029 0.913820
O O12 0.151413 0.000000 0.923522
O O13 0.126608 0.865279 0.000000
O O14 0.693095 0.194896 0.104241
O O15 0.859964 0.364150 0.084466
O O16 0.554622 0.000000 0.914687
O O17 0.485683 0.871151 0.000000
O O18 0.212461 0.896147 0.500000
O O19 0.246283 0.000000 0.405060
#
# Coordination Sequence:
#
# PCOD9586227 Si02
#       7
#    12  12  12  12  12  12  12
#     4  10  19  31  51  75 101 140 183 225 268 319
#     4  10  21  38  50  68 106 148 183 221 263 311
#     4   9  17  30  49  76 109 141 179 227 273 318
#     4  10  21  38  61  88 115 141 175 224 281 335
#     4  12  21  38  54  78 110 148 183 222 267 324
#     4  11  22  35  55  81 107 138 178 223 270 322
#     4   9  17  30  49  74 104 136 172 219 273 322
#
# _framework density 18.240711000000001
#
# number of rings (size 3 to 8) (size 9 to 14) (size 15 to 20)
#    0.286    1.571    1.429    3.857    0.000    5.714 
#    0.857    0.000    0.000    1.143    0.000    2.000 
#    0.000    0.000    0.000    0.000    0.000    0.000 
#
# Total GULP energy -468016.349444 kJ/mol
# GULP energy per Si atom -5571.623208 kJ/mol
# Density = 1.819919 g / cm^3
# Si number density = 18.240711 Si / 1000 Ang^3
#
#
#
# Elastic Constant Matrix: (Units=GPa)
#
#
# Indices 1 2 3 4 5 6 
#
# 1 60.2842 4.5294 23.7826 0.0000 0.0000 0.0000
# 2 4.5294 60.2842 23.7826 0.0000 0.0000 0.0000
# 3 23.7826 23.7826 53.1226 0.0000 0.0000 0.0000
# 4 0.0000 0.0000 0.0000 5.3593 0.0000 0.0000
# 5 0.0000 0.0000 0.0000 0.0000 5.3593 0.0000
# 6 0.0000 0.0000 0.0000 0.0000 0.0000 27.8774
#
#
#
# Elastic Compliance Matrix: (Units=1/GPa)
#
#
# Indices 1 2 3 4 5 6 
#
# 1 0.020457 0.002521 -0.010287 0.000000 0.000000 0.000000
# 2 0.002521 0.020457 -0.010287 0.000000 0.000000 0.000000
# 3 -0.010287 -0.010287 0.028036 0.000000 0.000000 0.000000
# 4 0.000000 0.000000 0.000000 0.186591 0.000000 0.000000
# 5 0.000000 0.000000 0.000000 0.000000 0.186591 0.000000
# 6 0.000000 0.000000 0.000000 0.000000 0.000000 0.035871
#
#
# Mechanical properties :
#
#
# Convention : Reuss Voigt Hill
#
# Bulk Modulus (GPa) = 30.44769 30.87559 30.66164
# Shear Modulus (GPa) = 9.52275 15.82561 12.67418
#
# Velocity S-wave (km/s) = 2.28734 2.94870 2.63882
# Velocity P-wave (km/s) = 4.86871 5.34384 5.11180
#
# Compressibility (1/GPa) = 0.03284322
#
# Stress axis : x y z
#
# Youngs Moduli (GPa) = 48.88280 48.88280 35.66901
#
# Poissons Ratio (x) = -0.12325 0.36694
# Poissons Ratio (y) = -0.12325 0.36694
# Poissons Ratio (z) = 0.50287 0.50287
#
# Static dielectric constant tensor:
#      x y z
#    x 1.651470 0.000000 0.000000 
#    y 0.000000 1.651470 0.000000 
#    z 0.000000 0.000000 1.631250 
# 
# From -- ./inp_files/3615.got.cif
#   From: 2010.05.17/outbox.cif.g08.bks.cpg/sg189_2_cif.got.tgz:3615.got - 2010.05.20 12:14:34.
