data_PCOD9586296
_publ_section_title
;
Structure prediction by ZEFSAII (Michael W. Deem and Ramdas Pophale) SiO2 
 PCOD9586296
Probable space group: P -6 2 M
;
_chemical_formula_sum "Si O2"
_cell_formula_units_Z 48
_cell_length_a 19.058749
_cell_length_b 19.058749
_cell_length_c 8.325858
_cell_angle_alpha 90.000000
_cell_angle_beta 90.000000
_cell_angle_gamma 120.000000
_cell_volume 2619.077878
_symmetry_space_group_name_H-M "P -6 2 M"
_symmetry_group_IT_number 189
_symmetry_cell_setting 'hexagonal'
loop_
_space_group_symop_operation_xyz
x,y,z
-x+y,-x,-z
-y,x-y,z
x,y,-z
-x+y,-x,z
-y,x-y,-z
x-y,-y,-z
-x,-x+y,-z
y,x,-z
y,x,z
x-y,-y,z
-x,-x+y,z
loop_
_atom_site_type_symbol
_atom_site_label
_atom_site_fract_x
_atom_site_fract_y
_atom_site_fract_z
Si Si1 0.328790 0.908268 0.690933
Si Si2 0.594009 0.836913 0.806276
Si Si3 0.421323 0.515469 0.193236
Si Si4 0.000000 0.912355 0.194763
Si Si5 0.245864 0.245864 0.802951
O O1 0.322837 0.910515 0.500000
O O2 0.244007 0.837216 0.755207
O O3 0.400375 0.889735 0.734193
O O4 0.359482 0.000000 0.753620
O O5 0.518711 0.847888 0.752165
O O6 0.674856 0.917908 0.752004
O O7 0.593409 0.838230 0.000000
O O8 0.449664 0.449664 0.229193
O O9 0.424314 0.524478 0.000000
O O10 0.000000 0.834219 0.255263
O O11 0.923902 0.923902 0.240381
O O12 0.000000 0.908496 0.000000
O O13 0.246321 0.246321 0.000000
#
# Coordination Sequence:
#
# PCOD9586296 Si02
#       5
#    12  12  12   6   6
#     4  10  22  38  54  76 109 146 183 222 262 314
#     4  10  19  33  56  85 110 137 176 223 272 322
#     4   9  17  34  58  80 105 138 175 220 271 321
#     4   7  12  22  36  61 102 145 172 200 249 303
#     4   9  16  28  49  79 112 139 174 220 265 315
#
# _framework density 18.327059999999999
#
# number of rings (size 3 to 8) (size 9 to 14) (size 15 to 20)
#    0.250    2.500    1.250    0.750    0.000    3.500 
#    1.500    3.125    0.000    0.000    0.000    0.000 
#    0.000    0.000    0.000    0.000    0.000    0.000 
#
# Total GULP energy -267395.182108 kJ/mol
# GULP energy per Si atom -5570.732961 kJ/mol
# Density = 1.828535 g / cm^3
# Si number density = 18.327060 Si / 1000 Ang^3
#
#
#
# Elastic Constant Matrix: (Units=GPa)
#
#
# Indices 1 2 3 4 5 6 
#
# 1 130.1279 79.8781 16.3560 0.0000 0.0000 0.0000
# 2 79.8781 130.1279 16.3560 0.0000 0.0000 0.0000
# 3 16.3560 16.3560 10.0056 0.0000 0.0000 0.0000
# 4 0.0000 0.0000 0.0000 6.3383 0.0000 0.0000
# 5 0.0000 0.0000 0.0000 0.0000 6.3383 0.0000
# 6 0.0000 0.0000 0.0000 0.0000 0.0000 25.1249
#
#
#
# Elastic Compliance Matrix: (Units=1/GPa)
#
#
# Indices 1 2 3 4 5 6 
#
# 1 0.013145 -0.006756 -0.010443 0.000000 0.000000 0.000000
# 2 -0.006756 0.013145 -0.010443 0.000000 0.000000 0.000000
# 3 -0.010443 -0.010443 0.134087 0.000000 0.000000 0.000000
# 4 0.000000 0.000000 0.000000 0.157771 0.000000 0.000000
# 5 0.000000 0.000000 0.000000 0.000000 0.157771 0.000000
# 6 0.000000 0.000000 0.000000 0.000000 0.000000 0.039801
#
#
# Mechanical properties :
#
#
# Convention : Reuss Voigt Hill
#
# Bulk Modulus (GPa) = 9.51556 55.04907 32.28232
# Shear Modulus (GPa) = 8.25037 18.07173 13.16105
#
# Velocity S-wave (km/s) = 2.12403 3.14358 2.68269
# Velocity P-wave (km/s) = 3.34943 6.57863 5.22001
#
# Compressibility (1/GPa) = 0.10509099
#
# Stress axis : x y z
#
# Youngs Moduli (GPa) = 76.07735 76.07735 7.45787
#
# Poissons Ratio (x) = 0.51398 0.07788
# Poissons Ratio (y) = 0.51398 0.07788
# Poissons Ratio (z) = 0.79448 0.79448
#
# Static dielectric constant tensor:
#      x y z
#    x 1.630700 0.000000 0.000000 
#    y 0.000000 1.630700 0.000000 
#    z 0.000000 0.000000 1.638950 
# 
# From -- ./inp_files/643.got.cif
#   From: 2010.05.17/outbox.cif.g08.bks.cpg/sg189_1_cif.got.tgz:643.got - 2010.05.20 12:14:34.
