data_PCOD9586818
_publ_section_title
;
Structure prediction by ZEFSAII (Michael W. Deem and Ramdas Pophale) SiO2 
 PCOD9586818
Probable space group: P -6 2 C
;
_chemical_formula_sum "Si O2"
_cell_formula_units_Z 60
_cell_length_a 12.308546
_cell_length_b 12.308546
_cell_length_c 22.139774
_cell_angle_alpha 90.000000
_cell_angle_beta 90.000000
_cell_angle_gamma 120.000000
_cell_volume 2904.807259
_symmetry_space_group_name_H-M "P -6 2 C"
_symmetry_group_IT_number 190
_symmetry_cell_setting 'hexagonal'
loop_
_space_group_symop_operation_xyz
x,y,z
-x+y,-x,1/2-z
-y,x-y,z
x,y,1/2-z
-x+y,-x,z
-y,x-y,1/2-z
x-y,-y,-z
-x,-x+y,-z
y,x,-z
y,x,1/2+z
x-y,-y,1/2+z
-x,-x+y,1/2+z
loop_
_atom_site_type_symbol
_atom_site_label
_atom_site_fract_x
_atom_site_fract_y
_atom_site_fract_z
Si Si1 0.919583 0.565637 0.561841
Si Si2 0.724666 0.783800 0.066170
Si Si3 0.933148 0.584857 0.185508
Si Si4 0.666668 0.333334 0.429017
Si Si5 0.666668 0.333335 0.929596
Si Si6 0.874983 0.319888 0.354000
Si Si7 0.000000 0.000000 0.427044
O O1 0.841419 0.636232 0.552701
O O2 0.813519 0.426740 0.584119
O O3 0.000000 0.580411 0.500000
O O4 0.002928 0.633795 0.620370
O O5 0.677562 0.670030 0.113523
O O6 0.860003 0.893873 0.089937
O O7 0.741642 0.741642 0.000000
O O8 0.997809 0.642469 0.250000
O O9 0.905304 0.441876 0.184317
O O10 0.806957 0.593010 0.181803
O O11 0.666668 0.333334 0.498985
O O12 0.782200 0.320627 0.405419
O O13 0.000000 0.000000 0.500000
#
# Coordination Sequence:
#
# PCOD9586818 Si02
#       7
#    12  12  12   4   4  12   4
#     4  12  25  41  64  93 125 162 205 256 312 370
#     4  11  20  36  60  91 126 160 201 254 313 372
#     4  11  23  41  62  91 125 161 206 257 309 369
#     4   9  18  33  58  92 121 150 199 260 313 363
#     4  12  24  39  58  89 127 162 205 254 310 375
#     4  10  20  36  63  90 118 159 205 255 311 368
#     4   9  18  30  51  84 124 164 199 240 307 383
#
# _framework density 20.655415999999999
#
# number of rings (size 3 to 8) (size 9 to 14) (size 15 to 20)
#    0.000    1.200    0.000   10.000    0.000    1.600 
#    0.000    5.000    0.000    0.000    0.000    0.000 
#    0.000    0.000    0.000    0.000    0.000    0.000 
#
# Total GULP energy -334689.640990 kJ/mol
# GULP energy per Si atom -5578.160683 kJ/mol
# Density = 2.060840 g / cm^3
# Si number density = 20.655416 Si / 1000 Ang^3
#
#
#
# Elastic Constant Matrix: (Units=GPa)
#
#
# Indices 1 2 3 4 5 6 
#
# 1 68.6876 38.4225 7.9712 -0.0032 -0.0028 0.0000
# 2 38.4225 68.6871 7.9714 0.0014 0.0016 0.0001
# 3 7.9712 7.9714 83.2820 -0.0010 -0.0005 0.0000
# 4 -0.0032 0.0014 -0.0010 -93.9179 0.0075 -0.0022
# 5 -0.0028 0.0016 -0.0005 0.0075 -93.9396 0.0023
# 6 0.0000 0.0001 0.0000 -0.0022 0.0023 15.1337
#
#
#
# Elastic Compliance Matrix: (Units=1/GPa)
#
#
# Indices 1 2 3 4 5 6 
#
# 1 0.021256 -0.011785 -0.000906 -0.000001 -0.000001 0.000000
# 2 -0.011785 0.021256 -0.000907 0.000001 0.000001 0.000000
# 3 -0.000906 -0.000907 0.012181 0.000000 0.000000 0.000000
# 4 -0.000001 0.000001 0.000000 -0.010648 -0.000001 -0.000002
# 5 -0.000001 0.000001 0.000000 -0.000001 -0.010645 0.000002
# 6 0.000000 0.000000 0.000000 -0.000002 0.000002 0.066078
#
#
# Mechanical properties :
#
#
# Convention : Reuss Voigt Hill
#
# Bulk Modulus (GPa) = 36.36746 36.59854 36.48300
# Shear Modulus (GPa) = 36.80778 -23.45864 6.67457
#
# Velocity S-wave (km/s) = 4.22594 -3.37369 1.79956
# Velocity P-wave (km/s) = 6.43867 1.60666 4.69243
#
# Compressibility (1/GPa) = 0.02749711
#
# Stress axis : x y z
#
# Youngs Moduli (GPa) = 47.04486 47.04445 82.09553
#
# Poissons Ratio (x) = 0.55443 0.07442
# Poissons Ratio (y) = 0.55444 0.07442
# Poissons Ratio (z) = 0.04265 0.04265
#
# Static dielectric constant tensor:
#      x y z
#    x 1.809960 0.000000 0.000000 
#    y 0.000000 1.809960 0.000000 
#    z 0.000000 0.000000 1.761340 
# 
# From -- ./inp_files/4919.got.cif
#   From: 2010.05.17/outbox.cif.g08.bks.cpg/sg190_3_cif.got.tgz:4919.got - 2010.05.20 12:16:56.
