data_PCOD9586100
_publ_section_title
;
Structure prediction by ZEFSAII (Michael W. Deem and Ramdas Pophale) SiO2 
 PCOD9586100
Probable space group: P -6 C 2
;
_chemical_formula_sum "Si O2"
_cell_formula_units_Z 76
_cell_length_a 18.000000
_cell_length_b 18.000000
_cell_length_c 15.000000
_cell_angle_alpha 90.000000
_cell_angle_beta 90.000000
_cell_angle_gamma 120.000000
_cell_volume 4208.883462
_symmetry_space_group_name_H-M "P -6 C 2"
_symmetry_group_IT_number 188
_symmetry_cell_setting 'hexagonal'
loop_
_space_group_symop_operation_xyz
x,y,z
-x+y,-x,1/2-z
-y,x-y,z
x,y,1/2-z
-x+y,-x,z
-y,x-y,1/2-z
-y,-x,-z
-x+y,y,-z
x,x-y,-z
-x+y,y,1/2+z
x,x-y,1/2+z
-y,-x,1/2+z
loop_
_atom_site_type_symbol
_atom_site_label
_atom_site_fract_x
_atom_site_fract_y
_atom_site_fract_z
Si Si1 0.664407 0.669725 0.461097
Si Si2 0.895894 0.475991 0.902361
Si Si3 0.821033 0.845311 0.851662
Si Si4 0.660477 0.232336 0.750000
Si Si5 0.828778 0.694536 0.145753
Si Si6 0.397839 0.071912 0.649727
Si Si7 0.153002 0.306003 0.000000
Si Si8 0.000000 0.000000 0.606882
O O1 0.601952 0.574370 0.418199
O O2 0.756846 0.694819 0.417130
O O3 0.664137 0.651658 0.566346
O O4 0.647752 0.750459 0.456980
O O5 0.822973 0.472925 0.837906
O O6 0.919648 0.410302 0.855488
O O7 0.865032 0.432516 0.000000
O O8 0.789059 0.832379 0.750000
O O9 0.852011 0.775986 0.870244
O O10 0.753926 0.841882 0.923156
O O11 0.904646 0.938200 0.859556
O O12 0.583889 0.256626 0.750000
O O13 0.806355 0.696273 0.250000
O O14 0.844915 0.613726 0.133938
O O15 0.363809 0.042855 0.750000
O O16 0.000000 0.000000 0.500000
#
# Coordination Sequence:
#
# PCOD9586100 Si02
#       8
#    12  12  12   6  12  12   6   4
#     4  11  24  37  60  88 119 159 212 262 318 379
#     4  10  23  40  59  90 122 165 212 261 313 379
#     4  11  23  39  53  78 109 153 204 251 308 365
#     4  10  24  38  58  88 130 168 216 266 316 372
#     4  10  22  36  58  85 117 165 208 254 310 376
#     4  10  20  38  62  82 116 162 204 254 313 385
#     4  12  24  40  60  82 118 154 208 266 316 372
#     4  12  22  32  52  70 110 151 193 254 304 340
#
# _framework density 18.057044999999999
#
# number of rings (size 3 to 8) (size 9 to 14) (size 15 to 20)
#    0.158    1.263    3.158    1.895    3.316    2.526 
#    0.000    0.000    0.000    0.000    0.000    0.000 
#   21.316    0.000    0.000    0.000    0.000    0.000 
#
# Total GULP energy -423882.276317 kJ/mol
# GULP energy per Si atom -5577.398373 kJ/mol
# Density = 1.801595 g / cm^3
# Si number density = 18.057045 Si / 1000 Ang^3
#
#
#
# Elastic Constant Matrix: (Units=GPa)
#
#
# Indices 1 2 3 4 5 6 
#
# 1 87.6562 23.8625 29.9507 -0.0001 0.0000 0.0000
# 2 23.8625 87.6562 29.9507 0.0001 0.0000 0.0000
# 3 29.9507 29.9507 111.8951 0.0000 0.0000 0.0000
# 4 -0.0001 0.0001 0.0000 13.3817 0.0000 0.0000
# 5 0.0000 0.0000 0.0000 0.0000 13.3817 -0.0001
# 6 0.0000 0.0000 0.0000 0.0000 -0.0001 31.8969
#
#
#
# Elastic Compliance Matrix: (Units=1/GPa)
#
#
# Indices 1 2 3 4 5 6 
#
# 1 0.013074 -0.002601 -0.002803 0.000000 0.000000 0.000000
# 2 -0.002601 0.013074 -0.002803 0.000000 0.000000 0.000000
# 3 -0.002803 -0.002803 0.010438 0.000000 0.000000 0.000000
# 4 0.000000 0.000000 0.000000 0.074729 0.000000 0.000000
# 5 0.000000 0.000000 0.000000 0.000000 0.074729 0.000000
# 6 0.000000 0.000000 0.000000 0.000000 0.000000 0.031351
#
#
# Mechanical properties :
#
#
# Convention : Reuss Voigt Hill
#
# Bulk Modulus (GPa) = 49.57775 50.52615 50.05195
# Shear Modulus (GPa) = 20.78713 25.29498 23.04106
#
# Velocity S-wave (km/s) = 3.39660 3.74684 3.57601
# Velocity P-wave (km/s) = 6.54968 6.83817 6.69548
#
# Compressibility (1/GPa) = 0.02017034
#
# Stress axis : x y z
#
# Youngs Moduli (GPa) = 76.48661 76.48661 95.80733
#
# Poissons Ratio (x) = 0.19897 0.26857
# Poissons Ratio (y) = 0.19897 0.26857
# Poissons Ratio (z) = 0.21441 0.21441
#
# Static dielectric constant tensor:
#      x y z
#    x 1.650450 0.000000 0.000000 
#    y 0.000000 1.650450 0.000000 
#    z 0.000000 0.000000 1.652370 
# 
# From -- ./inp_files/2554.got.cif
#   From: 2010.05.17/outbox.ucp.g08.bks.cvg/sg188_2_cif.got.tgz:2554.got - 2010.06.11 15:21:59.
