data_PCOD9586973
_publ_section_title
;
Structure prediction by ZEFSAII (Michael W. Deem and Ramdas Pophale) SiO2 
 PCOD9586973
Probable space group: P -6 2 C
;
_chemical_formula_sum "Si O2"
_cell_formula_units_Z 52
_cell_length_a 11.769986
_cell_length_b 11.769986
_cell_length_c 18.979513
_cell_angle_alpha 90.000000
_cell_angle_beta 90.000000
_cell_angle_gamma 120.000000
_cell_volume 2277.023899
_symmetry_space_group_name_H-M "P -6 2 C"
_symmetry_group_IT_number 190
_symmetry_cell_setting 'hexagonal'
loop_
_space_group_symop_operation_xyz
x,y,z
-x+y,-x,1/2-z
-y,x-y,z
x,y,1/2-z
-x+y,-x,z
-y,x-y,1/2-z
x-y,-y,-z
-x,-x+y,-z
y,x,-z
y,x,1/2+z
x-y,-y,1/2+z
-x,-x+y,1/2+z
loop_
_atom_site_type_symbol
_atom_site_label
_atom_site_fract_x
_atom_site_fract_y
_atom_site_fract_z
Si Si1 0.348842 0.525500 0.250000
Si Si2 0.767303 0.850316 0.430686
Si Si3 0.640322 0.000000 0.500000
Si Si4 0.098132 0.370232 0.673520
Si Si5 0.547086 0.942359 0.852904
Si Si6 0.000000 0.000000 0.834422
O O1 0.218622 0.538133 0.250000
O O2 0.367867 0.453072 0.183240
O O3 0.843813 0.843813 0.500000
O O4 0.668957 0.893247 0.462802
O O5 0.714317 0.714751 0.388615
O O6 0.860863 0.955443 0.372060
O O7 0.540121 0.945196 0.563212
O O8 0.047714 0.304688 0.750000
O O9 0.242982 0.392307 0.664164
O O10 0.110717 0.511923 0.674440
O O11 0.000000 0.000000 0.750000
#
# Coordination Sequence:
#
# PCOD9586973 Si02
#       6
#     6  12   6  12  12   4
#     4  10  26  50  76 114 150 194 250 328 390 462
#     4  12  23  44  69 104 145 192 246 316 381 459
#     4  12  28  44  72 106 154 200 250 324 390 470
#     4  12  25  46  76 108 146 200 260 321 388 472
#     4  12  26  48  74 109 153 201 259 318 394 462
#     4  12  22  41  67 108 148 191 235 306 397 455
#
# _framework density 22.836827
#
# number of rings (size 3 to 8) (size 9 to 14) (size 15 to 20)
#    0.231    0.000    6.923    1.154    4.846    0.000 
#    2.077    0.000    0.000    0.000    0.000    0.000 
#    0.000    0.000    0.000    0.000    0.000    0.000 
#
# Total GULP energy -290810.469822 kJ/mol
# GULP energy per Si atom -5592.509035 kJ/mol
# Density = 2.278485 g / cm^3
# Si number density = 22.836827 Si / 1000 Ang^3
#
#
#
# Elastic Constant Matrix: (Units=GPa)
#
#
# Indices 1 2 3 4 5 6 
#
# 1 93.0558 37.8932 42.1255 0.0000 0.0000 0.0000
# 2 37.8932 93.0558 42.1255 0.0000 0.0000 0.0000
# 3 42.1255 42.1255 218.7941 0.0000 0.0000 0.0000
# 4 0.0000 0.0000 0.0000 26.6020 0.0000 0.0000
# 5 0.0000 0.0000 0.0000 0.0000 26.6020 0.0000
# 6 0.0000 0.0000 0.0000 0.0000 0.0000 27.5813
#
#
#
# Elastic Compliance Matrix: (Units=1/GPa)
#
#
# Indices 1 2 3 4 5 6 
#
# 1 0.013422 -0.004706 -0.001678 0.000000 0.000000 0.000000
# 2 -0.004706 0.013422 -0.001678 0.000000 0.000000 0.000000
# 3 -0.001678 -0.001678 0.005217 0.000000 0.000000 0.000000
# 4 0.000000 0.000000 0.000000 0.037591 0.000000 0.000000
# 5 0.000000 0.000000 0.000000 0.000000 0.037591 0.000000
# 6 0.000000 0.000000 0.000000 0.000000 0.000000 0.036256
#
#
# Mechanical properties :
#
#
# Convention : Reuss Voigt Hill
#
# Bulk Modulus (GPa) = 62.74886 72.13269 67.44077
# Shear Modulus (GPa) = 30.31461 35.00780 32.66120
#
# Velocity S-wave (km/s) = 3.64736 3.91954 3.78590
# Velocity P-wave (km/s) = 6.72862 7.22070 6.97900
#
# Compressibility (1/GPa) = 0.01593655
#
# Stress axis : x y z
#
# Youngs Moduli (GPa) = 74.50309 74.50309 191.69095
#
# Poissons Ratio (x) = 0.35061 0.32169
# Poissons Ratio (y) = 0.35061 0.32169
# Poissons Ratio (z) = 0.12503 0.12503
#
# Static dielectric constant tensor:
#      x y z
#    x 1.874190 0.000000 0.000000 
#    y 0.000000 1.874190 0.000000 
#    z 0.000000 0.000000 1.839490 
# 
# From -- ./inp_files/4251.got.cif
#   From: 2010.05.17/outbox.cif.g08.bks.cpg/sg190_3_cif.got.tgz:4251.got - 2010.05.20 12:16:56.
