data_PCOD9586736
_publ_section_title
;
Structure prediction by ZEFSAII (Michael W. Deem and Ramdas Pophale) SiO2 
 PCOD9586736
Probable space group: P -6 2 C
;
_chemical_formula_sum "Si O2"
_cell_formula_units_Z 58
_cell_length_a 14.010929
_cell_length_b 14.010929
_cell_length_c 14.425761
_cell_angle_alpha 90.000000
_cell_angle_beta 90.000000
_cell_angle_gamma 120.000000
_cell_volume 2452.467320
_symmetry_space_group_name_H-M "P -6 2 C"
_symmetry_group_IT_number 190
_symmetry_cell_setting 'hexagonal'
loop_
_space_group_symop_operation_xyz
x,y,z
-x+y,-x,1/2-z
-y,x-y,z
x,y,1/2-z
-x+y,-x,z
-y,x-y,1/2-z
x-y,-y,-z
-x,-x+y,-z
y,x,-z
y,x,1/2+z
x-y,-y,1/2+z
-x,-x+y,1/2+z
loop_
_atom_site_type_symbol
_atom_site_label
_atom_site_fract_x
_atom_site_fract_y
_atom_site_fract_z
Si Si1 0.333334 0.666668 0.365439
Si Si2 0.786252 0.785314 0.362769
Si Si3 0.571575 0.004511 0.393363
Si Si4 0.442394 0.803309 0.750000
Si Si5 0.323278 0.865029 0.145881
Si Si6 0.788102 0.003108 0.138642
O O1 0.333334 0.666668 0.250000
O O2 0.457033 0.708247 0.399164
O O3 0.785757 0.775154 0.250000
O O4 0.660401 0.712194 0.395191
O O5 0.877523 0.757281 0.397819
O O6 0.819058 0.910402 0.384947
O O7 0.621573 0.120847 0.339203
O O8 0.665137 0.970374 0.388937
O O9 0.540887 0.000000 0.500000
O O10 0.454936 0.925323 0.346706
O O11 0.446408 0.689728 0.750000
O O12 0.274472 0.839260 0.250000
O O13 0.789096 0.008926 0.250000
#
# Coordination Sequence:
#
# PCOD9586736 Si02
#       6
#     4  12  12   6  12  12
#     4   9  18  33  57  87 123 169 215 286 369 462
#     4   9  19  32  63  94 124 176 226 280 357 452
#     4  12  25  43  69 105 140 187 258 320 376 463
#     4  10  26  50  80 100 152 214 266 314 406 494
#     4  10  19  36  59  86 128 178 229 285 377 438
#     4  10  19  38  63  95 138 177 232 301 374 446
#
# _framework density 23.649654000000002
#
# number of rings (size 3 to 8) (size 9 to 14) (size 15 to 20)
#    0.207    1.655    2.069    1.655    2.897    4.966 
#    7.448    1.034    0.000    0.000    0.000    0.000 
#    0.000    0.000    0.000    0.000    0.000    0.000 
#
# Total GULP energy -323983.758500 kJ/mol
# GULP energy per Si atom -5585.926871 kJ/mol
# Density = 2.359583 g / cm^3
# Si number density = 23.649654 Si / 1000 Ang^3
#
#
#
# Elastic Constant Matrix: (Units=GPa)
#
#
# Indices 1 2 3 4 5 6 
#
# 1 122.5902 31.2249 -6.6742 0.0000 -0.0001 -0.0001
# 2 31.2249 122.5891 -6.6742 0.0001 0.0000 -0.0002
# 3 -6.6742 -6.6742 104.0837 0.0000 0.0000 0.0000
# 4 0.0000 0.0001 0.0000 -17.6542 0.0000 0.0000
# 5 -0.0001 0.0000 0.0000 0.0000 -17.6538 0.0000
# 6 -0.0001 -0.0002 0.0000 0.0000 0.0000 45.6822
#
#
#
# Elastic Compliance Matrix: (Units=1/GPa)
#
#
# Indices 1 2 3 4 5 6 
#
# 1 0.008741 -0.002204 0.000419 0.000000 0.000000 0.000000
# 2 -0.002204 0.008741 0.000419 0.000000 0.000000 0.000000
# 3 0.000419 0.000419 0.009661 0.000000 0.000000 0.000000
# 4 0.000000 0.000000 0.000000 -0.056644 0.000000 0.000000
# 5 0.000000 0.000000 0.000000 0.000000 -0.056645 0.000000
# 6 0.000000 0.000000 0.000000 0.000000 0.000000 0.021890
#
#
# Mechanical properties :
#
#
# Convention : Reuss Voigt Hill
#
# Bulk Modulus (GPa) = 40.96056 42.77956 41.87006
# Shear Modulus (GPa) = -93.65788 24.16728 -34.74530
#
# Velocity S-wave (km/s) = -6.29986 3.20016 -3.83713
# Velocity P-wave (km/s) = 5.96324 5.63763 1.37430
#
# Compressibility (1/GPa) = 0.02441373
#
# Stress axis : x y z
#
# Youngs Moduli (GPa) = 114.39835 114.39726 103.50450
#
# Poissons Ratio (x) = 0.25210 -0.04339
# Poissons Ratio (y) = 0.25210 -0.04339
# Poissons Ratio (z) = -0.04796 -0.04796
#
# Static dielectric constant tensor:
#      x y z
#    x 1.817910 0.000000 0.000000 
#    y 0.000000 1.817920 0.000000 
#    z 0.000000 0.000000 1.791610 
# 
# From -- ./inp_files/2877.got.cif
#   From: 2010.05.17/outbox.cif.g08.bks.cpg/sg190_2_cif.got.tgz:2877.got - 2010.05.20 12:16:56.
