data_PCOD9586570
_publ_section_title
;
Structure prediction by ZEFSAII (Michael W. Deem and Ramdas Pophale) SiO2 
 PCOD9586570
Probable space group: P -6 2 M
;
_chemical_formula_sum "Si O2"
_cell_formula_units_Z 40
_cell_length_a 13.125548
_cell_length_b 13.125548
_cell_length_c 14.600880
_cell_angle_alpha 90.000000
_cell_angle_beta 90.000000
_cell_angle_gamma 120.000000
_cell_volume 2178.434731
_symmetry_space_group_name_H-M "P -6 2 M"
_symmetry_group_IT_number 189
_symmetry_cell_setting 'hexagonal'
loop_
_space_group_symop_operation_xyz
x,y,z
-x+y,-x,-z
-y,x-y,z
x,y,-z
-x+y,-x,z
-y,x-y,-z
x-y,-y,-z
-x,-x+y,-z
y,x,-z
y,x,z
x-y,-y,z
-x,-x+y,z
loop_
_atom_site_type_symbol
_atom_site_label
_atom_site_fract_x
_atom_site_fract_y
_atom_site_fract_z
Si Si1 0.861850 0.138370 0.277779
Si Si2 0.261252 0.515718 0.609139
Si Si3 0.666668 0.333334 0.889169
Si Si4 0.591840 0.864378 0.892329
O O1 0.797115 0.192673 0.336819
O O2 0.832431 0.150856 0.172160
O O3 0.000000 0.206918 0.294998
O O4 0.803677 0.000000 0.297480
O O5 0.399736 0.605893 0.629705
O O6 0.251325 0.494698 0.500000
O O7 0.773044 0.459668 0.861087
O O8 0.666667 0.333334 0.000000
O O9 0.624775 0.000000 0.882238
O O10 0.603225 0.844523 0.000000
#
# Coordination Sequence:
#
# PCOD9586570 Si02
#       4
#    12  12   4  12
#     4  11  24  39  59  86 120 160 201 242 288 346
#     4   8  19  41  64  90 117 145 189 243 298 354
#     4   9  18  33  54  81 112 143 187 249 303 345
#     4   9  20  37  55  81 117 156 198 242 291 348
#
# _framework density 18.361808
#
# number of rings (size 3 to 8) (size 9 to 14) (size 15 to 20)
#    0.600    2.100    0.000    0.300    4.200    4.200 
#    0.000    6.000    0.000    3.600    0.000    0.000 
#    0.000    0.000    0.000    0.000    0.000    0.000 
#
# Total GULP energy -222938.074056 kJ/mol
# GULP energy per Si atom -5573.451851 kJ/mol
# Density = 1.832002 g / cm^3
# Si number density = 18.361808 Si / 1000 Ang^3
#
#
#
# Elastic Constant Matrix: (Units=GPa)
#
#
# Indices 1 2 3 4 5 6 
#
# 1 103.7356 57.2060 37.0660 0.0000 0.0000 0.0000
# 2 57.2060 103.7361 37.0660 0.0000 0.0000 0.0000
# 3 37.0660 37.0660 60.6999 0.0000 0.0000 0.0000
# 4 0.0000 0.0000 0.0000 18.1583 0.0001 0.0000
# 5 0.0000 0.0000 0.0000 0.0001 18.1581 0.0000
# 6 0.0000 0.0000 0.0000 0.0000 0.0000 23.2650
#
#
#
# Elastic Compliance Matrix: (Units=1/GPa)
#
#
# Indices 1 2 3 4 5 6 
#
# 1 0.015068 -0.006423 -0.005279 0.000000 0.000000 0.000000
# 2 -0.006423 0.015068 -0.005279 0.000000 0.000000 0.000000
# 3 -0.005279 -0.005279 0.022922 0.000000 0.000000 0.000000
# 4 0.000000 0.000000 0.000000 0.055071 0.000000 0.000000
# 5 0.000000 0.000000 0.000000 0.000000 0.055072 0.000000
# 6 0.000000 0.000000 0.000000 0.000000 0.000000 0.042983
#
#
# Mechanical properties :
#
#
# Convention : Reuss Voigt Hill
#
# Bulk Modulus (GPa) = 52.36799 58.98307 55.67553
# Shear Modulus (GPa) = 20.28294 21.03849 20.66072
#
# Velocity S-wave (km/s) = 3.32720 3.38860 3.35804
# Velocity P-wave (km/s) = 6.58349 6.89221 6.73962
#
# Compressibility (1/GPa) = 0.01909564
#
# Stress axis : x y z
#
# Youngs Moduli (GPa) = 66.36426 66.36466 43.62671
#
# Poissons Ratio (x) = 0.42628 0.23031
# Poissons Ratio (y) = 0.42628 0.23031
# Poissons Ratio (z) = 0.35034 0.35034
#
# Static dielectric constant tensor:
#      x y z
#    x 1.609410 0.000000 0.000000 
#    y 0.000000 1.609410 0.000000 
#    z 0.000000 0.000000 1.653150 
# 
# From -- ./inp_files/2938.got.cif
#   From: 2010.05.17/outbox.cif.g08.bks.cpg/sg189_2_cif.got.tgz:2938.got - 2010.05.20 12:14:34.
