data_PCOD9586927
_publ_section_title
;
Structure prediction by ZEFSAII (Michael W. Deem and Ramdas Pophale) SiO2 
 PCOD9586927
Probable space group: P -6 2 C
;
_chemical_formula_sum "Si O2"
_cell_formula_units_Z 48
_cell_length_a 17.802203
_cell_length_b 17.802203
_cell_length_c 9.194502
_cell_angle_alpha 90.000000
_cell_angle_beta 90.000000
_cell_angle_gamma 120.000000
_cell_volume 2523.517619
_symmetry_space_group_name_H-M "P -6 2 C"
_symmetry_group_IT_number 190
_symmetry_cell_setting 'hexagonal'
loop_
_space_group_symop_operation_xyz
x,y,z
-x+y,-x,1/2-z
-y,x-y,z
x,y,1/2-z
-x+y,-x,z
-y,x-y,1/2-z
x-y,-y,-z
-x,-x+y,-z
y,x,-z
y,x,1/2+z
x-y,-y,1/2+z
-x,-x+y,1/2+z
loop_
_atom_site_type_symbol
_atom_site_label
_atom_site_fract_x
_atom_site_fract_y
_atom_site_fract_z
Si Si1 0.795316 0.000000 0.500000
Si Si2 0.091605 0.437880 0.421694
Si Si3 0.506339 0.412075 0.423776
Si Si4 0.111438 0.077471 0.250000
Si Si5 0.759107 0.152082 0.585180
O O1 0.873704 0.044020 0.386159
O O2 0.704755 0.926656 0.433929
O O3 0.078626 0.447941 0.250000
O O4 0.130779 0.530125 0.503879
O O5 0.154476 0.398438 0.433176
O O6 0.000000 0.377388 0.500000
O O7 0.508910 0.421417 0.250000
O O8 0.451334 0.451334 0.500000
O O9 0.456552 0.312572 0.471722
O O10 0.064006 0.973220 0.250000
O O11 0.726000 0.147579 0.750000
#
# Coordination Sequence:
#
# PCOD9586927 Si02
#       5
#     6  12  12   6  12
#     4  12  22  42  64  98 126 172 228 270 316 388
#     4  10  22  42  64  92 126 164 206 258 323 380
#     4  11  22  39  66  91 124 161 202 255 315 379
#     4  10  24  42  62  86 132 180 218 270 332 376
#     4  11  24  41  64  97 128 167 216 264 318 383
#
# _framework density 19.021066999999999
#
# number of rings (size 3 to 8) (size 9 to 14) (size 15 to 20)
#    0.250    1.000    2.500    5.250    1.750    4.000 
#    1.500    0.000    0.000    0.000    0.000    0.000 
#    0.000    0.000    0.000    0.000    0.000    0.000 
#
# Total GULP energy -267932.445893 kJ/mol
# GULP energy per Si atom -5581.925956 kJ/mol
# Density = 1.897777 g / cm^3
# Si number density = 19.021067 Si / 1000 Ang^3
#
#
#
# Elastic Constant Matrix: (Units=GPa)
#
#
# Indices 1 2 3 4 5 6 
#
# 1 77.6934 23.1618 36.0520 0.0000 0.0000 0.0000
# 2 23.1618 77.6934 36.0520 0.0000 0.0000 0.0000
# 3 36.0520 36.0520 151.2947 0.0000 0.0000 0.0000
# 4 0.0000 0.0000 0.0000 29.1077 0.0000 0.0000
# 5 0.0000 0.0000 0.0000 0.0000 29.1077 0.0000
# 6 0.0000 0.0000 0.0000 0.0000 0.0000 27.2658
#
#
#
# Elastic Compliance Matrix: (Units=1/GPa)
#
#
# Indices 1 2 3 4 5 6 
#
# 1 0.015145 -0.003193 -0.002848 0.000000 0.000000 0.000000
# 2 -0.003193 0.015145 -0.002848 0.000000 0.000000 0.000000
# 3 -0.002848 -0.002848 0.007967 0.000000 0.000000 0.000000
# 4 0.000000 0.000000 0.000000 0.034355 0.000000 0.000000
# 5 0.000000 0.000000 0.000000 0.000000 0.034355 0.000000
# 6 0.000000 0.000000 0.000000 0.000000 0.000000 0.036676
#
#
# Mechanical properties :
#
#
# Convention : Reuss Voigt Hill
#
# Bulk Modulus (GPa) = 48.83326 55.24593 52.03959
# Shear Modulus (GPa) = 29.71830 31.19063 30.45447
#
# Velocity S-wave (km/s) = 3.95699 4.05383 4.00570
# Velocity P-wave (km/s) = 6.82686 7.14276 6.98660
#
# Compressibility (1/GPa) = 0.02047784
#
# Stress axis : x y z
#
# Youngs Moduli (GPa) = 66.03011 66.03011 125.52018
#
# Poissons Ratio (x) = 0.21086 0.35746
# Poissons Ratio (y) = 0.21086 0.35746
# Poissons Ratio (z) = 0.18804 0.18804
#
# Static dielectric constant tensor:
#      x y z
#    x 1.653300 0.000000 0.000000 
#    y 0.000000 1.653300 0.000000 
#    z 0.000000 0.000000 1.579810 
# 
# From -- ./inp_files/699.got.cif
#   From: 2010.05.17/outbox.cif.g08.bks.cpg/sg190_1_cif.got.tgz:699.got - 2010.05.20 12:16:56.
