data_PCOD9586180
_publ_section_title
;
Structure prediction by ZEFSAII (Michael W. Deem and Ramdas Pophale) SiO2 
 PCOD9586180
Probable space group: P -6 2 M
;
_chemical_formula_sum "Si O2"
_cell_formula_units_Z 96
_cell_length_a 15.759608
_cell_length_b 15.759608
_cell_length_c 21.353237
_cell_angle_alpha 90.000000
_cell_angle_beta 90.000000
_cell_angle_gamma 120.000000
_cell_volume 4592.880793
_symmetry_space_group_name_H-M "P -6 2 M"
_symmetry_group_IT_number 189
_symmetry_cell_setting 'hexagonal'
loop_
_space_group_symop_operation_xyz
x,y,z
-x+y,-x,-z
-y,x-y,z
x,y,-z
-x+y,-x,z
-y,x-y,-z
x-y,-y,-z
-x,-x+y,-z
y,x,-z
y,x,z
x-y,-y,z
-x,-x+y,z
loop_
_atom_site_type_symbol
_atom_site_label
_atom_site_fract_x
_atom_site_fract_y
_atom_site_fract_z
Si Si1 0.110098 0.889752 0.906654
Si Si2 0.530595 0.110410 0.076836
Si Si3 0.445187 0.192517 0.567914
Si Si4 0.450105 0.249233 0.925795
Si Si5 0.562737 0.749397 0.280496
Si Si6 0.891405 0.108721 0.757063
Si Si7 0.525169 0.414774 0.266220
Si Si8 0.526346 0.414963 0.415876
O O1 0.146954 0.813323 0.919282
O O2 0.103660 0.895073 0.831903
O O3 0.000000 0.847381 0.930894
O O4 0.184085 0.000000 0.928993
O O5 0.498087 0.186773 0.098924
O O6 0.640119 0.142640 0.099081
O O7 0.455392 0.000000 0.096533
O O8 0.529749 0.110153 0.000000
O O9 0.391772 0.145658 0.500000
O O10 0.419967 0.169126 0.642988
O O11 0.467961 0.303029 0.564791
O O12 0.538861 0.177799 0.565711
O O13 0.470914 0.260437 0.000000
O O14 0.672663 0.808255 0.255898
O O15 0.494903 0.639099 0.254730
O O16 0.510624 0.810771 0.256926
O O17 0.000000 0.142771 0.732274
O O18 0.812834 0.000000 0.733674
O O19 0.453379 0.453379 0.241394
O O20 0.521389 0.416224 0.341383
O O21 0.480757 0.480757 0.437231
#
# Coordination Sequence:
#
# PCOD9586180 Si02
#       8
#    12  12  12  12  12  12  12  12
#     4  10  21  37  57  81 107 135 171 220 278 334
#     4   9  17  29  47  73 105 142 181 214 244 287
#     4  10  19  29  46  72 100 132 169 207 252 306
#     4  10  19  33  54  80 112 148 183 218 256 299
#     4  10  19  33  52  75 105 138 171 207 252 312
#     4  10  21  39  61  80  98 127 174 229 277 320
#     4   9  17  30  49  73 100 130 163 200 245 298
#     4   9  18  31  45  65  97 132 163 198 241 295
#
# _framework density 20.901914999999999
#
# number of rings (size 3 to 8) (size 9 to 14) (size 15 to 20)
#    0.000    2.375    0.000    2.875    0.000    7.500 
#    0.000    1.250    0.000    5.250    0.000    0.000 
#    0.000    1.000    0.000    0.000    0.000    0.000 
#
# Total GULP energy -534725.313357 kJ/mol
# GULP energy per Si atom -5570.055347 kJ/mol
# Density = 2.085434 g / cm^3
# Si number density = 20.901915 Si / 1000 Ang^3
#
#
#
# Elastic Constant Matrix: (Units=GPa)
#
#
# Indices 1 2 3 4 5 6 
#
# 1 56.7037 5.0470 -15.0428 0.0000 0.0000 0.0000
# 2 5.0470 56.7037 -15.0428 0.0000 0.0000 0.0000
# 3 -15.0428 -15.0428 45.1373 0.0000 0.0000 0.0000
# 4 0.0000 0.0000 0.0000 13.9177 0.0000 0.0000
# 5 0.0000 0.0000 0.0000 0.0000 13.9177 0.0000
# 6 0.0000 0.0000 0.0000 0.0000 0.0000 25.8284
#
#
#
# Elastic Compliance Matrix: (Units=1/GPa)
#
#
# Indices 1 2 3 4 5 6 
#
# 1 0.019346 -0.000013 0.006443 0.000000 0.000000 0.000000
# 2 -0.000013 0.019346 0.006443 0.000000 0.000000 0.000000
# 3 0.006443 0.006443 0.026449 0.000000 0.000000 0.000000
# 4 0.000000 0.000000 0.000000 0.071851 0.000000 0.000000
# 5 0.000000 0.000000 0.000000 0.000000 0.071851 0.000000
# 6 0.000000 0.000000 0.000000 0.000000 0.000000 0.038717
#
#
# Mechanical properties :
#
#
# Convention : Reuss Voigt Hill
#
# Bulk Modulus (GPa) = 11.00246 12.05192 11.52719
# Shear Modulus (GPa) = 19.83266 22.97163 21.40215
#
# Velocity S-wave (km/s) = 3.08367 3.31874 3.20337
# Velocity P-wave (km/s) = 4.23722 4.52370 4.38280
#
# Compressibility (1/GPa) = 0.09088876
#
# Stress axis : x y z
#
# Youngs Moduli (GPa) = 51.69039 51.69039 37.80825
#
# Poissons Ratio (x) = 0.00065 -0.24361
# Poissons Ratio (y) = 0.00065 -0.24361
# Poissons Ratio (z) = -0.33305 -0.33305
#
# Static dielectric constant tensor:
#      x y z
#    x 1.743390 0.000000 0.000000 
#    y 0.000000 1.743390 0.000000 
#    z 0.000000 0.000000 1.787760 
# 
# From -- ./inp_files/3711.got.cif
#   From: 2010.05.17/outbox.cif.g08.bks.cpg/sg189_2_cif.got.tgz:3711.got - 2010.05.20 12:14:34.
