data_PCOD9586139
_publ_section_title
;
Structure prediction by ZEFSAII (Michael W. Deem and Ramdas Pophale) SiO2 
 PCOD9586139
Probable space group: P -6 2 M
;
_chemical_formula_sum "Si O2"
_cell_formula_units_Z 66
_cell_length_a 23.882190
_cell_length_b 23.882190
_cell_length_c 7.821915
_cell_angle_alpha 90.000000
_cell_angle_beta 90.000000
_cell_angle_gamma 120.000000
_cell_volume 3863.598797
_symmetry_space_group_name_H-M "P -6 2 M"
_symmetry_group_IT_number 189
_symmetry_cell_setting 'hexagonal'
loop_
_space_group_symop_operation_xyz
x,y,z
-x+y,-x,-z
-y,x-y,z
x,y,-z
-x+y,-x,z
-y,x-y,-z
x-y,-y,-z
-x,-x+y,-z
y,x,-z
y,x,z
x-y,-y,z
-x,-x+y,z
loop_
_atom_site_type_symbol
_atom_site_label
_atom_site_fract_x
_atom_site_fract_y
_atom_site_fract_z
Si Si1 0.239230 0.075384 0.194351
Si Si2 0.761229 0.614325 0.702649
Si Si3 0.588574 0.191357 0.203741
Si Si4 0.484554 0.751204 0.207610
Si Si5 0.076912 0.154075 0.500000
Si Si6 0.459968 0.072862 0.706451
O O1 0.315911 0.121475 0.216017
O O2 0.199318 0.090223 0.334042
O O3 0.219007 0.000000 0.223461
O O4 0.220578 0.080179 0.000000
O O5 0.761559 0.625069 0.500000
O O6 0.778675 0.558143 0.734220
O O7 0.687107 0.582154 0.766914
O O8 0.659450 0.211159 0.268416
O O9 0.558420 0.234968 0.267931
O O10 0.533582 0.118583 0.239935
O O11 0.595116 0.201361 0.000000
O O12 0.485537 0.750999 0.000000
O O13 0.118363 0.118363 0.500000
O O14 0.000000 0.102526 0.500000
O O15 0.457863 0.072697 0.500000
O O16 0.428728 0.000000 0.767927
#
# Coordination Sequence:
#
# PCOD9586139 Si02
#       6
#    12  12  12  12   6  12
#     4  10  20  34  55  83 113 144 176 213 259 309
#     4  10  18  30  49  74 102 133 169 213 264 312
#     4   9  17  29  45  65  91 124 161 203 252 306
#     4   9  17  29  45  67  95 128 168 214 265 317
#     4  10  21  38  60  86 116 146 176 208 248 300
#     4   9  18  30  45  66  95 127 158 199 252 306
#
# _framework density 17.082519000000001
#
# number of rings (size 3 to 8) (size 9 to 14) (size 15 to 20)
#    0.000    2.545    0.909    1.545    0.000    4.364 
#    0.000    0.000    0.000    4.364    0.000    2.545 
#    0.000    0.000    0.000    0.000    0.000    0.000 
#
# Total GULP energy -368013.454040 kJ/mol
# GULP energy per Si atom -5575.961425 kJ/mol
# Density = 1.704364 g / cm^3
# Si number density = 17.082519 Si / 1000 Ang^3
#
#
#
# Elastic Constant Matrix: (Units=GPa)
#
#
# Indices 1 2 3 4 5 6 
#
# 1 116.4826 67.6381 27.9530 0.0000 0.0000 0.0000
# 2 67.6381 116.4826 27.9530 0.0000 0.0000 0.0000
# 3 27.9530 27.9530 60.7119 0.0000 0.0000 0.0000
# 4 0.0000 0.0000 0.0000 17.8263 0.0000 0.0000
# 5 0.0000 0.0000 0.0000 0.0000 17.8263 0.0000
# 6 0.0000 0.0000 0.0000 0.0000 0.0000 24.4222
#
#
#
# Elastic Compliance Matrix: (Units=1/GPa)
#
#
# Indices 1 2 3 4 5 6 
#
# 1 0.013394 -0.007080 -0.002907 0.000000 0.000000 0.000000
# 2 -0.007080 0.013394 -0.002907 0.000000 0.000000 0.000000
# 3 -0.002907 -0.002907 0.019148 0.000000 0.000000 0.000000
# 4 0.000000 0.000000 0.000000 0.056097 0.000000 0.000000
# 5 0.000000 0.000000 0.000000 0.000000 0.056097 0.000000
# 6 0.000000 0.000000 0.000000 0.000000 0.000000 0.040946
#
#
# Mechanical properties :
#
#
# Convention : Reuss Voigt Hill
#
# Bulk Modulus (GPa) = 49.63324 60.08502 54.85913
# Shear Modulus (GPa) = 21.59097 23.35719 22.47408
#
# Velocity S-wave (km/s) = 3.55902 3.70173 3.63108
# Velocity P-wave (km/s) = 6.78284 7.31575 7.05433
#
# Compressibility (1/GPa) = 0.02014779
#
# Stress axis : x y z
#
# Youngs Moduli (GPa) = 74.66293 74.66293 52.22432
#
# Poissons Ratio (x) = 0.52859 0.15182
# Poissons Ratio (y) = 0.52859 0.15182
# Poissons Ratio (z) = 0.21705 0.21705
#
# Static dielectric constant tensor:
#      x y z
#    x 1.562560 0.000000 0.000000 
#    y 0.000000 1.562560 0.000000 
#    z 0.000000 0.000000 1.619550 
# 
# From -- ./inp_files/1064.got.cif
#   From: 2010.05.17/outbox.cif.g08.bks.cpg/sg189_1_cif.got.tgz:1064.got - 2010.05.20 12:14:34.
