data_PCOD9586164
_publ_section_title
;
Structure prediction by ZEFSAII (Michael W. Deem and Ramdas Pophale) SiO2 
 PCOD9586164
Probable space group: P -6 2 M
;
_chemical_formula_sum "Si O2"
_cell_formula_units_Z 90
_cell_length_a 25.497460
_cell_length_b 25.497460
_cell_length_c 8.064565
_cell_angle_alpha 90.000000
_cell_angle_beta 90.000000
_cell_angle_gamma 120.000000
_cell_volume 4540.518156
_symmetry_space_group_name_H-M "P -6 2 M"
_symmetry_group_IT_number 189
_symmetry_cell_setting 'hexagonal'
loop_
_space_group_symop_operation_xyz
x,y,z
-x+y,-x,-z
-y,x-y,z
x,y,-z
-x+y,-x,z
-y,x-y,-z
x-y,-y,-z
-x,-x+y,-z
y,x,-z
y,x,z
x-y,-y,z
-x,-x+y,z
loop_
_atom_site_type_symbol
_atom_site_label
_atom_site_fract_x
_atom_site_fract_y
_atom_site_fract_z
Si Si1 0.399421 0.808428 0.299551
Si Si2 0.802987 0.196912 0.297564
Si Si3 0.136224 0.065720 0.500000
Si Si4 0.407455 0.931673 0.197995
Si Si5 0.260838 0.729190 0.702816
Si Si6 0.117523 0.188700 0.821876
Si Si7 0.712179 0.645253 0.302569
Si Si8 0.304525 0.238660 0.700382
O O1 0.399935 0.808684 0.500000
O O2 0.417061 0.876054 0.246218
O O3 0.441649 0.781628 0.242731
O O4 0.330721 0.761110 0.245409
O O5 0.804983 0.199251 0.500000
O O6 0.771581 0.234429 0.241751
O O7 0.872694 0.228890 0.238753
O O8 0.762519 0.126822 0.250802
O O9 0.116785 0.116785 0.500000
O O10 0.174083 0.074824 0.334944
O O11 0.078360 0.000000 0.500000
O O12 0.345163 0.922968 0.275475
O O13 0.459472 0.000000 0.246520
O O14 0.400863 0.930992 0.000000
O O15 0.260681 0.728540 0.500000
O O16 0.136912 0.136912 0.830111
O O17 0.179509 0.249694 0.782796
O O18 0.092467 0.191385 0.000000
O O19 0.720278 0.655697 0.500000
O O20 0.691607 0.691607 0.233299
O O21 0.297852 0.230900 0.500000
O O22 0.294721 0.294721 0.742866
#
# Coordination Sequence:
#
# PCOD9586164 Si02
#       8
#    12  12   6  12  12  12  12  12
#     4  10  18  32  54  77 105 140 179 218 263 320
#     4   9  16  28  48  76 108 132 167 219 267 311
#     4  10  19  32  50  74 104 138 176 216 262 314
#     4  10  20  33  50  73 102 137 178 221 265 316
#     4   9  17  29  49  79 106 133 171 223 267 309
#     4   9  17  31  51  72  95 127 171 217 259 313
#     4   9  16  29  51  75  98 130 171 214 262 319
#     4   9  16  29  50  71  96 134 175 213 261 320
#
# _framework density 19.821525999999999
#
# number of rings (size 3 to 8) (size 9 to 14) (size 15 to 20)
#    0.000    2.667    2.000    0.733    0.000    2.133 
#    0.000    2.667    0.000    3.200    0.000    1.867 
#    0.000    0.000    0.000    0.400    0.000    0.000 
#
# Total GULP energy -501490.584130 kJ/mol
# GULP energy per Si atom -5572.117601 kJ/mol
# Density = 1.977641 g / cm^3
# Si number density = 19.821526 Si / 1000 Ang^3
#
#
#
# Elastic Constant Matrix: (Units=GPa)
#
#
# Indices 1 2 3 4 5 6 
#
# 1 73.9399 48.1812 -3.6038 0.0000 0.0000 0.0000
# 2 48.1812 73.9399 -3.6038 0.0000 0.0000 0.0000
# 3 -3.6038 -3.6038 33.9936 0.0000 0.0000 0.0000
# 4 0.0000 0.0000 0.0000 6.3085 0.0000 0.0000
# 5 0.0000 0.0000 0.0000 0.0000 6.3085 0.0000
# 6 0.0000 0.0000 0.0000 0.0000 0.0000 12.8794
#
#
#
# Elastic Compliance Matrix: (Units=1/GPa)
#
#
# Indices 1 2 3 4 5 6 
#
# 1 0.023531 -0.015291 0.000874 0.000000 0.000000 0.000000
# 2 -0.015291 0.023531 0.000874 0.000000 0.000000 0.000000
# 3 0.000874 0.000874 0.029602 0.000000 0.000000 0.000000
# 4 0.000000 0.000000 0.000000 0.158517 0.000000 0.000000
# 5 0.000000 0.000000 0.000000 0.000000 0.158517 0.000000
# 6 0.000000 0.000000 0.000000 0.000000 0.000000 0.077644
#
#
# Mechanical properties :
#
#
# Convention : Reuss Voigt Hill
#
# Bulk Modulus (GPa) = 20.17059 29.31338 24.74199
# Shear Modulus (GPa) = 9.70958 14.49259 12.10109
#
# Velocity S-wave (km/s) = 2.21566 2.70692 2.47351
# Velocity P-wave (km/s) = 4.09191 4.95890 4.54612
#
# Compressibility (1/GPa) = 0.04957713
#
# Stress axis : x y z
#
# Youngs Moduli (GPa) = 42.49720 42.49720 33.78094
#
# Poissons Ratio (x) = 0.64982 -0.02951
# Poissons Ratio (y) = 0.64982 -0.02951
# Poissons Ratio (z) = -0.03712 -0.03712
#
# Static dielectric constant tensor:
#      x y z
#    x 1.687290 0.000000 0.000000 
#    y 0.000000 1.687290 0.000000 
#    z 0.000000 0.000000 1.733630 
# 
# From -- ./inp_files/1497.got.cif
#   From: 2010.05.17/outbox.cif.g08.bks.cpg/sg189_1_cif.got.tgz:1497.got - 2010.05.20 12:14:34.
