data_PCOD9586209
_publ_section_title
;
Structure prediction by ZEFSAII (Michael W. Deem and Ramdas Pophale) SiO2 
 PCOD9586209
Probable space group: P -6 2 M
;
_chemical_formula_sum "Si O2"
_cell_formula_units_Z 76
_cell_length_a 18.468755
_cell_length_b 18.468755
_cell_length_c 14.886399
_cell_angle_alpha 90.000000
_cell_angle_beta 90.000000
_cell_angle_gamma 120.000000
_cell_volume 4397.395495
_symmetry_space_group_name_H-M "P -6 2 M"
_symmetry_group_IT_number 189
_symmetry_cell_setting 'hexagonal'
loop_
_space_group_symop_operation_xyz
x,y,z
-x+y,-x,-z
-y,x-y,z
x,y,-z
-x+y,-x,z
-y,x-y,-z
x-y,-y,-z
-x,-x+y,-z
y,x,-z
y,x,z
x-y,-y,z
-x,-x+y,z
loop_
_atom_site_type_symbol
_atom_site_label
_atom_site_fract_x
_atom_site_fract_y
_atom_site_fract_z
Si Si1 0.836076 0.500265 0.106491
Si Si2 0.833958 0.332902 0.106192
Si Si3 0.333334 0.666668 0.390942
Si Si4 0.507332 0.334395 0.607211
Si Si5 0.470984 0.100292 0.600541
Si Si6 0.258274 0.903244 0.754004
Si Si7 0.263105 0.359432 0.747884
O O1 0.846630 0.422210 0.134521
O O2 0.739909 0.477577 0.119516
O O3 0.890492 0.581492 0.166174
O O4 0.854204 0.515149 0.000000
O O5 0.889387 0.304266 0.161188
O O6 0.851124 0.336954 0.000000
O O7 0.333334 0.666668 0.500000
O O8 0.268848 0.697159 0.364143
O O9 0.492136 0.323165 0.500000
O O10 0.563862 0.433761 0.624376
O O11 0.423514 0.295576 0.663981
O O12 0.471048 0.132438 0.500000
O O13 0.418106 0.120788 0.669705
O O14 0.423334 0.000000 0.597794
O O15 0.160667 0.835515 0.758426
O O16 0.284790 0.000000 0.746997
O O17 0.291011 0.291011 0.738254
#
# Coordination Sequence:
#
# PCOD9586209 Si02
#       7
#    12  12   4  12  12  12  12
#     4   9  18  32  49  72 104 138 169 198 225 261
#     4   9  17  30  50  75 103 136 169 196 224 262
#     4   9  18  30  45  66  97 140 178 198 219 258
#     4  10  19  31  47  71 104 137 168 199 226 261
#     4   9  17  30  49  72  99 132 165 195 231 275
#     4  10  21  36  52  70  94 123 158 203 249 292
#     4  11  23  36  51  71  94 123 159 199 249 301
#
# _framework density 17.282958000000001
#
# number of rings (size 3 to 8) (size 9 to 14) (size 15 to 20)
#    0.000    2.368    0.000    2.684    0.000    7.895 
#    0.000    1.579    0.000    0.316    0.000    0.000 
#    0.000    0.000    0.000   11.526    0.000    0.000 
#
# Total GULP energy -424319.115192 kJ/mol
# GULP energy per Si atom -5583.146253 kJ/mol
# Density = 1.724362 g / cm^3
# Si number density = 17.282958 Si / 1000 Ang^3
#
#
#
# Elastic Constant Matrix: (Units=GPa)
#
#
# Indices 1 2 3 4 5 6 
#
# 1 92.4644 66.9232 30.1698 0.0000 0.0000 0.0000
# 2 66.9232 92.4642 30.1697 0.0000 0.0000 0.0001
# 3 30.1698 30.1697 54.5115 0.0000 0.0000 0.0000
# 4 0.0000 0.0000 0.0000 15.7844 0.0000 0.0000
# 5 0.0000 0.0000 0.0000 0.0000 15.7844 0.0000
# 6 0.0000 0.0001 0.0000 0.0000 0.0000 12.7706
#
#
#
# Elastic Compliance Matrix: (Units=1/GPa)
#
#
# Indices 1 2 3 4 5 6 
#
# 1 0.023545 -0.015608 -0.004393 0.000000 0.000000 0.000000
# 2 -0.015608 0.023545 -0.004393 0.000000 0.000000 0.000000
# 3 -0.004393 -0.004393 0.023207 0.000000 0.000000 0.000000
# 4 0.000000 0.000000 0.000000 0.063354 0.000000 0.000000
# 5 0.000000 0.000000 0.000000 0.000000 0.063354 0.000000
# 6 0.000000 0.000000 0.000000 0.000000 0.000000 0.078305
#
#
# Mechanical properties :
#
#
# Convention : Reuss Voigt Hill
#
# Bulk Modulus (GPa) = 46.48988 54.88504 50.68746
# Shear Modulus (GPa) = 15.09362 16.34638 15.72000
#
# Velocity S-wave (km/s) = 2.95841 3.07874 3.01917
# Velocity P-wave (km/s) = 6.21508 6.66812 6.44558
#
# Compressibility (1/GPa) = 0.02151006
#
# Stress axis : x y z
#
# Youngs Moduli (GPa) = 42.47231 42.47225 43.09011
#
# Poissons Ratio (x) = 0.66290 0.18929
# Poissons Ratio (y) = 0.66290 0.18928
# Poissons Ratio (z) = 0.18657 0.18657
#
# Static dielectric constant tensor:
#      x y z
#    x 1.583710 0.000000 0.000000 
#    y 0.000000 1.583710 0.000000 
#    z 0.000000 0.000000 1.623110 
# 
# From -- ./inp_files/2740.got.cif
#   From: 2010.05.17/outbox.cif.g08.bks.cpg/sg189_2_cif.got.tgz:2740.got - 2010.05.20 12:14:34.
