data_PCOD9586279
_publ_section_title
;
Structure prediction by ZEFSAII (Michael W. Deem and Ramdas Pophale) SiO2 
 PCOD9586279
Probable space group: P -6 2 M
;
_chemical_formula_sum "Si O2"
_cell_formula_units_Z 60
_cell_length_a 20.878038
_cell_length_b 20.878038
_cell_length_c 7.444544
_cell_angle_alpha 90.000000
_cell_angle_beta 90.000000
_cell_angle_gamma 120.000000
_cell_volume 2810.270343
_symmetry_space_group_name_H-M "P -6 2 M"
_symmetry_group_IT_number 189
_symmetry_cell_setting 'hexagonal'
loop_
_space_group_symop_operation_xyz
x,y,z
-x+y,-x,-z
-y,x-y,z
x,y,-z
-x+y,-x,z
-y,x-y,-z
x-y,-y,-z
-x,-x+y,-z
y,x,-z
y,x,z
x-y,-y,z
-x,-x+y,z
loop_
_atom_site_type_symbol
_atom_site_label
_atom_site_fract_x
_atom_site_fract_y
_atom_site_fract_z
Si Si1 0.171372 0.419283 0.784375
Si Si2 0.083199 0.244956 0.714936
Si Si3 0.847791 0.512715 0.792706
Si Si4 0.000000 0.807815 0.719098
Si Si5 0.583474 0.498117 0.220169
Si Si6 0.000000 0.658645 0.283482
O O1 0.134089 0.332285 0.747392
O O2 0.255353 0.465408 0.713267
O O3 0.119845 0.451683 0.722239
O O4 0.175871 0.426466 0.000000
O O5 0.078347 0.236405 0.500000
O O6 0.123834 0.201152 0.781673
O O7 0.000000 0.212221 0.785003
O O8 0.864548 0.450915 0.716438
O O9 0.926810 0.587790 0.786452
O O10 0.825808 0.491578 0.000000
O O11 0.000000 0.810254 0.500000
O O12 0.000000 0.732928 0.768287
O O13 0.533519 0.533519 0.276643
O O14 0.581634 0.496882 0.000000
O O15 0.000000 0.654751 0.500000
#
# Coordination Sequence:
#
# PCOD9586279 Si02
#       6
#    12  12  12   6  12   6
#     4  10  20  33  53  78 102 133 173 212 253 303
#     4  10  20  35  54  75 103 136 170 212 260 308
#     4  10  19  33  53  77 104 133 169 210 254 305
#     4   9  18  33  51  75 103 132 165 208 260 305
#     4   9  17  31  50  71 101 134 162 203 253 297
#     4  11  19  31  55  79 103 130 165 214 260 301
#
# _framework density 21.350259999999999
#
# number of rings (size 3 to 8) (size 9 to 14) (size 15 to 20)
#    0.000    2.200    3.000    0.900    0.000    1.200 
#    1.800    1.500    0.000    0.000    0.000    0.000 
#    0.000    0.000    0.000    0.000    0.000    0.000 
#
# Total GULP energy -335038.582411 kJ/mol
# GULP energy per Si atom -5583.976374 kJ/mol
# Density = 2.130167 g / cm^3
# Si number density = 21.350260 Si / 1000 Ang^3
#
#
#
# Elastic Constant Matrix: (Units=GPa)
#
#
# Indices 1 2 3 4 5 6 
#
# 1 148.8868 69.2886 1.8317 0.0000 0.0000 0.0000
# 2 69.2886 148.8868 1.8317 0.0000 0.0000 0.0000
# 3 1.8317 1.8317 68.8501 0.0000 0.0000 0.0000
# 4 0.0000 0.0000 0.0000 1.6555 0.0000 0.0000
# 5 0.0000 0.0000 0.0000 0.0000 1.6555 0.0000
# 6 0.0000 0.0000 0.0000 0.0000 0.0000 39.7991
#
#
#
# Elastic Compliance Matrix: (Units=1/GPa)
#
#
# Indices 1 2 3 4 5 6 
#
# 1 0.008574 -0.003989 -0.000122 0.000000 0.000000 0.000000
# 2 -0.003989 0.008574 -0.000122 0.000000 0.000000 0.000000
# 3 -0.000122 -0.000122 0.014531 0.000000 0.000000 0.000000
# 4 0.000000 0.000000 0.000000 0.604064 0.000000 0.000000
# 5 0.000000 0.000000 0.000000 0.000000 0.604064 0.000000
# 6 0.000000 0.000000 0.000000 0.000000 0.000000 0.025126
#
#
# Mechanical properties :
#
#
# Convention : Reuss Voigt Hill
#
# Bulk Modulus (GPa) = 43.07770 56.94751 50.01260
# Shear Modulus (GPa) = 3.90278 28.20012 16.05145
#
# Velocity S-wave (km/s) = 1.35349 3.63827 2.74490
# Velocity P-wave (km/s) = 4.76057 6.66185 5.78979
#
# Compressibility (1/GPa) = 0.02321387
#
# Stress axis : x y z
#
# Youngs Moduli (GPa) = 116.62754 116.62754 68.81932
#
# Poissons Ratio (x) = 0.46520 0.00840
# Poissons Ratio (y) = 0.46520 0.00840
# Poissons Ratio (z) = 0.01423 0.01423
#
# Static dielectric constant tensor:
#      x y z
#    x 1.744590 0.000000 0.000000 
#    y 0.000000 1.744590 0.000000 
#    z 0.000000 0.000000 1.825810 
# 
# From -- ./inp_files/914.got.cif
#   From: 2010.05.17/outbox.cif.g08.bks.cpg/sg189_1_cif.got.tgz:914.got - 2010.05.20 12:14:34.
