data_PCOD9586276
_publ_section_title
;
Structure prediction by ZEFSAII (Michael W. Deem and Ramdas Pophale) SiO2 
 PCOD9586276
Probable space group: P -6 2 M
;
_chemical_formula_sum "Si O2"
_cell_formula_units_Z 72
_cell_length_a 24.200189
_cell_length_b 24.200189
_cell_length_c 8.474689
_cell_angle_alpha 90.000000
_cell_angle_beta 90.000000
_cell_angle_gamma 120.000000
_cell_volume 4298.252425
_symmetry_space_group_name_H-M "P -6 2 M"
_symmetry_group_IT_number 189
_symmetry_cell_setting 'hexagonal'
loop_
_space_group_symop_operation_xyz
x,y,z
-x+y,-x,-z
-y,x-y,z
x,y,-z
-x+y,-x,z
-y,x-y,-z
x-y,-y,-z
-x,-x+y,-z
y,x,-z
y,x,z
x-y,-y,z
-x,-x+y,z
loop_
_atom_site_type_symbol
_atom_site_label
_atom_site_fract_x
_atom_site_fract_y
_atom_site_fract_z
Si Si1 0.927250 0.260086 0.690835
Si Si2 0.593985 0.126998 0.309423
Si Si3 0.520619 0.668031 0.309362
Si Si4 0.406278 0.406278 0.692535
Si Si5 0.669346 0.863116 0.811314
Si Si6 0.000000 0.721193 0.688745
Si Si7 0.790679 0.522193 0.811219
O O1 0.926097 0.257964 0.500000
O O2 0.901579 0.308043 0.740104
O O3 0.875841 0.190451 0.753046
O O4 0.000000 0.287570 0.742931
O O5 0.593130 0.126447 0.500000
O O6 0.532405 0.130410 0.254954
O O7 0.592521 0.062752 0.255145
O O8 0.661259 0.184776 0.253644
O O9 0.520173 0.668082 0.500000
O O10 0.504757 0.721262 0.249255
O O11 0.405615 0.405615 0.500000
O O12 0.342837 0.342837 0.745663
O O13 0.714374 0.934040 0.747847
O O14 0.595855 0.837878 0.757611
O O15 0.669989 0.864233 0.000000
O O16 0.000000 0.721251 0.500000
O O17 0.791121 0.521520 0.000000
#
# Coordination Sequence:
#
# PCOD9586276 Si02
#       7
#    12  12  12   6  12   6  12
#     4   9  18  33  53  77 103 133 169 209 251 295
#     4  10  19  33  52  74  98 125 164 211 260 312
#     4   9  19  33  52  73  95 126 166 212 257 306
#     4   9  18  29  49  77 101 125 157 204 257 306
#     4  10  20  33  50  74 105 137 167 201 245 301
#     4  11  19  31  53  79 105 135 167 206 251 298
#     4  10  20  34  50  67  94 129 165 207 255 305
#
# _framework density 16.750993999999999
#
# number of rings (size 3 to 8) (size 9 to 14) (size 15 to 20)
#    0.000    2.333    1.667    1.250    1.167    2.333 
#    1.000    0.417    0.000    0.000    0.000    0.000 
#    0.833    0.000    1.500    0.000    1.500    0.000 
#
# Total GULP energy -401644.768173 kJ/mol
# GULP energy per Si atom -5578.399558 kJ/mol
# Density = 1.671287 g / cm^3
# Si number density = 16.750994 Si / 1000 Ang^3
#
#
#
# Elastic Constant Matrix: (Units=GPa)
#
#
# Indices 1 2 3 4 5 6 
#
# 1 120.7828 79.3678 22.1541 0.0000 0.0000 0.0000
# 2 79.3678 120.7828 22.1541 0.0000 0.0000 0.0000
# 3 22.1541 22.1541 16.1282 0.0000 0.0000 0.0000
# 4 0.0000 0.0000 0.0000 12.1207 0.0000 0.0000
# 5 0.0000 0.0000 0.0000 0.0000 12.1207 0.0000
# 6 0.0000 0.0000 0.0000 0.0000 0.0000 20.7075
#
#
#
# Elastic Compliance Matrix: (Units=1/GPa)
#
#
# Indices 1 2 3 4 5 6 
#
# 1 0.015663 -0.008483 -0.009862 0.000000 0.000000 0.000000
# 2 -0.008483 0.015663 -0.009862 0.000000 0.000000 0.000000
# 3 -0.009862 -0.009862 0.089096 0.000000 0.000000 0.000000
# 4 0.000000 0.000000 0.000000 0.082504 0.000000 0.000000
# 5 0.000000 0.000000 0.000000 0.000000 0.082504 0.000000
# 6 0.000000 0.000000 0.000000 0.000000 0.000000 0.048292
#
#
# Mechanical properties :
#
#
# Convention : Reuss Voigt Hill
#
# Bulk Modulus (GPa) = 15.62315 56.11617 35.86966
# Shear Modulus (GPa) = 12.15158 17.92430 15.03794
#
# Velocity S-wave (km/s) = 2.69629 3.27470 2.99947
# Velocity P-wave (km/s) = 4.36352 6.91890 5.78409
#
# Compressibility (1/GPa) = 0.06400759
#
# Stress axis : x y z
#
# Youngs Moduli (GPa) = 63.84636 63.84636 11.22387
#
# Poissons Ratio (x) = 0.54162 0.11069
# Poissons Ratio (y) = 0.54162 0.11069
# Poissons Ratio (z) = 0.62964 0.62964
#
# Static dielectric constant tensor:
#      x y z
#    x 1.555860 0.000000 0.000000 
#    y 0.000000 1.555860 0.000000 
#    z 0.000000 0.000000 1.565090 
# 
# From -- ./inp_files/1319.got.cif
#   From: 2010.05.17/outbox.cif.g08.bks.cpg/sg189_1_cif.got.tgz:1319.got - 2010.05.20 12:14:34.
