data_PCOD9586860
_publ_section_title
;
Structure prediction by ZEFSAII (Michael W. Deem and Ramdas Pophale) SiO2 
 PCOD9586860
Probable space group: P -6 2 C
;
_chemical_formula_sum "Si O2"
_cell_formula_units_Z 42
_cell_length_a 8.677343
_cell_length_b 8.677343
_cell_length_c 32.828896
_cell_angle_alpha 90.000000
_cell_angle_beta 90.000000
_cell_angle_gamma 120.000000
_cell_volume 2140.722823
_symmetry_space_group_name_H-M "P -6 2 C"
_symmetry_group_IT_number 190
_symmetry_cell_setting 'hexagonal'
loop_
_space_group_symop_operation_xyz
x,y,z
-x+y,-x,1/2-z
-y,x-y,z
x,y,1/2-z
-x+y,-x,z
-y,x-y,1/2-z
x-y,-y,-z
-x,-x+y,-z
y,x,-z
y,x,1/2+z
x-y,-y,1/2+z
-x,-x+y,1/2+z
loop_
_atom_site_type_symbol
_atom_site_label
_atom_site_fract_x
_atom_site_fract_y
_atom_site_fract_z
Si Si1 0.008640 0.341911 0.627947
Si Si2 0.010928 0.678405 0.161453
Si Si3 0.147035 0.697761 0.250000
Si Si4 0.533251 0.661070 0.963039
O O1 0.189727 0.378711 0.649630
O O2 0.044448 0.383170 0.580255
O O3 0.857410 0.142495 0.637437
O O4 0.949468 0.474502 0.646965
O O5 0.054033 0.709577 0.209228
O O6 0.358220 0.843887 0.250000
O O7 0.501940 0.829838 0.965088
O O8 0.641066 0.641066 0.000000
#
# Coordination Sequence:
#
# PCOD9586860 Si02
#       4
#    12  12   6  12
#     4  12  24  45  65 105 135 188 223 283 346 411
#     4  12  24  42  72  94 144 180 228 288 339 405
#     4  10  20  42  66 104 130 178 238 276 342 408
#     4  10  23  41  65 100 135 173 227 277 336 412
#
# _framework density 19.619541999999999
#
# number of rings (size 3 to 8) (size 9 to 14) (size 15 to 20)
#    0.857    0.000    5.714    1.714    4.000    2.286 
#    0.000    0.000    0.000    0.571    0.000    0.000 
#    0.000    0.000    0.000    0.000    0.000    0.000 
#
# Total GULP energy -234565.831828 kJ/mol
# GULP energy per Si atom -5584.900758 kJ/mol
# Density = 1.957489 g / cm^3
# Si number density = 19.619542 Si / 1000 Ang^3
#
#
#
# Elastic Constant Matrix: (Units=GPa)
#
#
# Indices 1 2 3 4 5 6 
#
# 1 61.6237 -3.2230 47.8693 0.0000 0.0000 0.0000
# 2 -3.2230 61.6237 47.8693 0.0000 0.0000 0.0000
# 3 47.8693 47.8693 200.3473 0.0000 0.0000 0.0000
# 4 0.0000 0.0000 0.0000 8.9179 0.0000 0.0000
# 5 0.0000 0.0000 0.0000 0.0000 8.9179 0.0000
# 6 0.0000 0.0000 0.0000 0.0000 0.0000 32.4234
#
#
#
# Elastic Compliance Matrix: (Units=1/GPa)
#
#
# Indices 1 2 3 4 5 6 
#
# 1 0.021785 0.006364 -0.006726 0.000000 0.000000 0.000000
# 2 0.006364 0.021785 -0.006726 0.000000 0.000000 0.000000
# 3 -0.006726 -0.006726 0.008205 0.000000 0.000000 0.000000
# 4 0.000000 0.000000 0.000000 0.112135 0.000000 0.000000
# 5 0.000000 0.000000 0.000000 0.000000 0.112135 0.000000
# 6 0.000000 0.000000 0.000000 0.000000 0.000000 0.030842
#
#
# Mechanical properties :
#
#
# Convention : Reuss Voigt Hill
#
# Bulk Modulus (GPa) = 26.59566 56.51396 41.55481
# Shear Modulus (GPa) = 14.98828 25.45709 20.22269
#
# Velocity S-wave (km/s) = 2.76696 3.60604 3.21400
# Velocity P-wave (km/s) = 4.87783 6.79746 5.91603
#
# Compressibility (1/GPa) = 0.03760012
#
# Stress axis : x y z
#
# Youngs Moduli (GPa) = 45.90357 45.90357 121.87334
#
# Poissons Ratio (x) = -0.29212 0.81967
# Poissons Ratio (y) = -0.29212 0.81967
# Poissons Ratio (z) = 0.30873 0.30873
#
# Static dielectric constant tensor:
#      x y z
#    x 1.682340 0.000000 0.000000 
#    y 0.000000 1.682340 0.000000 
#    z 0.000000 0.000000 1.641500 
# 
# From -- ./inp_files/5074.got.cif
#   From: 2010.05.17/outbox.cif.g08.bks.cpg/sg190_3_cif.got.tgz:5074.got - 2010.05.20 12:16:56.
