data_PCOD9586196
_publ_section_title
;
Structure prediction by ZEFSAII (Michael W. Deem and Ramdas Pophale) SiO2 
 PCOD9586196
Probable space group: P -6 2 M
;
_chemical_formula_sum "Si O2"
_cell_formula_units_Z 76
_cell_length_a 19.554352
_cell_length_b 19.554352
_cell_length_c 12.645650
_cell_angle_alpha 90.000000
_cell_angle_beta 90.000000
_cell_angle_gamma 120.000000
_cell_volume 4187.536896
_symmetry_space_group_name_H-M "P -6 2 M"
_symmetry_group_IT_number 189
_symmetry_cell_setting 'hexagonal'
loop_
_space_group_symop_operation_xyz
x,y,z
-x+y,-x,-z
-y,x-y,z
x,y,-z
-x+y,-x,z
-y,x-y,-z
x-y,-y,-z
-x,-x+y,-z
y,x,-z
y,x,z
x-y,-y,z
-x,-x+y,z
loop_
_atom_site_type_symbol
_atom_site_label
_atom_site_fract_x
_atom_site_fract_y
_atom_site_fract_z
Si Si1 0.870352 0.664645 0.622726
Si Si2 0.545682 0.452176 0.384437
Si Si3 0.397737 0.094519 0.298183
Si Si4 0.743504 0.516139 0.876731
Si Si5 0.333334 0.666667 0.128534
Si Si6 0.907474 0.563569 0.217981
Si Si7 0.916897 0.085334 0.627906
O O1 0.888732 0.662567 0.500000
O O2 0.778005 0.636635 0.636891
O O3 0.899745 0.616554 0.690804
O O4 0.911010 0.753160 0.665708
O O5 0.544506 0.416371 0.500000
O O6 0.483341 0.483341 0.389735
O O7 0.629633 0.528376 0.362646
O O8 0.518248 0.398821 0.280138
O O9 0.432602 0.148354 0.192494
O O10 0.337497 0.000000 0.281931
O O11 0.698959 0.424328 0.839611
O O12 0.837785 0.549008 0.862686
O O13 0.725780 0.518158 0.000000
O O14 0.333334 0.666668 0.000000
O O15 0.000000 0.605026 0.182440
O O16 0.916786 0.092763 0.500000
O O17 0.000000 0.153200 0.668719
O O18 0.904638 0.000000 0.650604
#
# Coordination Sequence:
#
# PCOD9586196 Si02
#       7
#    12  12  12  12   4  12  12
#     4  10  19  30  46  69  99 134 167 203 248 297
#     4   9  17  30  49  72 100 131 159 195 243 295
#     4  10  20  33  50  74 102 133 173 213 252 306
#     4  10  21  36  55  76  99 133 172 217 272 313
#     4   9  18  36  57  75  97 122 154 198 255 324
#     4  10  20  33  50  74 102 133 173 213 252 306
#     4   9  16  25  38  57  83 117 155 193 233 278
#
# _framework density 18.149094000000002
#
# number of rings (size 3 to 8) (size 9 to 14) (size 15 to 20)
#    0.000    2.368    0.000    3.000    0.000    4.421 
#    0.000    0.000    0.000    5.684    0.000    2.211 
#    0.000    0.000    0.000    0.000    0.000   47.053 
#
# Total GULP energy -423092.812578 kJ/mol
# GULP energy per Si atom -5567.010692 kJ/mol
# Density = 1.810779 g / cm^3
# Si number density = 18.149094 Si / 1000 Ang^3
#
#
#
# Elastic Constant Matrix: (Units=GPa)
#
#
# Indices 1 2 3 4 5 6 
#
# 1 62.8438 5.3922 -6.1396 0.0000 0.0000 -0.0001
# 2 5.3922 62.8432 -6.1396 0.0000 0.0000 -0.0001
# 3 -6.1396 -6.1396 37.0546 0.0000 0.0000 0.0000
# 4 0.0000 0.0000 0.0000 6.7810 0.0000 0.0000
# 5 0.0000 0.0000 0.0000 0.0000 6.7811 0.0000
# 6 -0.0001 -0.0001 0.0000 0.0000 0.0000 28.7257
#
#
#
# Elastic Compliance Matrix: (Units=1/GPa)
#
#
# Indices 1 2 3 4 5 6 
#
# 1 0.016256 -0.001150 0.002503 0.000000 0.000000 0.000000
# 2 -0.001150 0.016256 0.002503 0.000000 0.000000 0.000000
# 3 0.002503 0.002503 0.027817 0.000000 0.000000 0.000000
# 4 0.000000 0.000000 0.000000 0.147472 0.000000 0.000000
# 5 0.000000 0.000000 0.000000 0.000000 0.147469 0.000000
# 6 0.000000 0.000000 0.000000 0.000000 0.000000 0.034812
#
#
# Mechanical properties :
#
#
# Convention : Reuss Voigt Hill
#
# Bulk Modulus (GPa) = 14.69746 16.55195 15.62471
# Shear Modulus (GPa) = 12.34415 19.76612 16.05514
#
# Velocity S-wave (km/s) = 2.61080 3.30373 2.97749
# Velocity P-wave (km/s) = 4.14779 4.86750 4.52199
#
# Compressibility (1/GPa) = 0.06803895
#
# Stress axis : x y z
#
# Youngs Moduli (GPa) = 61.51698 61.51631 35.94973
#
# Poissons Ratio (x) = 0.07076 -0.08998
# Poissons Ratio (y) = 0.07076 -0.08998
# Poissons Ratio (z) = -0.15397 -0.15397
#
# Static dielectric constant tensor:
#      x y z
#    x 1.654400 0.000000 0.000000 
#    y 0.000000 1.654400 0.000000 
#    z 0.000000 0.000000 1.616020 
# 
# From -- ./inp_files/2713.got.cif
#   From: 2010.05.17/outbox.cif.g08.bks.cpg/sg189_2_cif.got.tgz:2713.got - 2010.05.20 12:14:34.
