data_PCOD9586507
_publ_section_title
;
Structure prediction by ZEFSAII (Michael W. Deem and Ramdas Pophale) SiO2 
 PCOD9586507
Probable space group: P -6 2 M
;
_chemical_formula_sum "Si O2"
_cell_formula_units_Z 46
_cell_length_a 14.704854
_cell_length_b 14.704854
_cell_length_c 13.044507
_cell_angle_alpha 90.000000
_cell_angle_beta 90.000000
_cell_angle_gamma 120.000000
_cell_volume 2442.754014
_symmetry_space_group_name_H-M "P -6 2 M"
_symmetry_group_IT_number 189
_symmetry_cell_setting 'hexagonal'
loop_
_space_group_symop_operation_xyz
x,y,z
-x+y,-x,-z
-y,x-y,z
x,y,-z
-x+y,-x,z
-y,x-y,-z
x-y,-y,-z
-x,-x+y,-z
y,x,-z
y,x,z
x-y,-y,z
-x,-x+y,z
loop_
_atom_site_type_symbol
_atom_site_label
_atom_site_fract_x
_atom_site_fract_y
_atom_site_fract_z
Si Si1 0.583554 0.707326 0.385254
Si Si2 0.333334 0.666668 0.880627
Si Si3 0.116533 0.550261 0.216638
Si Si4 0.126094 0.252786 0.000000
Si Si5 0.119066 0.769101 0.212754
O O1 0.564216 0.733002 0.500000
O O2 0.663266 0.663266 0.392075
O O3 0.479831 0.613566 0.331088
O O4 0.631800 0.802487 0.305219
O O5 0.352714 0.779204 0.842920
O O6 0.333334 0.666668 0.000000
O O7 0.114481 0.657530 0.206750
O O8 0.000000 0.458315 0.183229
O O9 0.170785 0.321709 0.896224
O O10 0.174240 0.174240 0.000000
O O11 0.000000 0.189025 0.000000
O O12 0.000000 0.741637 0.234654
#
# Coordination Sequence:
#
# PCOD9586507 Si02
#       5
#    12   4  12   6  12
#     4  10  21  38  59  83 115 156 201 249 303 364
#     4  12  24  39  61  89 118 156 204 241 296 364
#     4  10  22  40  57  82 118 152 195 245 297 356
#     4  10  21  38  62  90 124 162 203 250 306 372
#     4  10  21  37  59  89 119 154 199 248 303 360
#
# _framework density 18.831202999999999
#
# number of rings (size 3 to 8) (size 9 to 14) (size 15 to 20)
#    0.000    1.826    2.609    0.913    1.826    2.087 
#    0.000    2.609    0.000    0.522    0.000    0.000 
#    0.000    0.000    0.000    0.000    0.000    0.000 
#
# Total GULP energy -256360.338494 kJ/mol
# GULP energy per Si atom -5573.050837 kJ/mol
# Density = 1.878834 g / cm^3
# Si number density = 18.831203 Si / 1000 Ang^3
#
#
#
# Elastic Constant Matrix: (Units=GPa)
#
#
# Indices 1 2 3 4 5 6 
#
# 1 31.6355 91.5992 67.9624 0.0013 0.0002 -0.0021
# 2 91.5992 31.6362 67.9568 -0.0013 -0.0003 0.0006
# 3 67.9624 67.9568 169.0520 -0.0003 -0.0001 -0.0003
# 4 0.0013 -0.0013 -0.0003 19.5105 0.0000 0.0002
# 5 0.0002 -0.0003 -0.0001 0.0000 19.5107 -0.0013
# 6 -0.0021 0.0006 -0.0003 0.0002 -0.0013 -29.9223
#
#
#
# Elastic Compliance Matrix: (Units=1/GPa)
#
#
# Indices 1 2 3 4 5 6 
#
# 1 -0.001050 0.015628 -0.005860 0.000001 0.000000 0.000000
# 2 0.015628 -0.001049 -0.005861 -0.000001 0.000000 -0.000001
# 3 -0.005860 -0.005861 0.010627 0.000000 0.000000 0.000000
# 4 0.000001 -0.000001 0.000000 0.051254 0.000000 0.000000
# 5 0.000000 0.000000 0.000000 0.000000 0.051254 -0.000002
# 6 0.000000 -0.000001 0.000000 0.000000 -0.000002 -0.033420
#
#
# Mechanical properties :
#
#
# Convention : Reuss Voigt Hill
#
# Bulk Modulus (GPa) = 61.19301 76.37340 68.78320
# Shear Modulus (GPa) = 66.44374 2.14012 34.29193
#
# Velocity S-wave (km/s) = 5.94647 1.06721 4.27197
# Velocity P-wave (km/s) = 8.92823 6.49334 7.80631
#
# Compressibility (1/GPa) = 0.01634174
#
# Stress axis : x y z
#
# Youngs Moduli (GPa) = -952.48596 -953.63088 94.09747
#
# Poissons Ratio (x) = 14.90296 0.55141
# Poissons Ratio (y) = 14.88507 0.55151
# Poissons Ratio (z) = -5.58159 -5.58931
#
# Static dielectric constant tensor:
#      x y z
#    x 1.729880 0.000000 0.000000 
#    y 0.000000 1.729830 0.000000 
#    z 0.000000 0.000000 1.635070 
# 
# From -- ./inp_files/1696.got.cif
#   From: 2010.05.17/outbox.cif.g08.bks.cpg/sg189_1_cif.got.tgz:1696.got - 2010.05.20 12:14:34.
