data_PCOD9586154
_publ_section_title
;
Structure prediction by ZEFSAII (Michael W. Deem and Ramdas Pophale) SiO2 
 PCOD9586154
Probable space group: P -6 2 M
;
_chemical_formula_sum "Si O2"
_cell_formula_units_Z 96
_cell_length_a 15.035784
_cell_length_b 15.035784
_cell_length_c 26.334876
_cell_angle_alpha 90.000000
_cell_angle_beta 90.000000
_cell_angle_gamma 120.000000
_cell_volume 5156.013737
_symmetry_space_group_name_H-M "P -6 2 M"
_symmetry_group_IT_number 189
_symmetry_cell_setting 'hexagonal'
loop_
_space_group_symop_operation_xyz
x,y,z
-x+y,-x,-z
-y,x-y,z
x,y,-z
-x+y,-x,z
-y,x-y,-z
x-y,-y,-z
-x,-x+y,-z
y,x,-z
y,x,z
x-y,-y,z
-x,-x+y,z
loop_
_atom_site_type_symbol
_atom_site_label
_atom_site_fract_x
_atom_site_fract_y
_atom_site_fract_z
Si Si1 0.120786 0.878206 0.940568
Si Si2 0.460678 0.578751 0.203457
Si Si3 0.122316 0.735323 0.762429
Si Si4 0.371330 0.123594 0.849983
Si Si5 0.451491 0.277335 0.441852
Si Si6 0.887507 0.114702 0.561736
Si Si7 0.611075 0.494429 0.408802
Si Si8 0.591031 0.705947 0.698808
O O1 0.190442 0.853154 0.903640
O O2 0.000000 0.812034 0.928034
O O3 0.161604 0.000000 0.934305
O O4 0.133483 0.861733 0.000000
O O5 0.500588 0.500588 0.189298
O O6 0.343440 0.504007 0.218995
O O7 0.509242 0.666348 0.160135
O O8 0.519480 0.638599 0.254434
O O9 0.162034 0.820829 0.806597
O O10 0.180567 0.794774 0.711514
O O11 0.000000 0.673650 0.756646
O O12 0.307727 0.000000 0.842617
O O13 0.446739 0.308095 0.500000
O O14 0.336791 0.203862 0.421794
O O15 0.517072 0.379298 0.409974
O O16 0.500928 0.204032 0.441235
O O17 0.888908 0.121476 0.500000
O O18 0.000000 0.197843 0.580306
O O19 0.860032 0.000000 0.574691
O O20 0.569860 0.569860 0.426968
O O21 0.658015 0.531088 0.352984
O O22 0.688574 0.688574 0.699122
#
# Coordination Sequence:
#
# PCOD9586154 Si02
#       8
#    12  12  12  12  12  12  12  12
#     4   9  16  26  44  72 107 147 191 235 277 325
#     4   8  16  31  49  72 102 132 170 221 269 319
#     4  10  18  31  55  81 107 140 179 226 278 333
#     4   9  17  31  48  72 110 148 183 228 280 333
#     4  11  23  38  57  83 111 143 182 217 260 320
#     4   9  17  31  53  80 107 134 167 207 249 295
#     4  11  24  41  61  82 111 147 180 224 274 323
#     4   9  20  38  56  79 110 139 174 218 271 330
#
# _framework density 18.619033999999999
#
# number of rings (size 3 to 8) (size 9 to 14) (size 15 to 20)
#    0.000    2.500    0.000    3.125    1.750    3.000 
#    6.000    0.625    0.000    3.500    0.000    3.500 
#    0.000    0.000    0.000    0.000    0.000    0.000 
#
# Total GULP energy -535065.635237 kJ/mol
# GULP energy per Si atom -5573.600367 kJ/mol
# Density = 1.857666 g / cm^3
# Si number density = 18.619034 Si / 1000 Ang^3
#
#
#
# Elastic Constant Matrix: (Units=GPa)
#
#
# Indices 1 2 3 4 5 6 
#
# 1 94.6231 45.4221 31.6628 0.0000 0.0000 0.0000
# 2 45.4221 94.6231 31.6628 0.0000 0.0000 0.0000
# 3 31.6628 31.6628 70.0153 0.0000 0.0000 0.0000
# 4 0.0000 0.0000 0.0000 -46.4609 0.0000 0.0000
# 5 0.0000 0.0000 0.0000 0.0000 -46.4609 0.0000
# 6 0.0000 0.0000 0.0000 0.0000 0.0000 24.6005
#
#
#
# Elastic Compliance Matrix: (Units=1/GPa)
#
#
# Indices 1 2 3 4 5 6 
#
# 1 0.014650 -0.005674 -0.004059 0.000000 0.000000 0.000000
# 2 -0.005674 0.014650 -0.004059 0.000000 0.000000 0.000000
# 3 -0.004059 -0.004059 0.017954 0.000000 0.000000 0.000000
# 4 0.000000 0.000000 0.000000 -0.021523 0.000000 0.000000
# 5 0.000000 0.000000 0.000000 0.000000 -0.021523 0.000000
# 6 0.000000 0.000000 0.000000 0.000000 0.000000 0.040650
#
#
# Mechanical properties :
#
#
# Convention : Reuss Voigt Hill
#
# Bulk Modulus (GPa) = 50.84087 52.97299 51.90693
# Shear Modulus (GPa) = 63.29161 -3.63002 29.83079
#
# Velocity S-wave (km/s) = 5.83667 -1.39781 4.00705
# Velocity P-wave (km/s) = 8.53156 5.08995 7.02478
#
# Compressibility (1/GPa) = 0.01966921
#
# Stress axis : x y z
#
# Youngs Moduli (GPa) = 68.25747 68.25747 55.69803
#
# Poissons Ratio (x) = 0.38732 0.22609
# Poissons Ratio (y) = 0.38732 0.22609
# Poissons Ratio (z) = 0.27707 0.27707
#
# Static dielectric constant tensor:
#      x y z
#    x 1.676140 0.000000 0.000000 
#    y 0.000000 1.676140 0.000000 
#    z 0.000000 0.000000 1.647760 
# 
# From -- ./inp_files/3721.got.cif
#   From: 2010.05.17/outbox.cif.g08.bks.cpg/sg189_2_cif.got.tgz:3721.got - 2010.05.20 12:14:34.
