data_PCOD9586816
_publ_section_title
;
Structure prediction by ZEFSAII (Michael W. Deem and Ramdas Pophale) SiO2 
 PCOD9586816
Probable space group: P -6 2 C
;
_chemical_formula_sum "Si O2"
_cell_formula_units_Z 60
_cell_length_a 15.138266
_cell_length_b 15.138266
_cell_length_c 14.340778
_cell_angle_alpha 90.000000
_cell_angle_beta 90.000000
_cell_angle_gamma 120.000000
_cell_volume 2846.135739
_symmetry_space_group_name_H-M "P -6 2 C"
_symmetry_group_IT_number 190
_symmetry_cell_setting 'hexagonal'
loop_
_space_group_symop_operation_xyz
x,y,z
-x+y,-x,1/2-z
-y,x-y,z
x,y,1/2-z
-x+y,-x,z
-y,x-y,1/2-z
x-y,-y,-z
-x,-x+y,-z
y,x,-z
y,x,1/2+z
x-y,-y,1/2+z
-x,-x+y,1/2+z
loop_
_atom_site_type_symbol
_atom_site_label
_atom_site_fract_x
_atom_site_fract_y
_atom_site_fract_z
Si Si1 0.265184 0.269221 0.358370
Si Si2 0.218312 0.846188 0.644815
Si Si3 0.490309 0.850487 0.361789
Si Si4 0.948730 0.183981 0.908018
Si Si5 0.838250 0.310407 0.537887
O O1 0.269655 0.248027 0.250000
O O2 0.332051 0.225118 0.403327
O O3 0.321367 0.390102 0.370549
O O4 0.145137 0.220769 0.378509
O O5 0.230170 0.817163 0.750000
O O6 0.299449 0.843181 0.573709
O O7 0.219481 0.953910 0.650413
O O8 0.466612 0.832960 0.250000
O O9 0.477160 0.750963 0.415616
O O10 0.421035 0.886087 0.416092
O O11 0.896684 0.252181 0.928927
O O12 0.000000 0.170359 0.000000
#
# Coordination Sequence:
#
# PCOD9586816 Si02
#       5
#    12  12  12  12  12
#     4   9  19  37  61  88 122 166 208 254 311 377
#     4  10  21  40  60  87 131 172 205 250 313 383
#     4  10  20  36  62  91 118 151 202 266 321 365
#     4   9  19  35  59  88 119 159 206 258 312 364
#     4  10  21  38  60  91 119 155 205 265 316 368
#
# _framework density 21.081215
#
# number of rings (size 3 to 8) (size 9 to 14) (size 15 to 20)
#    0.000    2.400    0.000    1.600    0.000    9.600 
#   12.000    1.000    0.000    0.000    0.000    0.000 
#    0.000    0.000    0.000    0.000    0.000    0.000 
#
# Total GULP energy -334174.513725 kJ/mol
# GULP energy per Si atom -5569.575229 kJ/mol
# Density = 2.103323 g / cm^3
# Si number density = 21.081215 Si / 1000 Ang^3
#
#
#
# Elastic Constant Matrix: (Units=GPa)
#
#
# Indices 1 2 3 4 5 6 
#
# 1 52.0756 24.5154 39.3411 0.0000 0.0000 0.0000
# 2 24.5154 52.0756 39.3411 0.0000 0.0000 0.0000
# 3 39.3411 39.3411 131.2726 0.0000 0.0000 0.0000
# 4 0.0000 0.0000 0.0000 29.9899 0.0000 0.0000
# 5 0.0000 0.0000 0.0000 0.0000 29.9899 0.0000
# 6 0.0000 0.0000 0.0000 0.0000 0.0000 13.7801
#
#
#
# Elastic Compliance Matrix: (Units=1/GPa)
#
#
# Indices 1 2 3 4 5 6 
#
# 1 0.027574 -0.008710 -0.005653 0.000000 0.000000 0.000000
# 2 -0.008710 0.027574 -0.005653 0.000000 0.000000 0.000000
# 3 -0.005653 -0.005653 0.011006 0.000000 0.000000 0.000000
# 4 0.000000 0.000000 0.000000 0.033345 0.000000 0.000000
# 5 0.000000 0.000000 0.000000 0.000000 0.033345 0.000000
# 6 0.000000 0.000000 0.000000 0.000000 0.000000 0.072569
#
#
# Mechanical properties :
#
#
# Convention : Reuss Voigt Hill
#
# Bulk Modulus (GPa) = 38.28346 49.09099 43.68723
# Shear Modulus (GPa) = 19.67318 23.56704 21.62011
#
# Velocity S-wave (km/s) = 3.05816 3.34715 3.20592
# Velocity P-wave (km/s) = 5.53798 6.18668 5.87130
#
# Compressibility (1/GPa) = 0.02612094
#
# Stress axis : x y z
#
# Youngs Moduli (GPa) = 36.26579 36.26579 90.85734
#
# Poissons Ratio (x) = 0.31588 0.51365
# Poissons Ratio (y) = 0.31588 0.51365
# Poissons Ratio (z) = 0.20502 0.20502
#
# Static dielectric constant tensor:
#      x y z
#    x 1.805390 0.000000 0.000000 
#    y 0.000000 1.805390 0.000000 
#    z 0.000000 0.000000 1.827770 
# 
# From -- ./inp_files/2807.got.cif
#   From: 2010.05.17/outbox.cif.g08.bks.cpg/sg190_2_cif.got.tgz:2807.got - 2010.05.20 12:16:56.
