data_PCOD9586549
_publ_section_title
;
Structure prediction by ZEFSAII (Michael W. Deem and Ramdas Pophale) SiO2 
 PCOD9586549
Probable space group: P -6 2 M
;
_chemical_formula_sum "Si O2"
_cell_formula_units_Z 26
_cell_length_a 13.840391
_cell_length_b 13.840391
_cell_length_c 7.951344
_cell_angle_alpha 90.000000
_cell_angle_beta 90.000000
_cell_angle_gamma 120.000000
_cell_volume 1319.070152
_symmetry_space_group_name_H-M "P -6 2 M"
_symmetry_group_IT_number 189
_symmetry_cell_setting 'hexagonal'
loop_
_space_group_symop_operation_xyz
x,y,z
-x+y,-x,-z
-y,x-y,z
x,y,-z
-x+y,-x,z
-y,x-y,-z
x-y,-y,-z
-x,-x+y,-z
y,x,-z
y,x,z
x-y,-y,z
-x,-x+y,z
loop_
_atom_site_type_symbol
_atom_site_label
_atom_site_fract_x
_atom_site_fract_y
_atom_site_fract_z
Si Si1 0.676889 0.464064 0.500000
Si Si2 0.753770 0.623359 0.189366
Si Si3 0.224067 0.224067 0.300896
Si Si4 0.000000 0.000000 0.796960
O O1 0.775597 0.432920 0.500000
O O2 0.689284 0.533728 0.333838
O O3 0.717851 0.717851 0.202739
O O4 0.885583 0.679992 0.222071
O O5 0.726469 0.577533 0.000000
O O6 0.242386 0.242386 0.500000
O O7 0.109187 0.109187 0.268136
O O8 0.000000 0.000000 0.000000
#
# Coordination Sequence:
#
# PCOD9586549 Si02
#       4
#     6  12   6   2
#     4  10  25  47  67  85 122 170 218 282 320 360
#     4  11  23  42  68  99 134 170 210 260 323 395
#     4  12  22  36  62  95 136 176 208 253 327 404
#     4  12  22  32  52  96 139 179 208 244 326 406
#
# _framework density 19.710854000000001
#
# number of rings (size 3 to 8) (size 9 to 14) (size 15 to 20)
#    0.462    0.462    4.615    3.462    0.000    1.846 
#    8.308    0.000    0.000    0.000    0.000    0.000 
#    0.000    0.000    0.000    0.000    0.000    0.000 
#
# Total GULP energy -145260.131949 kJ/mol
# GULP energy per Si atom -5586.928152 kJ/mol
# Density = 1.966599 g / cm^3
# Si number density = 19.710854 Si / 1000 Ang^3
#
#
#
# Elastic Constant Matrix: (Units=GPa)
#
#
# Indices 1 2 3 4 5 6 
#
# 1 50.9060 -11.6126 34.7931 0.0000 0.0000 0.0000
# 2 -11.6126 50.9060 34.7931 0.0000 0.0000 0.0000
# 3 34.7931 34.7931 187.2496 0.0000 0.0000 0.0000
# 4 0.0000 0.0000 0.0000 -2.9768 0.0000 0.0000
# 5 0.0000 0.0000 0.0000 0.0000 -2.9768 0.0000
# 6 0.0000 0.0000 0.0000 0.0000 0.0000 31.2593
#
#
#
# Elastic Compliance Matrix: (Units=1/GPa)
#
#
# Indices 1 2 3 4 5 6 
#
# 1 0.026963 0.010968 -0.007048 0.000000 0.000000 0.000000
# 2 0.010968 0.026963 -0.007048 0.000000 0.000000 0.000000
# 3 -0.007048 -0.007048 0.007960 0.000000 0.000000 0.000000
# 4 0.000000 0.000000 0.000000 -0.335929 0.000000 0.000000
# 5 0.000000 0.000000 0.000000 0.000000 -0.335929 0.000000
# 6 0.000000 0.000000 0.000000 0.000000 0.000000 0.031991
#
#
# Mechanical properties :
#
#
# Convention : Reuss Voigt Hill
#
# Bulk Modulus (GPa) = 17.97592 45.00099 31.48845
# Shear Modulus (GPa) = -9.03862 20.46698 5.71418
#
# Velocity S-wave (km/s) = -2.14373 3.22586 1.70449
# Velocity P-wave (km/s) = 1.73557 6.06259 4.45910
#
# Compressibility (1/GPa) = 0.05562998
#
# Stress axis : x y z
#
# Youngs Moduli (GPa) = 37.08749 37.08749 125.63297
#
# Poissons Ratio (x) = -0.40678 0.88547
# Poissons Ratio (y) = -0.40678 0.88547
# Poissons Ratio (z) = 0.26140 0.26140
#
# Static dielectric constant tensor:
#      x y z
#    x 1.669960 0.000000 0.000000 
#    y 0.000000 1.669960 0.000000 
#    z 0.000000 0.000000 1.674320 
# 
# From -- ./inp_files/254.got.cif
#   From: 2010.05.17/outbox.cif.g08.bks.cpg/sg189_1_cif.got.tgz:254.got - 2010.05.20 12:14:34.
