data_PCOD9586659
_publ_section_title
;
Structure prediction by ZEFSAII (Michael W. Deem and Ramdas Pophale) SiO2 
 PCOD9586659
Probable space group: P -6 2 C
;
_chemical_formula_sum "Si O2"
_cell_formula_units_Z 72
_cell_length_a 24.494070
_cell_length_b 24.494070
_cell_length_c 8.746177
_cell_angle_alpha 90.000000
_cell_angle_beta 90.000000
_cell_angle_gamma 120.000000
_cell_volume 4544.339853
_symmetry_space_group_name_H-M "P -6 2 C"
_symmetry_group_IT_number 190
_symmetry_cell_setting 'hexagonal'
loop_
_space_group_symop_operation_xyz
x,y,z
-x+y,-x,1/2-z
-y,x-y,z
x,y,1/2-z
-x+y,-x,z
-y,x-y,1/2-z
x-y,-y,-z
-x,-x+y,-z
y,x,-z
y,x,1/2+z
x-y,-y,1/2+z
-x,-x+y,1/2+z
loop_
_atom_site_type_symbol
_atom_site_label
_atom_site_fract_x
_atom_site_fract_y
_atom_site_fract_z
Si Si1 0.257227 0.852602 0.434112
Si Si2 0.930907 0.193067 0.934250
Si Si3 0.862511 0.932077 0.066606
Si Si4 0.473741 0.069602 0.933069
Si Si5 0.186941 0.592032 0.565150
Si Si6 0.736276 0.258534 0.434106
O O1 0.254933 0.848135 0.250000
O O2 0.214131 0.881497 0.485133
O O3 0.330254 0.900511 0.477361
O O4 0.238616 0.784903 0.501598
O O5 0.934690 0.197268 0.750000
O O6 0.914512 0.122549 0.976428
O O7 0.000000 0.239826 0.000000
O O8 0.867618 0.935021 0.250000
O O9 0.908888 0.908888 0.000000
O O10 0.882470 0.000000 0.000000
O O11 0.475031 0.067108 0.750000
O O12 0.542836 0.119522 0.995374
O O13 0.445188 0.000000 0.000000
O O14 0.181992 0.589607 0.750000
O O15 0.235042 0.567105 0.522450
O O16 0.215902 0.664205 0.515269
O O17 0.736889 0.256449 0.250000
#
# Coordination Sequence:
#
# PCOD9586659 Si02
#       6
#    12  12  12  12  12  12
#     4   9  18  31  46  67  94 120 148 185 228 271
#     4   9  18  31  47  67  91 119 149 183 223 265
#     4  10  19  31  47  67  91 118 148 181 219 262
#     4  10  19  30  46  68  93 121 151 185 227 272
#     4   9  17  30  47  68  94 121 152 188 226 269
#     4   9  17  29  47  69  92 121 153 186 224 267
#
# _framework density 15.843887
#
# number of rings (size 3 to 8) (size 9 to 14) (size 15 to 20)
#    0.000    2.667    0.000    2.000    0.000    4.000 
#    0.000    0.000    0.000    3.000    0.000    4.667 
#    0.000    0.000    0.000    0.000    0.000    0.000 
#
# Total GULP energy -401428.622326 kJ/mol
# GULP energy per Si atom -5575.397532 kJ/mol
# Density = 1.580783 g / cm^3
# Si number density = 15.843887 Si / 1000 Ang^3
#
#
#
# Elastic Constant Matrix: (Units=GPa)
#
#
# Indices 1 2 3 4 5 6 
#
# 1 131.3218 83.6463 31.6241 0.0000 0.0000 0.0000
# 2 83.6463 131.3218 31.6241 0.0000 0.0000 0.0000
# 3 31.6241 31.6241 19.4267 0.0000 0.0000 0.0000
# 4 0.0000 0.0000 0.0000 23.4339 0.0000 0.0000
# 5 0.0000 0.0000 0.0000 0.0000 23.4339 0.0000
# 6 0.0000 0.0000 0.0000 0.0000 0.0000 23.8378
#
#
#
# Elastic Compliance Matrix: (Units=1/GPa)
#
#
# Indices 1 2 3 4 5 6 
#
# 1 0.014952 -0.006024 -0.014533 0.000000 0.000000 0.000000
# 2 -0.006024 0.014952 -0.014533 0.000000 0.000000 0.000000
# 3 -0.014533 -0.014533 0.098792 0.000000 0.000000 0.000000
# 4 0.000000 0.000000 0.000000 0.042673 0.000000 0.000000
# 5 0.000000 0.000000 0.000000 0.000000 0.042673 0.000000
# 6 0.000000 0.000000 0.000000 0.000000 0.000000 0.041950
#
#
# Mechanical properties :
#
#
# Convention : Reuss Voigt Hill
#
# Bulk Modulus (GPa) = 17.08975 63.98433 40.53704
# Shear Modulus (GPa) = 14.46433 23.15282 18.80857
#
# Velocity S-wave (km/s) = 3.02475 3.82685 3.44920
# Velocity P-wave (km/s) = 4.79672 7.74586 6.44232
#
# Compressibility (1/GPa) = 0.05851461
#
# Stress axis : x y z
#
# Youngs Moduli (GPa) = 66.88288 66.88288 10.12223
#
# Poissons Ratio (x) = 0.40288 0.14711
# Poissons Ratio (y) = 0.40288 0.14711
# Poissons Ratio (z) = 0.97204 0.97204
#
# Static dielectric constant tensor:
#      x y z
#    x 1.516600 0.000000 0.000000 
#    y 0.000000 1.516600 0.000000 
#    z 0.000000 0.000000 1.534430 
# 
# From -- ./inp_files/1187.got.cif
#   From: 2010.05.17/outbox.cif.g08.bks.cpg/sg190_1_cif.got.tgz:1187.got - 2010.05.20 12:16:56.
