data_PCOD9586858
_publ_section_title
;
Structure prediction by ZEFSAII (Michael W. Deem and Ramdas Pophale) SiO2 
 PCOD9586858
Probable space group: P -6 2 C
;
_chemical_formula_sum "Si O2"
_cell_formula_units_Z 42
_cell_length_a 8.757493
_cell_length_b 8.757493
_cell_length_c 33.380803
_cell_angle_alpha 90.000000
_cell_angle_beta 90.000000
_cell_angle_gamma 120.000000
_cell_volume 2217.108817
_symmetry_space_group_name_H-M "P -6 2 C"
_symmetry_group_IT_number 190
_symmetry_cell_setting 'hexagonal'
loop_
_space_group_symop_operation_xyz
x,y,z
-x+y,-x,1/2-z
-y,x-y,z
x,y,1/2-z
-x+y,-x,z
-y,x-y,1/2-z
x-y,-y,-z
-x,-x+y,-z
y,x,-z
y,x,1/2+z
x-y,-y,1/2+z
-x,-x+y,1/2+z
loop_
_atom_site_type_symbol
_atom_site_label
_atom_site_fract_x
_atom_site_fract_y
_atom_site_fract_z
Si Si1 0.000000 0.798220 0.000000
Si Si2 0.663064 0.660370 0.879543
Si Si3 0.670211 0.998671 0.912393
Si Si4 0.875959 0.349506 0.294954
O O1 0.001417 0.701367 0.959825
O O2 0.835349 0.835349 0.000000
O O3 0.620339 0.809192 0.894643
O O4 0.523043 0.478378 0.900255
O O5 0.636100 0.642632 0.831769
O O6 0.857230 0.711587 0.893058
O O7 0.823821 0.503472 0.298368
O O8 0.942809 0.354440 0.250000
#
# Coordination Sequence:
#
# PCOD9586858 Si02
#       4
#     6  12  12  12
#     4  10  20  42  62  92 122 166 206 260 318 366
#     4  12  22  42  60 101 118 173 204 257 311 375
#     4  12  24  39  68  86 134 160 213 257 309 373
#     4   8  15  33  63  91 122 160 202 253 312 374
#
# _framework density 18.943591999999999
#
# number of rings (size 3 to 8) (size 9 to 14) (size 15 to 20)
#    0.857    0.571    5.714    1.714    0.000    2.286 
#    0.000    2.857    0.000    0.000    0.000    0.000 
#    0.000    0.000    0.000    0.000    0.000    0.000 
#
# Total GULP energy -234284.584471 kJ/mol
# GULP energy per Si atom -5578.204392 kJ/mol
# Density = 1.890048 g / cm^3
# Si number density = 18.943592 Si / 1000 Ang^3
#
#
#
# Elastic Constant Matrix: (Units=GPa)
#
#
# Indices 1 2 3 4 5 6 
#
# 1 40.5022 -10.6118 27.9478 0.0000 0.0000 0.0000
# 2 -10.6118 40.5022 27.9478 0.0000 0.0000 0.0000
# 3 27.9478 27.9478 218.7555 0.0000 0.0000 0.0000
# 4 0.0000 0.0000 0.0000 12.8126 0.0000 0.0000
# 5 0.0000 0.0000 0.0000 0.0000 12.8126 0.0000
# 6 0.0000 0.0000 0.0000 0.0000 0.0000 25.5570
#
#
#
# Elastic Compliance Matrix: (Units=1/GPa)
#
#
# Indices 1 2 3 4 5 6 
#
# 1 0.031761 0.012197 -0.005616 0.000000 0.000000 0.000000
# 2 0.012197 0.031761 -0.005616 0.000000 0.000000 0.000000
# 3 -0.005616 -0.005616 0.006006 0.000000 0.000000 0.000000
# 4 0.000000 0.000000 0.000000 0.078048 0.000000 0.000000
# 5 0.000000 0.000000 0.000000 0.000000 0.078048 0.000000
# 6 0.000000 0.000000 0.000000 0.000000 0.000000 0.039128
#
#
# Mechanical properties :
#
#
# Convention : Reuss Voigt Hill
#
# Bulk Modulus (GPa) = 13.99437 43.36975 28.68206
# Shear Modulus (GPa) = 17.44339 27.20152 22.32246
#
# Velocity S-wave (km/s) = 3.03777 3.79347 3.43646
# Velocity P-wave (km/s) = 4.43931 6.49084 5.56051
#
# Compressibility (1/GPa) = 0.07145732
#
# Stress axis : x y z
#
# Youngs Moduli (GPa) = 31.48541 31.48541 166.49265
#
# Poissons Ratio (x) = -0.38402 0.93501
# Poissons Ratio (y) = -0.38402 0.93501
# Poissons Ratio (z) = 0.17682 0.17682
#
# Static dielectric constant tensor:
#      x y z
#    x 1.643240 0.000000 0.000000 
#    y 0.000000 1.643240 0.000000 
#    z 0.000000 0.000000 1.643780 
# 
# From -- ./inp_files/5075.got.cif
#   From: 2010.05.17/outbox.cif.g08.bks.cpg/sg190_3_cif.got.tgz:5075.got - 2010.05.20 12:16:56.
