data_PCOD9586173
_publ_section_title
;
Structure prediction by ZEFSAII (Michael W. Deem and Ramdas Pophale) SiO2 
 PCOD9586173
Probable space group: P -6 2 M
;
_chemical_formula_sum "Si O2"
_cell_formula_units_Z 72
_cell_length_a 23.826335
_cell_length_b 23.826335
_cell_length_c 8.130223
_cell_angle_alpha 90.000000
_cell_angle_beta 90.000000
_cell_angle_gamma 120.000000
_cell_volume 3997.123592
_symmetry_space_group_name_H-M "P -6 2 M"
_symmetry_group_IT_number 189
_symmetry_cell_setting 'hexagonal'
loop_
_space_group_symop_operation_xyz
x,y,z
-x+y,-x,-z
-y,x-y,z
x,y,-z
-x+y,-x,z
-y,x-y,-z
x-y,-y,-z
-x,-x+y,-z
y,x,-z
y,x,z
x-y,-y,z
-x,-x+y,z
loop_
_atom_site_type_symbol
_atom_site_label
_atom_site_fract_x
_atom_site_fract_y
_atom_site_fract_z
Si Si1 0.440982 0.366880 0.698205
Si Si2 0.714023 0.714023 0.313481
Si Si3 0.163846 0.000000 0.190126
Si Si4 0.415834 0.122077 0.195823
Si Si5 0.779663 0.924535 0.201592
Si Si6 0.151518 0.780916 0.197440
Si Si7 0.075577 0.508698 0.698547
O O1 0.441663 0.368238 0.500000
O O2 0.396344 0.396344 0.755022
O O3 0.408995 0.293521 0.752712
O O4 0.514072 0.418662 0.752180
O O5 0.734866 0.734866 0.500000
O O6 0.768467 0.768467 0.198863
O O7 0.706324 0.644688 0.280690
O O8 0.180577 0.069985 0.259854
O O9 0.145375 0.000000 0.000000
O O10 0.410247 0.183756 0.249605
O O11 0.479735 0.118995 0.237441
O O12 0.405817 0.114543 0.000000
O O13 0.704377 0.884599 0.256840
O O14 0.814198 0.000000 0.249110
O O15 0.778868 0.922193 0.000000
O O16 0.150383 0.783797 0.000000
O O17 0.076339 0.507387 0.500000
O O18 0.000000 0.462273 0.749107
#
# Coordination Sequence:
#
# PCOD9586173 Si02
#       7
#    12   6   6  12  12  12  12
#     4   9  19  35  53  75 106 138 169 209 255 302
#     4  12  22  32  50  76 106 136 169 210 261 320
#     4  10  18  34  52  70 104 140 175 222 271 320
#     4  11  21  33  52  79 107 136 170 210 258 308
#     4   9  17  30  49  72 100 135 174 222 273 315
#     4  10  20  33  51  74 104 137 173 218 263 306
#     4   9  18  33  52  76 105 134 162 201 252 302
#
# _framework density 18.012955000000002
#
# number of rings (size 3 to 8) (size 9 to 14) (size 15 to 20)
#    0.000    2.167    2.500    2.750    0.000    3.000 
#    0.500    1.667    0.000    1.167    0.000    0.000 
#    0.000    0.000    0.000    0.000    0.000    0.000 
#
# Total GULP energy -401552.441594 kJ/mol
# GULP energy per Si atom -5577.117244 kJ/mol
# Density = 1.797196 g / cm^3
# Si number density = 18.012955 Si / 1000 Ang^3
#
#
#
# Elastic Constant Matrix: (Units=GPa)
#
#
# Indices 1 2 3 4 5 6 
#
# 1 145.2029 89.4963 12.3680 0.0000 0.0000 0.0000
# 2 89.4963 145.2029 12.3680 0.0000 0.0000 0.0000
# 3 12.3680 12.3680 15.3529 0.0000 0.0000 0.0000
# 4 0.0000 0.0000 0.0000 169.2822 0.0000 0.0000
# 5 0.0000 0.0000 0.0000 0.0000 169.2822 0.0000
# 6 0.0000 0.0000 0.0000 0.0000 0.0000 27.8533
#
#
#
# Elastic Compliance Matrix: (Units=1/GPa)
#
#
# Indices 1 2 3 4 5 6 
#
# 1 0.011304 -0.006648 -0.003751 0.000000 0.000000 0.000000
# 2 -0.006648 0.011304 -0.003751 0.000000 0.000000 0.000000
# 3 -0.003751 -0.003751 0.071177 0.000000 0.000000 0.000000
# 4 0.000000 0.000000 0.000000 0.005907 0.000000 0.000000
# 5 0.000000 0.000000 0.000000 0.000000 0.005907 0.000000
# 6 0.000000 0.000000 0.000000 0.000000 0.000000 0.035902
#
#
# Mechanical properties :
#
#
# Convention : Reuss Voigt Hill
#
# Bulk Modulus (GPa) = 15.27041 59.35816 37.31428
# Shear Modulus (GPa) = 26.09209 86.05195 56.07202
#
# Velocity S-wave (km/s) = 3.81007 6.91925 5.58536
# Velocity P-wave (km/s) = 5.27744 9.84171 7.89654
#
# Compressibility (1/GPa) = 0.06548613
#
# Stress axis : x y z
#
# Youngs Moduli (GPa) = 88.46693 88.46693 14.04941
#
# Poissons Ratio (x) = 0.58809 0.05270
# Poissons Ratio (y) = 0.58809 0.05270
# Poissons Ratio (z) = 0.33183 0.33183
#
# Static dielectric constant tensor:
#      x y z
#    x 1.611910 0.000000 0.000000 
#    y 0.000000 1.611910 0.000000 
#    z 0.000000 0.000000 1.651750 
# 
# From -- ./inp_files/1375.got.cif
#   From: 2010.05.17/outbox.cif.g08.bks.cpg/sg189_1_cif.got.tgz:1375.got - 2010.05.20 12:14:34.
