data_PCOD9586381
_publ_section_title
;
Structure prediction by ZEFSAII (Michael W. Deem and Ramdas Pophale) SiO2 
 PCOD9586381
Probable space group: P -6 2 M
;
_chemical_formula_sum "Si O2"
_cell_formula_units_Z 84
_cell_length_a 19.705024
_cell_length_b 19.705024
_cell_length_c 14.331837
_cell_angle_alpha 90.000000
_cell_angle_beta 90.000000
_cell_angle_gamma 120.000000
_cell_volume 4819.327369
_symmetry_space_group_name_H-M "P -6 2 M"
_symmetry_group_IT_number 189
_symmetry_cell_setting 'hexagonal'
loop_
_space_group_symop_operation_xyz
x,y,z
-x+y,-x,-z
-y,x-y,z
x,y,-z
-x+y,-x,z
-y,x-y,-z
x-y,-y,-z
-x,-x+y,-z
y,x,-z
y,x,z
x-y,-y,z
-x,-x+y,z
loop_
_atom_site_type_symbol
_atom_site_label
_atom_site_fract_x
_atom_site_fract_y
_atom_site_fract_z
Si Si1 0.648640 0.238200 0.112282
Si Si2 0.195525 0.497312 0.387709
Si Si3 0.472417 0.839325 0.611392
Si Si4 0.910133 0.090736 0.108009
Si Si5 0.549791 0.912102 0.213261
Si Si6 0.704263 0.909330 0.259891
Si Si7 0.232350 0.909070 0.612786
O O1 0.731388 0.318300 0.135294
O O2 0.635599 0.159453 0.161003
O O3 0.646809 0.228344 0.000000
O O4 0.193649 0.495981 0.500000
O O5 0.279295 0.507753 0.363428
O O6 0.189324 0.572394 0.362297
O O7 0.123936 0.413826 0.357582
O O8 0.483417 0.854378 0.500000
O O9 0.524697 0.910198 0.679059
O O10 0.852493 0.101359 0.175397
O O11 0.000000 0.146096 0.134070
O O12 0.887161 0.000000 0.114920
O O13 0.899260 0.104968 0.000000
O O14 0.622190 0.896032 0.220394
O O15 0.582847 0.000000 0.174211
O O16 0.697543 0.849593 0.340026
O O17 0.752573 0.000000 0.291843
O O18 0.225338 0.904828 0.500000
O O19 0.267926 0.000000 0.639519
#
# Coordination Sequence:
#
# PCOD9586381 Si02
#       7
#    12  12  12  12  12  12  12
#     4   8  19  40  64  84 103 139 188 233 281 336
#     4   9  18  32  51  75 102 140 183 227 272 317
#     4  10  20  34  52  78 113 148 186 227 273 324
#     4   9  17  31  53  79 105 134 171 218 271 326
#     4  11  23  34  53  86 117 149 185 229 282 332
#     4  10  21  35  50  76 111 145 183 221 271 336
#     4  10  20  35  54  75 103 144 191 234 276 322
#
# _framework density 17.429817
#
# number of rings (size 3 to 8) (size 9 to 14) (size 15 to 20)
#    0.286    2.143    1.429    0.857    2.000    3.714 
#    0.000    4.286    0.000    1.143    0.000    0.000 
#    0.000    0.000    0.000    0.000    0.000    0.000 
#
# Total GULP energy -467766.021926 kJ/mol
# GULP energy per Si atom -5568.643118 kJ/mol
# Density = 1.739015 g / cm^3
# Si number density = 17.429817 Si / 1000 Ang^3
#
#
#
# Elastic Constant Matrix: (Units=GPa)
#
#
# Indices 1 2 3 4 5 6 
#
# 1 105.6703 59.4996 37.0175 0.0000 0.0000 0.0000
# 2 59.4996 105.6703 37.0175 0.0000 0.0000 0.0000
# 3 37.0175 37.0175 48.4593 0.0000 0.0000 0.0000
# 4 0.0000 0.0000 0.0000 16.3771 0.0000 0.0000
# 5 0.0000 0.0000 0.0000 0.0000 16.3771 0.0000
# 6 0.0000 0.0000 0.0000 0.0000 0.0000 23.0853
#
#
#
# Elastic Compliance Matrix: (Units=1/GPa)
#
#
# Indices 1 2 3 4 5 6 
#
# 1 0.015433 -0.006226 -0.007033 0.000000 0.000000 0.000000
# 2 -0.006226 0.015433 -0.007033 0.000000 0.000000 0.000000
# 3 -0.007033 -0.007033 0.031381 0.000000 0.000000 0.000000
# 4 0.000000 0.000000 0.000000 0.061061 0.000000 0.000000
# 5 0.000000 0.000000 0.000000 0.000000 0.061061 0.000000
# 6 0.000000 0.000000 0.000000 0.000000 0.000000 0.043318
#
#
# Mechanical properties :
#
#
# Convention : Reuss Voigt Hill
#
# Bulk Modulus (GPa) = 46.16292 58.54103 52.35197
# Shear Modulus (GPa) = 18.14947 19.58559 18.86753
#
# Velocity S-wave (km/s) = 3.23040 3.35578 3.29368
# Velocity P-wave (km/s) = 6.36054 6.97672 6.67574
#
# Compressibility (1/GPa) = 0.02166241
#
# Stress axis : x y z
#
# Youngs Moduli (GPa) = 64.79713 64.79713 31.86671
#
# Poissons Ratio (x) = 0.40343 0.22412
# Poissons Ratio (y) = 0.40343 0.22412
# Poissons Ratio (z) = 0.45572 0.45572
#
# Static dielectric constant tensor:
#      x y z
#    x 1.603470 0.000000 0.000000 
#    y 0.000000 1.603470 0.000000 
#    z 0.000000 0.000000 1.597150 
# 
# From -- ./inp_files/2807.got.cif
#   From: 2010.05.17/outbox.cif.g08.bks.cpg/sg189_2_cif.got.tgz:2807.got - 2010.05.20 12:14:34.
