data_PCOD9586287
_publ_section_title
;
Structure prediction by ZEFSAII (Michael W. Deem and Ramdas Pophale) SiO2 
 PCOD9586287
Probable space group: P -6 2 M
;
_chemical_formula_sum "Si O2"
_cell_formula_units_Z 72
_cell_length_a 13.693364
_cell_length_b 13.693364
_cell_length_c 21.097246
_cell_angle_alpha 90.000000
_cell_angle_beta 90.000000
_cell_angle_gamma 120.000000
_cell_volume 3425.915952
_symmetry_space_group_name_H-M "P -6 2 M"
_symmetry_group_IT_number 189
_symmetry_cell_setting 'hexagonal'
loop_
_space_group_symop_operation_xyz
x,y,z
-x+y,-x,-z
-y,x-y,z
x,y,-z
-x+y,-x,z
-y,x-y,-z
x-y,-y,-z
-x,-x+y,-z
y,x,-z
y,x,z
x-y,-y,z
-x,-x+y,z
loop_
_atom_site_type_symbol
_atom_site_label
_atom_site_fract_x
_atom_site_fract_y
_atom_site_fract_z
Si Si1 0.134372 0.437250 0.070849
Si Si2 0.436720 0.567993 0.500000
Si Si3 0.197284 0.869391 0.500000
Si Si4 0.419853 0.129125 0.714039
Si Si5 0.432775 0.563583 0.183691
Si Si6 0.799041 0.128981 0.174372
Si Si7 0.424545 0.295251 0.608588
O O1 0.178509 0.541738 0.119940
O O2 0.153678 0.345107 0.107662
O O3 0.000000 0.384610 0.064917
O O4 0.183147 0.464252 0.000000
O O5 0.473433 0.473433 0.500000
O O6 0.550169 0.686312 0.500000
O O7 0.364746 0.536222 0.435310
O O8 0.131183 0.798426 0.438948
O O9 0.234002 0.000000 0.500000
O O10 0.536794 0.171289 0.752116
O O11 0.333836 0.127864 0.767507
O O12 0.436803 0.221507 0.662804
O O13 0.368156 0.000000 0.689039
O O14 0.529444 0.529444 0.184085
O O15 0.317377 0.448654 0.182468
O O16 0.768044 0.000000 0.176152
O O17 0.377826 0.377826 0.631038
#
# Coordination Sequence:
#
# PCOD9586287 Si02
#       7
#    12   6   6  12  12  12  12
#     4   9  18  34  54  75 106 144 177 217 272 330
#     4   8  18  35  54  81 112 141 176 220 265 312
#     4  10  19  35  59  81 111 151 181 214 270 330
#     4  10  20  36  57  80 110 147 183 219 270 329
#     4   8  17  33  51  74 104 137 176 222 270 318
#     4  10  19  33  55  79 107 142 182 228 271 319
#     4  10  20  36  58  83 112 142 180 227 267 313
#
# _framework density 21.016276999999999
#
# number of rings (size 3 to 8) (size 9 to 14) (size 15 to 20)
#    0.000    2.667    0.000    3.250    0.000    2.333 
#   12.000    6.667    0.000   11.333    0.000    0.000 
#    0.000    0.000    0.000    0.000    0.000    0.000 
#
# Total GULP energy -401507.600769 kJ/mol
# GULP energy per Si atom -5576.494455 kJ/mol
# Density = 2.096844 g / cm^3
# Si number density = 21.016277 Si / 1000 Ang^3
#
#
#
# Elastic Constant Matrix: (Units=GPa)
#
#
# Indices 1 2 3 4 5 6 
#
# 1 65.8820 12.2518 25.8754 0.0000 0.0000 0.0000
# 2 12.2518 65.8820 25.8754 0.0000 0.0000 0.0000
# 3 25.8754 25.8754 127.0120 0.0000 0.0000 0.0000
# 4 0.0000 0.0000 0.0000 14.3142 0.0000 0.0000
# 5 0.0000 0.0000 0.0000 0.0000 14.3142 0.0000
# 6 0.0000 0.0000 0.0000 0.0000 0.0000 26.8151
#
#
#
# Elastic Compliance Matrix: (Units=1/GPa)
#
#
# Indices 1 2 3 4 5 6 
#
# 1 0.016721 -0.001926 -0.003014 0.000000 0.000000 0.000000
# 2 -0.001926 0.016721 -0.003014 0.000000 0.000000 0.000000
# 3 -0.003014 -0.003014 0.009101 0.000000 0.000000 0.000000
# 4 0.000000 0.000000 0.000000 0.069861 0.000000 0.000000
# 5 0.000000 0.000000 0.000000 0.000000 0.069861 0.000000
# 6 0.000000 0.000000 0.000000 0.000000 0.000000 0.037292
#
#
# Mechanical properties :
#
#
# Convention : Reuss Voigt Hill
#
# Bulk Modulus (GPa) = 37.54482 42.97569 40.26025
# Shear Modulus (GPa) = 20.46307 24.07357 22.26832
#
# Velocity S-wave (km/s) = 3.12377 3.38815 3.25864
# Velocity P-wave (km/s) = 5.56003 5.98325 5.77552
#
# Compressibility (1/GPa) = 0.02663483
#
# Stress axis : x y z
#
# Youngs Moduli (GPa) = 59.80662 59.80662 109.87385
#
# Poissons Ratio (x) = 0.11517 0.33117
# Poissons Ratio (y) = 0.11517 0.33117
# Poissons Ratio (z) = 0.18026 0.18026
#
# Static dielectric constant tensor:
#      x y z
#    x 1.785920 0.000000 0.000000 
#    y 0.000000 1.785920 0.000000 
#    z 0.000000 0.000000 1.808730 
# 
# From -- ./inp_files/3438.got.cif
#   From: 2010.05.17/outbox.cif.g08.bks.cpg/sg189_2_cif.got.tgz:3438.got - 2010.05.20 12:14:34.
