data_PCOD9586230
_publ_section_title
;
Structure prediction by ZEFSAII (Michael W. Deem and Ramdas Pophale) SiO2 
 PCOD9586230
Probable space group: P -6 2 M
;
_chemical_formula_sum "Si O2"
_cell_formula_units_Z 96
_cell_length_a 14.015315
_cell_length_b 14.015315
_cell_length_c 32.601927
_cell_angle_alpha 90.000000
_cell_angle_beta 90.000000
_cell_angle_gamma 120.000000
_cell_volume 5545.996979
_symmetry_space_group_name_H-M "P -6 2 M"
_symmetry_group_IT_number 189
_symmetry_cell_setting 'hexagonal'
loop_
_space_group_symop_operation_xyz
x,y,z
-x+y,-x,-z
-y,x-y,z
x,y,-z
-x+y,-x,z
-y,x-y,-z
x-y,-y,-z
-x,-x+y,-z
y,x,-z
y,x,z
x-y,-y,z
-x,-x+y,z
loop_
_atom_site_type_symbol
_atom_site_label
_atom_site_fract_x
_atom_site_fract_y
_atom_site_fract_z
Si Si1 0.127322 0.662567 0.585937
Si Si2 0.661189 0.873643 0.117020
Si Si3 0.335394 0.462906 0.683369
Si Si4 0.565060 0.696682 0.183639
Si Si5 0.417447 0.130562 0.954330
Si Si6 0.326169 0.872487 0.549035
Si Si7 0.867939 0.326053 0.277505
Si Si8 0.870410 0.432745 0.111278
O O1 0.138372 0.653246 0.634708
O O2 0.213937 0.783374 0.570237
O O3 0.149606 0.573012 0.563686
O O4 0.000000 0.625276 0.577362
O O5 0.648016 0.806858 0.158716
O O6 0.663615 0.809824 0.076515
O O7 0.543858 0.867787 0.111651
O O8 0.754732 0.000000 0.118902
O O9 0.371039 0.371039 0.691683
O O10 0.425336 0.573095 0.706947
O O11 0.212920 0.430508 0.696863
O O12 0.622199 0.622199 0.186544
O O13 0.535980 0.705268 0.230171
O O14 0.460924 0.635896 0.153026
O O15 0.531059 0.174825 0.928754
O O16 0.365280 0.000000 0.959164
O O17 0.430059 0.178583 0.000000
O O18 0.315279 0.861461 0.500000
O O19 0.368202 0.000000 0.559931
O O20 0.000000 0.371637 0.281370
O O21 0.000000 0.471629 0.111647
#
# Coordination Sequence:
#
# PCOD9586230 Si02
#       8
#    12  12  12  12  12  12  12  12
#     4  10  20  34  52  75 108 143 176 222 273 319
#     4  10  19  31  52  76  95 121 161 202 234 280
#     4  10  21  35  53  79 106 140 183 221 266 322
#     4   9  19  35  51  69  99 132 158 191 246 299
#     4   9  18  34  51  66  95 131 154 185 237 290
#     4  10  20  33  53  80 107 142 184 222 266 321
#     4  10  21  36  54  77 108 141 176 222 270 317
#     4   8  16  31  47  66  91 121 155 187 230 281
#
# _framework density 17.309781999999998
#
# number of rings (size 3 to 8) (size 9 to 14) (size 15 to 20)
#    0.000    2.500    0.000    2.750    1.750    3.500 
#    6.000    1.250    0.000    2.500    0.000    0.000 
#    0.000    0.000    0.000    0.000    0.000    0.000 
#
# Total GULP energy -534778.395916 kJ/mol
# GULP energy per Si atom -5570.608291 kJ/mol
# Density = 1.727038 g / cm^3
# Si number density = 17.309782 Si / 1000 Ang^3
#
#
#
# Elastic Constant Matrix: (Units=GPa)
#
#
# Indices 1 2 3 4 5 6 
#
# 1 63.0147 13.4867 31.5978 0.0000 0.0000 0.0000
# 2 13.4867 63.0147 31.5978 0.0000 0.0000 0.0000
# 3 31.5978 31.5978 95.3056 0.0000 0.0000 0.0000
# 4 0.0000 0.0000 0.0000 -27.3767 0.0000 0.0000
# 5 0.0000 0.0000 0.0000 0.0000 -27.3767 0.0000
# 6 0.0000 0.0000 0.0000 0.0000 0.0000 24.7640
#
#
#
# Elastic Compliance Matrix: (Units=1/GPa)
#
#
# Indices 1 2 3 4 5 6 
#
# 1 0.019096 -0.001094 -0.005968 0.000000 0.000000 0.000000
# 2 -0.001094 0.019096 -0.005968 0.000000 0.000000 0.000000
# 3 -0.005968 -0.005968 0.014450 0.000000 0.000000 0.000000
# 4 0.000000 0.000000 0.000000 -0.036527 0.000000 0.000000
# 5 0.000000 0.000000 0.000000 0.000000 -0.036527 0.000000
# 6 0.000000 0.000000 0.000000 0.000000 0.000000 0.040381
#
#
# Mechanical properties :
#
#
# Convention : Reuss Voigt Hill
#
# Bulk Modulus (GPa) = 37.62162 41.63327 39.62745
# Shear Modulus (GPa) = 91.08878 3.64564 47.36721
#
# Velocity S-wave (km/s) = 7.26202 1.45282 5.23678
# Velocity P-wave (km/s) = 9.59674 5.18829 7.71414
#
# Compressibility (1/GPa) = 0.02658046
#
# Stress axis : x y z
#
# Youngs Moduli (GPa) = 52.36616 52.36616 69.20355
#
# Poissons Ratio (x) = 0.05730 0.41304
# Poissons Ratio (y) = 0.05730 0.41304
# Poissons Ratio (z) = 0.31254 0.31254
#
# Static dielectric constant tensor:
#      x y z
#    x 1.596360 0.000000 0.000000 
#    y 0.000000 1.596360 0.000000 
#    z 0.000000 0.000000 1.616970 
# 
# From -- ./inp_files/3753.got.cif
#   From: 2010.05.17/outbox.cif.g08.bks.cpg/sg189_2_cif.got.tgz:3753.got - 2010.05.20 12:14:34.
