data_PCOD9586555
_publ_section_title
;
Structure prediction by ZEFSAII (Michael W. Deem and Ramdas Pophale) SiO2 
 PCOD9586555
Probable space group: P -6 2 M
;
_chemical_formula_sum "Si O2"
_cell_formula_units_Z 76
_cell_length_a 19.732517
_cell_length_b 19.732517
_cell_length_c 13.823009
_cell_angle_alpha 90.000000
_cell_angle_beta 90.000000
_cell_angle_gamma 120.000000
_cell_volume 4661.204894
_symmetry_space_group_name_H-M "P -6 2 M"
_symmetry_group_IT_number 189
_symmetry_cell_setting 'hexagonal'
loop_
_space_group_symop_operation_xyz
x,y,z
-x+y,-x,-z
-y,x-y,z
x,y,-z
-x+y,-x,z
-y,x-y,-z
x-y,-y,-z
-x,-x+y,-z
y,x,-z
y,x,z
x-y,-y,z
-x,-x+y,z
loop_
_atom_site_type_symbol
_atom_site_label
_atom_site_fract_x
_atom_site_fract_y
_atom_site_fract_z
Si Si1 0.258101 0.402440 0.701087
Si Si2 0.914205 0.000000 0.383249
Si Si3 0.798791 0.301529 0.385748
Si Si4 0.000000 0.755963 0.618611
Si Si5 0.561518 0.153693 0.110912
Si Si6 0.224580 0.741805 0.889399
Si Si7 0.333334 0.666667 0.618225
Si Si8 0.473274 0.911572 0.688704
O O1 0.197449 0.426052 0.656454
O O2 0.243525 0.319458 0.663991
O O3 0.254441 0.418431 0.815168
O O4 0.346283 0.468513 0.670129
O O5 0.911759 0.000000 0.500000
O O6 0.926519 0.926519 0.354997
O O7 0.836008 0.000000 0.353435
O O8 0.793011 0.292482 0.500000
O O9 0.719008 0.297212 0.348319
O O10 0.863964 0.389063 0.360581
O O11 0.000000 0.750025 0.500000
O O12 0.512168 0.196865 0.132016
O O13 0.654876 0.213441 0.115832
O O14 0.548796 0.093982 0.196367
O O15 0.544518 0.123775 0.000000
O O16 0.208600 0.753893 0.000000
O O17 0.333334 0.666668 0.500000
O O18 0.517025 0.000000 0.655122
#
# Coordination Sequence:
#
# PCOD9586555 Si02
#       8
#    12   6  12   6  12  12   4  12
#     4  11  21  35  52  78 111 146 184 226 271 330
#     4   7  14  34  64  91 108 128 165 217 270 327
#     4  11  21  34  50  71  98 138 190 230 261 302
#     4  11  22  36  57  85 116 148 178 215 277 343
#     4   9  17  30  51  75 100 132 177 230 277 316
#     4   9  17  30  51  77 103 135 183 238 284 320
#     4   9  18  30  48  66  82 125 190 234 252 285
#     4  11  22  35  49  73 107 144 181 223 270 314
#
# _framework density 16.304798000000002
#
# number of rings (size 3 to 8) (size 9 to 14) (size 15 to 20)
#    0.158    1.895    3.947    0.789    0.000    2.526 
#    0.000    1.184    0.000    1.895    0.000    0.000 
#    0.000    1.895    0.000    0.000    0.000    0.000 
#
# Total GULP energy -423213.377044 kJ/mol
# GULP energy per Si atom -5568.597066 kJ/mol
# Density = 1.626769 g / cm^3
# Si number density = 16.304798 Si / 1000 Ang^3
#
#
#
# Elastic Constant Matrix: (Units=GPa)
#
#
# Indices 1 2 3 4 5 6 
#
# 1 84.8419 42.2616 19.1203 0.0000 -0.0001 -0.0001
# 2 42.2616 84.8416 19.1204 0.0000 -0.0001 -0.0001
# 3 19.1203 19.1204 57.7270 0.0000 0.0000 0.0000
# 4 0.0000 0.0000 0.0000 14.9689 0.0000 0.0000
# 5 -0.0001 -0.0001 0.0000 0.0000 14.9690 0.0000
# 6 -0.0001 -0.0001 0.0000 0.0000 0.0000 21.2900
#
#
#
# Elastic Compliance Matrix: (Units=1/GPa)
#
#
# Indices 1 2 3 4 5 6 
#
# 1 0.016112 -0.007373 -0.002894 0.000000 0.000000 0.000000
# 2 -0.007373 0.016112 -0.002894 0.000000 0.000000 0.000000
# 3 -0.002894 -0.002894 0.019240 0.000000 0.000000 0.000000
# 4 0.000000 0.000000 0.000000 0.066805 0.000000 0.000000
# 5 0.000000 0.000000 0.000000 0.000000 0.066805 0.000000
# 6 0.000000 0.000000 0.000000 0.000000 0.000000 0.046970
#
#
# Mechanical properties :
#
#
# Convention : Reuss Voigt Hill
#
# Bulk Modulus (GPa) = 39.77772 43.15726 41.46749
# Shear Modulus (GPa) = 18.74426 20.03944 19.39185
#
# Velocity S-wave (km/s) = 3.39428 3.50959 3.45241
# Velocity P-wave (km/s) = 6.30958 6.55358 6.43274
#
# Compressibility (1/GPa) = 0.02513970
#
# Stress axis : x y z
#
# Youngs Moduli (GPa) = 62.06656 62.06623 51.97440
#
# Poissons Ratio (x) = 0.45764 0.15043
# Poissons Ratio (y) = 0.45764 0.15043
# Poissons Ratio (z) = 0.17964 0.17964
#
# Static dielectric constant tensor:
#      x y z
#    x 1.544000 0.000000 0.000000 
#    y 0.000000 1.544000 0.000000 
#    z 0.000000 0.000000 1.585330 
# 
# From -- ./inp_files/2770.got.cif
#   From: 2010.05.17/outbox.cif.g08.bks.cpg/sg189_2_cif.got.tgz:2770.got - 2010.05.20 12:14:34.
