data_PCOD9586341
_publ_section_title
;
Structure prediction by ZEFSAII (Michael W. Deem and Ramdas Pophale) SiO2 
 PCOD9586341
Probable space group: P -6 2 M
;
_chemical_formula_sum "Si O2"
_cell_formula_units_Z 72
_cell_length_a 24.303967
_cell_length_b 24.303967
_cell_length_c 8.845479
_cell_angle_alpha 90.000000
_cell_angle_beta 90.000000
_cell_angle_gamma 120.000000
_cell_volume 4524.872237
_symmetry_space_group_name_H-M "P -6 2 M"
_symmetry_group_IT_number 189
_symmetry_cell_setting 'hexagonal'
loop_
_space_group_symop_operation_xyz
x,y,z
-x+y,-x,-z
-y,x-y,z
x,y,-z
-x+y,-x,z
-y,x-y,-z
x-y,-y,-z
-x,-x+y,-z
y,x,-z
y,x,z
x-y,-y,z
-x,-x+y,z
loop_
_atom_site_type_symbol
_atom_site_label
_atom_site_fract_x
_atom_site_fract_y
_atom_site_fract_z
Si Si1 0.806336 0.400762 0.180522
Si Si2 0.073977 0.927193 0.317722
Si Si3 0.516147 0.926543 0.681693
Si Si4 0.263819 0.190006 0.180391
Si Si5 0.598945 0.862183 0.319793
Si Si6 0.529394 0.265423 0.318661
O O1 0.876997 0.452028 0.234773
O O2 0.782822 0.331480 0.248101
O O3 0.761200 0.425992 0.248755
O O4 0.802020 0.398646 0.000000
O O5 0.076676 0.925277 0.500000
O O6 0.093497 0.878466 0.249383
O O7 0.000000 0.900058 0.276098
O O8 0.116857 0.000000 0.268774
O O9 0.505972 0.917622 0.500000
O O10 0.569096 0.906855 0.719880
O O11 0.542869 0.000000 0.717688
O O12 0.236319 0.236319 0.226871
O O13 0.335257 0.219590 0.237665
O O14 0.261734 0.185788 0.000000
O O15 0.609898 0.867266 0.500000
O O16 0.542877 0.790772 0.285907
O O17 0.537580 0.269013 0.500000
#
# Coordination Sequence:
#
# PCOD9586341 Si02
#       6
#    12  12  12  12  12  12
#     4  11  21  32  49  75 103 128 158 198 245 289
#     4   9  17  30  49  71  94 122 158 198 236 276
#     4   9  18  33  52  73  98 130 165 197 234 284
#     4  10  20  31  45  69 100 130 156 187 234 287
#     4   9  18  32  51  72  93 123 162 200 234 272
#     4  10  20  35  52  70  96 130 165 198 237 286
#
# _framework density 15.912050000000001
#
# number of rings (size 3 to 8) (size 9 to 14) (size 15 to 20)
#    0.000    2.333    0.000    4.500    0.000    6.333 
#    0.000    0.000    0.000    2.000    0.000    7.000 
#    0.000    0.000    0.000    0.000    0.000    0.000 
#
# Total GULP energy -401737.294204 kJ/mol
# GULP energy per Si atom -5579.684642 kJ/mol
# Density = 1.587583 g / cm^3
# Si number density = 15.912050 Si / 1000 Ang^3
#
#
#
# Elastic Constant Matrix: (Units=GPa)
#
#
# Indices 1 2 3 4 5 6 
#
# 1 118.9990 77.5701 58.6213 0.0000 0.0000 0.0000
# 2 77.5701 118.9990 58.6213 0.0000 0.0000 0.0000
# 3 58.6213 58.6213 63.7122 0.0000 0.0000 0.0000
# 4 0.0000 0.0000 0.0000 14.0257 0.0000 0.0000
# 5 0.0000 0.0000 0.0000 0.0000 14.0257 0.0000
# 6 0.0000 0.0000 0.0000 0.0000 0.0000 20.7144
#
#
#
# Elastic Compliance Matrix: (Units=1/GPa)
#
#
# Indices 1 2 3 4 5 6 
#
# 1 0.017706 -0.006432 -0.010374 0.000000 0.000000 0.000000
# 2 -0.006432 0.017706 -0.010374 0.000000 0.000000 0.000000
# 3 -0.010374 -0.010374 0.034785 0.000000 0.000000 0.000000
# 4 0.000000 0.000000 0.000000 0.071298 0.000000 0.000000
# 5 0.000000 0.000000 0.000000 0.000000 0.071298 0.000000
# 6 0.000000 0.000000 0.000000 0.000000 0.000000 0.048276
#
#
# Mechanical properties :
#
#
# Convention : Reuss Voigt Hill
#
# Bulk Modulus (GPa) = 63.13307 76.81505 69.97406
# Shear Modulus (GPa) = 15.59057 16.87965 16.23511
#
# Velocity S-wave (km/s) = 3.13357 3.26054 3.19768
# Velocity P-wave (km/s) = 7.27012 7.90913 7.59635
#
# Compressibility (1/GPa) = 0.01583956
#
# Stress axis : x y z
#
# Youngs Moduli (GPa) = 56.47740 56.47740 28.74781
#
# Poissons Ratio (x) = 0.36324 0.29822
# Poissons Ratio (y) = 0.36324 0.29822
# Poissons Ratio (z) = 0.58588 0.58588
#
# Static dielectric constant tensor:
#      x y z
#    x 1.516010 0.000000 0.000000 
#    y 0.000000 1.516010 0.000000 
#    z 0.000000 0.000000 1.528850 
# 
# From -- ./inp_files/1246.got.cif
#   From: 2010.05.17/outbox.cif.g08.bks.cpg/sg189_1_cif.got.tgz:1246.got - 2010.05.20 12:14:34.
