data_PCOD9586805
_publ_section_title
;
Structure prediction by ZEFSAII (Michael W. Deem and Ramdas Pophale) SiO2 
 PCOD9586805
Probable space group: P -6 2 C
;
_chemical_formula_sum "Si O2"
_cell_formula_units_Z 76
_cell_length_a 16.985055
_cell_length_b 16.985055
_cell_length_c 15.523657
_cell_angle_alpha 90.000000
_cell_angle_beta 90.000000
_cell_angle_gamma 120.000000
_cell_volume 3878.453465
_symmetry_space_group_name_H-M "P -6 2 C"
_symmetry_group_IT_number 190
_symmetry_cell_setting 'hexagonal'
loop_
_space_group_symop_operation_xyz
x,y,z
-x+y,-x,1/2-z
-y,x-y,z
x,y,1/2-z
-x+y,-x,z
-y,x-y,1/2-z
x-y,-y,-z
-x,-x+y,-z
y,x,-z
y,x,1/2+z
x-y,-y,1/2+z
-x,-x+y,1/2+z
loop_
_atom_site_type_symbol
_atom_site_label
_atom_site_fract_x
_atom_site_fract_y
_atom_site_fract_z
Si Si1 0.583433 0.625395 0.350925
Si Si2 0.750438 0.059307 0.412195
Si Si3 0.003325 0.824713 0.250000
Si Si4 0.181474 0.006547 0.250000
Si Si5 0.763519 0.698730 0.077607
Si Si6 0.333333 0.666667 0.353895
Si Si7 0.443217 0.411168 0.595729
Si Si8 0.760458 0.218239 0.645454
O O1 0.605181 0.633562 0.250000
O O2 0.660482 0.619053 0.404972
O O3 0.484282 0.536527 0.360153
O O4 0.586768 0.719799 0.377369
O O5 0.784585 0.019505 0.336205
O O6 0.830428 0.160839 0.433039
O O7 0.727665 0.000000 0.500000
O O8 0.656225 0.048860 0.376406
O O9 0.934068 0.863418 0.250000
O O10 0.106739 0.902110 0.250000
O O11 0.241988 0.032386 0.164746
O O12 0.758608 0.758608 0.000000
O O13 0.333334 0.666668 0.250000
O O14 0.437297 0.717904 0.380124
O O15 0.448157 0.448157 0.500000
O O16 0.431657 0.310627 0.605354
O O17 0.755900 0.206490 0.750000
#
# Coordination Sequence:
#
# PCOD9586805 Si02
#       8
#    12  12   6   6  12   4  12  12
#     4  11  23  39  64  95 124 165 216 266 324 383
#     4  10  24  41  61  93 124 164 213 260 318 381
#     4  10  21  36  61  82 122 166 206 266 323 360
#     4  10  21  38  55  90 116 158 216 258 313 382
#     4  11  23  40  64  89 124 164 210 266 316 371
#     4   9  15  33  57  90 129 147 187 260 334 384
#     4  11  24  39  57  92 129 164 207 252 322 398
#     4  10  20  35  62  95 126 162 207 269 331 385
#
# _framework density 19.595438999999999
#
# number of rings (size 3 to 8) (size 9 to 14) (size 15 to 20)
#    0.000    1.579    2.368    2.053    8.842    0.000 
#    0.000    0.000    0.000    5.684    0.000    0.000 
#    0.000    0.000    0.000    0.000    0.000    0.000 
#
# Total GULP energy -423880.335967 kJ/mol
# GULP energy per Si atom -5577.372842 kJ/mol
# Density = 1.955084 g / cm^3
# Si number density = 19.595439 Si / 1000 Ang^3
#
#
#
# Elastic Constant Matrix: (Units=GPa)
#
#
# Indices 1 2 3 4 5 6 
#
# 1 103.7177 49.3983 20.8937 0.0000 0.0000 -0.0001
# 2 49.3983 103.7174 20.8938 0.0000 0.0000 0.0000
# 3 20.8937 20.8938 77.9829 0.0000 0.0000 0.0000
# 4 0.0000 0.0000 0.0000 23.8946 0.0000 0.0000
# 5 0.0000 0.0000 0.0000 0.0000 23.8946 0.0000
# 6 -0.0001 0.0000 0.0000 0.0000 0.0000 27.1599
#
#
#
# Elastic Compliance Matrix: (Units=1/GPa)
#
#
# Indices 1 2 3 4 5 6 
#
# 1 0.012728 -0.005682 -0.001888 0.000000 0.000000 0.000000
# 2 -0.005682 0.012728 -0.001888 0.000000 0.000000 0.000000
# 3 -0.001888 -0.001888 0.013835 0.000000 0.000000 0.000000
# 4 0.000000 0.000000 0.000000 0.041850 0.000000 0.000000
# 5 0.000000 0.000000 0.000000 0.000000 0.041850 0.000000
# 6 0.000000 0.000000 0.000000 0.000000 0.000000 0.036819
#
#
# Mechanical properties :
#
#
# Convention : Reuss Voigt Hill
#
# Bulk Modulus (GPa) = 49.07758 51.97662 50.52710
# Shear Modulus (GPa) = 26.95162 27.93864 27.44513
#
# Velocity S-wave (km/s) = 3.71267 3.78004 3.74650
# Velocity P-wave (km/s) = 6.59381 6.75529 6.67504
#
# Compressibility (1/GPa) = 0.02037590
#
# Stress axis : x y z
#
# Youngs Moduli (GPa) = 78.56734 78.56707 72.28066
#
# Poissons Ratio (x) = 0.44640 0.13646
# Poissons Ratio (y) = 0.44640 0.13646
# Poissons Ratio (z) = 0.14832 0.14833
#
# Static dielectric constant tensor:
#      x y z
#    x 1.720240 0.000000 0.000000 
#    y 0.000000 1.720240 0.000000 
#    z 0.000000 0.000000 1.704320 
# 
# From -- ./inp_files/3131.got.cif
#   From: 2010.05.17/outbox.cif.g08.bks.cpg/sg190_2_cif.got.tgz:3131.got - 2010.05.20 12:16:56.
