data_PCOD9586135
_publ_section_title
;
Structure prediction by ZEFSAII (Michael W. Deem and Ramdas Pophale) SiO2 
 PCOD9586135
Probable space group: P -6 2 M
;
_chemical_formula_sum "Si O2"
_cell_formula_units_Z 84
_cell_length_a 14.824146
_cell_length_b 14.824146
_cell_length_c 24.664057
_cell_angle_alpha 90.000000
_cell_angle_beta 90.000000
_cell_angle_gamma 120.000000
_cell_volume 4693.907363
_symmetry_space_group_name_H-M "P -6 2 M"
_symmetry_group_IT_number 189
_symmetry_cell_setting 'hexagonal'
loop_
_space_group_symop_operation_xyz
x,y,z
-x+y,-x,-z
-y,x-y,z
x,y,-z
-x+y,-x,z
-y,x-y,-z
x-y,-y,-z
-x,-x+y,-z
y,x,-z
y,x,z
x-y,-y,z
-x,-x+y,z
loop_
_atom_site_type_symbol
_atom_site_label
_atom_site_fract_x
_atom_site_fract_y
_atom_site_fract_z
Si Si1 0.120568 0.725837 0.145420
Si Si2 0.525248 0.404144 0.331234
Si Si3 0.878985 0.231105 0.231206
Si Si4 0.118474 0.881495 0.436387
Si Si5 0.248539 0.828845 0.644651
Si Si6 0.436752 0.875063 0.790657
Si Si7 0.753908 0.875886 0.935419
O O1 0.131470 0.794592 0.198794
O O2 0.164146 0.649470 0.163156
O O3 0.163833 0.810373 0.097436
O O4 0.000000 0.650816 0.131254
O O5 0.437814 0.437814 0.330038
O O6 0.484999 0.295576 0.360255
O O7 0.628693 0.499557 0.356413
O O8 0.552893 0.390349 0.269129
O O9 0.857901 0.226279 0.295248
O O10 0.860855 0.322663 0.206311
O O11 0.000000 0.267214 0.222533
O O12 0.128883 0.863203 0.500000
O O13 0.201757 0.870807 0.400188
O O14 0.000000 0.802441 0.419173
O O15 0.143501 0.000000 0.431549
O O16 0.511394 0.000000 0.788837
O O17 0.812564 0.812564 0.920371
O O18 0.828836 0.000000 0.924146
O O19 0.735699 0.865584 0.000000
#
# Coordination Sequence:
#
# PCOD9586135 Si02
#       7
#    12  12  12  12  12  12  12
#     4  10  18  30  48  71 100 133 172 216 262 313
#     4  10  19  32  50  75 105 134 167 211 259 311
#     4  10  19  31  49  73 104 135 168 212 266 321
#     4  10  21  38  59  81 105 137 178 221 265 319
#     4  11  20  34  54  77 105 138 176 216 265 320
#     4   8  16  30  44  65  96 127 160 201 248 303
#     4   9  17  29  47  71 100 135 175 217 260 311
#
# _framework density 17.895537999999998
#
# number of rings (size 3 to 8) (size 9 to 14) (size 15 to 20)
#    0.000    2.286    1.429    3.571    0.000    1.714 
#    0.857    0.714    0.000    3.714    0.000    4.000 
#    0.000    0.000    0.000    0.000    0.000    0.000 
#
# Total GULP energy -467972.532138 kJ/mol
# GULP energy per Si atom -5571.101573 kJ/mol
# Density = 1.785481 g / cm^3
# Si number density = 17.895538 Si / 1000 Ang^3
#
#
#
# Elastic Constant Matrix: (Units=GPa)
#
#
# Indices 1 2 3 4 5 6 
#
# 1 53.7184 9.6868 24.5320 0.0000 0.0000 0.0000
# 2 9.6868 53.7184 24.5320 0.0000 0.0000 0.0000
# 3 24.5320 24.5320 51.8455 0.0000 0.0000 0.0000
# 4 0.0000 0.0000 0.0000 27.3177 0.0000 0.0000
# 5 0.0000 0.0000 0.0000 0.0000 27.3177 0.0000
# 6 0.0000 0.0000 0.0000 0.0000 0.0000 22.0158
#
#
#
# Elastic Compliance Matrix: (Units=1/GPa)
#
#
# Indices 1 2 3 4 5 6 
#
# 1 0.023797 0.001086 -0.011774 0.000000 0.000000 0.000000
# 2 0.001086 0.023797 -0.011774 0.000000 0.000000 0.000000
# 3 -0.011774 -0.011774 0.030430 0.000000 0.000000 0.000000
# 4 0.000000 0.000000 0.000000 0.036606 0.000000 0.000000
# 5 0.000000 0.000000 0.000000 0.000000 0.036606 0.000000
# 6 0.000000 0.000000 0.000000 0.000000 0.000000 0.045422
#
#
# Mechanical properties :
#
#
# Convention : Reuss Voigt Hill
#
# Bulk Modulus (GPa) = 30.21155 30.75376 30.48265
# Shear Modulus (GPa) = 19.79303 22.03235 20.91269
#
# Velocity S-wave (km/s) = 3.32931 3.51260 3.42218
# Velocity P-wave (km/s) = 5.63009 5.80290 5.71715
#
# Compressibility (1/GPa) = 0.03309992
#
# Stress axis : x y z
#
# Youngs Moduli (GPa) = 42.02289 42.02289 32.86227
#
# Poissons Ratio (x) = -0.04562 0.38691
# Poissons Ratio (y) = -0.04562 0.38691
# Poissons Ratio (z) = 0.49476 0.49476
#
# Static dielectric constant tensor:
#      x y z
#    x 1.637980 0.000000 0.000000 
#    y 0.000000 1.637980 0.000000 
#    z 0.000000 0.000000 1.605150 
# 
# From -- ./inp_files/3597.got.cif
#   From: 2010.05.17/outbox.cif.g08.bks.cpg/sg189_2_cif.got.tgz:3597.got - 2010.05.20 12:14:34.
