data_PCOD9586062
_publ_section_title
;
Structure prediction by ZEFSAII (Michael W. Deem and Ramdas Pophale) SiO2 
 PCOD9586062
Probable space group: P -6 C 2
;
_chemical_formula_sum "Si O2"
_cell_formula_units_Z 48
_cell_length_a 11.997639
_cell_length_b 11.997639
_cell_length_c 17.948053
_cell_angle_alpha 90.000000
_cell_angle_beta 90.000000
_cell_angle_gamma 120.000000
_cell_volume 2237.378989
_symmetry_space_group_name_H-M "P -6 C 2"
_symmetry_group_IT_number 188
_symmetry_cell_setting 'hexagonal'
loop_
_space_group_symop_operation_xyz
x,y,z
-x+y,-x,1/2-z
-y,x-y,z
x,y,1/2-z
-x+y,-x,z
-y,x-y,1/2-z
-y,-x,-z
-x+y,y,-z
x,x-y,-z
-x+y,y,1/2+z
x,x-y,1/2+z
-y,-x,1/2+z
loop_
_atom_site_type_symbol
_atom_site_label
_atom_site_fract_x
_atom_site_fract_y
_atom_site_fract_z
Si Si1 0.813753 0.350349 0.338971
Si Si2 0.733262 0.761594 0.662472
Si Si3 0.973542 0.736738 0.607665
Si Si4 0.332904 0.418429 0.476746
O O1 0.779468 0.459310 0.362872
O O2 0.817455 0.353876 0.250000
O O3 0.932556 0.338990 0.364813
O O4 0.719428 0.729024 0.750000
O O5 0.856649 0.758983 0.629184
O O6 0.611636 0.673579 0.610459
O O7 0.751793 0.902882 0.648767
O O8 0.008431 0.725755 0.522058
O O9 0.475426 0.524575 0.500000
O O10 0.232954 0.465908 0.500000
#
# Coordination Sequence:
#
# PCOD9586062 Si02
#       4
#    12  12  12  12
#     4   8  17  32  55  92 129 165 207 266 332 384
#     4  11  23  40  65 100 136 176 222 274 336 404
#     4  11  22  40  65  98 135 177 224 271 337 403
#     4  10  24  44  67  93 128 177 226 279 338 401
#
# _framework density 21.453673999999999
#
# number of rings (size 3 to 8) (size 9 to 14) (size 15 to 20)
#    0.500    1.500    0.000    3.750    3.500    0.000 
#    0.000    8.750    0.000    0.000    0.000    0.000 
#    0.000    0.000    0.000    0.000    0.000    0.000 
#
# Total GULP energy -267645.318404 kJ/mol
# GULP energy per Si atom -5575.944133 kJ/mol
# Density = 2.140484 g / cm^3
# Si number density = 21.453674 Si / 1000 Ang^3
#
#
#
# Elastic Constant Matrix: (Units=GPa)
#
#
# Indices 1 2 3 4 5 6 
#
# 1 91.3343 40.6882 44.3337 -0.0002 0.0000 0.0000
# 2 40.6882 91.3343 44.3337 0.0002 0.0000 0.0000
# 3 44.3337 44.3337 136.8745 0.0000 0.0000 0.0000
# 4 -0.0002 0.0002 0.0000 15.6161 0.0000 0.0000
# 5 0.0000 0.0000 0.0000 0.0000 15.6161 -0.0002
# 6 0.0000 0.0000 0.0000 0.0000 -0.0002 25.3230
#
#
#
# Elastic Compliance Matrix: (Units=1/GPa)
#
#
# Indices 1 2 3 4 5 6 
#
# 1 0.014713 -0.005032 -0.003135 0.000000 0.000000 0.000000
# 2 -0.005032 0.014713 -0.003135 0.000000 0.000000 0.000000
# 3 -0.003135 -0.003135 0.009337 0.000000 0.000000 0.000000
# 4 0.000000 0.000000 0.000000 0.064037 0.000000 0.000000
# 5 0.000000 0.000000 0.000000 0.000000 0.064037 0.000001
# 6 0.000000 0.000000 0.000000 0.000000 0.000001 0.039490
#
#
# Mechanical properties :
#
#
# Convention : Reuss Voigt Hill
#
# Bulk Modulus (GPa) = 61.89709 64.25050 63.07380
# Shear Modulus (GPa) = 21.33864 23.99020 22.66442
#
# Velocity S-wave (km/s) = 3.15721 3.34763 3.25381
# Velocity P-wave (km/s) = 6.49652 6.70490 6.60153
#
# Compressibility (1/GPa) = 0.01615585
#
# Stress axis : x y z
#
# Youngs Moduli (GPa) = 67.96914 67.96914 107.09957
#
# Poissons Ratio (x) = 0.34204 0.33580
# Poissons Ratio (y) = 0.34204 0.33580
# Poissons Ratio (z) = 0.21311 0.21311
#
# Static dielectric constant tensor:
#      x y z
#    x 1.819720 0.000000 0.000000 
#    y 0.000000 1.819720 0.000000 
#    z 0.000000 0.000000 1.784930 
# 
# From -- ./inp_files/3551.got.cif
#   From: 2010.05.17/outbox.cif.g08.bks.cpg/sg188_2_cif.got.tgz:3551.got - 2010.05.20 12:11:46.
