data_PCOD9586629
_publ_section_title
;
Structure prediction by ZEFSAII (Michael W. Deem and Ramdas Pophale) SiO2 
 PCOD9586629
Probable space group: P -6 2 C
;
_chemical_formula_sum "Si O2"
_cell_formula_units_Z 52
_cell_length_a 13.793586
_cell_length_b 13.793586
_cell_length_c 17.977019
_cell_angle_alpha 90.000000
_cell_angle_beta 90.000000
_cell_angle_gamma 120.000000
_cell_volume 2962.120236
_symmetry_space_group_name_H-M "P -6 2 C"
_symmetry_group_IT_number 190
_symmetry_cell_setting 'hexagonal'
loop_
_space_group_symop_operation_xyz
x,y,z
-x+y,-x,1/2-z
-y,x-y,z
x,y,1/2-z
-x+y,-x,z
-y,x-y,1/2-z
x-y,-y,-z
-x,-x+y,-z
y,x,-z
y,x,1/2+z
x-y,-y,1/2+z
-x,-x+y,1/2+z
loop_
_atom_site_type_symbol
_atom_site_label
_atom_site_fract_x
_atom_site_fract_y
_atom_site_fract_z
Si Si1 0.867820 0.107999 0.550133
Si Si2 0.695282 0.022637 0.163006
Si Si3 0.424324 0.920604 0.839416
Si Si4 0.086265 0.308140 0.595513
Si Si5 0.333335 0.666667 0.659971
O O1 0.769342 0.063393 0.609296
O O2 0.867283 0.193278 0.488761
O O3 0.986061 0.178881 0.592075
O O4 0.844666 0.000000 0.500000
O O5 0.691757 0.996062 0.250000
O O6 0.584352 0.029103 0.144741
O O7 0.809141 0.141265 0.147662
O O8 0.413323 0.926488 0.750000
O O9 0.349549 0.963395 0.879850
O O10 0.367462 0.790754 0.862870
O O11 0.333334 0.666668 0.750000
#
# Coordination Sequence:
#
# PCOD9586629 Si02
#       5
#    12  12  12  12   4
#     4   9  21  40  54  76 116 158 197 244 287 337
#     4  10  20  35  57  87 119 151 193 245 295 348
#     4  10  18  31  57  89 119 144 184 241 297 350
#     4  10  19  37  57  81 111 160 194 239 293 351
#     4   9  15  27  48  81 120 144 169 230 295 336
#
# _framework density 17.554994000000001
#
# number of rings (size 3 to 8) (size 9 to 14) (size 15 to 20)
#    0.000    2.308    2.308    0.692    0.000    1.846 
#   48.462    0.000    0.000    0.923    0.000    0.000 
#    0.000    0.000    0.000    0.000    0.000    0.000 
#
# Total GULP energy -289484.635585 kJ/mol
# GULP energy per Si atom -5567.012223 kJ/mol
# Density = 1.751504 g / cm^3
# Si number density = 17.554994 Si / 1000 Ang^3
#
#
#
# Elastic Constant Matrix: (Units=GPa)
#
#
# Indices 1 2 3 4 5 6 
#
# 1 100.2244 42.7224 49.5758 0.0000 0.0000 -0.0001
# 2 42.7224 100.2236 49.5755 0.0000 0.0000 -0.0001
# 3 49.5758 49.5755 66.2316 0.0000 0.0000 0.0000
# 4 0.0000 0.0000 0.0000 29.8169 0.0000 0.0000
# 5 0.0000 0.0000 0.0000 0.0000 29.8170 0.0000
# 6 -0.0001 -0.0001 0.0000 0.0000 0.0000 28.7506
#
#
#
# Elastic Compliance Matrix: (Units=1/GPa)
#
#
# Indices 1 2 3 4 5 6 
#
# 1 0.015970 -0.001421 -0.010891 0.000000 0.000000 0.000000
# 2 -0.001421 0.015970 -0.010891 0.000000 0.000000 0.000000
# 3 -0.010891 -0.010891 0.031402 0.000000 0.000000 0.000000
# 4 0.000000 0.000000 0.000000 0.033538 0.000000 0.000000
# 5 0.000000 0.000000 0.000000 0.000000 0.033538 0.000000
# 6 0.000000 0.000000 0.000000 0.000000 0.000000 0.034782
#
#
# Mechanical properties :
#
#
# Convention : Reuss Voigt Hill
#
# Bulk Modulus (GPa) = 59.03587 61.15856 60.09721
# Shear Modulus (GPa) = 23.01483 25.99731 24.50607
#
# Velocity S-wave (km/s) = 3.62472 3.85243 3.74031
# Velocity P-wave (km/s) = 7.15683 7.39609 7.27745
#
# Compressibility (1/GPa) = 0.01693886
#
# Stress axis : x y z
#
# Youngs Moduli (GPa) = 62.61645 62.61618 31.84464
#
# Poissons Ratio (x) = 0.08895 0.34681
# Poissons Ratio (y) = 0.08895 0.34681
# Poissons Ratio (z) = 0.68194 0.68194
#
# Static dielectric constant tensor:
#      x y z
#    x 1.622480 0.000000 0.000000 
#    y 0.000000 1.622480 0.000000 
#    z 0.000000 0.000000 1.600200 
# 
# From -- ./inp_files/2699.got.cif
#   From: 2010.05.17/outbox.cif.g08.bks.cpg/sg190_2_cif.got.tgz:2699.got - 2010.05.20 12:16:56.
