data_PCOD9586764
_publ_section_title
;
Structure prediction by ZEFSAII (Michael W. Deem and Ramdas Pophale) SiO2 
 PCOD9586764
Probable space group: P -6 2 C
;
_chemical_formula_sum "Si O2"
_cell_formula_units_Z 72
_cell_length_a 24.369635
_cell_length_b 24.369635
_cell_length_c 8.701734
_cell_angle_alpha 90.000000
_cell_angle_beta 90.000000
_cell_angle_gamma 120.000000
_cell_volume 4475.427067
_symmetry_space_group_name_H-M "P -6 2 C"
_symmetry_group_IT_number 190
_symmetry_cell_setting 'hexagonal'
loop_
_space_group_symop_operation_xyz
x,y,z
-x+y,-x,1/2-z
-y,x-y,z
x,y,1/2-z
-x+y,-x,z
-y,x-y,1/2-z
x-y,-y,-z
-x,-x+y,-z
y,x,-z
y,x,1/2+z
x-y,-y,1/2+z
-x,-x+y,1/2+z
loop_
_atom_site_type_symbol
_atom_site_label
_atom_site_fract_x
_atom_site_fract_y
_atom_site_fract_z
Si Si1 0.856065 0.708924 0.064427
Si Si2 0.928348 0.409173 0.066058
Si Si3 0.641341 0.929011 0.434010
Si Si4 0.071564 0.591860 0.066285
Si Si5 0.928713 0.071322 0.064671
Si Si6 0.710753 0.639932 0.435254
O O1 0.857274 0.707187 0.250000
O O2 0.892124 0.783047 0.019831
O O3 0.783011 0.672304 0.012739
O O4 0.890227 0.672590 0.999410
O O5 0.931001 0.414819 0.250000
O O6 0.901637 0.335742 0.023635
O O7 0.897926 0.449554 0.000154
O O8 0.000000 0.443692 0.000000
O O9 0.646291 0.932124 0.250000
O O10 0.567062 0.901668 0.474146
O O11 0.679959 0.000000 0.500000
O O12 0.068556 0.585786 0.250000
O O13 0.000000 0.557289 0.000000
O O14 0.930823 0.069400 0.250000
O O15 0.000000 0.108509 0.000000
O O16 0.892266 0.000000 0.000000
O O17 0.710532 0.643431 0.250000
O O18 0.679386 0.679386 0.500000
#
# Coordination Sequence:
#
# PCOD9586764 Si02
#       6
#    12  12  12  12  12  12
#     4  10  21  35  50  69  95 125 156 194 242 294
#     4   9  15  24  41  64  90 118 146 175 210 254
#     4  10  20  32  47  67  92 123 156 191 231 279
#     4   9  16  26  41  63  90 117 146 177 210 253
#     4  11  23  38  55  72  90 116 155 205 258 309
#     4   9  18  31  46  67  94 123 155 190 229 277
#
# _framework density 16.08785
#
# number of rings (size 3 to 8) (size 9 to 14) (size 15 to 20)
#    0.000    2.333    0.000    4.167    0.000    6.000 
#    0.000    0.000    0.000    0.000    0.000    0.000 
#    1.667    0.000    1.000    0.000    1.333    0.000 
#
# Total GULP energy -401161.616303 kJ/mol
# GULP energy per Si atom -5571.689115 kJ/mol
# Density = 1.605123 g / cm^3
# Si number density = 16.087850 Si / 1000 Ang^3
#
#
#
# Elastic Constant Matrix: (Units=GPa)
#
#
# Indices 1 2 3 4 5 6 
#
# 1 131.7707 84.8983 36.0339 0.0000 0.0000 0.0000
# 2 84.8983 131.7707 36.0339 0.0000 0.0000 0.0000
# 3 36.0339 36.0339 37.1674 0.0000 0.0000 0.0000
# 4 0.0000 0.0000 0.0000 20.4250 0.0000 0.0000
# 5 0.0000 0.0000 0.0000 0.0000 20.4250 0.0000
# 6 0.0000 0.0000 0.0000 0.0000 0.0000 23.4362
#
#
#
# Elastic Compliance Matrix: (Units=1/GPa)
#
#
# Indices 1 2 3 4 5 6 
#
# 1 0.014073 -0.007261 -0.006604 0.000000 0.000000 0.000000
# 2 -0.007261 0.014073 -0.006604 0.000000 0.000000 0.000000
# 3 -0.006604 -0.006604 0.039711 0.000000 0.000000 0.000000
# 4 0.000000 0.000000 0.000000 0.048960 0.000000 0.000000
# 5 0.000000 0.000000 0.000000 0.000000 0.048960 0.000000
# 6 0.000000 0.000000 0.000000 0.000000 0.000000 0.042669
#
#
# Mechanical properties :
#
#
# Convention : Reuss Voigt Hill
#
# Bulk Modulus (GPa) = 37.14991 68.29344 52.72167
# Shear Modulus (GPa) = 19.35297 22.44007 20.89652
#
# Velocity S-wave (km/s) = 3.47213 3.73881 3.60794
# Velocity P-wave (km/s) = 6.26229 7.82182 7.08509
#
# Compressibility (1/GPa) = 0.02691797
#
# Stress axis : x y z
#
# Youngs Moduli (GPa) = 71.05661 71.05661 25.18191
#
# Poissons Ratio (x) = 0.51596 0.16631
# Poissons Ratio (y) = 0.51596 0.16631
# Poissons Ratio (z) = 0.46928 0.46928
#
# Static dielectric constant tensor:
#      x y z
#    x 1.548680 0.000000 0.000000 
#    y 0.000000 1.548680 0.000000 
#    z 0.000000 0.000000 1.543940 
# 
# From -- ./inp_files/1208.got.cif
#   From: 2010.05.17/outbox.cif.g08.bks.cpg/sg190_1_cif.got.tgz:1208.got - 2010.05.20 12:16:56.
