data_PCOD9586038
_publ_section_title
;
Structure prediction by ZEFSAII (Michael W. Deem and Ramdas Pophale) SiO2 
 PCOD9586038
Probable space group: P -6 C 2
;
_chemical_formula_sum "Si O2"
_cell_formula_units_Z 84
_cell_length_a 17.591931
_cell_length_b 17.591931
_cell_length_c 14.180954
_cell_angle_alpha 90.000000
_cell_angle_beta 90.000000
_cell_angle_gamma 120.000000
_cell_volume 3800.695755
_symmetry_space_group_name_H-M "P -6 C 2"
_symmetry_group_IT_number 188
_symmetry_cell_setting 'hexagonal'
loop_
_space_group_symop_operation_xyz
x,y,z
-x+y,-x,1/2-z
-y,x-y,z
x,y,1/2-z
-x+y,-x,z
-y,x-y,1/2-z
-y,-x,-z
-x+y,y,-z
x,x-y,-z
-x+y,y,1/2+z
x,x-y,1/2+z
-y,-x,1/2+z
loop_
_atom_site_type_symbol
_atom_site_label
_atom_site_fract_x
_atom_site_fract_y
_atom_site_fract_z
Si Si1 0.262700 0.484724 0.854065
Si Si2 0.406344 0.534826 0.098714
Si Si3 0.860393 0.226916 0.639541
Si Si4 0.000676 0.253969 0.997285
Si Si5 0.663188 0.592183 0.137633
Si Si6 0.151693 0.281244 0.640514
Si Si7 0.934870 0.422723 0.856643
O O1 0.235403 0.499222 0.750000
O O2 0.367090 0.543113 0.859497
O O3 0.203041 0.509238 0.917888
O O4 0.229857 0.382435 0.861683
O O5 0.421383 0.461427 0.146747
O O6 0.453064 0.546936 0.000000
O O7 0.887514 0.231088 0.750000
O O8 0.757082 0.159937 0.635783
O O9 0.885638 0.324281 0.605869
O O10 0.915164 0.200986 0.568509
O O11 0.076240 0.286312 0.918227
O O12 0.040347 0.220853 0.081360
O O13 0.987124 0.323531 0.058953
O O14 0.649777 0.609647 0.250000
O O15 0.580493 0.500297 0.107230
O O16 0.130920 0.255785 0.750000
O O17 0.901263 0.411008 0.750000
#
# Coordination Sequence:
#
# PCOD9586038 Si02
#       7
#    12  12  12  12  12  12  12
#     4  11  23  39  52  73 110 159 208 261 313 360
#     4  12  25  35  56  82 117 161 218 268 314 370
#     4  10  22  40  61  91 128 168 219 278 338 399
#     4  11  21  35  62  86 119 160 202 246 324 387
#     4  10  22  40  61  91 128 168 219 278 338 399
#     4  10  23  38  59  89 123 157 204 260 312 382
#     4  10  22  39  59  86 118 166 223 280 335 390
#
# _framework density 22.101216999999998
#
# number of rings (size 3 to 8) (size 9 to 14) (size 15 to 20)
#    0.000    1.429    0.000    5.000   10.000    4.571 
#    0.857    0.000    0.000    0.000    0.000    0.000 
#   45.714    0.000   27.429    0.000    0.000    0.000 
#
# Total GULP energy -468332.527827 kJ/mol
# GULP energy per Si atom -5575.387236 kJ/mol
# Density = 2.205091 g / cm^3
# Si number density = 22.101217 Si / 1000 Ang^3
#
#
#
# Elastic Constant Matrix: (Units=GPa)
#
#
# Indices 1 2 3 4 5 6 
#
# 1 80.7431 48.0206 40.3097 -0.0002 0.0000 0.0000
# 2 48.0206 80.7431 40.3097 0.0002 0.0000 0.0000
# 3 40.3097 40.3097 145.5864 0.0000 0.0000 0.0000
# 4 -0.0002 0.0002 0.0000 28.4355 0.0000 0.0000
# 5 0.0000 0.0000 0.0000 0.0000 28.4355 -0.0002
# 6 0.0000 0.0000 0.0000 0.0000 -0.0002 16.3613
#
#
#
# Elastic Compliance Matrix: (Units=1/GPa)
#
#
# Indices 1 2 3 4 5 6 
#
# 1 0.019977 -0.010583 -0.002601 0.000000 0.000000 0.000000
# 2 -0.010583 0.019977 -0.002601 0.000000 0.000000 0.000000
# 3 -0.002601 -0.002601 0.008309 0.000000 0.000000 0.000000
# 4 0.000000 0.000000 0.000000 0.035167 0.000000 0.000000
# 5 0.000000 0.000000 0.000000 0.000000 0.035167 0.000001
# 6 0.000000 0.000000 0.000000 0.000000 0.000001 0.061120
#
#
# Mechanical properties :
#
#
# Convention : Reuss Voigt Hill
#
# Bulk Modulus (GPa) = 59.90199 62.70587 61.30393
# Shear Modulus (GPa) = 23.05707 26.54197 24.79952
#
# Velocity S-wave (km/s) = 3.23344 3.46920 3.35339
# Velocity P-wave (km/s) = 6.41112 6.66940 6.54154
#
# Compressibility (1/GPa) = 0.01669394
#
# Stress axis : x y z
#
# Youngs Moduli (GPa) = 50.05659 50.05659 120.34828
#
# Poissons Ratio (x) = 0.52973 0.31305
# Poissons Ratio (y) = 0.52973 0.31305
# Poissons Ratio (z) = 0.13021 0.13021
#
# Static dielectric constant tensor:
#      x y z
#    x 1.822200 0.000000 0.000000 
#    y 0.000000 1.822200 0.000000 
#    z 0.000000 0.000000 1.922870 
# 
# From -- ./inp_files/2606.got.cif
#   From: 2010.05.17/outbox.cif.g08.bks.cpg/sg188_2_cif.got.tgz:2606.got - 2010.05.20 12:11:46.
