data_PCOD9586790
_publ_section_title
;
Structure prediction by ZEFSAII (Michael W. Deem and Ramdas Pophale) SiO2 
 PCOD9586790
Probable space group: P -6 2 C
;
_chemical_formula_sum "Si O2"
_cell_formula_units_Z 60
_cell_length_a 16.726127
_cell_length_b 16.726127
_cell_length_c 13.988383
_cell_angle_alpha 90.000000
_cell_angle_beta 90.000000
_cell_angle_gamma 120.000000
_cell_volume 3389.135452
_symmetry_space_group_name_H-M "P -6 2 C"
_symmetry_group_IT_number 190
_symmetry_cell_setting 'hexagonal'
loop_
_space_group_symop_operation_xyz
x,y,z
-x+y,-x,1/2-z
-y,x-y,z
x,y,1/2-z
-x+y,-x,z
-y,x-y,1/2-z
x-y,-y,-z
-x,-x+y,-z
y,x,-z
y,x,1/2+z
x-y,-y,1/2+z
-x,-x+y,1/2+z
loop_
_atom_site_type_symbol
_atom_site_label
_atom_site_fract_x
_atom_site_fract_y
_atom_site_fract_z
Si Si1 0.981920 0.587098 0.138523
Si Si2 0.175417 0.669179 0.053561
Si Si3 0.217784 0.747572 0.639056
Si Si4 0.383489 0.946954 0.864470
Si Si5 0.517966 0.668866 0.136338
O O1 0.014183 0.601833 0.250000
O O2 0.893234 0.601432 0.135854
O O3 0.944438 0.477901 0.117996
O O4 0.069149 0.642637 0.070106
O O5 0.233955 0.766360 0.105603
O O6 0.177581 0.583663 0.100789
O O7 0.220593 0.686916 0.948145
O O8 0.236959 0.732373 0.750000
O O9 0.290188 0.852995 0.610423
O O10 0.375718 0.949840 0.750000
O O11 0.409194 0.048354 0.901469
O O12 0.518162 0.663780 0.250000
#
# Coordination Sequence:
#
# PCOD9586790 Si02
#       5
#    12  12  12  12  12
#     4   9  18  35  55  72 100 135 174 224 260 306
#     4  11  21  33  53  78 101 138 178 212 267 314
#     4  10  21  35  50  72 102 138 178 214 258 312
#     4   8  17  34  52  71 100 137 171 214 264 306
#     4  10  20  35  55  77 105 134 174 224 264 314
#
# _framework density 17.703628999999999
#
# number of rings (size 3 to 8) (size 9 to 14) (size 15 to 20)
#    0.000    2.400    0.000    4.000    2.800    0.800 
#    1.200    0.000    0.000    0.000    0.000    0.000 
#    2.000    0.000    4.800    0.000    6.400    0.000 
#
# Total GULP energy -334041.005480 kJ/mol
# GULP energy per Si atom -5567.350091 kJ/mol
# Density = 1.766333 g / cm^3
# Si number density = 17.703629 Si / 1000 Ang^3
#
#
#
# Elastic Constant Matrix: (Units=GPa)
#
#
# Indices 1 2 3 4 5 6 
#
# 1 117.2513 64.0969 31.9987 0.0000 0.0000 0.0000
# 2 64.0969 117.2513 31.9987 0.0000 0.0000 0.0000
# 3 31.9987 31.9987 94.1747 0.0000 0.0000 0.0000
# 4 0.0000 0.0000 0.0000 26.8956 0.0000 0.0000
# 5 0.0000 0.0000 0.0000 0.0000 26.8956 0.0000
# 6 0.0000 0.0000 0.0000 0.0000 0.0000 26.5772
#
#
#
# Elastic Compliance Matrix: (Units=1/GPa)
#
#
# Indices 1 2 3 4 5 6 
#
# 1 0.012539 -0.006274 -0.002129 0.000000 0.000000 0.000000
# 2 -0.006274 0.012539 -0.002129 0.000000 0.000000 0.000000
# 3 -0.002129 -0.002129 0.012065 0.000000 0.000000 0.000000
# 4 0.000000 0.000000 0.000000 0.037181 0.000000 0.000000
# 5 0.000000 0.000000 0.000000 0.000000 0.037181 0.000000
# 6 0.000000 0.000000 0.000000 0.000000 0.000000 0.037626
#
#
# Mechanical properties :
#
#
# Convention : Reuss Voigt Hill
#
# Bulk Modulus (GPa) = 62.18622 64.98511 63.58567
# Shear Modulus (GPa) = 28.48106 29.44587 28.96347
#
# Velocity S-wave (km/s) = 4.01530 4.08274 4.04916
# Velocity P-wave (km/s) = 7.52990 7.68192 7.60629
#
# Compressibility (1/GPa) = 0.01608073
#
# Stress axis : x y z
#
# Youngs Moduli (GPa) = 79.74914 79.74914 82.88245
#
# Poissons Ratio (x) = 0.50033 0.17645
# Poissons Ratio (y) = 0.50033 0.17645
# Poissons Ratio (z) = 0.16978 0.16978
#
# Static dielectric constant tensor:
#      x y z
#    x 1.630460 0.000000 0.000000 
#    y 0.000000 1.630460 0.000000 
#    z 0.000000 0.000000 1.739900 
# 
# From -- ./inp_files/2928.got.cif
#   From: 2010.05.17/outbox.cif.g08.bks.cpg/sg190_2_cif.got.tgz:2928.got - 2010.05.20 12:16:56.
