data_PCOD9586512
_publ_section_title
;
Structure prediction by ZEFSAII (Michael W. Deem and Ramdas Pophale) SiO2 
 PCOD9586512
Probable space group: P -6 2 M
;
_chemical_formula_sum "Si O2"
_cell_formula_units_Z 45
_cell_length_a 16.791228
_cell_length_b 16.791228
_cell_length_c 9.961845
_cell_angle_alpha 90.000000
_cell_angle_beta 90.000000
_cell_angle_gamma 120.000000
_cell_volume 2432.401874
_symmetry_space_group_name_H-M "P -6 2 M"
_symmetry_group_IT_number 189
_symmetry_cell_setting 'hexagonal'
loop_
_space_group_symop_operation_xyz
x,y,z
-x+y,-x,-z
-y,x-y,z
x,y,-z
-x+y,-x,z
-y,x-y,-z
x-y,-y,-z
-x,-x+y,-z
y,x,-z
y,x,z
x-y,-y,z
-x,-x+y,z
loop_
_atom_site_type_symbol
_atom_site_label
_atom_site_fract_x
_atom_site_fract_y
_atom_site_fract_z
Si Si1 0.606142 0.111118 0.652494
Si Si2 0.653058 0.851552 0.759923
Si Si3 0.218210 0.110029 0.500000
Si Si4 0.110766 0.466978 0.848485
Si Si5 0.749770 0.000000 0.000000
O O1 0.618043 0.145616 0.500000
O O2 0.702403 0.132752 0.715325
O O3 0.551099 0.145122 0.745275
O O4 0.544972 0.000000 0.647718
O O5 0.718874 0.870829 0.632090
O O6 0.606250 0.746156 0.805001
O O7 0.707350 0.919827 0.881487
O O8 0.144058 0.144058 0.500000
O O9 0.168887 0.000000 0.500000
O O10 0.000000 0.415831 0.849169
O O11 0.143206 0.499581 0.000000
#
# Coordination Sequence:
#
# PCOD9586512 Si02
#       5
#    12  12   6  12   3
#     4  10  21  38  62  90 123 162 216 268 327 399
#     4  12  23  43  67  99 131 180 229 284 347 413
#     4  12  25  44  70  98 136 180 236 293 354 418
#     4  10  23  39  61  93 129 167 215 275 339 405
#     4  12  24  38  74 100 136 174 234 286 344 426
#
# _framework density 18.500233000000001
#
# number of rings (size 3 to 8) (size 9 to 14) (size 15 to 20)
#    0.000    1.067    5.333    0.933    3.733    0.000 
#    1.600    0.000    0.000    0.000    0.000    0.000 
#    0.000    0.000    0.000    0.000    0.000    0.000 
#
# Total GULP energy -250537.262789 kJ/mol
# GULP energy per Si atom -5567.494729 kJ/mol
# Density = 1.845813 g / cm^3
# Si number density = 18.500233 Si / 1000 Ang^3
#
#
#
# Elastic Constant Matrix: (Units=GPa)
#
#
# Indices 1 2 3 4 5 6 
#
# 1 75.2548 20.4669 52.2296 0.0000 0.0000 0.0000
# 2 20.4669 75.2548 52.2296 0.0000 0.0000 0.0000
# 3 52.2296 52.2296 188.9614 0.0000 0.0000 0.0000
# 4 0.0000 0.0000 0.0000 14.1929 0.0000 0.0000
# 5 0.0000 0.0000 0.0000 0.0000 14.1929 0.0000
# 6 0.0000 0.0000 0.0000 0.0000 0.0000 27.3939
#
#
#
# Elastic Compliance Matrix: (Units=1/GPa)
#
#
# Indices 1 2 3 4 5 6 
#
# 1 0.016606 -0.001647 -0.004135 0.000000 0.000000 0.000000
# 2 -0.001647 0.016606 -0.004135 0.000000 0.000000 0.000000
# 3 -0.004135 -0.004135 0.007578 0.000000 0.000000 0.000000
# 4 0.000000 0.000000 0.000000 0.070458 0.000000 0.000000
# 5 0.000000 0.000000 0.000000 0.000000 0.070458 0.000000
# 6 0.000000 0.000000 0.000000 0.000000 0.000000 0.036504
#
#
# Mechanical properties :
#
#
# Convention : Reuss Voigt Hill
#
# Bulk Modulus (GPa) = 47.71666 65.48037 56.59851
# Shear Modulus (GPa) = 20.40594 25.45893 22.93244
#
# Velocity S-wave (km/s) = 3.32476 3.71366 3.52458
# Velocity P-wave (km/s) = 6.37081 7.33891 6.87193
#
# Compressibility (1/GPa) = 0.02095704
#
# Stress axis : x y z
#
# Youngs Moduli (GPa) = 60.22035 60.22035 131.96418
#
# Poissons Ratio (x) = 0.09916 0.54564
# Poissons Ratio (y) = 0.09916 0.54564
# Poissons Ratio (z) = 0.24900 0.24900
#
# Static dielectric constant tensor:
#      x y z
#    x 1.621350 0.000000 0.000000 
#    y 0.000000 1.621350 0.000000 
#    z 0.000000 0.000000 1.636810 
# 
# From -- ./inp_files/584.got.cif
#   From: 2010.05.17/outbox.cif.g08.bks.cpg/sg189_1_cif.got.tgz:584.got - 2010.05.20 12:14:34.
