data_PCOD9586875
_publ_section_title
;
Structure prediction by ZEFSAII (Michael W. Deem and Ramdas Pophale) SiO2 
 PCOD9586875
Probable space group: P -6 2 C
;
_chemical_formula_sum "Si O2"
_cell_formula_units_Z 48
_cell_length_a 12.738038
_cell_length_b 12.738038
_cell_length_c 15.482281
_cell_angle_alpha 90.000000
_cell_angle_beta 90.000000
_cell_angle_gamma 120.000000
_cell_volume 2175.557957
_symmetry_space_group_name_H-M "P -6 2 C"
_symmetry_group_IT_number 190
_symmetry_cell_setting 'hexagonal'
loop_
_space_group_symop_operation_xyz
x,y,z
-x+y,-x,1/2-z
-y,x-y,z
x,y,1/2-z
-x+y,-x,z
-y,x-y,1/2-z
x-y,-y,-z
-x,-x+y,-z
y,x,-z
y,x,1/2+z
x-y,-y,1/2+z
-x,-x+y,1/2+z
loop_
_atom_site_type_symbol
_atom_site_label
_atom_site_fract_x
_atom_site_fract_y
_atom_site_fract_z
Si Si1 0.239319 0.239320 0.646870
Si Si2 0.409139 0.137483 0.602891
Si Si3 0.666667 0.333335 0.893784
Si Si4 0.137482 0.409140 0.602892
Si Si5 0.000000 0.000000 0.355472
Si Si6 0.333334 0.666668 0.893783
O O1 0.238632 0.238631 0.750000
O O2 0.349509 0.221439 0.618208
O O3 0.221440 0.349512 0.618210
O O4 0.119126 0.119129 0.614753
O O5 0.546766 0.211620 0.635295
O O6 0.414850 0.126252 0.500000
O O7 0.327005 0.000000 0.637909
O O8 0.666668 0.333334 0.000000
O O9 0.211617 0.546768 0.635296
O O10 0.000000 0.000000 0.250000
#
# Coordination Sequence:
#
# PCOD9586875 Si02
#       6
#    12  12   4  12   4   4
#     4  11  21  37  58  83 118 158 193 234 290 343
#     4  10  21  37  60  89 116 149 194 241 286 340
#     4   9  21  39  61  86 118 153 190 239 292 339
#     4  10  21  37  60  89 116 149 194 241 286 340
#     4   9  18  33  52  77 112 150 187 230 286 333
#     4   9  21  39  61  86 118 153 190 239 292 339
#
# _framework density 22.063303999999999
#
# number of rings (size 3 to 8) (size 9 to 14) (size 15 to 20)
#    0.000    2.000    2.500    0.750    3.500    0.000 
#    0.000    2.500    0.000    0.000    0.000    0.000 
#    0.000    0.000    0.000    0.000    0.000    0.000 
#
# Total GULP energy -267989.278993 kJ/mol
# GULP energy per Si atom -5583.109979 kJ/mol
# Density = 2.201309 g / cm^3
# Si number density = 22.063304 Si / 1000 Ang^3
#
#
#
# Elastic Constant Matrix: (Units=GPa)
#
#
# Indices 1 2 3 4 5 6 
#
# 1 109.9327 60.9203 3.5687 -0.0001 -0.0001 -0.0002
# 2 60.9203 109.9321 3.5687 -0.0002 0.0000 -0.0004
# 3 3.5687 3.5687 36.2724 -0.0001 -0.0001 0.0000
# 4 -0.0001 -0.0002 -0.0001 -11.6862 0.0002 0.0000
# 5 -0.0001 0.0000 -0.0001 0.0002 -11.6863 -0.0001
# 6 -0.0002 -0.0004 0.0000 0.0000 -0.0001 24.5057
#
#
#
# Elastic Compliance Matrix: (Units=1/GPa)
#
#
# Indices 1 2 3 4 5 6 
#
# 1 0.013140 -0.007263 -0.000578 0.000000 0.000000 0.000000
# 2 -0.007263 0.013140 -0.000578 0.000000 0.000000 0.000000
# 3 -0.000578 -0.000578 0.027683 0.000000 0.000000 0.000000
# 4 0.000000 0.000000 0.000000 -0.085571 -0.000002 0.000000
# 5 0.000000 0.000000 0.000000 -0.000002 -0.085570 0.000000
# 6 0.000000 0.000000 0.000000 0.000000 0.000000 0.040807
#
#
# Mechanical properties :
#
#
# Convention : Reuss Voigt Hill
#
# Bulk Modulus (GPa) = 26.93652 43.58362 35.26007
# Shear Modulus (GPa) = -106.02848 12.76527 -46.63160
#
# Velocity S-wave (km/s) = -6.93980 2.40797 -4.60231
# Velocity P-wave (km/s) = 7.20966 5.24670 3.49652
#
# Compressibility (1/GPa) = 0.03712432
#
# Stress axis : x y z
#
# Youngs Moduli (GPa) = 76.10296 76.10253 36.12335
#
# Poissons Ratio (x) = 0.55273 0.02089
# Poissons Ratio (y) = 0.55273 0.02089
# Poissons Ratio (z) = 0.04401 0.04400
#
# Static dielectric constant tensor:
#      x y z
#    x 1.815100 0.000000 0.000000 
#    y 0.000000 1.815100 0.000000 
#    z 0.000000 0.000000 1.796850 
# 
# From -- ./inp_files/4176.got.cif
#   From: 2010.05.17/outbox.cif.g08.bks.cpg/sg190_3_cif.got.tgz:4176.got - 2010.05.20 12:16:56.
