data_PCOD9586188
_publ_section_title
;
Structure prediction by ZEFSAII (Michael W. Deem and Ramdas Pophale) SiO2 
 PCOD9586188
Probable space group: P -6 2 M
;
_chemical_formula_sum "Si O2"
_cell_formula_units_Z 72
_cell_length_a 24.687254
_cell_length_b 24.687254
_cell_length_c 9.173586
_cell_angle_alpha 90.000000
_cell_angle_beta 90.000000
_cell_angle_gamma 120.000000
_cell_volume 4841.894688
_symmetry_space_group_name_H-M "P -6 2 M"
_symmetry_group_IT_number 189
_symmetry_cell_setting 'hexagonal'
loop_
_space_group_symop_operation_xyz
x,y,z
-x+y,-x,-z
-y,x-y,z
x,y,-z
-x+y,-x,z
-y,x-y,-z
x-y,-y,-z
-x,-x+y,-z
y,x,-z
y,x,z
x-y,-y,z
-x,-x+y,z
loop_
_atom_site_type_symbol
_atom_site_label
_atom_site_fract_x
_atom_site_fract_y
_atom_site_fract_z
Si Si1 0.178236 0.812548 0.333462
Si Si2 0.928515 0.629108 0.824818
Si Si3 0.374053 0.072550 0.675805
Si Si4 0.851071 0.483758 0.825972
Si Si5 0.741787 0.259373 0.332879
Si Si6 0.492464 0.635639 0.826203
O O1 0.160393 0.815788 0.500000
O O2 0.117535 0.768921 0.239636
O O3 0.229155 0.881713 0.280339
O O4 0.218705 0.777102 0.334167
O O5 0.899297 0.555687 0.785402
O O6 0.000000 0.669534 0.774678
O O7 0.927645 0.631931 0.000000
O O8 0.383632 0.079685 0.500000
O O9 0.441096 0.097941 0.751812
O O10 0.328745 0.000000 0.708619
O O11 0.786280 0.462269 0.742441
O O12 0.875545 0.435740 0.796455
O O13 0.839814 0.482483 0.000000
O O14 0.735487 0.274430 0.500000
O O15 0.787779 0.320136 0.240300
O O16 0.500504 0.644949 0.000000
#
# Coordination Sequence:
#
# PCOD9586188 Si02
#       6
#    12  12  12  12  12  12
#     4   8  15  28  45  63  83 108 137 171 208 249
#     4   9  17  29  45  64  86 113 143 173 210 257
#     4   9  18  32  48  66  89 117 148 181 219 263
#     4   9  18  31  45  61  83 111 142 182 227 270
#     4   9  17  30  46  60  77 105 141 178 220 271
#     4  10  19  30  45  64  86 111 142 185 232 276
#
# _framework density 14.870212
#
# number of rings (size 3 to 8) (size 9 to 14) (size 15 to 20)
#    0.000    3.000    0.000    2.000    0.000    6.667 
#    1.000    1.667    0.000    0.000    0.000    0.000 
#    0.000    0.000    0.000    0.500    0.000    7.667 
#
# Total GULP energy -400894.875989 kJ/mol
# GULP energy per Si atom -5567.984389 kJ/mol
# Density = 1.483637 g / cm^3
# Si number density = 14.870212 Si / 1000 Ang^3
#
#
#
# Elastic Constant Matrix: (Units=GPa)
#
#
# Indices 1 2 3 4 5 6 
#
# 1 85.4868 59.5303 34.9958 0.0000 0.0000 0.0000
# 2 59.5303 85.4868 34.9958 0.0000 0.0000 0.0000
# 3 34.9958 34.9958 34.3768 0.0000 0.0000 0.0000
# 4 0.0000 0.0000 0.0000 19.8936 0.0000 0.0000
# 5 0.0000 0.0000 0.0000 0.0000 19.8936 0.0000
# 6 0.0000 0.0000 0.0000 0.0000 0.0000 12.9782
#
#
#
# Elastic Compliance Matrix: (Units=1/GPa)
#
#
# Indices 1 2 3 4 5 6 
#
# 1 0.026041 -0.012485 -0.013801 0.000000 0.000000 0.000000
# 2 -0.012485 0.026041 -0.013801 0.000000 0.000000 0.000000
# 3 -0.013801 -0.013801 0.057188 0.000000 0.000000 0.000000
# 4 0.000000 0.000000 0.000000 0.050267 0.000000 0.000000
# 5 0.000000 0.000000 0.000000 0.000000 0.050267 0.000000
# 6 0.000000 0.000000 0.000000 0.000000 0.000000 0.077052
#
#
# Mechanical properties :
#
#
# Convention : Reuss Voigt Hill
#
# Bulk Modulus (GPa) = 34.36640 51.59937 42.98289
# Shear Modulus (GPa) = 13.27214 15.60831 14.44023
#
# Velocity S-wave (km/s) = 2.99077 3.24332 3.11960
# Velocity P-wave (km/s) = 5.92346 6.98575 6.47642
#
# Compressibility (1/GPa) = 0.02909819
#
# Stress axis : x y z
#
# Youngs Moduli (GPa) = 38.40054 38.40054 17.48625
#
# Poissons Ratio (x) = 0.47942 0.24132
# Poissons Ratio (y) = 0.47942 0.24132
# Poissons Ratio (z) = 0.52995 0.52995
#
# Static dielectric constant tensor:
#      x y z
#    x 1.490190 0.000000 0.000000 
#    y 0.000000 1.490190 0.000000 
#    z 0.000000 0.000000 1.503830 
# 
# From -- ./inp_files/1237.got.cif
#   From: 2010.05.17/outbox.cif.g08.bks.cpg/sg189_1_cif.got.tgz:1237.got - 2010.05.20 12:14:34.
