data_PCOD9586513
_publ_section_title
;
Structure prediction by ZEFSAII (Michael W. Deem and Ramdas Pophale) SiO2 
 PCOD9586513
Probable space group: P -6 2 M
;
_chemical_formula_sum "Si O2"
_cell_formula_units_Z 84
_cell_length_a 18.034309
_cell_length_b 18.034309
_cell_length_c 15.080360
_cell_angle_alpha 90.000000
_cell_angle_beta 90.000000
_cell_angle_gamma 120.000000
_cell_volume 4247.577915
_symmetry_space_group_name_H-M "P -6 2 M"
_symmetry_group_IT_number 189
_symmetry_cell_setting 'hexagonal'
loop_
_space_group_symop_operation_xyz
x,y,z
-x+y,-x,-z
-y,x-y,z
x,y,-z
-x+y,-x,z
-y,x-y,-z
x-y,-y,-z
-x,-x+y,-z
y,x,-z
y,x,z
x-y,-y,z
-x,-x+y,z
loop_
_atom_site_type_symbol
_atom_site_label
_atom_site_fract_x
_atom_site_fract_y
_atom_site_fract_z
Si Si1 0.332764 0.488895 0.595981
Si Si2 0.900547 0.365666 0.210309
Si Si3 0.103334 0.206669 0.790654
Si Si4 0.102606 0.897394 0.594518
Si Si5 0.618085 0.809042 0.105488
Si Si6 0.511104 0.667236 0.404019
Si Si7 0.465119 0.365666 0.789691
O O1 0.331035 0.448097 0.500000
O O2 0.249573 0.499145 0.600271
O O3 0.418405 0.581595 0.595767
O O4 0.336802 0.445442 0.686654
O O5 0.854639 0.285434 0.146834
O O6 0.891360 0.336802 0.313346
O O7 0.866922 0.433461 0.203170
O O8 0.000000 0.416508 0.188176
O O9 0.148476 0.148476 0.798835
O O10 0.124066 0.248133 0.690986
O O11 0.142077 0.284153 0.859553
O O12 0.000000 0.148476 0.798835
O O13 0.127234 0.872767 0.500000
O O14 0.000000 0.854220 0.594094
O O15 0.145780 0.000000 0.594094
O O16 0.569205 0.854639 0.146834
O O17 0.616080 0.808040 0.000000
O O18 0.551903 0.668965 0.500000
O O19 0.416508 0.416508 0.811824
#
# Coordination Sequence:
#
# PCOD9586513 Si02
#       7
#    12  12  12  12  12  12  12
#     4   9  16  29  54  89 126 161 196 234 283 348
#     4  10  22  41  64  91 123 158 198 247 304 366
#     4  10  21  38  62  92 126 164 208 255 304 363
#     4   8  13  24  46  78 116 156 196 238 287 345
#     4  12  26  45  65  87 116 156 205 262 323 375
#     4   9  16  29  54  89 126 161 196 234 283 348
#     4  10  22  41  64  91 123 158 198 247 304 366
#
# _framework density 19.775977000000001
#
# number of rings (size 3 to 8) (size 9 to 14) (size 15 to 20)
#    0.000    2.286    1.429    1.429    0.000    6.286 
#    0.857    5.714    0.000    4.286    0.000    0.000 
#    0.000    0.000    0.000    0.000    0.000    0.000 
#
# Total GULP energy -468494.053985 kJ/mol
# GULP energy per Si atom -5577.310166 kJ/mol
# Density = 1.973097 g / cm^3
# Si number density = 19.775977 Si / 1000 Ang^3
#
#
#
# Elastic Constant Matrix: (Units=GPa)
#
#
# Indices 1 2 3 4 5 6 
#
# 1 75.2458 33.9159 70.6515 0.0000 0.0000 0.0000
# 2 33.9159 75.2458 70.6515 0.0000 0.0000 0.0000
# 3 70.6515 70.6515 192.1480 0.0000 0.0000 0.0000
# 4 0.0000 0.0000 0.0000 2.7859 0.0000 0.0000
# 5 0.0000 0.0000 0.0000 0.0000 2.7859 0.0000
# 6 0.0000 0.0000 0.0000 0.0000 0.0000 20.6649
#
#
#
# Elastic Compliance Matrix: (Units=1/GPa)
#
#
# Indices 1 2 3 4 5 6 
#
# 1 0.020838 -0.003357 -0.006428 0.000000 0.000000 0.000000
# 2 -0.003357 0.020838 -0.006428 0.000000 0.000000 0.000000
# 3 -0.006428 -0.006428 0.009931 0.000000 0.000000 0.000000
# 4 0.000000 0.000000 0.000000 0.358945 0.000000 0.000000
# 5 0.000000 0.000000 0.000000 0.000000 0.358945 0.000000
# 6 0.000000 0.000000 0.000000 0.000000 0.000000 0.048391
#
#
# Mechanical properties :
#
#
# Convention : Reuss Voigt Hill
#
# Bulk Modulus (GPa) = 52.13112 77.00860 64.56986
# Shear Modulus (GPa) = 5.83630 16.40873 11.12251
#
# Velocity S-wave (km/s) = 1.71977 2.88363 2.37412
# Velocity P-wave (km/s) = 5.51013 7.07899 6.34325
#
# Compressibility (1/GPa) = 0.01918240
#
# Stress axis : x y z
#
# Youngs Moduli (GPa) = 47.98877 47.98877 100.69403
#
# Poissons Ratio (x) = 0.16112 0.64722
# Poissons Ratio (y) = 0.16112 0.64722
# Poissons Ratio (z) = 0.30845 0.30845
#
# Static dielectric constant tensor:
#      x y z
#    x 1.682380 0.000000 0.000000 
#    y 0.000000 1.682380 0.000000 
#    z 0.000000 0.000000 1.723250 
# 
# From -- ./inp_files/2828.got.cif
#   From: 2010.05.17/outbox.cif.g08.bks.cpg/sg189_2_cif.got.tgz:2828.got - 2010.05.20 12:14:34.
