data_PCOD9586018
_publ_section_title
;
Structure prediction by ZEFSAII (Michael W. Deem and Ramdas Pophale) SiO2 
 PCOD9586018
Probable space group: P -6 C 2
;
_chemical_formula_sum "Si O2"
_cell_formula_units_Z 44
_cell_length_a 12.985347
_cell_length_b 12.985347
_cell_length_c 15.342316
_cell_angle_alpha 90.000000
_cell_angle_beta 90.000000
_cell_angle_gamma 120.000000
_cell_volume 2240.416045
_symmetry_space_group_name_H-M "P -6 C 2"
_symmetry_group_IT_number 188
_symmetry_cell_setting 'hexagonal'
loop_
_space_group_symop_operation_xyz
x,y,z
-x+y,-x,1/2-z
-y,x-y,z
x,y,1/2-z
-x+y,-x,z
-y,x-y,1/2-z
-y,-x,-z
-x+y,y,-z
x,x-y,-z
-x+y,y,1/2+z
x,x-y,1/2+z
-y,-x,1/2+z
loop_
_atom_site_type_symbol
_atom_site_label
_atom_site_fract_x
_atom_site_fract_y
_atom_site_fract_z
Si Si1 0.666667 0.333333 0.354403
Si Si2 0.610762 0.804014 0.250000
Si Si3 0.193737 0.240845 0.917249
Si Si4 0.000000 0.000000 0.854403
Si Si5 0.472930 0.380442 0.582750
Si Si6 0.473415 0.944096 0.750000
O O1 0.666667 0.333334 0.250000
O O2 0.689612 0.458842 0.390784
O O3 0.689798 0.820444 0.165043
O O4 0.558113 0.891446 0.250000
O O5 0.505779 0.666667 0.250000
O O6 0.125509 0.102564 0.890784
O O7 0.333334 0.294306 0.932770
O O8 0.128809 0.257618 0.000000
O O9 0.000000 0.000000 0.750000
O O10 0.537858 0.462143 0.500000
O O11 0.487111 0.463979 0.665043
#
# Coordination Sequence:
#
# PCOD9586018 Si02
#       6
#     4   6  12   4  12   6
#     4  12  25  44  64  94 131 169 214 266 319 382
#     4  10  21  38  62  92 127 166 212 262 318 380
#     4  11  24  43  66  95 129 169 215 265 323 383
#     4  12  25  44  64  94 131 169 214 266 319 382
#     4  11  24  43  66  95 129 169 215 265 323 383
#     4  10  21  38  62  92 127 166 212 262 318 380
#
# _framework density 19.639209000000001
#
# number of rings (size 3 to 8) (size 9 to 14) (size 15 to 20)
#    0.000    1.091    2.727    3.545    0.000    6.545 
#    0.000    0.000    0.000    8.727    0.000    0.000 
#    0.000    0.000    0.000    0.000    0.000    0.000 
#
# Total GULP energy -246181.330627 kJ/mol
# GULP energy per Si atom -5595.030242 kJ/mol
# Density = 1.959451 g / cm^3
# Si number density = 19.639209 Si / 1000 Ang^3
#
#
#
# Elastic Constant Matrix: (Units=GPa)
#
#
# Indices 1 2 3 4 5 6 
#
# 1 102.0830 52.8123 44.9346 0.0001 -0.0001 -0.0001
# 2 52.8123 102.0826 44.9345 -0.0001 0.0000 -0.0002
# 3 44.9346 44.9345 158.3661 0.0000 0.0000 0.0000
# 4 0.0001 -0.0001 0.0000 28.8676 -0.0001 0.0000
# 5 -0.0001 0.0000 0.0000 -0.0001 28.8677 0.0001
# 6 -0.0001 -0.0002 0.0000 0.0000 0.0001 24.6351
#
#
#
# Elastic Compliance Matrix: (Units=1/GPa)
#
#
# Indices 1 2 3 4 5 6 
#
# 1 0.014012 -0.006284 -0.002193 0.000000 0.000000 0.000000
# 2 -0.006284 0.014012 -0.002193 0.000000 0.000000 0.000000
# 3 -0.002193 -0.002193 0.007559 0.000000 0.000000 0.000000
# 4 0.000000 0.000000 0.000000 0.034641 0.000000 0.000000
# 5 0.000000 0.000000 0.000000 0.000000 0.034641 0.000000
# 6 0.000000 0.000000 0.000000 0.000000 0.000000 0.040592
#
#
# Mechanical properties :
#
#
# Convention : Reuss Voigt Hill
#
# Bulk Modulus (GPa) = 70.20444 71.98830 71.09637
# Shear Modulus (GPa) = 29.14695 31.13076 30.13886
#
# Velocity S-wave (km/s) = 3.85661 3.98569 3.92168
# Velocity P-wave (km/s) = 7.46029 7.61025 7.53564
#
# Compressibility (1/GPa) = 0.01424411
#
# Stress axis : x y z
#
# Youngs Moduli (GPa) = 71.36666 71.36631 132.29531
#
# Poissons Ratio (x) = 0.44846 0.29010
# Poissons Ratio (y) = 0.44846 0.29010
# Poissons Ratio (z) = 0.15649 0.15649
#
# Static dielectric constant tensor:
#      x y z
#    x 1.668000 0.000000 0.000000 
#    y 0.000000 1.668000 0.000000 
#    z 0.000000 0.000000 1.675500 
# 
# From -- ./inp_files/2955.got.cif
#   From: 2010.05.17/outbox.cif.g08.bks.cpg/sg188_2_cif.got.tgz:2955.got - 2010.05.20 12:11:46.
