data_PCOD9586658
_publ_section_title
;
Structure prediction by ZEFSAII (Michael W. Deem and Ramdas Pophale) SiO2 
 PCOD9586658
Probable space group: P -6 2 C
;
_chemical_formula_sum "Si O2"
_cell_formula_units_Z 72
_cell_length_a 24.503906
_cell_length_b 24.503906
_cell_length_c 8.523711
_cell_angle_alpha 90.000000
_cell_angle_beta 90.000000
_cell_angle_gamma 120.000000
_cell_volume 4432.308529
_symmetry_space_group_name_H-M "P -6 2 C"
_symmetry_group_IT_number 190
_symmetry_cell_setting 'hexagonal'
loop_
_space_group_symop_operation_xyz
x,y,z
-x+y,-x,1/2-z
-y,x-y,z
x,y,1/2-z
-x+y,-x,z
-y,x-y,1/2-z
x-y,-y,-z
-x,-x+y,-z
y,x,-z
y,x,1/2+z
x-y,-y,1/2+z
-x,-x+y,1/2+z
loop_
_atom_site_type_symbol
_atom_site_label
_atom_site_fract_x
_atom_site_fract_y
_atom_site_fract_z
Si Si1 0.860434 0.929574 0.562087
Si Si2 0.478379 0.408260 0.061536
Si Si3 0.266557 0.739119 0.938081
Si Si4 0.594625 0.401716 0.563685
Si Si5 0.595034 0.857862 0.559372
Si Si6 0.807102 0.070314 0.439710
O O1 0.862949 0.930932 0.750000
O O2 0.882373 0.882373 0.500000
O O3 0.790287 0.913094 0.511727
O O4 0.907317 0.000000 0.500000
O O5 0.481170 0.410354 0.250000
O O6 0.430392 0.335449 0.013057
O O7 0.452897 0.452897 0.000000
O O8 0.545972 0.423312 0.996049
O O9 0.272693 0.744284 0.750000
O O10 0.212214 0.754541 0.989174
O O11 0.238872 0.666220 0.985414
O O12 0.333850 0.782679 0.014954
O O13 0.589426 0.393760 0.750000
O O14 0.595550 0.857556 0.750000
O O15 0.665945 0.883026 0.504747
O O16 0.805590 0.069192 0.250000
O O17 0.760387 0.000000 0.500000
#
# Coordination Sequence:
#
# PCOD9586658 Si02
#       6
#    12  12  12  12  12  12
#     4  10  19  30  46  66  92 120 151 186 225 269
#     4  10  19  32  50  73  99 128 159 195 238 286
#     4  10  19  33  51  71  96 127 161 197 238 286
#     4  11  21  33  49  72 100 129 162 200 241 288
#     4   8  16  30  49  71  95 122 154 189 232 282
#     4   9  17  30  47  69  93 120 150 185 227 273
#
# _framework density 16.244357000000001
#
# number of rings (size 3 to 8) (size 9 to 14) (size 15 to 20)
#    0.000    2.333    0.000    5.000    0.000    0.667 
#    0.000    4.167    0.000    1.000    0.000    2.333 
#    0.000    0.000    0.000    0.000    0.000    0.000 
#
# Total GULP energy -401630.987065 kJ/mol
# GULP energy per Si atom -5578.208154 kJ/mol
# Density = 1.620738 g / cm^3
# Si number density = 16.244357 Si / 1000 Ang^3
#
#
#
# Elastic Constant Matrix: (Units=GPa)
#
#
# Indices 1 2 3 4 5 6 
#
# 1 118.4572 74.9003 10.8151 0.0000 0.0000 0.0000
# 2 74.9003 118.4572 10.8151 0.0000 0.0000 0.0000
# 3 10.8151 10.8151 32.3328 0.0000 0.0000 0.0000
# 4 0.0000 0.0000 0.0000 15.7727 0.0000 0.0000
# 5 0.0000 0.0000 0.0000 0.0000 15.7727 0.0000
# 6 0.0000 0.0000 0.0000 0.0000 0.0000 21.7785
#
#
#
# Elastic Compliance Matrix: (Units=1/GPa)
#
#
# Indices 1 2 3 4 5 6 
#
# 1 0.014166 -0.008793 -0.001797 0.000000 0.000000 0.000000
# 2 -0.008793 0.014166 -0.001797 0.000000 0.000000 0.000000
# 3 -0.001797 -0.001797 0.032131 0.000000 0.000000 0.000000
# 4 0.000000 0.000000 0.000000 0.063401 0.000000 0.000000
# 5 0.000000 0.000000 0.000000 0.000000 0.063401 0.000000
# 6 0.000000 0.000000 0.000000 0.000000 0.000000 0.045917
#
#
# Mechanical properties :
#
#
# Convention : Reuss Voigt Hill
#
# Bulk Modulus (GPa) = 28.02097 51.36755 39.69426
# Shear Modulus (GPa) = 18.52879 22.17923 20.35401
#
# Velocity S-wave (km/s) = 3.38098 3.69907 3.54360
# Velocity P-wave (km/s) = 5.70338 7.06644 6.42118
#
# Compressibility (1/GPa) = 0.03568756
#
# Stress axis : x y z
#
# Youngs Moduli (GPa) = 70.59337 70.59337 31.12301
#
# Poissons Ratio (x) = 0.62072 0.05593
# Poissons Ratio (y) = 0.62072 0.05593
# Poissons Ratio (z) = 0.12687 0.12687
#
# Static dielectric constant tensor:
#      x y z
#    x 1.535210 0.000000 0.000000 
#    y 0.000000 1.535210 0.000000 
#    z 0.000000 0.000000 1.544540 
# 
# From -- ./inp_files/1193.got.cif
#   From: 2010.05.17/outbox.cif.g08.bks.cpg/sg190_1_cif.got.tgz:1193.got - 2010.05.20 12:16:56.
