data_PCOD9586533
_publ_section_title
;
Structure prediction by ZEFSAII (Michael W. Deem and Ramdas Pophale) SiO2 
 PCOD9586533
Probable space group: P -6 2 M
;
_chemical_formula_sum "Si O2"
_cell_formula_units_Z 48
_cell_length_a 18.631999
_cell_length_b 18.631999
_cell_length_c 8.954035
_cell_angle_alpha 90.000000
_cell_angle_beta 90.000000
_cell_angle_gamma 120.000000
_cell_volume 2691.958273
_symmetry_space_group_name_H-M "P -6 2 M"
_symmetry_group_IT_number 189
_symmetry_cell_setting 'hexagonal'
loop_
_space_group_symop_operation_xyz
x,y,z
-x+y,-x,-z
-y,x-y,z
x,y,-z
-x+y,-x,z
-y,x-y,-z
x-y,-y,-z
-x,-x+y,-z
y,x,-z
y,x,z
x-y,-y,z
-x,-x+y,z
loop_
_atom_site_type_symbol
_atom_site_label
_atom_site_fract_x
_atom_site_fract_y
_atom_site_fract_z
Si Si1 0.000000 0.093424 0.672524
Si Si2 0.426339 0.329726 0.178201
Si Si3 0.604276 0.764951 0.679072
Si Si4 0.757367 0.757367 0.176361
Si Si5 0.481671 0.579190 0.676521
O O1 0.000000 0.118823 0.500000
O O2 0.077377 0.077377 0.691039
O O3 0.000000 0.158490 0.784221
O O4 0.364099 0.364099 0.218391
O O5 0.403883 0.244521 0.257802
O O6 0.516952 0.401383 0.230613
O O7 0.424184 0.319788 0.000000
O O8 0.612676 0.770112 0.500000
O O9 0.682613 0.764101 0.750111
O O10 0.524246 0.675658 0.715451
O O11 0.745080 0.745080 0.000000
O O12 0.460769 0.568969 0.500000
O O13 0.548928 0.548928 0.698686
#
# Coordination Sequence:
#
# PCOD9586533 Si02
#       5
#     6  12  12   6  12
#     4   8  18  38  60  80 109 154 201 244 292 348
#     4  10  22  39  59  87 121 154 191 239 296 353
#     4  11  22  39  62  88 117 155 202 245 286 347
#     4  12  24  36  58  90 123 156 195 246 300 352
#     4   9  18  37  62  85 111 148 192 238 285 340
#
# _framework density 17.830884999999999
#
# number of rings (size 3 to 8) (size 9 to 14) (size 15 to 20)
#    0.250    1.750    1.250    2.625    0.000    5.000 
#    1.500    0.000    0.000    0.000    0.000    0.000 
#    0.000    0.000    0.000    0.000    0.000    0.000 
#
# Total GULP energy -267899.190360 kJ/mol
# GULP energy per Si atom -5581.233133 kJ/mol
# Density = 1.779030 g / cm^3
# Si number density = 17.830885 Si / 1000 Ang^3
#
#
#
# Elastic Constant Matrix: (Units=GPa)
#
#
# Indices 1 2 3 4 5 6 
#
# 1 124.6572 77.3059 71.6472 0.0000 0.0000 0.0000
# 2 77.3059 124.6572 71.6472 0.0000 0.0000 0.0000
# 3 71.6472 71.6472 87.5389 0.0000 0.0000 0.0000
# 4 0.0000 0.0000 0.0000 11.3204 0.0000 0.0000
# 5 0.0000 0.0000 0.0000 0.0000 11.3204 0.0000
# 6 0.0000 0.0000 0.0000 0.0000 0.0000 23.6756
#
#
#
# Elastic Compliance Matrix: (Units=1/GPa)
#
#
# Indices 1 2 3 4 5 6 
#
# 1 0.016464 -0.004655 -0.009665 0.000000 0.000000 0.000000
# 2 -0.004655 0.016464 -0.009665 0.000000 0.000000 0.000000
# 3 -0.009665 -0.009665 0.027244 0.000000 0.000000 0.000000
# 4 0.000000 0.000000 0.000000 0.088336 0.000000 0.000000
# 5 0.000000 0.000000 0.000000 0.000000 0.088336 0.000000
# 6 0.000000 0.000000 0.000000 0.000000 0.000000 0.042238
#
#
# Mechanical properties :
#
#
# Convention : Reuss Voigt Hill
#
# Bulk Modulus (GPa) = 81.95479 86.45042 84.20261
# Shear Modulus (GPa) = 15.10030 17.01349 16.05689
#
# Velocity S-wave (km/s) = 2.91325 3.09230 3.00411
# Velocity P-wave (km/s) = 7.57483 7.83189 7.70443
#
# Compressibility (1/GPa) = 0.01220185
#
# Stress axis : x y z
#
# Youngs Moduli (GPa) = 60.73931 60.73931 36.70472
#
# Poissons Ratio (x) = 0.28274 0.35475
# Poissons Ratio (y) = 0.28274 0.35475
# Poissons Ratio (z) = 0.58705 0.58705
#
# Static dielectric constant tensor:
#      x y z
#    x 1.595230 0.000000 0.000000 
#    y 0.000000 1.595230 0.000000 
#    z 0.000000 0.000000 1.592010 
# 
# From -- ./inp_files/646.got.cif
#   From: 2010.05.17/outbox.cif.g08.bks.cpg/sg189_1_cif.got.tgz:646.got - 2010.05.20 12:14:34.
