data_PCOD9586483
_publ_section_title
;
Structure prediction by ZEFSAII (Michael W. Deem and Ramdas Pophale) SiO2 
 PCOD9586483
Probable space group: P -6 2 M
;
_chemical_formula_sum "Si O2"
_cell_formula_units_Z 84
_cell_length_a 18.452696
_cell_length_b 18.452696
_cell_length_c 13.851299
_cell_angle_alpha 90.000000
_cell_angle_beta 90.000000
_cell_angle_gamma 120.000000
_cell_volume 4084.517771
_symmetry_space_group_name_H-M "P -6 2 M"
_symmetry_group_IT_number 189
_symmetry_cell_setting 'hexagonal'
loop_
_space_group_symop_operation_xyz
x,y,z
-x+y,-x,-z
-y,x-y,z
x,y,-z
-x+y,-x,z
-y,x-y,-z
x-y,-y,-z
-x,-x+y,-z
y,x,-z
y,x,z
x-y,-y,z
-x,-x+y,z
loop_
_atom_site_type_symbol
_atom_site_label
_atom_site_fract_x
_atom_site_fract_y
_atom_site_fract_z
Si Si1 0.203989 0.905036 0.115593
Si Si2 0.477233 0.252944 0.886158
Si Si3 0.902475 0.098867 0.285819
Si Si4 0.385844 0.906549 0.307019
Si Si5 0.439337 0.587103 0.113898
Si Si6 0.534434 0.904098 0.616041
Si Si7 0.823242 0.199367 0.383998
O O1 0.215480 0.826514 0.145034
O O2 0.125913 0.896410 0.175982
O O3 0.279773 0.000000 0.138849
O O4 0.193122 0.902085 0.000000
O O5 0.550160 0.229463 0.876560
O O6 0.513402 0.348162 0.854001
O O7 0.465207 0.257561 0.000000
O O8 0.871103 0.151507 0.348638
O O9 0.000000 0.132337 0.306154
O O10 0.846309 0.000000 0.300863
O O11 0.403501 0.909920 0.192731
O O12 0.439127 0.867184 0.351368
O O13 0.290584 0.859921 0.338291
O O14 0.426395 0.000000 0.346767
O O15 0.454962 0.577605 0.000000
O O16 0.536174 0.906507 0.500000
O O17 0.579825 0.853593 0.646222
O O18 0.586768 0.000000 0.652234
O O19 0.828170 0.206293 0.500000
#
# Coordination Sequence:
#
# PCOD9586483 Si02
#       7
#    12  12  12  12  12  12  12
#     4   9  19  37  62  91 125 170 222 272 321 380
#     4   9  18  34  54  79 116 164 214 262 308 360
#     4  11  24  41  65  96 131 169 214 268 330 398
#     4  11  24  39  62  93 124 162 206 255 311 366
#     4  10  21  35  54  83 123 165 206 251 305 365
#     4   9  20  41  65  90 122 158 199 250 309 372
#     4  11  24  44  68  94 123 163 211 263 324 390
#
# _framework density 20.565463000000001
#
# number of rings (size 3 to 8) (size 9 to 14) (size 15 to 20)
#    0.000    2.000    0.000    2.571    4.000    6.000 
#    0.857    1.429    0.000    4.286    0.000    0.000 
#    0.000    0.000    0.000    0.000    0.000    0.000 
#
# Total GULP energy -468532.647323 kJ/mol
# GULP energy per Si atom -5577.769611 kJ/mol
# Density = 2.051866 g / cm^3
# Si number density = 20.565463 Si / 1000 Ang^3
#
#
#
# Elastic Constant Matrix: (Units=GPa)
#
#
# Indices 1 2 3 4 5 6 
#
# 1 136.7911 74.6381 37.9485 0.0000 0.0000 0.0000
# 2 74.6381 136.7911 37.9485 0.0000 0.0000 0.0000
# 3 37.9485 37.9485 72.1327 0.0000 0.0000 0.0000
# 4 0.0000 0.0000 0.0000 23.1039 0.0000 0.0000
# 5 0.0000 0.0000 0.0000 0.0000 23.1039 0.0000
# 6 0.0000 0.0000 0.0000 0.0000 0.0000 31.0765
#
#
#
# Elastic Compliance Matrix: (Units=1/GPa)
#
#
# Indices 1 2 3 4 5 6 
#
# 1 0.010960 -0.005129 -0.003068 0.000000 0.000000 0.000000
# 2 -0.005129 0.010960 -0.003068 0.000000 0.000000 0.000000
# 3 -0.003068 -0.003068 0.017091 0.000000 0.000000 0.000000
# 4 0.000000 0.000000 0.000000 0.043283 0.000000 0.000000
# 5 0.000000 0.000000 0.000000 0.000000 0.043283 0.000000
# 6 0.000000 0.000000 0.000000 0.000000 0.000000 0.032179
#
#
# Mechanical properties :
#
#
# Convention : Reuss Voigt Hill
#
# Bulk Modulus (GPa) = 60.67065 71.86502 66.26783
# Shear Modulus (GPa) = 26.91382 28.46886 27.69134
#
# Velocity S-wave (km/s) = 3.62151 3.72466 3.67345
# Velocity P-wave (km/s) = 6.85947 7.31559 7.09120
#
# Compressibility (1/GPa) = 0.01648244
#
# Stress axis : x y z
#
# Youngs Moduli (GPa) = 91.23993 91.23993 58.51027
#
# Poissons Ratio (x) = 0.46799 0.17949
# Poissons Ratio (y) = 0.46799 0.17949
# Poissons Ratio (z) = 0.27989 0.27989
#
# Static dielectric constant tensor:
#      x y z
#    x 1.736910 0.000000 0.000000 
#    y 0.000000 1.736910 0.000000 
#    z 0.000000 0.000000 1.772120 
# 
# From -- ./inp_files/2800.got.cif
#   From: 2010.05.17/outbox.cif.g08.bks.cpg/sg189_2_cif.got.tgz:2800.got - 2010.05.20 12:14:34.
