data_PCOD9586944
_publ_section_title
;
Structure prediction by ZEFSAII (Michael W. Deem and Ramdas Pophale) SiO2 
 PCOD9586944
Probable space group: P -6 2 C
;
_chemical_formula_sum "Si O2"
_cell_formula_units_Z 34
_cell_length_a 10.660289
_cell_length_b 10.660289
_cell_length_c 17.794477
_cell_angle_alpha 90.000000
_cell_angle_beta 90.000000
_cell_angle_gamma 120.000000
_cell_volume 1751.272858
_symmetry_space_group_name_H-M "P -6 2 C"
_symmetry_group_IT_number 190
_symmetry_cell_setting 'hexagonal'
loop_
_space_group_symop_operation_xyz
x,y,z
-x+y,-x,1/2-z
-y,x-y,z
x,y,1/2-z
-x+y,-x,z
-y,x-y,1/2-z
x-y,-y,-z
-x,-x+y,-z
y,x,-z
y,x,1/2+z
x-y,-y,1/2+z
-x,-x+y,1/2+z
loop_
_atom_site_type_symbol
_atom_site_label
_atom_site_fract_x
_atom_site_fract_y
_atom_site_fract_z
Si Si1 0.240592 0.759424 0.750000
Si Si2 0.835445 0.164555 0.409606
Si Si3 0.333335 0.666668 0.340110
Si Si4 0.180797 0.361597 0.075175
O O1 0.412933 0.825852 0.750000
O O2 0.200649 0.799371 0.671478
O O3 0.791574 0.208433 0.488361
O O4 0.009614 0.254093 0.413410
O O5 0.745885 0.990386 0.413407
O O6 0.333334 0.666668 0.250000
O O7 0.250789 0.749235 0.371574
#
# Coordination Sequence:
#
# PCOD9586944 Si02
#       4
#     6  12   4  12
#     4  10  26  36  64  92 134 166 226 256 314 392
#     4  10  23  44  69  93 129 173 218 261 331 393
#     4  12  30  39  66 103 140 163 222 279 327 366
#     4  10  25  44  70  96 132 169 218 273 331 389
#
# _framework density 19.414451
#
# number of rings (size 3 to 8) (size 9 to 14) (size 15 to 20)
#    0.353    1.412    0.000    0.706   14.824    5.647 
#    0.000    0.000    0.000    0.000    0.000    0.000 
#    0.000    0.000    0.000    0.000    0.000    0.000 
#
# Total GULP energy -189370.418247 kJ/mol
# GULP energy per Si atom -5569.718184 kJ/mol
# Density = 1.937026 g / cm^3
# Si number density = 19.414451 Si / 1000 Ang^3
#
#
#
# Elastic Constant Matrix: (Units=GPa)
#
#
# Indices 1 2 3 4 5 6 
#
# 1 115.2275 42.1529 86.7396 0.0007 0.0000 -0.0001
# 2 42.1529 115.2261 86.7394 0.0000 0.0001 0.0000
# 3 86.7396 86.7394 262.7059 -0.0013 -0.0002 0.0000
# 4 0.0007 0.0000 -0.0013 57.5107 0.0004 0.0000
# 5 0.0000 0.0001 -0.0002 0.0004 57.5035 -0.0004
# 6 -0.0001 0.0000 0.0000 0.0000 -0.0004 36.5380
#
#
#
# Elastic Compliance Matrix: (Units=1/GPa)
#
#
# Indices 1 2 3 4 5 6 
#
# 1 0.011837 -0.001847 -0.003298 0.000000 0.000000 0.000000
# 2 -0.001847 0.011837 -0.003298 0.000000 0.000000 0.000000
# 3 -0.003298 -0.003298 0.005985 0.000000 0.000000 0.000000
# 4 0.000000 0.000000 0.000000 0.017388 0.000000 0.000000
# 5 0.000000 0.000000 0.000000 0.000000 0.017390 0.000000
# 6 0.000000 0.000000 0.000000 0.000000 0.000000 0.027369
#
#
# Mechanical properties :
#
#
# Convention : Reuss Voigt Hill
#
# Bulk Modulus (GPa) = 78.30398 102.71371 90.50884
# Shear Modulus (GPa) = 44.26658 48.81227 46.53942
#
# Velocity S-wave (km/s) = 4.78020 5.01964 4.90139
# Velocity P-wave (km/s) = 8.41947 9.30679 8.87423
#
# Compressibility (1/GPa) = 0.01277074
#
# Stress axis : x y z
#
# Youngs Moduli (GPa) = 84.47904 84.47774 167.09327
#
# Poissons Ratio (x) = 0.15607 0.55114
# Poissons Ratio (y) = 0.15607 0.55115
# Poissons Ratio (z) = 0.27865 0.27865
#
# Static dielectric constant tensor:
#      x y z
#    x 1.639620 0.000000 0.000000 
#    y 0.000000 1.639620 0.000000 
#    z 0.000000 0.000000 1.713680 
# 
# From -- ./inp_files/2369.got.cif
#   From: 2010.05.17/outbox.cif.g08.bks.cpg/sg190_2_cif.got.tgz:2369.got - 2010.05.20 12:16:56.
