data_PCOD9586530
_publ_section_title
;
Structure prediction by ZEFSAII (Michael W. Deem and Ramdas Pophale) SiO2 
 PCOD9586530
Probable space group: P -6 2 M
;
_chemical_formula_sum "Si O2"
_cell_formula_units_Z 84
_cell_length_a 19.287026
_cell_length_b 19.287026
_cell_length_c 14.204513
_cell_angle_alpha 90.000000
_cell_angle_beta 90.000000
_cell_angle_gamma 120.000000
_cell_volume 4576.015767
_symmetry_space_group_name_H-M "P -6 2 M"
_symmetry_group_IT_number 189
_symmetry_cell_setting 'hexagonal'
loop_
_space_group_symop_operation_xyz
x,y,z
-x+y,-x,-z
-y,x-y,z
x,y,-z
-x+y,-x,z
-y,x-y,-z
x-y,-y,-z
-x,-x+y,-z
y,x,-z
y,x,z
x-y,-y,z
-x,-x+y,z
loop_
_atom_site_type_symbol
_atom_site_label
_atom_site_fract_x
_atom_site_fract_y
_atom_site_fract_z
Si Si1 0.909470 0.753989 0.608442
Si Si2 0.698063 0.786618 0.243922
Si Si3 0.765275 0.094161 0.887568
Si Si4 0.292355 0.846015 0.608946
Si Si5 0.396113 0.493100 0.895065
Si Si6 0.452107 0.907952 0.706685
Si Si7 0.299420 0.422743 0.607570
O O1 0.882445 0.746561 0.500000
O O2 0.851432 0.759805 0.681937
O O3 0.906650 0.669707 0.631108
O O4 0.000000 0.823438 0.615142
O O5 0.733881 0.733881 0.202886
O O6 0.682349 0.840084 0.169067
O O7 0.622384 0.731640 0.311894
O O8 0.693020 0.113170 0.874410
O O9 0.729944 0.000000 0.859232
O O10 0.780719 0.098175 0.000000
O O11 0.295072 0.873158 0.500000
O O12 0.377271 0.858321 0.639510
O O13 0.219442 0.755138 0.612768
O O14 0.449353 0.449353 0.895536
O O15 0.433226 0.557909 0.812817
O O16 0.398107 0.524091 0.000000
O O17 0.530443 0.907300 0.669855
O O18 0.473369 0.000000 0.706871
O O19 0.324521 0.424095 0.500000
#
# Coordination Sequence:
#
# PCOD9586530 Si02
#       7
#    12  12  12  12  12  12  12
#     4   9  17  30  50  74  97 124 168 227 277 310
#     4  11  21  32  49  73 105 143 176 207 252 315
#     4   9  18  35  60  85 105 127 163 218 277 323
#     4  10  22  37  49  70 108 148 182 216 259 311
#     4   8  15  29  51  79 103 121 152 205 263 308
#     4  11  20  31  53  78 100 134 178 220 262 310
#     4   9  18  32  49  72 100 129 168 217 265 309
#
# _framework density 18.356579
#
# number of rings (size 3 to 8) (size 9 to 14) (size 15 to 20)
#    0.000    2.429    0.000    5.571    0.000    4.857 
#    0.857    0.714    0.000    4.857    0.000    0.000 
#    0.000    0.000    0.000    0.000    0.000    0.000 
#
# Total GULP energy -468110.085097 kJ/mol
# GULP energy per Si atom -5572.739108 kJ/mol
# Density = 1.831480 g / cm^3
# Si number density = 18.356579 Si / 1000 Ang^3
#
#
#
# Elastic Constant Matrix: (Units=GPa)
#
#
# Indices 1 2 3 4 5 6 
#
# 1 38.3016 7.4985 31.2747 0.0000 0.0000 0.0000
# 2 7.4985 38.3016 31.2747 0.0000 0.0000 0.0000
# 3 31.2747 31.2747 81.3028 0.0000 0.0000 0.0000
# 4 0.0000 0.0000 0.0000 22.5841 0.0000 0.0000
# 5 0.0000 0.0000 0.0000 0.0000 22.5841 0.0000
# 6 0.0000 0.0000 0.0000 0.0000 0.0000 15.4015
#
#
#
# Elastic Compliance Matrix: (Units=1/GPa)
#
#
# Indices 1 2 3 4 5 6 
#
# 1 0.039232 0.006768 -0.017695 0.000000 0.000000 0.000000
# 2 0.006768 0.039232 -0.017695 0.000000 0.000000 0.000000
# 3 -0.017695 -0.017695 0.025913 0.000000 0.000000 0.000000
# 4 0.000000 0.000000 0.000000 0.044279 0.000000 0.000000
# 5 0.000000 0.000000 0.000000 0.000000 0.044279 0.000000
# 6 0.000000 0.000000 0.000000 0.000000 0.000000 0.064929
#
#
# Mechanical properties :
#
#
# Convention : Reuss Voigt Hill
#
# Bulk Modulus (GPa) = 21.21630 33.11133 27.16382
# Shear Modulus (GPa) = 15.11405 17.97114 16.54260
#
# Velocity S-wave (km/s) = 2.87254 3.13230 3.00522
# Velocity P-wave (km/s) = 4.75236 5.58200 5.18380
#
# Compressibility (1/GPa) = 0.04713356
#
# Stress axis : x y z
#
# Youngs Moduli (GPa) = 25.48940 25.48940 38.59086
#
# Poissons Ratio (x) = -0.17250 0.68285
# Poissons Ratio (y) = -0.17250 0.68285
# Poissons Ratio (z) = 0.45103 0.45103
#
# Static dielectric constant tensor:
#      x y z
#    x 1.638860 0.000000 0.000000 
#    y 0.000000 1.638860 0.000000 
#    z 0.000000 0.000000 1.678470 
# 
# From -- ./inp_files/2799.got.cif
#   From: 2010.05.17/outbox.cif.g08.bks.cpg/sg189_2_cif.got.tgz:2799.got - 2010.05.20 12:14:34.
