data_PCOD9586432
_publ_section_title
;
Structure prediction by ZEFSAII (Michael W. Deem and Ramdas Pophale) SiO2 
 PCOD9586432
Probable space group: P -6 2 M
;
_chemical_formula_sum "Si O2"
_cell_formula_units_Z 96
_cell_length_a 17.979219
_cell_length_b 17.979219
_cell_length_c 18.323369
_cell_angle_alpha 90.000000
_cell_angle_beta 90.000000
_cell_angle_gamma 120.000000
_cell_volume 5129.530356
_symmetry_space_group_name_H-M "P -6 2 M"
_symmetry_group_IT_number 189
_symmetry_cell_setting 'hexagonal'
loop_
_space_group_symop_operation_xyz
x,y,z
-x+y,-x,-z
-y,x-y,z
x,y,-z
-x+y,-x,z
-y,x-y,-z
x-y,-y,-z
-x,-x+y,-z
y,x,-z
y,x,z
x-y,-y,z
-x,-x+y,z
loop_
_atom_site_type_symbol
_atom_site_label
_atom_site_fract_x
_atom_site_fract_y
_atom_site_fract_z
Si Si1 0.600154 0.101794 0.699405
Si Si2 0.486132 0.587790 0.153642
Si Si3 0.437006 0.335770 0.918338
Si Si4 0.219693 0.833699 0.160246
Si Si5 0.193515 0.096734 0.150169
Si Si6 0.902488 0.803758 0.672136
Si Si7 0.392389 0.196463 0.327010
Si Si8 0.468761 0.099821 0.585889
O O1 0.567335 0.131677 0.770255
O O2 0.701550 0.149940 0.685446
O O3 0.551025 0.112060 0.630402
O O4 0.564803 0.000000 0.710550
O O5 0.550013 0.550013 0.162661
O O6 0.416236 0.531369 0.093370
O O7 0.544556 0.686574 0.133398
O O8 0.372621 0.372621 0.907911
O O9 0.418683 0.264527 0.859090
O O10 0.426081 0.300543 0.000000
O O11 0.171754 0.882768 0.129670
O O12 0.229788 0.846042 0.247334
O O13 0.164360 0.164360 0.125075
O O14 0.194583 0.099631 0.238912
O O15 0.124823 0.000000 0.127996
O O16 0.840202 0.840202 0.649902
O O17 0.867850 0.705716 0.649179
O O18 0.000000 0.865344 0.647172
O O19 0.437336 0.161681 0.381238
O O20 0.485578 0.112993 0.500000
O O21 0.396002 0.000000 0.597937
#
# Coordination Sequence:
#
# PCOD9586432 Si02
#       8
#    12  12  12  12  12  12  12  12
#     4  10  20  36  58  82 112 149 192 242 295 349
#     4  10  20  36  58  82 112 149 192 242 295 349
#     4  10  22  40  59  81 115 156 193 237 299 361
#     4  11  20  33  57  87 113 147 195 246 287 349
#     4   9  17  28  47  79 118 153 186 229 283 339
#     4   9  17  28  47  79 118 153 186 229 283 339
#     4  11  20  33  57  87 113 147 195 246 287 349
#     4  10  22  40  59  81 115 156 193 237 299 361
#
# _framework density 18.715163
#
# number of rings (size 3 to 8) (size 9 to 14) (size 15 to 20)
#    0.000    2.000    2.500    1.750    0.000    4.000 
#    1.500    1.250    0.000    2.250    0.000    0.000 
#    0.000    2.000    0.000    0.000    0.000    0.000 
#
# Total GULP energy -535416.672261 kJ/mol
# GULP energy per Si atom -5577.257003 kJ/mol
# Density = 1.867257 g / cm^3
# Si number density = 18.715163 Si / 1000 Ang^3
#
#
#
# Elastic Constant Matrix: (Units=GPa)
#
#
# Indices 1 2 3 4 5 6 
#
# 1 76.8024 36.7848 3.4352 0.0000 0.0000 0.0000
# 2 36.7848 76.8024 3.4352 0.0000 0.0000 0.0000
# 3 3.4352 3.4352 40.0533 0.0000 0.0000 0.0000
# 4 0.0000 0.0000 0.0000 8.6907 0.0000 0.0000
# 5 0.0000 0.0000 0.0000 0.0000 8.6907 0.0000
# 6 0.0000 0.0000 0.0000 0.0000 0.0000 20.0088
#
#
#
# Elastic Compliance Matrix: (Units=1/GPa)
#
#
# Indices 1 2 3 4 5 6 
#
# 1 0.016919 -0.008070 -0.000759 0.000000 0.000000 0.000000
# 2 -0.008070 0.016919 -0.000759 0.000000 0.000000 0.000000
# 3 -0.000759 -0.000759 0.025097 0.000000 0.000000 0.000000
# 4 0.000000 0.000000 0.000000 0.115066 0.000000 0.000000
# 5 0.000000 0.000000 0.000000 0.000000 0.115066 0.000000
# 6 0.000000 0.000000 0.000000 0.000000 0.000000 0.049978
#
#
# Mechanical properties :
#
#
# Convention : Reuss Voigt Hill
#
# Bulk Modulus (GPa) = 25.15068 31.21872 28.18470
# Shear Modulus (GPa) = 13.45990 17.47823 15.46907
#
# Velocity S-wave (km/s) = 2.68470 3.05931 2.87810
# Velocity P-wave (km/s) = 4.80395 5.40336 5.11245
#
# Compressibility (1/GPa) = 0.03976036
#
# Stress axis : x y z
#
# Youngs Moduli (GPa) = 59.10388 59.10388 39.84555
#
# Poissons Ratio (x) = 0.47695 0.03024
# Poissons Ratio (y) = 0.47695 0.03024
# Poissons Ratio (z) = 0.04486 0.04486
#
# Static dielectric constant tensor:
#      x y z
#    x 1.648190 0.000000 0.000000 
#    y 0.000000 1.648190 0.000000 
#    z 0.000000 0.000000 1.638090 
# 
# From -- ./inp_files/3539.got.cif
#   From: 2010.05.17/outbox.cif.g08.bks.cpg/sg189_2_cif.got.tgz:3539.got - 2010.05.20 12:14:34.
