data_PCOD9586521
_publ_section_title
;
Structure prediction by ZEFSAII (Michael W. Deem and Ramdas Pophale) SiO2 
 PCOD9586521
Probable space group: P -6 2 M
;
_chemical_formula_sum "Si O2"
_cell_formula_units_Z 60
_cell_length_a 14.702542
_cell_length_b 14.702542
_cell_length_c 15.363193
_cell_angle_alpha 90.000000
_cell_angle_beta 90.000000
_cell_angle_gamma 120.000000
_cell_volume 2876.053600
_symmetry_space_group_name_H-M "P -6 2 M"
_symmetry_group_IT_number 189
_symmetry_cell_setting 'hexagonal'
loop_
_space_group_symop_operation_xyz
x,y,z
-x+y,-x,-z
-y,x-y,z
x,y,-z
-x+y,-x,z
-y,x-y,-z
x-y,-y,-z
-x,-x+y,-z
y,x,-z
y,x,z
x-y,-y,z
-x,-x+y,z
loop_
_atom_site_type_symbol
_atom_site_label
_atom_site_fract_x
_atom_site_fract_y
_atom_site_fract_z
Si Si1 0.322305 0.123947 0.596700
Si Si2 0.116115 0.790741 0.786054
Si Si3 0.417098 0.875325 0.407732
Si Si4 0.427698 0.122746 0.902817
Si Si5 0.417824 0.541030 0.222687
O O1 0.310660 0.161302 0.500000
O O2 0.317447 0.181646 0.683449
O O3 0.435058 0.129839 0.597071
O O4 0.236791 0.000000 0.603414
O O5 0.209979 0.871170 0.846400
O O6 0.121067 0.685100 0.804492
O O7 0.000000 0.766391 0.808494
O O8 0.425885 0.829506 0.500000
O O9 0.430380 0.828072 0.318899
O O10 0.503829 0.000000 0.410059
O O11 0.533651 0.169540 0.845230
O O12 0.388185 0.000000 0.913162
O O13 0.441779 0.168549 0.000000
O O14 0.507394 0.507394 0.234263
#
# Coordination Sequence:
#
# PCOD9586521 Si02
#       5
#    12  12  12  12  12
#     4   9  17  32  56  82 112 156 201 233 272 336
#     4  11  22  34  55  88 120 146 185 246 296 336
#     4   8  13  25  49  74  96 132 179 217 251 305
#     4  10  21  40  63  80 103 147 195 234 286 360
#     4   9  18  33  52  77 108 139 176 224 277 335
#
# _framework density 20.861920000000001
#
# number of rings (size 3 to 8) (size 9 to 14) (size 15 to 20)
#    0.000    2.600    2.000    1.800    0.000    2.400 
#    1.200    4.000    0.000    3.200    0.000    0.000 
#    0.000    0.000    0.000    0.000    0.000    0.000 
#
# Total GULP energy -334351.869015 kJ/mol
# GULP energy per Si atom -5572.531150 kJ/mol
# Density = 2.081444 g / cm^3
# Si number density = 20.861920 Si / 1000 Ang^3
#
#
#
# Elastic Constant Matrix: (Units=GPa)
#
#
# Indices 1 2 3 4 5 6 
#
# 1 36.7831 -0.8425 17.9546 0.0000 0.0000 0.0000
# 2 -0.8425 36.7831 17.9546 0.0000 0.0000 0.0000
# 3 17.9546 17.9546 135.0419 0.0000 0.0000 0.0000
# 4 0.0000 0.0000 0.0000 -0.5176 0.0000 0.0000
# 5 0.0000 0.0000 0.0000 0.0000 -0.5176 0.0000
# 6 0.0000 0.0000 0.0000 0.0000 0.0000 18.8128
#
#
#
# Elastic Compliance Matrix: (Units=1/GPa)
#
#
# Indices 1 2 3 4 5 6 
#
# 1 0.029332 0.002754 -0.004266 0.000000 0.000000 0.000000
# 2 0.002754 0.029332 -0.004266 0.000000 0.000000 0.000000
# 3 -0.004266 -0.004266 0.008539 0.000000 0.000000 0.000000
# 4 0.000000 0.000000 0.000000 -1.932026 0.000000 0.000000
# 5 0.000000 0.000000 0.000000 0.000000 -1.932026 0.000000
# 6 0.000000 0.000000 0.000000 0.000000 0.000000 0.053155
#
#
# Mechanical properties :
#
#
# Convention : Reuss Voigt Hill
#
# Bulk Modulus (GPa) = 17.97031 30.97130 24.47081
# Shear Modulus (GPa) = -1.34641 15.12494 6.88927
#
# Velocity S-wave (km/s) = -0.80423 2.69551 1.81920
# Velocity P-wave (km/s) = 2.78752 4.95639 4.02095
#
# Compressibility (1/GPa) = 0.05564734
#
# Stress axis : x y z
#
# Youngs Moduli (GPa) = 34.09266 34.09266 117.10297
#
# Poissons Ratio (x) = -0.09390 0.49956
# Poissons Ratio (y) = -0.09390 0.49956
# Poissons Ratio (z) = 0.14544 0.14544
#
# Static dielectric constant tensor:
#      x y z
#    x 1.755900 0.000000 0.000000 
#    y 0.000000 1.755900 0.000000 
#    z 0.000000 0.000000 1.825500 
# 
# From -- ./inp_files/2512.got.cif
#   From: 2010.05.17/outbox.cif.g08.bks.cpg/sg189_2_cif.got.tgz:2512.got - 2010.05.20 12:14:34.
