data_PCOD9586129
_publ_section_title
;
Structure prediction by ZEFSAII (Michael W. Deem and Ramdas Pophale) SiO2 
 PCOD9586129
Probable space group: P -6 2 M
;
_chemical_formula_sum "Si O2"
_cell_formula_units_Z 72
_cell_length_a 20.971879
_cell_length_b 20.971879
_cell_length_c 11.991910
_cell_angle_alpha 90.000000
_cell_angle_beta 90.000000
_cell_angle_gamma 120.000000
_cell_volume 4567.659050
_symmetry_space_group_name_H-M "P -6 2 M"
_symmetry_group_IT_number 189
_symmetry_cell_setting 'hexagonal'
loop_
_space_group_symop_operation_xyz
x,y,z
-x+y,-x,-z
-y,x-y,z
x,y,-z
-x+y,-x,z
-y,x-y,-z
x-y,-y,-z
-x,-x+y,-z
y,x,-z
y,x,z
x-y,-y,z
-x,-x+y,z
loop_
_atom_site_type_symbol
_atom_site_label
_atom_site_fract_x
_atom_site_fract_y
_atom_site_fract_z
Si Si1 0.910089 0.624465 0.000000
Si Si2 0.855178 0.674972 0.366182
Si Si3 0.546139 0.456383 0.628955
Si Si4 0.914870 0.087690 0.759176
Si Si5 0.089086 0.861391 0.000000
Si Si6 0.911314 0.578729 0.759865
Si Si7 0.084267 0.399616 0.364584
O O1 0.886140 0.578491 0.886332
O O2 0.885788 0.686220 0.000000
O O3 0.000000 0.670103 0.000000
O O4 0.861062 0.677055 0.500000
O O5 0.893840 0.757101 0.316993
O O6 0.889543 0.628689 0.313877
O O7 0.769009 0.634048 0.333311
O O8 0.548412 0.435756 0.500000
O O9 0.501859 0.501859 0.628559
O O10 0.500164 0.385023 0.704307
O O11 0.627716 0.516404 0.669095
O O12 0.000000 0.132380 0.724733
O O13 0.883252 0.000000 0.757186
O O14 0.906671 0.109647 0.885809
O O15 0.000000 0.814652 0.000000
O O16 0.000000 0.620201 0.761836
O O17 0.082184 0.400397 0.500000
O O18 0.000000 0.347839 0.326347
#
# Coordination Sequence:
#
# PCOD9586129 Si02
#       7
#     6  12  12  12   6  12  12
#     4   9  16  29  47  68  94 122 151 191 246 297
#     4  11  21  31  47  71  98 128 163 205 252 306
#     4   8  14  26  46  70  93 115 140 175 219 272
#     4  11  22  35  50  67  92 129 177 229 274 315
#     4   9  17  33  51  66  87 120 165 215 265 307
#     4  10  18  29  48  72  96 121 153 194 243 297
#     4   8  15  29  46  64  90 124 157 184 219 276
#
# _framework density 15.762998
#
# number of rings (size 3 to 8) (size 9 to 14) (size 15 to 20)
#    0.000    2.500    1.667    2.917    0.000    3.000 
#    0.000    0.833    0.000    3.667    0.000    7.000 
#    0.000    0.000    0.000    0.000    0.000    0.000 
#
# Total GULP energy -401130.141582 kJ/mol
# GULP energy per Si atom -5571.251966 kJ/mol
# Density = 1.572712 g / cm^3
# Si number density = 15.762998 Si / 1000 Ang^3
#
#
#
# Elastic Constant Matrix: (Units=GPa)
#
#
# Indices 1 2 3 4 5 6 
#
# 1 43.6280 3.1420 13.2601 0.0000 0.0000 0.0000
# 2 3.1420 43.6280 13.2601 0.0000 0.0000 0.0000
# 3 13.2601 13.2601 65.7399 0.0000 0.0000 0.0000
# 4 0.0000 0.0000 0.0000 15.1141 0.0000 0.0000
# 5 0.0000 0.0000 0.0000 0.0000 15.1141 0.0000
# 6 0.0000 0.0000 0.0000 0.0000 0.0000 20.2430
#
#
#
# Elastic Compliance Matrix: (Units=1/GPa)
#
#
# Indices 1 2 3 4 5 6 
#
# 1 0.024421 -0.000279 -0.004870 0.000000 0.000000 0.000000
# 2 -0.000279 0.024421 -0.004870 0.000000 0.000000 0.000000
# 3 -0.004870 -0.004870 0.017176 0.000000 0.000000 0.000000
# 4 0.000000 0.000000 0.000000 0.066163 0.000000 0.000000
# 5 0.000000 0.000000 0.000000 0.000000 0.066163 0.000000
# 6 0.000000 0.000000 0.000000 0.000000 0.000000 0.049400
#
#
# Mechanical properties :
#
#
# Convention : Reuss Voigt Hill
#
# Bulk Modulus (GPa) = 21.74754 23.59114 22.66934
# Shear Modulus (GPa) = 17.66111 18.31651 17.98881
#
# Velocity S-wave (km/s) = 3.35089 3.41250 3.38184
# Velocity P-wave (km/s) = 5.36636 5.52499 5.44625
#
# Compressibility (1/GPa) = 0.04598221
#
# Stress axis : x y z
#
# Youngs Moduli (GPa) = 40.94809 40.94809 58.22100
#
# Poissons Ratio (x) = 0.01141 0.28352
# Poissons Ratio (y) = 0.01141 0.28352
# Poissons Ratio (z) = 0.19940 0.19940
#
# Static dielectric constant tensor:
#      x y z
#    x 1.523110 0.000000 0.000000 
#    y 0.000000 1.523110 0.000000 
#    z 0.000000 0.000000 1.529420 
# 
# From -- ./inp_files/2081.got.cif
#   From: 2010.05.17/outbox.cif.g08.bks.cpg/sg189_2_cif.got.tgz:2081.got - 2010.05.20 12:14:34.
