data_PCOD9586007
_publ_section_title
;
Structure prediction by ZEFSAII (Michael W. Deem and Ramdas Pophale) SiO2 
 PCOD9586007
Probable space group: P -6 C 2
;
_chemical_formula_sum "Si O2"
_cell_formula_units_Z 84
_cell_length_a 16.183238
_cell_length_b 16.183238
_cell_length_c 16.953980
_cell_angle_alpha 90.000000
_cell_angle_beta 90.000000
_cell_angle_gamma 120.000000
_cell_volume 3845.325788
_symmetry_space_group_name_H-M "P -6 C 2"
_symmetry_group_IT_number 188
_symmetry_cell_setting 'hexagonal'
loop_
_space_group_symop_operation_xyz
x,y,z
-x+y,-x,1/2-z
-y,x-y,z
x,y,1/2-z
-x+y,-x,z
-y,x-y,1/2-z
-y,-x,-z
-x+y,y,-z
x,x-y,-z
-x+y,y,1/2+z
x,x-y,1/2+z
-y,-x,1/2+z
loop_
_atom_site_type_symbol
_atom_site_label
_atom_site_fract_x
_atom_site_fract_y
_atom_site_fract_z
Si Si1 0.112646 0.853140 0.659197
Si Si2 0.850774 0.479753 0.159800
Si Si3 0.706637 0.512843 0.415480
Si Si4 0.008537 0.324196 0.896596
Si Si5 0.202767 0.483989 0.161232
Si Si6 0.783319 0.726928 0.447130
Si Si7 0.155176 0.542179 0.913093
O O1 0.087131 0.853403 0.750000
O O2 0.210630 0.951727 0.640707
O O3 0.145395 0.773948 0.647648
O O4 0.020094 0.815032 0.604267
O O5 0.868917 0.464206 0.250000
O O6 0.860395 0.407303 0.099161
O O7 0.746792 0.467297 0.147017
O O8 0.916697 0.592014 0.137508
O O9 0.751548 0.503096 0.500000
O O10 0.749759 0.626262 0.403228
O O11 0.086354 0.433684 0.889851
O O12 0.997453 0.298860 0.988349
O O13 0.241682 0.500507 0.250000
O O14 0.289012 0.543029 0.100867
O O15 0.138032 0.530726 0.147796
O O16 0.875304 0.750607 0.500000
O O17 0.141192 0.570596 0.000000
#
# Coordination Sequence:
#
# PCOD9586007 Si02
#       7
#    12  12  12  12  12  12  12
#     4  10  23  43  67  97 136 175 224 290 357 422
#     4  12  25  42  67 102 146 191 240 294 352 417
#     4  11  24  43  67  98 145 191 242 293 347 421
#     4  11  24  43  67 101 138 178 227 288 354 418
#     4  10  21  37  54  82 126 175 220 273 334 392
#     4  11  23  45  70 100 130 180 235 292 357 436
#     4  11  22  34  58  85 124 171 231 278 323 389
#
# _framework density 21.844702999999999
#
# number of rings (size 3 to 8) (size 9 to 14) (size 15 to 20)
#    0.000    1.143    2.857    4.000    4.000    5.143 
#    0.000    0.000    0.000    2.286    0.000    0.000 
#    0.000    0.000    0.000    0.000    0.000    0.000 
#
# Total GULP energy -468658.795369 kJ/mol
# GULP energy per Si atom -5579.271373 kJ/mol
# Density = 2.179498 g / cm^3
# Si number density = 21.844703 Si / 1000 Ang^3
#
#
#
# Elastic Constant Matrix: (Units=GPa)
#
#
# Indices 1 2 3 4 5 6 
#
# 1 66.3088 23.8659 11.5525 -0.0001 0.0000 0.0000
# 2 23.8659 66.3088 11.5525 0.0001 0.0000 0.0000
# 3 11.5525 11.5525 64.1718 0.0000 0.0000 0.0000
# 4 -0.0001 0.0001 0.0000 22.7412 0.0000 0.0000
# 5 0.0000 0.0000 0.0000 0.0000 22.7412 -0.0001
# 6 0.0000 0.0000 0.0000 0.0000 -0.0001 21.2215
#
#
#
# Elastic Compliance Matrix: (Units=1/GPa)
#
#
# Indices 1 2 3 4 5 6 
#
# 1 0.017593 -0.005968 -0.002093 0.000000 0.000000 0.000000
# 2 -0.005968 0.017593 -0.002093 0.000000 0.000000 0.000000
# 3 -0.002093 -0.002093 0.016337 0.000000 0.000000 0.000000
# 4 0.000000 0.000000 0.000000 0.043973 0.000000 0.000000
# 5 0.000000 0.000000 0.000000 0.000000 0.043973 0.000000
# 6 0.000000 0.000000 0.000000 0.000000 0.000000 0.047122
#
#
# Mechanical properties :
#
#
# Convention : Reuss Voigt Hill
#
# Bulk Modulus (GPa) = 32.03419 32.30349 32.16884
# Shear Modulus (GPa) = 23.00920 23.32867 23.16893
#
# Velocity S-wave (km/s) = 3.24899 3.27147 3.26025
# Velocity P-wave (km/s) = 5.36385 5.39351 5.37870
#
# Compressibility (1/GPa) = 0.03121665
#
# Stress axis : x y z
#
# Youngs Moduli (GPa) = 56.83936 56.83936 61.21178
#
# Poissons Ratio (x) = 0.33919 0.12811
# Poissons Ratio (y) = 0.33919 0.12811
# Poissons Ratio (z) = 0.11896 0.11896
#
# Static dielectric constant tensor:
#      x y z
#    x 1.905890 0.000000 0.000000 
#    y 0.000000 1.905890 0.000000 
#    z 0.000000 0.000000 1.796140 
# 
# From -- ./inp_files/2594.got.cif
#   From: 2010.05.17/outbox.cif.g08.bks.cpg/sg188_2_cif.got.tgz:2594.got - 2010.05.20 12:11:46.
