data_PCOD9586695
_publ_section_title
;
Structure prediction by ZEFSAII (Michael W. Deem and Ramdas Pophale) SiO2 
 PCOD9586695
Probable space group: P -6 2 C
;
_chemical_formula_sum "Si O2"
_cell_formula_units_Z 60
_cell_length_a 21.479807
_cell_length_b 21.479807
_cell_length_c 8.732599
_cell_angle_alpha 90.000000
_cell_angle_beta 90.000000
_cell_angle_gamma 120.000000
_cell_volume 3489.272593
_symmetry_space_group_name_H-M "P -6 2 C"
_symmetry_group_IT_number 190
_symmetry_cell_setting 'hexagonal'
loop_
_space_group_symop_operation_xyz
x,y,z
-x+y,-x,1/2-z
-y,x-y,z
x,y,1/2-z
-x+y,-x,z
-y,x-y,1/2-z
x-y,-y,-z
-x,-x+y,-z
y,x,-z
y,x,1/2+z
x-y,-y,1/2+z
-x,-x+y,1/2+z
loop_
_atom_site_type_symbol
_atom_site_label
_atom_site_fract_x
_atom_site_fract_y
_atom_site_fract_z
Si Si1 0.461887 0.542874 0.933422
Si Si2 0.919312 0.080706 0.565241
Si Si3 0.405355 0.324994 0.066864
Si Si4 0.833893 0.163583 0.934420
Si Si5 0.669684 0.589272 0.933565
O O1 0.469181 0.547443 0.750000
O O2 0.378372 0.489647 0.972490
O O3 0.621940 0.508078 0.996260
O O4 0.500967 0.500967 0.000000
O O5 0.921796 0.078401 0.750000
O O6 0.877217 0.122917 0.520682
O O7 0.000000 0.122209 0.500000
O O8 0.877353 0.000000 0.500000
O O9 0.399523 0.323587 0.250000
O O10 0.361056 0.361056 0.000000
O O11 0.370923 0.245324 0.003384
O O12 0.828532 0.160056 0.750000
O O13 0.876338 0.247174 0.979239
O O14 0.664556 0.588044 0.750000
O O15 0.634552 0.634552 0.000000
#
# Coordination Sequence:
#
# PCOD9586695 Si02
#       5
#    12  12  12  12  12
#     4   9  17  30  49  74  99 126 159 195 237 289
#     4  11  23  39  56  75 101 137 180 227 275 326
#     4  10  20  33  52  76 103 134 168 206 252 303
#     4  10  22  36  52  77 107 136 172 216 263 312
#     4  10  19  32  51  76 103 133 167 206 251 302
#
# _framework density 17.195561999999999
#
# number of rings (size 3 to 8) (size 9 to 14) (size 15 to 20)
#    0.000    2.000    0.000    5.000    0.000    7.200 
#    0.000    0.000    0.000    0.800    0.000    0.000 
#    0.000    0.000    0.000    0.000    0.000    0.000 
#
# Total GULP energy -334736.009937 kJ/mol
# GULP energy per Si atom -5578.933499 kJ/mol
# Density = 1.715642 g / cm^3
# Si number density = 17.195562 Si / 1000 Ang^3
#
#
#
# Elastic Constant Matrix: (Units=GPa)
#
#
# Indices 1 2 3 4 5 6 
#
# 1 150.5724 100.1567 47.3519 0.0000 0.0000 0.0000
# 2 100.1567 150.5724 47.3519 0.0000 0.0000 0.0000
# 3 47.3519 47.3519 46.2084 0.0000 0.0000 0.0000
# 4 0.0000 0.0000 0.0000 27.3914 0.0000 0.0000
# 5 0.0000 0.0000 0.0000 0.0000 27.3914 0.0000
# 6 0.0000 0.0000 0.0000 0.0000 0.0000 25.2079
#
#
#
# Elastic Compliance Matrix: (Units=1/GPa)
#
#
# Indices 1 2 3 4 5 6 
#
# 1 0.013171 -0.006664 -0.006668 0.000000 0.000000 0.000000
# 2 -0.006664 0.013171 -0.006668 0.000000 0.000000 0.000000
# 3 -0.006668 -0.006668 0.035307 0.000000 0.000000 0.000000
# 4 0.000000 0.000000 0.000000 0.036508 0.000000 0.000000
# 5 0.000000 0.000000 0.000000 0.000000 0.036508 0.000000
# 6 0.000000 0.000000 0.000000 0.000000 0.000000 0.039670
#
#
# Mechanical properties :
#
#
# Convention : Reuss Voigt Hill
#
# Bulk Modulus (GPa) = 46.19134 81.89709 64.04422
# Shear Modulus (GPa) = 22.56814 26.16432 24.36623
#
# Velocity S-wave (km/s) = 3.62669 3.90497 3.76840
# Velocity P-wave (km/s) = 6.66767 8.24997 7.50066
#
# Compressibility (1/GPa) = 0.02164908
#
# Stress axis : x y z
#
# Youngs Moduli (GPa) = 75.92427 75.92427 28.32293
#
# Poissons Ratio (x) = 0.50596 0.18886
# Poissons Ratio (y) = 0.50596 0.18886
# Poissons Ratio (z) = 0.50626 0.50626
#
# Static dielectric constant tensor:
#      x y z
#    x 1.585270 0.000000 0.000000 
#    y 0.000000 1.585270 0.000000 
#    z 0.000000 0.000000 1.599080 
# 
# From -- ./inp_files/2005.got.cif
#   From: 2010.05.17/outbox.cif.g08.bks.cpg/sg190_2_cif.got.tgz:2005.got - 2010.05.20 12:16:56.
