data_PCOD9586602
_publ_section_title
;
Structure prediction by ZEFSAII (Michael W. Deem and Ramdas Pophale) SiO2 
 PCOD9586602
Probable space group: P -6 2 M
;
_chemical_formula_sum "Si O2"
_cell_formula_units_Z 32
_cell_length_a 15.000000
_cell_length_b 15.000000
_cell_length_c 9.000000
_cell_angle_alpha 90.000000
_cell_angle_beta 90.000000
_cell_angle_gamma 120.000000
_cell_volume 1753.701443
_symmetry_space_group_name_H-M "P -6 2 M"
_symmetry_group_IT_number 189
_symmetry_cell_setting 'hexagonal'
loop_
_space_group_symop_operation_xyz
x,y,z
-x+y,-x,-z
-y,x-y,z
x,y,-z
-x+y,-x,z
-y,x-y,-z
x-y,-y,-z
-x,-x+y,-z
y,x,-z
y,x,z
x-y,-y,z
-x,-x+y,z
loop_
_atom_site_type_symbol
_atom_site_label
_atom_site_fract_x
_atom_site_fract_y
_atom_site_fract_z
Si Si1 0.404895 0.877291 0.176523
Si Si2 0.000000 0.000000 0.314346
Si Si3 0.571580 0.823294 0.682114
Si Si4 0.000000 0.792633 0.815587
O O1 0.488544 0.854621 0.256916
O O2 0.293926 0.819626 0.258094
O O3 0.451411 0.000000 0.182970
O O4 0.394663 0.847934 0.000000
O O5 0.000000 0.895758 0.250832
O O6 0.000000 0.000000 0.500000
O O7 0.577342 0.828206 0.500000
O O8 0.685354 0.901136 0.753586
O O9 0.000000 0.794705 0.000000
#
# Coordination Sequence:
#
# PCOD9586602 Si02
#       4
#    12   2  12   6
#     4  11  24  43  68  97 133 177 225 272 332 404
#     4  12  28  50  73 102 133 176 232 288 340 392
#     4  12  25  43  69 101 139 177 222 281 337 397
#     4  12  26  48  73 100 137 182 228 278 338 408
#
# _framework density 18.247119999999999
#
# number of rings (size 3 to 8) (size 9 to 14) (size 15 to 20)
#    0.000    0.375    1.875    7.500    2.625    2.250 
#    0.000    0.000    0.000    0.000    0.000    0.000 
#    0.000    0.000    0.000    0.000    0.000    0.000 
#
# Total GULP energy -178829.372828 kJ/mol
# GULP energy per Si atom -5588.417901 kJ/mol
# Density = 1.820559 g / cm^3
# Si number density = 18.247120 Si / 1000 Ang^3
#
#
#
# Elastic Constant Matrix: (Units=GPa)
#
#
# Indices 1 2 3 4 5 6 
#
# 1 176.4209 76.0667 75.0381 0.0000 0.0000 0.0000
# 2 76.0667 176.4209 75.0381 0.0000 0.0000 0.0000
# 3 75.0381 75.0381 231.0577 0.0000 0.0000 0.0000
# 4 0.0000 0.0000 0.0000 44.4803 0.0000 0.0000
# 5 0.0000 0.0000 0.0000 0.0000 44.4803 0.0000
# 6 0.0000 0.0000 0.0000 0.0000 0.0000 50.1771
#
#
#
# Elastic Compliance Matrix: (Units=1/GPa)
#
#
# Indices 1 2 3 4 5 6 
#
# 1 0.007436 -0.002528 -0.001594 0.000000 0.000000 0.000000
# 2 -0.002528 0.007436 -0.001594 0.000000 0.000000 0.000000
# 3 -0.001594 -0.001594 0.005363 0.000000 0.000000 0.000000
# 4 0.000000 0.000000 0.000000 0.022482 0.000000 0.000000
# 5 0.000000 0.000000 0.000000 0.000000 0.022482 0.000000
# 6 0.000000 0.000000 0.000000 0.000000 0.000000 0.019929
#
#
# Mechanical properties :
#
#
# Convention : Reuss Voigt Hill
#
# Bulk Modulus (GPa) = 113.59078 115.13168 114.36123
# Shear Modulus (GPa) = 50.25332 51.67799 50.96565
#
# Velocity S-wave (km/s) = 5.25359 5.32754 5.29069
# Velocity P-wave (km/s) = 9.95925 10.05367 10.00658
#
# Compressibility (1/GPa) = 0.00880353
#
# Stress axis : x y z
#
# Youngs Moduli (GPa) = 134.47450 134.47450 186.45580
#
# Poissons Ratio (x) = 0.34000 0.29720
# Poissons Ratio (y) = 0.34000 0.29720
# Poissons Ratio (z) = 0.21434 0.21434
#
# Static dielectric constant tensor:
#      x y z
#    x 1.629100 0.000000 0.000000 
#    y 0.000000 1.629100 0.000000 
#    z 0.000000 0.000000 1.637100 
# 
# From -- ./inp_files/373.got.cif
#   From: 2010.05.17/outbox.ucp.g08.bks.cvg/sg189_1_cif.got.tgz:373.got - 2010.06.11 15:22:13.
