data_PCOD9586913
_publ_section_title
;
Structure prediction by ZEFSAII (Michael W. Deem and Ramdas Pophale) SiO2 
 PCOD9586913
Probable space group: P -6 2 C
;
_chemical_formula_sum "Si O2"
_cell_formula_units_Z 66
_cell_length_a 20.331530
_cell_length_b 20.331530
_cell_length_c 10.002552
_cell_angle_alpha 90.000000
_cell_angle_beta 90.000000
_cell_angle_gamma 120.000000
_cell_volume 3580.812433
_symmetry_space_group_name_H-M "P -6 2 C"
_symmetry_group_IT_number 190
_symmetry_cell_setting 'hexagonal'
loop_
_space_group_symop_operation_xyz
x,y,z
-x+y,-x,1/2-z
-y,x-y,z
x,y,1/2-z
-x+y,-x,z
-y,x-y,1/2-z
x-y,-y,-z
-x,-x+y,-z
y,x,-z
y,x,1/2+z
x-y,-y,1/2+z
-x,-x+y,1/2+z
loop_
_atom_site_type_symbol
_atom_site_label
_atom_site_fract_x
_atom_site_fract_y
_atom_site_fract_z
Si Si1 0.234816 0.926205 0.908891
Si Si2 0.729345 0.932848 0.906232
Si Si3 0.130724 0.687300 0.909103
Si Si4 0.065249 0.518276 0.903052
Si Si5 0.323536 0.748478 0.250000
Si Si6 0.187347 0.480972 0.516983
O O1 0.256968 0.939383 0.750000
O O2 0.143528 0.877521 0.912624
O O3 0.263684 0.872429 0.973696
O O4 0.267114 0.000000 0.000000
O O5 0.736547 0.955608 0.750000
O O6 0.643610 0.907524 0.955213
O O7 0.786999 0.000000 0.000000
O O8 0.121572 0.681818 0.750000
O O9 0.089294 0.601619 0.959657
O O10 0.221029 0.734798 0.933733
O O11 0.037408 0.508504 0.750000
O O12 0.142420 0.514550 0.903170
O O13 0.000000 0.457429 0.000000
O O14 0.399603 0.741200 0.250000
O O15 0.315777 0.791361 0.123084
#
# Coordination Sequence:
#
# PCOD9586913 Si02
#       6
#    12  12  12  12   6  12
#     4  10  22  38  61  91 129 161 206 259 313 378
#     4   9  18  35  57  84 116 154 192 244 296 359
#     4   9  19  37  56  80 111 148 198 249 297 359
#     4  11  23  37  59  84 114 153 194 246 307 368
#     4  10  24  40  56  84 120 154 206 270 316 364
#     4  11  21  38  59  79 114 158 200 248 313 364
#
# _framework density 18.431571000000002
#
# number of rings (size 3 to 8) (size 9 to 14) (size 15 to 20)
#    0.182    1.818    0.000    4.909    2.545    0.727 
#    7.636    0.000    0.000    0.364    0.000    0.000 
#    0.000    0.000    0.000    0.000    0.000    0.000 
#
# Total GULP energy -367716.240586 kJ/mol
# GULP energy per Si atom -5571.458191 kJ/mol
# Density = 1.838962 g / cm^3
# Si number density = 18.431571 Si / 1000 Ang^3
#
#
#
# Elastic Constant Matrix: (Units=GPa)
#
#
# Indices 1 2 3 4 5 6 
#
# 1 70.8677 27.5598 45.6407 0.0000 0.0000 0.0000
# 2 27.5598 70.8677 45.6407 0.0000 0.0000 0.0000
# 3 45.6407 45.6407 100.8532 0.0000 0.0000 0.0000
# 4 0.0000 0.0000 0.0000 13.8067 0.0000 0.0000
# 5 0.0000 0.0000 0.0000 0.0000 13.8067 0.0000
# 6 0.0000 0.0000 0.0000 0.0000 0.0000 21.6540
#
#
#
# Elastic Compliance Matrix: (Units=1/GPa)
#
#
# Indices 1 2 3 4 5 6 
#
# 1 0.020299 -0.002791 -0.007923 0.000000 0.000000 0.000000
# 2 -0.002791 0.020299 -0.007923 0.000000 0.000000 0.000000
# 3 -0.007923 -0.007923 0.017086 0.000000 0.000000 0.000000
# 4 0.000000 0.000000 0.000000 0.072429 0.000000 0.000000
# 5 0.000000 0.000000 0.000000 0.000000 0.072429 0.000000
# 6 0.000000 0.000000 0.000000 0.000000 0.000000 0.046181
#
#
# Mechanical properties :
#
#
# Convention : Reuss Voigt Hill
#
# Bulk Modulus (GPa) = 48.99656 53.36343 51.17999
# Shear Modulus (GPa) = 17.07647 18.10330 17.58988
#
# Velocity S-wave (km/s) = 3.04711 3.13739 3.09258
# Velocity P-wave (km/s) = 6.24664 6.49148 6.37024
#
# Compressibility (1/GPa) = 0.02040960
#
# Stress axis : x y z
#
# Youngs Moduli (GPa) = 49.26362 49.26362 58.52621
#
# Poissons Ratio (x) = 0.13752 0.46370
# Poissons Ratio (y) = 0.13752 0.46370
# Poissons Ratio (z) = 0.39031 0.39031
#
# Static dielectric constant tensor:
#      x y z
#    x 1.651940 0.000000 0.000000 
#    y 0.000000 1.651940 0.000000 
#    z 0.000000 0.000000 1.638780 
# 
# From -- ./inp_files/1071.got.cif
#   From: 2010.05.17/outbox.cif.g08.bks.cpg/sg190_1_cif.got.tgz:1071.got - 2010.05.20 12:16:56.
