data_PCOD9586101
_publ_section_title
;
Structure prediction by ZEFSAII (Michael W. Deem and Ramdas Pophale) SiO2 
 PCOD9586101
Probable space group: P -6 2 M
;
_chemical_formula_sum "Si O2"
_cell_formula_units_Z 34
_cell_length_a 13.208934
_cell_length_b 13.208934
_cell_length_c 15.920531
_cell_angle_alpha 90.000000
_cell_angle_beta 90.000000
_cell_angle_gamma 120.000000
_cell_volume 2405.601693
_symmetry_space_group_name_H-M "P -6 2 M"
_symmetry_group_IT_number 189
_symmetry_cell_setting 'hexagonal'
loop_
_space_group_symop_operation_xyz
x,y,z
-x+y,-x,-z
-y,x-y,z
x,y,-z
-x+y,-x,z
-y,x-y,-z
x-y,-y,-z
-x,-x+y,-z
y,x,-z
y,x,z
x-y,-y,z
-x,-x+y,z
loop_
_atom_site_type_symbol
_atom_site_label
_atom_site_fract_x
_atom_site_fract_y
_atom_site_fract_z
Si Si1 0.864165 0.352996 0.781828
Si Si2 0.220440 0.700603 0.500000
Si Si3 0.301229 0.435308 0.316746
Si Si4 0.666666 0.333333 0.099686
O O1 0.851829 0.442458 0.718060
O O2 0.809510 0.228989 0.735187
O O3 0.783117 0.340918 0.860902
O O4 0.000000 0.409351 0.802497
O O5 0.360875 0.787156 0.500000
O O6 0.164761 0.713845 0.584991
O O7 0.338206 0.338206 0.302788
O O8 0.666667 0.333334 0.000000
#
# Coordination Sequence:
#
# PCOD9586101 Si02
#       4
#    12   6  12   4
#     4   9  17  30  45  62  88 119 147 178 220 268
#     4  10  15  24  40  58  91 116 146 190 232 262
#     4  10  17  27  42  61  88 119 151 187 222 261
#     4   9  18  30  45  70  92 109 138 177 225 276
#
# _framework density 14.133679000000001
#
# number of rings (size 3 to 8) (size 9 to 14) (size 15 to 20)
#    0.353    2.118    3.529    1.235    0.000    0.706 
#    0.000    0.882    0.000    0.706    0.000    0.000 
#    0.000    0.000    0.000    1.059    0.000    0.000 
#
# Total GULP energy -189326.972178 kJ/mol
# GULP energy per Si atom -5568.440358 kJ/mol
# Density = 1.410151 g / cm^3
# Si number density = 14.133679 Si / 1000 Ang^3
#
#
#
# Elastic Constant Matrix: (Units=GPa)
#
#
# Indices 1 2 3 4 5 6 
#
# 1 81.0904 43.0358 44.0318 0.0000 0.0000 0.0000
# 2 43.0358 81.0903 44.0317 0.0000 0.0000 0.0000
# 3 44.0318 44.0317 129.7632 -0.0001 0.0000 0.0000
# 4 0.0000 0.0000 -0.0001 8.0772 0.0000 0.0000
# 5 0.0000 0.0000 0.0000 0.0000 8.0773 0.0000
# 6 0.0000 0.0000 0.0000 0.0000 0.0000 19.0273
#
#
#
# Elastic Compliance Matrix: (Units=1/GPa)
#
#
# Indices 1 2 3 4 5 6 
#
# 1 0.018444 -0.007834 -0.003600 0.000000 0.000000 0.000000
# 2 -0.007834 0.018444 -0.003600 0.000000 0.000000 0.000000
# 3 -0.003600 -0.003600 0.010150 0.000000 0.000000 0.000000
# 4 0.000000 0.000000 0.000000 0.123805 0.000000 0.000000
# 5 0.000000 0.000000 0.000000 0.000000 0.123804 0.000000
# 6 0.000000 0.000000 0.000000 0.000000 0.000000 0.052556
#
#
# Mechanical properties :
#
#
# Convention : Reuss Voigt Hill
#
# Bulk Modulus (GPa) = 58.92971 61.57140 60.25056
# Shear Modulus (GPa) = 13.05723 17.75932 15.40828
#
# Velocity S-wave (km/s) = 3.04277 3.54860 3.30537
# Velocity P-wave (km/s) = 7.35728 7.77485 7.56894
#
# Compressibility (1/GPa) = 0.01696937
#
# Stress axis : x y z
#
# Youngs Moduli (GPa) = 54.21696 54.21696 98.52406
#
# Poissons Ratio (x) = 0.42472 0.35473
# Poissons Ratio (y) = 0.42472 0.35473
# Poissons Ratio (z) = 0.19521 0.19521
#
# Static dielectric constant tensor:
#      x y z
#    x 1.461360 0.000000 0.000000 
#    y 0.000000 1.461360 0.000000 
#    z 0.000000 0.000000 1.444880 
# 
# From -- ./inp_files/2321.got.cif
#   From: 2010.05.17/outbox.cif.g08.bks.cpg/sg189_2_cif.got.tgz:2321.got - 2010.05.20 12:14:34.
