data_PCOD9586625
_publ_section_title
;
Structure prediction by ZEFSAII (Michael W. Deem and Ramdas Pophale) SiO2 
 PCOD9586625
Probable space group: P -6 2 C
;
_chemical_formula_sum "Si O2"
_cell_formula_units_Z 78
_cell_length_a 25.009330
_cell_length_b 25.009330
_cell_length_c 8.184992
_cell_angle_alpha 90.000000
_cell_angle_beta 90.000000
_cell_angle_gamma 120.000000
_cell_volume 4433.564237
_symmetry_space_group_name_H-M "P -6 2 C"
_symmetry_group_IT_number 190
_symmetry_cell_setting 'hexagonal'
loop_
_space_group_symop_operation_xyz
x,y,z
-x+y,-x,1/2-z
-y,x-y,z
x,y,1/2-z
-x+y,-x,z
-y,x-y,1/2-z
x-y,-y,-z
-x,-x+y,-z
y,x,-z
y,x,1/2+z
x-y,-y,1/2+z
-x,-x+y,1/2+z
loop_
_atom_site_type_symbol
_atom_site_label
_atom_site_fract_x
_atom_site_fract_y
_atom_site_fract_z
Si Si1 0.068174 0.708821 0.057333
Si Si2 0.381466 0.069583 0.053415
Si Si3 0.810195 0.625790 0.060051
Si Si4 0.069938 0.589223 0.447512
Si Si5 0.261663 0.522254 0.565345
Si Si6 0.478208 0.620511 0.447247
Si Si7 0.729221 0.408847 0.750000
O O1 0.065619 0.701770 0.250000
O O2 0.082447 0.655855 0.990177
O O3 0.122641 0.776684 0.016141
O O4 0.000000 0.690360 0.000000
O O5 0.384633 0.073562 0.250000
O O6 0.361488 0.118750 0.992437
O O7 0.450678 0.093510 0.990353
O O8 0.336540 0.000000 0.000000
O O9 0.818577 0.642716 0.250000
O O10 0.779908 0.551548 0.048822
O O11 0.072895 0.590919 0.250000
O O12 0.115889 0.565676 0.503149
O O13 0.000000 0.541142 0.500000
O O14 0.285931 0.540636 0.750000
O O15 0.205852 0.536324 0.534094
O O16 0.308977 0.553340 0.415736
O O17 0.475706 0.623534 0.250000
O O18 0.727984 0.344497 0.750000
#
# Coordination Sequence:
#
# PCOD9586625 Si02
#       7
#    12  12  12  12  12  12   6
#     4  10  20  34  52  74 101 133 171 215 262 317
#     4  10  20  33  50  76 107 137 175 216 261 317
#     4   9  20  36  54  77 103 135 172 216 259 316
#     4   9  19  31  44  68  96 124 160 205 254 307
#     4  10  21  38  56  76 100 129 174 216 268 328
#     4  10  18  31  51  73 102 133 167 212 265 319
#     4  10  24  40  54  72  96 130 168 228 264 324
#
# _framework density 17.593067999999999
#
# number of rings (size 3 to 8) (size 9 to 14) (size 15 to 20)
#    0.154    2.154    0.769    2.769    1.077    6.154 
#    0.000    1.538    0.000    0.000    0.000    0.000 
#    0.000    0.000    0.000    0.462    0.000    7.385 
#
# Total GULP energy -435360.178598 kJ/mol
# GULP energy per Si atom -5581.540751 kJ/mol
# Density = 1.755303 g / cm^3
# Si number density = 17.593068 Si / 1000 Ang^3
#
#
#
# Elastic Constant Matrix: (Units=GPa)
#
#
# Indices 1 2 3 4 5 6 
#
# 1 79.6096 44.9967 18.7176 0.0000 0.0000 0.0000
# 2 44.9967 79.6096 18.7176 0.0000 0.0000 0.0000
# 3 18.7176 18.7176 62.0155 0.0000 0.0000 0.0000
# 4 0.0000 0.0000 0.0000 -57.4415 0.0000 0.0000
# 5 0.0000 0.0000 0.0000 0.0000 -57.4415 0.0000
# 6 0.0000 0.0000 0.0000 0.0000 0.0000 17.3065
#
#
#
# Elastic Compliance Matrix: (Units=1/GPa)
#
#
# Indices 1 2 3 4 5 6 
#
# 1 0.018858 -0.010033 -0.002664 0.000000 0.000000 0.000000
# 2 -0.010033 0.018858 -0.002664 0.000000 0.000000 0.000000
# 3 -0.002664 -0.002664 0.017733 0.000000 0.000000 0.000000
# 4 0.000000 0.000000 0.000000 -0.017409 0.000000 0.000000
# 5 0.000000 0.000000 0.000000 0.000000 -0.017409 0.000000
# 6 0.000000 0.000000 0.000000 0.000000 0.000000 0.057782
#
#
# Mechanical properties :
#
#
# Convention : Reuss Voigt Hill
#
# Bulk Modulus (GPa) = 40.43824 42.89983 41.66903
# Shear Modulus (GPa) = 42.59790 -10.26180 16.16805
#
# Velocity S-wave (km/s) = 4.92600 -2.41775 3.03479
# Velocity P-wave (km/s) = 7.44239 4.07963 6.00136
#
# Compressibility (1/GPa) = 0.02472907
#
# Stress axis : x y z
#
# Youngs Moduli (GPa) = 53.02721 53.02721 56.39223
#
# Poissons Ratio (x) = 0.53201 0.15021
# Poissons Ratio (y) = 0.53201 0.15021
# Poissons Ratio (z) = 0.14125 0.14125
#
# Static dielectric constant tensor:
#      x y z
#    x 1.614320 0.000000 0.000000 
#    y 0.000000 1.614320 0.000000 
#    z 0.000000 0.000000 1.619700 
# 
# From -- ./inp_files/1331.got.cif
#   From: 2010.05.17/outbox.cif.g08.bks.cpg/sg190_1_cif.got.tgz:1331.got - 2010.05.20 12:16:56.
