data_PCOD9586954
_publ_section_title
;
Structure prediction by ZEFSAII (Michael W. Deem and Ramdas Pophale) SiO2 
 PCOD9586954
Probable space group: P -6 2 C
;
_chemical_formula_sum "Si O2"
_cell_formula_units_Z 58
_cell_length_a 14.774935
_cell_length_b 14.774935
_cell_length_c 13.634915
_cell_angle_alpha 90.000000
_cell_angle_beta 90.000000
_cell_angle_gamma 120.000000
_cell_volume 2577.710998
_symmetry_space_group_name_H-M "P -6 2 C"
_symmetry_group_IT_number 190
_symmetry_cell_setting 'hexagonal'
loop_
_space_group_symop_operation_xyz
x,y,z
-x+y,-x,1/2-z
-y,x-y,z
x,y,1/2-z
-x+y,-x,z
-y,x-y,1/2-z
x-y,-y,-z
-x,-x+y,-z
y,x,-z
y,x,1/2+z
x-y,-y,1/2+z
-x,-x+y,1/2+z
loop_
_atom_site_type_symbol
_atom_site_label
_atom_site_fract_x
_atom_site_fract_y
_atom_site_fract_z
Si Si1 0.671085 0.106957 0.132484
Si Si2 0.073384 0.856804 0.866578
Si Si3 0.530201 0.741996 0.460749
Si Si4 0.889447 0.478016 0.864149
Si Si5 0.000000 0.000000 0.632970
Si Si6 0.000000 0.262405 0.000000
O O1 0.677561 0.129550 0.250000
O O2 0.744683 0.057192 0.108003
O O3 0.552957 0.013160 0.111439
O O4 0.725877 0.210627 0.064242
O O5 0.082609 0.863032 0.750000
O O6 0.989589 0.890434 0.896334
O O7 0.179187 0.945821 0.913935
O O8 0.542009 0.829235 0.383119
O O9 0.444668 0.626291 0.426851
O O10 0.631610 0.729481 0.462532
O O11 0.884502 0.450164 0.750000
O O12 0.000000 0.000000 0.750000
#
# Coordination Sequence:
#
# PCOD9586954 Si02
#       6
#    12  12  12  12   4   6
#     4   9  21  43  69  96 138 188 230 281 357 434
#     4   9  19  36  56  89 129 169 216 264 321 399
#     4  11  24  43  68  99 140 172 238 293 357 422
#     4  11  24  43  72 103 137 183 233 297 365 426
#     4   9  18  31  56  88 130 170 205 259 317 382
#     4  10  24  38  62  94 124 178 214 278 336 402
#
# _framework density 22.500582999999999
#
# number of rings (size 3 to 8) (size 9 to 14) (size 15 to 20)
#    0.000    2.069    0.000    1.655    5.793    2.483 
#    0.000    1.034    0.000    0.000    0.000    0.000 
#    0.000    0.000    0.000    0.000    0.000    0.000 
#
# Total GULP energy -323325.270830 kJ/mol
# GULP energy per Si atom -5574.573635 kJ/mol
# Density = 2.244937 g / cm^3
# Si number density = 22.500583 Si / 1000 Ang^3
#
#
#
# Elastic Constant Matrix: (Units=GPa)
#
#
# Indices 1 2 3 4 5 6 
#
# 1 107.6092 21.8651 42.7124 0.0000 0.0000 0.0000
# 2 21.8651 107.6092 42.7124 0.0000 0.0000 0.0000
# 3 42.7124 42.7124 128.0650 0.0000 0.0000 0.0000
# 4 0.0000 0.0000 0.0000 27.0875 0.0000 0.0000
# 5 0.0000 0.0000 0.0000 0.0000 27.0875 0.0000
# 6 0.0000 0.0000 0.0000 0.0000 0.0000 42.8721
#
#
#
# Elastic Compliance Matrix: (Units=1/GPa)
#
#
# Indices 1 2 3 4 5 6 
#
# 1 0.010783 -0.000880 -0.003303 0.000000 0.000000 0.000000
# 2 -0.000880 0.010783 -0.003303 0.000000 0.000000 0.000000
# 3 -0.003303 -0.003303 0.010012 0.000000 0.000000 0.000000
# 4 0.000000 0.000000 0.000000 0.036917 0.000000 0.000000
# 5 0.000000 0.000000 0.000000 0.000000 0.036917 0.000000
# 6 0.000000 0.000000 0.000000 0.000000 0.000000 0.023325
#
#
# Mechanical properties :
#
#
# Convention : Reuss Voigt Hill
#
# Bulk Modulus (GPa) = 60.21956 61.98483 61.10219
# Shear Modulus (GPa) = 33.50239 35.14232 34.32235
#
# Velocity S-wave (km/s) = 3.86289 3.95630 3.90987
# Velocity P-wave (km/s) = 6.83502 6.96259 6.89910
#
# Compressibility (1/GPa) = 0.01660590
#
# Stress axis : x y z
#
# Youngs Moduli (GPa) = 92.74188 92.74188 99.88408
#
# Poissons Ratio (x) = 0.08161 0.32989
# Poissons Ratio (y) = 0.08161 0.32989
# Poissons Ratio (z) = 0.30630 0.30630
#
# Static dielectric constant tensor:
#      x y z
#    x 1.880790 0.000000 0.000000 
#    y 0.000000 1.880790 0.000000 
#    z 0.000000 0.000000 1.821910 
# 
# From -- ./inp_files/2855.got.cif
#   From: 2010.05.17/outbox.cif.g08.bks.cpg/sg190_2_cif.got.tgz:2855.got - 2010.05.20 12:16:56.
