data_PCOD9586611
_publ_section_title
;
Structure prediction by ZEFSAII (Michael W. Deem and Ramdas Pophale) SiO2 
 PCOD9586611
Probable space group: P -6 2 C
;
_chemical_formula_sum "Si O2"
_cell_formula_units_Z 60
_cell_length_a 10.708928
_cell_length_b 10.708928
_cell_length_c 24.501097
_cell_angle_alpha 90.000000
_cell_angle_beta 90.000000
_cell_angle_gamma 120.000000
_cell_volume 2433.370051
_symmetry_space_group_name_H-M "P -6 2 C"
_symmetry_group_IT_number 190
_symmetry_cell_setting 'hexagonal'
loop_
_space_group_symop_operation_xyz
x,y,z
-x+y,-x,1/2-z
-y,x-y,z
x,y,1/2-z
-x+y,-x,z
-y,x-y,1/2-z
x-y,-y,-z
-x,-x+y,-z
y,x,-z
y,x,1/2+z
x-y,-y,1/2+z
-x,-x+y,1/2+z
loop_
_atom_site_type_symbol
_atom_site_label
_atom_site_fract_x
_atom_site_fract_y
_atom_site_fract_z
Si Si1 0.085419 0.405927 0.364293
Si Si2 0.138621 0.819027 0.869630
Si Si3 0.333334 0.666668 0.887597
Si Si4 0.333334 0.666668 0.183366
Si Si5 0.594857 0.544566 0.250000
Si Si6 0.566834 0.935350 0.440694
Si Si7 0.333334 0.666667 0.018614
Si Si8 0.344924 0.247940 0.250000
O O1 0.251404 0.507334 0.344375
O O2 0.041866 0.501671 0.401676
O O3 0.986050 0.242618 0.385736
O O4 0.017085 0.386375 0.304405
O O5 0.238809 0.740826 0.869917
O O6 0.075114 0.805864 0.808397
O O7 0.013224 0.721352 0.912051
O O8 0.333334 0.666667 0.953880
O O9 0.333334 0.666668 0.250000
O O10 0.432614 0.418017 0.250000
O O11 0.734669 0.527354 0.250000
O O12 0.492309 0.766486 0.456437
O O13 0.572578 0.000000 0.500000
#
# Coordination Sequence:
#
# PCOD9586611 Si02
#       8
#    12  12   4   4   6  12   4   6
#     4  11  22  38  58  90 132 185 229 284 361 429
#     4  11  20  35  63  91 129 174 237 300 360 420
#     4  12  18  38  56  87 134 173 234 301 350 424
#     4  12  25  44  64  93 154 200 229 283 386 469
#     4  10  17  30  54  84 122 172 211 278 350 420
#     4  12  23  38  62  87 140 188 239 299 359 426
#     4  12  25  40  58  95 139 199 235 277 398 421
#     4  10  17  28  50  84 120 160 213 284 350 404
#
# _framework density 24.657164000000002
#
# number of rings (size 3 to 8) (size 9 to 14) (size 15 to 20)
#    0.000    0.800    7.000    2.600    0.000    0.000 
#    0.000    0.000    0.000    0.000    0.000    0.000 
#   28.000    6.800    2.400    0.000    0.000    0.000 
#
# Total GULP energy -334604.189049 kJ/mol
# GULP energy per Si atom -5576.736484 kJ/mol
# Density = 2.460104 g / cm^3
# Si number density = 24.657164 Si / 1000 Ang^3
#
#
#
# Elastic Constant Matrix: (Units=GPa)
#
#
# Indices 1 2 3 4 5 6 
#
# 1 75.6648 25.0279 23.3717 0.0000 0.0000 0.0000
# 2 25.0279 75.6646 23.3714 0.0000 0.0001 0.0001
# 3 23.3717 23.3714 191.4027 -0.0001 -0.0001 0.0000
# 4 0.0000 0.0000 -0.0001 20.6757 0.0000 0.0000
# 5 0.0000 0.0001 -0.0001 0.0000 20.6759 0.0000
# 6 0.0000 0.0001 0.0000 0.0000 0.0000 25.3184
#
#
#
# Elastic Compliance Matrix: (Units=1/GPa)
#
#
# Indices 1 2 3 4 5 6 
#
# 1 0.015138 -0.004610 -0.001286 0.000000 0.000000 0.000000
# 2 -0.004610 0.015138 -0.001286 0.000000 0.000000 0.000000
# 3 -0.001286 -0.001286 0.005539 0.000000 0.000000 0.000000
# 4 0.000000 0.000000 0.000000 0.048366 0.000000 0.000000
# 5 0.000000 0.000000 0.000000 0.000000 0.048365 0.000000
# 6 0.000000 0.000000 0.000000 0.000000 0.000000 0.039497
#
#
# Mechanical properties :
#
#
# Convention : Reuss Voigt Hill
#
# Bulk Modulus (GPa) = 46.61496 54.03048 50.32272
# Shear Modulus (GPa) = 25.83222 31.39808 28.61515
#
# Velocity S-wave (km/s) = 3.24026 3.57232 3.41034
# Velocity P-wave (km/s) = 5.73980 6.24304 5.99671
#
# Compressibility (1/GPa) = 0.02145234
#
# Stress axis : x y z
#
# Youngs Moduli (GPa) = 66.05798 66.05782 180.55322
#
# Poissons Ratio (x) = 0.30454 0.23211
# Poissons Ratio (y) = 0.30454 0.23211
# Poissons Ratio (z) = 0.08492 0.08492
#
# Static dielectric constant tensor:
#      x y z
#    x 2.143710 0.000000 0.000000 
#    y 0.000000 2.143710 0.000000 
#    z 0.000000 0.000000 1.985630 
# 
# From -- ./inp_files/4929.got.cif
#   From: 2010.05.17/outbox.cif.g08.bks.cpg/sg190_3_cif.got.tgz:4929.got - 2010.05.20 12:16:56.
