data_PCOD9586459
_publ_section_title
;
Structure prediction by ZEFSAII (Michael W. Deem and Ramdas Pophale) SiO2 
 PCOD9586459
Probable space group: P -6 2 M
;
_chemical_formula_sum "Si O2"
_cell_formula_units_Z 72
_cell_length_a 15.265860
_cell_length_b 15.265860
_cell_length_c 18.636596
_cell_angle_alpha 90.000000
_cell_angle_beta 90.000000
_cell_angle_gamma 120.000000
_cell_volume 3761.315580
_symmetry_space_group_name_H-M "P -6 2 M"
_symmetry_group_IT_number 189
_symmetry_cell_setting 'hexagonal'
loop_
_space_group_symop_operation_xyz
x,y,z
-x+y,-x,-z
-y,x-y,z
x,y,-z
-x+y,-x,z
-y,x-y,-z
x-y,-y,-z
-x,-x+y,-z
y,x,-z
y,x,z
x-y,-y,z
-x,-x+y,z
loop_
_atom_site_type_symbol
_atom_site_label
_atom_site_fract_x
_atom_site_fract_y
_atom_site_fract_z
Si Si1 0.885625 0.769613 0.085068
Si Si2 0.879253 0.294508 0.312730
Si Si3 0.880817 0.652077 0.583621
Si Si4 0.444956 0.191901 0.847497
Si Si5 0.529732 0.410905 0.085145
Si Si6 0.878364 0.443075 0.578822
O O1 0.855864 0.855864 0.094249
O O2 0.806319 0.669904 0.125410
O O3 0.000000 0.809573 0.108752
O O4 0.879255 0.746678 0.000000
O O5 0.853034 0.196781 0.361212
O O6 0.821988 0.265091 0.237545
O O7 0.844649 0.361513 0.359058
O O8 0.000000 0.360001 0.299694
O O9 0.861190 0.665129 0.500000
O O10 0.863287 0.538462 0.590911
O O11 0.000000 0.728202 0.597844
O O12 0.495114 0.307544 0.872799
O O13 0.505088 0.143055 0.885028
O O14 0.450618 0.450618 0.095021
O O15 0.536341 0.395444 0.000000
O O16 0.836811 0.398194 0.500000
O O17 0.000000 0.492390 0.575440
#
# Coordination Sequence:
#
# PCOD9586459 Si02
#       6
#    12  12  12  12  12  12
#     4  10  20  37  62  90 119 152 195 250 311 375
#     4  11  23  37  58  88 124 160 198 243 304 366
#     4   9  19  37  61  87 118 160 206 249 297 352
#     4  12  25  40  60  88 124 161 204 258 313 370
#     4  11  24  43  66  88 115 160 210 256 312 376
#     4   8  16  34  58  82 113 153 195 240 287 342
#
# _framework density 19.142237999999999
#
# number of rings (size 3 to 8) (size 9 to 14) (size 15 to 20)
#    0.000    1.833    0.000    5.500    2.333    5.667 
#    1.000    0.000    0.000    0.333    0.000    0.000 
#    0.000    0.000    0.000    0.000    0.000    0.000 
#
# Total GULP energy -402246.882554 kJ/mol
# GULP energy per Si atom -5586.762258 kJ/mol
# Density = 1.909867 g / cm^3
# Si number density = 19.142238 Si / 1000 Ang^3
#
#
#
# Elastic Constant Matrix: (Units=GPa)
#
#
# Indices 1 2 3 4 5 6 
#
# 1 56.1326 6.6751 47.5826 0.0000 0.0000 0.0000
# 2 6.6751 56.1326 47.5826 0.0000 0.0000 0.0000
# 3 47.5826 47.5826 116.6744 0.0000 0.0000 0.0000
# 4 0.0000 0.0000 0.0000 18.1219 0.0000 0.0000
# 5 0.0000 0.0000 0.0000 0.0000 18.1219 0.0000
# 6 0.0000 0.0000 0.0000 0.0000 0.0000 24.7287
#
#
#
# Elastic Compliance Matrix: (Units=1/GPa)
#
#
# Indices 1 2 3 4 5 6 
#
# 1 0.030946 0.010726 -0.016995 0.000000 0.000000 0.000000
# 2 0.010726 0.030946 -0.016995 0.000000 0.000000 0.000000
# 3 -0.016995 -0.016995 0.022433 0.000000 0.000000 0.000000
# 4 0.000000 0.000000 0.000000 0.055182 0.000000 0.000000
# 5 0.000000 0.000000 0.000000 0.000000 0.055182 0.000000
# 6 0.000000 0.000000 0.000000 0.000000 0.000000 0.040439
#
#
# Mechanical properties :
#
#
# Convention : Reuss Voigt Hill
#
# Bulk Modulus (GPa) = 26.45698 48.06888 37.26293
# Shear Modulus (GPa) = 16.99225 20.66779 18.83002
#
# Velocity S-wave (km/s) = 2.98263 3.28944 3.13979
# Velocity P-wave (km/s) = 5.07077 6.29231 5.71427
#
# Compressibility (1/GPa) = 0.03779720
#
# Stress axis : x y z
#
# Youngs Moduli (GPa) = 32.31478 32.31478 44.57805
#
# Poissons Ratio (x) = -0.34661 0.75759
# Poissons Ratio (y) = -0.34661 0.75759
# Poissons Ratio (z) = 0.54918 0.54918
#
# Static dielectric constant tensor:
#      x y z
#    x 1.671770 0.000000 0.000000 
#    y 0.000000 1.671770 0.000000 
#    z 0.000000 0.000000 1.655100 
# 
# From -- ./inp_files/3118.got.cif
#   From: 2010.05.17/outbox.cif.g08.bks.cpg/sg189_2_cif.got.tgz:3118.got - 2010.05.20 12:14:34.
