data_PCOD9586271
_publ_section_title
;
Structure prediction by ZEFSAII (Michael W. Deem and Ramdas Pophale) SiO2 
 PCOD9586271
Probable space group: P -6 2 M
;
_chemical_formula_sum "Si O2"
_cell_formula_units_Z 72
_cell_length_a 24.233695
_cell_length_b 24.233695
_cell_length_c 8.411240
_cell_angle_alpha 90.000000
_cell_angle_beta 90.000000
_cell_angle_gamma 120.000000
_cell_volume 4277.893141
_symmetry_space_group_name_H-M "P -6 2 M"
_symmetry_group_IT_number 189
_symmetry_cell_setting 'hexagonal'
loop_
_space_group_symop_operation_xyz
x,y,z
-x+y,-x,-z
-y,x-y,z
x,y,-z
-x+y,-x,z
-y,x-y,-z
x-y,-y,-z
-x,-x+y,-z
y,x,-z
y,x,z
x-y,-y,z
-x,-x+y,z
loop_
_atom_site_type_symbol
_atom_site_label
_atom_site_fract_x
_atom_site_fract_y
_atom_site_fract_z
Si Si1 0.791063 0.267726 0.193222
Si Si2 0.279713 0.000000 0.310256
Si Si3 0.332899 0.260471 0.309542
Si Si4 0.407134 0.000000 0.309222
Si Si5 0.330378 0.136667 0.190055
Si Si6 0.476081 0.333526 0.192767
Si Si7 0.407957 0.875266 0.192424
O O1 0.838532 0.242069 0.244807
O O2 0.720637 0.213803 0.241633
O O3 0.816780 0.339750 0.245963
O O4 0.791774 0.268216 0.000000
O O5 0.280216 0.000000 0.500000
O O6 0.219900 0.934351 0.252133
O O7 0.343606 0.000000 0.252117
O O8 0.332107 0.258168 0.500000
O O9 0.286466 0.286466 0.255573
O O10 0.315213 0.191040 0.245613
O O11 0.405069 0.309464 0.254187
O O12 0.406705 0.000000 0.500000
O O13 0.470041 0.061595 0.247524
O O14 0.330407 0.135741 0.000000
O O15 0.530307 0.402783 0.247826
O O16 0.473544 0.333690 0.000000
O O17 0.409084 0.874725 0.000000
#
# Coordination Sequence:
#
# PCOD9586271 Si02
#       7
#    12   6  12   6  12  12  12
#     4   8  15  30  48  68  93 123 162 212 265 306
#     4  11  21  33  51  79 111 141 169 204 255 312
#     4  10  21  36  53  74 104 139 172 210 258 308
#     4  11  23  33  47  73 103 131 165 208 259 320
#     4  10  19  33  55  78 104 134 170 210 251 303
#     4   9  19  33  50  72  95 129 175 220 262 310
#     4  10  19  33  51  70  97 130 169 215 263 315
#
# _framework density 16.830715999999999
#
# number of rings (size 3 to 8) (size 9 to 14) (size 15 to 20)
#    0.000    2.333    1.667    2.500    1.167    2.667 
#    1.000    0.000    0.000    0.000    0.000    0.000 
#    0.833    0.000    1.500    0.000    1.500    0.000 
#
# Total GULP energy -401547.586630 kJ/mol
# GULP energy per Si atom -5577.049814 kJ/mol
# Density = 1.679241 g / cm^3
# Si number density = 16.830716 Si / 1000 Ang^3
#
#
#
# Elastic Constant Matrix: (Units=GPa)
#
#
# Indices 1 2 3 4 5 6 
#
# 1 119.3187 78.3246 23.1909 0.0000 0.0000 0.0000
# 2 78.3246 119.3187 23.1909 0.0000 0.0000 0.0000
# 3 23.1909 23.1909 25.8670 0.0000 0.0000 0.0000
# 4 0.0000 0.0000 0.0000 15.9193 0.0000 0.0000
# 5 0.0000 0.0000 0.0000 0.0000 15.9193 0.0000
# 6 0.0000 0.0000 0.0000 0.0000 0.0000 20.4970
#
#
#
# Elastic Compliance Matrix: (Units=1/GPa)
#
#
# Indices 1 2 3 4 5 6 
#
# 1 0.015401 -0.008993 -0.005745 0.000000 0.000000 0.000000
# 2 -0.008993 0.015401 -0.005745 0.000000 0.000000 0.000000
# 3 -0.005745 -0.005745 0.048960 0.000000 0.000000 0.000000
# 4 0.000000 0.000000 0.000000 0.062817 0.000000 0.000000
# 5 0.000000 0.000000 0.000000 0.000000 0.062817 0.000000
# 6 0.000000 0.000000 0.000000 0.000000 0.000000 0.048788
#
#
# Mechanical properties :
#
#
# Convention : Reuss Voigt Hill
#
# Bulk Modulus (GPa) = 25.77555 57.10190 41.43873
# Shear Modulus (GPa) = 16.22950 19.78697 18.00824
#
# Velocity S-wave (km/s) = 3.10865 3.43249 3.27458
# Velocity P-wave (km/s) = 5.31345 7.05054 6.24271
#
# Compressibility (1/GPa) = 0.03879646
#
# Stress axis : x y z
#
# Youngs Moduli (GPa) = 64.93179 64.93179 20.42469
#
# Poissons Ratio (x) = 0.58393 0.11734
# Poissons Ratio (y) = 0.58393 0.11734
# Poissons Ratio (z) = 0.37302 0.37302
#
# Static dielectric constant tensor:
#      x y z
#    x 1.565140 0.000000 0.000000 
#    y 0.000000 1.565140 0.000000 
#    z 0.000000 0.000000 1.582550 
# 
# From -- ./inp_files/1313.got.cif
#   From: 2010.05.17/outbox.cif.g08.bks.cpg/sg189_1_cif.got.tgz:1313.got - 2010.05.20 12:14:34.
