data_PCOD9586550
_publ_section_title
;
Structure prediction by ZEFSAII (Michael W. Deem and Ramdas Pophale) SiO2 
 PCOD9586550
Probable space group: P -6 2 M
;
_chemical_formula_sum "Si O2"
_cell_formula_units_Z 48
_cell_length_a 17.132442
_cell_length_b 17.132442
_cell_length_c 10.483202
_cell_angle_alpha 90.000000
_cell_angle_beta 90.000000
_cell_angle_gamma 120.000000
_cell_volume 2664.790838
_symmetry_space_group_name_H-M "P -6 2 M"
_symmetry_group_IT_number 189
_symmetry_cell_setting 'hexagonal'
loop_
_space_group_symop_operation_xyz
x,y,z
-x+y,-x,-z
-y,x-y,z
x,y,-z
-x+y,-x,z
-y,x-y,-z
x-y,-y,-z
-x,-x+y,-z
y,x,-z
y,x,z
x-y,-y,z
-x,-x+y,z
loop_
_atom_site_type_symbol
_atom_site_label
_atom_site_fract_x
_atom_site_fract_y
_atom_site_fract_z
Si Si1 0.532757 0.786575 0.000000
Si Si2 0.734983 0.281805 0.500000
Si Si3 0.454623 0.592450 0.000000
Si Si4 0.532212 0.532212 0.221575
Si Si5 0.307623 0.000000 0.352118
Si Si6 0.394268 0.200870 0.281632
Si Si7 0.000000 0.637309 0.350655
O O1 0.452150 0.683631 0.000000
O O2 0.495465 0.854287 0.000000
O O3 0.582834 0.798041 0.132350
O O4 0.624735 0.236340 0.500000
O O5 0.770034 0.251540 0.375791
O O6 0.503474 0.587635 0.127321
O O7 0.599130 0.599130 0.326503
O O8 0.444884 0.444884 0.275230
O O9 0.291618 0.000000 0.500000
O O10 0.229552 0.904772 0.300020
O O11 0.359735 0.269435 0.319595
O O12 0.000000 0.618593 0.500000
#
# Coordination Sequence:
#
# PCOD9586550 Si02
#       7
#     6   6   6   6   6  12   6
#     4  12  25  40  59  90 132 174 218 261 318 385
#     4  10  26  40  60  93 134 165 228 260 298 390
#     4  11  23  38  57  88 130 174 216 255 316 382
#     4  11  23  36  62  92 127 165 216 262 316 398
#     4  12  24  43  66  92 127 169 222 275 333 385
#     4  12  26  43  66  96 126 178 216 278 332 390
#     4  12  24  43  66  92 127 169 222 275 333 385
#
# _framework density 18.012668999999999
#
# number of rings (size 3 to 8) (size 9 to 14) (size 15 to 20)
#    0.250    0.250    7.500    0.625    7.000    1.000 
#    0.000    0.000    0.000    0.500    0.000    1.750 
#    0.000    2.000    0.000    0.000    0.000    0.000 
#
# Total GULP energy -267884.335651 kJ/mol
# GULP energy per Si atom -5580.923659 kJ/mol
# Density = 1.797167 g / cm^3
# Si number density = 18.012669 Si / 1000 Ang^3
#
#
#
# Elastic Constant Matrix: (Units=GPa)
#
#
# Indices 1 2 3 4 5 6 
#
# 1 81.1373 20.8679 14.7207 0.0000 0.0000 0.0000
# 2 20.8679 81.1373 14.7207 0.0000 0.0000 0.0000
# 3 14.7207 14.7207 123.7093 0.0000 0.0000 0.0000
# 4 0.0000 0.0000 0.0000 -102.0584 0.0000 0.0000
# 5 0.0000 0.0000 0.0000 0.0000 -102.0584 0.0000
# 6 0.0000 0.0000 0.0000 0.0000 0.0000 30.1347
#
#
#
# Elastic Compliance Matrix: (Units=1/GPa)
#
#
# Indices 1 2 3 4 5 6 
#
# 1 0.013372 -0.003220 -0.001208 0.000000 0.000000 0.000000
# 2 -0.003220 0.013372 -0.001208 0.000000 0.000000 0.000000
# 3 -0.001208 -0.001208 0.008371 0.000000 0.000000 0.000000
# 4 0.000000 0.000000 0.000000 -0.009798 0.000000 0.000000
# 5 0.000000 0.000000 0.000000 0.000000 -0.009798 0.000000
# 6 0.000000 0.000000 0.000000 0.000000 0.000000 0.033184
#
#
# Mechanical properties :
#
#
# Convention : Reuss Voigt Hill
#
# Bulk Modulus (GPa) = 41.94104 42.95582 42.44843
# Shear Modulus (GPa) = 73.61284 -19.08480 27.26402
#
# Velocity S-wave (km/s) = 6.39969 -3.25856 3.89473
# Velocity P-wave (km/s) = 8.82852 3.12117 6.62135
#
# Compressibility (1/GPa) = 0.02384300
#
# Stress axis : x y z
#
# Youngs Moduli (GPa) = 74.78234 74.78234 119.46053
#
# Poissons Ratio (x) = 0.24080 0.14431
# Poissons Ratio (y) = 0.24080 0.14431
# Poissons Ratio (z) = 0.09034 0.09034
#
# Static dielectric constant tensor:
#      x y z
#    x 1.614520 0.000000 0.000000 
#    y 0.000000 1.614520 0.000000 
#    z 0.000000 0.000000 1.720350 
# 
# From -- ./inp_files/1791.got.cif
#   From: 2010.05.17/outbox.cif.g08.bks.cpg/sg189_1_cif.got.tgz:1791.got - 2010.05.20 12:14:34.
