data_PCOD9586804
_publ_section_title
;
Structure prediction by ZEFSAII (Michael W. Deem and Ramdas Pophale) SiO2 
 PCOD9586804
Probable space group: P -6 2 C
;
_chemical_formula_sum "Si O2"
_cell_formula_units_Z 72
_cell_length_a 14.053225
_cell_length_b 14.053225
_cell_length_c 18.399312
_cell_angle_alpha 90.000000
_cell_angle_beta 90.000000
_cell_angle_gamma 120.000000
_cell_volume 3146.909220
_symmetry_space_group_name_H-M "P -6 2 C"
_symmetry_group_IT_number 190
_symmetry_cell_setting 'hexagonal'
loop_
_space_group_symop_operation_xyz
x,y,z
-x+y,-x,1/2-z
-y,x-y,z
x,y,1/2-z
-x+y,-x,z
-y,x-y,1/2-z
x-y,-y,-z
-x,-x+y,-z
y,x,-z
y,x,1/2+z
x-y,-y,1/2+z
-x,-x+y,1/2+z
loop_
_atom_site_type_symbol
_atom_site_label
_atom_site_fract_x
_atom_site_fract_y
_atom_site_fract_z
Si Si1 0.078792 0.594360 0.929491
Si Si2 0.529902 0.715000 0.525605
Si Si3 0.772056 0.855435 0.555457
Si Si4 0.244081 0.927416 0.171779
Si Si5 0.210540 0.550232 0.136257
Si Si6 0.722029 0.997869 0.165117
O O1 0.103342 0.493767 0.926280
O O2 0.202031 0.697770 0.939956
O O3 0.026916 0.631400 0.865243
O O4 0.000000 0.570839 0.000000
O O5 0.658286 0.796958 0.510382
O O6 0.467642 0.665971 0.450231
O O7 0.866210 0.866210 0.500000
O O8 0.754790 0.763851 0.613277
O O9 0.771218 0.949871 0.604782
O O10 0.247599 0.976663 0.250000
O O11 0.335515 0.891247 0.167906
O O12 0.130151 0.813080 0.164851
O O13 0.329080 0.562789 0.155736
O O14 0.751736 0.034921 0.250000
#
# Coordination Sequence:
#
# PCOD9586804 Si02
#       6
#    12  12  12  12  12  12
#     4  11  22  37  67  95 130 180 229 282 341 416
#     4  11  20  37  61  97 130 167 218 279 334 389
#     4  11  23  39  68  96 122 163 224 276 329 401
#     4  11  24  43  63  89 131 174 212 272 341 401
#     4  10  20  35  61  94 131 167 208 255 327 394
#     4  10  25  45  64  91 132 175 219 278 351 412
#
# _framework density 22.879593
#
# number of rings (size 3 to 8) (size 9 to 14) (size 15 to 20)
#    0.333    1.000    3.333    2.333    2.333    0.667 
#    1.000    5.833    0.000    0.000    0.000    0.000 
#    0.000    0.000    0.000    0.000    0.000    0.000 
#
# Total GULP energy -401781.324565 kJ/mol
# GULP energy per Si atom -5580.296175 kJ/mol
# Density = 2.282752 g / cm^3
# Si number density = 22.879593 Si / 1000 Ang^3
#
#
#
# Elastic Constant Matrix: (Units=GPa)
#
#
# Indices 1 2 3 4 5 6 
#
# 1 70.3848 14.1351 13.8729 0.0000 0.0000 0.0000
# 2 14.1351 70.3848 13.8729 0.0000 0.0000 0.0000
# 3 13.8729 13.8729 76.2625 0.0000 0.0000 0.0000
# 4 0.0000 0.0000 0.0000 8.7777 0.0000 0.0000
# 5 0.0000 0.0000 0.0000 0.0000 8.7777 0.0000
# 6 0.0000 0.0000 0.0000 0.0000 0.0000 28.1248
#
#
#
# Elastic Compliance Matrix: (Units=1/GPa)
#
#
# Indices 1 2 3 4 5 6 
#
# 1 0.015180 -0.002597 -0.002289 0.000000 0.000000 0.000000
# 2 -0.002597 0.015180 -0.002289 0.000000 0.000000 0.000000
# 3 -0.002289 -0.002289 0.013945 0.000000 0.000000 0.000000
# 4 0.000000 0.000000 0.000000 0.113924 0.000000 0.000000
# 5 0.000000 0.000000 0.000000 0.000000 0.113924 0.000000
# 6 0.000000 0.000000 0.000000 0.000000 0.000000 0.035556
#
#
# Mechanical properties :
#
#
# Convention : Reuss Voigt Hill
#
# Bulk Modulus (GPa) = 33.38297 33.42156 33.40226
# Shear Modulus (GPa) = 15.05812 20.81281 17.93546
#
# Velocity S-wave (km/s) = 2.56822 3.01934 2.80287
# Velocity P-wave (km/s) = 4.83908 5.17634 5.01055
#
# Compressibility (1/GPa) = 0.02995540
#
# Stress axis : x y z
#
# Youngs Moduli (GPa) = 65.87435 65.87435 71.70838
#
# Poissons Ratio (x) = 0.17111 0.16414
# Poissons Ratio (y) = 0.17111 0.16414
# Poissons Ratio (z) = 0.15078 0.15078
#
# Static dielectric constant tensor:
#      x y z
#    x 1.888360 0.000000 0.000000 
#    y 0.000000 1.888360 0.000000 
#    z 0.000000 0.000000 1.866310 
# 
# From -- ./inp_files/3749.got.cif
#   From: 2010.05.17/outbox.cif.g08.bks.cpg/sg190_2_cif.got.tgz:3749.got - 2010.05.20 12:16:56.
