data_PCOD9586945
_publ_section_title
;
Structure prediction by ZEFSAII (Michael W. Deem and Ramdas Pophale) SiO2 
 PCOD9586945
Probable space group: P -6 2 C
;
_chemical_formula_sum "Si O2"
_cell_formula_units_Z 48
_cell_length_a 13.187198
_cell_length_b 13.187198
_cell_length_c 11.292230
_cell_angle_alpha 90.000000
_cell_angle_beta 90.000000
_cell_angle_gamma 120.000000
_cell_volume 1700.651792
_symmetry_space_group_name_H-M "P -6 2 C"
_symmetry_group_IT_number 190
_symmetry_cell_setting 'hexagonal'
loop_
_space_group_symop_operation_xyz
x,y,z
-x+y,-x,1/2-z
-y,x-y,z
x,y,1/2-z
-x+y,-x,z
-y,x-y,1/2-z
x-y,-y,-z
-x,-x+y,-z
y,x,-z
y,x,1/2+z
x-y,-y,1/2+z
-x,-x+y,1/2+z
loop_
_atom_site_type_symbol
_atom_site_label
_atom_site_fract_x
_atom_site_fract_y
_atom_site_fract_z
Si Si1 0.775997 0.481782 0.750000
Si Si2 0.117016 0.190525 0.618485
Si Si3 0.303137 0.000000 0.000000
Si Si4 0.473813 0.681286 0.888397
Si Si5 0.613281 0.991110 0.376259
O O1 0.786427 0.362968 0.750000
O O2 0.851356 0.563839 0.642877
O O3 0.109201 0.140308 0.750000
O O4 0.124259 0.124259 0.500000
O O5 0.246744 0.305793 0.617466
O O6 0.019289 0.229537 0.604860
O O7 0.315311 0.886605 0.974529
O O8 0.509493 0.690778 0.750000
O O9 0.434483 0.779339 0.904181
O O10 0.575743 0.017928 0.250000
O O11 0.564157 0.000000 0.500000
#
# Coordination Sequence:
#
# PCOD9586945 Si02
#       5
#     6  12   6  12  12
#     4   8  16  32  70 122 160 226 298 348 436 542
#     4  10  23  44  76 123 177 230 297 372 447 542
#     4  12  22  42  88 126 168 234 300 366 466 546
#     4   8  19  44  79 120 178 230 294 372 451 557
#     4   8  16  35  68 108 166 223 273 356 430 510
#
# _framework density 28.22447
#
# number of rings (size 3 to 8) (size 9 to 14) (size 15 to 20)
#    1.500    1.500    0.000    0.750    0.000    2.000 
#    3.000    0.000   11.000    7.500    0.000   10.500 
#    0.000    0.000    0.000    0.000    0.000    0.000 
#
# Total GULP energy -267602.409504 kJ/mol
# GULP energy per Si atom -5575.050198 kJ/mol
# Density = 2.816023 g / cm^3
# Si number density = 28.224470 Si / 1000 Ang^3
#
#
#
# Elastic Constant Matrix: (Units=GPa)
#
#
# Indices 1 2 3 4 5 6 
#
# 1 179.5810 60.1846 70.6769 0.0000 0.0000 0.0000
# 2 60.1846 179.5810 70.6769 0.0000 0.0000 0.0000
# 3 70.6769 70.6769 263.2985 0.0000 0.0000 0.0000
# 4 0.0000 0.0000 0.0000 27.4207 0.0000 0.0000
# 5 0.0000 0.0000 0.0000 0.0000 27.4207 0.0000
# 6 0.0000 0.0000 0.0000 0.0000 0.0000 59.6982
#
#
#
# Elastic Compliance Matrix: (Units=1/GPa)
#
#
# Indices 1 2 3 4 5 6 
#
# 1 0.006665 -0.001710 -0.001330 0.000000 0.000000 0.000000
# 2 -0.001710 0.006665 -0.001330 0.000000 0.000000 0.000000
# 3 -0.001330 -0.001330 0.004512 0.000000 0.000000 0.000000
# 4 0.000000 0.000000 0.000000 0.036469 0.000000 0.000000
# 5 0.000000 0.000000 0.000000 0.000000 0.036469 0.000000
# 6 0.000000 0.000000 0.000000 0.000000 0.000000 0.016751
#
#
# Mechanical properties :
#
#
# Convention : Reuss Voigt Hill
#
# Bulk Modulus (GPa) = 109.87063 113.94859 111.90961
# Shear Modulus (GPa) = 41.90924 50.96940 46.43932
#
# Velocity S-wave (km/s) = 3.85756 4.25415 4.06070
# Velocity P-wave (km/s) = 7.67157 8.03681 7.85631
#
# Compressibility (1/GPa) = 0.00910161
#
# Stress axis : x y z
#
# Youngs Moduli (GPa) = 150.03396 150.03396 221.63093
#
# Poissons Ratio (x) = 0.25660 0.29477
# Poissons Ratio (y) = 0.25660 0.29477
# Poissons Ratio (z) = 0.19955 0.19955
#
# Static dielectric constant tensor:
#      x y z
#    x 2.272680 0.000000 0.000000 
#    y 0.000000 2.272680 0.000000 
#    z 0.000000 0.000000 2.663230 
# 
# From -- ./inp_files/698.got.cif
#   From: 2010.05.17/outbox.cif.g08.bks.cpg/sg190_1_cif.got.tgz:698.got - 2010.05.20 12:16:56.
