data_PCOD9586008
_publ_section_title
;
Structure prediction by ZEFSAII (Michael W. Deem and Ramdas Pophale) SiO2 
 PCOD9586008
Probable space group: P -6 C 2
;
_chemical_formula_sum "Si O2"
_cell_formula_units_Z 76
_cell_length_a 17.073596
_cell_length_b 17.073596
_cell_length_c 15.473131
_cell_angle_alpha 90.000000
_cell_angle_beta 90.000000
_cell_angle_gamma 120.000000
_cell_volume 3906.239216
_symmetry_space_group_name_H-M "P -6 C 2"
_symmetry_group_IT_number 188
_symmetry_cell_setting 'hexagonal'
loop_
_space_group_symop_operation_xyz
x,y,z
-x+y,-x,1/2-z
-y,x-y,z
x,y,1/2-z
-x+y,-x,z
-y,x-y,1/2-z
-y,-x,-z
-x+y,y,-z
x,x-y,-z
-x+y,y,1/2+z
x,x-y,1/2+z
-y,-x,1/2+z
loop_
_atom_site_type_symbol
_atom_site_label
_atom_site_fract_x
_atom_site_fract_y
_atom_site_fract_z
Si Si1 0.742669 0.212590 0.401918
Si Si2 0.496003 0.631822 0.599323
Si Si3 0.191903 0.691666 0.653283
Si Si4 0.931873 0.293196 0.346703
Si Si5 0.537339 0.053862 0.395716
Si Si6 0.659343 0.911536 0.536571
Si Si7 0.666668 0.333334 0.352106
O O1 0.775515 0.224486 0.500000
O O2 0.825601 0.218730 0.349547
O O3 0.641513 0.131433 0.383704
O O4 0.733888 0.300894 0.384693
O O5 0.388291 0.560353 0.586035
O O6 0.485001 0.708434 0.647448
O O7 0.525110 0.564331 0.641336
O O8 0.580093 0.687136 0.532714
O O9 0.172726 0.655244 0.750000
O O10 0.131522 0.734064 0.623943
O O11 0.965857 0.291598 0.250000
O O12 0.934678 0.389697 0.359912
O O13 0.985904 0.282855 0.428789
O O14 0.521366 0.042732 0.500000
O O15 0.699999 0.850000 0.500000
O O16 0.666667 0.333334 0.250000
#
# Coordination Sequence:
#
# PCOD9586008 Si02
#       7
#    12  12  12  12  12  12   4
#     4  12  22  36  57  81 114 164 219 269 321 390
#     4  11  21  36  55  78 109 157 208 254 305 371
#     4  11  21  32  49  76 107 143 194 254 306 353
#     4  12  24  38  58  85 118 157 211 276 328 372
#     4  12  21  38  60  81 116 164 218 259 316 375
#     4  10  21  37  56  75 104 149 205 253 307 377
#     4  12  22  32  46  78 115 155 220 288 328 365
#
# _framework density 19.456053000000001
#
# number of rings (size 3 to 8) (size 9 to 14) (size 15 to 20)
#    0.000    0.632    6.316    2.684    0.000    1.263 
#    0.000    3.947    0.000    0.000    0.000    0.000 
#    0.000    0.000    0.000   66.316    0.000   52.895 
#
# Total GULP energy -423086.016069 kJ/mol
# GULP energy per Si atom -5566.921264 kJ/mol
# Density = 1.941177 g / cm^3
# Si number density = 19.456053 Si / 1000 Ang^3
#
#
#
# Elastic Constant Matrix: (Units=GPa)
#
#
# Indices 1 2 3 4 5 6 
#
# 1 87.8467 27.0003 13.5254 0.0000 -0.0001 -0.0001
# 2 27.0003 87.8460 13.5257 0.0002 0.0001 -0.0002
# 3 13.5254 13.5257 90.2647 0.0000 0.0000 0.0001
# 4 0.0000 0.0002 0.0000 18.5140 0.0001 -0.0001
# 5 -0.0001 0.0001 0.0000 0.0001 18.5139 -0.0001
# 6 -0.0001 -0.0002 0.0001 -0.0001 -0.0001 30.4227
#
#
#
# Elastic Compliance Matrix: (Units=1/GPa)
#
#
# Indices 1 2 3 4 5 6 
#
# 1 0.012730 -0.003705 -0.001352 0.000000 0.000000 0.000000
# 2 -0.003705 0.012730 -0.001352 0.000000 0.000000 0.000000
# 3 -0.001352 -0.001352 0.011484 0.000000 0.000000 0.000000
# 4 0.000000 0.000000 0.000000 0.054013 0.000000 0.000000
# 5 0.000000 0.000000 0.000000 0.000000 0.054013 0.000000
# 6 0.000000 0.000000 0.000000 0.000000 0.000000 0.032870
#
#
# Mechanical properties :
#
#
# Convention : Reuss Voigt Hill
#
# Bulk Modulus (GPa) = 41.44964 41.56224 41.50594
# Shear Modulus (GPa) = 25.16331 27.61720 26.39026
#
# Velocity S-wave (km/s) = 3.60021 3.77167 3.68693
# Velocity P-wave (km/s) = 6.21550 6.35419 6.28523
#
# Compressibility (1/GPa) = 0.02412566
#
# Stress axis : x y z
#
# Youngs Moduli (GPa) = 78.55272 78.55195 87.07884
#
# Poissons Ratio (x) = 0.29100 0.11777
# Poissons Ratio (y) = 0.29100 0.11777
# Poissons Ratio (z) = 0.10624 0.10624
#
# Static dielectric constant tensor:
#      x y z
#    x 1.737680 0.000000 0.000000 
#    y 0.000000 1.737680 0.000000 
#    z 0.000000 0.000000 1.623640 
# 
# From -- ./inp_files/2530.got.cif
#   From: 2010.05.17/outbox.cif.g08.bks.cpg/sg188_2_cif.got.tgz:2530.got - 2010.05.20 12:11:46.
