data_PCOD9586815
_publ_section_title
;
Structure prediction by ZEFSAII (Michael W. Deem and Ramdas Pophale) SiO2 
 PCOD9586815
Probable space group: P -6 2 C
;
_chemical_formula_sum "Si O2"
_cell_formula_units_Z 36
_cell_length_a 11.512176
_cell_length_b 11.512176
_cell_length_c 16.999817
_cell_angle_alpha 90.000000
_cell_angle_beta 90.000000
_cell_angle_gamma 120.000000
_cell_volume 1951.145781
_symmetry_space_group_name_H-M "P -6 2 C"
_symmetry_group_IT_number 190
_symmetry_cell_setting 'hexagonal'
loop_
_space_group_symop_operation_xyz
x,y,z
-x+y,-x,1/2-z
-y,x-y,z
x,y,1/2-z
-x+y,-x,z
-y,x-y,1/2-z
x-y,-y,-z
-x,-x+y,-z
y,x,-z
y,x,1/2+z
x-y,-y,1/2+z
-x,-x+y,1/2+z
loop_
_atom_site_type_symbol
_atom_site_label
_atom_site_fract_x
_atom_site_fract_y
_atom_site_fract_z
Si Si1 0.272437 0.777130 0.976868
Si Si2 0.237708 0.140407 0.575606
Si Si3 0.862806 0.155973 0.342062
O O1 0.190282 0.614983 0.984990
O O2 0.249237 0.824282 0.892515
O O3 0.213895 0.837366 0.039915
O O4 0.161368 0.161368 0.500000
O O5 0.247924 0.251378 0.636350
O O6 0.171474 0.000420 0.621795
O O7 0.875009 0.181714 0.250000
#
# Coordination Sequence:
#
# PCOD9586815 Si02
#       3
#    12  12  12
#     4   9  21  39  57  79 109 147 196 227 256 319
#     4  10  20  36  59  84 109 146 187 225 273 330
#     4  11  22  35  57  87 117 141 172 232 295 335
#
# _framework density 18.450697000000002
#
# number of rings (size 3 to 8) (size 9 to 14) (size 15 to 20)
#    0.667    1.333    0.000    5.667    0.000   12.000 
#    0.000    0.000    0.000    6.000    0.000    0.000 
#    0.000    0.000    0.000    0.000    0.000    0.000 
#
# Total GULP energy -200455.046969 kJ/mol
# GULP energy per Si atom -5568.195749 kJ/mol
# Density = 1.840870 g / cm^3
# Si number density = 18.450697 Si / 1000 Ang^3
#
#
#
# Elastic Constant Matrix: (Units=GPa)
#
#
# Indices 1 2 3 4 5 6 
#
# 1 56.0262 -2.8487 30.7265 0.0000 0.0000 0.0000
# 2 -2.8487 56.0262 30.7265 0.0000 0.0000 0.0000
# 3 30.7265 30.7265 105.5377 0.0000 0.0000 0.0000
# 4 0.0000 0.0000 0.0000 11.1290 0.0000 0.0000
# 5 0.0000 0.0000 0.0000 0.0000 11.1290 0.0000
# 6 0.0000 0.0000 0.0000 0.0000 0.0000 29.4374
#
#
#
# Elastic Compliance Matrix: (Units=1/GPa)
#
#
# Indices 1 2 3 4 5 6 
#
# 1 0.022663 0.005677 -0.008251 0.000000 0.000000 0.000000
# 2 0.005677 0.022663 -0.008251 0.000000 0.000000 0.000000
# 3 -0.008251 -0.008251 0.014280 0.000000 0.000000 0.000000
# 4 0.000000 0.000000 0.000000 0.089856 0.000000 0.000000
# 5 0.000000 0.000000 0.000000 0.000000 0.089856 0.000000
# 6 0.000000 0.000000 0.000000 0.000000 0.000000 0.033970
#
#
# Mechanical properties :
#
#
# Convention : Reuss Voigt Hill
#
# Bulk Modulus (GPa) = 26.34648 37.19984 31.77316
# Shear Modulus (GPa) = 16.25554 20.93812 18.59683
#
# Velocity S-wave (km/s) = 2.97143 3.37236 3.17822
# Velocity P-wave (km/s) = 5.10714 5.94720 5.54311
#
# Compressibility (1/GPa) = 0.03795573
#
# Stress axis : x y z
#
# Youngs Moduli (GPa) = 44.12567 44.12567 70.02959
#
# Poissons Ratio (x) = -0.25052 0.57781
# Poissons Ratio (y) = -0.25052 0.57781
# Poissons Ratio (z) = 0.36408 0.36408
#
# Static dielectric constant tensor:
#      x y z
#    x 1.667210 0.000000 0.000000 
#    y 0.000000 1.667210 0.000000 
#    z 0.000000 0.000000 1.626640 
# 
# From -- ./inp_files/2353.got.cif
#   From: 2010.05.17/outbox.cif.g08.bks.cpg/sg190_2_cif.got.tgz:2353.got - 2010.05.20 12:16:56.
