data_PCOD9586466
_publ_section_title
;
Structure prediction by ZEFSAII (Michael W. Deem and Ramdas Pophale) SiO2 
 PCOD9586466
Probable space group: P -6 2 M
;
_chemical_formula_sum "Si O2"
_cell_formula_units_Z 43
_cell_length_a 13.967780
_cell_length_b 13.967780
_cell_length_c 12.434566
_cell_angle_alpha 90.000000
_cell_angle_beta 90.000000
_cell_angle_gamma 120.000000
_cell_volume 2100.951542
_symmetry_space_group_name_H-M "P -6 2 M"
_symmetry_group_IT_number 189
_symmetry_cell_setting 'hexagonal'
loop_
_space_group_symop_operation_xyz
x,y,z
-x+y,-x,-z
-y,x-y,z
x,y,-z
-x+y,-x,z
-y,x-y,-z
x-y,-y,-z
-x,-x+y,-z
y,x,-z
y,x,z
x-y,-y,z
-x,-x+y,z
loop_
_atom_site_type_symbol
_atom_site_label
_atom_site_fract_x
_atom_site_fract_y
_atom_site_fract_z
Si Si1 0.173477 0.400748 0.669146
Si Si2 0.000000 0.244370 0.500000
Si Si3 0.666668 0.333335 0.127569
Si Si4 0.739457 0.869427 0.122840
Si Si5 0.537905 0.413159 0.723512
O O1 0.097215 0.299879 0.592974
O O2 0.155048 0.354095 0.790475
O O3 0.304806 0.464553 0.652074
O O4 0.135255 0.491821 0.660749
O O5 0.787255 0.411329 0.179688
O O6 0.666667 0.333334 0.000000
O O7 0.829362 0.829362 0.129453
O O8 0.797467 0.000000 0.145332
O O9 0.697230 0.849533 0.000000
O O10 0.463647 0.463647 0.761980
#
# Coordination Sequence:
#
# PCOD9586466 Si02
#       5
#    12   3   4  12  12
#     4  11  23  42  65  95 131 164 219 269 328 386
#     4  12  24  44  68  88 128 164 212 282 334 368
#     4   9  21  36  60 100 137 175 216 267 334 386
#     4  10  20  38  66  97 130 174 222 270 325 396
#     4  10  21  41  63  88 128 173 218 268 312 393
#
# _framework density 20.466918
#
# number of rings (size 3 to 8) (size 9 to 14) (size 15 to 20)
#    0.000    1.674    2.791    1.674    0.000    7.256 
#    0.000    2.093    0.000    0.000    0.000    0.000 
#    0.000    0.000    0.000    0.000    0.000    0.000 
#
# Total GULP energy -239379.797634 kJ/mol
# GULP energy per Si atom -5566.972038 kJ/mol
# Density = 2.042033 g / cm^3
# Si number density = 20.466918 Si / 1000 Ang^3
#
#
#
# Elastic Constant Matrix: (Units=GPa)
#
#
# Indices 1 2 3 4 5 6 
#
# 1 75.3591 49.2135 14.0475 0.0012 0.0003 0.0000
# 2 49.2135 75.3574 14.0471 0.0002 0.0002 -0.0001
# 3 14.0475 14.0471 49.6787 0.0001 0.0001 -0.0001
# 4 0.0012 0.0002 0.0001 -14.5376 -0.0002 0.0000
# 5 0.0003 0.0002 0.0001 -0.0002 -14.5408 -0.0005
# 6 0.0000 -0.0001 -0.0001 0.0000 -0.0005 13.0721
#
#
#
# Elastic Compliance Matrix: (Units=1/GPa)
#
#
# Indices 1 2 3 4 5 6 
#
# 1 0.023411 -0.014837 -0.002425 0.000002 0.000000 0.000000
# 2 -0.014837 0.023412 -0.002424 -0.000001 0.000000 0.000000
# 3 -0.002425 -0.002424 0.021500 0.000000 0.000000 0.000000
# 4 0.000002 -0.000001 0.000000 -0.068787 0.000001 0.000000
# 5 0.000000 0.000000 0.000000 0.000001 -0.068772 -0.000002
# 6 0.000000 0.000000 0.000000 0.000000 -0.000002 0.076499
#
#
# Mechanical properties :
#
#
# Convention : Reuss Voigt Hill
#
# Bulk Modulus (GPa) = 34.54102 39.44571 36.99336
# Shear Modulus (GPa) = 88.83194 5.00453 46.91823
#
# Velocity S-wave (km/s) = 6.59522 1.56540 4.79309
# Velocity P-wave (km/s) = 8.65500 4.75206 6.98180
#
# Compressibility (1/GPa) = 0.02895108
#
# Stress axis : x y z
#
# Youngs Moduli (GPa) = 42.71457 42.71369 46.51059
#
# Poissons Ratio (x) = 0.63375 0.11277
# Poissons Ratio (y) = 0.63376 0.11276
# Poissons Ratio (z) = 0.10356 0.10356
#
# Static dielectric constant tensor:
#      x y z
#    x 1.746050 0.000000 0.000000 
#    y 0.000000 1.746050 0.000000 
#    z 0.000000 0.000000 1.718160 
# 
# From -- ./inp_files/1669.got.cif
#   From: 2010.05.17/outbox.cif.g08.bks.cpg/sg189_1_cif.got.tgz:1669.got - 2010.05.20 12:14:34.
