data_PCOD9586199
_publ_section_title
;
Structure prediction by ZEFSAII (Michael W. Deem and Ramdas Pophale) SiO2 
 PCOD9586199
Probable space group: P -6 2 M
;
_chemical_formula_sum "Si O2"
_cell_formula_units_Z 46
_cell_length_a 14.317158
_cell_length_b 14.317158
_cell_length_c 13.645996
_cell_angle_alpha 90.000000
_cell_angle_beta 90.000000
_cell_angle_gamma 120.000000
_cell_volume 2422.420353
_symmetry_space_group_name_H-M "P -6 2 M"
_symmetry_group_IT_number 189
_symmetry_cell_setting 'hexagonal'
loop_
_space_group_symop_operation_xyz
x,y,z
-x+y,-x,-z
-y,x-y,z
x,y,-z
-x+y,-x,z
-y,x-y,-z
x-y,-y,-z
-x,-x+y,-z
y,x,-z
y,x,z
x-y,-y,z
-x,-x+y,z
loop_
_atom_site_type_symbol
_atom_site_label
_atom_site_fract_x
_atom_site_fract_y
_atom_site_fract_z
Si Si1 0.545891 0.670805 0.202588
Si Si2 0.556075 0.430786 0.608451
Si Si3 0.126183 0.760697 0.700011
Si Si4 0.754229 0.878301 0.500000
Si Si5 0.333333 0.666666 0.116732
O O1 0.597152 0.597152 0.167460
O O2 0.515859 0.640381 0.317081
O O3 0.632693 0.797534 0.212982
O O4 0.437044 0.656151 0.151872
O O5 0.594578 0.422458 0.500000
O O6 0.468547 0.468547 0.594475
O O7 0.489280 0.321784 0.669032
O O8 0.132174 0.821437 0.598929
O O9 0.000000 0.693563 0.729197
O O10 0.790978 0.790978 0.500000
O O11 0.854414 0.000000 0.500000
O O12 0.333334 0.666668 0.000000
#
# Coordination Sequence:
#
# PCOD9586199 Si02
#       5
#    12  12  12   6   4
#     4  11  23  40  62  88 118 158 203 247 302 367
#     4   9  17  30  50  80 118 157 196 238 285 342
#     4  10  19  33  53  80 117 157 198 246 294 343
#     4  10  19  30  46  74 116 166 211 248 286 338
#     4  12  27  45  64  89 118 150 195 258 319 365
#
# _framework density 18.989272
#
# number of rings (size 3 to 8) (size 9 to 14) (size 15 to 20)
#    0.000    1.826    3.913    0.913    1.826    0.522 
#    0.000    0.000    0.000    0.522    0.000    0.000 
#    0.000    0.000    0.000    0.000    0.000    0.000 
#
# Total GULP energy -256077.306671 kJ/mol
# GULP energy per Si atom -5566.897971 kJ/mol
# Density = 1.894605 g / cm^3
# Si number density = 18.989272 Si / 1000 Ang^3
#
#
#
# Elastic Constant Matrix: (Units=GPa)
#
#
# Indices 1 2 3 4 5 6 
#
# 1 83.2519 36.1340 29.3636 0.0000 0.0000 0.0000
# 2 36.1340 83.2522 29.3638 0.0000 0.0000 0.0000
# 3 29.3636 29.3638 59.6927 0.0000 0.0000 0.0000
# 4 0.0000 0.0000 0.0000 6.9860 0.0000 0.0000
# 5 0.0000 0.0000 0.0000 0.0000 6.9859 0.0000
# 6 0.0000 0.0000 0.0000 0.0000 0.0000 23.5590
#
#
#
# Elastic Compliance Matrix: (Units=1/GPa)
#
#
# Indices 1 2 3 4 5 6 
#
# 1 0.016137 -0.005087 -0.005436 0.000000 0.000000 0.000000
# 2 -0.005087 0.016137 -0.005436 0.000000 0.000000 0.000000
# 3 -0.005436 -0.005436 0.022100 0.000000 0.000000 0.000000
# 4 0.000000 0.000000 0.000000 0.143143 -0.000001 0.000000
# 5 0.000000 0.000000 0.000000 -0.000001 0.143146 0.000000
# 6 0.000000 0.000000 0.000000 0.000000 0.000000 0.042447
#
#
# Mechanical properties :
#
#
# Convention : Reuss Voigt Hill
#
# Bulk Modulus (GPa) = 44.52828 46.21329 45.37078
# Shear Modulus (GPa) = 11.83400 16.26188 14.04794
#
# Velocity S-wave (km/s) = 2.49909 2.92956 2.72285
# Velocity P-wave (km/s) = 5.64158 5.98602 5.81635
#
# Compressibility (1/GPa) = 0.02245764
#
# Stress axis : x y z
#
# Youngs Moduli (GPa) = 61.97060 61.97069 45.24842
#
# Poissons Ratio (x) = 0.31522 0.24595
# Poissons Ratio (y) = 0.31522 0.24596
# Poissons Ratio (z) = 0.33685 0.33685
#
# Static dielectric constant tensor:
#      x y z
#    x 1.734940 0.000000 0.000000 
#    y 0.000000 1.734940 0.000000 
#    z 0.000000 0.000000 1.687500 
# 
# From -- ./inp_files/1699.got.cif
#   From: 2010.05.17/outbox.cif.g08.bks.cpg/sg189_1_cif.got.tgz:1699.got - 2010.05.20 12:14:34.
