data_PCOD9586559
_publ_section_title
;
Structure prediction by ZEFSAII (Michael W. Deem and Ramdas Pophale) SiO2 
 PCOD9586559
Probable space group: P -6 2 M
;
_chemical_formula_sum "Si O2"
_cell_formula_units_Z 60
_cell_length_a 14.410145
_cell_length_b 14.410145
_cell_length_c 16.897366
_cell_angle_alpha 90.000000
_cell_angle_beta 90.000000
_cell_angle_gamma 120.000000
_cell_volume 3038.689635
_symmetry_space_group_name_H-M "P -6 2 M"
_symmetry_group_IT_number 189
_symmetry_cell_setting 'hexagonal'
loop_
_space_group_symop_operation_xyz
x,y,z
-x+y,-x,-z
-y,x-y,z
x,y,-z
-x+y,-x,z
-y,x-y,-z
x-y,-y,-z
-x,-x+y,-z
y,x,-z
y,x,z
x-y,-y,z
-x,-x+y,z
loop_
_atom_site_type_symbol
_atom_site_label
_atom_site_fract_x
_atom_site_fract_y
_atom_site_fract_z
Si Si1 0.748996 0.873496 0.725262
Si Si2 0.126253 0.599428 0.656533
Si Si3 0.823904 0.245455 0.590202
Si Si4 0.808340 0.535383 0.816068
Si Si5 0.405656 0.878194 0.091689
O O1 0.815635 0.815635 0.747787
O O2 0.682426 0.817766 0.645171
O O3 0.657363 0.853954 0.789050
O O4 0.824938 0.000000 0.713728
O O5 0.176494 0.694571 0.592999
O O6 0.142898 0.502123 0.630696
O O7 0.184327 0.659741 0.737369
O O8 0.000000 0.553718 0.667482
O O9 0.861710 0.260429 0.500000
O O10 0.691195 0.491247 0.852158
O O11 0.872013 0.509378 0.881680
O O12 0.433518 0.000000 0.101973
O O13 0.380278 0.847404 0.000000
#
# Coordination Sequence:
#
# PCOD9586559 Si02
#       5
#    12  12  12  12  12
#     4  11  24  41  62  86 114 155 207 260 303 340
#     4  11  23  38  59  86 117 155 197 242 289 347
#     4  11  23  39  59  86 119 155 195 241 301 365
#     4  11  21  39  61  86 120 157 195 233 285 353
#     4  11  23  38  60  92 126 156 187 230 287 352
#
# _framework density 19.745353000000001
#
# number of rings (size 3 to 8) (size 9 to 14) (size 15 to 20)
#    0.000    1.000    0.000    9.400    0.000    5.600 
#    0.000    0.000    0.000    1.200    0.000    0.000 
#    0.000    9.600    0.000    0.000    0.000    0.000 
#
# Total GULP energy -335413.116969 kJ/mol
# GULP energy per Si atom -5590.218616 kJ/mol
# Density = 1.970041 g / cm^3
# Si number density = 19.745353 Si / 1000 Ang^3
#
#
#
# Elastic Constant Matrix: (Units=GPa)
#
#
# Indices 1 2 3 4 5 6 
#
# 1 112.5864 61.4924 50.8251 0.0000 0.0000 0.0000
# 2 61.4924 112.5864 50.8251 0.0000 0.0000 0.0000
# 3 50.8251 50.8251 104.3813 0.0000 0.0000 0.0000
# 4 0.0000 0.0000 0.0000 9.5190 0.0000 0.0000
# 5 0.0000 0.0000 0.0000 0.0000 9.5190 0.0000
# 6 0.0000 0.0000 0.0000 0.0000 0.0000 25.5470
#
#
#
# Elastic Compliance Matrix: (Units=1/GPa)
#
#
# Indices 1 2 3 4 5 6 
#
# 1 0.013799 -0.005773 -0.003908 0.000000 0.000000 0.000000
# 2 -0.005773 0.013799 -0.003908 0.000000 0.000000 0.000000
# 3 -0.003908 -0.003908 0.013386 0.000000 0.000000 0.000000
# 4 0.000000 0.000000 0.000000 0.105053 0.000000 0.000000
# 5 0.000000 0.000000 0.000000 0.000000 0.105053 0.000000
# 6 0.000000 0.000000 0.000000 0.000000 0.000000 0.039144
#
#
# Mechanical properties :
#
#
# Convention : Reuss Voigt Hill
#
# Bulk Modulus (GPa) = 72.43018 72.87102 72.65060
# Shear Modulus (GPa) = 15.52719 20.01110 17.76914
#
# Velocity S-wave (km/s) = 2.80727 3.18694 3.00311
# Velocity P-wave (km/s) = 6.87528 7.10828 6.99275
#
# Compressibility (1/GPa) = 0.01380640
#
# Stress axis : x y z
#
# Youngs Moduli (GPa) = 72.46773 72.46773 74.70292
#
# Poissons Ratio (x) = 0.41832 0.29197
# Poissons Ratio (y) = 0.41832 0.29197
# Poissons Ratio (z) = 0.28323 0.28323
#
# Static dielectric constant tensor:
#      x y z
#    x 1.695230 0.000000 0.000000 
#    y 0.000000 1.695230 0.000000 
#    z 0.000000 0.000000 1.698250 
# 
# From -- ./inp_files/2531.got.cif
#   From: 2010.05.17/outbox.cif.g08.bks.cpg/sg189_2_cif.got.tgz:2531.got - 2010.05.20 12:14:34.
