data_PCOD9586262
_publ_section_title
;
Structure prediction by ZEFSAII (Michael W. Deem and Ramdas Pophale) SiO2 
 PCOD9586262
Probable space group: P -6 2 M
;
_chemical_formula_sum "Si O2"
_cell_formula_units_Z 60
_cell_length_a 21.011583
_cell_length_b 21.011583
_cell_length_c 8.978138
_cell_angle_alpha 90.000000
_cell_angle_beta 90.000000
_cell_angle_gamma 120.000000
_cell_volume 3432.688969
_symmetry_space_group_name_H-M "P -6 2 M"
_symmetry_group_IT_number 189
_symmetry_cell_setting 'hexagonal'
loop_
_space_group_symop_operation_xyz
x,y,z
-x+y,-x,-z
-y,x-y,z
x,y,-z
-x+y,-x,z
-y,x-y,-z
x-y,-y,-z
-x,-x+y,-z
y,x,-z
y,x,z
x-y,-y,z
-x,-x+y,z
loop_
_atom_site_type_symbol
_atom_site_label
_atom_site_fract_x
_atom_site_fract_y
_atom_site_fract_z
Si Si1 0.648935 0.792637 0.176973
Si Si2 0.917885 0.917885 0.823126
Si Si3 0.812287 0.454394 0.322573
Si Si4 0.209576 0.521382 0.822259
Si Si5 0.709721 0.085426 0.322367
Si Si6 0.000000 0.219557 0.677168
O O1 0.565795 0.727183 0.207785
O O2 0.651358 0.866303 0.234636
O O3 0.709947 0.781790 0.258552
O O4 0.660897 0.796420 0.000000
O O5 0.853550 0.853550 0.732549
O O6 0.931221 0.000000 0.792926
O O7 0.904033 0.904033 0.000000
O O8 0.803050 0.442902 0.500000
O O9 0.740192 0.451307 0.252312
O O10 0.823606 0.392070 0.247154
O O11 0.878253 0.537106 0.294416
O O12 0.218147 0.531900 0.000000
O O13 0.725293 0.092440 0.500000
O O14 0.668459 0.000000 0.282528
O O15 0.000000 0.221700 0.500000
#
# Coordination Sequence:
#
# PCOD9586262 Si02
#       6
#    12   6  12  12  12   6
#     4  10  22  39  58  79 110 148 188 230 273 329
#     4   8  18  38  62  86 112 141 176 221 268 320
#     4  10  19  32  54  80 110 144 182 228 280 332
#     4  10  20  35  54  78 109 145 188 233 278 325
#     4   9  19  37  58  82 112 143 182 229 276 328
#     4  12  24  38  60  86 114 149 184 225 278 332
#
# _framework density 17.479008
#
# number of rings (size 3 to 8) (size 9 to 14) (size 15 to 20)
#    0.200    2.000    0.000    3.100    0.000    4.800 
#    1.800    0.000    0.000    0.000    0.000    0.000 
#    0.000    0.000    0.000    0.000    0.000    0.000 
#
# Total GULP energy -334887.980529 kJ/mol
# GULP energy per Si atom -5581.466342 kJ/mol
# Density = 1.743923 g / cm^3
# Si number density = 17.479008 Si / 1000 Ang^3
#
#
#
# Elastic Constant Matrix: (Units=GPa)
#
#
# Indices 1 2 3 4 5 6 
#
# 1 123.5157 96.1524 86.2319 0.0000 0.0000 0.0000
# 2 96.1524 123.5157 86.2319 0.0000 0.0000 0.0000
# 3 86.2319 86.2319 104.7096 0.0000 0.0000 0.0000
# 4 0.0000 0.0000 0.0000 27.7873 0.0000 0.0000
# 5 0.0000 0.0000 0.0000 0.0000 27.7873 0.0000
# 6 0.0000 0.0000 0.0000 0.0000 0.0000 13.6817
#
#
#
# Elastic Compliance Matrix: (Units=1/GPa)
#
#
# Indices 1 2 3 4 5 6 
#
# 1 0.024713 -0.011832 -0.010607 0.000000 0.000000 0.000000
# 2 -0.011832 0.024713 -0.010607 0.000000 0.000000 0.000000
# 3 -0.010607 -0.010607 0.027021 0.000000 0.000000 0.000000
# 4 0.000000 0.000000 0.000000 0.035988 0.000000 0.000000
# 5 0.000000 0.000000 0.000000 0.000000 0.035988 0.000000
# 6 0.000000 0.000000 0.000000 0.000000 0.000000 0.073090
#
#
# Mechanical properties :
#
#
# Convention : Reuss Voigt Hill
#
# Bulk Modulus (GPa) = 96.59584 98.77481 97.68533
# Shear Modulus (GPa) = 17.17875 19.39292 18.28583
#
# Velocity S-wave (km/s) = 3.13840 3.33453 3.23795
# Velocity P-wave (km/s) = 8.27748 8.45332 8.36586
#
# Compressibility (1/GPa) = 0.01035241
#
# Stress axis : x y z
#
# Youngs Moduli (GPa) = 40.46500 40.46500 37.00807
#
# Poissons Ratio (x) = 0.47880 0.39256
# Poissons Ratio (y) = 0.47880 0.39256
# Poissons Ratio (z) = 0.42922 0.42922
#
# Static dielectric constant tensor:
#      x y z
#    x 1.577070 0.000000 0.000000 
#    y 0.000000 1.577070 0.000000 
#    z 0.000000 0.000000 1.578080 
# 
# From -- ./inp_files/940.got.cif
#   From: 2010.05.17/outbox.cif.g08.bks.cpg/sg189_1_cif.got.tgz:940.got - 2010.05.20 12:14:34.
