data_PCOD9586639
_publ_section_title
;
Structure prediction by ZEFSAII (Michael W. Deem and Ramdas Pophale) SiO2 
 PCOD9586639
Probable space group: P -6 2 C
;
_chemical_formula_sum "Si O2"
_cell_formula_units_Z 54
_cell_length_a 12.669910
_cell_length_b 12.669910
_cell_length_c 22.846069
_cell_angle_alpha 90.000000
_cell_angle_beta 90.000000
_cell_angle_gamma 120.000000
_cell_volume 3176.063491
_symmetry_space_group_name_H-M "P -6 2 C"
_symmetry_group_IT_number 190
_symmetry_cell_setting 'hexagonal'
loop_
_space_group_symop_operation_xyz
x,y,z
-x+y,-x,1/2-z
-y,x-y,z
x,y,1/2-z
-x+y,-x,z
-y,x-y,1/2-z
x-y,-y,-z
-x,-x+y,-z
y,x,-z
y,x,1/2+z
x-y,-y,1/2+z
-x,-x+y,1/2+z
loop_
_atom_site_type_symbol
_atom_site_label
_atom_site_fract_x
_atom_site_fract_y
_atom_site_fract_z
Si Si1 0.858669 0.861467 0.750000
Si Si2 0.666668 0.333334 0.432044
Si Si3 0.143630 0.747541 0.070917
Si Si4 0.857358 0.595783 0.070681
Si Si5 0.234485 0.010803 0.122602
Si Si6 0.000000 0.000000 0.430800
Si Si7 0.666667 0.333334 0.926732
O O1 0.788972 0.793592 0.808283
O O2 0.887680 0.002333 0.750000
O O3 0.661082 0.208172 0.414620
O O4 0.666668 0.333334 0.502633
O O5 0.211195 0.882765 0.097768
O O6 0.218384 0.681369 0.090275
O O7 0.000290 0.672747 0.087185
O O8 0.148316 0.757293 0.999890
O O9 0.777118 0.645846 0.101643
O O10 0.128745 0.028793 0.093443
O O11 0.000000 0.000000 0.500000
#
# Coordination Sequence:
#
# PCOD9586639 Si02
#       7
#     6   4  12  12  12   4   4
#     4  10  18  34  50  74 112 146 178 218 276 320
#     4   9  21  36  51  76 116 151 177 213 268 341
#     4  10  20  33  52  80 111 144 178 219 272 325
#     4  10  20  33  52  80 111 144 178 219 272 325
#     4  12  20  32  53  80 110 141 178 227 269 315
#     4  12  18  28  47  82 114 129 163 215 268 309
#     4   9  21  36  51  76 116 151 177 213 268 341
#
# _framework density 17.002178000000001
#
# number of rings (size 3 to 8) (size 9 to 14) (size 15 to 20)
#    0.222    1.333    4.444    2.000    3.111    0.000 
#    0.000    0.000    0.000    2.667    0.000    0.000 
#    0.000    0.000    0.000    0.000    0.000    0.000 
#
# Total GULP energy -301024.415183 kJ/mol
# GULP energy per Si atom -5574.526207 kJ/mol
# Density = 1.696348 g / cm^3
# Si number density = 17.002178 Si / 1000 Ang^3
#
#
#
# Elastic Constant Matrix: (Units=GPa)
#
#
# Indices 1 2 3 4 5 6 
#
# 1 90.8806 47.7229 17.0367 -0.0001 -0.0001 0.0002
# 2 47.7229 90.8813 17.0367 -0.0001 0.0000 0.0005
# 3 17.0367 17.0367 70.3522 -0.0001 0.0000 0.0001
# 4 -0.0001 -0.0001 -0.0001 3.6153 -0.0001 0.0000
# 5 -0.0001 0.0000 0.0000 -0.0001 3.6161 0.0000
# 6 0.0002 0.0005 0.0001 0.0000 0.0000 21.5789
#
#
#
# Elastic Compliance Matrix: (Units=1/GPa)
#
#
# Indices 1 2 3 4 5 6 
#
# 1 0.015421 -0.007750 -0.001858 0.000000 0.000000 0.000000
# 2 -0.007750 0.015421 -0.001858 0.000000 0.000000 0.000000
# 3 -0.001858 -0.001858 0.015114 0.000000 0.000000 0.000000
# 4 0.000000 0.000000 0.000000 0.276605 0.000005 0.000000
# 5 0.000000 0.000000 0.000000 0.000005 0.276543 0.000000
# 6 0.000000 0.000000 0.000000 0.000000 0.000000 0.046341
#
#
# Mechanical properties :
#
#
# Convention : Reuss Voigt Hill
#
# Bulk Modulus (GPa) = 43.42927 46.18964 44.80945
# Shear Modulus (GPa) = 7.39589 17.11659 12.25624
#
# Velocity S-wave (km/s) = 2.08792 3.17634 2.68780
# Velocity P-wave (km/s) = 5.60458 6.37794 6.00372
#
# Compressibility (1/GPa) = 0.02302595
#
# Stress axis : x y z
#
# Youngs Moduli (GPa) = 64.84608 64.84660 66.16406
#
# Poissons Ratio (x) = 0.50253 0.12292
# Poissons Ratio (y) = 0.50253 0.12292
# Poissons Ratio (z) = 0.12047 0.12047
#
# Static dielectric constant tensor:
#      x y z
#    x 1.568590 0.000000 0.000000 
#    y 0.000000 1.568590 0.000000 
#    z 0.000000 0.000000 1.552300 
# 
# From -- ./inp_files/4873.got.cif
#   From: 2010.05.17/outbox.cif.g08.bks.cpg/sg190_3_cif.got.tgz:4873.got - 2010.05.20 12:16:56.
