data_PCOD9586456
_publ_section_title
;
Structure prediction by ZEFSAII (Michael W. Deem and Ramdas Pophale) SiO2 
 PCOD9586456
Probable space group: P -6 2 M
;
_chemical_formula_sum "Si O2"
_cell_formula_units_Z 60
_cell_length_a 15.702657
_cell_length_b 15.702657
_cell_length_c 13.640562
_cell_angle_alpha 90.000000
_cell_angle_beta 90.000000
_cell_angle_gamma 120.000000
_cell_volume 2912.790062
_symmetry_space_group_name_H-M "P -6 2 M"
_symmetry_group_IT_number 189
_symmetry_cell_setting 'hexagonal'
loop_
_space_group_symop_operation_xyz
x,y,z
-x+y,-x,-z
-y,x-y,z
x,y,-z
-x+y,-x,z
-y,x-y,-z
x-y,-y,-z
-x,-x+y,-z
y,x,-z
y,x,z
x-y,-y,z
-x,-x+y,z
loop_
_atom_site_type_symbol
_atom_site_label
_atom_site_fract_x
_atom_site_fract_y
_atom_site_fract_z
Si Si1 0.743471 0.455613 0.618694
Si Si2 0.792086 0.114063 0.385491
Si Si3 0.581769 0.470705 0.880232
Si Si4 0.224188 0.110945 0.803313
Si Si5 0.440547 0.247204 0.882049
O O1 0.627468 0.399550 0.645893
O O2 0.747464 0.460431 0.500000
O O3 0.813212 0.566731 0.649726
O O4 0.820532 0.132779 0.500000
O O5 0.876873 0.125201 0.312891
O O6 0.706611 0.000000 0.377285
O O7 0.544896 0.544896 0.847605
O O8 0.503938 0.360022 0.849210
O O9 0.692892 0.506208 0.850136
O O10 0.581745 0.470911 0.000000
O O11 0.144928 0.144928 0.822792
O O12 0.327358 0.189115 0.851181
O O13 0.185032 0.000000 0.836074
O O14 0.442787 0.249633 0.000000
#
# Coordination Sequence:
#
# PCOD9586456 Si02
#       5
#    12  12  12  12  12
#     4   7  12  26  50  77 107 142 176 216 275 342
#     4   9  18  35  57  80 110 149 194 242 290 342
#     4   9  17  31  53  81 113 147 180 217 264 325
#     4  11  24  41  59  82 112 151 198 249 299 344
#     4  10  20  37  61  88 117 149 186 229 283 346
#
# _framework density 20.598807999999998
#
# number of rings (size 3 to 8) (size 9 to 14) (size 15 to 20)
#    0.400    2.400    0.000    1.800    0.000    4.400 
#    3.600    1.000    0.000    6.000    0.000    0.000 
#    0.000    0.000    0.000    0.000    0.000    0.000 
#
# Total GULP energy -334710.196442 kJ/mol
# GULP energy per Si atom -5578.503274 kJ/mol
# Density = 2.055192 g / cm^3
# Si number density = 20.598808 Si / 1000 Ang^3
#
#
#
# Elastic Constant Matrix: (Units=GPa)
#
#
# Indices 1 2 3 4 5 6 
#
# 1 57.3331 -0.4076 -5.1667 0.0000 0.0000 0.0000
# 2 -0.4076 57.3331 -5.1667 0.0000 0.0000 0.0000
# 3 -5.1667 -5.1667 45.6036 0.0000 0.0000 0.0000
# 4 0.0000 0.0000 0.0000 11.1992 0.0000 0.0000
# 5 0.0000 0.0000 0.0000 0.0000 11.1992 0.0000
# 6 0.0000 0.0000 0.0000 0.0000 0.0000 28.8703
#
#
#
# Elastic Compliance Matrix: (Units=1/GPa)
#
#
# Indices 1 2 3 4 5 6 
#
# 1 0.017627 0.000308 0.002032 0.000000 0.000000 0.000000
# 2 0.000308 0.017627 0.002032 0.000000 0.000000 0.000000
# 3 0.002032 0.002032 0.022389 0.000000 0.000000 0.000000
# 4 0.000000 0.000000 0.000000 0.089292 0.000000 0.000000
# 5 0.000000 0.000000 0.000000 0.000000 0.089292 0.000000
# 6 0.000000 0.000000 0.000000 0.000000 0.000000 0.034638
#
#
# Mechanical properties :
#
#
# Convention : Reuss Voigt Hill
#
# Bulk Modulus (GPa) = 15.06297 15.42089 15.24193
# Shear Modulus (GPa) = 17.59017 21.65445 19.62231
#
# Velocity S-wave (km/s) = 2.92540 3.24581 3.08976
# Velocity P-wave (km/s) = 4.32886 4.64216 4.48824
#
# Compressibility (1/GPa) = 0.06638796
#
# Stress axis : x y z
#
# Youngs Moduli (GPa) = 56.73038 56.73038 44.66569
#
# Poissons Ratio (x) = -0.01750 -0.09076
# Poissons Ratio (y) = -0.01750 -0.09076
# Poissons Ratio (z) = -0.11528 -0.11528
#
# Static dielectric constant tensor:
#      x y z
#    x 1.699880 0.000000 0.000000 
#    y 0.000000 1.699880 0.000000 
#    z 0.000000 0.000000 1.795450 
# 
# From -- ./inp_files/2507.got.cif
#   From: 2010.05.17/outbox.cif.g08.bks.cpg/sg189_2_cif.got.tgz:2507.got - 2010.05.20 12:14:34.
