data_PCOD9586452
_publ_section_title
;
Structure prediction by ZEFSAII (Michael W. Deem and Ramdas Pophale) SiO2 
 PCOD9586452
Probable space group: P -6 2 M
;
_chemical_formula_sum "Si O2"
_cell_formula_units_Z 84
_cell_length_a 19.015903
_cell_length_b 19.015903
_cell_length_c 14.534345
_cell_angle_alpha 90.000000
_cell_angle_beta 90.000000
_cell_angle_gamma 120.000000
_cell_volume 4551.557182
_symmetry_space_group_name_H-M "P -6 2 M"
_symmetry_group_IT_number 189
_symmetry_cell_setting 'hexagonal'
loop_
_space_group_symop_operation_xyz
x,y,z
-x+y,-x,-z
-y,x-y,z
x,y,-z
-x+y,-x,z
-y,x-y,-z
x-y,-y,-z
-x,-x+y,-z
y,x,-z
y,x,z
x-y,-y,z
-x,-x+y,z
loop_
_atom_site_type_symbol
_atom_site_label
_atom_site_fract_x
_atom_site_fract_y
_atom_site_fract_z
Si Si1 0.903888 0.093989 0.609443
Si Si2 0.231981 0.903920 0.719921
Si Si3 0.180540 0.491127 0.605004
Si Si4 0.406918 0.907600 0.106542
Si Si5 0.814242 0.217566 0.107722
Si Si6 0.092956 0.646718 0.796101
Si Si7 0.841704 0.487373 0.604584
O O1 0.894772 0.100262 0.500000
O O2 0.877561 0.150560 0.662548
O O3 0.000000 0.130176 0.626895
O O4 0.853053 0.000000 0.635964
O O5 0.280424 0.862815 0.676018
O O6 0.210056 0.877046 0.825199
O O7 0.287104 0.000000 0.711601
O O8 0.155848 0.459928 0.500000
O O9 0.276964 0.525810 0.611403
O O10 0.160585 0.562880 0.618374
O O11 0.312863 0.841757 0.116781
O O12 0.467512 0.895060 0.170561
O O13 0.425445 0.000000 0.122948
O O14 0.429405 0.905044 0.000000
O O15 0.726451 0.157329 0.150019
O O16 0.818391 0.201656 0.000000
O O17 0.108281 0.655787 0.686796
O O18 0.000000 0.620063 0.817292
O O19 0.870754 0.515909 0.500000
#
# Coordination Sequence:
#
# PCOD9586452 Si02
#       7
#    12  12  12  12  12  12  12
#     4   9  18  34  58  87 118 152 189 233 291 359
#     4  11  22  37  58  88 121 152 191 245 301 348
#     4  10  20  37  59  87 120 156 197 240 283 341
#     4   9  19  38  62  86 112 144 188 244 299 346
#     4  11  23  40  60  83 111 151 199 245 294 351
#     4  11  23  39  59  85 119 156 193 239 297 352
#     4  10  21  37  58  83 115 154 196 239 286 339
#
# _framework density 18.455221999999999
#
# number of rings (size 3 to 8) (size 9 to 14) (size 15 to 20)
#    0.000    1.857    1.429    2.571    0.000    6.857 
#    0.857    1.429    0.000    0.000    0.000    0.000 
#    0.000    1.143    0.000    0.000    0.000    0.000 
#
# Total GULP energy -468907.400839 kJ/mol
# GULP energy per Si atom -5582.230962 kJ/mol
# Density = 1.841322 g / cm^3
# Si number density = 18.455222 Si / 1000 Ang^3
#
#
#
# Elastic Constant Matrix: (Units=GPa)
#
#
# Indices 1 2 3 4 5 6 
#
# 1 76.1705 29.2769 45.6776 0.0000 0.0000 0.0000
# 2 29.2769 76.1705 45.6776 0.0000 0.0000 0.0000
# 3 45.6776 45.6776 114.3335 0.0000 0.0000 0.0000
# 4 0.0000 0.0000 0.0000 23.7982 0.0000 0.0000
# 5 0.0000 0.0000 0.0000 0.0000 23.7982 0.0000
# 6 0.0000 0.0000 0.0000 0.0000 0.0000 23.4468
#
#
#
# Elastic Compliance Matrix: (Units=1/GPa)
#
#
# Indices 1 2 3 4 5 6 
#
# 1 0.017914 -0.003411 -0.005794 0.000000 0.000000 0.000000
# 2 -0.003411 0.017914 -0.005794 0.000000 0.000000 0.000000
# 3 -0.005794 -0.005794 0.013376 0.000000 0.000000 0.000000
# 4 0.000000 0.000000 0.000000 0.042020 0.000000 0.000000
# 5 0.000000 0.000000 0.000000 0.000000 0.042020 0.000000
# 6 0.000000 0.000000 0.000000 0.000000 0.000000 0.042650
#
#
# Mechanical properties :
#
#
# Convention : Reuss Voigt Hill
#
# Bulk Modulus (GPa) = 52.06788 56.43763 54.25275
# Shear Modulus (GPa) = 23.55223 23.94483 23.74853
#
# Velocity S-wave (km/s) = 3.57625 3.60593 3.59112
# Velocity P-wave (km/s) = 6.73254 6.92706 6.83049
#
# Compressibility (1/GPa) = 0.01920570
#
# Stress axis : x y z
#
# Youngs Moduli (GPa) = 55.82208 55.82208 74.76041
#
# Poissons Ratio (x) = 0.19040 0.43318
# Poissons Ratio (y) = 0.19040 0.43318
# Poissons Ratio (z) = 0.32345 0.32345
#
# Static dielectric constant tensor:
#      x y z
#    x 1.622260 0.000000 0.000000 
#    y 0.000000 1.622260 0.000000 
#    z 0.000000 0.000000 1.657360 
# 
# From -- ./inp_files/2794.got.cif
#   From: 2010.05.17/outbox.cif.g08.bks.cpg/sg189_2_cif.got.tgz:2794.got - 2010.05.20 12:14:34.
