data_PCOD9586367
_publ_section_title
;
Structure prediction by ZEFSAII (Michael W. Deem and Ramdas Pophale) SiO2 
 PCOD9586367
Probable space group: P -6 2 M
;
_chemical_formula_sum "Si O2"
_cell_formula_units_Z 84
_cell_length_a 13.631746
_cell_length_b 13.631746
_cell_length_c 25.483000
_cell_angle_alpha 90.000000
_cell_angle_beta 90.000000
_cell_angle_gamma 120.000000
_cell_volume 4100.947000
_symmetry_space_group_name_H-M "P -6 2 M"
_symmetry_group_IT_number 189
_symmetry_cell_setting 'hexagonal'
loop_
_space_group_symop_operation_xyz
x,y,z
-x+y,-x,-z
-y,x-y,z
x,y,-z
-x+y,-x,z
-y,x-y,-z
x-y,-y,-z
-x,-x+y,-z
y,x,-z
y,x,z
x-y,-y,z
-x,-x+y,z
loop_
_atom_site_type_symbol
_atom_site_label
_atom_site_fract_x
_atom_site_fract_y
_atom_site_fract_z
Si Si1 0.869911 0.334944 0.736917
Si Si2 0.861263 0.512483 0.942857
Si Si3 0.416334 0.545305 0.833379
Si Si4 0.684118 0.875679 0.798456
Si Si5 0.131732 0.677785 0.562261
Si Si6 0.134879 0.471077 0.380879
Si Si7 0.128054 0.262231 0.082900
O O1 0.817544 0.367093 0.786106
O O2 0.866413 0.220909 0.755561
O O3 0.821365 0.322627 0.679069
O O4 0.000000 0.435569 0.732688
O O5 0.821781 0.433093 0.891843
O O6 0.830950 0.612655 0.937359
O O7 0.000000 0.581373 0.940130
O O8 0.827836 0.458107 0.000000
O O9 0.520780 0.520780 0.839218
O O10 0.308173 0.428950 0.814819
O O11 0.726578 0.854704 0.853761
O O12 0.774403 0.000000 0.778911
O O13 0.151420 0.681006 0.500000
O O14 0.218593 0.795336 0.589004
O O15 0.151637 0.581753 0.588823
O O16 0.000000 0.637530 0.570940
O O17 0.000000 0.383187 0.379706
O O18 0.181445 0.181445 0.071032
O O19 0.000000 0.208358 0.063638
#
# Coordination Sequence:
#
# PCOD9586367 Si02
#       7
#    12  12  12  12  12  12  12
#     4  10  20  33  51  78 110 140 179 228 279 332
#     4   8  14  26  45  67  92 129 176 222 275 334
#     4   8  16  31  48  68  97 133 173 221 274 327
#     4   9  18  32  50  70 100 143 181 220 274 330
#     4  10  21  38  61  88 120 162 204 241 290 350
#     4  10  22  37  57  88 123 157 196 249 301 351
#     4   9  16  26  42  67 100 141 185 227 271 324
#
# _framework density 20.483074999999999
#
# number of rings (size 3 to 8) (size 9 to 14) (size 15 to 20)
#    0.000    2.857    0.000    3.000    2.000    1.714 
#    0.857    0.000    0.000    4.857    0.000    4.000 
#    0.000    0.000    0.000    0.000    0.000    0.000 
#
# Total GULP energy -468740.078110 kJ/mol
# GULP energy per Si atom -5580.239025 kJ/mol
# Density = 2.043645 g / cm^3
# Si number density = 20.483075 Si / 1000 Ang^3
#
#
#
# Elastic Constant Matrix: (Units=GPa)
#
#
# Indices 1 2 3 4 5 6 
#
# 1 63.4832 24.1854 49.4771 0.0000 0.0000 0.0000
# 2 24.1854 63.4832 49.4771 0.0000 0.0000 0.0000
# 3 49.4771 49.4771 168.7863 0.0000 0.0000 0.0000
# 4 0.0000 0.0000 0.0000 -2.5780 0.0000 0.0000
# 5 0.0000 0.0000 0.0000 0.0000 -2.5780 0.0000
# 6 0.0000 0.0000 0.0000 0.0000 0.0000 19.6489
#
#
#
# Elastic Compliance Matrix: (Units=1/GPa)
#
#
# Indices 1 2 3 4 5 6 
#
# 1 0.021247 -0.004200 -0.004997 0.000000 0.000000 0.000000
# 2 -0.004200 0.021247 -0.004997 0.000000 0.000000 0.000000
# 3 -0.004997 -0.004997 0.008854 0.000000 0.000000 0.000000
# 4 0.000000 0.000000 0.000000 -0.387898 0.000000 0.000000
# 5 0.000000 0.000000 0.000000 0.000000 -0.387898 0.000000
# 6 0.000000 0.000000 0.000000 0.000000 0.000000 0.050893
#
#
# Mechanical properties :
#
#
# Convention : Reuss Voigt Hill
#
# Bulk Modulus (GPa) = 43.55415 60.22574 51.88994
# Shear Modulus (GPa) = -7.84296 14.40612 3.28158
#
# Velocity S-wave (km/s) = -1.95891 2.65489 1.26711
# Velocity P-wave (km/s) = 4.02408 6.23414 5.24679
#
# Compressibility (1/GPa) = 0.02295993
#
# Stress axis : x y z
#
# Youngs Moduli (GPa) = 47.06588 47.06588 112.94007
#
# Poissons Ratio (x) = 0.19767 0.56437
# Poissons Ratio (y) = 0.19767 0.56437
# Poissons Ratio (z) = 0.23519 0.23519
#
# Static dielectric constant tensor:
#      x y z
#    x 1.760570 0.000000 0.000000 
#    y 0.000000 1.760570 0.000000 
#    z 0.000000 0.000000 1.738260 
# 
# From -- ./inp_files/3595.got.cif
#   From: 2010.05.17/outbox.cif.g08.bks.cpg/sg189_2_cif.got.tgz:3595.got - 2010.05.20 12:14:34.
