data_PCOD9586272
_publ_section_title
;
Structure prediction by ZEFSAII (Michael W. Deem and Ramdas Pophale) SiO2 
 PCOD9586272
Probable space group: P -6 2 M
;
_chemical_formula_sum "Si O2"
_cell_formula_units_Z 66
_cell_length_a 23.101356
_cell_length_b 23.101356
_cell_length_c 8.117949
_cell_angle_alpha 90.000000
_cell_angle_beta 90.000000
_cell_angle_gamma 120.000000
_cell_volume 3751.905541
_symmetry_space_group_name_H-M "P -6 2 M"
_symmetry_group_IT_number 189
_symmetry_cell_setting 'hexagonal'
loop_
_space_group_symop_operation_xyz
x,y,z
-x+y,-x,-z
-y,x-y,z
x,y,-z
-x+y,-x,z
-y,x-y,-z
x-y,-y,-z
-x,-x+y,-z
y,x,-z
y,x,z
x-y,-y,z
-x,-x+y,z
loop_
_atom_site_type_symbol
_atom_site_label
_atom_site_fract_x
_atom_site_fract_y
_atom_site_fract_z
Si Si1 0.342092 0.923650 0.299569
Si Si2 0.922161 0.759005 0.307882
Si Si3 0.699244 0.228146 0.187556
Si Si4 0.921601 0.077821 0.000000
Si Si5 0.810320 0.197171 0.303128
Si Si6 0.560655 0.191865 0.308940
O O1 0.343544 0.927494 0.500000
O O2 0.264119 0.878617 0.249877
O O3 0.374369 0.877732 0.252153
O O4 0.380488 0.000000 0.238406
O O5 0.910901 0.772146 0.500000
O O6 0.911628 0.801546 0.166897
O O7 0.869942 0.682026 0.271143
O O8 0.000000 0.779776 0.297045
O O9 0.747589 0.198686 0.226125
O O10 0.631857 0.197295 0.292012
O O11 0.746182 0.307416 0.218212
O O12 0.677399 0.215895 0.000000
O O13 0.000000 0.124963 0.000000
O O14 0.900538 0.000000 0.000000
O O15 0.805656 0.202773 0.500000
O O16 0.548047 0.199598 0.500000
#
# Coordination Sequence:
#
# PCOD9586272 Si02
#       6
#    12  12  12   6  12  12
#     4   8  15  29  50  74  98 127 163 207 258 310
#     4   9  19  36  57  81 111 147 186 228 273 323
#     4  11  21  32  50  74 102 132 172 220 268 320
#     4  10  21  36  56  82 114 146 180 220 272 328
#     4   9  18  33  54  77 103 136 177 220 266 319
#     4  10  19  33  51  71  99 132 169 211 262 317
#
# _framework density 17.591061
#
# number of rings (size 3 to 8) (size 9 to 14) (size 15 to 20)
#    0.000    2.545    0.000    3.727    1.273    1.091 
#    0.000    2.727    0.000   16.364    0.000    0.000 
#    0.000    0.000    0.000    0.000    0.000    0.000 
#
# Total GULP energy -367828.247471 kJ/mol
# GULP energy per Si atom -5573.155265 kJ/mol
# Density = 1.755102 g / cm^3
# Si number density = 17.591061 Si / 1000 Ang^3
#
#
#
# Elastic Constant Matrix: (Units=GPa)
#
#
# Indices 1 2 3 4 5 6 
#
# 1 99.1673 75.6255 26.3458 0.0000 0.0000 0.0000
# 2 75.6255 99.1673 26.3458 0.0000 0.0000 0.0000
# 3 26.3458 26.3458 34.2236 0.0000 0.0000 0.0000
# 4 0.0000 0.0000 0.0000 9.6631 0.0000 0.0000
# 5 0.0000 0.0000 0.0000 0.0000 9.6631 0.0000
# 6 0.0000 0.0000 0.0000 0.0000 0.0000 11.7709
#
#
#
# Elastic Compliance Matrix: (Units=1/GPa)
#
#
# Indices 1 2 3 4 5 6 
#
# 1 0.024964 -0.017514 -0.005735 0.000000 0.000000 0.000000
# 2 -0.017514 0.024964 -0.005735 0.000000 0.000000 0.000000
# 3 -0.005735 -0.005735 0.038049 0.000000 0.000000 0.000000
# 4 0.000000 0.000000 0.000000 0.103487 0.000000 0.000000
# 5 0.000000 0.000000 0.000000 0.000000 0.103487 0.000000
# 6 0.000000 0.000000 0.000000 0.000000 0.000000 0.084955
#
#
# Mechanical properties :
#
#
# Convention : Reuss Voigt Hill
#
# Bulk Modulus (GPa) = 33.32326 54.35472 43.83899
# Shear Modulus (GPa) = 11.16379 13.16882 12.16631
#
# Velocity S-wave (km/s) = 2.52192 2.73904 2.63272
# Velocity P-wave (km/s) = 5.24066 6.40072 5.84952
#
# Compressibility (1/GPa) = 0.03000907
#
# Stress axis : x y z
#
# Youngs Moduli (GPa) = 40.05813 40.05813 26.28161
#
# Poissons Ratio (x) = 0.70157 0.15073
# Poissons Ratio (y) = 0.70157 0.15073
# Poissons Ratio (z) = 0.22973 0.22973
#
# Static dielectric constant tensor:
#      x y z
#    x 1.583450 0.000000 0.000000 
#    y 0.000000 1.583450 0.000000 
#    z 0.000000 0.000000 1.609990 
# 
# From -- ./inp_files/1043.got.cif
#   From: 2010.05.17/outbox.cif.g08.bks.cpg/sg189_1_cif.got.tgz:1043.got - 2010.05.20 12:14:34.
