data_PCOD9586051
_publ_section_title
;
Structure prediction by ZEFSAII (Michael W. Deem and Ramdas Pophale) SiO2 
 PCOD9586051
Probable space group: P -6 C 2
;
_chemical_formula_sum "Si O2"
_cell_formula_units_Z 28
_cell_length_a 6.950341
_cell_length_b 6.950341
_cell_length_c 30.462317
_cell_angle_alpha 90.000000
_cell_angle_beta 90.000000
_cell_angle_gamma 120.000000
_cell_volume 1274.400080
_symmetry_space_group_name_H-M "P -6 C 2"
_symmetry_group_IT_number 188
_symmetry_cell_setting 'hexagonal'
loop_
_space_group_symop_operation_xyz
x,y,z
-x+y,-x,1/2-z
-y,x-y,z
x,y,1/2-z
-x+y,-x,z
-y,x-y,1/2-z
-y,-x,-z
-x+y,y,-z
x,x-y,-z
-x+y,y,1/2+z
x,x-y,1/2+z
-y,-x,1/2+z
loop_
_atom_site_type_symbol
_atom_site_label
_atom_site_fract_x
_atom_site_fract_y
_atom_site_fract_z
Si Si1 0.944890 0.542055 0.112882
Si Si2 0.333333 0.666667 0.551921
Si Si3 0.224798 0.276566 0.201975
O O1 0.724243 0.563127 0.110252
O O2 0.114629 0.651613 0.073462
O O3 0.056978 0.645632 0.159496
O O4 0.333334 0.666667 0.500000
O O5 0.310960 0.378541 0.250000
O O6 0.222929 0.040380 0.200612
#
# Coordination Sequence:
#
# PCOD9586051 Si02
#       3
#    12   4  12
#     4  10  23  41  68  99 132 169 222 271 330 402
#     4  12  27  48  67  92 133 168 219 297 355 398
#     4   8  16  33  63  98 138 181 217 254 312 386
#
# _framework density 21.971122000000001
#
# number of rings (size 3 to 8) (size 9 to 14) (size 15 to 20)
#    1.714    0.857    0.000    2.571    0.000    3.429 
#    2.571    2.143    0.000    0.000    0.000    0.000 
#    0.000    0.000    0.000    0.000    0.000    0.000 
#
# Total GULP energy -156063.983720 kJ/mol
# GULP energy per Si atom -5573.713704 kJ/mol
# Density = 2.192111 g / cm^3
# Si number density = 21.971122 Si / 1000 Ang^3
#
#
#
# Elastic Constant Matrix: (Units=GPa)
#
#
# Indices 1 2 3 4 5 6 
#
# 1 78.3066 26.3502 63.8286 0.0001 0.0000 0.0000
# 2 26.3502 78.3065 63.8286 0.0000 0.0001 0.0000
# 3 63.8286 63.8286 260.7448 0.0006 0.0003 -0.0001
# 4 0.0001 0.0000 0.0006 12.5003 0.0000 -0.0001
# 5 0.0000 0.0001 0.0003 0.0000 12.5015 0.0000
# 6 0.0000 0.0000 -0.0001 -0.0001 0.0000 25.9781
#
#
#
# Elastic Compliance Matrix: (Units=1/GPa)
#
#
# Indices 1 2 3 4 5 6 
#
# 1 0.016435 -0.002812 -0.003335 0.000000 0.000000 0.000000
# 2 -0.002812 0.016435 -0.003335 0.000000 0.000000 0.000000
# 3 -0.003335 -0.003335 0.005468 0.000000 0.000000 0.000000
# 4 0.000000 0.000000 0.000000 0.079998 0.000000 0.000000
# 5 0.000000 0.000000 0.000000 0.000000 0.079990 0.000000
# 6 0.000000 0.000000 0.000000 0.000000 0.000000 0.038494
#
#
# Mechanical properties :
#
#
# Convention : Reuss Voigt Hill
#
# Bulk Modulus (GPa) = 51.61510 80.59696 66.10603
# Shear Modulus (GPa) = 19.06641 27.75267 23.40954
#
# Velocity S-wave (km/s) = 2.94903 3.55793 3.26769
# Velocity P-wave (km/s) = 5.92781 7.32402 6.66259
#
# Compressibility (1/GPa) = 0.01937418
#
# Stress axis : x y z
#
# Youngs Moduli (GPa) = 60.84654 60.84646 182.88861
#
# Poissons Ratio (x) = 0.17111 0.60988
# Poissons Ratio (y) = 0.17111 0.60989
# Poissons Ratio (z) = 0.20291 0.20291
#
# Static dielectric constant tensor:
#      x y z
#    x 1.877260 0.000000 0.000000 
#    y 0.000000 1.877260 0.000000 
#    z 0.000000 0.000000 1.728770 
# 
# From -- ./inp_files/4158.got.cif
#   From: 2010.05.17/outbox.cif.g08.bks.cpg/sg188_3_cif.got.tgz:4158.got - 2010.05.20 12:11:46.
