data_PCOD9586590
_publ_section_title
;
Structure prediction by ZEFSAII (Michael W. Deem and Ramdas Pophale) SiO2 
 PCOD9586590
Probable space group: P -6 2 M
;
_chemical_formula_sum "Si O2"
_cell_formula_units_Z 96
_cell_length_a 15.000000
_cell_length_b 15.000000
_cell_length_c 27.000000
_cell_angle_alpha 90.000000
_cell_angle_beta 90.000000
_cell_angle_gamma 120.000000
_cell_volume 5261.104328
_symmetry_space_group_name_H-M "P -6 2 M"
_symmetry_group_IT_number 189
_symmetry_cell_setting 'hexagonal'
loop_
_space_group_symop_operation_xyz
x,y,z
-x+y,-x,-z
-y,x-y,z
x,y,-z
-x+y,-x,z
-y,x-y,-z
x-y,-y,-z
-x,-x+y,-z
y,x,-z
y,x,z
x-y,-y,z
-x,-x+y,z
loop_
_atom_site_type_symbol
_atom_site_label
_atom_site_fract_x
_atom_site_fract_y
_atom_site_fract_z
Si Si1 0.758567 0.640123 0.685372
Si Si2 0.879794 0.580903 0.875752
Si Si3 0.877959 0.600842 0.767997
Si Si4 0.876359 0.426808 0.945328
Si Si5 0.881602 0.455343 0.307085
Si Si6 0.423452 0.885996 0.441958
Si Si7 0.475317 0.265267 0.608802
Si Si8 0.664221 0.781278 0.941798
O O1 0.725393 0.725393 0.683519
O O2 0.827580 0.646783 0.731510
O O3 0.653461 0.529281 0.691748
O O4 0.809893 0.629183 0.634890
O O5 0.832442 0.578604 0.822730
O O6 0.835088 0.472931 0.904167
O O7 0.868649 0.661303 0.910364
O O8 0.000000 0.621464 0.866684
O O9 0.862620 0.494613 0.744757
O O10 0.000000 0.679203 0.768991
O O11 0.866884 0.317362 0.935629
O O12 0.000000 0.504280 0.947927
O O13 0.833817 0.426574 0.000000
O O14 0.804635 0.463634 0.345323
O O15 0.000000 0.539156 0.320879
O O16 0.405611 0.881514 0.500000
O O17 0.321062 0.797899 0.416363
O O18 0.516891 0.865474 0.430439
O O19 0.454542 0.000000 0.423628
O O20 0.744050 0.744050 0.926672
O O21 0.678777 0.805655 0.000000
#
# Coordination Sequence:
#
# PCOD9586590 Si02
#       8
#    12  12  12  12  12  12  12  12
#     4  10  20  34  56  78  98 133 181 219 258 315
#     4  10  19  32  50  72  98 131 165 202 253 314
#     4   9  20  34  48  71 104 132 163 212 265 311
#     4   8  15  29  48  67  91 125 163 201 244 297
#     4   9  18  33  52  75 100 133 175 220 263 312
#     4  11  23  35  49  76 112 150 192 225 259 321
#     4  11  19  32  52  73 105 141 177 219 264 300
#     4   9  18  32  50  72  97 127 164 206 251 301
#
# _framework density 18.247119999999999
#
# number of rings (size 3 to 8) (size 9 to 14) (size 15 to 20)
#    0.000    2.375    1.250    2.500    0.000    2.750 
#    1.500    2.500    0.000    0.500    0.000    0.000 
#    0.000    0.000    0.000    0.000    0.000   67.375 
#
# Total GULP energy -534455.745427 kJ/mol
# GULP energy per Si atom -5567.247348 kJ/mol
# Density = 1.820559 g / cm^3
# Si number density = 18.247120 Si / 1000 Ang^3
#
#
#
# Elastic Constant Matrix: (Units=GPa)
#
#
# Indices 1 2 3 4 5 6 
#
# 1 43.6969 7.0801 21.9694 0.0000 0.0000 0.0000
# 2 7.0801 43.6969 21.9694 0.0000 0.0000 0.0000
# 3 21.9694 21.9694 67.1953 0.0000 0.0000 0.0000
# 4 0.0000 0.0000 0.0000 10.3461 0.0000 0.0000
# 5 0.0000 0.0000 0.0000 0.0000 10.3461 0.0000
# 6 0.0000 0.0000 0.0000 0.0000 0.0000 18.3084
#
#
#
# Elastic Compliance Matrix: (Units=1/GPa)
#
#
# Indices 1 2 3 4 5 6 
#
# 1 0.027387 0.000077 -0.008979 0.000000 0.000000 0.000000
# 2 0.000077 0.027387 -0.008979 0.000000 0.000000 0.000000
# 3 -0.008979 -0.008979 0.020754 0.000000 0.000000 0.000000
# 4 0.000000 0.000000 0.000000 0.096655 0.000000 0.000000
# 5 0.000000 0.000000 0.000000 0.000000 0.096655 0.000000
# 6 0.000000 0.000000 0.000000 0.000000 0.000000 0.054620
#
#
# Mechanical properties :
#
#
# Convention : Reuss Voigt Hill
#
# Bulk Modulus (GPa) = 25.14818 28.51411 26.83115
# Shear Modulus (GPa) = 13.42373 14.70480 14.06426
#
# Velocity S-wave (km/s) = 2.71525 2.84186 2.77928
# Velocity P-wave (km/s) = 4.86231 5.14090 5.00354
#
# Compressibility (1/GPa) = 0.03976431
#
# Stress axis : x y z
#
# Youngs Moduli (GPa) = 36.51372 36.51372 48.18445
#
# Poissons Ratio (x) = -0.00282 0.43267
# Poissons Ratio (y) = -0.00282 0.43267
# Poissons Ratio (z) = 0.32787 0.32787
#
# Static dielectric constant tensor:
#      x y z
#    x 1.643690 0.000000 0.000000 
#    y 0.000000 1.643690 0.000000 
#    z 0.000000 0.000000 1.681240 
# 
# From -- ./inp_files/3700.got.cif
#   From: 2010.05.17/outbox.ucp.g08.bks.cvg/sg189_2_cif.got.tgz:3700.got - 2010.06.11 15:22:13.
