data_PCOD9586685
_publ_section_title
;
Structure prediction by ZEFSAII (Michael W. Deem and Ramdas Pophale) SiO2 
 PCOD9586685
Probable space group: P -6 2 C
;
_chemical_formula_sum "Si O2"
_cell_formula_units_Z 72
_cell_length_a 24.428553
_cell_length_b 24.428553
_cell_length_c 8.729071
_cell_angle_alpha 90.000000
_cell_angle_beta 90.000000
_cell_angle_gamma 120.000000
_cell_volume 4511.221414
_symmetry_space_group_name_H-M "P -6 2 C"
_symmetry_group_IT_number 190
_symmetry_cell_setting 'hexagonal'
loop_
_space_group_symop_operation_xyz
x,y,z
-x+y,-x,1/2-z
-y,x-y,z
x,y,1/2-z
-x+y,-x,z
-y,x-y,1/2-z
x-y,-y,-z
-x,-x+y,-z
y,x,-z
y,x,1/2+z
x-y,-y,1/2+z
-x,-x+y,1/2+z
loop_
_atom_site_type_symbol
_atom_site_label
_atom_site_fract_x
_atom_site_fract_y
_atom_site_fract_z
Si Si1 0.859429 0.263768 0.067260
Si Si2 0.526661 0.930675 0.434262
Si Si3 0.400942 0.930009 0.434128
Si Si4 0.931097 0.738994 0.566544
Si Si5 0.263895 0.068926 0.934334
Si Si6 0.146843 0.739416 0.435296
O O1 0.863075 0.264524 0.250000
O O2 0.882320 0.333201 0.003233
O O3 0.905326 0.239757 0.998661
O O4 0.789495 0.212624 0.010867
O O5 0.530982 0.934778 0.250000
O O6 0.455889 0.914085 0.476378
O O7 0.547938 0.880927 0.482421
O O8 0.573565 0.000000 0.500000
O O9 0.397118 0.931378 0.250000
O O10 0.424741 0.000000 0.500000
O O11 0.935450 0.742243 0.750000
O O12 0.876474 0.754712 0.521117
O O13 0.903482 0.665412 0.523237
O O14 0.000000 0.783307 0.500000
O O15 0.266182 0.067047 0.750000
O O16 0.217755 0.000000 0.000000
O O17 0.154165 0.744498 0.250000
#
# Coordination Sequence:
#
# PCOD9586685 Si02
#       6
#    12  12  12  12  12  12
#     4  11  21  32  48  71  96 127 161 196 238 284
#     4   9  18  31  50  73  98 127 158 192 235 281
#     4  10  19  32  49  71  98 128 159 196 238 284
#     4   9  18  30  47  70  97 124 152 188 231 275
#     4  10  20  34  50  71  97 126 158 197 239 282
#     4   9  18  33  49  70  98 126 157 195 234 278
#
# _framework density 15.960201
#
# number of rings (size 3 to 8) (size 9 to 14) (size 15 to 20)
#    0.000    2.333    0.000    4.500    0.000    4.667 
#    0.000    0.000    0.000    1.000    0.000    2.333 
#    0.000    0.000    0.000    0.000    0.000    0.000 
#
# Total GULP energy -401668.905139 kJ/mol
# GULP energy per Si atom -5578.734794 kJ/mol
# Density = 1.592387 g / cm^3
# Si number density = 15.960201 Si / 1000 Ang^3
#
#
#
# Elastic Constant Matrix: (Units=GPa)
#
#
# Indices 1 2 3 4 5 6 
#
# 1 133.2786 90.1824 45.0639 0.0000 0.0000 0.0000
# 2 90.1824 133.2786 45.0639 0.0000 0.0000 0.0000
# 3 45.0639 45.0639 54.4772 0.0000 0.0000 0.0000
# 4 0.0000 0.0000 0.0000 23.6492 0.0000 0.0000
# 5 0.0000 0.0000 0.0000 0.0000 23.6492 0.0000
# 6 0.0000 0.0000 0.0000 0.0000 0.0000 21.5481
#
#
#
# Elastic Compliance Matrix: (Units=1/GPa)
#
#
# Indices 1 2 3 4 5 6 
#
# 1 0.014960 -0.008244 -0.005555 0.000000 0.000000 0.000000
# 2 -0.008244 0.014960 -0.005555 0.000000 0.000000 0.000000
# 3 -0.005555 -0.005555 0.027547 0.000000 0.000000 0.000000
# 4 0.000000 0.000000 0.000000 0.042285 0.000000 0.000000
# 5 0.000000 0.000000 0.000000 0.000000 0.042285 0.000000
# 6 0.000000 0.000000 0.000000 0.000000 0.000000 0.046408
#
#
# Mechanical properties :
#
#
# Convention : Reuss Voigt Hill
#
# Bulk Modulus (GPa) = 53.31250 75.73944 64.52597
# Shear Modulus (GPa) = 21.42197 23.15091 22.28644
#
# Velocity S-wave (km/s) = 3.66760 3.81273 3.74087
# Velocity P-wave (km/s) = 7.17014 8.18173 7.69258
#
# Compressibility (1/GPa) = 0.01875733
#
# Stress axis : x y z
#
# Youngs Moduli (GPa) = 66.84599 66.84599 36.30170
#
# Poissons Ratio (x) = 0.55109 0.20166
# Poissons Ratio (y) = 0.55109 0.20166
# Poissons Ratio (z) = 0.37134 0.37134
#
# Static dielectric constant tensor:
#      x y z
#    x 1.522720 0.000000 0.000000 
#    y 0.000000 1.522720 0.000000 
#    z 0.000000 0.000000 1.536810 
# 
# From -- ./inp_files/1186.got.cif
#   From: 2010.05.17/outbox.cif.g08.bks.cpg/sg190_1_cif.got.tgz:1186.got - 2010.05.20 12:16:56.
