data_PCOD9586461
_publ_section_title
;
Structure prediction by ZEFSAII (Michael W. Deem and Ramdas Pophale) SiO2 
 PCOD9586461
Probable space group: P -6 2 M
;
_chemical_formula_sum "Si O2"
_cell_formula_units_Z 72
_cell_length_a 14.901883
_cell_length_b 14.901883
_cell_length_c 15.397502
_cell_angle_alpha 90.000000
_cell_angle_beta 90.000000
_cell_angle_gamma 120.000000
_cell_volume 2961.169036
_symmetry_space_group_name_H-M "P -6 2 M"
_symmetry_group_IT_number 189
_symmetry_cell_setting 'hexagonal'
loop_
_space_group_symop_operation_xyz
x,y,z
-x+y,-x,-z
-y,x-y,z
x,y,-z
-x+y,-x,z
-y,x-y,-z
x-y,-y,-z
-x,-x+y,-z
y,x,-z
y,x,z
x-y,-y,z
-x,-x+y,z
loop_
_atom_site_type_symbol
_atom_site_label
_atom_site_fract_x
_atom_site_fract_y
_atom_site_fract_z
Si Si1 0.229396 0.114121 0.651932
Si Si2 0.714532 0.166375 0.847343
Si Si3 0.380541 0.884037 0.900703
Si Si4 0.883905 0.499414 0.657885
Si Si5 0.227724 0.113908 0.862429
Si Si6 0.172966 0.458232 0.402538
O O1 0.199654 0.199654 0.623951
O O2 0.231236 0.113991 0.756992
O O3 0.338755 0.131445 0.620120
O O4 0.141456 0.000000 0.624125
O O5 0.791633 0.289601 0.847459
O O6 0.611709 0.133809 0.900849
O O7 0.670030 0.126579 0.751056
O O8 0.788350 0.126265 0.885021
O O9 0.419681 0.000000 0.866854
O O10 0.344624 0.877487 0.000000
O O11 0.789297 0.492681 0.603646
O O12 0.866813 0.383972 0.659794
O O13 0.000000 0.574979 0.624762
O O14 0.138602 0.138602 0.888518
O O15 0.200104 0.000000 0.892279
O O16 0.141341 0.467024 0.500000
#
# Coordination Sequence:
#
# PCOD9586461 Si02
#       6
#    12  12  12  12  12  12
#     4  10  21  39  63  93 128 167 214 269 334 403
#     4  12  23  42  69  98 133 175 226 277 329 397
#     4  11  25  44  68 102 142 181 219 266 329 399
#     4  12  26  45  68  97 131 172 226 287 343 396
#     4  10  20  37  63  98 135 171 214 268 331 394
#     4  12  26  44  65  91 129 177 229 282 343 413
#
# _framework density 24.314722
#
# number of rings (size 3 to 8) (size 9 to 14) (size 15 to 20)
#    0.000    0.833    1.667    6.000    0.000    4.667 
#    0.000    0.000    0.000    1.000    0.000    0.000 
#    0.000    8.000    0.000    0.000    0.000    0.000 
#
# Total GULP energy -403033.216623 kJ/mol
# GULP energy per Si atom -5597.683564 kJ/mol
# Density = 2.425938 g / cm^3
# Si number density = 24.314722 Si / 1000 Ang^3
#
#
#
# Elastic Constant Matrix: (Units=GPa)
#
#
# Indices 1 2 3 4 5 6 
#
# 1 142.6020 55.6512 1.9824 0.0000 0.0000 0.0000
# 2 55.6512 142.6020 1.9824 0.0000 0.0000 0.0000
# 3 1.9824 1.9824 54.7150 0.0000 0.0000 0.0000
# 4 0.0000 0.0000 0.0000 -11.9581 0.0000 0.0000
# 5 0.0000 0.0000 0.0000 0.0000 -11.9581 0.0000
# 6 0.0000 0.0000 0.0000 0.0000 0.0000 43.4754
#
#
#
# Elastic Compliance Matrix: (Units=1/GPa)
#
#
# Indices 1 2 3 4 5 6 
#
# 1 0.008274 -0.003227 -0.000183 0.000000 0.000000 0.000000
# 2 -0.003227 0.008274 -0.000183 0.000000 0.000000 0.000000
# 3 -0.000183 -0.000183 0.018290 0.000000 0.000000 0.000000
# 4 0.000000 0.000000 0.000000 -0.083625 0.000000 0.000000
# 5 0.000000 0.000000 0.000000 0.000000 -0.083625 0.000000
# 6 0.000000 0.000000 0.000000 0.000000 0.000000 0.023001
#
#
# Mechanical properties :
#
#
# Convention : Reuss Voigt Hill
#
# Bulk Modulus (GPa) = 36.16156 51.01675 43.58916
# Shear Modulus (GPa) = -53.75850 22.59873 -15.57989
#
# Velocity S-wave (km/s) = -4.70717 3.05196 -2.53407
# Velocity P-wave (km/s) = 3.82605 5.78331 3.06659
#
# Compressibility (1/GPa) = 0.02765367
#
# Stress axis : x y z
#
# Youngs Moduli (GPa) = 120.85716 120.85716 54.67537
#
# Poissons Ratio (x) = 0.38995 0.01000
# Poissons Ratio (y) = 0.38995 0.01000
# Poissons Ratio (z) = 0.02210 0.02210
#
# Static dielectric constant tensor:
#      x y z
#    x 1.924830 0.000000 0.000000 
#    y 0.000000 1.924830 0.000000 
#    z 0.000000 0.000000 1.938960 
# 
# From -- ./inp_files/3122.got.cif
#   From: 2010.05.17/outbox.cif.g08.bks.cpg/sg189_2_cif.got.tgz:3122.got - 2010.05.20 12:14:34.
