data_PCOD9586258
_publ_section_title
;
Structure prediction by ZEFSAII (Michael W. Deem and Ramdas Pophale) SiO2 
 PCOD9586258
Probable space group: P -6 2 M
;
_chemical_formula_sum "Si O2"
_cell_formula_units_Z 60
_cell_length_a 21.487516
_cell_length_b 21.487516
_cell_length_c 8.849422
_cell_angle_alpha 90.000000
_cell_angle_beta 90.000000
_cell_angle_gamma 120.000000
_cell_volume 3538.489926
_symmetry_space_group_name_H-M "P -6 2 M"
_symmetry_group_IT_number 189
_symmetry_cell_setting 'hexagonal'
loop_
_space_group_symop_operation_xyz
x,y,z
-x+y,-x,-z
-y,x-y,z
x,y,-z
-x+y,-x,z
-y,x-y,-z
x-y,-y,-z
-x,-x+y,-z
y,x,-z
y,x,z
x-y,-y,z
-x,-x+y,z
loop_
_atom_site_type_symbol
_atom_site_label
_atom_site_fract_x
_atom_site_fract_y
_atom_site_fract_z
Si Si1 0.914829 0.553448 0.319001
Si Si2 0.290912 0.915698 0.318840
Si Si3 0.212287 0.212287 0.819796
Si Si4 0.000000 0.920281 0.678120
Si Si5 0.913043 0.421462 0.173082
Si Si6 0.208474 0.353149 0.182205
O O1 0.909503 0.552905 0.500000
O O2 0.892525 0.474533 0.257773
O O3 0.867083 0.583175 0.244113
O O4 0.000000 0.605623 0.279157
O O5 0.286583 0.911130 0.500000
O O6 0.348787 0.894271 0.259591
O O7 0.214688 0.860662 0.246569
O O8 0.322138 0.000000 0.277208
O O9 0.140875 0.140875 0.773738
O O10 0.208392 0.281134 0.765233
O O11 0.218162 0.218162 0.000000
O O12 0.000000 0.905602 0.500000
O O13 0.932731 0.932731 0.707705
O O14 0.000000 0.465739 0.169115
O O15 0.887147 0.407576 0.000000
O O16 0.207592 0.355330 0.000000
#
# Coordination Sequence:
#
# PCOD9586258 Si02
#       6
#    12  12   6   6  12  12
#     4  10  19  32  53  81 109 139 175 216 266 320
#     4  10  21  37  55  79 110 145 187 232 280 333
#     4  10  22  36  52  76 106 141 182 235 288 336
#     4   8  18  36  54  72  94 129 180 233 284 344
#     4   9  17  31  54  80 106 136 170 211 260 315
#     4  11  22  36  53  77 112 147 186 233 284 335
#
# _framework density 16.956385000000001
#
# number of rings (size 3 to 8) (size 9 to 14) (size 15 to 20)
#    0.200    2.000    1.000    2.400    0.000    7.200 
#    0.000    4.000    0.000    0.800    0.000    5.600 
#    0.000    0.000    0.000    0.000    0.000    0.000 
#
# Total GULP energy -334540.262355 kJ/mol
# GULP energy per Si atom -5575.671039 kJ/mol
# Density = 1.691779 g / cm^3
# Si number density = 16.956385 Si / 1000 Ang^3
#
#
#
# Elastic Constant Matrix: (Units=GPa)
#
#
# Indices 1 2 3 4 5 6 
#
# 1 109.1489 68.7337 43.0461 0.0000 0.0000 0.0000
# 2 68.7337 109.1489 43.0461 0.0000 0.0000 0.0000
# 3 43.0461 43.0461 67.7000 0.0000 0.0000 0.0000
# 4 0.0000 0.0000 0.0000 26.0642 0.0000 0.0000
# 5 0.0000 0.0000 0.0000 0.0000 26.0642 0.0000
# 6 0.0000 0.0000 0.0000 0.0000 0.0000 20.2076
#
#
#
# Elastic Compliance Matrix: (Units=1/GPa)
#
#
# Indices 1 2 3 4 5 6 
#
# 1 0.016432 -0.008311 -0.005163 0.000000 0.000000 0.000000
# 2 -0.008311 0.016432 -0.005163 0.000000 0.000000 0.000000
# 3 -0.005163 -0.005163 0.021337 0.000000 0.000000 0.000000
# 4 0.000000 0.000000 0.000000 0.038367 0.000000 0.000000
# 5 0.000000 0.000000 0.000000 0.000000 0.038367 0.000000
# 6 0.000000 0.000000 0.000000 0.000000 0.000000 0.049486
#
#
# Mechanical properties :
#
#
# Convention : Reuss Voigt Hill
#
# Bulk Modulus (GPa) = 59.08453 66.18329 62.63391
# Shear Modulus (GPa) = 22.38750 23.21199 22.79974
#
# Velocity S-wave (km/s) = 3.63753 3.70391 3.67087
# Velocity P-wave (km/s) = 7.25002 7.57682 7.41522
#
# Compressibility (1/GPa) = 0.01692490
#
# Stress axis : x y z
#
# Youngs Moduli (GPa) = 60.85706 60.85706 46.86641
#
# Poissons Ratio (x) = 0.50580 0.24199
# Poissons Ratio (y) = 0.50580 0.24199
# Poissons Ratio (z) = 0.31423 0.31423
#
# Static dielectric constant tensor:
#      x y z
#    x 1.564290 0.000000 0.000000 
#    y 0.000000 1.564290 0.000000 
#    z 0.000000 0.000000 1.569650 
# 
# From -- ./inp_files/987.got.cif
#   From: 2010.05.17/outbox.cif.g08.bks.cpg/sg189_1_cif.got.tgz:987.got - 2010.05.20 12:14:34.
