data_PCOD9586517
_publ_section_title
;
Structure prediction by ZEFSAII (Michael W. Deem and Ramdas Pophale) SiO2 
 PCOD9586517
Probable space group: P -6 2 M
;
_chemical_formula_sum "Si O2"
_cell_formula_units_Z 84
_cell_length_a 14.614940
_cell_length_b 14.614940
_cell_length_c 25.899271
_cell_angle_alpha 90.000000
_cell_angle_beta 90.000000
_cell_angle_gamma 120.000000
_cell_volume 4790.846378
_symmetry_space_group_name_H-M "P -6 2 M"
_symmetry_group_IT_number 189
_symmetry_cell_setting 'hexagonal'
loop_
_space_group_symop_operation_xyz
x,y,z
-x+y,-x,-z
-y,x-y,z
x,y,-z
-x+y,-x,z
-y,x-y,-z
x-y,-y,-z
-x,-x+y,-z
y,x,-z
y,x,z
x-y,-y,z
-x,-x+y,z
loop_
_atom_site_type_symbol
_atom_site_label
_atom_site_fract_x
_atom_site_fract_y
_atom_site_fract_z
Si Si1 0.119490 0.574777 0.294373
Si Si2 0.126987 0.254684 0.749888
Si Si3 0.269931 0.742392 0.440288
Si Si4 0.880337 0.453957 0.174341
Si Si5 0.223601 0.810706 0.848442
Si Si6 0.125621 0.875008 0.941197
Si Si7 0.573420 0.767523 0.337051
O O1 0.147217 0.576201 0.234553
O O2 0.196447 0.687456 0.318239
O O3 0.125586 0.479682 0.320852
O O4 0.000000 0.551351 0.297667
O O5 0.189160 0.189160 0.753611
O O6 0.163909 0.340720 0.796651
O O7 0.155254 0.320328 0.695919
O O8 0.000000 0.178933 0.753587
O O9 0.219938 0.615019 0.432723
O O10 0.254650 0.760209 0.500000
O O11 0.228999 0.794770 0.398989
O O12 0.808297 0.496743 0.151570
O O13 0.873366 0.349810 0.151224
O O14 0.000000 0.548393 0.170974
O O15 0.176853 0.838196 0.897676
O O16 0.000000 0.814079 0.934398
O O17 0.172341 0.000000 0.935717
O O18 0.148381 0.855464 0.000000
#
# Coordination Sequence:
#
# PCOD9586517 Si02
#       7
#    12  12  12  12  12  12  12
#     4  11  20  31  50  79 110 142 183 218 263 333
#     4  12  25  40  58  81 111 148 192 244 293 335
#     4   8  15  29  50  80 115 151 180 215 270 333
#     4  11  21  35  53  81 116 147 179 218 269 335
#     4  12  23  38  60  85 116 153 188 228 281 344
#     4  10  21  39  63  89 116 149 194 248 299 339
#     4  12  19  33  56  82 114 152 183 222 277 341
#
# _framework density 17.533436999999999
#
# number of rings (size 3 to 8) (size 9 to 14) (size 15 to 20)
#    0.286    0.857    4.286    4.286    0.000    0.571 
#    0.000    2.143    0.000    6.857    0.000    0.000 
#    0.000    1.143    0.000    0.000    0.000    0.000 
#
# Total GULP energy -468633.293664 kJ/mol
# GULP energy per Si atom -5578.967782 kJ/mol
# Density = 1.749353 g / cm^3
# Si number density = 17.533437 Si / 1000 Ang^3
#
#
#
# Elastic Constant Matrix: (Units=GPa)
#
#
# Indices 1 2 3 4 5 6 
#
# 1 64.2174 22.6233 29.1029 0.0000 0.0000 0.0000
# 2 22.6233 64.2174 29.1029 0.0000 0.0000 0.0000
# 3 29.1029 29.1029 112.2080 0.0000 0.0000 0.0000
# 4 0.0000 0.0000 0.0000 34.9723 0.0000 0.0000
# 5 0.0000 0.0000 0.0000 0.0000 34.9723 0.0000
# 6 0.0000 0.0000 0.0000 0.0000 0.0000 20.7970
#
#
#
# Elastic Compliance Matrix: (Units=1/GPa)
#
#
# Indices 1 2 3 4 5 6 
#
# 1 0.018990 -0.005052 -0.003615 0.000000 0.000000 0.000000
# 2 -0.005052 0.018990 -0.003615 0.000000 0.000000 0.000000
# 3 -0.003615 -0.003615 0.010787 0.000000 0.000000 0.000000
# 4 0.000000 0.000000 0.000000 0.028594 0.000000 0.000000
# 5 0.000000 0.000000 0.000000 0.000000 0.028594 0.000000
# 6 0.000000 0.000000 0.000000 0.000000 0.000000 0.048084
#
#
# Mechanical properties :
#
#
# Convention : Reuss Voigt Hill
#
# Bulk Modulus (GPa) = 41.31623 44.70013 43.00818
# Shear Modulus (GPa) = 26.78503 28.80257 27.79380
#
# Velocity S-wave (km/s) = 3.91276 4.05745 3.98576
# Velocity P-wave (km/s) = 6.63539 6.89203 6.76492
#
# Compressibility (1/GPa) = 0.02420356
#
# Stress axis : x y z
#
# Youngs Moduli (GPa) = 52.65884 52.65884 92.70145
#
# Poissons Ratio (x) = 0.26602 0.33513
# Poissons Ratio (y) = 0.26602 0.33513
# Poissons Ratio (z) = 0.19037 0.19037
#
# Static dielectric constant tensor:
#      x y z
#    x 1.596880 0.000000 0.000000 
#    y 0.000000 1.596880 0.000000 
#    z 0.000000 0.000000 1.586490 
# 
# From -- ./inp_files/3690.got.cif
#   From: 2010.05.17/outbox.cif.g08.bks.cpg/sg189_2_cif.got.tgz:3690.got - 2010.05.20 12:14:34.
