data_PCOD9586833
_publ_section_title
;
Structure prediction by ZEFSAII (Michael W. Deem and Ramdas Pophale) SiO2 
 PCOD9586833
Probable space group: P -6 2 C
;
_chemical_formula_sum "Si O2"
_cell_formula_units_Z 42
_cell_length_a 13.896518
_cell_length_b 13.896518
_cell_length_c 11.162052
_cell_angle_alpha 90.000000
_cell_angle_beta 90.000000
_cell_angle_gamma 120.000000
_cell_volume 1866.752156
_symmetry_space_group_name_H-M "P -6 2 C"
_symmetry_group_IT_number 190
_symmetry_cell_setting 'hexagonal'
loop_
_space_group_symop_operation_xyz
x,y,z
-x+y,-x,1/2-z
-y,x-y,z
x,y,1/2-z
-x+y,-x,z
-y,x-y,1/2-z
x-y,-y,-z
-x,-x+y,-z
y,x,-z
y,x,1/2+z
x-y,-y,1/2+z
-x,-x+y,1/2+z
loop_
_atom_site_type_symbol
_atom_site_label
_atom_site_fract_x
_atom_site_fract_y
_atom_site_fract_z
Si Si1 0.244510 0.435488 0.117380
Si Si2 0.146749 0.458374 0.617196
Si Si3 0.984680 0.189224 0.623635
Si Si4 0.456628 0.456628 0.000000
O O1 0.253238 0.485707 0.250000
O O2 0.138152 0.311824 0.123987
O O3 0.353082 0.430916 0.082826
O O4 0.223410 0.490579 0.000538
O O5 0.198465 0.490841 0.750000
O O6 0.067701 0.508227 0.589227
O O7 0.069592 0.323409 0.618352
O O8 0.005004 0.149341 0.750000
O O9 0.000000 0.141882 0.500000
#
# Coordination Sequence:
#
# PCOD9586833 Si02
#       4
#    12  12  12   6
#     4  10  21  36  56  82 113 154 205 255 311 380
#     4  10  20  38  61  82 114 162 211 262 322 385
#     4   8  14  30  53  75  99 137 190 239 290 358
#     4  12  22  36  60  90 126 166 210 272 330 402
#
# _framework density 22.498968000000001
#
# number of rings (size 3 to 8) (size 9 to 14) (size 15 to 20)
#    0.000    2.286    4.286    0.857    0.000    3.429 
#    1.714    0.000    0.000    0.000    0.000    0.000 
#   38.571    0.000   15.429    0.000    5.143    0.000 
#
# Total GULP energy -234214.084995 kJ/mol
# GULP energy per Si atom -5576.525833 kJ/mol
# Density = 2.244776 g / cm^3
# Si number density = 22.498968 Si / 1000 Ang^3
#
#
#
# Elastic Constant Matrix: (Units=GPa)
#
#
# Indices 1 2 3 4 5 6 
#
# 1 13.1064 23.5228 41.8717 0.0000 0.0000 0.0000
# 2 23.5228 13.1064 41.8717 0.0000 0.0000 0.0000
# 3 41.8717 41.8717 303.7064 0.0000 0.0000 0.0000
# 4 0.0000 0.0000 0.0000 -20.6755 0.0000 0.0000
# 5 0.0000 0.0000 0.0000 0.0000 -20.6755 0.0000
# 6 0.0000 0.0000 0.0000 0.0000 0.0000 -5.2082
#
#
#
# Elastic Compliance Matrix: (Units=1/GPa)
#
#
# Indices 1 2 3 4 5 6 
#
# 1 -0.028068 0.067935 -0.005496 0.000000 0.000000 0.000000
# 2 0.067935 -0.028068 -0.005496 0.000000 0.000000 0.000000
# 3 -0.005496 -0.005496 0.004808 0.000000 0.000000 0.000000
# 4 0.000000 0.000000 0.000000 -0.048366 0.000000 0.000000
# 5 0.000000 0.000000 0.000000 0.000000 -0.048366 0.000000
# 6 0.000000 0.000000 0.000000 0.000000 0.000000 -0.192006
#
#
# Mechanical properties :
#
#
# Convention : Reuss Voigt Hill
#
# Bulk Modulus (GPa) = 15.98566 60.49463 38.24014
# Shear Modulus (GPa) = -11.54472 5.53171 -3.00650
#
# Velocity S-wave (km/s) = -2.26768 1.56971 -1.15723
# Velocity P-wave (km/s) = 0.51382 5.49831 3.90483
#
# Compressibility (1/GPa) = 0.06255606
#
# Stress axis : x y z
#
# Youngs Moduli (GPa) = -35.62769 -35.62769 207.97741
#
# Poissons Ratio (x) = 2.42036 1.14312
# Poissons Ratio (y) = 2.42036 1.14312
# Poissons Ratio (z) = -0.19582 -0.19582
#
# Static dielectric constant tensor:
#      x y z
#    x 1.825350 0.000000 0.000000 
#    y 0.000000 1.825350 0.000000 
#    z 0.000000 0.000000 1.919200 
# 
# From -- ./inp_files/1718.got.cif
#   From: 2010.05.17/outbox.cif.g08.bks.cpg/sg190_1_cif.got.tgz:1718.got - 2010.05.20 12:16:56.
