data_PCOD9586124
_publ_section_title
;
Structure prediction by ZEFSAII (Michael W. Deem and Ramdas Pophale) SiO2 
 PCOD9586124
Probable space group: P -6 2 M
;
_chemical_formula_sum "Si O2"
_cell_formula_units_Z 72
_cell_length_a 23.713613
_cell_length_b 23.713613
_cell_length_c 7.564011
_cell_angle_alpha 90.000000
_cell_angle_beta 90.000000
_cell_angle_gamma 120.000000
_cell_volume 3683.648984
_symmetry_space_group_name_H-M "P -6 2 M"
_symmetry_group_IT_number 189
_symmetry_cell_setting 'hexagonal'
loop_
_space_group_symop_operation_xyz
x,y,z
-x+y,-x,-z
-y,x-y,z
x,y,-z
-x+y,-x,z
-y,x-y,-z
x-y,-y,-z
-x,-x+y,-z
y,x,-z
y,x,z
x-y,-y,z
-x,-x+y,z
loop_
_atom_site_type_symbol
_atom_site_label
_atom_site_fract_x
_atom_site_fract_y
_atom_site_fract_z
Si Si1 0.433791 0.358425 0.786208
Si Si2 0.714873 0.714873 0.216087
Si Si3 0.154634 0.000000 0.296828
Si Si4 0.420518 0.119365 0.206248
Si Si5 0.779827 0.924957 0.283062
Si Si6 0.160504 0.791756 0.295389
Si Si7 0.076482 0.517256 0.785150
O O1 0.389267 0.389267 0.733736
O O2 0.402144 0.285354 0.721738
O O3 0.506945 0.410153 0.724630
O O4 0.434104 0.356470 0.000000
O O5 0.777436 0.777436 0.290514
O O6 0.710929 0.648375 0.276517
O O7 0.719949 0.719949 0.000000
O O8 0.134802 0.000000 0.500000
O O9 0.173353 0.070663 0.221781
O O10 0.415653 0.183847 0.218213
O O11 0.482126 0.115778 0.278860
O O12 0.419157 0.103252 0.000000
O O13 0.778796 0.923197 0.500000
O O14 0.705228 0.878133 0.221628
O O15 0.808338 0.000000 0.231408
O O16 0.171600 0.809757 0.500000
O O17 0.000000 0.470641 0.741185
O O18 0.079829 0.521545 0.000000
#
# Coordination Sequence:
#
# PCOD9586124 Si02
#       7
#    12   6   6  12  12  12  12
#     4   9  18  33  53  75  99 127 165 208 249 297
#     4  10  18  28  48  76 104 124 151 198 250 301
#     4  10  18  32  50  66  94 130 167 208 256 305
#     4  10  18  30  51  77 102 128 161 200 246 300
#     4   9  18  31  46  66  92 126 167 210 253 296
#     4  11  21  32  48  70 103 139 168 204 250 298
#     4   8  14  28  51  76  99 123 151 193 246 293
#
# _framework density 19.545836000000001
#
# number of rings (size 3 to 8) (size 9 to 14) (size 15 to 20)
#    0.000    2.500    2.500    2.000    0.000    1.000 
#    0.500    0.833    0.000    3.167    0.000    2.333 
#    0.000    0.000    0.000    0.000    0.000    0.000 
#
# Total GULP energy -401482.167874 kJ/mol
# GULP energy per Si atom -5576.141220 kJ/mol
# Density = 1.950135 g / cm^3
# Si number density = 19.545836 Si / 1000 Ang^3
#
#
#
# Elastic Constant Matrix: (Units=GPa)
#
#
# Indices 1 2 3 4 5 6 
#
# 1 105.9979 43.9024 -3.3310 0.0000 0.0000 0.0000
# 2 43.9024 105.9979 -3.3310 0.0000 0.0000 0.0000
# 3 -3.3310 -3.3310 41.0434 0.0000 0.0000 0.0000
# 4 0.0000 0.0000 0.0000 0.9885 0.0000 0.0000
# 5 0.0000 0.0000 0.0000 0.0000 0.9885 0.0000
# 6 0.0000 0.0000 0.0000 0.0000 0.0000 31.0477
#
#
#
# Elastic Compliance Matrix: (Units=1/GPa)
#
#
# Indices 1 2 3 4 5 6 
#
# 1 0.011400 -0.004704 0.000543 0.000000 0.000000 0.000000
# 2 -0.004704 0.011400 0.000543 0.000000 0.000000 0.000000
# 3 0.000543 0.000543 0.024453 0.000000 0.000000 0.000000
# 4 0.000000 0.000000 0.000000 1.011588 0.000000 0.000000
# 5 0.000000 0.000000 0.000000 0.000000 1.011588 0.000000
# 6 0.000000 0.000000 0.000000 0.000000 0.000000 0.032208
#
#
# Mechanical properties :
#
#
# Convention : Reuss Voigt Hill
#
# Bulk Modulus (GPa) = 24.98960 36.39108 30.69034
# Shear Modulus (GPa) = 2.35492 20.99156 11.67324
#
# Velocity S-wave (km/s) = 1.09883 3.28070 2.44647
# Velocity P-wave (km/s) = 3.79774 5.74538 4.86992
#
# Compressibility (1/GPa) = 0.04001665
#
# Stress axis : x y z
#
# Youngs Moduli (GPa) = 87.72127 87.72127 40.89540
#
# Poissons Ratio (x) = 0.41268 -0.02222
# Poissons Ratio (y) = 0.41268 -0.02222
# Poissons Ratio (z) = -0.04767 -0.04767
#
# Static dielectric constant tensor:
#      x y z
#    x 1.682790 0.000000 0.000000 
#    y 0.000000 1.682790 0.000000 
#    z 0.000000 0.000000 1.765190 
# 
# From -- ./inp_files/1371.got.cif
#   From: 2010.05.17/outbox.cif.g08.bks.cpg/sg189_1_cif.got.tgz:1371.got - 2010.05.20 12:14:34.
