data_PCOD9586159
_publ_section_title
;
Structure prediction by ZEFSAII (Michael W. Deem and Ramdas Pophale) SiO2 
 PCOD9586159
Probable space group: P -6 2 M
;
_chemical_formula_sum "Si O2"
_cell_formula_units_Z 84
_cell_length_a 25.384521
_cell_length_b 25.384521
_cell_length_c 7.391333
_cell_angle_alpha 90.000000
_cell_angle_beta 90.000000
_cell_angle_gamma 120.000000
_cell_volume 4124.690307
_symmetry_space_group_name_H-M "P -6 2 M"
_symmetry_group_IT_number 189
_symmetry_cell_setting 'hexagonal'
loop_
_space_group_symop_operation_xyz
x,y,z
-x+y,-x,-z
-y,x-y,z
x,y,-z
-x+y,-x,z
-y,x-y,-z
x-y,-y,-z
-x,-x+y,-z
y,x,-z
y,x,z
x-y,-y,z
-x,-x+y,z
loop_
_atom_site_type_symbol
_atom_site_label
_atom_site_fract_x
_atom_site_fract_y
_atom_site_fract_z
Si Si1 0.764937 0.302591 0.712319
Si Si2 0.634119 0.899924 0.781397
Si Si3 0.597698 0.766124 0.782861
Si Si4 0.934158 0.768479 0.779891
Si Si5 0.930382 0.199902 0.221090
Si Si6 0.634246 0.197447 0.277440
Si Si7 0.399492 0.464858 0.291071
O O1 0.754098 0.304889 0.500000
O O2 0.819154 0.287588 0.731747
O O3 0.702261 0.246291 0.784451
O O4 0.781260 0.368383 0.782398
O O5 0.602784 0.829559 0.722620
O O6 0.704357 0.929149 0.728591
O O7 0.596057 0.929693 0.712407
O O8 0.632872 0.902059 0.000000
O O9 0.659669 0.768626 0.721863
O O10 0.600270 0.767930 0.000000
O O11 0.871028 0.763750 0.721975
O O12 0.000000 0.822386 0.720617
O O13 0.933519 0.769668 0.000000
O O14 0.000000 0.235378 0.280922
O O15 0.930561 0.199952 0.000000
O O16 0.635197 0.195939 0.500000
O O17 0.612087 0.129071 0.213436
O O18 0.417160 0.481572 0.500000
O O19 0.447386 0.447386 0.209940
#
# Coordination Sequence:
#
# PCOD9586159 Si02
#       7
#    12  12  12  12  12  12  12
#     4  10  18  32  52  68  87 117 152 188 223 269
#     4   9  16  27  44  65  90 117 144 176 218 268
#     4   9  17  29  46  69  92 114 147 192 232 264
#     4   8  13  21  36  60  86 111 145 188 225 259
#     4   8  14  25  41  60  85 120 156 188 227 274
#     4   9  18  31  48  69  87 113 151 185 219 263
#     4  10  19  30  44  65  94 120 142 174 218 268
#
# _framework density 20.365167
#
# number of rings (size 3 to 8) (size 9 to 14) (size 15 to 20)
#    0.000    3.000    1.429    2.429    0.000    2.000 
#    0.000    2.143    0.000    1.571    0.000    2.000 
#    0.000    0.000    0.000    0.000    0.000    0.000 
#
# Total GULP energy -468466.010772 kJ/mol
# GULP energy per Si atom -5576.976319 kJ/mol
# Density = 2.031881 g / cm^3
# Si number density = 20.365167 Si / 1000 Ang^3
#
#
#
# Elastic Constant Matrix: (Units=GPa)
#
#
# Indices 1 2 3 4 5 6 
#
# 1 139.4797 101.1372 1.6373 0.0000 0.0000 0.0000
# 2 101.1372 139.4797 1.6373 0.0000 0.0000 0.0000
# 3 1.6373 1.6373 67.3972 0.0000 0.0000 0.0000
# 4 0.0000 0.0000 0.0000 14.0973 0.0000 0.0000
# 5 0.0000 0.0000 0.0000 0.0000 14.0973 0.0000
# 6 0.0000 0.0000 0.0000 0.0000 0.0000 19.1712
#
#
#
# Elastic Compliance Matrix: (Units=1/GPa)
#
#
# Indices 1 2 3 4 5 6 
#
# 1 0.015119 -0.010962 -0.000101 0.000000 0.000000 0.000000
# 2 -0.010962 0.015119 -0.000101 0.000000 0.000000 0.000000
# 3 -0.000101 -0.000101 0.014842 0.000000 0.000000 0.000000
# 4 0.000000 0.000000 0.000000 0.070935 0.000000 0.000000
# 5 0.000000 0.000000 0.000000 0.000000 0.070935 0.000000
# 6 0.000000 0.000000 0.000000 0.000000 0.000000 0.052162
#
#
# Mechanical properties :
#
#
# Convention : Reuss Voigt Hill
#
# Bulk Modulus (GPa) = 43.95015 61.68669 52.81842
# Shear Modulus (GPa) = 18.58566 25.60282 22.09424
#
# Velocity S-wave (km/s) = 3.02424 3.54953 3.29736
# Velocity P-wave (km/s) = 5.81572 6.86694 6.36308
#
# Compressibility (1/GPa) = 0.02275305
#
# Stress axis : x y z
#
# Youngs Moduli (GPa) = 66.14165 66.14165 67.37492
#
# Poissons Ratio (x) = 0.72503 0.00680
# Poissons Ratio (y) = 0.72503 0.00680
# Poissons Ratio (z) = 0.00668 0.00668
#
# Static dielectric constant tensor:
#      x y z
#    x 1.717350 0.000000 0.000000 
#    y 0.000000 1.717350 0.000000 
#    z 0.000000 0.000000 1.803240 
# 
# From -- ./inp_files/2240.got.cif
#   From: 2010.05.17/outbox.cif.g08.bks.cpg/sg189_2_cif.got.tgz:2240.got - 2010.05.20 12:14:34.
