data_PCOD9586398
_publ_section_title
;
Structure prediction by ZEFSAII (Michael W. Deem and Ramdas Pophale) SiO2 
 PCOD9586398
Probable space group: P -6 2 M
;
_chemical_formula_sum "Si O2"
_cell_formula_units_Z 84
_cell_length_a 19.320816
_cell_length_b 19.320816
_cell_length_c 13.740319
_cell_angle_alpha 90.000000
_cell_angle_beta 90.000000
_cell_angle_gamma 120.000000
_cell_volume 4441.998181
_symmetry_space_group_name_H-M "P -6 2 M"
_symmetry_group_IT_number 189
_symmetry_cell_setting 'hexagonal'
loop_
_space_group_symop_operation_xyz
x,y,z
-x+y,-x,-z
-y,x-y,z
x,y,-z
-x+y,-x,z
-y,x-y,-z
x-y,-y,-z
-x,-x+y,-z
y,x,-z
y,x,z
x-y,-y,z
-x,-x+y,z
loop_
_atom_site_type_symbol
_atom_site_label
_atom_site_fract_x
_atom_site_fract_y
_atom_site_fract_z
Si Si1 0.910624 0.238973 0.302556
Si Si2 0.329507 0.825143 0.382258
Si Si3 0.582670 0.492367 0.117745
Si Si4 0.598130 0.761105 0.115543
Si Si5 0.513445 0.339037 0.381842
Si Si6 0.334706 0.425367 0.881683
Si Si7 0.332626 0.243476 0.382546
O O1 0.885514 0.302617 0.341179
O O2 0.901144 0.235808 0.185927
O O3 0.842197 0.155192 0.344248
O O4 0.000000 0.266423 0.332423
O O5 0.328466 0.829618 0.500000
O O6 0.261478 0.734831 0.355043
O O7 0.415834 0.840882 0.350365
O O8 0.556514 0.556514 0.151433
O O9 0.674567 0.520766 0.138373
O O10 0.512798 0.405468 0.148891
O O11 0.578424 0.491862 0.000000
O O12 0.587822 0.836122 0.143883
O O13 0.613813 0.763884 0.000000
O O14 0.515199 0.342123 0.500000
O O15 0.422707 0.310440 0.352259
O O16 0.360860 0.360860 0.851384
O O17 0.335026 0.424523 0.000000
O O18 0.333653 0.240944 0.500000
O O19 0.270665 0.270665 0.351465
#
# Coordination Sequence:
#
# PCOD9586398 Si02
#       7
#    12  12  12  12  12  12  12
#     4  11  23  36  52  80 111 139 177 225 276 326
#     4   9  17  31  52  78 109 143 177 215 263 316
#     4   8  14  28  49  68  92 131 173 215 266 317
#     4  10  20  35  53  74 103 142 187 231 274 325
#     4   8  14  27  50  78 108 143 177 210 252 307
#     4   8  15  30  52  75  97 127 173 227 279 323
#     4   9  19  37  59  81 107 141 178 217 269 331
#
# _framework density 18.910406999999999
#
# number of rings (size 3 to 8) (size 9 to 14) (size 15 to 20)
#    0.000    3.000    0.000    2.857    0.000    4.286 
#    6.000    1.429    0.000    0.286    0.000    0.000 
#    0.000    0.000    0.000    0.000    0.000    0.000 
#
# Total GULP energy -468607.074959 kJ/mol
# GULP energy per Si atom -5578.655654 kJ/mol
# Density = 1.886737 g / cm^3
# Si number density = 18.910407 Si / 1000 Ang^3
#
#
#
# Elastic Constant Matrix: (Units=GPa)
#
#
# Indices 1 2 3 4 5 6 
#
# 1 119.0841 89.8302 19.2458 0.0000 0.0000 0.0000
# 2 89.8302 119.0841 19.2458 0.0000 0.0000 0.0000
# 3 19.2458 19.2458 64.4479 0.0000 0.0000 0.0000
# 4 0.0000 0.0000 0.0000 17.2292 0.0000 0.0000
# 5 0.0000 0.0000 0.0000 0.0000 17.2292 0.0000
# 6 0.0000 0.0000 0.0000 0.0000 0.0000 14.6269
#
#
#
# Elastic Compliance Matrix: (Units=1/GPa)
#
#
# Indices 1 2 3 4 5 6 
#
# 1 0.019624 -0.014559 -0.001513 0.000000 0.000000 0.000000
# 2 -0.014559 0.019624 -0.001513 0.000000 0.000000 0.000000
# 3 -0.001513 -0.001513 0.016420 0.000000 0.000000 0.000000
# 4 0.000000 0.000000 0.000000 0.058041 0.000000 0.000000
# 5 0.000000 0.000000 0.000000 0.000000 0.058041 0.000000
# 6 0.000000 0.000000 0.000000 0.000000 0.000000 0.068367
#
#
# Mechanical properties :
#
#
# Convention : Reuss Voigt Hill
#
# Bulk Modulus (GPa) = 48.78055 62.13996 55.46025
# Shear Modulus (GPa) = 17.72297 21.43669 19.57983
#
# Velocity S-wave (km/s) = 3.06471 3.37054 3.22125
# Velocity P-wave (km/s) = 6.19474 6.93390 6.57471
#
# Compressibility (1/GPa) = 0.02049997
#
# Stress axis : x y z
#
# Youngs Moduli (GPa) = 50.95684 50.95684 60.90191
#
# Poissons Ratio (x) = 0.74189 0.09212
# Poissons Ratio (y) = 0.74189 0.09212
# Poissons Ratio (z) = 0.07708 0.07708
#
# Static dielectric constant tensor:
#      x y z
#    x 1.637660 0.000000 0.000000 
#    y 0.000000 1.637660 0.000000 
#    z 0.000000 0.000000 1.727980 
# 
# From -- ./inp_files/2832.got.cif
#   From: 2010.05.17/outbox.cif.g08.bks.cpg/sg189_2_cif.got.tgz:2832.got - 2010.05.20 12:14:34.
