data_PCOD9586826
_publ_section_title
;
Structure prediction by ZEFSAII (Michael W. Deem and Ramdas Pophale) SiO2 
 PCOD9586826
Probable space group: P -6 2 C
;
_chemical_formula_sum "Si O2"
_cell_formula_units_Z 90
_cell_length_a 17.396226
_cell_length_b 17.396226
_cell_length_c 16.616380
_cell_angle_alpha 90.000000
_cell_angle_beta 90.000000
_cell_angle_gamma 120.000000
_cell_volume 4354.889396
_symmetry_space_group_name_H-M "P -6 2 C"
_symmetry_group_IT_number 190
_symmetry_cell_setting 'hexagonal'
loop_
_space_group_symop_operation_xyz
x,y,z
-x+y,-x,1/2-z
-y,x-y,z
x,y,1/2-z
-x+y,-x,z
-y,x-y,1/2-z
x-y,-y,-z
-x,-x+y,-z
y,x,-z
y,x,1/2+z
x-y,-y,1/2+z
-x,-x+y,1/2+z
loop_
_atom_site_type_symbol
_atom_site_label
_atom_site_fract_x
_atom_site_fract_y
_atom_site_fract_z
Si Si1 0.534779 0.863919 0.837848
Si Si2 0.333506 0.884485 0.397939
Si Si3 0.068419 0.829480 0.441591
Si Si4 0.825572 0.097128 0.161192
Si Si5 0.761346 0.320958 0.750000
Si Si6 0.421264 0.463468 0.414058
Si Si7 0.819538 0.558959 0.508088
Si Si8 0.981639 0.227663 0.847446
O O1 0.487777 0.832679 0.750000
O O2 0.623501 0.857971 0.831924
O O3 0.562733 0.967205 0.849636
O O4 0.506209 0.820943 0.927710
O O5 0.318181 0.816245 0.325854
O O6 0.437479 0.939724 0.413111
O O7 0.276871 0.820680 0.471309
O O8 0.296643 0.949935 0.374292
O O9 0.117683 0.784998 0.489522
O O10 0.138478 0.913728 0.393494
O O11 0.000000 0.839187 0.500000
O O12 0.997963 0.761357 0.378331
O O13 0.847419 0.077840 0.250000
O O14 0.919969 0.171102 0.126316
O O15 0.656974 0.246289 0.750000
O O16 0.419485 0.419485 0.500000
O O17 0.330844 0.467467 0.418299
O O18 0.974809 0.220377 0.750000
#
# Coordination Sequence:
#
# PCOD9586826 Si02
#       8
#    12  12  12  12   6  12  12  12
#     4  10  20  37  65  90 118 167 227 276 311 379
#     4  11  22  38  61  93 137 171 205 271 340 392
#     4  11  19  37  60  87 114 160 210 260 307 380
#     4  10  20  37  58  85 116 161 211 255 307 377
#     4  10  22  38  58  96 134 172 214 252 328 408
#     4  10  21  39  61  93 126 171 220 265 327 389
#     4  10  20  39  60  88 130 166 216 266 321 399
#     4  10  23  39  58  86 130 168 206 258 332 385
#
# _framework density 20.666426000000001
#
# number of rings (size 3 to 8) (size 9 to 14) (size 15 to 20)
#    0.133    1.600    3.333    1.600    0.933    1.600 
#    2.800    0.000    0.000    3.200    0.000    0.000 
#    1.333    0.000    0.800    0.000    0.000    0.000 
#
# Total GULP energy -501011.270028 kJ/mol
# GULP energy per Si atom -5566.791889 kJ/mol
# Density = 2.061939 g / cm^3
# Si number density = 20.666426 Si / 1000 Ang^3
#
#
#
# Elastic Constant Matrix: (Units=GPa)
#
#
# Indices 1 2 3 4 5 6 
#
# 1 75.4915 15.9462 8.8408 0.0000 0.0000 0.0000
# 2 15.9462 75.4915 8.8408 0.0000 0.0000 0.0000
# 3 8.8408 8.8408 70.0777 0.0000 0.0000 0.0000
# 4 0.0000 0.0000 0.0000 13.4208 0.0000 0.0000
# 5 0.0000 0.0000 0.0000 0.0000 13.4208 0.0000
# 6 0.0000 0.0000 0.0000 0.0000 0.0000 29.7726
#
#
#
# Elastic Compliance Matrix: (Units=1/GPa)
#
#
# Indices 1 2 3 4 5 6 
#
# 1 0.014002 -0.002792 -0.001414 0.000000 0.000000 0.000000
# 2 -0.002792 0.014002 -0.001414 0.000000 0.000000 0.000000
# 3 -0.001414 -0.001414 0.014627 0.000000 0.000000 0.000000
# 4 0.000000 0.000000 0.000000 0.074511 0.000000 0.000000
# 5 0.000000 0.000000 0.000000 0.000000 0.074511 0.000000
# 6 0.000000 0.000000 0.000000 0.000000 0.000000 0.033588
#
#
# Mechanical properties :
#
#
# Convention : Reuss Voigt Hill
#
# Bulk Modulus (GPa) = 31.85765 32.03515 31.94640
# Shear Modulus (GPa) = 20.24739 23.81835 22.03287
#
# Velocity S-wave (km/s) = 3.13345 3.39855 3.26869
# Velocity P-wave (km/s) = 5.34228 5.56192 5.45321
#
# Compressibility (1/GPa) = 0.03138963
#
# Stress axis : x y z
#
# Youngs Moduli (GPa) = 71.41882 71.41882 68.36809
#
# Poissons Ratio (x) = 0.19940 0.09669
# Poissons Ratio (y) = 0.19940 0.09669
# Poissons Ratio (z) = 0.10100 0.10100
#
# Static dielectric constant tensor:
#      x y z
#    x 1.732930 0.000000 0.000000 
#    y 0.000000 1.732930 0.000000 
#    z 0.000000 0.000000 1.901880 
# 
# From -- ./inp_files/3954.got.cif
#   From: 2010.05.17/outbox.cif.g08.bks.cpg/sg190_2_cif.got.tgz:3954.got - 2010.05.20 12:16:56.
