data_PCOD9586981
_publ_section_title
;
Structure prediction by ZEFSAII (Michael W. Deem and Ramdas Pophale) SiO2 
 PCOD9586981
Probable space group: P -6 2 C
;
_chemical_formula_sum "Si O2"
_cell_formula_units_Z 48
_cell_length_a 13.561667
_cell_length_b 13.561667
_cell_length_c 15.630747
_cell_angle_alpha 90.000000
_cell_angle_beta 90.000000
_cell_angle_gamma 120.000000
_cell_volume 2489.639799
_symmetry_space_group_name_H-M "P -6 2 C"
_symmetry_group_IT_number 190
_symmetry_cell_setting 'hexagonal'
loop_
_space_group_symop_operation_xyz
x,y,z
-x+y,-x,1/2-z
-y,x-y,z
x,y,1/2-z
-x+y,-x,z
-y,x-y,1/2-z
x-y,-y,-z
-x,-x+y,-z
y,x,-z
y,x,1/2+z
x-y,-y,1/2+z
-x,-x+y,1/2+z
loop_
_atom_site_type_symbol
_atom_site_label
_atom_site_fract_x
_atom_site_fract_y
_atom_site_fract_z
Si Si1 0.554459 0.638605 0.416761
Si Si2 0.992674 0.771656 0.904821
Si Si3 0.205332 0.002964 0.152315
Si Si4 0.692436 0.161245 0.847028
O O1 0.592225 0.592225 0.500000
O O2 0.668683 0.693452 0.359517
O O3 0.528176 0.744890 0.414085
O O4 0.437311 0.540788 0.377379
O O5 0.901094 0.814861 0.904211
O O6 0.936622 0.662107 0.845713
O O7 0.113218 0.870398 0.874504
O O8 0.000000 0.734289 0.000000
O O9 0.166067 0.984043 0.250000
O O10 0.707157 0.209314 0.750000
#
# Coordination Sequence:
#
# PCOD9586981 Si02
#       4
#    12  12  12  12
#     4  11  23  39  62  90 120 157 208 264 315 371
#     4  11  21  35  55  82 115 149 189 242 303 364
#     4  11  21  36  56  84 117 156 197 245 306 380
#     4  11  22  40  62  88 120 164 209 255 311 383
#
# _framework density 19.279897999999999
#
# number of rings (size 3 to 8) (size 9 to 14) (size 15 to 20)
#    0.000    1.000    0.000   11.500    0.000    0.000 
#    0.000    0.000    0.000    1.000    0.000    3.500 
#    0.000    0.000    0.000    0.000    0.000    0.000 
#
# Total GULP energy -267588.764732 kJ/mol
# GULP energy per Si atom -5574.765932 kJ/mol
# Density = 1.923602 g / cm^3
# Si number density = 19.279898 Si / 1000 Ang^3
#
#
#
# Elastic Constant Matrix: (Units=GPa)
#
#
# Indices 1 2 3 4 5 6 
#
# 1 105.2040 52.4145 12.4370 0.0000 0.0000 0.0000
# 2 52.4145 105.2040 12.4370 0.0000 0.0000 0.0000
# 3 12.4370 12.4370 94.7899 0.0000 0.0000 0.0000
# 4 0.0000 0.0000 0.0000 17.6099 0.0000 0.0000
# 5 0.0000 0.0000 0.0000 0.0000 17.6099 0.0000
# 6 0.0000 0.0000 0.0000 0.0000 0.0000 26.3948
#
#
#
# Elastic Compliance Matrix: (Units=1/GPa)
#
#
# Indices 1 2 3 4 5 6 
#
# 1 0.012711 -0.006232 -0.000850 0.000000 0.000000 0.000000
# 2 -0.006232 0.012711 -0.000850 0.000000 0.000000 0.000000
# 3 -0.000850 -0.000850 0.010773 0.000000 0.000000 0.000000
# 4 0.000000 0.000000 0.000000 0.056786 0.000000 0.000000
# 5 0.000000 0.000000 0.000000 0.000000 0.056786 0.000000
# 6 0.000000 0.000000 0.000000 0.000000 0.000000 0.037886
#
#
# Mechanical properties :
#
#
# Convention : Reuss Voigt Hill
#
# Bulk Modulus (GPa) = 49.18899 51.08609 50.13754
# Shear Modulus (GPa) = 23.77620 27.51688 25.64654
#
# Velocity S-wave (km/s) = 3.51552 3.78197 3.65118
# Velocity P-wave (km/s) = 6.48437 6.75468 6.62090
#
# Compressibility (1/GPa) = 0.02032975
#
# Stress axis : x y z
#
# Youngs Moduli (GPa) = 78.67286 78.67286 92.82717
#
# Poissons Ratio (x) = 0.49031 0.07891
# Poissons Ratio (y) = 0.49031 0.07891
# Poissons Ratio (z) = 0.06687 0.06687
#
# Static dielectric constant tensor:
#      x y z
#    x 1.689180 0.000000 0.000000 
#    y 0.000000 1.689180 0.000000 
#    z 0.000000 0.000000 1.681930 
# 
# From -- ./inp_files/2582.got.cif
#   From: 2010.05.17/outbox.cif.g08.bks.cpg/sg190_2_cif.got.tgz:2582.got - 2010.05.20 12:16:56.
