data_PCOD9586728
_publ_section_title
;
Structure prediction by ZEFSAII (Michael W. Deem and Ramdas Pophale) SiO2 
 PCOD9586728
Probable space group: P -6 2 C
;
_chemical_formula_sum "Si O2"
_cell_formula_units_Z 72
_cell_length_a 15.361454
_cell_length_b 15.361454
_cell_length_c 14.880178
_cell_angle_alpha 90.000000
_cell_angle_beta 90.000000
_cell_angle_gamma 120.000000
_cell_volume 3040.908884
_symmetry_space_group_name_H-M "P -6 2 C"
_symmetry_group_IT_number 190
_symmetry_cell_setting 'hexagonal'
loop_
_space_group_symop_operation_xyz
x,y,z
-x+y,-x,1/2-z
-y,x-y,z
x,y,1/2-z
-x+y,-x,z
-y,x-y,1/2-z
x-y,-y,-z
-x,-x+y,-z
y,x,-z
y,x,1/2+z
x-y,-y,1/2+z
-x,-x+y,1/2+z
loop_
_atom_site_type_symbol
_atom_site_label
_atom_site_fract_x
_atom_site_fract_y
_atom_site_fract_z
Si Si1 0.787221 0.948054 0.595341
Si Si2 0.195159 0.754721 0.641706
Si Si3 0.764937 0.561850 0.859921
Si Si4 0.581973 0.470305 0.359912
Si Si5 0.055560 0.217239 0.351073
Si Si6 0.539156 0.426479 0.640439
O O1 0.670014 0.893777 0.618400
O O2 0.819740 0.863745 0.599370
O O3 0.806813 0.000000 0.500000
O O4 0.862651 0.043656 0.654754
O O5 0.199122 0.754714 0.750000
O O6 0.175249 0.645897 0.612487
O O7 0.303912 0.840469 0.608455
O O8 0.769808 0.568527 0.750000
O O9 0.785382 0.670385 0.890944
O O10 0.847981 0.534485 0.891145
O O11 0.655340 0.471425 0.883706
O O12 0.584264 0.473303 0.250000
O O13 0.507481 0.509095 0.388943
O O14 0.021244 0.223957 0.250000
O O15 0.534445 0.422729 0.750000
#
# Coordination Sequence:
#
# PCOD9586728 Si02
#       6
#    12  12  12  12  12  12
#     4  12  25  40  59  86 124 165 206 257 319 387
#     4  10  19  35  60  93 126 161 205 259 316 370
#     4   9  17  28  49  79 114 151 191 237 293 355
#     4   9  17  29  52  85 119 150 195 255 307 352
#     4  11  22  39  61  86 115 157 210 263 313 372
#     4   9  15  25  41  71 111 148 181 227 287 346
#
# _framework density 23.677130999999999
#
# number of rings (size 3 to 8) (size 9 to 14) (size 15 to 20)
#    0.000    2.000    0.000    5.000    0.000    8.000 
#    0.000    0.000    0.000    6.000    0.000    0.000 
#    0.000    0.000    0.000    0.000    0.000    1.000 
#
# Total GULP energy -402905.115832 kJ/mol
# GULP energy per Si atom -5595.904387 kJ/mol
# Density = 2.362324 g / cm^3
# Si number density = 23.677131 Si / 1000 Ang^3
#
#
#
# Elastic Constant Matrix: (Units=GPa)
#
#
# Indices 1 2 3 4 5 6 
#
# 1 105.2705 15.0132 -9.6825 0.0000 0.0000 0.0000
# 2 15.0132 105.2705 -9.6825 0.0000 0.0000 0.0000
# 3 -9.6825 -9.6825 46.2673 0.0000 0.0000 0.0000
# 4 0.0000 0.0000 0.0000 16.0332 0.0000 0.0000
# 5 0.0000 0.0000 0.0000 0.0000 16.0332 0.0000
# 6 0.0000 0.0000 0.0000 0.0000 0.0000 45.1286
#
#
#
# Elastic Compliance Matrix: (Units=1/GPa)
#
#
# Indices 1 2 3 4 5 6 
#
# 1 0.009841 -0.001238 0.001800 0.000000 0.000000 0.000000
# 2 -0.001238 0.009841 0.001800 0.000000 0.000000 0.000000
# 3 0.001800 0.001800 0.022367 0.000000 0.000000 0.000000
# 4 0.000000 0.000000 0.000000 0.062371 0.000000 0.000000
# 5 0.000000 0.000000 0.000000 0.000000 0.062371 0.000000
# 6 0.000000 0.000000 0.000000 0.000000 0.000000 0.022159
#
#
# Mechanical properties :
#
#
# Convention : Reuss Voigt Hill
#
# Bulk Modulus (GPa) = 21.37840 27.56719 24.47279
# Shear Modulus (GPa) = 25.02300 32.84969 28.93634
#
# Velocity S-wave (km/s) = 3.25444 3.72882 3.49968
# Velocity P-wave (km/s) = 4.81358 5.49610 5.16612
#
# Compressibility (1/GPa) = 0.04677619
#
# Stress axis : x y z
#
# Youngs Moduli (GPa) = 101.61062 101.61062 44.70849
#
# Poissons Ratio (x) = 0.12579 -0.08050
# Poissons Ratio (y) = 0.12579 -0.08050
# Poissons Ratio (z) = -0.18295 -0.18295
#
# Static dielectric constant tensor:
#      x y z
#    x 1.843230 0.000000 0.000000 
#    y 0.000000 1.843230 0.000000 
#    z 0.000000 0.000000 2.000030 
# 
# From -- ./inp_files/3744.got.cif
#   From: 2010.05.17/outbox.cif.g08.bks.cpg/sg190_2_cif.got.tgz:3744.got - 2010.05.20 12:16:56.
