data_PCOD9586814
_publ_section_title
;
Structure prediction by ZEFSAII (Michael W. Deem and Ramdas Pophale) SiO2 
 PCOD9586814
Probable space group: P -6 2 C
;
_chemical_formula_sum "Si O2"
_cell_formula_units_Z 68
_cell_length_a 11.045355
_cell_length_b 11.045355
_cell_length_c 32.208244
_cell_angle_alpha 90.000000
_cell_angle_beta 90.000000
_cell_angle_gamma 120.000000
_cell_volume 3402.961509
_symmetry_space_group_name_H-M "P -6 2 C"
_symmetry_group_IT_number 190
_symmetry_cell_setting 'hexagonal'
loop_
_space_group_symop_operation_xyz
x,y,z
-x+y,-x,1/2-z
-y,x-y,z
x,y,1/2-z
-x+y,-x,z
-y,x-y,1/2-z
x-y,-y,-z
-x,-x+y,-z
y,x,-z
y,x,1/2+z
x-y,-y,1/2+z
-x,-x+y,1/2+z
loop_
_atom_site_type_symbol
_atom_site_label
_atom_site_fract_x
_atom_site_fract_y
_atom_site_fract_z
Si Si1 0.663557 0.062528 0.659717
Si Si2 0.666668 0.333334 0.388692
Si Si3 0.287275 0.000278 0.250000
Si Si4 0.828977 0.657953 0.387625
Si Si5 0.336443 0.937473 0.159717
Si Si6 0.286997 0.287275 0.750000
Si Si7 0.333334 0.666668 0.510818
Si Si8 0.834111 0.165889 0.013042
O O1 0.775142 0.224858 0.659322
O O2 0.518426 0.036851 0.641896
O O3 0.646214 0.013170 0.707358
O O4 0.719702 0.979159 0.633080
O O5 0.746890 0.493778 0.374954
O O6 0.666668 0.333334 0.438913
O O7 0.288912 0.144456 0.250000
O O8 0.353787 0.986831 0.207358
O O9 0.129093 0.870907 0.250000
O O10 0.740544 0.719702 0.366920
O O11 0.833819 0.667639 0.436883
O O12 0.249328 0.750675 0.499084
O O13 0.000000 0.249433 0.000000
O O14 0.750566 0.000000 0.000000
#
# Coordination Sequence:
#
# PCOD9586814 Si02
#       8
#    12   4   6  12  12   6   4  12
#     4  11  23  40  63  93 128 167 212 261 319 380
#     4   9  18  39  66  91 124 156 198 270 316 370
#     4  10  20  36  58  90 126 167 209 262 314 376
#     4  11  22  40  67  90 126 166 211 261 326 380
#     4  11  23  40  63  93 128 167 212 261 319 380
#     4  10  20  36  58  90 126 167 209 262 314 376
#     4   9  21  45  75  96 127 175 222 259 340 411
#     4  11  25  45  68 101 137 173 219 284 344 409
#
# _framework density 19.982596000000001
#
# number of rings (size 3 to 8) (size 9 to 14) (size 15 to 20)
#    0.000    1.412    3.529    1.765    2.471    0.000 
#    1.059    1.765    0.000    0.000    0.000    0.000 
#    0.000    0.000    0.000    0.000    0.000    0.000 
#
# Total GULP energy -379309.942617 kJ/mol
# GULP energy per Si atom -5578.087391 kJ/mol
# Density = 1.993711 g / cm^3
# Si number density = 19.982596 Si / 1000 Ang^3
#
#
#
# Elastic Constant Matrix: (Units=GPa)
#
#
# Indices 1 2 3 4 5 6 
#
# 1 78.8020 85.8385 20.1595 0.0001 0.0001 0.0000
# 2 85.8385 78.8018 20.1595 0.0000 0.0000 0.0000
# 3 20.1595 20.1595 72.9454 0.0000 0.0000 0.0000
# 4 0.0001 0.0000 0.0000 3.7075 0.0000 0.0000
# 5 0.0001 0.0000 0.0000 0.0000 3.7075 0.0000
# 6 0.0000 0.0000 0.0000 0.0000 0.0000 -3.5183
#
#
#
# Elastic Compliance Matrix: (Units=1/GPa)
#
#
# Indices 1 2 3 4 5 6 
#
# 1 -0.067800 0.074314 -0.001800 0.000002 0.000001 0.000001
# 2 0.074314 -0.067800 -0.001800 -0.000002 -0.000001 -0.000001
# 3 -0.001800 -0.001800 0.014704 0.000000 0.000000 0.000000
# 4 0.000002 -0.000002 0.000000 0.269721 0.000000 0.000002
# 5 0.000001 -0.000001 0.000000 0.000000 0.269725 -0.000004
# 6 0.000001 -0.000001 0.000000 0.000002 -0.000004 -0.284231
#
#
# Mechanical properties :
#
#
# Convention : Reuss Voigt Hill
#
# Bulk Modulus (GPa) = 48.70499 53.65157 51.17828
# Shear Modulus (GPa) = -18982.53854 7.73879 -9487.39987
#
# Velocity S-wave (km/s) = -97.57130 1.97007 -68.97926
# Velocity P-wave (km/s) = 112.55718 5.66413 79.48911
#
# Compressibility (1/GPa) = 0.02053178
#
# Stress axis : x y z
#
# Youngs Moduli (GPa) = -14.74934 -14.74931 68.00849
#
# Poissons Ratio (x) = 1.09609 0.12244
# Poissons Ratio (y) = 1.09609 0.12245
# Poissons Ratio (z) = -0.02656 -0.02656
#
# Static dielectric constant tensor:
#      x y z
#    x 1.682640 0.000000 0.000000 
#    y 0.000000 1.682640 0.000000 
#    z 0.000000 0.000000 1.675320 
# 
# From -- ./inp_files/5170.got.cif
#   From: 2010.05.17/outbox.cif.g08.bks.cpg/sg190_3_cif.got.tgz:5170.got - 2010.05.20 12:16:56.
