data_PCOD9586376
_publ_section_title
;
Structure prediction by ZEFSAII (Michael W. Deem and Ramdas Pophale) SiO2 
 PCOD9586376
Probable space group: P -6 2 M
;
_chemical_formula_sum "Si O2"
_cell_formula_units_Z 52
_cell_length_a 13.653645
_cell_length_b 13.653645
_cell_length_c 17.392108
_cell_angle_alpha 90.000000
_cell_angle_beta 90.000000
_cell_angle_gamma 120.000000
_cell_volume 2807.889863
_symmetry_space_group_name_H-M "P -6 2 M"
_symmetry_group_IT_number 189
_symmetry_cell_setting 'hexagonal'
loop_
_space_group_symop_operation_xyz
x,y,z
-x+y,-x,-z
-y,x-y,z
x,y,-z
-x+y,-x,z
-y,x-y,-z
x-y,-y,-z
-x,-x+y,-z
y,x,-z
y,x,z
x-y,-y,z
-x,-x+y,z
loop_
_atom_site_type_symbol
_atom_site_label
_atom_site_fract_x
_atom_site_fract_y
_atom_site_fract_z
Si Si1 0.333334 0.666667 0.091468
Si Si2 0.735277 0.867147 0.260706
Si Si3 0.430200 0.875481 0.648503
Si Si4 0.864050 0.521116 0.190004
Si Si5 0.403973 0.216268 0.413527
O O1 0.440193 0.781219 0.124759
O O2 0.333334 0.666668 0.000000
O O3 0.789636 0.789636 0.242122
O O4 0.624474 0.842570 0.211407
O O5 0.691017 0.846778 0.348837
O O6 0.825119 0.000000 0.250994
O O7 0.444884 0.836231 0.732755
O O8 0.312818 0.806782 0.606265
O O9 0.532215 0.882201 0.599464
O O10 0.449396 0.000000 0.659262
O O11 0.000000 0.579117 0.176018
O O12 0.363167 0.182985 0.500000
#
# Coordination Sequence:
#
# PCOD9586376 Si02
#       5
#     4  12  12  12  12
#     4  12  24  36  60  96 127 152 172 204 267 336
#     4  10  21  37  57  78 103 142 191 240 285 333
#     4  10  20  34  52  70  94 135 182 224 262 310
#     4   9  20  39  59  81 112 148 187 227 266 319
#     4  11  21  31  46  72 104 138 179 230 289 341
#
# _framework density 18.519245000000002
#
# number of rings (size 3 to 8) (size 9 to 14) (size 15 to 20)
#    0.000    1.846    0.000    6.923    0.000    7.846 
#    0.000    0.000    0.000    1.385    0.000    0.000 
#    0.000    1.846    0.000    0.000    0.000    0.000 
#
# Total GULP energy -290253.117915 kJ/mol
# GULP energy per Si atom -5581.790729 kJ/mol
# Density = 1.847709 g / cm^3
# Si number density = 18.519245 Si / 1000 Ang^3
#
#
#
# Elastic Constant Matrix: (Units=GPa)
#
#
# Indices 1 2 3 4 5 6 
#
# 1 87.1690 45.4974 42.5308 0.0000 0.0000 0.0000
# 2 45.4974 87.1700 42.5311 0.0000 0.0000 0.0001
# 3 42.5308 42.5311 116.1761 0.0000 0.0001 0.0000
# 4 0.0000 0.0000 0.0000 3.4581 0.0000 0.0000
# 5 0.0000 0.0000 0.0001 0.0000 3.4581 0.0000
# 6 0.0000 0.0001 0.0000 0.0000 0.0000 20.8361
#
#
#
# Elastic Compliance Matrix: (Units=1/GPa)
#
#
# Indices 1 2 3 4 5 6 
#
# 1 0.016923 -0.007074 -0.003606 0.000000 0.000000 0.000000
# 2 -0.007074 0.016923 -0.003606 0.000000 0.000000 0.000000
# 3 -0.003606 -0.003606 0.011248 0.000000 0.000000 0.000000
# 4 0.000000 0.000000 0.000000 0.289176 -0.000001 0.000000
# 5 0.000000 0.000000 0.000000 -0.000001 0.289177 0.000000
# 6 0.000000 0.000000 0.000000 0.000000 0.000000 0.047994
#
#
# Mechanical properties :
#
#
# Convention : Reuss Voigt Hill
#
# Bulk Modulus (GPa) = 60.51946 61.29263 60.90605
# Shear Modulus (GPa) = 7.08698 16.21419 11.65058
#
# Velocity S-wave (km/s) = 1.95835 2.96215 2.51092
# Velocity P-wave (km/s) = 6.15335 6.69833 6.43162
#
# Compressibility (1/GPa) = 0.01652361
#
# Stress axis : x y z
#
# Youngs Moduli (GPa) = 59.08998 59.09065 88.90653
#
# Poissons Ratio (x) = 0.41798 0.32059
# Poissons Ratio (y) = 0.41798 0.32058
# Poissons Ratio (z) = 0.21307 0.21307
#
# Static dielectric constant tensor:
#      x y z
#    x 1.677570 0.000000 0.000000 
#    y 0.000000 1.677570 0.000000 
#    z 0.000000 0.000000 1.607870 
# 
# From -- ./inp_files/2444.got.cif
#   From: 2010.05.17/outbox.cif.g08.bks.cpg/sg189_2_cif.got.tgz:2444.got - 2010.05.20 12:14:34.
