data_PCOD9586439
_publ_section_title
;
Structure prediction by ZEFSAII (Michael W. Deem and Ramdas Pophale) SiO2 
 PCOD9586439
Probable space group: P -6 2 M
;
_chemical_formula_sum "Si O2"
_cell_formula_units_Z 48
_cell_length_a 18.705987
_cell_length_b 18.705987
_cell_length_c 8.926269
_cell_angle_alpha 90.000000
_cell_angle_beta 90.000000
_cell_angle_gamma 120.000000
_cell_volume 2704.966299
_symmetry_space_group_name_H-M "P -6 2 M"
_symmetry_group_IT_number 189
_symmetry_cell_setting 'hexagonal'
loop_
_space_group_symop_operation_xyz
x,y,z
-x+y,-x,-z
-y,x-y,z
x,y,-z
-x+y,-x,z
-y,x-y,-z
x-y,-y,-z
-x,-x+y,-z
y,x,-z
y,x,z
x-y,-y,z
-x,-x+y,z
loop_
_atom_site_type_symbol
_atom_site_label
_atom_site_fract_x
_atom_site_fract_y
_atom_site_fract_z
Si Si1 0.242368 0.000000 0.176634
Si Si2 0.759040 0.601839 0.320483
Si Si3 0.093056 0.000000 0.326467
Si Si4 0.587919 0.490276 0.821935
Si Si5 0.905034 0.567340 0.679902
O O1 0.236449 0.918863 0.249017
O O2 0.158678 0.000000 0.216350
O O3 0.255573 0.000000 0.000000
O O4 0.755563 0.606086 0.500000
O O5 0.674870 0.524768 0.259750
O O6 0.838723 0.594385 0.279598
O O7 0.117795 0.000000 0.500000
O O8 0.000000 0.922930 0.307433
O O9 0.553747 0.553747 0.792876
O O10 0.517348 0.402926 0.759438
O O11 0.597085 0.486694 0.000000
O O12 0.901128 0.555065 0.500000
O O13 0.000000 0.634415 0.717400
#
# Coordination Sequence:
#
# PCOD9586439 Si02
#       5
#     6  12   6  12  12
#     4  12  24  36  56  88 123 156 197 246 296 352
#     4  11  22  37  60  87 115 155 200 243 287 343
#     4   8  18  38  60  80 109 154 201 244 292 348
#     4  10  20  36  59  85 115 150 186 234 290 346
#     4   9  20  39  61  85 113 148 192 239 286 343
#
# _framework density 17.745139000000002
#
# number of rings (size 3 to 8) (size 9 to 14) (size 15 to 20)
#    0.250    1.750    1.250    2.625    0.000    4.500 
#    1.500    2.500    0.000    0.000    0.000    0.000 
#    0.000    0.000    0.000    0.000    0.000    0.000 
#
# Total GULP energy -267909.906675 kJ/mol
# GULP energy per Si atom -5581.456389 kJ/mol
# Density = 1.770475 g / cm^3
# Si number density = 17.745139 Si / 1000 Ang^3
#
#
#
# Elastic Constant Matrix: (Units=GPa)
#
#
# Indices 1 2 3 4 5 6 
#
# 1 131.7013 83.2502 63.4806 0.0000 0.0000 0.0000
# 2 83.2502 131.7013 63.4806 0.0000 0.0000 0.0000
# 3 63.4806 63.4806 69.8158 0.0000 0.0000 0.0000
# 4 0.0000 0.0000 0.0000 10.6050 0.0000 0.0000
# 5 0.0000 0.0000 0.0000 0.0000 10.6050 0.0000
# 6 0.0000 0.0000 0.0000 0.0000 0.0000 24.2255
#
#
#
# Elastic Compliance Matrix: (Units=1/GPa)
#
#
# Indices 1 2 3 4 5 6 
#
# 1 0.015344 -0.005295 -0.009137 0.000000 0.000000 0.000000
# 2 -0.005295 0.015344 -0.009137 0.000000 0.000000 0.000000
# 3 -0.009137 -0.009137 0.030940 0.000000 0.000000 0.000000
# 4 0.000000 0.000000 0.000000 0.094295 0.000000 0.000000
# 5 0.000000 0.000000 0.000000 0.000000 0.094295 0.000000
# 6 0.000000 0.000000 0.000000 0.000000 0.000000 0.041279
#
#
# Mechanical properties :
#
#
# Convention : Reuss Voigt Hill
#
# Bulk Modulus (GPa) = 69.01840 83.73791 76.37816
# Shear Modulus (GPa) = 14.55745 17.28756 15.92250
#
# Velocity S-wave (km/s) = 2.86730 3.12463 2.99873
# Velocity P-wave (km/s) = 7.06687 7.76591 7.42462
#
# Compressibility (1/GPa) = 0.01448889
#
# Stress axis : x y z
#
# Youngs Moduli (GPa) = 65.17092 65.17092 32.32094
#
# Poissons Ratio (x) = 0.34509 0.29533
# Poissons Ratio (y) = 0.34509 0.29533
# Poissons Ratio (z) = 0.59548 0.59548
#
# Static dielectric constant tensor:
#      x y z
#    x 1.595800 0.000000 0.000000 
#    y 0.000000 1.595800 0.000000 
#    z 0.000000 0.000000 1.586710 
# 
# From -- ./inp_files/641.got.cif
#   From: 2010.05.17/outbox.cif.g08.bks.cpg/sg189_1_cif.got.tgz:641.got - 2010.05.20 12:14:34.
