data_PCOD9586115
_publ_section_title
;
Structure prediction by ZEFSAII (Michael W. Deem and Ramdas Pophale) SiO2 
 PCOD9586115
Probable space group: P -6 2 M
;
_chemical_formula_sum "Si O2"
_cell_formula_units_Z 72
_cell_length_a 24.777898
_cell_length_b 24.777898
_cell_length_c 7.516450
_cell_angle_alpha 90.000000
_cell_angle_beta 90.000000
_cell_angle_gamma 120.000000
_cell_volume 3996.431065
_symmetry_space_group_name_H-M "P -6 2 M"
_symmetry_group_IT_number 189
_symmetry_cell_setting 'hexagonal'
loop_
_space_group_symop_operation_xyz
x,y,z
-x+y,-x,-z
-y,x-y,z
x,y,-z
-x+y,-x,z
-y,x-y,-z
x-y,-y,-z
-x,-x+y,-z
y,x,-z
y,x,z
x-y,-y,z
-x,-x+y,z
loop_
_atom_site_type_symbol
_atom_site_label
_atom_site_fract_x
_atom_site_fract_y
_atom_site_fract_z
Si Si1 0.857353 0.927877 0.782951
Si Si2 0.191756 0.263966 0.783163
Si Si3 0.262720 0.737458 0.713622
Si Si4 0.594381 0.191325 0.281658
Si Si5 0.861753 0.596034 0.210329
Si Si6 0.069201 0.589680 0.291434
O O1 0.883835 0.883835 0.722067
O O2 0.787937 0.910352 0.725547
O O3 0.903096 0.000000 0.731776
O O4 0.857095 0.926846 0.000000
O O5 0.237552 0.237552 0.733177
O O6 0.219542 0.334612 0.720565
O O7 0.190287 0.264230 0.000000
O O8 0.265666 0.736345 0.500000
O O9 0.332569 0.782600 0.778192
O O10 0.236669 0.666156 0.773356
O O11 0.210160 0.755143 0.757653
O O12 0.594197 0.190709 0.500000
O O13 0.576741 0.122524 0.218568
O O14 0.902956 0.566937 0.280858
O O15 0.872011 0.601258 0.000000
O O16 0.064313 0.574383 0.500000
O O17 0.000000 0.552187 0.213408
#
# Coordination Sequence:
#
# PCOD9586115 Si02
#       6
#    12  12  12  12  12  12
#     4   8  12  18  30  49  72  98 129 165 202 237
#     4   8  14  23  34  50  74 104 135 164 196 237
#     4   9  16  28  45  63  82 105 135 169 204 243
#     4   8  14  25  43  63  80 102 131 164 203 244
#     4  10  18  27  40  59  84 113 140 165 199 244
#     4   9  17  29  45  65  86 107 136 174 210 245
#
# _framework density 18.016074
#
# number of rings (size 3 to 8) (size 9 to 14) (size 15 to 20)
#    0.000    3.333    0.000    3.500    0.000    3.000 
#    0.000    3.333    0.000    1.000    0.000    0.000 
#    0.000    2.000    0.000    2.000    0.000   19.667 
#
# Total GULP energy -401209.747529 kJ/mol
# GULP energy per Si atom -5572.357605 kJ/mol
# Density = 1.797507 g / cm^3
# Si number density = 18.016074 Si / 1000 Ang^3
#
#
#
# Elastic Constant Matrix: (Units=GPa)
#
#
# Indices 1 2 3 4 5 6 
#
# 1 154.0734 108.2719 0.6253 0.0000 0.0000 0.0000
# 2 108.2719 154.0734 0.6253 0.0000 0.0000 0.0000
# 3 0.6253 0.6253 44.8038 0.0000 0.0000 0.0000
# 4 0.0000 0.0000 0.0000 10.5498 0.0000 0.0000
# 5 0.0000 0.0000 0.0000 0.0000 10.5498 0.0000
# 6 0.0000 0.0000 0.0000 0.0000 0.0000 22.9008
#
#
#
# Elastic Compliance Matrix: (Units=1/GPa)
#
#
# Indices 1 2 3 4 5 6 
#
# 1 0.012823 -0.009011 -0.000053 0.000000 0.000000 0.000000
# 2 -0.009011 0.012823 -0.000053 0.000000 0.000000 0.000000
# 3 -0.000053 -0.000053 0.022321 0.000000 0.000000 0.000000
# 4 0.000000 0.000000 0.000000 0.094788 0.000000 0.000000
# 5 0.000000 0.000000 0.000000 0.000000 0.094788 0.000000
# 6 0.000000 0.000000 0.000000 0.000000 0.000000 0.043667
#
#
# Mechanical properties :
#
#
# Convention : Reuss Voigt Hill
#
# Bulk Modulus (GPa) = 33.63353 63.55508 48.59430
# Shear Modulus (GPa) = 16.16267 25.02862 20.59565
#
# Velocity S-wave (km/s) = 2.99845 3.73129 3.38477
# Velocity P-wave (km/s) = 5.54047 7.34281 6.50437
#
# Compressibility (1/GPa) = 0.02973224
#
# Stress axis : x y z
#
# Youngs Moduli (GPa) = 77.98683 77.98683 44.80086
#
# Poissons Ratio (x) = 0.70271 0.00238
# Poissons Ratio (y) = 0.70271 0.00238
# Poissons Ratio (z) = 0.00415 0.00415
#
# Static dielectric constant tensor:
#      x y z
#    x 1.615660 0.000000 0.000000 
#    y 0.000000 1.615660 0.000000 
#    z 0.000000 0.000000 1.715030 
# 
# From -- ./inp_files/1290.got.cif
#   From: 2010.05.17/outbox.cif.g08.bks.cpg/sg189_1_cif.got.tgz:1290.got - 2010.05.20 12:14:34.
