data_PCOD9586169
_publ_section_title
;
Structure prediction by ZEFSAII (Michael W. Deem and Ramdas Pophale) SiO2 
 PCOD9586169
Probable space group: P -6 2 M
;
_chemical_formula_sum "Si O2"
_cell_formula_units_Z 76
_cell_length_a 17.629393
_cell_length_b 17.629393
_cell_length_c 14.783340
_cell_angle_alpha 90.000000
_cell_angle_beta 90.000000
_cell_angle_gamma 120.000000
_cell_volume 3979.036432
_symmetry_space_group_name_H-M "P -6 2 M"
_symmetry_group_IT_number 189
_symmetry_cell_setting 'hexagonal'
loop_
_space_group_symop_operation_xyz
x,y,z
-x+y,-x,-z
-y,x-y,z
x,y,-z
-x+y,-x,z
-y,x-y,-z
x-y,-y,-z
-x,-x+y,-z
y,x,-z
y,x,z
x-y,-y,z
-x,-x+y,z
loop_
_atom_site_type_symbol
_atom_site_label
_atom_site_fract_x
_atom_site_fract_y
_atom_site_fract_z
Si Si1 0.666668 0.333334 0.887667
Si Si2 0.408839 0.513776 0.605170
Si Si3 0.781140 0.251795 0.141488
Si Si4 0.192761 0.095742 0.390022
Si Si5 0.583099 0.895576 0.000000
Si Si6 0.897413 0.400700 0.000000
Si Si7 0.430328 0.103998 0.312261
Si Si8 0.780144 0.160233 0.603007
O O1 0.569291 0.300380 0.851840
O O2 0.666667 0.333334 0.000000
O O3 0.410040 0.541635 0.500000
O O4 0.450521 0.450521 0.605134
O O5 0.472182 0.595550 0.666941
O O6 0.310067 0.458181 0.640981
O O7 0.849172 0.336457 0.083049
O O8 0.835624 0.264611 0.231716
O O9 0.745108 0.161214 0.086251
O O10 0.199799 0.095744 0.500000
O O11 0.115723 0.115723 0.369336
O O12 0.283749 0.175279 0.355245
O O13 0.169036 0.000000 0.357587
O O14 0.486917 0.887696 0.000000
O O15 0.653074 0.000000 0.000000
O O16 0.000000 0.435315 0.000000
O O17 0.401422 0.141470 0.395981
O O18 0.369458 0.000000 0.298883
O O19 0.754874 0.127791 0.500000
#
# Coordination Sequence:
#
# PCOD9586169 Si02
#       8
#     4  12  12  12   6   6  12  12
#     4  12  18  36  57  84 106 146 172 207 273 330
#     4   9  19  37  56  75 104 143 191 245 295 342
#     4  11  20  35  55  81 112 144 180 223 271 332
#     4   9  16  27  47  74 100 126 164 219 284 351
#     4  10  20  36  59  86 116 149 182 217 267 333
#     4  10  18  32  55  80 108 139 174 211 261 335
#     4  11  24  37  53  79 109 146 191 241 291 338
#     4  10  20  35  54  74 101 148 197 242 293 348
#
# _framework density 19.100102
#
# number of rings (size 3 to 8) (size 9 to 14) (size 15 to 20)
#    0.000    1.895    3.158    2.053    2.211    4.105 
#    0.947    1.579    0.000    0.000    0.000    0.000 
#    0.000    0.000    0.000   56.211    0.000    0.000 
#
# Total GULP energy -423477.891056 kJ/mol
# GULP energy per Si atom -5572.077514 kJ/mol
# Density = 1.905663 g / cm^3
# Si number density = 19.100102 Si / 1000 Ang^3
#
#
#
# Elastic Constant Matrix: (Units=GPa)
#
#
# Indices 1 2 3 4 5 6 
#
# 1 102.2904 43.9913 22.2759 0.0000 0.0000 0.0001
# 2 43.9913 102.2909 22.2760 0.0000 -0.0001 0.0000
# 3 22.2759 22.2760 53.2059 0.0000 0.0000 0.0000
# 4 0.0000 0.0000 0.0000 9.7214 0.0001 0.0000
# 5 0.0000 -0.0001 0.0000 0.0001 9.7214 0.0000
# 6 0.0001 0.0000 0.0000 0.0000 0.0000 29.1496
#
#
#
# Elastic Compliance Matrix: (Units=1/GPa)
#
#
# Indices 1 2 3 4 5 6 
#
# 1 0.012494 -0.004659 -0.003280 0.000000 0.000000 0.000000
# 2 -0.004659 0.012494 -0.003280 0.000000 0.000000 0.000000
# 3 -0.003280 -0.003280 0.021542 0.000000 0.000000 0.000000
# 4 0.000000 0.000000 0.000000 0.102866 -0.000001 0.000000
# 5 0.000000 0.000000 0.000000 -0.000001 0.102866 0.000000
# 6 0.000000 0.000000 0.000000 0.000000 0.000000 0.034306
#
#
# Mechanical properties :
#
#
# Convention : Reuss Voigt Hill
#
# Bulk Modulus (GPa) = 41.51003 48.31928 44.91465
# Shear Modulus (GPa) = 15.77104 21.00141 18.38623
#
# Velocity S-wave (km/s) = 2.87663 3.31953 3.10598
# Velocity P-wave (km/s) = 5.72829 6.32813 6.03567
#
# Compressibility (1/GPa) = 0.02409057
#
# Stress axis : x y z
#
# Youngs Moduli (GPa) = 80.03807 80.03848 46.42146
#
# Poissons Ratio (x) = 0.37289 0.15228
# Poissons Ratio (y) = 0.37288 0.15228
# Poissons Ratio (z) = 0.26256 0.26256
#
# Static dielectric constant tensor:
#      x y z
#    x 1.688720 0.000000 0.000000 
#    y 0.000000 1.688720 0.000000 
#    z 0.000000 0.000000 1.761150 
# 
# From -- ./inp_files/2778.got.cif
#   From: 2010.05.17/outbox.cif.g08.bks.cpg/sg189_2_cif.got.tgz:2778.got - 2010.05.20 12:14:34.
