data_PCOD9586082
_publ_section_title
;
Structure prediction by ZEFSAII (Michael W. Deem and Ramdas Pophale) SiO2 
 PCOD9586082
Probable space group: P -6 C 2
;
_chemical_formula_sum "Si O2"
_cell_formula_units_Z 84
_cell_length_a 17.314959
_cell_length_b 17.314959
_cell_length_c 14.592438
_cell_angle_alpha 90.000000
_cell_angle_beta 90.000000
_cell_angle_gamma 120.000000
_cell_volume 3788.797756
_symmetry_space_group_name_H-M "P -6 C 2"
_symmetry_group_IT_number 188
_symmetry_cell_setting 'hexagonal'
loop_
_space_group_symop_operation_xyz
x,y,z
-x+y,-x,1/2-z
-y,x-y,z
x,y,1/2-z
-x+y,-x,z
-y,x-y,1/2-z
-y,-x,-z
-x+y,y,-z
x,x-y,-z
-x+y,y,1/2+z
x,x-y,1/2+z
-y,-x,1/2+z
loop_
_atom_site_type_symbol
_atom_site_label
_atom_site_fract_x
_atom_site_fract_y
_atom_site_fract_z
Si Si1 0.130918 0.590989 0.355393
Si Si2 0.373095 0.139883 0.854028
Si Si3 0.746794 0.001394 0.003292
Si Si4 0.207748 0.464673 0.397069
Si Si5 0.733754 0.854316 0.145483
Si Si6 0.670182 0.606919 0.149623
Si Si7 0.564205 0.500647 0.596923
O O1 0.107425 0.565810 0.250000
O O2 0.164408 0.526976 0.395155
O O3 0.209226 0.692619 0.357805
O O4 0.041351 0.575575 0.403840
O O5 0.338478 0.110234 0.750000
O O6 0.299454 0.088529 0.932319
O O7 0.405255 0.243855 0.860526
O O8 0.451834 0.117196 0.869868
O O9 0.728037 0.928330 0.082169
O O10 0.673758 0.012175 0.941956
O O11 0.785005 0.968770 0.917998
O O12 0.222226 0.444451 0.500000
O O13 0.149095 0.370374 0.349332
O O14 0.766915 0.880870 0.250000
O O15 0.681819 0.651993 0.250000
O O16 0.580089 0.513405 0.153301
O O17 0.547696 0.452304 0.500000
#
# Coordination Sequence:
#
# PCOD9586082 Si02
#       7
#    12  12  12  12  12  12  12
#     4  12  25  39  58  84 123 175 231 279 330 389
#     4  11  24  43  67  96 132 176 228 288 356 421
#     4  11  21  39  62  92 127 166 208 262 332 399
#     4  12  23  40  53  82 116 165 220 276 326 376
#     4  11  23  39  62  93 128 167 214 267 324 395
#     4  11  24  43  67  96 132 176 228 288 356 421
#     4  12  24  41  65  93 127 174 234 296 351 413
#
# _framework density 22.170622000000002
#
# number of rings (size 3 to 8) (size 9 to 14) (size 15 to 20)
#    0.000    0.571    2.857    7.143    0.000    0.000 
#    0.857    0.000    0.000    0.000    0.000    0.000 
#   45.714    0.000   27.429    0.000    0.000    0.000 
#
# Total GULP energy -468744.354434 kJ/mol
# GULP energy per Si atom -5580.289934 kJ/mol
# Density = 2.212016 g / cm^3
# Si number density = 22.170622 Si / 1000 Ang^3
#
#
#
# Elastic Constant Matrix: (Units=GPa)
#
#
# Indices 1 2 3 4 5 6 
#
# 1 79.2425 44.1498 38.1742 0.0000 0.0000 0.0000
# 2 44.1498 79.2425 38.1742 0.0000 0.0000 0.0000
# 3 38.1742 38.1742 202.1710 0.0000 0.0000 0.0000
# 4 0.0000 0.0000 0.0000 34.5368 0.0000 0.0000
# 5 0.0000 0.0000 0.0000 0.0000 34.5368 0.0000
# 6 0.0000 0.0000 0.0000 0.0000 0.0000 17.5463
#
#
#
# Elastic Compliance Matrix: (Units=1/GPa)
#
#
# Indices 1 2 3 4 5 6 
#
# 1 0.018836 -0.009660 -0.001733 0.000000 0.000000 0.000000
# 2 -0.009660 0.018836 -0.001733 0.000000 0.000000 0.000000
# 3 -0.001733 -0.001733 0.005601 0.000000 0.000000 0.000000
# 4 0.000000 0.000000 0.000000 0.028955 0.000000 0.000000
# 5 0.000000 0.000000 0.000000 0.000000 0.028955 0.000000
# 6 0.000000 0.000000 0.000000 0.000000 0.000000 0.056992
#
#
# Mechanical properties :
#
#
# Convention : Reuss Voigt Hill
#
# Bulk Modulus (GPa) = 58.74562 66.85029 62.79796
# Shear Modulus (GPa) = 26.30212 33.33450 29.81831
#
# Velocity S-wave (km/s) = 3.44808 3.88176 3.67133
# Velocity P-wave (km/s) = 6.51206 7.09288 6.80866
#
# Compressibility (1/GPa) = 0.01702254
#
# Stress axis : x y z
#
# Youngs Moduli (GPa) = 53.08940 53.08940 178.55089
#
# Poissons Ratio (x) = 0.51283 0.30937
# Poissons Ratio (y) = 0.51283 0.30937
# Poissons Ratio (z) = 0.09199 0.09199
#
# Static dielectric constant tensor:
#      x y z
#    x 1.852510 0.000000 0.000000 
#    y 0.000000 1.852510 0.000000 
#    z 0.000000 0.000000 1.878140 
# 
# From -- ./inp_files/2602.got.cif
#   From: 2010.05.17/outbox.cif.g08.bks.cpg/sg188_2_cif.got.tgz:2602.got - 2010.05.20 12:11:46.
