data_PCOD9586167
_publ_section_title
;
Structure prediction by ZEFSAII (Michael W. Deem and Ramdas Pophale) SiO2 
 PCOD9586167
Probable space group: P -6 2 M
;
_chemical_formula_sum "Si O2"
_cell_formula_units_Z 48
_cell_length_a 18.454595
_cell_length_b 18.454595
_cell_length_c 7.554366
_cell_angle_alpha 90.000000
_cell_angle_beta 90.000000
_cell_angle_gamma 120.000000
_cell_volume 2228.115456
_symmetry_space_group_name_H-M "P -6 2 M"
_symmetry_group_IT_number 189
_symmetry_cell_setting 'hexagonal'
loop_
_space_group_symop_operation_xyz
x,y,z
-x+y,-x,-z
-y,x-y,z
x,y,-z
-x+y,-x,z
-y,x-y,-z
x-y,-y,-z
-x,-x+y,-z
y,x,-z
y,x,z
x-y,-y,z
-x,-x+y,z
loop_
_atom_site_type_symbol
_atom_site_label
_atom_site_fract_x
_atom_site_fract_y
_atom_site_fract_z
Si Si1 0.000000 0.795634 0.699098
Si Si2 0.800838 0.278165 0.216665
Si Si3 0.159176 0.615019 0.215380
Si Si4 0.628572 0.000000 0.785073
Si Si5 0.190873 0.905360 0.790919
O O1 0.000000 0.822250 0.500000
O O2 0.000000 0.708495 0.709048
O O3 0.090606 0.862695 0.774433
O O4 0.703806 0.236856 0.269907
O O5 0.843644 0.374334 0.274306
O O6 0.846115 0.226785 0.278157
O O7 0.801022 0.275585 0.000000
O O8 0.079804 0.622363 0.267550
O O9 0.160261 0.612718 0.000000
O O10 0.637045 0.000000 0.000000
O O11 0.239818 0.000000 0.718015
O O12 0.207906 0.911619 0.000000
#
# Coordination Sequence:
#
# PCOD9586167 Si02
#       5
#     6  12  12   6  12
#     4  12  24  40  62  82 109 150 197 238 287 350
#     4   9  16  27  47  82 121 151 179 223 279 329
#     4   9  16  25  45  78 116 147 180 226 275 327
#     4  10  18  32  54  82 111 146 189 234 279 326
#     4  10  21  38  61  88 116 145 185 237 297 355
#
# _framework density 21.542869
#
# number of rings (size 3 to 8) (size 9 to 14) (size 15 to 20)
#    0.000    2.250    2.500    1.625    1.750    2.500 
#    0.750    0.000    0.000    1.500    0.000    0.000 
#    0.000    0.000    0.000    0.000    0.000    0.000 
#
# Total GULP energy -267776.348612 kJ/mol
# GULP energy per Si atom -5578.673929 kJ/mol
# Density = 2.149384 g / cm^3
# Si number density = 21.542869 Si / 1000 Ang^3
#
#
#
# Elastic Constant Matrix: (Units=GPa)
#
#
# Indices 1 2 3 4 5 6 
#
# 1 95.6460 67.4565 -1.7091 0.0000 0.0000 0.0000
# 2 67.4565 95.6460 -1.7091 0.0000 0.0000 0.0000
# 3 -1.7091 -1.7091 45.6293 0.0000 0.0000 0.0000
# 4 0.0000 0.0000 0.0000 -78.9742 0.0000 0.0000
# 5 0.0000 0.0000 0.0000 0.0000 -78.9742 0.0000
# 6 0.0000 0.0000 0.0000 0.0000 0.0000 14.0948
#
#
#
# Elastic Compliance Matrix: (Units=1/GPa)
#
#
# Indices 1 2 3 4 5 6 
#
# 1 0.020805 -0.014669 0.000230 0.000000 0.000000 0.000000
# 2 -0.014669 0.020805 0.000230 0.000000 0.000000 0.000000
# 3 0.000230 0.000230 0.021933 0.000000 0.000000 0.000000
# 4 0.000000 0.000000 0.000000 -0.012662 0.000000 0.000000
# 5 0.000000 0.000000 0.000000 0.000000 -0.012662 0.000000
# 6 0.000000 0.000000 0.000000 0.000000 0.000000 0.070948
#
#
# Mechanical properties :
#
#
# Convention : Reuss Voigt Hill
#
# Bulk Modulus (GPa) = 28.47045 40.55532 34.51288
# Shear Modulus (GPa) = 33.49104 -17.24521 8.12291
#
# Velocity S-wave (km/s) = 3.94715 -2.83239 1.94390
# Velocity P-wave (km/s) = 5.83247 2.85826 4.59279
#
# Compressibility (1/GPa) = 0.03512414
#
# Stress axis : x y z
#
# Youngs Moduli (GPa) = 48.06526 48.06526 45.59346
#
# Poissons Ratio (x) = 0.70507 -0.01048
# Poissons Ratio (y) = 0.70507 -0.01048
# Poissons Ratio (z) = -0.01105 -0.01105
#
# Static dielectric constant tensor:
#      x y z
#    x 1.821460 0.000000 0.000000 
#    y 0.000000 1.821460 0.000000 
#    z 0.000000 0.000000 1.837910 
# 
# From -- ./inp_files/629.got.cif
#   From: 2010.05.17/outbox.cif.g08.bks.cpg/sg189_1_cif.got.tgz:629.got - 2010.05.20 12:14:34.
