data_PCOD9586643
_publ_section_title
;
Structure prediction by ZEFSAII (Michael W. Deem and Ramdas Pophale) SiO2 
 PCOD9586643
Probable space group: P -6 2 C
;
_chemical_formula_sum "Si O2"
_cell_formula_units_Z 70
_cell_length_a 14.374542
_cell_length_b 14.374542
_cell_length_c 18.191540
_cell_angle_alpha 90.000000
_cell_angle_beta 90.000000
_cell_angle_gamma 120.000000
_cell_volume 3255.278349
_symmetry_space_group_name_H-M "P -6 2 C"
_symmetry_group_IT_number 190
_symmetry_cell_setting 'hexagonal'
loop_
_space_group_symop_operation_xyz
x,y,z
-x+y,-x,1/2-z
-y,x-y,z
x,y,1/2-z
-x+y,-x,z
-y,x-y,1/2-z
x-y,-y,-z
-x,-x+y,-z
y,x,-z
y,x,1/2+z
x-y,-y,1/2+z
-x,-x+y,1/2+z
loop_
_atom_site_type_symbol
_atom_site_label
_atom_site_fract_x
_atom_site_fract_y
_atom_site_fract_z
Si Si1 0.447669 0.209128 0.406716
Si Si2 0.899085 0.527131 0.838530
Si Si3 0.333335 0.666668 0.160123
Si Si4 0.914684 0.480955 0.062478
Si Si5 0.760233 0.820617 0.839274
Si Si6 0.758195 0.470149 0.250000
Si Si7 0.179762 0.243841 0.161727
O O1 0.536876 0.178746 0.428259
O O2 0.452119 0.305544 0.453409
O O3 0.340329 0.097541 0.393009
O O4 0.466599 0.260720 0.324793
O O5 0.898896 0.525641 0.750000
O O6 0.786843 0.423936 0.863066
O O7 0.908000 0.638801 0.864985
O O8 0.006887 0.532374 0.867150
O O9 0.333334 0.666668 0.250000
O O10 0.000000 0.500347 0.000000
O O11 0.738236 0.800829 0.750000
O O12 0.850660 0.791683 0.859275
O O13 0.795311 0.944311 0.854039
O O14 0.780689 0.371859 0.250000
O O15 0.183230 0.252808 0.250000
#
# Coordination Sequence:
#
# PCOD9586643 Si02
#       7
#    12  12   4  12  12   6  12
#     4  12  23  41  67 101 131 176 230 283 355 407
#     4  10  22  40  66  94 131 177 235 287 352 419
#     4   9  21  39  57  93 135 183 226 275 328 420
#     4  12  28  46  67  98 138 183 225 287 358 435
#     4  10  19  32  60  94 132 164 211 276 342 400
#     4  10  18  34  66 102 136 166 210 300 356 400
#     4   9  18  33  54  93 131 167 208 273 347 407
#
# _framework density 21.503537000000001
#
# number of rings (size 3 to 8) (size 9 to 14) (size 15 to 20)
#    0.171    1.371    4.286    0.686    4.800    2.743 
#    0.000    0.000    0.000    0.000    0.000    1.200 
#    0.000    0.000    0.000    0.000    0.000    0.000 
#
# Total GULP energy -390620.407105 kJ/mol
# GULP energy per Si atom -5580.291530 kJ/mol
# Density = 2.145459 g / cm^3
# Si number density = 21.503537 Si / 1000 Ang^3
#
#
#
# Elastic Constant Matrix: (Units=GPa)
#
#
# Indices 1 2 3 4 5 6 
#
# 1 104.3606 19.8176 10.7802 0.0000 0.0000 -0.0001
# 2 19.8176 104.3618 10.7801 -0.0001 0.0000 0.0001
# 3 10.7802 10.7801 29.3672 0.0000 0.0000 0.0000
# 4 0.0000 -0.0001 0.0000 1.5387 0.0000 0.0000
# 5 0.0000 0.0000 0.0000 0.0000 1.5388 0.0000
# 6 -0.0001 0.0001 0.0000 0.0000 0.0000 42.2720
#
#
#
# Elastic Compliance Matrix: (Units=1/GPa)
#
#
# Indices 1 2 3 4 5 6 
#
# 1 0.010215 -0.001614 -0.003157 0.000000 0.000000 0.000000
# 2 -0.001614 0.010215 -0.003157 0.000000 0.000000 0.000000
# 3 -0.003157 -0.003157 0.036370 0.000001 0.000000 0.000000
# 4 0.000000 0.000000 0.000001 0.649886 -0.000008 0.000000
# 5 0.000000 0.000000 0.000000 -0.000008 0.649878 0.000001
# 6 0.000000 0.000000 0.000000 0.000000 0.000001 0.023656
#
#
# Mechanical properties :
#
#
# Convention : Reuss Voigt Hill
#
# Bulk Modulus (GPa) = 24.42446 35.64949 30.03698
# Shear Modulus (GPa) = 3.54680 22.18401 12.86540
#
# Velocity S-wave (km/s) = 1.28568 3.21541 2.44866
# Velocity P-wave (km/s) = 3.68605 5.51358 4.68970
#
# Compressibility (1/GPa) = 0.04094256
#
# Stress axis : x y z
#
# Youngs Moduli (GPa) = 97.89805 97.89922 27.49550
#
# Poissons Ratio (x) = 0.15797 0.08681
# Poissons Ratio (y) = 0.15796 0.08681
# Poissons Ratio (z) = 0.30910 0.30909
#
# Static dielectric constant tensor:
#      x y z
#    x 1.775840 0.000000 0.000000 
#    y 0.000000 1.775830 0.000000 
#    z 0.000000 0.000000 1.817940 
# 
# From -- ./inp_files/3820.got.cif
#   From: 2010.05.17/outbox.cif.g08.bks.cpg/sg190_2_cif.got.tgz:3820.got - 2010.05.20 12:16:56.
