data_PCOD9586950
_publ_section_title
;
Structure prediction by ZEFSAII (Michael W. Deem and Ramdas Pophale) SiO2 
 PCOD9586950
Probable space group: P -6 2 C
;
_chemical_formula_sum "Si O2"
_cell_formula_units_Z 40
_cell_length_a 8.115348
_cell_length_b 8.115348
_cell_length_c 34.004239
_cell_angle_alpha 90.000000
_cell_angle_beta 90.000000
_cell_angle_gamma 120.000000
_cell_volume 1939.447319
_symmetry_space_group_name_H-M "P -6 2 C"
_symmetry_group_IT_number 190
_symmetry_cell_setting 'hexagonal'
loop_
_space_group_symop_operation_xyz
x,y,z
-x+y,-x,1/2-z
-y,x-y,z
x,y,1/2-z
-x+y,-x,z
-y,x-y,1/2-z
x-y,-y,-z
-x,-x+y,-z
y,x,-z
y,x,1/2+z
x-y,-y,1/2+z
-x,-x+y,1/2+z
loop_
_atom_site_type_symbol
_atom_site_label
_atom_site_fract_x
_atom_site_fract_y
_atom_site_fract_z
Si Si1 0.369607 0.999884 0.577042
Si Si2 0.435079 0.914858 0.334910
Si Si3 0.001789 0.693908 0.455584
Si Si4 0.333334 0.666667 0.703100
O O1 0.465074 0.029686 0.619479
O O2 0.278622 0.132832 0.571093
O O3 0.201929 0.794447 0.565268
O O4 0.537293 0.066593 0.545445
O O5 0.212770 0.749744 0.327586
O O6 0.534936 0.114532 0.312009
O O7 0.000000 0.755546 0.500000
O O8 0.333334 0.666668 0.750000
#
# Coordination Sequence:
#
# PCOD9586950 Si02
#       4
#    12  12  12   4
#     4  12  23  42  62  90 131 184 242 289 363 429
#     4  10  23  49  75 105 148 193 241 299 360 444
#     4  12  23  37  58  89 131 179 239 309 360 413
#     4  12  27  48  81 117 147 186 231 291 381 456
#
# _framework density 20.624434999999998
#
# number of rings (size 3 to 8) (size 9 to 14) (size 15 to 20)
#    0.600    0.000    3.000    6.300    0.000    1.200 
#    1.800    0.000    0.000    0.000    0.000    0.000 
#    0.000    0.000    0.000    0.000    0.000    0.000 
#
# Total GULP energy -223044.876681 kJ/mol
# GULP energy per Si atom -5576.121917 kJ/mol
# Density = 2.057749 g / cm^3
# Si number density = 20.624435 Si / 1000 Ang^3
#
#
#
# Elastic Constant Matrix: (Units=GPa)
#
#
# Indices 1 2 3 4 5 6 
#
# 1 122.8391 54.7975 53.0621 0.0000 0.0000 -0.0001
# 2 54.7975 122.8392 53.0623 0.0000 0.0000 -0.0001
# 3 53.0621 53.0623 137.3254 -0.0001 0.0000 0.0000
# 4 0.0000 0.0000 -0.0001 19.1350 0.0000 0.0000
# 5 0.0000 0.0000 0.0000 0.0000 19.1349 0.0000
# 6 -0.0001 -0.0001 0.0000 0.0000 0.0000 34.0207
#
#
#
# Elastic Compliance Matrix: (Units=1/GPa)
#
#
# Indices 1 2 3 4 5 6 
#
# 1 0.011008 -0.003689 -0.002828 0.000000 0.000000 0.000000
# 2 -0.003689 0.011008 -0.002828 0.000000 0.000000 0.000000
# 3 -0.002828 -0.002828 0.009467 0.000000 0.000000 0.000000
# 4 0.000000 0.000000 0.000000 0.052260 0.000000 0.000000
# 5 0.000000 0.000000 0.000000 0.000000 0.052260 0.000000
# 6 0.000000 0.000000 0.000000 0.000000 0.000000 0.029394
#
#
# Mechanical properties :
#
#
# Convention : Reuss Voigt Hill
#
# Bulk Modulus (GPa) = 78.16589 78.31641 78.24115
# Shear Modulus (GPa) = 26.54597 29.26356 27.90477
#
# Velocity S-wave (km/s) = 3.59153 3.77089 3.68230
# Velocity P-wave (km/s) = 7.42837 7.55080 7.48983
#
# Compressibility (1/GPa) = 0.01279330
#
# Stress axis : x y z
#
# Youngs Moduli (GPa) = 90.84344 90.84339 105.62478
#
# Poissons Ratio (x) = 0.33512 0.29871
# Poissons Ratio (y) = 0.33512 0.29871
# Poissons Ratio (z) = 0.25691 0.25691
#
# Static dielectric constant tensor:
#      x y z
#    x 1.821060 0.000000 0.000000 
#    y 0.000000 1.821060 0.000000 
#    z 0.000000 0.000000 1.682000 
# 
# From -- ./inp_files/5026.got.cif
#   From: 2010.05.17/outbox.cif.g08.bks.cpg/sg190_3_cif.got.tgz:5026.got - 2010.05.20 12:16:56.
