data_PCOD9586047
_publ_section_title
;
Structure prediction by ZEFSAII (Michael W. Deem and Ramdas Pophale) SiO2 
 PCOD9586047
Probable space group: P -6 C 2
;
_chemical_formula_sum "Si O2"
_cell_formula_units_Z 58
_cell_length_a 14.452070
_cell_length_b 14.452070
_cell_length_c 15.039180
_cell_angle_alpha 90.000000
_cell_angle_beta 90.000000
_cell_angle_gamma 120.000000
_cell_volume 2720.288101
_symmetry_space_group_name_H-M "P -6 C 2"
_symmetry_group_IT_number 188
_symmetry_cell_setting 'hexagonal'
loop_
_space_group_symop_operation_xyz
x,y,z
-x+y,-x,1/2-z
-y,x-y,z
x,y,1/2-z
-x+y,-x,z
-y,x-y,1/2-z
-y,-x,-z
-x+y,y,-z
x,x-y,-z
-x+y,y,1/2+z
x,x-y,1/2+z
-y,-x,1/2+z
loop_
_atom_site_type_symbol
_atom_site_label
_atom_site_fract_x
_atom_site_fract_y
_atom_site_fract_z
Si Si1 0.595727 0.191453 0.500000
Si Si2 0.843866 0.091357 0.641429
Si Si3 0.247961 0.430887 0.903009
Si Si4 0.786267 0.862103 0.649927
Si Si5 0.949875 0.564735 0.857236
Si Si6 0.333334 0.666668 0.144923
O O1 0.723515 0.276486 0.500000
O O2 0.571708 0.114789 0.585465
O O3 0.836860 0.087182 0.750000
O O4 0.740063 0.098504 0.617434
O O5 0.960727 0.181999 0.611569
O O6 0.831135 0.979048 0.608349
O O7 0.156818 0.339158 0.844158
O O8 0.359879 0.434378 0.884697
O O9 0.264815 0.546641 0.887649
O O10 0.197945 0.395889 0.000000
O O11 0.831553 0.883482 0.750000
O O12 0.943567 0.547157 0.750000
O O13 0.333334 0.666668 0.250000
#
# Coordination Sequence:
#
# PCOD9586047 Si02
#       6
#     6  12  12  12  12   4
#     4  10  26  46  70 102 128 168 234 300 366 432
#     4   8  15  29  57  92 128 166 213 262 319 390
#     4  11  24  40  62  94 132 174 216 273 332 403
#     4   9  16  32  57  90 126 169 213 260 316 385
#     4  10  22  44  69  97 136 178 224 286 352 424
#     4  12  25  44  64  90 121 167 223 271 329 403
#
# _framework density 21.321270999999999
#
# number of rings (size 3 to 8) (size 9 to 14) (size 15 to 20)
#    0.207    2.069    0.000    4.138    2.897    4.138 
#    0.000    3.103    0.000    0.000    0.000    0.000 
#    0.000    0.000    0.000    0.000    0.000    0.000 
#
# Total GULP energy -323171.598552 kJ/mol
# GULP energy per Si atom -5571.924113 kJ/mol
# Density = 2.127274 g / cm^3
# Si number density = 21.321271 Si / 1000 Ang^3
#
#
#
# Elastic Constant Matrix: (Units=GPa)
#
#
# Indices 1 2 3 4 5 6 
#
# 1 57.7585 37.0598 15.1530 0.0005 -0.0001 0.0003
# 2 37.0598 57.7595 15.1529 -0.0004 -0.0001 0.0004
# 3 15.1530 15.1529 106.6332 0.0004 -0.0002 0.0001
# 4 0.0005 -0.0004 0.0004 1.8464 0.0009 0.0000
# 5 -0.0001 -0.0001 -0.0002 0.0009 1.8448 0.0004
# 6 0.0003 0.0004 0.0001 0.0000 0.0004 10.3497
#
#
#
# Elastic Compliance Matrix: (Units=1/GPa)
#
#
# Indices 1 2 3 4 5 6 
#
# 1 0.029680 -0.018631 -0.001570 -0.000012 0.000001 0.000000
# 2 -0.018631 0.029679 -0.001570 0.000013 0.000000 -0.000001
# 3 -0.001570 -0.001570 0.009824 -0.000002 0.000001 0.000000
# 4 -0.000012 0.000013 -0.000002 0.541606 -0.000272 0.000001
# 5 0.000001 0.000000 0.000001 -0.000272 0.542052 -0.000021
# 6 0.000000 -0.000001 0.000000 0.000001 -0.000021 0.096621
#
#
# Mechanical properties :
#
#
# Convention : Reuss Voigt Hill
#
# Bulk Modulus (GPa) = 39.00055 39.65359 39.32707
# Shear Modulus (GPa) = 3.84157 13.12722 8.48439
#
# Velocity S-wave (km/s) = 1.34375 2.48400 1.99698
# Velocity P-wave (km/s) = 4.55402 5.18319 4.87876
#
# Compressibility (1/GPa) = 0.02564066
#
# Stress axis : x y z
#
# Youngs Moduli (GPa) = 33.69286 33.69347 101.79005
#
# Poissons Ratio (x) = 0.62776 0.15982
# Poissons Ratio (y) = 0.62774 0.15980
# Poissons Ratio (z) = 0.05290 0.05290
#
# Static dielectric constant tensor:
#      x y z
#    x 1.752430 0.000000 0.000000 
#    y 0.000000 1.752430 0.000000 
#    z 0.000000 0.000000 1.572020 
# 
# From -- ./inp_files/2311.got.cif
#   From: 2010.05.17/outbox.cif.g08.bks.cpg/sg188_2_cif.got.tgz:2311.got - 2010.05.20 12:11:46.
