data_PCOD9586413
_publ_section_title
;
Structure prediction by ZEFSAII (Michael W. Deem and Ramdas Pophale) SiO2 
 PCOD9586413
Probable space group: P -6 2 M
;
_chemical_formula_sum "Si O2"
_cell_formula_units_Z 58
_cell_length_a 15.032501
_cell_length_b 15.032501
_cell_length_c 16.601878
_cell_angle_alpha 90.000000
_cell_angle_beta 90.000000
_cell_angle_gamma 120.000000
_cell_volume 3249.004648
_symmetry_space_group_name_H-M "P -6 2 M"
_symmetry_group_IT_number 189
_symmetry_cell_setting 'hexagonal'
loop_
_space_group_symop_operation_xyz
x,y,z
-x+y,-x,-z
-y,x-y,z
x,y,-z
-x+y,-x,z
-y,x-y,-z
x-y,-y,-z
-x,-x+y,-z
y,x,-z
y,x,z
x-y,-y,z
-x,-x+y,z
loop_
_atom_site_type_symbol
_atom_site_label
_atom_site_fract_x
_atom_site_fract_y
_atom_site_fract_z
Si Si1 0.333334 0.666666 0.904189
Si Si2 0.663005 0.215268 0.500000
Si Si3 0.564945 0.116978 0.184425
Si Si4 0.754339 0.877818 0.910390
Si Si5 0.756539 0.638542 0.759258
Si Si6 0.425875 0.307284 0.340016
O O1 0.409473 0.782826 0.871505
O O2 0.333334 0.666668 0.000000
O O3 0.569238 0.238579 0.500000
O O4 0.663975 0.157731 0.419848
O O5 0.466029 0.121259 0.216248
O O6 0.632783 0.127655 0.262505
O O7 0.520653 0.000000 0.150515
O O8 0.826720 0.826720 0.906973
O O9 0.675603 0.830818 0.837186
O O10 0.822022 0.000000 0.902804
O O11 0.705691 0.853650 0.000000
O O12 0.721865 0.721865 0.743902
O O13 0.811847 0.622804 0.683612
O O14 0.341575 0.341575 0.349216
#
# Coordination Sequence:
#
# PCOD9586413 Si02
#       6
#     4   6  12  12  12  12
#     4  12  24  39  63  85 119 163 210 261 303 354
#     4  10  23  36  62  88 117 152 186 238 284 350
#     4  10  22  39  61  82 115 158 202 247 298 360
#     4   9  17  30  50  77 109 146 190 240 291 341
#     4  10  20  35  57  82 111 152 192 236 291 352
#     4  11  21  38  61  88 119 152 191 240 294 352
#
# _framework density 17.85162
#
# number of rings (size 3 to 8) (size 9 to 14) (size 15 to 20)
#    0.207    1.655    2.069    2.379    0.000    2.069 
#    0.000    3.621    0.000    0.414    0.000    0.000 
#    0.000    0.000    0.000    0.000    0.000    0.000 
#
# Total GULP energy -323576.396986 kJ/mol
# GULP energy per Si atom -5578.903396 kJ/mol
# Density = 1.781099 g / cm^3
# Si number density = 17.851620 Si / 1000 Ang^3
#
#
#
# Elastic Constant Matrix: (Units=GPa)
#
#
# Indices 1 2 3 4 5 6 
#
# 1 66.9554 24.3002 36.4624 0.0001 0.0001 0.0000
# 2 24.3002 66.9558 36.4627 0.0000 0.0000 0.0000
# 3 36.4624 36.4627 68.5345 0.0001 0.0002 0.0000
# 4 0.0001 0.0000 0.0001 3.4371 0.0001 0.0000
# 5 0.0001 0.0000 0.0002 0.0001 3.4368 0.0000
# 6 0.0000 0.0000 0.0000 0.0000 0.0000 21.3276
#
#
#
# Elastic Compliance Matrix: (Units=1/GPa)
#
#
# Indices 1 2 3 4 5 6 
#
# 1 0.021253 -0.002190 -0.010142 0.000000 0.000000 0.000000
# 2 -0.002190 0.021253 -0.010142 0.000000 0.000000 0.000000
# 3 -0.010142 -0.010142 0.025383 0.000000 -0.000001 0.000000
# 4 0.000000 0.000000 0.000000 0.290946 -0.000007 0.000000
# 5 0.000000 0.000000 -0.000001 -0.000007 0.290969 0.000000
# 6 0.000000 0.000000 0.000000 0.000000 0.000000 0.046888
#
#
# Mechanical properties :
#
#
# Convention : Reuss Voigt Hill
#
# Bulk Modulus (GPa) = 43.59085 44.09961 43.84523
# Shear Modulus (GPa) = 6.67300 12.65500 9.66400
#
# Velocity S-wave (km/s) = 1.93550 2.66540 2.32922
# Velocity P-wave (km/s) = 5.42829 5.85060 5.64340
#
# Compressibility (1/GPa) = 0.02294060
#
# Stress axis : x y z
#
# Youngs Moduli (GPa) = 47.05128 47.05134 39.39629
#
# Poissons Ratio (x) = 0.10306 0.39956
# Poissons Ratio (y) = 0.10306 0.39957
# Poissons Ratio (z) = 0.47720 0.47721
#
# Static dielectric constant tensor:
#      x y z
#    x 1.623360 0.000000 0.000000 
#    y 0.000000 1.623360 0.000000 
#    z 0.000000 0.000000 1.578750 
# 
# From -- ./inp_files/2567.got.cif
#   From: 2010.05.17/outbox.cif.g08.bks.cpg/sg189_2_cif.got.tgz:2567.got - 2010.05.20 12:14:34.
