data_PCOD9586056
_publ_section_title
;
Structure prediction by ZEFSAII (Michael W. Deem and Ramdas Pophale) SiO2 
 PCOD9586056
Probable space group: P -6 C 2
;
_chemical_formula_sum "Si O2"
_cell_formula_units_Z 42
_cell_length_a 11.622078
_cell_length_b 11.622078
_cell_length_c 17.794556
_cell_angle_alpha 90.000000
_cell_angle_beta 90.000000
_cell_angle_gamma 120.000000
_cell_volume 2081.542869
_symmetry_space_group_name_H-M "P -6 C 2"
_symmetry_group_IT_number 188
_symmetry_cell_setting 'hexagonal'
loop_
_space_group_symop_operation_xyz
x,y,z
-x+y,-x,1/2-z
-y,x-y,z
x,y,1/2-z
-x+y,-x,z
-y,x-y,1/2-z
-y,-x,-z
-x+y,y,-z
x,x-y,-z
-x+y,y,1/2+z
x,x-y,1/2+z
-y,-x,1/2+z
loop_
_atom_site_type_symbol
_atom_site_label
_atom_site_fract_x
_atom_site_fract_y
_atom_site_fract_z
Si Si1 0.075257 0.409958 0.984901
Si Si2 0.483313 0.824091 0.750000
Si Si3 0.914986 0.600871 0.166278
Si Si4 0.418912 0.355995 0.863020
O O1 0.017469 0.358730 0.902526
O O2 0.186179 0.372358 0.000000
O O3 0.134384 0.567192 0.000000
O O4 0.962261 0.352972 0.048623
O O5 0.457081 0.673450 0.750000
O O6 0.565611 0.919396 0.820211
O O7 0.968157 0.643690 0.250000
O O8 0.793151 0.627580 0.159484
O O9 0.871041 0.445335 0.157592
#
# Coordination Sequence:
#
# PCOD9586056 Si02
#       4
#    12   6  12  12
#     4  10  24  39  60  93 133 175 218 274 335 397
#     4  10  24  36  64 108 134 160 210 272 332 382
#     4  11  21  39  62  97 127 169 219 266 331 382
#     4  11  22  40  65  96 134 173 212 277 326 392
#
# _framework density 20.177340000000001
#
# number of rings (size 3 to 8) (size 9 to 14) (size 15 to 20)
#    0.286    1.143    2.857    1.714    8.000    0.000 
#    0.000    2.857    0.000    4.571    0.000    0.000 
#    0.000    0.000    0.000    0.000    0.000    0.000 
#
# Total GULP energy -234031.621215 kJ/mol
# GULP energy per Si atom -5572.181457 kJ/mol
# Density = 2.013142 g / cm^3
# Si number density = 20.177340 Si / 1000 Ang^3
#
#
#
# Elastic Constant Matrix: (Units=GPa)
#
#
# Indices 1 2 3 4 5 6 
#
# 1 88.9784 40.0029 51.8575 -0.0001 0.0000 0.0000
# 2 40.0029 88.9784 51.8575 0.0001 0.0000 0.0000
# 3 51.8575 51.8575 198.8789 0.0000 0.0000 0.0000
# 4 -0.0001 0.0001 0.0000 -10.8765 0.0000 0.0000
# 5 0.0000 0.0000 0.0000 0.0000 -10.8765 -0.0001
# 6 0.0000 0.0000 0.0000 0.0000 -0.0001 24.4878
#
#
#
# Elastic Compliance Matrix: (Units=1/GPa)
#
#
# Indices 1 2 3 4 5 6 
#
# 1 0.015114 -0.005304 -0.002558 0.000000 0.000000 0.000000
# 2 -0.005304 0.015114 -0.002558 0.000000 0.000000 0.000000
# 3 -0.002558 -0.002558 0.006362 0.000000 0.000000 0.000000
# 4 0.000000 0.000000 0.000000 -0.091942 0.000000 0.000000
# 5 0.000000 0.000000 0.000000 0.000000 -0.091942 0.000000
# 6 0.000000 0.000000 0.000000 0.000000 0.000000 0.040837
#
#
# Mechanical properties :
#
#
# Convention : Reuss Voigt Hill
#
# Bulk Modulus (GPa) = 63.49101 73.80795 68.64948
# Shear Modulus (GPa) = -62.21560 16.08815 -23.06372
#
# Velocity S-wave (km/s) = -5.55890 2.82678 -3.38457
# Velocity P-wave (km/s) = 3.10918 6.87847 4.33857
#
# Compressibility (1/GPa) = 0.01575026
#
# Stress axis : x y z
#
# Youngs Moduli (GPa) = 66.16323 66.16323 157.17985
#
# Poissons Ratio (x) = 0.35094 0.40205
# Poissons Ratio (y) = 0.35094 0.40205
# Poissons Ratio (z) = 0.16924 0.16924
#
# Static dielectric constant tensor:
#      x y z
#    x 1.731370 0.000000 0.000000 
#    y 0.000000 1.731370 0.000000 
#    z 0.000000 0.000000 1.766970 
# 
# From -- ./inp_files/2914.got.cif
#   From: 2010.05.17/outbox.cif.g08.bks.cpg/sg188_2_cif.got.tgz:2914.got - 2010.05.20 12:11:46.
