data_PCOD9586147
_publ_section_title
;
Structure prediction by ZEFSAII (Michael W. Deem and Ramdas Pophale) SiO2 
 PCOD9586147
Probable space group: P -6 2 M
;
_chemical_formula_sum "Si O2"
_cell_formula_units_Z 52
_cell_length_a 16.617612
_cell_length_b 16.617612
_cell_length_c 14.269844
_cell_angle_alpha 90.000000
_cell_angle_beta 90.000000
_cell_angle_gamma 120.000000
_cell_volume 3412.613356
_symmetry_space_group_name_H-M "P -6 2 M"
_symmetry_group_IT_number 189
_symmetry_cell_setting 'hexagonal'
loop_
_space_group_symop_operation_xyz
x,y,z
-x+y,-x,-z
-y,x-y,z
x,y,-z
-x+y,-x,z
-y,x-y,-z
x-y,-y,-z
-x,-x+y,-z
y,x,-z
y,x,z
x-y,-y,z
-x,-x+y,z
loop_
_atom_site_type_symbol
_atom_site_label
_atom_site_fract_x
_atom_site_fract_y
_atom_site_fract_z
Si Si1 0.334058 0.487089 0.886595
Si Si2 0.110085 0.218925 0.394233
Si Si3 0.458215 0.000000 0.112949
Si Si4 0.892989 0.707316 0.199258
Si Si5 0.666667 0.333333 0.886759
Si Si6 0.727282 0.727282 0.887494
O O1 0.442725 0.531403 0.862319
O O2 0.269434 0.390238 0.836414
O O3 0.305282 0.562904 0.859452
O O4 0.325062 0.472811 0.000000
O O5 0.130675 0.258122 0.500000
O O6 0.140431 0.140431 0.391174
O O7 0.165892 0.288711 0.310475
O O8 0.000000 0.171273 0.377864
O O9 0.366221 0.000000 0.146695
O O10 0.452667 0.000000 0.000000
O O11 0.817968 0.725906 0.148267
O O12 0.000000 0.784677 0.179467
O O13 0.666667 0.333334 0.000000
O O14 0.726574 0.726574 0.000000
#
# Coordination Sequence:
#
# PCOD9586147 Si02
#       6
#    12  12   6  12   4   6
#     4  10  18  31  49  71  99 129 165 210 252 291
#     4   9  17  31  51  73  95 124 166 215 256 286
#     4   9  18  32  50  70  96 133 170 206 248 286
#     4  11  21  33  49  72 101 135 169 203 251 305
#     4   9  18  30  48  72  94 125 172 216 249 285
#     4  11  22  34  47  70 104 141 173 204 237 296
#
# _framework density 15.237589
#
# number of rings (size 3 to 8) (size 9 to 14) (size 15 to 20)
#    0.000    2.077    2.308    2.308    0.000    6.000 
#    0.692    0.000    0.000    0.000    0.000    8.077 
#    0.000    0.000    0.000    0.000    0.000    0.000 
#
# Total GULP energy -289744.751635 kJ/mol
# GULP energy per Si atom -5572.014455 kJ/mol
# Density = 1.520291 g / cm^3
# Si number density = 15.237589 Si / 1000 Ang^3
#
#
#
# Elastic Constant Matrix: (Units=GPa)
#
#
# Indices 1 2 3 4 5 6 
#
# 1 98.3279 56.1216 44.1926 0.0000 0.0000 0.0000
# 2 56.1216 98.3277 44.1925 0.0000 0.0000 -0.0001
# 3 44.1926 44.1925 76.1419 0.0000 0.0000 0.0000
# 4 0.0000 0.0000 0.0000 12.5262 0.0000 0.0000
# 5 0.0000 0.0000 0.0000 0.0000 12.5260 0.0000
# 6 0.0000 -0.0001 0.0000 0.0000 0.0000 21.1032
#
#
#
# Elastic Compliance Matrix: (Units=1/GPa)
#
#
# Indices 1 2 3 4 5 6 
#
# 1 0.016694 -0.006999 -0.005627 0.000000 0.000000 0.000000
# 2 -0.006999 0.016694 -0.005627 0.000000 0.000000 0.000000
# 3 -0.005627 -0.005627 0.019665 0.000000 0.000000 0.000000
# 4 0.000000 0.000000 0.000000 0.079833 0.000000 0.000000
# 5 0.000000 0.000000 0.000000 0.000000 0.079834 0.000000
# 6 0.000000 0.000000 0.000000 0.000000 0.000000 0.047386
#
#
# Mechanical properties :
#
#
# Convention : Reuss Voigt Hill
#
# Bulk Modulus (GPa) = 60.43343 62.42345 61.42844
# Shear Modulus (GPa) = 16.54935 17.78379 17.16657
#
# Velocity S-wave (km/s) = 3.29916 3.41999 3.36012
# Velocity P-wave (km/s) = 7.36610 7.52667 7.44682
#
# Compressibility (1/GPa) = 0.01654713
#
# Stress axis : x y z
#
# Youngs Moduli (GPa) = 59.90224 59.90219 50.85229
#
# Poissons Ratio (x) = 0.41928 0.28613
# Poissons Ratio (y) = 0.41928 0.28613
# Poissons Ratio (z) = 0.33705 0.33705
#
# Static dielectric constant tensor:
#      x y z
#    x 1.513100 0.000000 0.000000 
#    y 0.000000 1.513100 0.000000 
#    z 0.000000 0.000000 1.496970 
# 
# From -- ./inp_files/2490.got.cif
#   From: 2010.05.17/outbox.cif.g08.bks.cpg/sg189_2_cif.got.tgz:2490.got - 2010.05.20 12:14:34.
