data_PCOD9586070
_publ_section_title
;
Structure prediction by ZEFSAII (Michael W. Deem and Ramdas Pophale) SiO2 
 PCOD9586070
Probable space group: P -6 C 2
;
_chemical_formula_sum "Si O2"
_cell_formula_units_Z 18
_cell_length_a 10.884102
_cell_length_b 10.884102
_cell_length_c 7.576566
_cell_angle_alpha 90.000000
_cell_angle_beta 90.000000
_cell_angle_gamma 120.000000
_cell_volume 777.299250
_symmetry_space_group_name_H-M "P -6 C 2"
_symmetry_group_IT_number 188
_symmetry_cell_setting 'hexagonal'
loop_
_space_group_symop_operation_xyz
x,y,z
-x+y,-x,1/2-z
-y,x-y,z
x,y,1/2-z
-x+y,-x,z
-y,x-y,1/2-z
-y,-x,-z
-x+y,y,-z
x,x-y,-z
-x+y,y,1/2+z
x,x-y,1/2+z
-y,-x,1/2+z
loop_
_atom_site_type_symbol
_atom_site_label
_atom_site_fract_x
_atom_site_fract_y
_atom_site_fract_z
Si Si1 0.158448 0.513025 0.250000
Si Si2 0.722354 0.723654 0.542228
O O1 0.215753 0.681814 0.250000
O O2 0.067780 0.416357 0.414931
O O3 0.702116 0.697847 0.750000
O O4 0.841842 0.683684 0.500000
O O5 0.779534 0.889767 0.500000
#
# Coordination Sequence:
#
# PCOD9586070 Si02
#       2
#     6  12
#     4  10  26  46  66 112 172 208 270 336 432 494
#     4  12  23  43  71 107 156 206 274 348 415 478
#
# _framework density 23.157104
#
# number of rings (size 3 to 8) (size 9 to 14) (size 15 to 20)
#    0.667    0.000    6.667    0.667    0.000    5.333 
#    0.000    0.000    0.000    0.000    0.000    0.000 
#  106.667    0.000    0.000    0.000    0.000    0.000 
#
# Total GULP energy -100278.646346 kJ/mol
# GULP energy per Si atom -5571.035908 kJ/mol
# Density = 2.310440 g / cm^3
# Si number density = 23.157104 Si / 1000 Ang^3
#
#
#
# Elastic Constant Matrix: (Units=GPa)
#
#
# Indices 1 2 3 4 5 6 
#
# 1 183.8393 59.8242 90.0960 0.0195 0.0000 0.0000
# 2 59.8242 183.8393 90.0960 -0.0195 0.0000 0.0000
# 3 90.0960 90.0960 274.3710 0.0000 0.0000 0.0000
# 4 0.0195 -0.0195 0.0000 -357.0813 0.0000 0.0000
# 5 0.0000 0.0000 0.0000 0.0000 -357.0813 0.0195
# 6 0.0000 0.0000 0.0000 0.0000 0.0195 62.0075
#
#
#
# Elastic Compliance Matrix: (Units=1/GPa)
#
#
# Indices 1 2 3 4 5 6 
#
# 1 0.006742 -0.001322 -0.001780 0.000000 0.000000 0.000000
# 2 -0.001322 0.006742 -0.001780 0.000000 0.000000 0.000000
# 3 -0.001780 -0.001780 0.004814 0.000000 0.000000 0.000000
# 4 0.000000 0.000000 0.000000 -0.002800 0.000000 0.000000
# 5 0.000000 0.000000 0.000000 0.000000 -0.002800 0.000001
# 6 0.000000 0.000000 0.000000 0.000000 0.000001 0.016127
#
#
# Mechanical properties :
#
#
# Convention : Reuss Voigt Hill
#
# Bulk Modulus (GPa) = 117.16918 124.67574 120.92246
# Shear Modulus (GPa) = 120.68220 -103.62878 8.52671
#
# Velocity S-wave (km/s) = 7.22687 -6.69683 1.92096
# Velocity P-wave (km/s) = 10.97015 2.41675 7.56649
#
# Compressibility (1/GPa) = 0.00853467
#
# Stress axis : x y z
#
# Youngs Moduli (GPa) = 148.32630 148.32630 207.74396
#
# Poissons Ratio (x) = 0.19603 0.36976
# Poissons Ratio (y) = 0.19603 0.36976
# Poissons Ratio (z) = 0.26400 0.26400
#
# Static dielectric constant tensor:
#      x y z
#    x 1.924320 0.000000 0.000000 
#    y 0.000000 1.924320 0.000000 
#    z 0.000000 0.000000 1.978010 
# 
# From -- ./inp_files/82.got.cif
#   From: 2010.05.17/outbox.cif.g08.bks.cpg/sg188_1_cif.got.tgz:82.got - 2010.05.20 12:11:46.
