data_PCOD9586644
_publ_section_title
;
Structure prediction by ZEFSAII (Michael W. Deem and Ramdas Pophale) SiO2 
 PCOD9586644
Probable space group: P -6 2 C
;
_chemical_formula_sum "Si O2"
_cell_formula_units_Z 84
_cell_length_a 18.836497
_cell_length_b 18.836497
_cell_length_c 13.392072
_cell_angle_alpha 90.000000
_cell_angle_beta 90.000000
_cell_angle_gamma 120.000000
_cell_volume 4115.083848
_symmetry_space_group_name_H-M "P -6 2 C"
_symmetry_group_IT_number 190
_symmetry_cell_setting 'hexagonal'
loop_
_space_group_symop_operation_xyz
x,y,z
-x+y,-x,1/2-z
-y,x-y,z
x,y,1/2-z
-x+y,-x,z
-y,x-y,1/2-z
x-y,-y,-z
-x,-x+y,-z
y,x,-z
y,x,1/2+z
x-y,-y,1/2+z
-x,-x+y,1/2+z
loop_
_atom_site_type_symbol
_atom_site_label
_atom_site_fract_x
_atom_site_fract_y
_atom_site_fract_z
Si Si1 0.329782 0.022576 0.633933
Si Si2 0.610647 0.487889 0.944529
Si Si3 0.817308 0.955922 0.628236
Si Si4 0.955575 0.137028 0.871745
Si Si5 0.632179 0.900117 0.869493
Si Si6 0.000000 0.572657 0.500000
Si Si7 0.711345 0.548035 0.134411
Si Si8 0.767437 0.354346 0.750000
O O1 0.346444 0.046526 0.750000
O O2 0.415935 0.065833 0.579244
O O3 0.266279 0.050000 0.596498
O O4 0.291954 0.924652 0.630981
O O5 0.634500 0.450975 0.851386
O O6 0.513107 0.446016 0.951804
O O7 0.648696 0.486710 0.052230
O O8 0.816458 0.955093 0.750000
O O9 0.847704 0.892664 0.599490
O O10 0.724486 0.926438 0.597434
O O11 0.881545 0.048830 0.597928
O O12 0.955033 0.137949 0.750000
O O13 0.633760 0.909528 0.750000
O O14 0.572859 0.804026 0.891185
O O15 0.600954 0.955413 0.921126
O O16 0.692570 0.519179 0.250000
O O17 0.684432 0.266521 0.750000
#
# Coordination Sequence:
#
# PCOD9586644 Si02
#       8
#    12  12  12  12  12   6  12   6
#     4  10  18  35  62  98 131 169 226 289 334 394
#     4  12  24  45  71 105 134 171 238 284 349 419
#     4   9  16  31  51  86 129 177 223 272 321 386
#     4   9  16  27  53  88 128 174 226 272 323 382
#     4  10  23  42  62  92 138 180 220 274 351 408
#     4  12  28  40  68 106 132 178 218 290 344 426
#     4  10  21  41  70  98 135 178 222 285 344 403
#     4  10  28  52  72 100 144 192 218 288 360 440
#
# _framework density 20.412707999999999
#
# number of rings (size 3 to 8) (size 9 to 14) (size 15 to 20)
#    0.143    1.714    3.571    0.286    3.000    2.857 
#    0.000    0.000    0.000    0.000    0.000    0.000 
#    0.000    0.000    0.000    0.000    0.000    0.000 
#
# Total GULP energy -469572.580778 kJ/mol
# GULP energy per Si atom -5590.149771 kJ/mol
# Density = 2.036625 g / cm^3
# Si number density = 20.412708 Si / 1000 Ang^3
#
#
#
# Elastic Constant Matrix: (Units=GPa)
#
#
# Indices 1 2 3 4 5 6 
#
# 1 112.6864 57.9508 48.9396 0.0000 0.0000 0.0000
# 2 57.9508 112.6864 48.9396 0.0000 0.0000 0.0000
# 3 48.9396 48.9396 107.2805 0.0000 0.0000 0.0000
# 4 0.0000 0.0000 0.0000 33.4661 0.0000 0.0000
# 5 0.0000 0.0000 0.0000 0.0000 33.4661 0.0000
# 6 0.0000 0.0000 0.0000 0.0000 0.0000 27.3678
#
#
#
# Elastic Compliance Matrix: (Units=1/GPa)
#
#
# Indices 1 2 3 4 5 6 
#
# 1 0.013104 -0.005166 -0.003621 0.000000 0.000000 0.000000
# 2 -0.005166 0.013104 -0.003621 0.000000 0.000000 0.000000
# 3 -0.003621 -0.003621 0.012625 0.000000 0.000000 0.000000
# 4 0.000000 0.000000 0.000000 0.029881 0.000000 0.000000
# 5 0.000000 0.000000 0.000000 0.000000 0.029881 0.000000
# 6 0.000000 0.000000 0.000000 0.000000 0.000000 0.036539
#
#
# Mechanical properties :
#
#
# Convention : Reuss Voigt Hill
#
# Bulk Modulus (GPa) = 71.34654 71.59036 71.46845
# Shear Modulus (GPa) = 30.37276 30.64821 30.51049
#
# Velocity S-wave (km/s) = 3.86156 3.87903 3.87030
# Velocity P-wave (km/s) = 7.41013 7.43035 7.42025
#
# Compressibility (1/GPa) = 0.01401610
#
# Stress axis : x y z
#
# Youngs Moduli (GPa) = 76.31538 76.31538 79.20823
#
# Poissons Ratio (x) = 0.39426 0.28681
# Poissons Ratio (y) = 0.39426 0.28681
# Poissons Ratio (z) = 0.27633 0.27633
#
# Static dielectric constant tensor:
#      x y z
#    x 1.688310 0.000000 0.000000 
#    y 0.000000 1.688310 0.000000 
#    z 0.000000 0.000000 1.815050 
# 
# From -- ./inp_files/3218.got.cif
#   From: 2010.05.17/outbox.cif.g08.bks.cpg/sg190_2_cif.got.tgz:3218.got - 2010.05.20 12:16:56.
