data_PCOD9586328
_publ_section_title
;
Structure prediction by ZEFSAII (Michael W. Deem and Ramdas Pophale) SiO2 
 PCOD9586328
Probable space group: P -6 2 M
;
_chemical_formula_sum "Si O2"
_cell_formula_units_Z 46
_cell_length_a 14.547871
_cell_length_b 14.547871
_cell_length_c 10.951869
_cell_angle_alpha 90.000000
_cell_angle_beta 90.000000
_cell_angle_gamma 120.000000
_cell_volume 2007.325284
_symmetry_space_group_name_H-M "P -6 2 M"
_symmetry_group_IT_number 189
_symmetry_cell_setting 'hexagonal'
loop_
_space_group_symop_operation_xyz
x,y,z
-x+y,-x,-z
-y,x-y,z
x,y,-z
-x+y,-x,z
-y,x-y,-z
x-y,-y,-z
-x,-x+y,-z
y,x,-z
y,x,z
x-y,-y,z
-x,-x+y,z
loop_
_atom_site_type_symbol
_atom_site_label
_atom_site_fract_x
_atom_site_fract_y
_atom_site_fract_z
Si Si1 0.746432 0.874680 0.636301
Si Si2 0.367054 0.123345 0.134523
Si Si3 0.333335 0.666668 0.856655
Si Si4 0.453792 0.886014 0.233106
Si Si5 0.408669 0.602005 0.500000
O O1 0.697802 0.856853 0.500000
O O2 0.813365 0.813365 0.637958
O O3 0.663953 0.831607 0.747702
O O4 0.824166 0.000000 0.650410
O O5 0.470701 0.114471 0.162786
O O6 0.273599 0.000000 0.126955
O O7 0.375787 0.171968 0.000000
O O8 0.336382 0.563745 0.807987
O O9 0.333334 0.666668 0.000000
O O10 0.430587 0.874141 0.377414
O O11 0.556334 0.000000 0.208010
O O12 0.280865 0.553505 0.500000
#
# Coordination Sequence:
#
# PCOD9586328 Si02
#       5
#    12  12   4  12   6
#     4   9  17  30  49  75 108 149 200 260 325 392
#     4   9  19  34  53  79 110 147 197 251 306 376
#     4  12  24  43  68  97 138 180 226 281 328 399
#     4  11  22  40  67  95 126 169 215 269 334 393
#     4  10  19  40  68  96 132 168 212 270 337 396
#
# _framework density 22.916065
#
# number of rings (size 3 to 8) (size 9 to 14) (size 15 to 20)
#    0.261    1.826    2.609    1.435    1.826    3.130 
#    0.000    1.304    0.000    4.696    0.000    0.000 
#    0.000    0.000    0.000    0.783    0.000    6.783 
#
# Total GULP energy -256755.868177 kJ/mol
# GULP energy per Si atom -5581.649308 kJ/mol
# Density = 2.286391 g / cm^3
# Si number density = 22.916065 Si / 1000 Ang^3
#
#
#
# Elastic Constant Matrix: (Units=GPa)
#
#
# Indices 1 2 3 4 5 6 
#
# 1 74.5390 25.0212 12.4723 0.0000 0.0002 0.0004
# 2 25.0212 74.5395 12.4715 -0.0002 0.0000 0.0004
# 3 12.4723 12.4715 141.3276 -0.0005 0.0003 0.0001
# 4 0.0000 -0.0002 -0.0005 14.1956 0.0000 0.0001
# 5 0.0002 0.0000 0.0003 0.0000 14.1957 -0.0001
# 6 0.0004 0.0004 0.0001 0.0001 -0.0001 24.7584
#
#
#
# Elastic Compliance Matrix: (Units=1/GPa)
#
#
# Indices 1 2 3 4 5 6 
#
# 1 0.015233 -0.004962 -0.000906 0.000000 0.000000 0.000000
# 2 -0.004962 0.015233 -0.000906 0.000000 0.000000 0.000000
# 3 -0.000906 -0.000906 0.007236 0.000000 0.000000 0.000000
# 4 0.000000 0.000000 0.000000 0.070444 0.000000 0.000000
# 5 0.000000 0.000000 0.000000 0.000000 0.070444 0.000000
# 6 0.000000 0.000000 0.000000 0.000000 0.000000 0.040390
#
#
# Mechanical properties :
#
#
# Convention : Reuss Voigt Hill
#
# Bulk Modulus (GPa) = 41.40348 43.37066 42.38707
# Shear Modulus (GPa) = 20.78311 26.65936 23.72124
#
# Velocity S-wave (km/s) = 3.01478 3.41449 3.22084
# Velocity P-wave (km/s) = 5.49775 5.87469 5.68934
#
# Compressibility (1/GPa) = 0.02415256
#
# Stress axis : x y z
#
# Youngs Moduli (GPa) = 65.64685 65.64747 138.20291
#
# Poissons Ratio (x) = 0.32572 0.12528
# Poissons Ratio (y) = 0.32572 0.12526
# Poissons Ratio (z) = 0.05951 0.05950
#
# Static dielectric constant tensor:
#      x y z
#    x 1.892470 0.000000 0.000000 
#    y 0.000000 1.892460 0.000000 
#    z 0.000000 0.000000 1.846420 
# 
# From -- ./inp_files/1720.got.cif
#   From: 2010.05.17/outbox.cif.g08.bks.cpg/sg189_1_cif.got.tgz:1720.got - 2010.05.20 12:14:34.
