data_PCOD9586105
_publ_section_title
;
Structure prediction by ZEFSAII (Michael W. Deem and Ramdas Pophale) SiO2 
 PCOD9586105
Probable space group: P -6 2 M
;
_chemical_formula_sum "Si O2"
_cell_formula_units_Z 66
_cell_length_a 13.920925
_cell_length_b 13.920925
_cell_length_c 24.146745
_cell_angle_alpha 90.000000
_cell_angle_beta 90.000000
_cell_angle_gamma 120.000000
_cell_volume 4052.522314
_symmetry_space_group_name_H-M "P -6 2 M"
_symmetry_group_IT_number 189
_symmetry_cell_setting 'hexagonal'
loop_
_space_group_symop_operation_xyz
x,y,z
-x+y,-x,-z
-y,x-y,z
x,y,-z
-x+y,-x,z
-y,x-y,-z
x-y,-y,-z
-x,-x+y,-z
y,x,-z
y,x,z
x-y,-y,z
-x,-x+y,z
loop_
_atom_site_type_symbol
_atom_site_label
_atom_site_fract_x
_atom_site_fract_y
_atom_site_fract_z
Si Si1 0.126137 0.464861 0.378677
Si Si2 0.564180 0.434596 0.000000
Si Si3 0.708343 0.233463 0.208333
Si Si4 0.649213 0.449888 0.500000
Si Si5 0.296734 0.426351 0.905964
Si Si6 0.334685 0.127746 0.000000
Si Si7 0.677448 0.131395 0.326284
O O1 0.137655 0.495122 0.443574
O O2 0.151114 0.576366 0.345245
O O3 0.216922 0.431139 0.362762
O O4 0.000000 0.373265 0.365912
O O5 0.536397 0.362175 0.944602
O O6 0.469821 0.469821 0.000000
O O7 0.678590 0.546967 0.000000
O O8 0.783187 0.367103 0.208843
O O9 0.733891 0.190734 0.152200
O O10 0.712973 0.172571 0.263341
O O11 0.762580 0.443351 0.500000
O O12 0.376313 0.376313 0.894503
O O13 0.195882 0.341209 0.945047
O O14 0.240129 0.000000 0.000000
O O15 0.630382 0.000000 0.332287
#
# Coordination Sequence:
#
# PCOD9586105 Si02
#       7
#    12   6  12   6  12   6  12
#     4  11  20  34  53  78 111 147 187 229 277 332
#     4   8  16  29  44  63  90 119 156 194 243 296
#     4  10  19  31  51  76 106 134 174 209 258 322
#     4  10  17  30  54  74 115 142 182 232 278 332
#     4  10  19  32  48  71  98 126 160 205 257 309
#     4  10  19  33  49  67  93 131 171 210 250 308
#     4  11  20  35  55  76 113 150 186 231 274 329
#
# _framework density 16.286154
#
# number of rings (size 3 to 8) (size 9 to 14) (size 15 to 20)
#    0.545    1.273    3.636    3.091    0.000    0.000 
#    4.364    2.273    0.000    1.818    0.000    0.000 
#    0.000    0.000    0.000    0.000    0.000    0.000 
#
# Total GULP energy -367654.915597 kJ/mol
# GULP energy per Si atom -5570.529024 kJ/mol
# Density = 1.624909 g / cm^3
# Si number density = 16.286154 Si / 1000 Ang^3
#
#
#
# Elastic Constant Matrix: (Units=GPa)
#
#
# Indices 1 2 3 4 5 6 
#
# 1 54.9409 14.9903 10.6969 0.0000 0.0000 0.0000
# 2 14.9903 54.9409 10.6969 0.0000 0.0000 0.0000
# 3 10.6969 10.6969 107.9776 0.0000 0.0000 0.0000
# 4 0.0000 0.0000 0.0000 9.0845 0.0000 0.0000
# 5 0.0000 0.0000 0.0000 0.0000 9.0845 0.0000
# 6 0.0000 0.0000 0.0000 0.0000 0.0000 19.9753
#
#
#
# Elastic Compliance Matrix: (Units=1/GPa)
#
#
# Indices 1 2 3 4 5 6 
#
# 1 0.019889 -0.005142 -0.001461 0.000000 0.000000 0.000000
# 2 -0.005142 0.019889 -0.001461 0.000000 0.000000 0.000000
# 3 -0.001461 -0.001461 0.009551 0.000000 0.000000 0.000000
# 4 0.000000 0.000000 0.000000 0.110078 0.000000 0.000000
# 5 0.000000 0.000000 0.000000 0.000000 0.110078 0.000000
# 6 0.000000 0.000000 0.000000 0.000000 0.000000 0.050062
#
#
# Mechanical properties :
#
#
# Convention : Reuss Voigt Hill
#
# Bulk Modulus (GPa) = 30.12011 32.29199 31.20605
# Shear Modulus (GPa) = 14.42002 19.72721 17.07361
#
# Velocity S-wave (km/s) = 2.97882 3.48413 3.24134
# Velocity P-wave (km/s) = 5.51050 6.00470 5.76290
#
# Compressibility (1/GPa) = 0.03320041
#
# Stress axis : x y z
#
# Youngs Moduli (GPa) = 50.27958 50.27958 104.70512
#
# Poissons Ratio (x) = 0.25854 0.15296
# Poissons Ratio (y) = 0.25854 0.15296
# Poissons Ratio (z) = 0.07345 0.07345
#
# Static dielectric constant tensor:
#      x y z
#    x 1.548220 0.000000 0.000000 
#    y 0.000000 1.548220 0.000000 
#    z 0.000000 0.000000 1.556200 
# 
# From -- ./inp_files/3424.got.cif
#   From: 2010.05.17/outbox.cif.g08.bks.cpg/sg189_2_cif.got.tgz:3424.got - 2010.05.20 12:14:34.
