data_PCOD9586011
_publ_section_title
;
Structure prediction by ZEFSAII (Michael W. Deem and Ramdas Pophale) SiO2 
 PCOD9586011
Probable space group: P -6 C 2
;
_chemical_formula_sum "Si O2"
_cell_formula_units_Z 66
_cell_length_a 20.656337
_cell_length_b 20.656337
_cell_length_c 9.099703
_cell_angle_alpha 90.000000
_cell_angle_beta 90.000000
_cell_angle_gamma 120.000000
_cell_volume 3362.516857
_symmetry_space_group_name_H-M "P -6 C 2"
_symmetry_group_IT_number 188
_symmetry_cell_setting 'hexagonal'
loop_
_space_group_symop_operation_xyz
x,y,z
-x+y,-x,1/2-z
-y,x-y,z
x,y,1/2-z
-x+y,-x,z
-y,x-y,1/2-z
-y,-x,-z
-x+y,y,-z
x,x-y,-z
-x+y,y,1/2+z
x,x-y,1/2+z
-y,-x,1/2+z
loop_
_atom_site_type_symbol
_atom_site_label
_atom_site_fract_x
_atom_site_fract_y
_atom_site_fract_z
Si Si1 0.004508 0.122247 0.586024
Si Si2 0.867929 0.735857 0.500000
Si Si3 0.377172 0.077670 0.411910
Si Si4 0.544707 0.207103 0.416128
Si Si5 0.194681 0.667368 0.929864
Si Si6 0.032172 0.446858 0.927509
O O1 0.021863 0.111596 0.750000
O O2 0.082806 0.165612 0.500000
O O3 0.944049 0.150119 0.586577
O O4 0.954614 0.045387 0.500000
O O5 0.787932 0.683419 0.426287
O O6 0.368668 0.042847 0.250000
O O7 0.456712 0.152957 0.417620
O O8 0.383440 0.023160 0.529804
O O9 0.571404 0.222753 0.250000
O O10 0.584603 0.169206 0.500000
O O11 0.563886 0.281943 0.500000
O O12 0.195834 0.666730 0.750000
O O13 0.253149 0.746852 0.000000
O O14 0.215326 0.607663 0.000000
O O15 0.111927 0.638905 0.994599
O O16 0.038548 0.456785 0.750000
O O17 0.007992 0.503996 0.000000
#
# Coordination Sequence:
#
# PCOD9586011 Si02
#       6
#    12   6  12  12  12  12
#     4  10  21  37  62  91 123 158 198 250 309 374
#     4  10  24  42  68  94 128 160 214 256 326 388
#     4  11  23  42  65  91 123 165 210 263 321 384
#     4  11  23  39  60  87 120 159 205 257 316 373
#     4  11  21  37  61  92 129 169 214 264 317 373
#     4  11  23  40  63  92 126 168 217 264 316 381
#
# _framework density 19.628156000000001
#
# number of rings (size 3 to 8) (size 9 to 14) (size 15 to 20)
#    0.545    0.727    0.909    7.091    0.000    4.364 
#    0.000    0.909    0.000    2.182    0.000    0.000 
#    0.000    0.000    0.000    0.000    0.000    0.000 
#
# Total GULP energy -367549.761194 kJ/mol
# GULP energy per Si atom -5568.935776 kJ/mol
# Density = 1.958348 g / cm^3
# Si number density = 19.628156 Si / 1000 Ang^3
#
#
#
# Elastic Constant Matrix: (Units=GPa)
#
#
# Indices 1 2 3 4 5 6 
#
# 1 98.3556 33.0091 49.1844 -0.0001 0.0000 0.0000
# 2 33.0091 98.3556 49.1844 0.0001 0.0000 0.0000
# 3 49.1844 49.1844 200.0165 0.0000 0.0000 0.0000
# 4 -0.0001 0.0001 0.0000 17.1134 0.0000 0.0000
# 5 0.0000 0.0000 0.0000 0.0000 17.1134 -0.0001
# 6 0.0000 0.0000 0.0000 0.0000 -0.0001 32.6732
#
#
#
# Elastic Compliance Matrix: (Units=1/GPa)
#
#
# Indices 1 2 3 4 5 6 
#
# 1 0.012317 -0.002986 -0.002294 0.000000 0.000000 0.000000
# 2 -0.002986 0.012317 -0.002294 0.000000 0.000000 0.000000
# 3 -0.002294 -0.002294 0.006128 0.000000 0.000000 0.000000
# 4 0.000000 0.000000 0.000000 0.058434 0.000000 0.000000
# 5 0.000000 0.000000 0.000000 0.000000 0.058434 0.000000
# 6 0.000000 0.000000 0.000000 0.000000 0.000000 0.030606
#
#
# Mechanical properties :
#
#
# Convention : Reuss Voigt Hill
#
# Bulk Modulus (GPa) = 64.05574 73.27595 68.66585
# Shear Modulus (GPa) = 25.17762 31.06999 28.12380
#
# Velocity S-wave (km/s) = 3.58541 3.98292 3.78938
# Velocity P-wave (km/s) = 7.06015 7.65275 7.36241
#
# Compressibility (1/GPa) = 0.01561140
#
# Stress axis : x y z
#
# Youngs Moduli (GPa) = 81.19017 81.19017 163.18621
#
# Poissons Ratio (x) = 0.24246 0.37441
# Poissons Ratio (y) = 0.24246 0.37441
# Poissons Ratio (z) = 0.18628 0.18628
#
# Static dielectric constant tensor:
#      x y z
#    x 1.721380 0.000000 0.000000 
#    y 0.000000 1.721380 0.000000 
#    z 0.000000 0.000000 1.723770 
# 
# From -- ./inp_files/801.got.cif
#   From: 2010.05.17/outbox.cif.g08.bks.cpg/sg188_1_cif.got.tgz:801.got - 2010.05.20 12:11:46.
