data_PCOD9586560
_publ_section_title
;
Structure prediction by ZEFSAII (Michael W. Deem and Ramdas Pophale) SiO2 
 PCOD9586560
Probable space group: P -6 2 M
;
_chemical_formula_sum "Si O2"
_cell_formula_units_Z 48
_cell_length_a 18.227228
_cell_length_b 18.227228
_cell_length_c 8.266653
_cell_angle_alpha 90.000000
_cell_angle_beta 90.000000
_cell_angle_gamma 120.000000
_cell_volume 2378.491436
_symmetry_space_group_name_H-M "P -6 2 M"
_symmetry_group_IT_number 189
_symmetry_cell_setting 'hexagonal'
loop_
_space_group_symop_operation_xyz
x,y,z
-x+y,-x,-z
-y,x-y,z
x,y,-z
-x+y,-x,z
-y,x-y,-z
x-y,-y,-z
-x,-x+y,-z
y,x,-z
y,x,z
x-y,-y,z
-x,-x+y,z
loop_
_atom_site_type_symbol
_atom_site_label
_atom_site_fract_x
_atom_site_fract_y
_atom_site_fract_z
Si Si1 0.000000 0.791042 0.311285
Si Si2 0.811291 0.712809 0.302140
Si Si3 0.630343 0.170013 0.185010
Si Si4 0.385107 0.385107 0.688933
Si Si5 0.291210 0.808265 0.687990
O O1 0.000000 0.815049 0.500000
O O2 0.091576 0.859682 0.242485
O O3 0.000000 0.702734 0.308428
O O4 0.815520 0.711730 0.500000
O O5 0.755722 0.755722 0.257853
O O6 0.765536 0.614032 0.251845
O O7 0.540442 0.161786 0.221293
O O8 0.706859 0.238229 0.293693
O O9 0.624999 0.081925 0.223667
O O10 0.654259 0.195749 0.000000
O O11 0.407739 0.407739 0.500000
O O12 0.310084 0.831557 0.500000
#
# Coordination Sequence:
#
# PCOD9586560 Si02
#       5
#     6  12  12   6  12
#     4   9  16  33  59  87 118 151 198 252 300 360
#     4   9  18  33  56  88 120 153 198 253 304 355
#     4  12  25  40  58  88 125 158 200 259 316 363
#     4  11  21  39  63  87 114 159 212 250 296 370
#     4  11  22  39  62  86 118 164 211 251 299 369
#
# _framework density 20.180857
#
# number of rings (size 3 to 8) (size 9 to 14) (size 15 to 20)
#    0.000    1.500    2.500    3.875    1.750    0.000 
#    0.750    0.000    0.000    0.000    0.000    0.000 
#    0.000    0.000    0.000    0.000    0.000    0.000 
#
# Total GULP energy -268066.531829 kJ/mol
# GULP energy per Si atom -5584.719413 kJ/mol
# Density = 2.013492 g / cm^3
# Si number density = 20.180857 Si / 1000 Ang^3
#
#
#
# Elastic Constant Matrix: (Units=GPa)
#
#
# Indices 1 2 3 4 5 6 
#
# 1 67.0562 53.1791 4.1606 0.0000 0.0000 0.0000
# 2 53.1791 67.0562 4.1606 0.0000 0.0000 0.0000
# 3 4.1606 4.1606 23.0151 0.0000 0.0000 0.0000
# 4 0.0000 0.0000 0.0000 22.8911 0.0000 0.0000
# 5 0.0000 0.0000 0.0000 0.0000 22.8911 0.0000
# 6 0.0000 0.0000 0.0000 0.0000 0.0000 6.9385
#
#
#
# Elastic Compliance Matrix: (Units=1/GPa)
#
#
# Indices 1 2 3 4 5 6 
#
# 1 0.040242 -0.031820 -0.001523 0.000000 0.000000 0.000000
# 2 -0.031820 0.040242 -0.001523 0.000000 0.000000 0.000000
# 3 -0.001523 -0.001523 0.044000 0.000000 0.000000 0.000000
# 4 0.000000 0.000000 0.000000 0.043685 0.000000 0.000000
# 5 0.000000 0.000000 0.000000 0.000000 0.043685 0.000000
# 6 0.000000 0.000000 0.000000 0.000000 0.000000 0.144123
#
#
# Mechanical properties :
#
#
# Convention : Reuss Voigt Hill
#
# Bulk Modulus (GPa) = 18.26325 31.12534 24.69430
# Shear Modulus (GPa) = 11.26232 16.91928 14.09080
#
# Velocity S-wave (km/s) = 2.36491 2.89863 2.64526
# Velocity P-wave (km/s) = 4.06528 5.16327 4.64682
#
# Compressibility (1/GPa) = 0.05475477
#
# Stress axis : x y z
#
# Youngs Moduli (GPa) = 24.84971 24.84971 22.72711
#
# Poissons Ratio (x) = 0.79071 0.03460
# Poissons Ratio (y) = 0.79071 0.03460
# Poissons Ratio (z) = 0.03784 0.03784
#
# Static dielectric constant tensor:
#      x y z
#    x 1.752010 0.000000 0.000000 
#    y 0.000000 1.752010 0.000000 
#    z 0.000000 0.000000 1.693240 
# 
# From -- ./inp_files/639.got.cif
#   From: 2010.05.17/outbox.cif.g08.bks.cpg/sg189_1_cif.got.tgz:639.got - 2010.05.20 12:14:34.
