data_PCOD9586275
_publ_section_title
;
Structure prediction by ZEFSAII (Michael W. Deem and Ramdas Pophale) SiO2 
 PCOD9586275
Probable space group: P -6 2 M
;
_chemical_formula_sum "Si O2"
_cell_formula_units_Z 72
_cell_length_a 24.386437
_cell_length_b 24.386437
_cell_length_c 7.612148
_cell_angle_alpha 90.000000
_cell_angle_beta 90.000000
_cell_angle_gamma 120.000000
_cell_volume 3920.437721
_symmetry_space_group_name_H-M "P -6 2 M"
_symmetry_group_IT_number 189
_symmetry_cell_setting 'hexagonal'
loop_
_space_group_symop_operation_xyz
x,y,z
-x+y,-x,-z
-y,x-y,z
x,y,-z
-x+y,-x,z
-y,x-y,-z
x-y,-y,-z
-x,-x+y,-z
y,x,-z
y,x,z
x-y,-y,z
-x,-x+y,z
loop_
_atom_site_type_symbol
_atom_site_label
_atom_site_fract_x
_atom_site_fract_y
_atom_site_fract_z
Si Si1 0.927903 0.264999 0.715832
Si Si2 0.596354 0.128395 0.287663
Si Si3 0.519601 0.662135 0.293091
Si Si4 0.408983 0.408983 0.714226
Si Si5 0.674544 0.863307 0.703950
Si Si6 0.000000 0.718128 0.283710
Si Si7 0.791392 0.530527 0.794167
O O1 0.925682 0.264098 0.500000
O O2 0.903238 0.312537 0.775593
O O3 0.876118 0.194621 0.777664
O O4 0.000000 0.290862 0.768078
O O5 0.593879 0.126923 0.500000
O O6 0.537987 0.135577 0.220326
O O7 0.591206 0.062963 0.227271
O O8 0.665952 0.184151 0.238872
O O9 0.522812 0.651040 0.500000
O O10 0.507892 0.721115 0.273219
O O11 0.409133 0.409133 0.500000
O O12 0.345744 0.345744 0.769155
O O13 0.692915 0.868792 0.500000
O O14 0.599169 0.838581 0.710642
O O15 0.711662 0.934103 0.778030
O O16 0.000000 0.718715 0.500000
O O17 0.792040 0.542076 0.000000
#
# Coordination Sequence:
#
# PCOD9586275 Si02
#       7
#    12  12  12   6  12   6  12
#     4   8  14  25  44  71  96 115 144 191 234 264
#     4  10  19  33  52  72  93 119 154 195 237 282
#     4   9  19  33  51  69  87 116 156 196 233 278
#     4   9  16  26  48  76  98 116 144 191 240 279
#     4   9  16  29  48  69  93 121 154 188 226 269
#     4   9  14  24  46  72  96 120 150 191 230 267
#     4  11  21  33  48  65  91 122 152 190 238 283
#
# _framework density 18.365297000000002
#
# number of rings (size 3 to 8) (size 9 to 14) (size 15 to 20)
#    0.000    2.667    1.667    2.500    1.167    0.667 
#    1.000    1.667    0.000    8.000    0.000    0.000 
#    0.833    0.000    2.500    0.000    0.000    0.000 
#
# Total GULP energy -401511.400350 kJ/mol
# GULP energy per Si atom -5576.547227 kJ/mol
# Density = 1.832350 g / cm^3
# Si number density = 18.365297 Si / 1000 Ang^3
#
#
#
# Elastic Constant Matrix: (Units=GPa)
#
#
# Indices 1 2 3 4 5 6 
#
# 1 127.4781 83.7289 -7.4018 0.0000 0.0000 0.0000
# 2 83.7289 127.4781 -7.4018 0.0000 0.0000 0.0000
# 3 -7.4018 -7.4018 35.2103 0.0000 0.0000 0.0000
# 4 0.0000 0.0000 0.0000 -16.4000 0.0000 0.0000
# 5 0.0000 0.0000 0.0000 0.0000 -16.4000 0.0000
# 6 0.0000 0.0000 0.0000 0.0000 0.0000 21.8746
#
#
#
# Elastic Compliance Matrix: (Units=1/GPa)
#
#
# Indices 1 2 3 4 5 6 
#
# 1 0.013832 -0.009026 0.001010 0.000000 0.000000 0.000000
# 2 -0.009026 0.013832 0.001010 0.000000 0.000000 0.000000
# 3 0.001010 0.001010 0.028825 0.000000 0.000000 0.000000
# 4 0.000000 0.000000 0.000000 -0.060976 0.000000 0.000000
# 5 0.000000 0.000000 0.000000 0.000000 -0.060976 0.000000
# 6 0.000000 0.000000 0.000000 0.000000 0.000000 0.045715
#
#
# Mechanical properties :
#
#
# Convention : Reuss Voigt Hill
#
# Bulk Modulus (GPa) = 23.54200 47.55746 35.54973
# Shear Modulus (GPa) = 593.63386 12.56435 303.09910
#
# Velocity S-wave (km/s) = 17.99829 2.61844 12.86069
# Velocity P-wave (km/s) = 21.08944 5.92394 15.48964
#
# Compressibility (1/GPa) = 0.04247727
#
# Stress axis : x y z
#
# Youngs Moduli (GPa) = 72.29858 72.29858 34.69153
#
# Poissons Ratio (x) = 0.65257 -0.03505
# Poissons Ratio (y) = 0.65257 -0.03505
# Poissons Ratio (z) = -0.07304 -0.07304
#
# Static dielectric constant tensor:
#      x y z
#    x 1.630350 0.000000 0.000000 
#    y 0.000000 1.630350 0.000000 
#    z 0.000000 0.000000 1.665610 
# 
# From -- ./inp_files/1338.got.cif
#   From: 2010.05.17/outbox.cif.g08.bks.cpg/sg189_1_cif.got.tgz:1338.got - 2010.05.20 12:14:34.
