data_PCOD9586854
_publ_section_title
;
Structure prediction by ZEFSAII (Michael W. Deem and Ramdas Pophale) SiO2 
 PCOD9586854
Probable space group: P -6 2 C
;
_chemical_formula_sum "Si O2"
_cell_formula_units_Z 84
_cell_length_a 17.693036
_cell_length_b 17.693036
_cell_length_c 13.735525
_cell_angle_alpha 90.000000
_cell_angle_beta 90.000000
_cell_angle_gamma 120.000000
_cell_volume 3723.750870
_symmetry_space_group_name_H-M "P -6 2 C"
_symmetry_group_IT_number 190
_symmetry_cell_setting 'hexagonal'
loop_
_space_group_symop_operation_xyz
x,y,z
-x+y,-x,1/2-z
-y,x-y,z
x,y,1/2-z
-x+y,-x,z
-y,x-y,1/2-z
x-y,-y,-z
-x,-x+y,-z
y,x,-z
y,x,1/2+z
x-y,-y,1/2+z
-x,-x+y,1/2+z
loop_
_atom_site_type_symbol
_atom_site_label
_atom_site_fract_x
_atom_site_fract_y
_atom_site_fract_z
Si Si1 0.345666 0.900087 0.533047
Si Si2 0.616140 0.819662 0.635240
Si Si3 0.924409 0.558150 0.639482
Si Si4 0.805995 0.861750 0.131773
Si Si5 0.944233 0.804079 0.369324
Si Si6 0.615175 0.116955 0.429197
Si Si7 0.777356 0.609124 0.637232
O O1 0.265446 0.883643 0.601323
O O2 0.405788 0.872956 0.595500
O O3 0.296616 0.842044 0.437541
O O4 0.405263 0.000000 0.500000
O O5 0.616368 0.824767 0.750000
O O6 0.704180 0.904407 0.598187
O O7 0.527935 0.814392 0.597439
O O8 0.910114 0.523534 0.750000
O O9 0.889085 0.495992 0.546393
O O10 0.869361 0.608988 0.632333
O O11 0.028057 0.605231 0.618202
O O12 0.809259 0.863996 0.250000
O O13 0.875395 0.833941 0.101056
O O14 0.705457 0.797696 0.107915
O O15 0.831809 0.958770 0.099446
O O16 0.946089 0.803348 0.250000
O O17 0.749375 0.591280 0.750000
#
# Coordination Sequence:
#
# PCOD9586854 Si02
#       7
#    12  12  12  12  12  12  12
#     4  12  25  43  65  98 135 172 221 280 348 409
#     4  11  24  43  67  96 134 181 229 280 343 409
#     4  10  20  40  70  97 124 166 221 275 336 404
#     4   9  16  29  53  90 132 177 220 264 315 376
#     4   9  17  31  55  91 134 177 222 266 314 379
#     4  11  23  44  67  98 132 169 223 285 340 413
#     4  10  21  39  65  94 129 174 224 275 336 407
#
# _framework density 22.557901000000001
#
# number of rings (size 3 to 8) (size 9 to 14) (size 15 to 20)
#    0.000    1.714    2.857    2.429    0.000    6.857 
#    0.857    0.000    0.000    0.000    0.000    2.000 
#    0.000    0.000    0.000    0.000    0.000    0.000 
#
# Total GULP energy -468981.869736 kJ/mol
# GULP energy per Si atom -5583.117497 kJ/mol
# Density = 2.250656 g / cm^3
# Si number density = 22.557901 Si / 1000 Ang^3
#
#
#
# Elastic Constant Matrix: (Units=GPa)
#
#
# Indices 1 2 3 4 5 6 
#
# 1 94.3372 45.7256 12.2772 0.0000 0.0000 0.0000
# 2 45.7256 94.3372 12.2772 0.0000 0.0000 0.0000
# 3 12.2772 12.2772 98.7601 0.0000 0.0000 0.0000
# 4 0.0000 0.0000 0.0000 22.5309 0.0000 0.0000
# 5 0.0000 0.0000 0.0000 0.0000 22.5309 0.0000
# 6 0.0000 0.0000 0.0000 0.0000 0.0000 24.3058
#
#
#
# Elastic Compliance Matrix: (Units=1/GPa)
#
#
# Indices 1 2 3 4 5 6 
#
# 1 0.013935 -0.006636 -0.000907 0.000000 0.000000 0.000000
# 2 -0.006636 0.013935 -0.000907 0.000000 0.000000 0.000000
# 3 -0.000907 -0.000907 0.010351 0.000000 0.000000 0.000000
# 4 0.000000 0.000000 0.000000 0.044383 0.000000 0.000000
# 5 0.000000 0.000000 0.000000 0.000000 0.044383 0.000000
# 6 0.000000 0.000000 0.000000 0.000000 0.000000 0.041142
#
#
# Mechanical properties :
#
#
# Convention : Reuss Voigt Hill
#
# Bulk Modulus (GPa) = 46.90592 47.55491 47.23042
# Shear Modulus (GPa) = 26.02286 28.35048 27.18667
#
# Velocity S-wave (km/s) = 3.40016 3.54897 3.47536
# Velocity P-wave (km/s) = 6.02109 6.15797 6.08991
#
# Compressibility (1/GPa) = 0.02131927
#
# Stress axis : x y z
#
# Youngs Moduli (GPa) = 71.76189 71.76189 96.60776
#
# Poissons Ratio (x) = 0.47623 0.08765
# Poissons Ratio (y) = 0.47623 0.08765
# Poissons Ratio (z) = 0.06511 0.06511
#
# Static dielectric constant tensor:
#      x y z
#    x 1.839430 0.000000 0.000000 
#    y 0.000000 1.839430 0.000000 
#    z 0.000000 0.000000 1.875550 
# 
# From -- ./inp_files/3174.got.cif
#   From: 2010.05.17/outbox.cif.g08.bks.cpg/sg190_2_cif.got.tgz:3174.got - 2010.05.20 12:16:56.
