data_PCOD9586074
_publ_section_title
;
Structure prediction by ZEFSAII (Michael W. Deem and Ramdas Pophale) SiO2 
 PCOD9586074
Probable space group: P -6 C 2
;
_chemical_formula_sum "Si O2"
_cell_formula_units_Z 48
_cell_length_a 23.690182
_cell_length_b 23.690182
_cell_length_c 8.632200
_cell_angle_alpha 90.000000
_cell_angle_beta 90.000000
_cell_angle_gamma 120.000000
_cell_volume 4195.550183
_symmetry_space_group_name_H-M "P -6 C 2"
_symmetry_group_IT_number 188
_symmetry_cell_setting 'hexagonal'
loop_
_space_group_symop_operation_xyz
x,y,z
-x+y,-x,1/2-z
-y,x-y,z
x,y,1/2-z
-x+y,-x,z
-y,x-y,1/2-z
-y,-x,-z
-x+y,y,-z
x,x-y,-z
-x+y,y,1/2+z
x,x-y,1/2+z
-y,-x,1/2+z
loop_
_atom_site_type_symbol
_atom_site_label
_atom_site_fract_x
_atom_site_fract_y
_atom_site_fract_z
Si Si1 0.599662 0.528357 0.435854
Si Si2 0.667477 0.460530 0.565038
Si Si3 0.206947 0.667477 0.434962
Si Si4 0.528356 0.599663 0.064146
O O1 0.601278 0.523469 0.250000
O O2 0.534659 0.465342 0.500000
O O3 0.656766 0.519648 0.509076
O O4 0.589476 0.589477 0.473474
O O5 0.666109 0.457211 0.750000
O O6 0.606367 0.393634 0.500000
O O7 0.733432 0.466864 0.500000
O O8 0.208899 0.666109 0.250000
O O9 0.266569 0.733432 0.500000
O O10 0.212734 0.606367 0.500000
O O11 0.137119 0.656767 0.490923
O O12 0.523468 0.601278 0.250000
O O13 0.465341 0.534660 0.000000
#
# Coordination Sequence:
#
# PCOD9586074 Si02
#       4
#    12  12  12  12
#     4   9  16  26  39  53  67  83 105 131 159 192
#     4  11  20  29  39  51  68  87 109 134 165 202
#     4  11  20  29  39  51  68  87 109 134 165 202
#     4   9  16  26  39  53  67  83 105 131 159 192
#
# _framework density 11.440692
#
# number of rings (size 3 to 8) (size 9 to 14) (size 15 to 20)
#    0.000    2.000    0.000    9.500    0.000    3.000 
#    0.000    0.000    0.000    0.000    0.000    0.000 
#    0.000    0.000    0.000    0.000    0.000    0.000 
#
# Total GULP energy -267344.482874 kJ/mol
# GULP energy per Si atom -5569.676727 kJ/mol
# Density = 1.141465 g / cm^3
# Si number density = 11.440692 Si / 1000 Ang^3
#
#
#
# Elastic Constant Matrix: (Units=GPa)
#
#
# Indices 1 2 3 4 5 6 
#
# 1 68.0141 44.8608 37.0038 0.0000 0.0000 0.0000
# 2 44.8608 68.0141 37.0038 0.0000 0.0000 0.0000
# 3 37.0038 37.0038 101.6702 0.0000 0.0000 0.0000
# 4 0.0000 0.0000 0.0000 16.3928 0.0000 0.0000
# 5 0.0000 0.0000 0.0000 0.0000 16.3928 0.0000
# 6 0.0000 0.0000 0.0000 0.0000 0.0000 11.5766
#
#
#
# Elastic Compliance Matrix: (Units=1/GPa)
#
#
# Indices 1 2 3 4 5 6 
#
# 1 0.027413 -0.015777 -0.004235 0.000000 0.000000 0.000000
# 2 -0.015777 0.027413 -0.004235 0.000000 0.000000 0.000000
# 3 -0.004235 -0.004235 0.012919 0.000000 0.000000 0.000000
# 4 0.000000 0.000000 0.000000 0.061002 0.000000 0.000000
# 5 0.000000 0.000000 0.000000 0.000000 0.061002 0.000000
# 6 0.000000 0.000000 0.000000 0.000000 0.000000 0.086381
#
#
# Mechanical properties :
#
#
# Convention : Reuss Voigt Hill
#
# Bulk Modulus (GPa) = 51.94673 52.82610 52.38642
# Shear Modulus (GPa) = 15.10383 16.79446 15.94915
#
# Velocity S-wave (km/s) = 3.63738 3.83555 3.73778
# Velocity P-wave (km/s) = 7.94635 8.11723 8.03224
#
# Compressibility (1/GPa) = 0.01925049
#
# Stress axis : x y z
#
# Youngs Moduli (GPa) = 36.47866 36.47866 77.40832
#
# Poissons Ratio (x) = 0.57553 0.32783
# Poissons Ratio (y) = 0.57553 0.32783
# Poissons Ratio (z) = 0.15449 0.15449
#
# Static dielectric constant tensor:
#      x y z
#    x 1.379900 0.000000 0.000000 
#    y 0.000000 1.379900 0.000000 
#    z 0.000000 0.000000 1.375170 
# 
# From -- ./inp_files/500.got.cif
#   From: 2010.05.17/outbox.cif.g08.bks.cpg/sg188_1_cif.got.tgz:500.got - 2010.05.20 12:11:46.
