data_PCOD9586481
_publ_section_title
;
Structure prediction by ZEFSAII (Michael W. Deem and Ramdas Pophale) SiO2 
 PCOD9586481
Probable space group: P -6 2 M
;
_chemical_formula_sum "Si O2"
_cell_formula_units_Z 60
_cell_length_a 14.943899
_cell_length_b 14.943899
_cell_length_c 13.583138
_cell_angle_alpha 90.000000
_cell_angle_beta 90.000000
_cell_angle_gamma 120.000000
_cell_volume 2626.991043
_symmetry_space_group_name_H-M "P -6 2 M"
_symmetry_group_IT_number 189
_symmetry_cell_setting 'hexagonal'
loop_
_space_group_symop_operation_xyz
x,y,z
-x+y,-x,-z
-y,x-y,z
x,y,-z
-x+y,-x,z
-y,x-y,-z
x-y,-y,-z
-x,-x+y,-z
y,x,-z
y,x,z
x-y,-y,z
-x,-x+y,z
loop_
_atom_site_type_symbol
_atom_site_label
_atom_site_fract_x
_atom_site_fract_y
_atom_site_fract_z
Si Si1 0.501565 0.886597 0.885196
Si Si2 0.717369 0.548268 0.816964
Si Si3 0.764137 0.884173 0.822814
Si Si4 0.765245 0.885024 0.396196
Si Si5 0.456766 0.676991 0.611120
O O1 0.499091 0.790382 0.832667
O O2 0.389785 0.874372 0.872686
O O3 0.586350 0.000000 0.847020
O O4 0.523012 0.881823 0.000000
O O5 0.786697 0.661916 0.863152
O O6 0.687022 0.531065 0.700359
O O7 0.853643 0.853643 0.818897
O O8 0.722706 0.883301 0.711376
O O9 0.811260 0.000000 0.863466
O O10 0.709209 0.875978 0.500000
O O11 0.800815 0.800815 0.396163
O O12 0.864869 0.000000 0.398070
O O13 0.424831 0.766697 0.618902
O O14 0.494526 0.678083 0.500000
#
# Coordination Sequence:
#
# PCOD9586481 Si02
#       5
#    12  12  12  12  12
#     4  11  24  40  61  91 121 149 191 246 301 362
#     4  12  20  38  62  89 118 160 196 239 298 361
#     4  10  21  35  54  80 114 157 202 245 287 335
#     4   8  13  23  40  64  96 137 186 236 279 315
#     4   8  15  31  55  84 117 157 196 234 290 357
#
# _framework density 22.839818000000001
#
# number of rings (size 3 to 8) (size 9 to 14) (size 15 to 20)
#    0.400    1.800    2.000    2.600    0.000    3.200 
#    0.000    0.000    0.000    4.800    0.000    0.000 
#    0.000    9.600    0.000    0.000    0.000    0.000 
#
# Total GULP energy -334049.264878 kJ/mol
# GULP energy per Si atom -5567.487748 kJ/mol
# Density = 2.278783 g / cm^3
# Si number density = 22.839818 Si / 1000 Ang^3
#
#
#
# Elastic Constant Matrix: (Units=GPa)
#
#
# Indices 1 2 3 4 5 6 
#
# 1 59.1725 2.9588 -0.4558 0.0000 0.0000 0.0000
# 2 2.9588 59.1725 -0.4558 0.0000 0.0000 0.0000
# 3 -0.4558 -0.4558 55.1829 0.0000 0.0000 0.0000
# 4 0.0000 0.0000 0.0000 -2.1719 0.0000 0.0000
# 5 0.0000 0.0000 0.0000 0.0000 -2.1719 0.0000
# 6 0.0000 0.0000 0.0000 0.0000 0.0000 28.1068
#
#
#
# Elastic Compliance Matrix: (Units=1/GPa)
#
#
# Indices 1 2 3 4 5 6 
#
# 1 0.016943 -0.000846 0.000133 0.000000 0.000000 0.000000
# 2 -0.000846 0.016943 0.000133 0.000000 0.000000 0.000000
# 3 0.000133 0.000133 0.018124 0.000000 0.000000 0.000000
# 4 0.000000 0.000000 0.000000 -0.460431 0.000000 0.000000
# 5 0.000000 0.000000 0.000000 0.000000 -0.460431 0.000000
# 6 0.000000 0.000000 0.000000 0.000000 0.000000 0.035579
#
#
# Mechanical properties :
#
#
# Convention : Reuss Voigt Hill
#
# Bulk Modulus (GPa) = 19.66592 19.73581 19.70087
# Shear Modulus (GPa) = -6.13373 16.18466 5.02546
#
# Velocity S-wave (km/s) = -1.64054 2.66487 1.48495
# Velocity P-wave (km/s) = 2.24512 4.25775 3.40360
#
# Compressibility (1/GPa) = 0.05084938
#
# Stress axis : x y z
#
# Youngs Moduli (GPa) = 59.02114 59.02114 55.17619
#
# Poissons Ratio (x) = 0.04994 -0.00734
# Poissons Ratio (y) = 0.04994 -0.00734
# Poissons Ratio (z) = -0.00785 -0.00785
#
# Static dielectric constant tensor:
#      x y z
#    x 1.890100 0.000000 0.000000 
#    y 0.000000 1.890100 0.000000 
#    z 0.000000 0.000000 1.925890 
# 
# From -- ./inp_files/2534.got.cif
#   From: 2010.05.17/outbox.cif.g08.bks.cpg/sg189_2_cif.got.tgz:2534.got - 2010.05.20 12:14:34.
