data_PCOD9586519
_publ_section_title
;
Structure prediction by ZEFSAII (Michael W. Deem and Ramdas Pophale) SiO2 
 PCOD9586519
Probable space group: P -6 2 M
;
_chemical_formula_sum "Si O2"
_cell_formula_units_Z 48
_cell_length_a 18.212199
_cell_length_b 18.212199
_cell_length_c 8.146804
_cell_angle_alpha 90.000000
_cell_angle_beta 90.000000
_cell_angle_gamma 120.000000
_cell_volume 2340.144493
_symmetry_space_group_name_H-M "P -6 2 M"
_symmetry_group_IT_number 189
_symmetry_cell_setting 'hexagonal'
loop_
_space_group_symop_operation_xyz
x,y,z
-x+y,-x,-z
-y,x-y,z
x,y,-z
-x+y,-x,z
-y,x-y,-z
x-y,-y,-z
-x,-x+y,-z
y,x,-z
y,x,z
x-y,-y,z
-x,-x+y,z
loop_
_atom_site_type_symbol
_atom_site_label
_atom_site_fract_x
_atom_site_fract_y
_atom_site_fract_z
Si Si1 0.000000 0.789860 0.299757
Si Si2 0.810192 0.713187 0.301186
Si Si3 0.604778 0.158215 0.308136
Si Si4 0.378717 0.378717 0.700084
Si Si5 0.267422 0.786198 0.810750
O O1 0.000000 0.792413 0.500000
O O2 0.091774 0.866499 0.248034
O O3 0.000000 0.704910 0.245571
O O4 0.809701 0.712376 0.500000
O O5 0.750341 0.750341 0.245597
O O6 0.775894 0.616174 0.247457
O O7 0.581369 0.146033 0.500000
O O8 0.617275 0.081637 0.248129
O O9 0.531195 0.163000 0.213228
O O10 0.699017 0.237288 0.287377
O O11 0.375891 0.375891 0.500000
O O12 0.245831 0.763887 0.000000
#
# Coordination Sequence:
#
# PCOD9586519 Si02
#       5
#     6  12  12   6  12
#     4   9  16  36  64  92 119 148 199 261 308 356
#     4  10  21  39  64  91 122 163 207 253 310 374
#     4  11  22  40  63  87 114 156 204 248 295 358
#     4   9  18  34  62  88 109 142 197 251 294 344
#     4  12  25  40  58  88 127 163 199 250 306 359
#
# _framework density 20.511554
#
# number of rings (size 3 to 8) (size 9 to 14) (size 15 to 20)
#    0.000    1.500    2.500    3.500    1.750    0.500 
#    0.750    3.750    0.000    0.000    0.000    0.000 
#    0.000    0.000    0.000    0.000    0.000    0.000 
#
# Total GULP energy -268010.495749 kJ/mol
# GULP energy per Si atom -5583.551995 kJ/mol
# Density = 2.046487 g / cm^3
# Si number density = 20.511554 Si / 1000 Ang^3
#
#
#
# Elastic Constant Matrix: (Units=GPa)
#
#
# Indices 1 2 3 4 5 6 
#
# 1 66.3539 44.1695 4.2902 0.0000 0.0000 0.0000
# 2 44.1695 66.3539 4.2902 0.0000 0.0000 0.0000
# 3 4.2902 4.2902 28.6925 0.0000 0.0000 0.0000
# 4 0.0000 0.0000 0.0000 -16.6223 0.0000 0.0000
# 5 0.0000 0.0000 0.0000 0.0000 -16.6223 0.0000
# 6 0.0000 0.0000 0.0000 0.0000 0.0000 11.0922
#
#
#
# Elastic Compliance Matrix: (Units=1/GPa)
#
#
# Indices 1 2 3 4 5 6 
#
# 1 0.027115 -0.017961 -0.001369 0.000000 0.000000 0.000000
# 2 -0.017961 0.027115 -0.001369 0.000000 0.000000 0.000000
# 3 -0.001369 -0.001369 0.035262 0.000000 0.000000 0.000000
# 4 0.000000 0.000000 0.000000 -0.060160 0.000000 0.000000
# 5 0.000000 0.000000 0.000000 0.000000 -0.060160 0.000000
# 6 0.000000 0.000000 0.000000 0.000000 0.000000 0.090154
#
#
# Mechanical properties :
#
#
# Convention : Reuss Voigt Hill
#
# Bulk Modulus (GPa) = 20.79225 29.65556 25.22390
# Shear Modulus (GPa) = 42.82475 2.81289 22.81882
#
# Velocity S-wave (km/s) = 4.57424 1.17233 3.33901
# Velocity P-wave (km/s) = 6.16904 4.04003 5.21435
#
# Compressibility (1/GPa) = 0.04809484
#
# Stress axis : x y z
#
# Youngs Moduli (GPa) = 36.87930 36.87930 28.35949
#
# Poissons Ratio (x) = 0.66240 0.03882
# Poissons Ratio (y) = 0.66240 0.03882
# Poissons Ratio (z) = 0.05048 0.05048
#
# Static dielectric constant tensor:
#      x y z
#    x 1.877780 0.000000 0.000000 
#    y 0.000000 1.877780 0.000000 
#    z 0.000000 0.000000 1.714770 
# 
# From -- ./inp_files/638.got.cif
#   From: 2010.05.17/outbox.cif.g08.bks.cpg/sg189_1_cif.got.tgz:638.got - 2010.05.20 12:14:34.
