data_PCOD9586221
_publ_section_title
;
Structure prediction by ZEFSAII (Michael W. Deem and Ramdas Pophale) SiO2 
 PCOD9586221
Probable space group: P -6 2 M
;
_chemical_formula_sum "Si O2"
_cell_formula_units_Z 84
_cell_length_a 18.755879
_cell_length_b 18.755879
_cell_length_c 14.802883
_cell_angle_alpha 90.000000
_cell_angle_beta 90.000000
_cell_angle_gamma 120.000000
_cell_volume 4509.742893
_symmetry_space_group_name_H-M "P -6 2 M"
_symmetry_group_IT_number 189
_symmetry_cell_setting 'hexagonal'
loop_
_space_group_symop_operation_xyz
x,y,z
-x+y,-x,-z
-y,x-y,z
x,y,-z
-x+y,-x,z
-y,x-y,-z
x-y,-y,-z
-x,-x+y,-z
y,x,-z
y,x,z
x-y,-y,z
-x,-x+y,z
loop_
_atom_site_type_symbol
_atom_site_label
_atom_site_fract_x
_atom_site_fract_y
_atom_site_fract_z
Si Si1 0.899749 0.525256 0.899964
Si Si2 0.193091 0.097691 0.106986
Si Si3 0.900140 0.360257 0.101379
Si Si4 0.599070 0.782194 0.396250
Si Si5 0.901387 0.230605 0.220183
Si Si6 0.093736 0.503183 0.603840
Si Si7 0.348015 0.445236 0.702114
O O1 0.873484 0.429051 0.890650
O O2 0.876335 0.551528 0.806638
O O3 0.000000 0.575955 0.900541
O O4 0.873185 0.537700 0.000000
O O5 0.147568 0.147568 0.132071
O O6 0.276504 0.126804 0.161058
O O7 0.133207 0.000000 0.123002
O O8 0.210316 0.107676 0.000000
O O9 0.871373 0.290010 0.176185
O O10 0.000000 0.412275 0.106245
O O11 0.879036 0.324339 0.000000
O O12 0.626251 0.795841 0.500000
O O13 0.665331 0.791196 0.322750
O O14 0.528034 0.686474 0.388131
O O15 0.570753 0.845546 0.364167
O O16 0.000000 0.281387 0.214544
O O17 0.097472 0.532230 0.500000
O O18 0.104854 0.573030 0.673128
O O19 0.000000 0.427642 0.617194
O O20 0.378621 0.378621 0.693288
#
# Coordination Sequence:
#
# PCOD9586221 Si02
#       7
#    12  12  12  12  12  12  12
#     4   8  14  26  47  74 101 131 168 205 243 300
#     4   9  17  30  49  73 102 136 172 209 253 309
#     4   8  13  24  47  78 105 128 161 205 249 299
#     4  11  23  36  52  77 104 133 175 223 267 310
#     4  10  19  31  49  74 105 137 170 210 259 308
#     4   9  18  35  58  80 103 134 173 216 263 316
#     4  10  20  36  57  78 105 141 175 210 263 326
#
# _framework density 18.626339000000002
#
# number of rings (size 3 to 8) (size 9 to 14) (size 15 to 20)
#    0.000    2.714    0.000    3.143    0.000    6.857 
#    0.857    1.429    0.000    2.571    0.000    0.000 
#    0.000    1.143    0.000    0.000    0.000    0.000 
#
# Total GULP energy -468330.469350 kJ/mol
# GULP energy per Si atom -5575.362730 kJ/mol
# Density = 1.858394 g / cm^3
# Si number density = 18.626339 Si / 1000 Ang^3
#
#
#
# Elastic Constant Matrix: (Units=GPa)
#
#
# Indices 1 2 3 4 5 6 
#
# 1 16.5362 2.6078 -3.9382 0.0000 0.0000 0.0000
# 2 2.6078 16.5362 -3.9382 0.0000 0.0000 0.0000
# 3 -3.9382 -3.9382 64.2161 0.0000 0.0000 0.0000
# 4 0.0000 0.0000 0.0000 25.7883 0.0000 0.0000
# 5 0.0000 0.0000 0.0000 0.0000 25.7883 0.0000
# 6 0.0000 0.0000 0.0000 0.0000 0.0000 6.9642
#
#
#
# Elastic Compliance Matrix: (Units=1/GPa)
#
#
# Indices 1 2 3 4 5 6 
#
# 1 0.062692 -0.009104 0.003286 0.000000 0.000000 0.000000
# 2 -0.009104 0.062692 0.003286 0.000000 0.000000 0.000000
# 3 0.003286 0.003286 0.015975 0.000000 0.000000 0.000000
# 4 0.000000 0.000000 0.000000 0.038777 0.000000 0.000000
# 5 0.000000 0.000000 0.000000 0.000000 0.038777 0.000000
# 6 0.000000 0.000000 0.000000 0.000000 0.000000 0.143592
#
#
# Mechanical properties :
#
#
# Convention : Reuss Voigt Hill
#
# Bulk Modulus (GPa) = 7.33695 9.63905 8.48800
# Shear Modulus (GPa) = 12.10653 18.54529 15.32591
#
# Velocity S-wave (km/s) = 2.55221 3.15881 2.87158
# Velocity P-wave (km/s) = 3.55424 4.30004 3.94480
#
# Compressibility (1/GPa) = 0.13629641
#
# Stress axis : x y z
#
# Youngs Moduli (GPa) = 15.95105 15.95105 62.59586
#
# Poissons Ratio (x) = 0.14522 -0.20571
# Poissons Ratio (y) = 0.14522 -0.20571
# Poissons Ratio (z) = -0.05242 -0.05242
#
# Static dielectric constant tensor:
#      x y z
#    x 1.642880 0.000000 0.000000 
#    y 0.000000 1.642880 0.000000 
#    z 0.000000 0.000000 1.672970 
# 
# From -- ./inp_files/2816.got.cif
#   From: 2010.05.17/outbox.cif.g08.bks.cpg/sg189_2_cif.got.tgz:2816.got - 2010.05.20 12:14:34.
