data_PCOD9586801
_publ_section_title
;
Structure prediction by ZEFSAII (Michael W. Deem and Ramdas Pophale) SiO2 
 PCOD9586801
Probable space group: P -6 2 C
;
_chemical_formula_sum "Si O2"
_cell_formula_units_Z 58
_cell_length_a 15.267750
_cell_length_b 15.267750
_cell_length_c 13.950696
_cell_angle_alpha 90.000000
_cell_angle_beta 90.000000
_cell_angle_gamma 120.000000
_cell_volume 2816.284901
_symmetry_space_group_name_H-M "P -6 2 C"
_symmetry_group_IT_number 190
_symmetry_cell_setting 'hexagonal'
loop_
_space_group_symop_operation_xyz
x,y,z
-x+y,-x,1/2-z
-y,x-y,z
x,y,1/2-z
-x+y,-x,z
-y,x-y,1/2-z
x-y,-y,-z
-x,-x+y,-z
y,x,-z
y,x,1/2+z
x-y,-y,1/2+z
-x,-x+y,1/2+z
loop_
_atom_site_type_symbol
_atom_site_label
_atom_site_fract_x
_atom_site_fract_y
_atom_site_fract_z
Si Si1 0.078241 0.860909 0.637447
Si Si2 0.233077 0.083671 0.863834
Si Si3 0.535076 0.000000 0.500000
Si Si4 0.363958 0.870610 0.865612
Si Si5 0.666667 0.333333 0.362442
Si Si6 0.764339 0.156949 0.490745
O O1 0.088865 0.851554 0.750000
O O2 0.078526 0.770885 0.581927
O O3 0.969192 0.848934 0.621520
O O4 0.173803 0.966657 0.606411
O O5 0.253909 0.088549 0.750000
O O6 0.332820 0.160216 0.921355
O O7 0.455609 0.970326 0.588039
O O8 0.548500 0.902223 0.478949
O O9 0.349957 0.877925 0.750000
O O10 0.393382 0.783813 0.885272
O O11 0.260450 0.821367 0.927507
O O12 0.666667 0.333334 0.250000
#
# Coordination Sequence:
#
# PCOD9586801 Si02
#       6
#    12  12   6  12   4  12
#     4  10  20  35  58  91 133 183 225 261 317 399
#     4  10  21  36  59  92 138 186 225 264 320 401
#     4  12  26  42  70 106 134 182 246 310 374 438
#     4  11  25  45  70  99 132 174 233 300 364 435
#     4   9  18  39  69  93 121 164 220 288 348 411
#     4  12  23  41  62  96 137 177 229 291 359 423
#
# _framework density 20.594507
#
# number of rings (size 3 to 8) (size 9 to 14) (size 15 to 20)
#    0.000    1.241    4.138    1.655    2.897    3.310 
#    0.000    2.069    0.000    0.000    0.000    0.000 
#    0.000    0.000    0.000    0.000    0.000    0.000 
#
# Total GULP energy -323006.105621 kJ/mol
# GULP energy per Si atom -5569.070787 kJ/mol
# Density = 2.054763 g / cm^3
# Si number density = 20.594507 Si / 1000 Ang^3
#
#
#
# Elastic Constant Matrix: (Units=GPa)
#
#
# Indices 1 2 3 4 5 6 
#
# 1 77.9834 41.2720 51.9627 0.0000 0.0000 0.0000
# 2 41.2720 77.9831 51.9628 0.0000 0.0000 0.0000
# 3 51.9627 51.9628 110.8195 0.0000 0.0000 0.0000
# 4 0.0000 0.0000 0.0000 30.5705 0.0000 0.0000
# 5 0.0000 0.0000 0.0000 0.0000 30.5708 0.0000
# 6 0.0000 0.0000 0.0000 0.0000 0.0000 18.3559
#
#
#
# Elastic Compliance Matrix: (Units=1/GPa)
#
#
# Indices 1 2 3 4 5 6 
#
# 1 0.020709 -0.006530 -0.006649 0.000000 0.000000 0.000000
# 2 -0.006530 0.020710 -0.006649 0.000000 0.000000 0.000000
# 3 -0.006649 -0.006649 0.015259 0.000000 0.000000 0.000000
# 4 0.000000 0.000000 0.000000 0.032711 0.000000 0.000000
# 5 0.000000 0.000000 0.000000 0.000000 0.032711 0.000000
# 6 0.000000 0.000000 0.000000 0.000000 0.000000 0.054479
#
#
# Mechanical properties :
#
#
# Convention : Reuss Voigt Hill
#
# Bulk Modulus (GPa) = 58.74448 61.90904 60.32676
# Shear Modulus (GPa) = 22.53191 24.00533 23.26862
#
# Velocity S-wave (km/s) = 3.31127 3.41782 3.36496
# Velocity P-wave (km/s) = 6.57310 6.76029 6.66735
#
# Compressibility (1/GPa) = 0.01702288
#
# Stress axis : x y z
#
# Youngs Moduli (GPa) = 48.28725 48.28689 65.53634
#
# Poissons Ratio (x) = 0.31532 0.43572
# Poissons Ratio (y) = 0.31532 0.43573
# Poissons Ratio (z) = 0.32104 0.32104
#
# Static dielectric constant tensor:
#      x y z
#    x 1.729130 0.000000 0.000000 
#    y 0.000000 1.729120 0.000000 
#    z 0.000000 0.000000 1.741080 
# 
# From -- ./inp_files/2836.got.cif
#   From: 2010.05.17/outbox.cif.g08.bks.cpg/sg190_2_cif.got.tgz:2836.got - 2010.05.20 12:16:56.
