data_PCOD9586421
_publ_section_title
;
Structure prediction by ZEFSAII (Michael W. Deem and Ramdas Pophale) SiO2 
 PCOD9586421
Probable space group: P -6 2 M
;
_chemical_formula_sum "Si O2"
_cell_formula_units_Z 60
_cell_length_a 15.078117
_cell_length_b 15.078117
_cell_length_c 14.104099
_cell_angle_alpha 90.000000
_cell_angle_beta 90.000000
_cell_angle_gamma 120.000000
_cell_volume 2776.963665
_symmetry_space_group_name_H-M "P -6 2 M"
_symmetry_group_IT_number 189
_symmetry_cell_setting 'hexagonal'
loop_
_space_group_symop_operation_xyz
x,y,z
-x+y,-x,-z
-y,x-y,z
x,y,-z
-x+y,-x,z
-y,x-y,-z
x-y,-y,-z
-x,-x+y,-z
y,x,-z
y,x,z
x-y,-y,z
-x,-x+y,z
loop_
_atom_site_type_symbol
_atom_site_label
_atom_site_fract_x
_atom_site_fract_y
_atom_site_fract_z
Si Si1 0.314173 0.437524 0.894050
Si Si2 0.479486 0.595184 0.610189
Si Si3 0.539854 0.809196 0.692757
Si Si4 0.759259 0.880136 0.610974
Si Si5 0.111776 0.225551 0.112555
O O1 0.387416 0.387416 0.889529
O O2 0.321608 0.493821 0.796520
O O3 0.198367 0.342915 0.885116
O O4 0.327771 0.483711 0.000000
O O5 0.499825 0.624789 0.500000
O O6 0.557958 0.557958 0.641644
O O7 0.490947 0.690581 0.668540
O O8 0.364876 0.501685 0.621948
O O9 0.661412 0.855945 0.675270
O O10 0.725820 0.861968 0.500000
O O11 0.809773 0.809773 0.630770
O O12 0.842554 0.000000 0.619592
O O13 0.156777 0.156777 0.154238
O O14 0.000000 0.192505 0.150506
O O15 0.100804 0.204566 0.000000
#
# Coordination Sequence:
#
# PCOD9586421 Si02
#       5
#    12  12  12  12  12
#     4   9  19  36  57  82 114 154 199 246 297 355
#     4  11  24  41  63  93 123 153 200 260 319 382
#     4  12  23  40  64  88 119 163 208 255 317 374
#     4  10  20  35  58  90 127 164 201 246 309 390
#     4   8  13  22  39  66 102 145 191 235 277 324
#
# _framework density 21.606331000000001
#
# number of rings (size 3 to 8) (size 9 to 14) (size 15 to 20)
#    0.000    2.000    0.000    6.200    0.000    6.400 
#    0.000    1.000    0.000    3.600    0.000    0.000 
#    0.000    0.000    0.000    0.000    0.000    0.000 
#
# Total GULP energy -334880.009622 kJ/mol
# GULP energy per Si atom -5581.333494 kJ/mol
# Density = 2.155715 g / cm^3
# Si number density = 21.606331 Si / 1000 Ang^3
#
#
#
# Elastic Constant Matrix: (Units=GPa)
#
#
# Indices 1 2 3 4 5 6 
#
# 1 47.7301 3.9335 12.0214 0.0000 0.0000 0.0000
# 2 3.9335 47.7301 12.0214 0.0000 0.0000 0.0000
# 3 12.0214 12.0214 134.6719 0.0000 0.0000 0.0000
# 4 0.0000 0.0000 0.0000 16.5382 0.0000 0.0000
# 5 0.0000 0.0000 0.0000 0.0000 16.5382 0.0000
# 6 0.0000 0.0000 0.0000 0.0000 0.0000 21.8983
#
#
#
# Elastic Compliance Matrix: (Units=1/GPa)
#
#
# Indices 1 2 3 4 5 6 
#
# 1 0.021514 -0.001319 -0.001803 0.000000 0.000000 0.000000
# 2 -0.001319 0.021514 -0.001803 0.000000 0.000000 0.000000
# 3 -0.001803 -0.001803 0.007747 0.000000 0.000000 0.000000
# 4 0.000000 0.000000 0.000000 0.060466 0.000000 0.000000
# 5 0.000000 0.000000 0.000000 0.000000 0.060466 0.000000
# 6 0.000000 0.000000 0.000000 0.000000 0.000000 0.045666
#
#
# Mechanical properties :
#
#
# Convention : Reuss Voigt Hill
#
# Bulk Modulus (GPa) = 24.43412 31.78721 28.11066
# Shear Modulus (GPa) = 20.75861 24.47197 22.61529
#
# Velocity S-wave (km/s) = 3.10298 3.36911 3.23878
# Velocity P-wave (km/s) = 4.91644 5.46612 5.19855
#
# Compressibility (1/GPa) = 0.04092637
#
# Stress axis : x y z
#
# Youngs Moduli (GPa) = 46.48162 46.48162 129.07748
#
# Poissons Ratio (x) = 0.06131 0.23269
# Poissons Ratio (y) = 0.06131 0.23269
# Poissons Ratio (z) = 0.08379 0.08379
#
# Static dielectric constant tensor:
#      x y z
#    x 1.761680 0.000000 0.000000 
#    y 0.000000 1.761680 0.000000 
#    z 0.000000 0.000000 2.034220 
# 
# From -- ./inp_files/2521.got.cif
#   From: 2010.05.17/outbox.cif.g08.bks.cpg/sg189_2_cif.got.tgz:2521.got - 2010.05.20 12:14:34.
