data_PCOD9586795
_publ_section_title
;
Structure prediction by ZEFSAII (Michael W. Deem and Ramdas Pophale) SiO2 
 PCOD9586795
Probable space group: P -6 2 C
;
_chemical_formula_sum "Si O2"
_cell_formula_units_Z 68
_cell_length_a 10.298249
_cell_length_b 10.298249
_cell_length_c 30.789847
_cell_angle_alpha 90.000000
_cell_angle_beta 90.000000
_cell_angle_gamma 120.000000
_cell_volume 2827.905804
_symmetry_space_group_name_H-M "P -6 2 C"
_symmetry_group_IT_number 190
_symmetry_cell_setting 'hexagonal'
loop_
_space_group_symop_operation_xyz
x,y,z
-x+y,-x,1/2-z
-y,x-y,z
x,y,1/2-z
-x+y,-x,z
-y,x-y,1/2-z
x-y,-y,-z
-x,-x+y,-z
y,x,-z
y,x,1/2+z
x-y,-y,1/2+z
-x,-x+y,1/2+z
loop_
_atom_site_type_symbol
_atom_site_label
_atom_site_fract_x
_atom_site_fract_y
_atom_site_fract_z
Si Si1 0.596592 0.691129 0.110265
Si Si2 0.588564 0.573697 0.795968
Si Si3 0.322276 0.243917 0.296911
Si Si4 0.666668 0.333334 0.107222
Si Si5 0.666667 0.333334 0.004346
Si Si6 0.685427 0.878202 0.889120
Si Si7 0.080432 0.633009 0.443118
O O1 0.548791 0.652944 0.159854
O O2 0.773730 0.757599 0.106034
O O3 0.534882 0.789248 0.089295
O O4 0.527236 0.544234 0.079363
O O5 0.644975 0.546106 0.750000
O O6 0.410218 0.465029 0.796533
O O7 0.630159 0.746795 0.796321
O O8 0.241689 0.226713 0.250000
O O9 0.250826 0.227222 0.344868
O O10 0.739390 0.232429 0.121423
O O11 0.666668 0.333334 0.055261
O O12 0.641632 0.173148 0.986138
O O13 0.687346 0.961666 0.933559
#
# Coordination Sequence:
#
# PCOD9586795 Si02
#       7
#    12  12  12   4   4  12  12
#     4  10  20  35  56  79 114 157 195 241 294 353
#     4   9  15  25  44  77 111 145 189 236 289 341
#     4   9  15  24  45  78 114 143 177 234 288 332
#     4  12  21  36  64  94 111 139 199 252 291 351
#     4   9  24  39  60  88 119 154 183 234 315 360
#     4  11  19  35  60  88 113 150 198 247 288 355
#     4  10  20  40  56  79 118 155 187 239 305 350
#
# _framework density 24.046061999999999
#
# number of rings (size 3 to 8) (size 9 to 14) (size 15 to 20)
#    0.000    2.118    3.529    1.765    0.000    2.118 
#    1.059    1.765    0.000    0.000    0.000    0.000 
#    0.000    0.000    0.000    0.000    0.000    0.000 
#
# Total GULP energy -379412.284334 kJ/mol
# GULP energy per Si atom -5579.592417 kJ/mol
# Density = 2.399133 g / cm^3
# Si number density = 24.046062 Si / 1000 Ang^3
#
#
#
# Elastic Constant Matrix: (Units=GPa)
#
#
# Indices 1 2 3 4 5 6 
#
# 1 47.6425 -0.6403 11.2270 0.0000 0.0000 0.0000
# 2 -0.6403 47.6427 11.2269 0.0000 0.0000 0.0000
# 3 11.2270 11.2269 177.1833 0.0000 0.0000 0.0000
# 4 0.0000 0.0000 0.0000 20.7262 0.0000 0.0000
# 5 0.0000 0.0000 0.0000 0.0000 20.7261 0.0000
# 6 0.0000 0.0000 0.0000 0.0000 0.0000 24.1415
#
#
#
# Elastic Compliance Matrix: (Units=1/GPa)
#
#
# Indices 1 2 3 4 5 6 
#
# 1 0.021325 0.000614 -0.001390 0.000000 0.000000 0.000000
# 2 0.000614 0.021325 -0.001390 0.000000 0.000000 0.000000
# 3 -0.001390 -0.001390 0.005820 0.000000 0.000000 0.000000
# 4 0.000000 0.000000 0.000000 0.048248 0.000000 0.000000
# 5 0.000000 0.000000 0.000000 0.000000 0.048248 0.000000
# 6 0.000000 0.000000 0.000000 0.000000 0.000000 0.041423
#
#
# Mechanical properties :
#
#
# Convention : Reuss Voigt Hill
#
# Bulk Modulus (GPa) = 22.65588 35.12173 28.88880
# Shear Modulus (GPa) = 24.33857 29.82907 27.08382
#
# Velocity S-wave (km/s) = 3.18490 3.52589 3.35973
# Velocity P-wave (km/s) = 4.79240 5.58691 5.20484
#
# Compressibility (1/GPa) = 0.04413866
#
# Stress axis : x y z
#
# Youngs Moduli (GPa) = 46.89223 46.89236 171.81998
#
# Poissons Ratio (x) = -0.02880 0.23886
# Poissons Ratio (y) = -0.02880 0.23886
# Poissons Ratio (z) = 0.06519 0.06519
#
# Static dielectric constant tensor:
#      x y z
#    x 1.949570 0.000000 0.000000 
#    y 0.000000 1.949560 0.000000 
#    z 0.000000 0.000000 1.951700 
# 
# From -- ./inp_files/5158.got.cif
#   From: 2010.05.17/outbox.cif.g08.bks.cpg/sg190_3_cif.got.tgz:5158.got - 2010.05.20 12:16:56.
