data_PCOD9586577
_publ_section_title
;
Structure prediction by ZEFSAII (Michael W. Deem and Ramdas Pophale) SiO2 
 PCOD9586577
Probable space group: P -6 2 M
;
_chemical_formula_sum "Si O2"
_cell_formula_units_Z 60
_cell_length_a 21.522362
_cell_length_b 21.522362
_cell_length_c 7.563051
_cell_angle_alpha 90.000000
_cell_angle_beta 90.000000
_cell_angle_gamma 120.000000
_cell_volume 3033.943748
_symmetry_space_group_name_H-M "P -6 2 M"
_symmetry_group_IT_number 189
_symmetry_cell_setting 'hexagonal'
loop_
_space_group_symop_operation_xyz
x,y,z
-x+y,-x,-z
-y,x-y,z
x,y,-z
-x+y,-x,z
-y,x-y,-z
x-y,-y,-z
-x,-x+y,-z
y,x,-z
y,x,z
x-y,-y,z
-x,-x+y,z
loop_
_atom_site_type_symbol
_atom_site_label
_atom_site_fract_x
_atom_site_fract_y
_atom_site_fract_z
Si Si1 0.080494 0.703659 0.710715
Si Si2 0.819140 0.461707 0.786545
Si Si3 0.853857 0.209808 0.711421
Si Si4 0.000000 0.219435 0.717540
Si Si5 0.688835 0.483092 0.212348
Si Si6 0.922091 0.922091 0.714361
O O1 0.076743 0.711762 0.500000
O O2 0.113569 0.651761 0.737855
O O3 0.139993 0.781827 0.781620
O O4 0.000000 0.669724 0.782078
O O5 0.818903 0.390795 0.722274
O O6 0.747679 0.462284 0.723650
O O7 0.816409 0.459170 0.000000
O O8 0.853429 0.201353 0.500000
O O9 0.927797 0.217721 0.776937
O O10 0.845102 0.278616 0.745497
O O11 0.000000 0.219630 0.500000
O O12 0.000000 0.147787 0.777396
O O13 0.687022 0.476819 0.000000
O O14 0.919150 0.919150 0.500000
O O15 0.000000 0.932683 0.764983
#
# Coordination Sequence:
#
# PCOD9586577 Si02
#       6
#    12  12  12   6  12   6
#     4   9  18  32  47  67  94 124 158 194 232 274
#     4   9  17  30  50  71  92 119 153 195 237 278
#     4   9  18  31  47  67  94 126 158 189 227 280
#     4   9  16  28  45  65  93 128 157 184 228 281
#     4   9  17  31  49  70  93 119 153 194 237 277
#     4   7  12  22  38  65  95 116 143 188 232 267
#
# _framework density 19.776240000000001
#
# number of rings (size 3 to 8) (size 9 to 14) (size 15 to 20)
#    0.200    3.000    0.000    0.400    0.000    3.600 
#    1.800    4.500    0.000    2.400    0.000    0.000 
#    0.000    2.400    0.000    0.000    0.000    0.000 
#
# Total GULP energy -334378.784513 kJ/mol
# GULP energy per Si atom -5572.979742 kJ/mol
# Density = 1.973123 g / cm^3
# Si number density = 19.776240 Si / 1000 Ang^3
#
#
#
# Elastic Constant Matrix: (Units=GPa)
#
#
# Indices 1 2 3 4 5 6 
#
# 1 161.3437 120.4050 2.4813 0.0000 0.0000 0.0000
# 2 120.4050 161.3437 2.4813 0.0000 0.0000 0.0000
# 3 2.4813 2.4813 45.4273 0.0000 0.0000 0.0000
# 4 0.0000 0.0000 0.0000 -24.0562 0.0000 0.0000
# 5 0.0000 0.0000 0.0000 0.0000 -24.0562 0.0000
# 6 0.0000 0.0000 0.0000 0.0000 0.0000 20.4694
#
#
#
# Elastic Compliance Matrix: (Units=1/GPa)
#
#
# Indices 1 2 3 4 5 6 
#
# 1 0.013990 -0.010437 -0.000194 0.000000 0.000000 0.000000
# 2 -0.010437 0.013990 -0.000194 0.000000 0.000000 0.000000
# 3 -0.000194 -0.000194 0.022034 0.000000 0.000000 0.000000
# 4 0.000000 0.000000 0.000000 -0.041569 0.000000 0.000000
# 5 0.000000 0.000000 0.000000 0.000000 -0.041569 0.000000
# 6 0.000000 0.000000 0.000000 0.000000 0.000000 0.048854
#
#
# Mechanical properties :
#
#
# Convention : Reuss Voigt Hill
#
# Bulk Modulus (GPa) = 35.25650 68.76111 52.00881
# Shear Modulus (GPa) = 106.76096 10.65453 58.70774
#
# Velocity S-wave (km/s) = 7.35538 2.32363 5.45440
# Velocity P-wave (km/s) = 9.48694 6.48414 8.12545
#
# Compressibility (1/GPa) = 0.02836356
#
# Stress axis : x y z
#
# Youngs Moduli (GPa) = 71.48105 71.48105 45.38356
#
# Poissons Ratio (x) = 0.74605 0.00881
# Poissons Ratio (y) = 0.74605 0.00881
# Poissons Ratio (z) = 0.01387 0.01387
#
# Static dielectric constant tensor:
#      x y z
#    x 1.682030 0.000000 0.000000 
#    y 0.000000 1.682030 0.000000 
#    z 0.000000 0.000000 1.754850 
# 
# From -- ./inp_files/973.got.cif
#   From: 2010.05.17/outbox.cif.g08.bks.cpg/sg189_1_cif.got.tgz:973.got - 2010.05.20 12:14:34.
