data_PCOD9586283
_publ_section_title
;
Structure prediction by ZEFSAII (Michael W. Deem and Ramdas Pophale) SiO2 
 PCOD9586283
Probable space group: P -6 2 M
;
_chemical_formula_sum "Si O2"
_cell_formula_units_Z 96
_cell_length_a 14.943996
_cell_length_b 14.943996
_cell_length_c 28.731189
_cell_angle_alpha 90.000000
_cell_angle_beta 90.000000
_cell_angle_gamma 120.000000
_cell_volume 5556.709796
_symmetry_space_group_name_H-M "P -6 2 M"
_symmetry_group_IT_number 189
_symmetry_cell_setting 'hexagonal'
loop_
_space_group_symop_operation_xyz
x,y,z
-x+y,-x,-z
-y,x-y,z
x,y,-z
-x+y,-x,z
-y,x-y,-z
x-y,-y,-z
-x,-x+y,-z
y,x,-z
y,x,z
x-y,-y,z
-x,-x+y,z
loop_
_atom_site_type_symbol
_atom_site_label
_atom_site_fract_x
_atom_site_fract_y
_atom_site_fract_z
Si Si1 0.760843 0.295149 0.294624
Si Si2 0.875776 0.288032 0.204305
Si Si3 0.740754 0.549172 0.601942
Si Si4 0.882416 0.472490 0.444960
Si Si5 0.123818 0.553913 0.874474
Si Si6 0.876413 0.639597 0.130178
Si Si7 0.878541 0.758373 0.553220
Si Si8 0.125061 0.407142 0.053504
O O1 0.774960 0.410498 0.292003
O O2 0.818326 0.275002 0.252735
O O3 0.800385 0.279045 0.343918
O O4 0.849030 0.359897 0.171316
O O5 0.832331 0.182170 0.175090
O O6 0.000000 0.345428 0.209305
O O7 0.801075 0.493941 0.581188
O O8 0.632595 0.503032 0.575277
O O9 0.811604 0.668565 0.589247
O O10 0.861861 0.462375 0.500000
O O11 0.000000 0.563632 0.437710
O O12 0.150791 0.670781 0.871193
O O13 0.158450 0.514839 0.919588
O O14 0.000000 0.490314 0.876759
O O15 0.821339 0.651205 0.084258
O O16 0.000000 0.712169 0.131069
O O17 0.856507 0.715100 0.500000
O O18 0.844113 0.844113 0.555108
O O19 0.000000 0.809405 0.561219
O O20 0.000000 0.340784 0.054691
O O21 0.158501 0.422154 0.000000
#
# Coordination Sequence:
#
# PCOD9586283 Si02
#       8
#    12  12  12  12  12  12  12  12
#     4  10  21  39  56  81 114 146 181 224 272 329
#     4  10  20  36  59  81 105 142 184 229 284 335
#     4  12  21  38  54  81 117 149 182 226 280 339
#     4  11  22  35  54  79 109 148 188 222 266 332
#     4   8  16  31  50  75 103 137 181 224 269 322
#     4  10  19  33  54  80 108 138 183 235 279 334
#     4  10  21  38  60  84 110 145 193 244 286 325
#     4   9  18  33  51  74 111 152 185 224 274 328
#
# _framework density 17.276409000000001
#
# number of rings (size 3 to 8) (size 9 to 14) (size 15 to 20)
#    0.250    1.750    1.250    4.125    0.000    4.250 
#    6.000    2.500    0.000    2.000    0.000    0.000 
#    0.000    0.000    0.000    0.000    0.000    0.000 
#
# Total GULP energy -535383.090349 kJ/mol
# GULP energy per Si atom -5576.907191 kJ/mol
# Density = 1.723709 g / cm^3
# Si number density = 17.276409 Si / 1000 Ang^3
#
#
#
# Elastic Constant Matrix: (Units=GPa)
#
#
# Indices 1 2 3 4 5 6 
#
# 1 62.2382 24.5350 50.1131 0.0000 0.0000 0.0000
# 2 24.5350 62.2382 50.1131 0.0000 0.0000 0.0000
# 3 50.1131 50.1131 151.6944 0.0000 0.0000 0.0000
# 4 0.0000 0.0000 0.0000 34.6359 0.0000 0.0000
# 5 0.0000 0.0000 0.0000 0.0000 34.6359 0.0000
# 6 0.0000 0.0000 0.0000 0.0000 0.0000 18.8516
#
#
#
# Elastic Compliance Matrix: (Units=1/GPa)
#
#
# Indices 1 2 3 4 5 6 
#
# 1 0.022579 -0.003944 -0.006156 0.000000 0.000000 0.000000
# 2 -0.003944 0.022579 -0.006156 0.000000 0.000000 0.000000
# 3 -0.006156 -0.006156 0.010660 0.000000 0.000000 0.000000
# 4 0.000000 0.000000 0.000000 0.028872 0.000000 0.000000
# 5 0.000000 0.000000 0.000000 0.000000 0.028872 0.000000
# 6 0.000000 0.000000 0.000000 0.000000 0.000000 0.053046
#
#
# Mechanical properties :
#
#
# Convention : Reuss Voigt Hill
#
# Bulk Modulus (GPa) = 42.90962 58.41036 50.65999
# Shear Modulus (GPa) = 24.16771 27.71866 25.94318
#
# Velocity S-wave (km/s) = 3.74422 4.00987 3.87932
# Velocity P-wave (km/s) = 6.60177 7.43784 7.03224
#
# Compressibility (1/GPa) = 0.02330480
#
# Stress axis : x y z
#
# Youngs Moduli (GPa) = 44.28917 44.28917 93.81192
#
# Poissons Ratio (x) = 0.17468 0.57752
# Poissons Ratio (y) = 0.17468 0.57752
# Poissons Ratio (z) = 0.27265 0.27265
#
# Static dielectric constant tensor:
#      x y z
#    x 1.594910 0.000000 0.000000 
#    y 0.000000 1.594910 0.000000 
#    z 0.000000 0.000000 1.568050 
# 
# From -- ./inp_files/3699.got.cif
#   From: 2010.05.17/outbox.cif.g08.bks.cpg/sg189_2_cif.got.tgz:3699.got - 2010.05.20 12:14:34.
