data_PCOD9586365
_publ_section_title
;
Structure prediction by ZEFSAII (Michael W. Deem and Ramdas Pophale) SiO2 
 PCOD9586365
Probable space group: P -6 2 M
;
_chemical_formula_sum "Si O2"
_cell_formula_units_Z 60
_cell_length_a 13.652680
_cell_length_b 13.652680
_cell_length_c 16.345830
_cell_angle_alpha 90.000000
_cell_angle_beta 90.000000
_cell_angle_gamma 120.000000
_cell_volume 2638.599232
_symmetry_space_group_name_H-M "P -6 2 M"
_symmetry_group_IT_number 189
_symmetry_cell_setting 'hexagonal'
loop_
_space_group_symop_operation_xyz
x,y,z
-x+y,-x,-z
-y,x-y,z
x,y,-z
-x+y,-x,z
-y,x-y,-z
x-y,-y,-z
-x,-x+y,-z
y,x,-z
y,x,z
x-y,-y,z
-x,-x+y,z
loop_
_atom_site_type_symbol
_atom_site_label
_atom_site_fract_x
_atom_site_fract_y
_atom_site_fract_z
Si Si1 0.682768 0.875818 0.816164
Si Si2 0.652470 0.138561 0.589174
Si Si3 0.128678 0.583323 0.240826
Si Si4 0.868180 0.335242 0.910251
Si Si5 0.134280 0.872240 0.368155
O O1 0.570553 0.879822 0.789256
O O2 0.642990 0.780698 0.884175
O O3 0.725104 0.853027 0.730495
O O4 0.773287 0.000000 0.845913
O O5 0.632384 0.172167 0.500000
O O6 0.612003 0.178142 0.668243
O O7 0.782583 0.168814 0.598811
O O8 0.582582 0.000000 0.593333
O O9 0.182495 0.549329 0.167426
O O10 0.000000 0.479186 0.250305
O O11 0.000000 0.431613 0.915024
O O12 0.817434 0.326221 0.000000
O O13 0.000000 0.818717 0.385478
O O14 0.207509 0.000000 0.398485
#
# Coordination Sequence:
#
# PCOD9586365 Si02
#       5
#    12  12  12  12  12
#     4   9  18  33  52  73 101 142 184 222 273 332
#     4   8  14  26  46  71  99 137 185 231 277 328
#     4   8  16  32  51  71  99 135 173 218 273 326
#     4  10  20  33  51  76 105 137 176 226 280 332
#     4   9  16  26  43  70 107 152 198 238 275 322
#
# _framework density 22.739339000000001
#
# number of rings (size 3 to 8) (size 9 to 14) (size 15 to 20)
#    0.000    3.200    0.000    3.200    0.000    1.600 
#    1.200    2.000    0.000    6.400    0.000    5.600 
#    0.000    0.000    0.000    0.000    0.000    0.000 
#
# Total GULP energy -334769.173236 kJ/mol
# GULP energy per Si atom -5579.486221 kJ/mol
# Density = 2.268758 g / cm^3
# Si number density = 22.739339 Si / 1000 Ang^3
#
#
#
# Elastic Constant Matrix: (Units=GPa)
#
#
# Indices 1 2 3 4 5 6 
#
# 1 59.9018 9.4389 39.0992 0.0000 0.0000 0.0000
# 2 9.4389 59.9018 39.0992 0.0000 0.0000 0.0000
# 3 39.0992 39.0992 204.1017 0.0000 0.0000 0.0000
# 4 0.0000 0.0000 0.0000 5.6796 0.0000 0.0000
# 5 0.0000 0.0000 0.0000 0.0000 5.6796 0.0000
# 6 0.0000 0.0000 0.0000 0.0000 0.0000 25.2315
#
#
#
# Elastic Compliance Matrix: (Units=1/GPa)
#
#
# Indices 1 2 3 4 5 6 
#
# 1 0.019106 -0.000710 -0.003524 0.000000 0.000000 0.000000
# 2 -0.000710 0.019106 -0.003524 0.000000 0.000000 0.000000
# 3 -0.003524 -0.003524 0.006250 0.000000 0.000000 0.000000
# 4 0.000000 0.000000 0.000000 0.176067 0.000000 0.000000
# 5 0.000000 0.000000 0.000000 0.000000 0.176067 0.000000
# 6 0.000000 0.000000 0.000000 0.000000 0.000000 0.039633
#
#
# Mechanical properties :
#
#
# Convention : Reuss Voigt Hill
#
# Bulk Modulus (GPa) = 34.54821 55.46442 45.00631
# Shear Modulus (GPa) = 10.83670 23.06937 16.95304
#
# Velocity S-wave (km/s) = 2.18540 3.18860 2.73342
# Velocity P-wave (km/s) = 4.64694 6.16446 5.45869
#
# Compressibility (1/GPa) = 0.02894506
#
# Stress axis : x y z
#
# Youngs Moduli (GPa) = 52.33928 52.33928 160.00806
#
# Poissons Ratio (x) = 0.03718 0.56387
# Poissons Ratio (y) = 0.03718 0.56387
# Poissons Ratio (z) = 0.18444 0.18444
#
# Static dielectric constant tensor:
#      x y z
#    x 1.862100 0.000000 0.000000 
#    y 0.000000 1.862100 0.000000 
#    z 0.000000 0.000000 1.867670 
# 
# From -- ./inp_files/2532.got.cif
#   From: 2010.05.17/outbox.cif.g08.bks.cpg/sg189_2_cif.got.tgz:2532.got - 2010.05.20 12:14:34.
