data_PCOD9586792
_publ_section_title
;
Structure prediction by ZEFSAII (Michael W. Deem and Ramdas Pophale) SiO2 
 PCOD9586792
Probable space group: P -6 2 C
;
_chemical_formula_sum "Si O2"
_cell_formula_units_Z 72
_cell_length_a 23.802105
_cell_length_b 23.802105
_cell_length_c 8.834797
_cell_angle_alpha 90.000000
_cell_angle_beta 90.000000
_cell_angle_gamma 120.000000
_cell_volume 4334.688964
_symmetry_space_group_name_H-M "P -6 2 C"
_symmetry_group_IT_number 190
_symmetry_cell_setting 'hexagonal'
loop_
_space_group_symop_operation_xyz
x,y,z
-x+y,-x,1/2-z
-y,x-y,z
x,y,1/2-z
-x+y,-x,z
-y,x-y,1/2-z
x-y,-y,-z
-x,-x+y,-z
y,x,-z
y,x,1/2+z
x-y,-y,1/2+z
-x,-x+y,1/2+z
loop_
_atom_site_type_symbol
_atom_site_label
_atom_site_fract_x
_atom_site_fract_y
_atom_site_fract_z
Si Si1 0.400563 0.132383 0.423947
Si Si2 0.536230 0.202049 0.566697
Si Si3 0.739316 0.931191 0.566797
Si Si4 0.866292 0.595542 0.076937
Si Si5 0.264274 0.069360 0.569311
Si Si6 0.334163 0.538371 0.431437
O O1 0.393760 0.110501 0.250000
O O2 0.468449 0.147895 0.496471
O O3 0.403616 0.202120 0.423616
O O4 0.336517 0.086271 0.518478
O O5 0.531718 0.198049 0.750000
O O6 0.598134 0.196865 0.516514
O O7 0.546587 0.272790 0.522859
O O8 0.740799 0.929811 0.750000
O O9 0.667271 0.917097 0.519898
O O10 0.746615 0.872315 0.500956
O O11 0.791532 0.000000 0.500000
O O12 0.881960 0.589069 0.250000
O O13 0.851503 0.531779 0.986506
O O14 0.260121 0.069430 0.750000
O O15 0.214253 0.000000 0.500000
O O16 0.335058 0.539136 0.250000
#
# Coordination Sequence:
#
# PCOD9586792 Si02
#       6
#    12  12  12  12  12  12
#     4   9  17  30  46  67  94 126 164 207 249 293
#     4   9  16  26  40  62  91 126 166 212 261 308
#     4  10  20  35  55  81 108 134 164 199 237 281
#     4   8  16  29  44  64  93 124 159 202 247 290
#     4  11  21  35  56  81 107 134 162 197 237 281
#     4   9  16  25  40  61  89 124 165 209 257 307
#
# _framework density 16.610188999999998
#
# number of rings (size 3 to 8) (size 9 to 14) (size 15 to 20)
#    0.000    2.667    0.000    3.833    0.000    6.667 
#    0.000    0.000    0.000    3.333    0.000    4.667 
#    0.000    0.000    0.000    0.000    0.000    0.000 
#
# Total GULP energy -401142.868261 kJ/mol
# GULP energy per Si atom -5571.428726 kJ/mol
# Density = 1.657238 g / cm^3
# Si number density = 16.610189 Si / 1000 Ang^3
#
#
#
# Elastic Constant Matrix: (Units=GPa)
#
#
# Indices 1 2 3 4 5 6 
#
# 1 97.1701 55.3245 41.2783 0.0000 0.0000 0.0000
# 2 55.3245 97.1701 41.2783 0.0000 0.0000 0.0000
# 3 41.2783 41.2783 72.2711 0.0000 0.0000 0.0000
# 4 0.0000 0.0000 0.0000 20.9064 0.0000 0.0000
# 5 0.0000 0.0000 0.0000 0.0000 20.9064 0.0000
# 6 0.0000 0.0000 0.0000 0.0000 0.0000 20.9228
#
#
#
# Elastic Compliance Matrix: (Units=1/GPa)
#
#
# Indices 1 2 3 4 5 6 
#
# 1 0.016695 -0.007202 -0.005422 0.000000 0.000000 0.000000
# 2 -0.007202 0.016695 -0.005422 0.000000 0.000000 0.000000
# 3 -0.005422 -0.005422 0.020030 0.000000 0.000000 0.000000
# 4 0.000000 0.000000 0.000000 0.047832 0.000000 0.000000
# 5 0.000000 0.000000 0.000000 0.000000 0.047832 0.000000
# 6 0.000000 0.000000 0.000000 0.000000 0.000000 0.047795
#
#
# Mechanical properties :
#
#
# Convention : Reuss Voigt Hill
#
# Bulk Modulus (GPa) = 57.70886 60.26374 58.98630
# Shear Modulus (GPa) = 20.94254 21.12912 21.03583
#
# Velocity S-wave (km/s) = 3.55466 3.57046 3.56257
# Velocity P-wave (km/s) = 7.18790 7.30462 7.24650
#
# Compressibility (1/GPa) = 0.01732836
#
# Stress axis : x y z
#
# Youngs Moduli (GPa) = 59.89762 59.89762 49.92407
#
# Poissons Ratio (x) = 0.43140 0.27069
# Poissons Ratio (y) = 0.43140 0.27069
# Poissons Ratio (z) = 0.32476 0.32476
#
# Static dielectric constant tensor:
#      x y z
#    x 1.558120 0.000000 0.000000 
#    y 0.000000 1.558120 0.000000 
#    z 0.000000 0.000000 1.562190 
# 
# From -- ./inp_files/1225.got.cif
#   From: 2010.05.17/outbox.cif.g08.bks.cpg/sg190_1_cif.got.tgz:1225.got - 2010.05.20 12:16:56.
