data_PCOD9586614
_publ_section_title
;
Structure prediction by ZEFSAII (Michael W. Deem and Ramdas Pophale) SiO2 
 PCOD9586614
Probable space group: P -6 2 C
;
_chemical_formula_sum "Si O2"
_cell_formula_units_Z 84
_cell_length_a 18.581999
_cell_length_b 18.581999
_cell_length_c 15.053703
_cell_angle_alpha 90.000000
_cell_angle_beta 90.000000
_cell_angle_gamma 120.000000
_cell_volume 4501.516433
_symmetry_space_group_name_H-M "P -6 2 C"
_symmetry_group_IT_number 190
_symmetry_cell_setting 'hexagonal'
loop_
_space_group_symop_operation_xyz
x,y,z
-x+y,-x,1/2-z
-y,x-y,z
x,y,1/2-z
-x+y,-x,z
-y,x-y,1/2-z
x-y,-y,-z
-x,-x+y,-z
y,x,-z
y,x,1/2+z
x-y,-y,1/2+z
-x,-x+y,1/2+z
loop_
_atom_site_type_symbol
_atom_site_label
_atom_site_fract_x
_atom_site_fract_y
_atom_site_fract_z
Si Si1 0.918807 0.499091 0.445486
Si Si2 0.749517 0.750117 0.644197
Si Si3 0.593331 0.839258 0.002854
Si Si4 0.290495 0.804697 0.750000
Si Si5 0.619618 0.138544 0.250000
Si Si6 0.909149 0.731116 0.354220
Si Si7 0.420788 0.100595 0.066657
Si Si8 0.097980 0.823357 0.355157
O O1 0.845128 0.511354 0.485787
O O2 0.915955 0.511138 0.339473
O O3 0.912012 0.409728 0.455431
O O4 0.000000 0.563376 0.500000
O O5 0.736535 0.731531 0.750000
O O6 0.758948 0.840737 0.630889
O O7 0.667441 0.686969 0.589335
O O8 0.832051 0.748346 0.617506
O O9 0.643986 0.884151 0.090800
O O10 0.655505 0.886600 0.920550
O O11 0.580912 0.747360 0.000662
O O12 0.380204 0.811136 0.750000
O O13 0.210423 0.714710 0.750000
O O14 0.291153 0.852080 0.838444
O O15 0.903643 0.707276 0.250000
O O16 0.003811 0.801428 0.372103
O O17 0.105960 0.815727 0.250000
#
# Coordination Sequence:
#
# PCOD9586614 Si02
#       8
#    12  12  12   6   6  12  12  12
#     4  11  24  38  57  90 121 150 193 244 303 365
#     4   9  18  34  57  84 118 155 193 236 284 344
#     4  11  22  39  59  81 114 153 191 244 296 360
#     4  10  17  36  56  88 113 147 183 237 305 361
#     4  10  21  36  62  90 119 151 187 249 309 365
#     4   9  19  34  57  84 114 149 192 238 290 342
#     4  10  21  35  59  85 120 150 191 236 302 357
#     4  10  21  37  57  85 115 159 205 240 282 348
#
# _framework density 18.660377
#
# number of rings (size 3 to 8) (size 9 to 14) (size 15 to 20)
#    0.000    2.000    2.143    1.429    4.000    1.714 
#    3.000    0.000    0.000    0.000    0.000    0.000 
#    0.000    0.000    0.000    0.000    0.000    0.000 
#
# Total GULP energy -468761.883954 kJ/mol
# GULP energy per Si atom -5580.498618 kJ/mol
# Density = 1.861791 g / cm^3
# Si number density = 18.660377 Si / 1000 Ang^3
#
#
#
# Elastic Constant Matrix: (Units=GPa)
#
#
# Indices 1 2 3 4 5 6 
#
# 1 93.0882 42.2884 31.0828 0.0000 0.0000 0.0000
# 2 42.2884 93.0882 31.0828 0.0000 0.0000 0.0000
# 3 31.0828 31.0828 62.6791 0.0000 0.0000 0.0000
# 4 0.0000 0.0000 0.0000 24.2091 0.0000 0.0000
# 5 0.0000 0.0000 0.0000 0.0000 24.2091 0.0000
# 6 0.0000 0.0000 0.0000 0.0000 0.0000 25.3999
#
#
#
# Elastic Compliance Matrix: (Units=1/GPa)
#
#
# Indices 1 2 3 4 5 6 
#
# 1 0.014625 -0.005060 -0.004743 0.000000 0.000000 0.000000
# 2 -0.005060 0.014625 -0.004743 0.000000 0.000000 0.000000
# 3 -0.004743 -0.004743 0.020659 0.000000 0.000000 0.000000
# 4 0.000000 0.000000 0.000000 0.041307 0.000000 0.000000
# 5 0.000000 0.000000 0.000000 0.000000 0.041307 0.000000
# 6 0.000000 0.000000 0.000000 0.000000 0.000000 0.039370
#
#
# Mechanical properties :
#
#
# Convention : Reuss Voigt Hill
#
# Bulk Modulus (GPa) = 48.04125 50.86260 49.45193
# Shear Modulus (GPa) = 24.04720 24.39038 24.21879
#
# Velocity S-wave (km/s) = 3.59371 3.61926 3.60651
# Velocity P-wave (km/s) = 6.55901 6.69190 6.62579
#
# Compressibility (1/GPa) = 0.02081544
#
# Stress axis : x y z
#
# Youngs Moduli (GPa) = 68.37592 68.37592 48.40574
#
# Poissons Ratio (x) = 0.34599 0.22960
# Poissons Ratio (y) = 0.34599 0.22960
# Poissons Ratio (z) = 0.32433 0.32433
#
# Static dielectric constant tensor:
#      x y z
#    x 1.662440 0.000000 0.000000 
#    y 0.000000 1.662440 0.000000 
#    z 0.000000 0.000000 1.657030 
# 
# From -- ./inp_files/3202.got.cif
#   From: 2010.05.17/outbox.cif.g08.bks.cpg/sg190_2_cif.got.tgz:3202.got - 2010.05.20 12:16:56.
