data_PCOD9586162
_publ_section_title
;
Structure prediction by ZEFSAII (Michael W. Deem and Ramdas Pophale) SiO2 
 PCOD9586162
Probable space group: P -6 2 M
;
_chemical_formula_sum "Si O2"
_cell_formula_units_Z 96
_cell_length_a 14.158580
_cell_length_b 14.158580
_cell_length_c 28.765251
_cell_angle_alpha 90.000000
_cell_angle_beta 90.000000
_cell_angle_gamma 120.000000
_cell_volume 4993.881097
_symmetry_space_group_name_H-M "P -6 2 M"
_symmetry_group_IT_number 189
_symmetry_cell_setting 'hexagonal'
loop_
_space_group_symop_operation_xyz
x,y,z
-x+y,-x,-z
-y,x-y,z
x,y,-z
-x+y,-x,z
-y,x-y,-z
x-y,-y,-z
-x,-x+y,-z
y,x,-z
y,x,z
x-y,-y,z
-x,-x+y,z
loop_
_atom_site_type_symbol
_atom_site_label
_atom_site_fract_x
_atom_site_fract_y
_atom_site_fract_z
Si Si1 0.745774 0.871927 0.282737
Si Si2 0.795670 0.668999 0.947448
Si Si3 0.451877 0.320636 0.230737
Si Si4 0.558274 0.128655 0.049158
Si Si5 0.435993 0.306082 0.126683
Si Si6 0.254431 0.127178 0.444576
Si Si7 0.541709 0.415997 0.676131
Si Si8 0.414688 0.185086 0.365534
O O1 0.801091 0.801091 0.269950
O O2 0.643486 0.849945 0.250936
O O3 0.691961 0.837923 0.333489
O O4 0.831827 0.000000 0.280873
O O5 0.760931 0.760931 0.941392
O O6 0.683201 0.553319 0.948285
O O7 0.855182 0.652995 0.903161
O O8 0.844759 0.683404 0.000000
O O9 0.399992 0.399992 0.227414
O O10 0.472284 0.295495 0.178425
O O11 0.544304 0.375819 0.270943
O O12 0.635004 0.175208 0.093048
O O13 0.519837 0.000000 0.047939
O O14 0.614472 0.177595 0.000000
O O15 0.382768 0.382768 0.131885
O O16 0.273021 0.138450 0.500000
O O17 0.203404 0.203404 0.431021
O O18 0.364703 0.157695 0.416738
O O19 0.167957 0.000000 0.435179
O O20 0.449191 0.449191 0.677319
O O21 0.649722 0.517488 0.655898
O O22 0.497704 0.312607 0.642656
#
# Coordination Sequence:
#
# PCOD9586162 Si02
#       8
#    12  12  12  12  12  12  12  12
#     4  10  19  33  54  81 110 141 180 228 277 332
#     4   9  18  32  49  73 104 133 165 211 264 320
#     4   8  18  34  49  70 104 137 171 219 271 322
#     4   8  15  29  47  66  91 124 161 203 253 306
#     4  10  18  32  53  74  98 132 172 212 258 321
#     4  10  20  35  57  89 127 158 184 224 283 347
#     4  10  20  37  56  75 106 144 183 237 287 322
#     4  11  21  36  58  82 105 147 199 233 276 338
#
# _framework density 19.223526
#
# number of rings (size 3 to 8) (size 9 to 14) (size 15 to 20)
#    0.000    2.500    0.000    4.625    0.000    1.750 
#    5.250    1.875    0.000    2.500    0.000    0.000 
#    0.000    0.000    0.000    0.000    0.000    0.000 
#
# Total GULP energy -534760.804664 kJ/mol
# GULP energy per Si atom -5570.425049 kJ/mol
# Density = 1.917977 g / cm^3
# Si number density = 19.223526 Si / 1000 Ang^3
#
#
#
# Elastic Constant Matrix: (Units=GPa)
#
#
# Indices 1 2 3 4 5 6 
#
# 1 50.0579 13.2253 34.2055 0.0000 0.0000 0.0000
# 2 13.2253 50.0579 34.2055 0.0000 0.0000 0.0000
# 3 34.2055 34.2055 107.9579 0.0000 0.0000 0.0000
# 4 0.0000 0.0000 0.0000 13.4588 0.0000 0.0000
# 5 0.0000 0.0000 0.0000 0.0000 13.4588 0.0000
# 6 0.0000 0.0000 0.0000 0.0000 0.0000 18.4163
#
#
#
# Elastic Compliance Matrix: (Units=1/GPa)
#
#
# Indices 1 2 3 4 5 6 
#
# 1 0.025592 -0.001558 -0.007615 0.000000 0.000000 0.000000
# 2 -0.001558 0.025592 -0.007615 0.000000 0.000000 0.000000
# 3 -0.007615 -0.007615 0.014088 0.000000 0.000000 0.000000
# 4 0.000000 0.000000 0.000000 0.074301 0.000000 0.000000
# 5 0.000000 0.000000 0.000000 0.000000 0.074301 0.000000
# 6 0.000000 0.000000 0.000000 0.000000 0.000000 0.054300
#
#
# Mechanical properties :
#
#
# Convention : Reuss Voigt Hill
#
# Bulk Modulus (GPa) = 31.54928 41.26069 36.40498
# Shear Modulus (GPa) = 16.00947 17.49593 16.75270
#
# Velocity S-wave (km/s) = 2.88897 3.02011 2.95527
# Velocity P-wave (km/s) = 5.25125 5.80273 5.53386
#
# Compressibility (1/GPa) = 0.03169645
#
# Stress axis : x y z
#
# Youngs Moduli (GPa) = 39.07488 39.07488 70.98077
#
# Poissons Ratio (x) = 0.06088 0.54051
# Poissons Ratio (y) = 0.06088 0.54051
# Poissons Ratio (z) = 0.29755 0.29755
#
# Static dielectric constant tensor:
#      x y z
#    x 1.687420 0.000000 0.000000 
#    y 0.000000 1.687420 0.000000 
#    z 0.000000 0.000000 1.728550 
# 
# From -- ./inp_files/3709.got.cif
#   From: 2010.05.17/outbox.cif.g08.bks.cpg/sg189_2_cif.got.tgz:3709.got - 2010.05.20 12:14:34.
