data_PCOD9586156
_publ_section_title
;
Structure prediction by ZEFSAII (Michael W. Deem and Ramdas Pophale) SiO2 
 PCOD9586156
Probable space group: P -6 2 M
;
_chemical_formula_sum "Si O2"
_cell_formula_units_Z 72
_cell_length_a 24.254761
_cell_length_b 24.254761
_cell_length_c 7.733520
_cell_angle_alpha 90.000000
_cell_angle_beta 90.000000
_cell_angle_gamma 120.000000
_cell_volume 3940.051004
_symmetry_space_group_name_H-M "P -6 2 M"
_symmetry_group_IT_number 189
_symmetry_cell_setting 'hexagonal'
loop_
_space_group_symop_operation_xyz
x,y,z
-x+y,-x,-z
-y,x-y,z
x,y,-z
-x+y,-x,z
-y,x-y,-z
x-y,-y,-z
-x,-x+y,-z
y,x,-z
y,x,z
x-y,-y,z
-x,-x+y,z
loop_
_atom_site_type_symbol
_atom_site_label
_atom_site_fract_x
_atom_site_fract_y
_atom_site_fract_z
Si Si1 0.263177 0.479180 0.705907
Si Si2 0.859070 0.339861 0.796342
Si Si3 0.727633 0.000000 0.298278
Si Si4 0.599832 0.000000 0.789317
Si Si5 0.124987 0.595806 0.207988
Si Si6 0.928004 0.264223 0.209024
Si Si7 0.861160 0.665784 0.707097
O O1 0.255684 0.475491 0.500000
O O2 0.214422 0.499949 0.777138
O O3 0.336837 0.523086 0.748454
O O4 0.238583 0.407039 0.772946
O O5 0.872023 0.406951 0.723622
O O6 0.900022 0.308916 0.725437
O O7 0.874162 0.349940 0.000000
O O8 0.744246 0.000000 0.500000
O O9 0.661199 0.000000 0.284734
O O10 0.779897 0.068084 0.222610
O O11 0.597928 0.062674 0.733121
O O12 0.603802 0.000000 0.000000
O O13 0.121143 0.591000 0.000000
O O14 0.876973 0.192178 0.257693
O O15 0.000000 0.291231 0.269240
O O16 0.928799 0.266994 0.000000
O O17 0.867157 0.662832 0.500000
#
# Coordination Sequence:
#
# PCOD9586156 Si02
#       7
#    12  12   6   6  12  12  12
#     4  10  19  33  51  68  91 123 160 203 248 292
#     4   9  19  34  51  69  93 125 162 203 246 294
#     4  10  18  32  50  72 102 134 160 189 240 289
#     4  10  20  30  48  76 100 124 160 201 244 297
#     4  10  20  33  50  72  97 125 159 203 251 298
#     4   9  18  32  51  73  98 128 160 196 237 280
#     4   9  18  31  49  71  98 129 158 190 233 285
#
# _framework density 18.273876000000001
#
# number of rings (size 3 to 8) (size 9 to 14) (size 15 to 20)
#    0.000    2.500    1.667    0.500    1.167    2.333 
#    1.000    0.000    0.000    0.000    0.000    0.000 
#    0.833    0.000    0.500    0.000    0.667    0.000 
#
# Total GULP energy -401563.361720 kJ/mol
# GULP energy per Si atom -5577.268913 kJ/mol
# Density = 1.823228 g / cm^3
# Si number density = 18.273876 Si / 1000 Ang^3
#
#
#
# Elastic Constant Matrix: (Units=GPa)
#
#
# Indices 1 2 3 4 5 6 
#
# 1 101.8566 61.0869 -10.4941 0.0000 0.0000 0.0000
# 2 61.0869 101.8566 -10.4941 0.0000 0.0000 0.0000
# 3 -10.4941 -10.4941 24.4275 0.0000 0.0000 0.0000
# 4 0.0000 0.0000 0.0000 6.4858 0.0000 0.0000
# 5 0.0000 0.0000 0.0000 0.0000 6.4858 0.0000
# 6 0.0000 0.0000 0.0000 0.0000 0.0000 20.3849
#
#
#
# Elastic Compliance Matrix: (Units=1/GPa)
#
#
# Indices 1 2 3 4 5 6 
#
# 1 0.015512 -0.009016 0.002791 0.000000 0.000000 0.000000
# 2 -0.009016 0.015512 0.002791 0.000000 0.000000 0.000000
# 3 0.002791 0.002791 0.043335 0.000000 0.000000 0.000000
# 4 0.000000 0.000000 0.000000 0.154183 0.000000 0.000000
# 5 0.000000 0.000000 0.000000 0.000000 0.154183 0.000000
# 6 0.000000 0.000000 0.000000 0.000000 0.000000 0.049056
#
#
# Mechanical properties :
#
#
# Convention : Reuss Voigt Hill
#
# Bulk Modulus (GPa) = 14.81646 34.25978 24.53812
# Shear Modulus (GPa) = 10.84251 19.20743 15.02497
#
# Velocity S-wave (km/s) = 2.43849 3.24556 2.87053
# Velocity P-wave (km/s) = 4.00673 5.73006 4.94406
#
# Compressibility (1/GPa) = 0.06749249
#
# Stress axis : x y z
#
# Youngs Moduli (GPa) = 64.46502 64.46502 23.07578
#
# Poissons Ratio (x) = 0.58120 -0.06440
# Poissons Ratio (y) = 0.58120 -0.06440
# Poissons Ratio (z) = -0.17992 -0.17992
#
# Static dielectric constant tensor:
#      x y z
#    x 1.627140 0.000000 0.000000 
#    y 0.000000 1.627140 0.000000 
#    z 0.000000 0.000000 1.676300 
# 
# From -- ./inp_files/1309.got.cif
#   From: 2010.05.17/outbox.cif.g08.bks.cpg/sg189_1_cif.got.tgz:1309.got - 2010.05.20 12:14:34.
