data_PCOD9586842
_publ_section_title
;
Structure prediction by ZEFSAII (Michael W. Deem and Ramdas Pophale) SiO2 
 PCOD9586842
Probable space group: P -6 2 C
;
_chemical_formula_sum "Si O2"
_cell_formula_units_Z 72
_cell_length_a 14.645677
_cell_length_b 14.645677
_cell_length_c 19.474894
_cell_angle_alpha 90.000000
_cell_angle_beta 90.000000
_cell_angle_gamma 120.000000
_cell_volume 3617.634094
_symmetry_space_group_name_H-M "P -6 2 C"
_symmetry_group_IT_number 190
_symmetry_cell_setting 'hexagonal'
loop_
_space_group_symop_operation_xyz
x,y,z
-x+y,-x,1/2-z
-y,x-y,z
x,y,1/2-z
-x+y,-x,z
-y,x-y,1/2-z
x-y,-y,-z
-x,-x+y,-z
y,x,-z
y,x,1/2+z
x-y,-y,1/2+z
-x,-x+y,1/2+z
loop_
_atom_site_type_symbol
_atom_site_label
_atom_site_fract_x
_atom_site_fract_y
_atom_site_fract_z
Si Si1 0.893222 0.380233 0.462668
Si Si2 0.431036 0.283136 0.036704
Si Si3 0.423215 0.009548 0.671216
Si Si4 0.890497 0.782723 0.531187
Si Si5 0.865547 0.169046 0.827727
Si Si6 0.376420 0.369835 0.171857
O O1 0.883357 0.481587 0.482516
O O2 0.785681 0.273208 0.473281
O O3 0.000000 0.401419 0.500000
O O4 0.915803 0.370654 0.382696
O O5 0.395523 0.303111 0.112647
O O6 0.326098 0.211551 0.992093
O O7 0.394276 0.976480 0.750000
O O8 0.387814 0.095822 0.657166
O O9 0.544674 0.040032 0.662554
O O10 0.798987 0.798987 0.500000
O O11 0.876082 0.782610 0.612589
O O12 0.000000 0.871621 0.500000
O O13 0.900565 0.164889 0.750000
O O14 0.740545 0.092110 0.830716
O O15 0.394264 0.342863 0.250000
#
# Coordination Sequence:
#
# PCOD9586842 Si02
#       6
#    12  12  12  12  12  12
#     4  11  23  39  60  91 124 161 211 257 312 388
#     4  11  22  39  62  88 125 167 207 261 324 385
#     4   9  19  36  58  86 122 157 202 259 311 373
#     4  12  24  42  64  91 123 167 216 271 333 388
#     4  10  20  39  63  89 123 167 214 262 318 384
#     4   9  19  36  60  91 125 165 210 261 320 386
#
# _framework density 19.902509999999999
#
# number of rings (size 3 to 8) (size 9 to 14) (size 15 to 20)
#    0.000    1.667    1.667    3.500    2.333    0.667 
#    1.000    1.667    0.000    2.000    0.000    0.000 
#    0.000    0.000    0.000    0.000    0.000    0.000 
#
# Total GULP energy -400963.851028 kJ/mol
# GULP energy per Si atom -5568.942375 kJ/mol
# Density = 1.985721 g / cm^3
# Si number density = 19.902510 Si / 1000 Ang^3
#
#
#
# Elastic Constant Matrix: (Units=GPa)
#
#
# Indices 1 2 3 4 5 6 
#
# 1 93.3348 40.3544 37.6314 0.0000 0.0000 0.0000
# 2 40.3544 93.3348 37.6314 0.0000 0.0000 0.0000
# 3 37.6314 37.6314 107.9652 0.0000 0.0000 0.0000
# 4 0.0000 0.0000 0.0000 21.8461 0.0000 0.0000
# 5 0.0000 0.0000 0.0000 0.0000 21.8461 0.0000
# 6 0.0000 0.0000 0.0000 0.0000 0.0000 26.4902
#
#
#
# Elastic Compliance Matrix: (Units=1/GPa)
#
#
# Indices 1 2 3 4 5 6 
#
# 1 0.014091 -0.004784 -0.003244 0.000000 0.000000 0.000000
# 2 -0.004784 0.014091 -0.003244 0.000000 0.000000 0.000000
# 3 -0.003244 -0.003244 0.011523 0.000000 0.000000 0.000000
# 4 0.000000 0.000000 0.000000 0.045775 0.000000 0.000000
# 5 0.000000 0.000000 0.000000 0.000000 0.045775 0.000000
# 6 0.000000 0.000000 0.000000 0.000000 0.000000 0.037750
#
#
# Mechanical properties :
#
#
# Convention : Reuss Voigt Hill
#
# Bulk Modulus (GPa) = 58.27166 58.42992 58.35079
# Shear Modulus (GPa) = 25.34627 25.97097 25.65862
#
# Velocity S-wave (km/s) = 3.57251 3.61627 3.59446
# Velocity P-wave (km/s) = 6.80876 6.84532 6.82706
#
# Compressibility (1/GPa) = 0.01716100
#
# Stress axis : x y z
#
# Youngs Moduli (GPa) = 70.96975 70.96975 86.77998
#
# Poissons Ratio (x) = 0.33955 0.28148
# Poissons Ratio (y) = 0.33955 0.28148
# Poissons Ratio (z) = 0.23020 0.23020
#
# Static dielectric constant tensor:
#      x y z
#    x 1.722100 0.000000 0.000000 
#    y 0.000000 1.722100 0.000000 
#    z 0.000000 0.000000 1.769230 
# 
# From -- ./inp_files/3758.got.cif
#   From: 2010.05.17/outbox.cif.g08.bks.cpg/sg190_2_cif.got.tgz:3758.got - 2010.05.20 12:16:56.
