data_PCOD9586313
_publ_section_title
;
Structure prediction by ZEFSAII (Michael W. Deem and Ramdas Pophale) SiO2 
 PCOD9586313
Probable space group: P -6 2 M
;
_chemical_formula_sum "Si O2"
_cell_formula_units_Z 84
_cell_length_a 18.835947
_cell_length_b 18.835947
_cell_length_c 14.064751
_cell_angle_alpha 90.000000
_cell_angle_beta 90.000000
_cell_angle_gamma 120.000000
_cell_volume 4321.530666
_symmetry_space_group_name_H-M "P -6 2 M"
_symmetry_group_IT_number 189
_symmetry_cell_setting 'hexagonal'
loop_
_space_group_symop_operation_xyz
x,y,z
-x+y,-x,-z
-y,x-y,z
x,y,-z
-x+y,-x,z
-y,x-y,-z
x-y,-y,-z
-x,-x+y,-z
y,x,-z
y,x,z
x-y,-y,z
-x,-x+y,z
loop_
_atom_site_type_symbol
_atom_site_label
_atom_site_fract_x
_atom_site_fract_y
_atom_site_fract_z
Si Si1 0.093632 0.185021 0.102448
Si Si2 0.584484 0.485261 0.607390
Si Si3 0.095844 0.348426 0.613673
Si Si4 0.419839 0.263536 0.111912
Si Si5 0.678631 0.587633 0.113311
Si Si6 0.794550 0.090151 0.269133
Si Si7 0.475681 0.902837 0.802655
O O1 0.107827 0.107827 0.101183
O O2 0.137635 0.233841 0.195164
O O3 0.000000 0.157675 0.104683
O O4 0.127756 0.228561 0.000000
O O5 0.583883 0.455050 0.500000
O O6 0.532788 0.532788 0.604557
O O7 0.676149 0.557897 0.632906
O O8 0.543528 0.420392 0.691864
O O9 0.098380 0.341110 0.500000
O O10 0.159894 0.327366 0.662019
O O11 0.000000 0.288840 0.642172
O O12 0.409957 0.174093 0.131393
O O13 0.362689 0.267206 0.194477
O O14 0.503229 0.346775 0.136979
O O15 0.402497 0.267562 0.000000
O O16 0.661928 0.661928 0.142900
O O17 0.605924 0.505779 0.158237
O O18 0.670148 0.582321 0.000000
O O19 0.749792 0.000000 0.315669
O O20 0.543956 0.000000 0.810391
#
# Coordination Sequence:
#
# PCOD9586313 Si02
#       7
#    12  12  12  12  12  12  12
#     4   9  17  29  45  65  92 132 185 242 293 336
#     4   8  15  30  55  85 109 132 173 228 282 342
#     4   9  18  35  60  85 107 137 184 243 300 351
#     4  11  23  37  54  80 114 153 194 236 280 331
#     4   9  19  36  57  82 112 149 195 241 284 338
#     4  11  22  33  47  72 109 149 186 227 279 340
#     4  10  19  34  58  83 111 149 186 225 285 355
#
# _framework density 19.437557000000002
#
# number of rings (size 3 to 8) (size 9 to 14) (size 15 to 20)
#    0.000    2.429    0.000    3.571    0.000    5.429 
#    0.857    2.143    0.000    2.857    0.000    0.000 
#    0.000    0.000    0.000    0.000    0.000    0.000 
#
# Total GULP energy -467889.127903 kJ/mol
# GULP energy per Si atom -5570.108666 kJ/mol
# Density = 1.939332 g / cm^3
# Si number density = 19.437557 Si / 1000 Ang^3
#
#
#
# Elastic Constant Matrix: (Units=GPa)
#
#
# Indices 1 2 3 4 5 6 
#
# 1 56.4368 15.3231 36.6955 0.0000 0.0000 0.0000
# 2 15.3231 56.4368 36.6955 0.0000 0.0000 0.0000
# 3 36.6955 36.6955 77.2298 0.0000 0.0000 0.0000
# 4 0.0000 0.0000 0.0000 26.6667 0.0000 0.0000
# 5 0.0000 0.0000 0.0000 0.0000 26.6667 0.0000
# 6 0.0000 0.0000 0.0000 0.0000 0.0000 20.5569
#
#
#
# Elastic Compliance Matrix: (Units=1/GPa)
#
#
# Indices 1 2 3 4 5 6 
#
# 1 0.025716 0.001393 -0.012881 0.000000 0.000000 0.000000
# 2 0.001393 0.025716 -0.012881 0.000000 0.000000 0.000000
# 3 -0.012881 -0.012881 0.025189 0.000000 0.000000 0.000000
# 4 0.000000 0.000000 0.000000 0.037500 0.000000 0.000000
# 5 0.000000 0.000000 0.000000 0.000000 0.037500 0.000000
# 6 0.000000 0.000000 0.000000 0.000000 0.000000 0.048646
#
#
# Mechanical properties :
#
#
# Convention : Reuss Voigt Hill
#
# Bulk Modulus (GPa) = 35.86319 40.83685 38.35002
# Shear Modulus (GPa) = 19.35755 21.53735 20.44745
#
# Velocity S-wave (km/s) = 3.15919 3.33232 3.24691
# Velocity P-wave (km/s) = 5.63895 5.98837 5.81629
#
# Compressibility (1/GPa) = 0.02788375
#
# Stress axis : x y z
#
# Youngs Moduli (GPa) = 38.88657 38.88657 39.70016
#
# Poissons Ratio (x) = -0.05417 0.51137
# Poissons Ratio (y) = -0.05417 0.51137
# Poissons Ratio (z) = 0.50089 0.50089
#
# Static dielectric constant tensor:
#      x y z
#    x 1.737690 0.000000 0.000000 
#    y 0.000000 1.737690 0.000000 
#    z 0.000000 0.000000 1.707010 
# 
# From -- ./inp_files/2826.got.cif
#   From: 2010.05.17/outbox.cif.g08.bks.cpg/sg189_2_cif.got.tgz:2826.got - 2010.05.20 12:14:34.
