data_PCOD9586762
_publ_section_title
;
Structure prediction by ZEFSAII (Michael W. Deem and Ramdas Pophale) SiO2 
 PCOD9586762
Probable space group: P -6 2 C
;
_chemical_formula_sum "Si O2"
_cell_formula_units_Z 72
_cell_length_a 24.656075
_cell_length_b 24.656075
_cell_length_c 8.446050
_cell_angle_alpha 90.000000
_cell_angle_beta 90.000000
_cell_angle_gamma 120.000000
_cell_volume 4446.641989
_symmetry_space_group_name_H-M "P -6 2 C"
_symmetry_group_IT_number 190
_symmetry_cell_setting 'hexagonal'
loop_
_space_group_symop_operation_xyz
x,y,z
-x+y,-x,1/2-z
-y,x-y,z
x,y,1/2-z
-x+y,-x,z
-y,x-y,1/2-z
x-y,-y,-z
-x,-x+y,-z
y,x,-z
y,x,1/2+z
x-y,-y,1/2+z
-x,-x+y,1/2+z
loop_
_atom_site_type_symbol
_atom_site_label
_atom_site_fract_x
_atom_site_fract_y
_atom_site_fract_z
Si Si1 0.069680 0.599174 0.440834
Si Si2 0.809508 0.405944 0.943117
Si Si3 0.261850 0.192327 0.060818
Si Si4 0.861643 0.930335 0.939496
Si Si5 0.741211 0.264703 0.556933
Si Si6 0.143498 0.743575 0.441073
O O1 0.069271 0.598818 0.250000
O O2 0.121320 0.580806 0.493308
O O3 0.096493 0.671476 0.490897
O O4 0.000000 0.555043 0.500000
O O5 0.809724 0.404936 0.750000
O O6 0.784871 0.335529 0.998762
O O7 0.762141 0.430791 0.988325
O O8 0.261350 0.193299 0.250000
O O9 0.206898 0.123767 0.007009
O O10 0.241493 0.241493 0.000000
O O11 0.330682 0.211799 0.002896
O O12 0.862883 0.931067 0.750000
O O13 0.881835 0.881835 0.000000
O O14 0.910445 0.000000 0.000000
O O15 0.742348 0.265581 0.750000
O O16 0.759386 0.212863 0.507421
O O17 0.143122 0.744670 0.250000
#
# Coordination Sequence:
#
# PCOD9586762 Si02
#       6
#    12  12  12  12  12  12
#     4   9  17  27  40  61  87 113 142 175 211 254
#     4   8  13  22  38  61  86 109 137 174 213 253
#     4  10  20  32  47  67  90 117 147 179 216 257
#     4  10  20  33  49  69  92 117 145 177 214 256
#     4   8  13  22  39  63  88 113 141 177 220 260
#     4   9  17  28  43  65  90 115 145 180 219 262
#
# _framework density 16.191994000000001
#
# number of rings (size 3 to 8) (size 9 to 14) (size 15 to 20)
#    0.000    3.000    0.000    4.000    0.000    5.333 
#    0.000    0.000    0.000    2.000    0.000    4.667 
#    0.000    2.667    0.000    0.000    0.000    0.000 
#
# Total GULP energy -401155.653416 kJ/mol
# GULP energy per Si atom -5571.606297 kJ/mol
# Density = 1.615514 g / cm^3
# Si number density = 16.191994 Si / 1000 Ang^3
#
#
#
# Elastic Constant Matrix: (Units=GPa)
#
#
# Indices 1 2 3 4 5 6 
#
# 1 128.4546 82.5276 17.7340 0.0000 0.0000 0.0000
# 2 82.5276 128.4546 17.7340 0.0000 0.0000 0.0000
# 3 17.7340 17.7340 10.3288 0.0000 0.0000 0.0000
# 4 0.0000 0.0000 0.0000 16.1039 0.0000 0.0000
# 5 0.0000 0.0000 0.0000 0.0000 16.1039 0.0000
# 6 0.0000 0.0000 0.0000 0.0000 0.0000 22.9635
#
#
#
# Elastic Compliance Matrix: (Units=1/GPa)
#
#
# Indices 1 2 3 4 5 6 
#
# 1 0.014218 -0.007555 -0.011440 0.000000 0.000000 0.000000
# 2 -0.007555 0.014218 -0.011440 0.000000 0.000000 0.000000
# 3 -0.011440 -0.011440 0.136099 0.000000 0.000000 0.000000
# 4 0.000000 0.000000 0.000000 0.062097 0.000000 0.000000
# 5 0.000000 0.000000 0.000000 0.000000 0.062097 0.000000
# 6 0.000000 0.000000 0.000000 0.000000 0.000000 0.043547
#
#
# Mechanical properties :
#
#
# Convention : Reuss Voigt Hill
#
# Bulk Modulus (GPa) = 9.64638 55.91435 32.78036
# Shear Modulus (GPa) = 11.69039 20.98374 16.33707
#
# Velocity S-wave (km/s) = 2.68989 3.60381 3.17986
# Velocity P-wave (km/s) = 3.95194 7.20581 5.81126
#
# Compressibility (1/GPa) = 0.10366579
#
# Stress axis : x y z
#
# Youngs Moduli (GPa) = 70.33203 70.33203 7.34760
#
# Poissons Ratio (x) = 0.53139 0.08405
# Poissons Ratio (y) = 0.53139 0.08405
# Poissons Ratio (z) = 0.80458 0.80458
#
# Static dielectric constant tensor:
#      x y z
#    x 1.538570 0.000000 0.000000 
#    y 0.000000 1.538570 0.000000 
#    z 0.000000 0.000000 1.564920 
# 
# From -- ./inp_files/1181.got.cif
#   From: 2010.05.17/outbox.cif.g08.bks.cpg/sg190_1_cif.got.tgz:1181.got - 2010.05.20 12:16:56.
