data_PCOD9586489
_publ_section_title
;
Structure prediction by ZEFSAII (Michael W. Deem and Ramdas Pophale) SiO2 
 PCOD9586489
Probable space group: P -6 2 M
;
_chemical_formula_sum "Si O2"
_cell_formula_units_Z 66
_cell_length_a 24.097905
_cell_length_b 24.097905
_cell_length_c 7.571687
_cell_angle_alpha 90.000000
_cell_angle_beta 90.000000
_cell_angle_gamma 120.000000
_cell_volume 3807.867782
_symmetry_space_group_name_H-M "P -6 2 M"
_symmetry_group_IT_number 189
_symmetry_cell_setting 'hexagonal'
loop_
_space_group_symop_operation_xyz
x,y,z
-x+y,-x,-z
-y,x-y,z
x,y,-z
-x+y,-x,z
-y,x-y,-z
x-y,-y,-z
-x,-x+y,-z
y,x,-z
y,x,z
x-y,-y,z
-x,-x+y,z
loop_
_atom_site_type_symbol
_atom_site_label
_atom_site_fract_x
_atom_site_fract_y
_atom_site_fract_z
Si Si1 0.923700 0.847842 0.000000
Si Si2 0.591641 0.192546 0.209632
Si Si3 0.143451 0.390128 0.290726
Si Si4 0.075705 0.244745 0.290450
Si Si5 0.072082 0.464622 0.713137
Si Si6 0.482494 0.747488 0.786366
O O1 0.890832 0.802833 0.170759
O O2 0.899970 0.899970 0.000000
O O3 0.000000 0.881850 0.000000
O O4 0.538073 0.119401 0.239144
O O5 0.662044 0.213427 0.277986
O O6 0.559967 0.233831 0.278567
O O7 0.598919 0.204382 0.000000
O O8 0.131384 0.382534 0.500000
O O9 0.118070 0.318238 0.226956
O O10 0.103233 0.422638 0.219514
O O11 0.217321 0.443874 0.263794
O O12 0.086912 0.240250 0.500000
O O13 0.000000 0.221323 0.270846
O O14 0.070932 0.460933 0.500000
O O15 0.000000 0.435283 0.776823
O O16 0.481293 0.746290 0.000000
#
# Coordination Sequence:
#
# PCOD9586489 Si02
#       6
#     6  12  12  12  12  12
#     4  10  21  36  56  82 110 138 168 200 238 286
#     4   9  17  29  43  63  89 120 155 192 236 285
#     4   9  17  29  47  71  96 123 157 198 244 292
#     4   9  18  33  53  78 108 138 166 201 248 299
#     4   9  17  29  45  65  91 121 150 187 238 288
#     4   9  17  28  44  64  91 124 159 200 246 293
#
# _framework density 17.332533999999999
#
# number of rings (size 3 to 8) (size 9 to 14) (size 15 to 20)
#    0.000    2.909    0.000    1.000    1.273    5.091 
#    0.000    0.000    0.000    4.364    0.000    0.000 
#    0.000    0.000    0.000    0.000    0.000    0.000 
#
# Total GULP energy -367824.263005 kJ/mol
# GULP energy per Si atom -5573.094894 kJ/mol
# Density = 1.729308 g / cm^3
# Si number density = 17.332534 Si / 1000 Ang^3
#
#
#
# Elastic Constant Matrix: (Units=GPa)
#
#
# Indices 1 2 3 4 5 6 
#
# 1 134.7353 88.1659 20.9201 0.0000 0.0000 0.0000
# 2 88.1659 134.7353 20.9201 0.0000 0.0000 0.0000
# 3 20.9201 20.9201 50.0627 0.0000 0.0000 0.0000
# 4 0.0000 0.0000 0.0000 17.2776 0.0000 0.0000
# 5 0.0000 0.0000 0.0000 0.0000 17.2776 0.0000
# 6 0.0000 0.0000 0.0000 0.0000 0.0000 23.2847
#
#
#
# Elastic Compliance Matrix: (Units=1/GPa)
#
#
# Indices 1 2 3 4 5 6 
#
# 1 0.013171 -0.008303 -0.002034 0.000000 0.000000 0.000000
# 2 -0.008303 0.013171 -0.002034 0.000000 0.000000 0.000000
# 3 -0.002034 -0.002034 0.021675 0.000000 0.000000 0.000000
# 4 0.000000 0.000000 0.000000 0.057878 0.000000 0.000000
# 5 0.000000 0.000000 0.000000 0.000000 0.057878 0.000000
# 6 0.000000 0.000000 0.000000 0.000000 0.000000 0.042947
#
#
# Mechanical properties :
#
#
# Convention : Reuss Voigt Hill
#
# Bulk Modulus (GPa) = 42.96597 64.39398 53.67997
# Shear Modulus (GPa) = 20.90123 24.20313 22.55218
#
# Velocity S-wave (km/s) = 3.47637 3.74090 3.61106
# Velocity P-wave (km/s) = 6.39973 7.47608 6.95875
#
# Compressibility (1/GPa) = 0.02327424
#
# Stress axis : x y z
#
# Youngs Moduli (GPa) = 75.92586 75.92586 46.13584
#
# Poissons Ratio (x) = 0.63038 0.09385
# Poissons Ratio (y) = 0.63038 0.09385
# Poissons Ratio (z) = 0.15446 0.15446
#
# Static dielectric constant tensor:
#      x y z
#    x 1.577410 0.000000 0.000000 
#    y 0.000000 1.577410 0.000000 
#    z 0.000000 0.000000 1.647010 
# 
# From -- ./inp_files/1021.got.cif
#   From: 2010.05.17/outbox.cif.g08.bks.cpg/sg189_1_cif.got.tgz:1021.got - 2010.05.20 12:14:34.
