data_PCOD9586015
_publ_section_title
;
Structure prediction by ZEFSAII (Michael W. Deem and Ramdas Pophale) SiO2 
 PCOD9586015
Probable space group: P -6 C 2
;
_chemical_formula_sum "Si O2"
_cell_formula_units_Z 46
_cell_length_a 13.090350
_cell_length_b 13.090350
_cell_length_c 15.876990
_cell_angle_alpha 90.000000
_cell_angle_beta 90.000000
_cell_angle_gamma 120.000000
_cell_volume 2356.141235
_symmetry_space_group_name_H-M "P -6 C 2"
_symmetry_group_IT_number 188
_symmetry_cell_setting 'hexagonal'
loop_
_space_group_symop_operation_xyz
x,y,z
-x+y,-x,1/2-z
-y,x-y,z
x,y,1/2-z
-x+y,-x,z
-y,x-y,1/2-z
-y,-x,-z
-x+y,y,-z
x,x-y,-z
-x+y,y,1/2+z
x,x-y,1/2+z
-y,-x,1/2+z
loop_
_atom_site_type_symbol
_atom_site_label
_atom_site_fract_x
_atom_site_fract_y
_atom_site_fract_z
Si Si1 0.767772 0.165962 0.848203
Si Si2 0.666668 0.333335 0.600363
Si Si3 0.027845 0.464819 0.081972
Si Si4 0.210579 0.421157 0.000000
Si Si5 0.653871 0.965562 0.347792
O O1 0.758948 0.139441 0.750000
O O2 0.723203 0.257898 0.866054
O O3 0.671111 0.046664 0.892295
O O4 0.905805 0.235864 0.869015
O O5 0.666668 0.333334 0.500000
O O6 0.031270 0.561774 0.145609
O O7 0.154660 0.488851 0.050177
O O8 0.966133 0.483067 0.000000
O O9 0.234366 0.354340 0.076594
O O10 0.664644 0.935535 0.250000
#
# Coordination Sequence:
#
# PCOD9586015 Si02
#       5
#    12   4  12   6  12
#     4  11  21  35  61  97 132 158 190 238 307 389
#     4  12  22  29  55  99 142 164 178 219 304 401
#     4  10  21  38  60  87 121 165 201 254 305 360
#     4  10  24  40  56  76 122 164 216 252 282 350
#     4  10  22  39  62  92 123 162 205 250 310 370
#
# _framework density 19.523447999999998
#
# number of rings (size 3 to 8) (size 9 to 14) (size 15 to 20)
#    0.000    1.565    2.609    2.348    3.652    2.087 
#   21.130    0.000    0.000    4.174    0.000    0.000 
#    0.000    0.000    0.000    0.000    0.000    0.000 
#
# Total GULP energy -256323.946111 kJ/mol
# GULP energy per Si atom -5572.259698 kJ/mol
# Density = 1.947901 g / cm^3
# Si number density = 19.523448 Si / 1000 Ang^3
#
#
#
# Elastic Constant Matrix: (Units=GPa)
#
#
# Indices 1 2 3 4 5 6 
#
# 1 92.8329 23.2884 37.7432 0.0002 0.0001 0.0000
# 2 23.2884 92.8338 37.7437 -0.0001 0.0000 0.0002
# 3 37.7432 37.7437 83.5594 -0.0002 -0.0002 0.0006
# 4 0.0002 -0.0001 -0.0002 22.5949 0.0004 0.0000
# 5 0.0001 0.0000 -0.0002 0.0004 22.5947 -0.0004
# 6 0.0000 0.0002 0.0006 0.0000 -0.0004 34.7735
#
#
#
# Elastic Compliance Matrix: (Units=1/GPa)
#
#
# Indices 1 2 3 4 5 6 
#
# 1 0.013285 -0.001094 -0.005507 0.000000 0.000000 0.000000
# 2 -0.001094 0.013285 -0.005507 0.000000 0.000000 0.000000
# 3 -0.005507 -0.005507 0.016942 0.000000 0.000000 0.000000
# 4 0.000000 0.000000 0.000000 0.044258 -0.000001 0.000000
# 5 0.000000 0.000000 0.000000 -0.000001 0.044258 0.000000
# 6 0.000000 0.000000 0.000000 0.000000 0.000000 0.028758
#
#
# Mechanical properties :
#
#
# Convention : Reuss Voigt Hill
#
# Bulk Modulus (GPa) = 51.81896 51.86406 51.84151
# Shear Modulus (GPa) = 26.11863 27.35601 26.73732
#
# Velocity S-wave (km/s) = 3.66157 3.74730 3.70469
# Velocity P-wave (km/s) = 6.66901 6.73392 6.70155
#
# Compressibility (1/GPa) = 0.01929796
#
# Stress axis : x y z
#
# Youngs Moduli (GPa) = 75.27084 75.27122 59.02366
#
# Poissons Ratio (x) = 0.08234 0.32503
# Poissons Ratio (y) = 0.08234 0.32504
# Poissons Ratio (z) = 0.41450 0.41451
#
# Static dielectric constant tensor:
#      x y z
#    x 1.722100 0.000000 0.000000 
#    y 0.000000 1.722100 0.000000 
#    z 0.000000 0.000000 1.722550 
# 
# From -- ./inp_files/2131.got.cif
#   From: 2010.05.17/outbox.cif.g08.bks.cpg/sg188_2_cif.got.tgz:2131.got - 2010.05.20 12:11:46.
