data_PCOD9586009
_publ_section_title
;
Structure prediction by ZEFSAII (Michael W. Deem and Ramdas Pophale) SiO2 
 PCOD9586009
Probable space group: P -6 C 2
;
_chemical_formula_sum "Si O2"
_cell_formula_units_Z 84
_cell_length_a 18.741599
_cell_length_b 18.741599
_cell_length_c 15.295639
_cell_angle_alpha 90.000000
_cell_angle_beta 90.000000
_cell_angle_gamma 120.000000
_cell_volume 4652.769516
_symmetry_space_group_name_H-M "P -6 C 2"
_symmetry_group_IT_number 188
_symmetry_cell_setting 'hexagonal'
loop_
_space_group_symop_operation_xyz
x,y,z
-x+y,-x,1/2-z
-y,x-y,z
x,y,1/2-z
-x+y,-x,z
-y,x-y,1/2-z
-y,-x,-z
-x+y,y,-z
x,x-y,-z
-x+y,y,1/2+z
x,x-y,1/2+z
-y,-x,1/2+z
loop_
_atom_site_type_symbol
_atom_site_label
_atom_site_fract_x
_atom_site_fract_y
_atom_site_fract_z
Si Si1 0.014070 0.587033 0.855822
Si Si2 0.412967 0.985930 0.855822
Si Si3 0.506825 0.174812 0.143516
Si Si4 0.999424 0.171415 0.250000
Si Si5 0.506825 0.174812 0.643516
Si Si6 0.171991 0.171415 0.250000
Si Si7 0.700090 0.933571 0.900519
Si Si8 0.700090 0.766520 0.599481
O O1 0.015427 0.588003 0.750000
O O2 0.039395 0.519698 0.883867
O O3 0.063223 0.680156 0.887269
O O4 0.919091 0.550908 0.884349
O O5 0.411997 0.984573 0.750000
O O6 0.319843 0.936776 0.887269
O O7 0.449091 0.080909 0.884349
O O8 0.504196 0.174104 0.250000
O O9 0.599872 0.199743 0.119213
O O10 0.484264 0.242132 0.112451
O O11 0.078926 0.157853 0.250000
O O12 0.008777 0.228525 0.166867
O O13 0.914816 0.085184 0.250000
O O14 0.504195 0.174104 0.750000
O O15 0.219748 0.228525 0.333133
O O16 0.683676 0.841838 0.884281
O O17 0.728491 0.956379 0.000000
#
# Coordination Sequence:
#
# PCOD9586009 Si02
#       8
#    12  12  12   6  12   6  12  12
#     4   9  17  30  49  77 109 140 177 220 264 314
#     4   9  17  30  49  77 109 140 177 220 264 314
#     4   8  13  21  36  61  95 133 171 207 243 284
#     4  10  21  38  59  82 110 144 182 228 281 338
#     4   8  13  21  36  61  95 133 171 207 243 284
#     4  10  21  38  59  82 110 144 182 228 281 338
#     4  10  21  37  57  81 108 141 182 226 277 336
#     4  10  21  37  57  81 108 141 182 226 277 336
#
# _framework density 18.053764000000001
#
# number of rings (size 3 to 8) (size 9 to 14) (size 15 to 20)
#    0.000    2.857    1.429    2.143    0.000    3.429 
#    0.000    0.000    0.000    2.286    0.000    0.000 
#    0.000    2.286    0.000    0.000    0.000    0.000 
#
# Total GULP energy -468291.823711 kJ/mol
# GULP energy per Si atom -5574.902663 kJ/mol
# Density = 1.801267 g / cm^3
# Si number density = 18.053764 Si / 1000 Ang^3
#
#
#
# Elastic Constant Matrix: (Units=GPa)
#
#
# Indices 1 2 3 4 5 6 
#
# 1 84.7787 58.7678 43.0601 0.0000 0.0000 0.0000
# 2 58.7678 84.7787 43.0601 0.0000 0.0000 0.0000
# 3 43.0601 43.0601 68.0640 0.0000 0.0000 0.0000
# 4 0.0000 0.0000 0.0000 -5.3869 0.0000 0.0000
# 5 0.0000 0.0000 0.0000 0.0000 -5.3869 0.0000
# 6 0.0000 0.0000 0.0000 0.0000 0.0000 13.0054
#
#
#
# Elastic Compliance Matrix: (Units=1/GPa)
#
#
# Indices 1 2 3 4 5 6 
#
# 1 0.024837 -0.013609 -0.007103 0.000000 0.000000 0.000000
# 2 -0.013609 0.024837 -0.007103 0.000000 0.000000 0.000000
# 3 -0.007103 -0.007103 0.023680 0.000000 0.000000 0.000000
# 4 0.000000 0.000000 0.000000 -0.185636 0.000000 0.000000
# 5 0.000000 0.000000 0.000000 0.000000 -0.185636 0.000000
# 6 0.000000 0.000000 0.000000 0.000000 0.000000 0.076891
#
#
# Mechanical properties :
#
#
# Convention : Reuss Voigt Hill
#
# Bulk Modulus (GPa) = 56.42532 58.59969 57.51250
# Shear Modulus (GPa) = -31.34988 6.62856 -12.36066
#
# Velocity S-wave (km/s) = -4.17162 1.91821 -2.61944
# Velocity P-wave (km/s) = 2.84933 6.11841 4.77250
#
# Compressibility (1/GPa) = 0.01772254
#
# Stress axis : x y z
#
# Youngs Moduli (GPa) = 40.26299 40.26299 42.23027
#
# Poissons Ratio (x) = 0.54793 0.29997
# Poissons Ratio (y) = 0.54793 0.29997
# Poissons Ratio (z) = 0.28600 0.28600
#
# Static dielectric constant tensor:
#      x y z
#    x 1.607840 0.000000 0.000000 
#    y 0.000000 1.607840 0.000000 
#    z 0.000000 0.000000 1.673800 
# 
# From -- ./inp_files/2633.got.cif
#   From: 2010.05.17/outbox.cif.g08.bks.cpg/sg188_2_cif.got.tgz:2633.got - 2010.05.20 12:11:46.
