data_PCOD9586525
_publ_section_title
;
Structure prediction by ZEFSAII (Michael W. Deem and Ramdas Pophale) SiO2 
 PCOD9586525
Probable space group: P -6 2 M
;
_chemical_formula_sum "Si O2"
_cell_formula_units_Z 72
_cell_length_a 14.359750
_cell_length_b 14.359750
_cell_length_c 19.244424
_cell_angle_alpha 90.000000
_cell_angle_beta 90.000000
_cell_angle_gamma 120.000000
_cell_volume 3436.602539
_symmetry_space_group_name_H-M "P -6 2 M"
_symmetry_group_IT_number 189
_symmetry_cell_setting 'hexagonal'
loop_
_space_group_symop_operation_xyz
x,y,z
-x+y,-x,-z
-y,x-y,z
x,y,-z
-x+y,-x,z
-y,x-y,-z
x-y,-y,-z
-x,-x+y,-z
y,x,-z
y,x,z
x-y,-y,z
-x,-x+y,z
loop_
_atom_site_type_symbol
_atom_site_label
_atom_site_fract_x
_atom_site_fract_y
_atom_site_fract_z
Si Si1 0.254906 0.126733 0.916931
Si Si2 0.453937 0.873758 0.734286
Si Si3 0.558208 0.129866 0.422299
Si Si4 0.425499 0.196480 0.197642
Si Si5 0.130368 0.338473 0.425434
Si Si6 0.879811 0.115945 0.708272
O O1 0.194572 0.194572 0.900831
O O2 0.369269 0.172723 0.877545
O O3 0.178315 0.000000 0.898265
O O4 0.270326 0.131876 0.000000
O O5 0.444657 0.832905 0.654001
O O6 0.344719 0.821539 0.779720
O O7 0.537954 0.853704 0.776222
O O8 0.495793 0.000000 0.728860
O O9 0.609180 0.168732 0.500000
O O10 0.458915 0.152807 0.418599
O O11 0.505823 0.000000 0.424052
O O12 0.325866 0.117879 0.245591
O O13 0.168526 0.324258 0.500000
O O14 0.170846 0.295981 0.363629
O O15 0.000000 0.267285 0.423318
O O16 0.000000 0.140225 0.696755
O O17 0.808924 0.000000 0.740462
#
# Coordination Sequence:
#
# PCOD9586525 Si02
#       6
#    12  12  12  12  12  12
#     4  10  21  40  68 102 137 170 203 243 296 368
#     4  11  22  39  60  84 117 157 199 257 318 364
#     4   8  14  29  54  78 103 145 199 252 308 362
#     4  12  24  40  61  88 119 156 210 258 312 376
#     4   8  14  27  48  73 103 145 194 240 292 360
#     4  11  21  34  53  82 118 156 196 245 306 378
#
# _framework density 20.950925000000002
#
# number of rings (size 3 to 8) (size 9 to 14) (size 15 to 20)
#    0.000    2.000    1.667    4.667    0.000    1.000 
#    0.000    4.167    0.000    6.000    0.000    0.000 
#    0.000    0.000    0.000    0.000    0.000    0.000 
#
# Total GULP energy -401561.728602 kJ/mol
# GULP energy per Si atom -5577.246231 kJ/mol
# Density = 2.090324 g / cm^3
# Si number density = 20.950925 Si / 1000 Ang^3
#
#
#
# Elastic Constant Matrix: (Units=GPa)
#
#
# Indices 1 2 3 4 5 6 
#
# 1 64.0042 18.7870 34.5534 0.0000 0.0000 0.0000
# 2 18.7870 64.0042 34.5534 0.0000 0.0000 0.0000
# 3 34.5534 34.5534 132.4520 0.0000 0.0000 0.0000
# 4 0.0000 0.0000 0.0000 19.2361 0.0000 0.0000
# 5 0.0000 0.0000 0.0000 0.0000 19.2361 0.0000
# 6 0.0000 0.0000 0.0000 0.0000 0.0000 22.6086
#
#
#
# Elastic Compliance Matrix: (Units=1/GPa)
#
#
# Indices 1 2 3 4 5 6 
#
# 1 0.018778 -0.003337 -0.004028 0.000000 0.000000 0.000000
# 2 -0.003337 0.018778 -0.004028 0.000000 0.000000 0.000000
# 3 -0.004028 -0.004028 0.009652 0.000000 0.000000 0.000000
# 4 0.000000 0.000000 0.000000 0.051986 0.000000 0.000000
# 5 0.000000 0.000000 0.000000 0.000000 0.051986 0.000000
# 6 0.000000 0.000000 0.000000 0.000000 0.000000 0.044231
#
#
# Mechanical properties :
#
#
# Convention : Reuss Voigt Hill
#
# Bulk Modulus (GPa) = 40.94860 48.47198 44.71029
# Shear Modulus (GPa) = 22.09089 23.72060 22.90574
#
# Velocity S-wave (km/s) = 3.25069 3.36847 3.31010
# Velocity P-wave (km/s) = 5.80317 6.18991 5.99965
#
# Compressibility (1/GPa) = 0.02442086
#
# Stress axis : x y z
#
# Youngs Moduli (GPa) = 53.25321 53.25321 103.60990
#
# Poissons Ratio (x) = 0.17772 0.41736
# Poissons Ratio (y) = 0.17772 0.41736
# Poissons Ratio (z) = 0.21451 0.21451
#
# Static dielectric constant tensor:
#      x y z
#    x 1.738620 0.000000 0.000000 
#    y 0.000000 1.738620 0.000000 
#    z 0.000000 0.000000 1.797460 
# 
# From -- ./inp_files/3095.got.cif
#   From: 2010.05.17/outbox.cif.g08.bks.cpg/sg189_2_cif.got.tgz:3095.got - 2010.05.20 12:14:34.
