data_PCOD9586326
_publ_section_title
;
Structure prediction by ZEFSAII (Michael W. Deem and Ramdas Pophale) SiO2 
 PCOD9586326
Probable space group: P -6 2 M
;
_chemical_formula_sum "Si O2"
_cell_formula_units_Z 58
_cell_length_a 13.847324
_cell_length_b 13.847324
_cell_length_c 16.945349
_cell_angle_alpha 90.000000
_cell_angle_beta 90.000000
_cell_angle_gamma 120.000000
_cell_volume 2813.927200
_symmetry_space_group_name_H-M "P -6 2 M"
_symmetry_group_IT_number 189
_symmetry_cell_setting 'hexagonal'
loop_
_space_group_symop_operation_xyz
x,y,z
-x+y,-x,-z
-y,x-y,z
x,y,-z
-x+y,-x,z
-y,x-y,-z
x-y,-y,-z
-x,-x+y,-z
y,x,-z
y,x,z
x-y,-y,z
-x,-x+y,z
loop_
_atom_site_type_symbol
_atom_site_label
_atom_site_fract_x
_atom_site_fract_y
_atom_site_fract_z
Si Si1 0.580315 0.115062 0.405191
Si Si2 0.132650 0.420352 0.140209
Si Si3 0.666668 0.333334 0.096276
Si Si4 0.870588 0.741607 0.733074
Si Si5 0.870005 0.133680 0.000000
Si Si6 0.231927 0.824672 0.405111
O O1 0.575900 0.122247 0.500000
O O2 0.701163 0.207412 0.383188
O O3 0.469490 0.110631 0.378079
O O4 0.573752 0.000000 0.383868
O O5 0.223847 0.550497 0.125208
O O6 0.154353 0.369525 0.219348
O O7 0.146323 0.343840 0.073750
O O8 0.000000 0.384816 0.138564
O O9 0.666667 0.333334 0.000000
O O10 0.831461 0.831461 0.749945
O O11 0.845928 0.703692 0.642011
O O12 0.000000 0.792144 0.752976
O O13 0.000000 0.166512 0.000000
O O14 0.789941 0.000000 0.000000
O O15 0.221738 0.832544 0.500000
#
# Coordination Sequence:
#
# PCOD9586326 Si02
#       6
#    12  12   4  12   6  12
#     4   9  17  30  49  74 105 142 186 241 305 371
#     4  10  24  43  64  97 135 170 212 257 311 385
#     4  12  24  45  75 108 136 173 202 252 327 387
#     4  11  24  42  62  87 123 168 219 275 330 388
#     4  10  19  36  62  92 127 170 220 264 306 366
#     4  10  20  35  57  85 117 158 210 267 327 388
#
# _framework density 20.611761000000001
#
# number of rings (size 3 to 8) (size 9 to 14) (size 15 to 20)
#    0.000    1.862    1.034    2.586    0.000    7.448 
#    0.000    4.138    0.000    1.241    0.000    0.000 
#    0.000    0.000    0.000    0.000    0.000    0.000 
#
# Total GULP energy -322954.223487 kJ/mol
# GULP energy per Si atom -5568.176267 kJ/mol
# Density = 2.056485 g / cm^3
# Si number density = 20.611761 Si / 1000 Ang^3
#
#
#
# Elastic Constant Matrix: (Units=GPa)
#
#
# Indices 1 2 3 4 5 6 
#
# 1 129.8932 85.8861 27.6789 0.0001 -0.0002 -0.0001
# 2 85.8861 129.8923 27.6787 0.0003 -0.0003 -0.0001
# 3 27.6789 27.6787 72.1131 -0.0001 -0.0001 0.0000
# 4 0.0001 0.0003 -0.0001 42.7783 0.0002 0.0000
# 5 -0.0002 -0.0003 -0.0001 0.0002 42.7782 0.0001
# 6 -0.0001 -0.0001 0.0000 0.0000 0.0001 22.0031
#
#
#
# Elastic Compliance Matrix: (Units=1/GPa)
#
#
# Indices 1 2 3 4 5 6 
#
# 1 0.013932 -0.008792 -0.001973 0.000000 0.000000 0.000000
# 2 -0.008792 0.013932 -0.001973 0.000000 0.000000 0.000000
# 3 -0.001973 -0.001973 0.015382 0.000000 0.000000 0.000000
# 4 0.000000 0.000000 0.000000 0.023376 0.000000 0.000000
# 5 0.000000 0.000000 0.000000 0.000000 0.023376 0.000000
# 6 0.000000 0.000000 0.000000 0.000000 0.000000 0.045448
#
#
# Mechanical properties :
#
#
# Convention : Reuss Voigt Hill
#
# Bulk Modulus (GPa) = 56.27284 68.26510 62.26897
# Shear Modulus (GPa) = 29.96775 34.22226 32.09500
#
# Velocity S-wave (km/s) = 3.81716 4.07913 3.95032
# Velocity P-wave (km/s) = 6.84019 7.44158 7.14721
#
# Compressibility (1/GPa) = 0.01777056
#
# Stress axis : x y z
#
# Youngs Moduli (GPa) = 71.77635 71.77593 65.01220
#
# Poissons Ratio (x) = 0.63103 0.12827
# Poissons Ratio (y) = 0.63103 0.12827
# Poissons Ratio (z) = 0.14162 0.14162
#
# Static dielectric constant tensor:
#      x y z
#    x 1.709610 0.000000 0.000000 
#    y 0.000000 1.709610 0.000000 
#    z 0.000000 0.000000 1.810310 
# 
# From -- ./inp_files/2572.got.cif
#   From: 2010.05.17/outbox.cif.g08.bks.cpg/sg189_2_cif.got.tgz:2572.got - 2010.05.20 12:14:34.
