data_PCOD9586430
_publ_section_title
;
Structure prediction by ZEFSAII (Michael W. Deem and Ramdas Pophale) SiO2 
 PCOD9586430
Probable space group: P -6 2 M
;
_chemical_formula_sum "Si O2"
_cell_formula_units_Z 84
_cell_length_a 14.852450
_cell_length_b 14.852450
_cell_length_c 22.568333
_cell_angle_alpha 90.000000
_cell_angle_beta 90.000000
_cell_angle_gamma 120.000000
_cell_volume 4311.479357
_symmetry_space_group_name_H-M "P -6 2 M"
_symmetry_group_IT_number 189
_symmetry_cell_setting 'hexagonal'
loop_
_space_group_symop_operation_xyz
x,y,z
-x+y,-x,-z
-y,x-y,z
x,y,-z
-x+y,-x,z
-y,x-y,-z
x-y,-y,-z
-x,-x+y,-z
y,x,-z
y,x,z
x-y,-y,z
-x,-x+y,z
loop_
_atom_site_type_symbol
_atom_site_label
_atom_site_fract_x
_atom_site_fract_y
_atom_site_fract_z
Si Si1 0.551602 0.122954 0.364151
Si Si2 0.204479 0.565533 0.000000
Si Si3 0.328954 0.877167 0.879148
Si Si4 0.586184 0.802860 0.393503
Si Si5 0.754191 0.876623 0.292601
Si Si6 0.350657 0.231371 0.824545
Si Si7 0.249576 0.125582 0.500000
Si Si8 0.574300 0.124083 0.230347
O O1 0.658968 0.141752 0.391951
O O2 0.495146 0.175586 0.397574
O O3 0.576127 0.165065 0.296174
O O4 0.472944 0.000000 0.362509
O O5 0.311052 0.560206 0.000000
O O6 0.144640 0.513725 0.059902
O O7 0.204945 0.818052 0.875024
O O8 0.367999 0.837947 0.822882
O O9 0.376718 0.000000 0.872753
O O10 0.651250 0.826245 0.332652
O O11 0.673639 0.843803 0.443803
O O12 0.820384 0.820384 0.304365
O O13 0.719084 0.864546 0.224231
O O14 0.820439 0.000000 0.305483
O O15 0.289218 0.289218 0.845108
O O16 0.452454 0.317141 0.789509
O O17 0.171609 0.171609 0.500000
O O18 0.186069 0.000000 0.500000
O O19 0.496476 0.000000 0.234223
#
# Coordination Sequence:
#
# PCOD9586430 Si02
#       8
#    12   6  12  12  12  12   6  12
#     4  11  22  41  62  91 127 160 206 261 311 370
#     4  10  23  40  56  82 117 158 202 252 306 366
#     4  11  21  37  60  88 120 161 210 254 306 372
#     4  12  25  42  65  93 125 168 212 259 316 376
#     4  11  21  37  60  91 129 169 212 261 318 382
#     4  10  20  36  57  87 125 160 202 257 320 377
#     4  12  27  48  72  98 126 164 209 262 320 386
#     4   9  19  34  56  86 120 158 200 252 307 359
#
# _framework density 19.482872
#
# number of rings (size 3 to 8) (size 9 to 14) (size 15 to 20)
#    0.143    1.143    1.429    5.429    0.000    1.714 
#    0.857    3.929    0.000    0.286    0.000    0.000 
#    0.000    0.000    0.000    0.000    0.000    0.000 
#
# Total GULP energy -469351.133929 kJ/mol
# GULP energy per Si atom -5587.513499 kJ/mol
# Density = 1.943853 g / cm^3
# Si number density = 19.482872 Si / 1000 Ang^3
#
#
#
# Elastic Constant Matrix: (Units=GPa)
#
#
# Indices 1 2 3 4 5 6 
#
# 1 81.0697 10.7165 16.2844 0.0000 0.0000 0.0000
# 2 10.7165 81.0697 16.2844 0.0000 0.0000 0.0000
# 3 16.2844 16.2844 59.2184 0.0000 0.0000 0.0000
# 4 0.0000 0.0000 0.0000 22.5571 0.0000 0.0000
# 5 0.0000 0.0000 0.0000 0.0000 22.5571 0.0000
# 6 0.0000 0.0000 0.0000 0.0000 0.0000 35.1766
#
#
#
# Elastic Compliance Matrix: (Units=1/GPa)
#
#
# Indices 1 2 3 4 5 6 
#
# 1 0.013143 -0.001071 -0.003320 0.000000 0.000000 0.000000
# 2 -0.001071 0.013143 -0.003320 0.000000 0.000000 0.000000
# 3 -0.003320 -0.003320 0.018713 0.000000 0.000000 0.000000
# 4 0.000000 0.000000 0.000000 0.044332 0.000000 0.000000
# 5 0.000000 0.000000 0.000000 0.000000 0.044332 0.000000
# 6 0.000000 0.000000 0.000000 0.000000 0.000000 0.028428
#
#
# Mechanical properties :
#
#
# Convention : Reuss Voigt Hill
#
# Bulk Modulus (GPa) = 33.80812 34.21424 34.01118
# Shear Modulus (GPa) = 26.68496 27.92967 27.30732
#
# Velocity S-wave (km/s) = 3.70491 3.79033 3.74786
# Velocity P-wave (km/s) = 5.97430 6.06257 6.01860
#
# Compressibility (1/GPa) = 0.02957869
#
# Stress axis : x y z
#
# Youngs Moduli (GPa) = 76.08353 76.08353 53.44014
#
# Poissons Ratio (x) = 0.08145 0.17742
# Poissons Ratio (y) = 0.08145 0.17742
# Poissons Ratio (z) = 0.25259 0.25259
#
# Static dielectric constant tensor:
#      x y z
#    x 1.678970 0.000000 0.000000 
#    y 0.000000 1.678970 0.000000 
#    z 0.000000 0.000000 1.692660 
# 
# From -- ./inp_files/3636.got.cif
#   From: 2010.05.17/outbox.cif.g08.bks.cpg/sg189_2_cif.got.tgz:3636.got - 2010.05.20 12:14:34.
