data_PCOD9586247
_publ_section_title
;
Structure prediction by ZEFSAII (Michael W. Deem and Ramdas Pophale) SiO2 
 PCOD9586247
Probable space group: P -6 2 M
;
_chemical_formula_sum "Si O2"
_cell_formula_units_Z 60
_cell_length_a 18.459237
_cell_length_b 18.459237
_cell_length_c 12.016350
_cell_angle_alpha 90.000000
_cell_angle_beta 90.000000
_cell_angle_gamma 120.000000
_cell_volume 3545.934367
_symmetry_space_group_name_H-M "P -6 2 M"
_symmetry_group_IT_number 189
_symmetry_cell_setting 'hexagonal'
loop_
_space_group_symop_operation_xyz
x,y,z
-x+y,-x,-z
-y,x-y,z
x,y,-z
-x+y,-x,z
-y,x-y,-z
x-y,-y,-z
-x,-x+y,-z
y,x,-z
y,x,z
x-y,-y,z
-x,-x+y,z
loop_
_atom_site_type_symbol
_atom_site_label
_atom_site_fract_x
_atom_site_fract_y
_atom_site_fract_z
Si Si1 0.569268 0.467074 0.500000
Si Si2 0.379844 0.898142 0.259906
Si Si3 0.099680 0.765707 0.735735
Si Si4 0.100348 0.334219 0.130640
Si Si5 0.621744 0.101309 0.874520
Si Si6 0.702966 0.101995 0.500000
O O1 0.517149 0.517149 0.500000
O O2 0.623567 0.494290 0.612437
O O3 0.496934 0.368977 0.500000
O O4 0.296216 0.875124 0.193253
O O5 0.435607 0.868938 0.192245
O O6 0.431908 0.000000 0.261637
O O7 0.149571 0.853761 0.797550
O O8 0.117772 0.703281 0.808855
O O9 0.126977 0.758535 0.610921
O O10 0.000000 0.728303 0.735276
O O11 0.000000 0.277781 0.134989
O O12 0.124403 0.346320 0.000000
O O13 0.565143 0.000000 0.879440
O O14 0.639774 0.133277 0.000000
O O15 0.649407 0.000000 0.500000
#
# Coordination Sequence:
#
# PCOD9586247 Si02
#       6
#     6  12  12  12  12   6
#     4   9  14  25  46  73 102 128 154 191 242 301
#     4   9  16  27  45  69  97 127 158 193 243 308
#     4  10  19  32  52  76 101 134 179 226 270 316
#     4  10  21  35  49  71 106 142 176 223 279 325
#     4   9  15  24  43  70  94 118 155 200 243 297
#     4   9  16  29  49  77 107 128 157 211 267 309
#
# _framework density 16.920787000000001
#
# number of rings (size 3 to 8) (size 9 to 14) (size 15 to 20)
#    0.000    2.600    2.000    1.200    0.000    4.400 
#    0.000    1.500    0.000    1.200    0.000    2.800 
#    0.000    0.000    0.000    0.000    0.000    0.000 
#
# Total GULP energy -334223.141930 kJ/mol
# GULP energy per Si atom -5570.385699 kJ/mol
# Density = 1.688227 g / cm^3
# Si number density = 16.920787 Si / 1000 Ang^3
#
#
#
# Elastic Constant Matrix: (Units=GPa)
#
#
# Indices 1 2 3 4 5 6 
#
# 1 37.3267 14.8938 34.5317 0.0000 0.0000 0.0000
# 2 14.8938 37.3267 34.5317 0.0000 0.0000 0.0000
# 3 34.5317 34.5317 177.5801 0.0000 0.0000 0.0000
# 4 0.0000 0.0000 0.0000 20.1911 0.0000 0.0000
# 5 0.0000 0.0000 0.0000 0.0000 20.1911 0.0000
# 6 0.0000 0.0000 0.0000 0.0000 0.0000 11.2165
#
#
#
# Elastic Compliance Matrix: (Units=1/GPa)
#
#
# Indices 1 2 3 4 5 6 
#
# 1 0.035178 -0.009399 -0.005013 0.000000 0.000000 0.000000
# 2 -0.009399 0.035178 -0.005013 0.000000 0.000000 0.000000
# 3 -0.005013 -0.005013 0.007581 0.000000 0.000000 0.000000
# 4 0.000000 0.000000 0.000000 0.049527 0.000000 0.000000
# 5 0.000000 0.000000 0.000000 0.000000 0.049527 0.000000
# 6 0.000000 0.000000 0.000000 0.000000 0.000000 0.089155
#
#
# Mechanical properties :
#
#
# Convention : Reuss Voigt Hill
#
# Bulk Modulus (GPa) = 25.58351 46.68310 36.13331
# Shear Modulus (GPa) = 15.72204 21.53817 18.63010
#
# Velocity S-wave (km/s) = 3.05151 3.57162 3.32176
# Velocity P-wave (km/s) = 5.25053 6.68264 6.00940
#
# Compressibility (1/GPa) = 0.03908767
#
# Stress axis : x y z
#
# Youngs Moduli (GPa) = 28.42657 28.42657 131.91085
#
# Poissons Ratio (x) = 0.26718 0.66127
# Poissons Ratio (y) = 0.26718 0.66127
# Poissons Ratio (z) = 0.14250 0.14250
#
# Static dielectric constant tensor:
#      x y z
#    x 1.581240 0.000000 0.000000 
#    y 0.000000 1.581240 0.000000 
#    z 0.000000 0.000000 1.590630 
# 
# From -- ./inp_files/1958.got.cif
#   From: 2010.05.17/outbox.cif.g08.bks.cpg/sg189_1_cif.got.tgz:1958.got - 2010.05.20 12:14:34.
