data_PCOD9586984
_publ_section_title
;
Structure prediction by ZEFSAII (Michael W. Deem and Ramdas Pophale) SiO2 
 PCOD9586984
Probable space group: P -6 2 C
;
_chemical_formula_sum "Si O2"
_cell_formula_units_Z 60
_cell_length_a 14.541180
_cell_length_b 14.541180
_cell_length_c 15.095653
_cell_angle_alpha 90.000000
_cell_angle_beta 90.000000
_cell_angle_gamma 120.000000
_cell_volume 2764.278761
_symmetry_space_group_name_H-M "P -6 2 C"
_symmetry_group_IT_number 190
_symmetry_cell_setting 'hexagonal'
loop_
_space_group_symop_operation_xyz
x,y,z
-x+y,-x,1/2-z
-y,x-y,z
x,y,1/2-z
-x+y,-x,z
-y,x-y,1/2-z
x-y,-y,-z
-x,-x+y,-z
y,x,-z
y,x,1/2+z
x-y,-y,1/2+z
-x,-x+y,1/2+z
loop_
_atom_site_type_symbol
_atom_site_label
_atom_site_fract_x
_atom_site_fract_y
_atom_site_fract_z
Si Si1 0.047507 0.208631 0.400326
Si Si2 0.172689 0.232153 0.849817
Si Si3 0.452700 0.234025 0.435647
Si Si4 0.457464 0.557729 0.850074
Si Si5 0.573823 0.655196 0.082251
O O1 0.158661 0.213923 0.390975
O O2 0.062819 0.320915 0.368671
O O3 0.000000 0.182369 0.500000
O O4 0.802797 0.134331 0.411900
O O5 0.214443 0.267131 0.750000
O O6 0.045595 0.160632 0.845971
O O7 0.511945 0.359461 0.418355
O O8 0.487223 0.171723 0.366362
O O9 0.471099 0.194401 0.531665
O O10 0.417086 0.532143 0.750000
O O11 0.544061 0.519040 0.864999
O O12 0.617350 0.617350 0.000000
#
# Coordination Sequence:
#
# PCOD9586984 Si02
#       5
#    12  12  12  12  12
#     4  11  21  39  58  86 129 177 206 258 319 399
#     4  12  23  37  60  94 130 168 216 263 325 399
#     4  11  23  42  64 100 132 173 224 284 343 408
#     4  11  21  39  70 100 134 176 226 289 352 404
#     4   9  20  41  60  92 130 172 213 269 342 406
#
# _framework density 21.705480000000001
#
# number of rings (size 3 to 8) (size 9 to 14) (size 15 to 20)
#    0.000    1.200    6.000    3.800    0.000    0.800 
#   10.800    0.000    0.000    0.000    0.000    0.000 
#    0.000    0.000    0.000    0.000    0.000    0.000 
#
# Total GULP energy -334328.975970 kJ/mol
# GULP energy per Si atom -5572.149600 kJ/mol
# Density = 2.165608 g / cm^3
# Si number density = 21.705480 Si / 1000 Ang^3
#
#
#
# Elastic Constant Matrix: (Units=GPa)
#
#
# Indices 1 2 3 4 5 6 
#
# 1 108.9211 41.1020 19.7201 0.0000 0.0000 0.0000
# 2 41.1020 108.9211 19.7201 0.0000 0.0000 0.0000
# 3 19.7201 19.7201 63.8981 0.0000 0.0000 0.0000
# 4 0.0000 0.0000 0.0000 -6.0093 0.0000 0.0000
# 5 0.0000 0.0000 0.0000 0.0000 -6.0093 0.0000
# 6 0.0000 0.0000 0.0000 0.0000 0.0000 33.9095
#
#
#
# Elastic Compliance Matrix: (Units=1/GPa)
#
#
# Indices 1 2 3 4 5 6 
#
# 1 0.011000 -0.003745 -0.002239 0.000000 0.000000 0.000000
# 2 -0.003745 0.011000 -0.002239 0.000000 0.000000 0.000000
# 3 -0.002239 -0.002239 0.017032 0.000000 0.000000 0.000000
# 4 0.000000 0.000000 0.000000 -0.166408 0.000000 0.000000
# 5 0.000000 0.000000 0.000000 0.000000 -0.166408 0.000000
# 6 0.000000 0.000000 0.000000 0.000000 0.000000 0.029490
#
#
# Mechanical properties :
#
#
# Convention : Reuss Voigt Hill
#
# Bulk Modulus (GPa) = 44.27704 49.20274 46.73989
# Shear Modulus (GPa) = -20.80551 17.79138 -1.50706
#
# Velocity S-wave (km/s) = -3.09938 2.86610 -0.83417
# Velocity P-wave (km/s) = 2.76316 5.80261 4.54452
#
# Compressibility (1/GPa) = 0.02258507
#
# Stress axis : x y z
#
# Youngs Moduli (GPa) = 90.91189 90.91189 58.71384
#
# Poissons Ratio (x) = 0.34051 0.13145
# Poissons Ratio (y) = 0.34051 0.13145
# Poissons Ratio (z) = 0.20353 0.20353
#
# Static dielectric constant tensor:
#      x y z
#    x 1.846010 0.000000 0.000000 
#    y 0.000000 1.846010 0.000000 
#    z 0.000000 0.000000 1.903690 
# 
# From -- ./inp_files/2802.got.cif
#   From: 2010.05.17/outbox.cif.g08.bks.cpg/sg190_2_cif.got.tgz:2802.got - 2010.05.20 12:16:56.
