data_PCOD9586843
_publ_section_title
;
Structure prediction by ZEFSAII (Michael W. Deem and Ramdas Pophale) SiO2 
 PCOD9586843
Probable space group: P -6 2 C
;
_chemical_formula_sum "Si O2"
_cell_formula_units_Z 64
_cell_length_a 13.078839
_cell_length_b 13.078839
_cell_length_c 17.890346
_cell_angle_alpha 90.000000
_cell_angle_beta 90.000000
_cell_angle_gamma 120.000000
_cell_volume 2650.255588
_symmetry_space_group_name_H-M "P -6 2 C"
_symmetry_group_IT_number 190
_symmetry_cell_setting 'hexagonal'
loop_
_space_group_symop_operation_xyz
x,y,z
-x+y,-x,1/2-z
-y,x-y,z
x,y,1/2-z
-x+y,-x,z
-y,x-y,1/2-z
x-y,-y,-z
-x,-x+y,-z
y,x,-z
y,x,1/2+z
x-y,-y,1/2+z
-x,-x+y,1/2+z
loop_
_atom_site_type_symbol
_atom_site_label
_atom_site_fract_x
_atom_site_fract_y
_atom_site_fract_z
Si Si1 0.812921 0.774055 0.664697
Si Si2 0.621977 0.528537 0.338175
Si Si3 0.237789 0.452870 0.960884
Si Si4 0.333335 0.666668 0.163538
Si Si5 0.977991 0.805962 0.080360
Si Si6 0.884853 0.416058 0.933634
O O1 0.848322 0.782945 0.750000
O O2 0.672307 0.690164 0.660498
O O3 0.896820 0.741867 0.617647
O O4 0.837909 0.899570 0.633118
O O5 0.599944 0.492313 0.250000
O O6 0.708323 0.495120 0.384200
O O7 0.511119 0.501924 0.392147
O O8 0.228817 0.331615 0.937114
O O9 0.354035 0.523847 0.011797
O O10 0.130665 0.438598 0.014426
O O11 0.333334 0.666668 0.250000
O O12 0.432033 0.640474 0.132638
O O13 0.000000 0.865082 0.000000
#
# Coordination Sequence:
#
# PCOD9586843 Si02
#       6
#    12  12  12   4  12  12
#     4  10  21  37  59  89 128 168 206 254 319 386
#     4  10  21  40  66  94 127 170 217 273 336 399
#     4  10  23  40  63  95 132 171 221 274 327 390
#     4   9  18  33  60  99 130 158 205 267 333 402
#     4  11  21  35  58  93 130 167 207 252 306 385
#     4  10  20  39  65  92 128 174 218 272 333 392
#
# _framework density 24.148612
#
# number of rings (size 3 to 8) (size 9 to 14) (size 15 to 20)
#    0.000    1.875    0.000    4.125    0.000    5.250 
#    0.000    4.688    0.000   14.625    0.000    0.000 
#    0.000    0.000    0.000    0.000    0.000    0.000 
#
# Total GULP energy -357557.676154 kJ/mol
# GULP energy per Si atom -5586.838690 kJ/mol
# Density = 2.409365 g / cm^3
# Si number density = 24.148612 Si / 1000 Ang^3
#
#
#
# Elastic Constant Matrix: (Units=GPa)
#
#
# Indices 1 2 3 4 5 6 
#
# 1 78.9853 31.2690 47.5502 -0.0001 -0.0001 -0.0001
# 2 31.2690 78.9844 47.5494 0.0000 0.0000 -0.0002
# 3 47.5502 47.5494 202.0310 -0.0001 -0.0001 -0.0003
# 4 -0.0001 0.0000 -0.0001 34.8933 -0.0001 0.0000
# 5 -0.0001 0.0000 -0.0001 -0.0001 34.8934 0.0000
# 6 -0.0001 -0.0002 -0.0003 0.0000 0.0000 23.8580
#
#
#
# Elastic Compliance Matrix: (Units=1/GPa)
#
#
# Indices 1 2 3 4 5 6 
#
# 1 0.016169 -0.004789 -0.002678 0.000000 0.000000 0.000000
# 2 -0.004789 0.016169 -0.002678 0.000000 0.000000 0.000000
# 3 -0.002678 -0.002678 0.006211 0.000000 0.000000 0.000000
# 4 0.000000 0.000000 0.000000 0.028659 0.000000 0.000000
# 5 0.000000 0.000000 0.000000 0.000000 0.028659 0.000000
# 6 0.000000 0.000000 0.000000 0.000000 0.000000 0.041915
#
#
# Mechanical properties :
#
#
# Convention : Reuss Voigt Hill
#
# Bulk Modulus (GPa) = 54.77262 68.08197 61.42730
# Shear Modulus (GPa) = 30.45862 34.30440 32.38151
#
# Velocity S-wave (km/s) = 3.55533 3.77311 3.66584
# Velocity P-wave (km/s) = 6.29163 6.87284 6.58865
#
# Compressibility (1/GPa) = 0.01825730
#
# Stress axis : x y z
#
# Youngs Moduli (GPa) = 61.84761 61.84714 161.01686
#
# Poissons Ratio (x) = 0.29616 0.43128
# Poissons Ratio (y) = 0.29616 0.43127
# Poissons Ratio (z) = 0.16566 0.16565
#
# Static dielectric constant tensor:
#      x y z
#    x 1.981420 0.000000 0.000000 
#    y 0.000000 1.981420 0.000000 
#    z 0.000000 0.000000 1.899010 
# 
# From -- ./inp_files/3655.got.cif
#   From: 2010.05.17/outbox.cif.g08.bks.cpg/sg190_2_cif.got.tgz:3655.got - 2010.05.20 12:16:56.
