data_PCOD9586257
_publ_section_title
;
Structure prediction by ZEFSAII (Michael W. Deem and Ramdas Pophale) SiO2 
 PCOD9586257
Probable space group: P -6 2 M
;
_chemical_formula_sum "Si O2"
_cell_formula_units_Z 96
_cell_length_a 15.921656
_cell_length_b 15.921656
_cell_length_c 25.147669
_cell_angle_alpha 90.000000
_cell_angle_beta 90.000000
_cell_angle_gamma 120.000000
_cell_volume 5520.835919
_symmetry_space_group_name_H-M "P -6 2 M"
_symmetry_group_IT_number 189
_symmetry_cell_setting 'hexagonal'
loop_
_space_group_symop_operation_xyz
x,y,z
-x+y,-x,-z
-y,x-y,z
x,y,-z
-x+y,-x,z
-y,x-y,-z
x-y,-y,-z
-x,-x+y,-z
y,x,-z
y,x,z
x-y,-y,z
-x,-x+y,z
loop_
_atom_site_type_symbol
_atom_site_label
_atom_site_fract_x
_atom_site_fract_y
_atom_site_fract_z
Si Si1 0.113203 0.886723 0.256480
Si Si2 0.446394 0.888271 0.435299
Si Si3 0.665227 0.226368 0.156929
Si Si4 0.440814 0.551038 0.061093
Si Si5 0.561493 0.778410 0.564299
Si Si6 0.768234 0.884650 0.620387
Si Si7 0.886460 0.649004 0.160501
Si Si8 0.244394 0.885735 0.061047
O O1 0.127073 0.865179 0.317370
O O2 0.135378 0.831985 0.210670
O O3 0.000000 0.853292 0.251870
O O4 0.177495 0.000000 0.248131
O O5 0.446090 0.887737 0.500000
O O6 0.502883 0.832471 0.418752
O O7 0.334151 0.835579 0.418706
O O8 0.503616 0.000000 0.417913
O O9 0.756462 0.332251 0.170001
O O10 0.643130 0.194593 0.095281
O O11 0.684857 0.144973 0.178741
O O12 0.474379 0.474379 0.079561
O O13 0.537574 0.656179 0.064229
O O14 0.411832 0.529873 0.000000
O O15 0.565427 0.780256 0.500000
O O16 0.670474 0.832679 0.586196
O O17 0.833307 0.833307 0.612729
O O18 0.831361 0.000000 0.608988
O O19 0.826288 0.647790 0.108363
O O20 0.000000 0.709781 0.148598
O O21 0.278899 0.000000 0.067704
O O22 0.207041 0.857447 0.000000
#
# Coordination Sequence:
#
# PCOD9586257 Si02
#       8
#    12  12  12  12  12  12  12  12
#     4   9  19  36  59  82 105 136 177 223 267 316
#     4   9  17  29  46  70 102 142 186 226 264 311
#     4  10  20  33  49  68  99 135 168 202 248 305
#     4   9  17  30  48  70  97 131 170 207 244 298
#     4  10  19  32  53  80 112 149 189 232 276 319
#     4  10  20  35  56  82 114 148 184 225 276 338
#     4  11  21  34  53  78 103 130 171 220 263 306
#     4   9  17  31  50  71  97 128 161 202 257 316
#
# _framework density 17.388670999999999
#
# number of rings (size 3 to 8) (size 9 to 14) (size 15 to 20)
#    0.250    2.125    1.250    2.750    0.000    4.750 
#    0.000    0.000    2.750    1.000    0.000    0.000 
#    0.000    0.000    0.000    0.000    0.000    0.000 
#
# Total GULP energy -534566.706513 kJ/mol
# GULP energy per Si atom -5568.403193 kJ/mol
# Density = 1.734909 g / cm^3
# Si number density = 17.388671 Si / 1000 Ang^3
#
#
#
# Elastic Constant Matrix: (Units=GPa)
#
#
# Indices 1 2 3 4 5 6 
#
# 1 73.7889 74.6315 40.4754 0.0000 0.0000 0.0000
# 2 74.6315 73.7889 40.4754 0.0000 0.0000 0.0000
# 3 40.4754 40.4754 34.4223 0.0000 0.0000 0.0000
# 4 0.0000 0.0000 0.0000 20.4730 0.0000 0.0000
# 5 0.0000 0.0000 0.0000 0.0000 20.4730 0.0000
# 6 0.0000 0.0000 0.0000 0.0000 0.0000 -0.4213
#
#
#
# Elastic Compliance Matrix: (Units=1/GPa)
#
#
# Indices 1 2 3 4 5 6 
#
# 1 -0.583997 0.602781 -0.022088 0.000000 0.000000 0.000000
# 2 0.602781 -0.583997 -0.022088 0.000000 0.000000 0.000000
# 3 -0.022088 -0.022088 0.080995 0.000000 0.000000 0.000000
# 4 0.000000 0.000000 0.000000 0.048845 0.000000 0.000000
# 5 0.000000 0.000000 0.000000 0.000000 0.048845 0.000000
# 6 0.000000 0.000000 0.000000 0.000000 0.000000 -2.373556
#
#
# Mechanical properties :
#
#
# Convention : Reuss Voigt Hill
#
# Bulk Modulus (GPa) = 33.09870 54.79608 43.94739
# Shear Modulus (GPa) = -1.11857 9.86614 4.37379
#
# Velocity S-wave (km/s) = -0.80291 2.38458 1.58769
# Velocity P-wave (km/s) = 4.26807 6.25800 5.35626
#
# Compressibility (1/GPa) = 0.03021267
#
# Stress axis : x y z
#
# Youngs Moduli (GPa) = -1.71234 -1.71234 12.34642
#
# Poissons Ratio (x) = 1.03217 0.27271
# Poissons Ratio (y) = 1.03217 0.27271
# Poissons Ratio (z) = -0.03782 -0.03782
#
# Static dielectric constant tensor:
#      x y z
#    x 1.605660 0.000000 0.000000 
#    y 0.000000 1.605660 0.000000 
#    z 0.000000 0.000000 1.578160 
# 
# From -- ./inp_files/3706.got.cif
#   From: 2010.05.17/outbox.cif.g08.bks.cpg/sg189_2_cif.got.tgz:3706.got - 2010.05.20 12:14:34.
