data_PCOD9586923
_publ_section_title
;
Structure prediction by ZEFSAII (Michael W. Deem and Ramdas Pophale) SiO2 
 PCOD9586923
Probable space group: P -6 2 C
;
_chemical_formula_sum "Si O2"
_cell_formula_units_Z 74
_cell_length_a 14.271526
_cell_length_b 14.271526
_cell_length_c 19.514133
_cell_angle_alpha 90.000000
_cell_angle_beta 90.000000
_cell_angle_gamma 120.000000
_cell_volume 3442.078086
_symmetry_space_group_name_H-M "P -6 2 C"
_symmetry_group_IT_number 190
_symmetry_cell_setting 'hexagonal'
loop_
_space_group_symop_operation_xyz
x,y,z
-x+y,-x,1/2-z
-y,x-y,z
x,y,1/2-z
-x+y,-x,z
-y,x-y,1/2-z
x-y,-y,-z
-x,-x+y,-z
y,x,-z
y,x,1/2+z
x-y,-y,1/2+z
-x,-x+y,1/2+z
loop_
_atom_site_type_symbol
_atom_site_label
_atom_site_fract_x
_atom_site_fract_y
_atom_site_fract_z
Si Si1 0.165882 0.448762 0.078252
Si Si2 0.763995 0.569140 0.173176
Si Si3 0.666668 0.333334 0.505468
Si Si4 0.666666 0.333333 0.344412
Si Si5 0.226925 0.000000 0.000000
Si Si6 0.738230 0.935010 0.930750
Si Si7 0.520361 0.524268 0.329391
Si Si8 0.277232 0.354841 0.329901
O O1 0.248253 0.546592 0.030916
O O2 0.091227 0.484408 0.118005
O O3 0.235947 0.427717 0.133976
O O4 0.086960 0.337278 0.038221
O O5 0.798994 0.621286 0.250000
O O6 0.753601 0.452562 0.178420
O O7 0.836789 0.634128 0.108300
O O8 0.639635 0.539715 0.161051
O O9 0.666668 0.333334 0.425027
O O10 0.197573 0.072333 0.048116
O O11 0.780439 0.023555 0.871353
O O12 0.735410 0.000000 0.000000
O O13 0.516804 0.554078 0.250000
O O14 0.407798 0.411808 0.339189
O O15 0.253612 0.342339 0.250000
#
# Coordination Sequence:
#
# PCOD9586923 Si02
#       8
#    12  12   4   4   6  12  12  12
#     4  12  23  46  68 104 149 189 240 289 367 445
#     4  11  23  43  70 101 142 188 238 300 368 438
#     4  12  27  40  71 118 150 193 236 295 369 460
#     4  12  25  40  63 103 148 187 236 292 352 445
#     4  12  26  48  70 102 136 198 244 306 366 434
#     4  12  25  46  72 101 138 182 245 305 371 431
#     4  10  22  40  67 100 140 187 232 291 361 441
#     4  11  24  44  73 109 145 188 240 299 370 448
#
# _framework density 21.498639000000001
#
# number of rings (size 3 to 8) (size 9 to 14) (size 15 to 20)
#    0.000    0.649    4.865    3.405    0.000    1.297 
#    1.946    0.000    0.000    0.000    0.000    0.000 
#    0.000    0.000    0.000    0.000    0.000    0.000 
#
# Total GULP energy -413029.641110 kJ/mol
# GULP energy per Si atom -5581.481637 kJ/mol
# Density = 2.144971 g / cm^3
# Si number density = 21.498639 Si / 1000 Ang^3
#
#
#
# Elastic Constant Matrix: (Units=GPa)
#
#
# Indices 1 2 3 4 5 6 
#
# 1 84.8093 21.2214 63.6890 0.0004 0.0001 -0.0001
# 2 21.2214 84.8096 63.6887 -0.0024 -0.0013 0.0001
# 3 63.6890 63.6887 165.2819 -0.0010 0.0012 -0.0001
# 4 0.0004 -0.0024 -0.0010 -29.5207 -0.0017 0.0007
# 5 0.0001 -0.0013 0.0012 -0.0017 -29.5356 -0.0014
# 6 -0.0001 0.0001 -0.0001 0.0007 -0.0014 31.7940
#
#
#
# Elastic Compliance Matrix: (Units=1/GPa)
#
#
# Indices 1 2 3 4 5 6 
#
# 1 0.016643 0.000917 -0.006766 0.000000 0.000000 0.000000
# 2 0.000917 0.016643 -0.006766 -0.000001 -0.000001 0.000000
# 3 -0.006766 -0.006766 0.011265 0.000000 0.000001 0.000000
# 4 0.000000 -0.000001 0.000000 -0.033875 0.000002 0.000001
# 5 0.000000 -0.000001 0.000001 0.000002 -0.033857 -0.000001
# 6 0.000000 0.000000 0.000000 0.000001 -0.000001 0.031452
#
#
# Mechanical properties :
#
#
# Convention : Reuss Voigt Hill
#
# Bulk Modulus (GPa) = 51.76245 70.23325 60.99785
# Shear Modulus (GPa) = 125.17714 6.96765 66.07240
#
# Velocity S-wave (km/s) = 7.63885 1.80222 5.54978
# Velocity P-wave (km/s) = 10.09614 6.08854 8.33674
#
# Compressibility (1/GPa) = 0.01931902
#
# Stress axis : x y z
#
# Youngs Moduli (GPa) = 60.08474 60.08527 88.77078
#
# Poissons Ratio (x) = -0.05509 0.60067
# Poissons Ratio (y) = -0.05509 0.60066
# Poissons Ratio (z) = 0.40656 0.40656
#
# Static dielectric constant tensor:
#      x y z
#    x 1.817820 0.000000 0.000000 
#    y 0.000000 1.817820 0.000000 
#    z 0.000000 0.000000 1.764750 
# 
# From -- ./inp_files/4419.got.cif
#   From: 2010.05.17/outbox.cif.g08.bks.cpg/sg190_3_cif.got.tgz:4419.got - 2010.05.20 12:16:56.
