data_PCOD9586617
_publ_section_title
;
Structure prediction by ZEFSAII (Michael W. Deem and Ramdas Pophale) SiO2 
 PCOD9586617
Probable space group: P -6 2 C
;
_chemical_formula_sum "Si O2"
_cell_formula_units_Z 36
_cell_length_a 19.009003
_cell_length_b 19.009003
_cell_length_c 5.505528
_cell_angle_alpha 90.000000
_cell_angle_beta 90.000000
_cell_angle_gamma 120.000000
_cell_volume 1722.853248
_symmetry_space_group_name_H-M "P -6 2 C"
_symmetry_group_IT_number 190
_symmetry_cell_setting 'hexagonal'
loop_
_space_group_symop_operation_xyz
x,y,z
-x+y,-x,1/2-z
-y,x-y,z
x,y,1/2-z
-x+y,-x,z
-y,x-y,1/2-z
x-y,-y,-z
-x,-x+y,-z
y,x,-z
y,x,1/2+z
x-y,-y,1/2+z
-x,-x+y,1/2+z
loop_
_atom_site_type_symbol
_atom_site_label
_atom_site_fract_x
_atom_site_fract_y
_atom_site_fract_z
Si Si1 0.494337 0.102212 0.250000
Si Si2 0.347410 0.918354 0.250000
Si Si3 0.099467 0.801591 0.750000
Si Si4 0.385458 0.434960 0.750000
Si Si5 0.822020 0.713459 0.750000
Si Si6 0.971748 0.867308 0.750000
O O1 0.472641 0.128481 0.503320
O O2 0.584302 0.114947 0.250000
O O3 0.431251 0.004037 0.250000
O O4 0.274477 0.938163 0.250000
O O5 0.076402 0.708668 0.750000
O O6 0.148528 0.841173 0.501782
O O7 0.021465 0.815786 0.750000
O O8 0.420356 0.420356 0.500000
O O9 0.874651 0.810697 0.750000
O O10 0.000000 0.913053 0.500000
#
# Coordination Sequence:
#
# PCOD9586617 Si02
#       6
#     6   6   6   6   6   6
#     4  10  19  32  45  69  87 122 149 205 230 273
#     4  10  18  32  45  62  95 111 157 184 228 282
#     4  10  19  28  43  69  94 114 143 184 227 296
#     4  12  18  30  48  68  98 118 147 194 262 281
#     4  10  18  29  43  63  91 122 138 181 225 275
#     4   8  14  25  36  57  85 111 132 164 204 253
#
# _framework density 20.895571
#
# number of rings (size 3 to 8) (size 9 to 14) (size 15 to 20)
#    0.000    2.000    3.333    5.000    0.000    0.000 
#    0.000    0.000    0.000    0.000    0.000    0.000 
#   33.333    0.000    0.000    0.000    0.000    0.000 
#
# Total GULP energy -200735.367864 kJ/mol
# GULP energy per Si atom -5575.982441 kJ/mol
# Density = 2.084801 g / cm^3
# Si number density = 20.895571 Si / 1000 Ang^3
#
#
#
# Elastic Constant Matrix: (Units=GPa)
#
#
# Indices 1 2 3 4 5 6 
#
# 1 69.0811 24.8914 18.2288 0.0000 0.0000 0.0000
# 2 24.8914 69.0811 18.2288 0.0000 0.0000 0.0000
# 3 18.2288 18.2288 235.4531 0.0000 0.0000 0.0000
# 4 0.0000 0.0000 0.0000 17.7182 0.0000 0.0000
# 5 0.0000 0.0000 0.0000 0.0000 17.7182 0.0000
# 6 0.0000 0.0000 0.0000 0.0000 0.0000 22.0949
#
#
#
# Elastic Compliance Matrix: (Units=1/GPa)
#
#
# Indices 1 2 3 4 5 6 
#
# 1 0.016800 -0.005829 -0.000849 0.000000 0.000000 0.000000
# 2 -0.005829 0.016800 -0.000849 0.000000 0.000000 0.000000
# 3 -0.000849 -0.000849 0.004379 0.000000 0.000000 0.000000
# 4 0.000000 0.000000 0.000000 0.056439 0.000000 0.000000
# 5 0.000000 0.000000 0.000000 0.000000 0.056439 0.000000
# 6 0.000000 0.000000 0.000000 0.000000 0.000000 0.045259
#
#
# Mechanical properties :
#
#
# Convention : Reuss Voigt Hill
#
# Bulk Modulus (GPa) = 43.62425 55.14593 49.38509
# Shear Modulus (GPa) = 22.85044 32.32401 27.58722
#
# Velocity S-wave (km/s) = 3.31048 3.93737 3.63746
# Velocity P-wave (km/s) = 5.96112 6.86433 6.42861
#
# Compressibility (1/GPa) = 0.02292303
#
# Stress axis : x y z
#
# Youngs Moduli (GPa) = 59.52272 59.52272 228.38104
#
# Poissons Ratio (x) = 0.34698 0.19398
# Poissons Ratio (y) = 0.34698 0.19398
# Poissons Ratio (z) = 0.05056 0.05056
#
# Static dielectric constant tensor:
#      x y z
#    x 1.771060 0.000000 0.000000 
#    y 0.000000 1.771060 0.000000 
#    z 0.000000 0.000000 1.868700 
# 
# From -- ./inp_files/121.got.cif
#   From: 2010.05.17/outbox.cif.g08.bks.cpg/sg190_1_cif.got.tgz:121.got - 2010.05.20 12:16:56.
