data_PCOD9586596
_publ_section_title
;
Structure prediction by ZEFSAII (Michael W. Deem and Ramdas Pophale) SiO2 
 PCOD9586596
Probable space group: P -6 2 M
;
_chemical_formula_sum "Si O2"
_cell_formula_units_Z 60
_cell_length_a 21.000000
_cell_length_b 21.000000
_cell_length_c 9.000000
_cell_angle_alpha 90.000000
_cell_angle_beta 90.000000
_cell_angle_gamma 120.000000
_cell_volume 3437.254828
_symmetry_space_group_name_H-M "P -6 2 M"
_symmetry_group_IT_number 189
_symmetry_cell_setting 'hexagonal'
loop_
_space_group_symop_operation_xyz
x,y,z
-x+y,-x,-z
-y,x-y,z
x,y,-z
-x+y,-x,z
-y,x-y,-z
x-y,-y,-z
-x,-x+y,-z
y,x,-z
y,x,z
x-y,-y,z
-x,-x+y,z
loop_
_atom_site_type_symbol
_atom_site_label
_atom_site_fract_x
_atom_site_fract_y
_atom_site_fract_z
Si Si1 0.913545 0.550689 0.323413
Si Si2 0.296783 0.916268 0.321494
Si Si3 0.205207 0.205207 0.170797
Si Si4 0.000000 0.917203 0.663604
Si Si5 0.910487 0.421322 0.169724
Si Si6 0.200106 0.337997 0.321612
O O1 0.910048 0.537646 0.500000
O O2 0.886123 0.475396 0.238446
O O3 0.868942 0.591164 0.285703
O O4 0.000000 0.605534 0.287841
O O5 0.297770 0.916099 0.500000
O O6 0.348849 0.886686 0.263385
O O7 0.214411 0.866422 0.269828
O O8 0.330934 0.000000 0.270459
O O9 0.130573 0.130573 0.203209
O O10 0.197913 0.268795 0.249123
O O11 0.221449 0.221449 0.000000
O O12 0.000000 0.885394 0.500000
O O13 0.931397 0.931397 0.668446
O O14 0.000000 0.467494 0.177287
O O15 0.888766 0.403771 0.000000
O O16 0.197018 0.329513 0.500000
#
# Coordination Sequence:
#
# PCOD9586596 Si02
#       6
#    12  12   6   6  12  12
#     4   9  16  29  50  73  96 128 167 212 255 296
#     4   9  18  33  53  77 102 134 177 222 263 310
#     4  12  24  34  50  78 112 143 172 223 284 334
#     4   8  18  38  60  74  88 127 186 235 274 326
#     4   9  17  29  48  73 101 128 155 197 250 313
#     4  10  20  35  53  74 105 142 183 226 265 312
#
# _framework density 17.45579
#
# number of rings (size 3 to 8) (size 9 to 14) (size 15 to 20)
#    0.200    2.400    1.000    1.500    0.000    5.200 
#    0.000    2.000    0.000    0.800    0.000    2.800 
#    0.000    0.000    0.000    0.000    0.000    0.000 
#
# Total GULP energy -334096.428159 kJ/mol
# GULP energy per Si atom -5568.273803 kJ/mol
# Density = 1.741606 g / cm^3
# Si number density = 17.455790 Si / 1000 Ang^3
#
#
#
# Elastic Constant Matrix: (Units=GPa)
#
#
# Indices 1 2 3 4 5 6 
#
# 1 56.8835 75.7665 37.0912 0.0000 0.0000 0.0000
# 2 75.7665 56.8835 37.0912 0.0000 0.0000 0.0000
# 3 37.0912 37.0912 -6.6618 0.0000 0.0000 0.0000
# 4 0.0000 0.0000 0.0000 288.7367 0.0000 0.0000
# 5 0.0000 0.0000 0.0000 0.0000 288.7367 0.0000
# 6 0.0000 0.0000 0.0000 0.0000 0.0000 -9.4415
#
#
#
# Elastic Compliance Matrix: (Units=1/GPa)
#
#
# Indices 1 2 3 4 5 6 
#
# 1 -0.025563 0.027395 0.010203 0.000000 0.000000 0.000000
# 2 0.027395 -0.025563 0.010203 0.000000 0.000000 0.000000
# 3 0.010203 0.010203 -0.036490 0.000000 0.000000 0.000000
# 4 0.000000 0.000000 0.000000 0.003463 0.000000 0.000000
# 5 0.000000 0.000000 0.000000 0.000000 0.003463 0.000000
# 6 0.000000 0.000000 0.000000 0.000000 0.000000 -0.105915
#
#
# Mechanical properties :
#
#
# Convention : Reuss Voigt Hill
#
# Bulk Modulus (GPa) = 125.18656 45.22255 85.20456
# Shear Modulus (GPa) = -17.88621 110.75015 46.43197
#
# Velocity S-wave (km/s) = -3.20450 7.97395 5.16309
# Velocity P-wave (km/s) = 7.62760 10.52338 9.19026
#
# Compressibility (1/GPa) = 0.00798808
#
# Stress axis : x y z
#
# Youngs Moduli (GPa) = -39.11974 -39.11974 -27.40444
#
# Poissons Ratio (x) = 1.07169 0.27962
# Poissons Ratio (y) = 1.07169 0.27962
# Poissons Ratio (z) = 0.39915 0.39915
#
# Static dielectric constant tensor:
#      x y z
#    x 1.598340 0.000000 0.000000 
#    y 0.000000 1.598340 0.000000 
#    z 0.000000 0.000000 1.580510 
# 
# From -- ./inp_files/989.got.cif
#   From: 2010.05.17/outbox.ucp.g08.bks.cvg/sg189_1_cif.got.tgz:989.got - 2010.06.11 15:22:13.
