data_PCOD9586524
_publ_section_title
;
Structure prediction by ZEFSAII (Michael W. Deem and Ramdas Pophale) SiO2 
 PCOD9586524
Probable space group: P -6 2 M
;
_chemical_formula_sum "Si O2"
_cell_formula_units_Z 66
_cell_length_a 21.789894
_cell_length_b 21.789894
_cell_length_c 8.045780
_cell_angle_alpha 90.000000
_cell_angle_beta 90.000000
_cell_angle_gamma 120.000000
_cell_volume 3308.331500
_symmetry_space_group_name_H-M "P -6 2 M"
_symmetry_group_IT_number 189
_symmetry_cell_setting 'hexagonal'
loop_
_space_group_symop_operation_xyz
x,y,z
-x+y,-x,-z
-y,x-y,z
x,y,-z
-x+y,-x,z
-y,x-y,-z
x-y,-y,-z
-x,-x+y,-z
y,x,-z
y,x,z
x-y,-y,z
-x,-x+y,z
loop_
_atom_site_type_symbol
_atom_site_label
_atom_site_fract_x
_atom_site_fract_y
_atom_site_fract_z
Si Si1 0.082007 0.705784 0.803765
Si Si2 0.166999 0.084391 0.000000
Si Si3 0.811190 0.465203 0.307633
Si Si4 0.371319 0.080185 0.799242
Si Si5 0.133211 0.861900 0.686432
Si Si6 0.679422 0.474312 0.194390
O O1 0.132214 0.673967 0.762582
O O2 0.106360 0.778634 0.707449
O O3 0.000000 0.651115 0.767078
O O4 0.088486 0.722963 0.000000
O O5 0.214993 0.115242 0.165128
O O6 0.109517 0.109517 0.000000
O O7 0.131330 0.000000 0.000000
O O8 0.826495 0.461898 0.500000
O O9 0.734366 0.458248 0.288528
O O10 0.811363 0.400153 0.217027
O O11 0.315369 0.097778 0.715774
O O12 0.450632 0.139078 0.751304
O O13 0.350604 0.000000 0.760353
O O14 0.365093 0.084838 0.000000
O O15 0.116879 0.875781 0.500000
O O16 0.698973 0.480913 0.000000
#
# Coordination Sequence:
#
# PCOD9586524 Si02
#       6
#    12   6  12  12  12  12
#     4  11  23  42  68  97 130 170 219 273 328 395
#     4  12  27  48  72 102 140 184 232 284 342 410
#     4  12  25  41  62  92 131 171 218 274 333 394
#     4  10  21  40  67  97 129 166 215 274 330 393
#     4  12  24  42  70 103 137 176 225 278 337 406
#     4  11  23  41  64  89 124 172 223 268 323 392
#
# _framework density 19.949632999999999
#
# number of rings (size 3 to 8) (size 9 to 14) (size 15 to 20)
#    0.000    0.727    3.636    4.273    0.000    5.455 
#    0.000    1.818    0.000    1.091    0.000    0.000 
#    0.000    0.000    0.000    0.000    0.000    0.000 
#
# Total GULP energy -369340.211560 kJ/mol
# GULP energy per Si atom -5596.063812 kJ/mol
# Density = 1.990423 g / cm^3
# Si number density = 19.949633 Si / 1000 Ang^3
#
#
#
# Elastic Constant Matrix: (Units=GPa)
#
#
# Indices 1 2 3 4 5 6 
#
# 1 75.6890 14.8862 13.6418 0.0000 0.0000 0.0000
# 2 14.8862 75.6890 13.6418 0.0000 0.0000 0.0000
# 3 13.6418 13.6418 73.1545 0.0000 0.0000 0.0000
# 4 0.0000 0.0000 0.0000 -31.5571 0.0000 0.0000
# 5 0.0000 0.0000 0.0000 0.0000 -31.5571 0.0000
# 6 0.0000 0.0000 0.0000 0.0000 0.0000 30.4014
#
#
#
# Elastic Compliance Matrix: (Units=1/GPa)
#
#
# Indices 1 2 3 4 5 6 
#
# 1 0.014072 -0.002374 -0.002181 0.000000 0.000000 0.000000
# 2 -0.002374 0.014072 -0.002181 0.000000 0.000000 0.000000
# 3 -0.002181 -0.002181 0.014483 0.000000 0.000000 0.000000
# 4 0.000000 0.000000 0.000000 -0.031689 0.000000 0.000000
# 5 0.000000 0.000000 0.000000 0.000000 -0.031689 0.000000
# 6 0.000000 0.000000 0.000000 0.000000 0.000000 0.032893
#
#
# Mechanical properties :
#
#
# Convention : Reuss Voigt Hill
#
# Bulk Modulus (GPa) = 34.30170 34.31911 34.31041
# Shear Modulus (GPa) = 141.50004 5.61495 73.55750
#
# Velocity S-wave (km/s) = 8.43105 1.67949 6.07879
# Velocity P-wave (km/s) = 10.58340 4.58270 8.15504
#
# Compressibility (1/GPa) = 0.02915307
#
# Stress axis : x y z
#
# Youngs Moduli (GPa) = 71.06254 71.06254 69.04522
#
# Poissons Ratio (x) = 0.16874 0.15061
# Poissons Ratio (y) = 0.16874 0.15061
# Poissons Ratio (z) = 0.15501 0.15501
#
# Static dielectric constant tensor:
#      x y z
#    x 1.674930 0.000000 0.000000 
#    y 0.000000 1.674930 0.000000 
#    z 0.000000 0.000000 1.707960 
# 
# From -- ./inp_files/1048.got.cif
#   From: 2010.05.17/outbox.cif.g08.bks.cpg/sg189_1_cif.got.tgz:1048.got - 2010.05.20 12:14:34.
