data_PCOD9586632
_publ_section_title
;
Structure prediction by ZEFSAII (Michael W. Deem and Ramdas Pophale) SiO2 
 PCOD9586632
Probable space group: P -6 2 C
;
_chemical_formula_sum "Si O2"
_cell_formula_units_Z 84
_cell_length_a 17.135380
_cell_length_b 17.135380
_cell_length_c 14.737649
_cell_angle_alpha 90.000000
_cell_angle_beta 90.000000
_cell_angle_gamma 120.000000
_cell_volume 3747.540375
_symmetry_space_group_name_H-M "P -6 2 C"
_symmetry_group_IT_number 190
_symmetry_cell_setting 'hexagonal'
loop_
_space_group_symop_operation_xyz
x,y,z
-x+y,-x,1/2-z
-y,x-y,z
x,y,1/2-z
-x+y,-x,z
-y,x-y,1/2-z
x-y,-y,-z
-x,-x+y,-z
y,x,-z
y,x,1/2+z
x-y,-y,1/2+z
-x,-x+y,1/2+z
loop_
_atom_site_type_symbol
_atom_site_label
_atom_site_fract_x
_atom_site_fract_y
_atom_site_fract_z
Si Si1 0.424241 0.303456 0.650127
Si Si2 0.655743 0.681080 0.856194
Si Si3 0.700937 0.065763 0.085403
Si Si4 0.443075 0.201152 0.483995
Si Si5 0.486398 0.573424 0.066289
Si Si6 0.953096 0.809887 0.359928
Si Si7 0.050184 0.193315 0.359750
O O1 0.430709 0.270740 0.750000
O O2 0.353037 0.339934 0.657211
O O3 0.406003 0.226824 0.575232
O O4 0.513802 0.393578 0.618284
O O5 0.651510 0.702118 0.750000
O O6 0.613876 0.574860 0.870214
O O7 0.759445 0.728829 0.886412
O O8 0.609438 0.721758 0.920609
O O9 0.803877 0.091579 0.097741
O O10 0.712627 0.165117 0.075571
O O11 0.656748 0.000000 0.000000
O O12 0.516163 0.174678 0.520776
O O13 0.510915 0.510915 0.000000
O O14 0.949799 0.802508 0.250000
O O15 0.899701 0.860857 0.384129
O O16 0.055195 0.863052 0.393313
O O17 0.057284 0.196490 0.250000
#
# Coordination Sequence:
#
# PCOD9586632 Si02
#       7
#    12  12  12  12  12  12  12
#     4  11  24  42  67  97 128 168 218 272 334 403
#     4  10  20  36  63  96 129 174 223 267 321 393
#     4  10  21  36  56  86 120 163 209 259 319 379
#     4  10  22  41  65  95 133 170 212 274 334 393
#     4  10  22  42  65  92 129 169 213 272 333 397
#     4  10  18  32  51  78 121 169 218 266 307 357
#     4   9  18  29  50  83 122 169 218 263 307 356
#
# _framework density 22.414701999999998
#
# number of rings (size 3 to 8) (size 9 to 14) (size 15 to 20)
#    0.000    2.000    1.429    2.429    4.000    2.857 
#    0.857    0.714    0.000    0.857    0.000    0.000 
#    0.000    0.000    0.000    0.000    0.000    0.000 
#
# Total GULP energy -467665.467619 kJ/mol
# GULP energy per Si atom -5567.446043 kJ/mol
# Density = 2.236369 g / cm^3
# Si number density = 22.414702 Si / 1000 Ang^3
#
#
#
# Elastic Constant Matrix: (Units=GPa)
#
#
# Indices 1 2 3 4 5 6 
#
# 1 80.0488 23.9127 20.5886 0.0000 0.0000 0.0000
# 2 23.9127 80.0488 20.5886 0.0000 0.0000 0.0000
# 3 20.5886 20.5886 102.4284 0.0000 0.0000 0.0000
# 4 0.0000 0.0000 0.0000 111.9592 0.0000 0.0000
# 5 0.0000 0.0000 0.0000 0.0000 111.9592 0.0000
# 6 0.0000 0.0000 0.0000 0.0000 0.0000 28.0680
#
#
#
# Elastic Compliance Matrix: (Units=1/GPa)
#
#
# Indices 1 2 3 4 5 6 
#
# 1 0.014132 -0.003681 -0.002101 0.000000 0.000000 0.000000
# 2 -0.003681 0.014132 -0.002101 0.000000 0.000000 0.000000
# 3 -0.002101 -0.002101 0.010607 0.000000 0.000000 0.000000
# 4 0.000000 0.000000 0.000000 0.008932 0.000000 0.000000
# 5 0.000000 0.000000 0.000000 0.000000 0.008932 0.000000
# 6 0.000000 0.000000 0.000000 0.000000 0.000000 0.035628
#
#
# Mechanical properties :
#
#
# Convention : Reuss Voigt Hill
#
# Bulk Modulus (GPa) = 43.27766 43.63398 43.45582
# Shear Modulus (GPa) = 43.16615 63.55969 53.36292
#
# Velocity S-wave (km/s) = 4.39315 5.33084 4.88455
# Velocity P-wave (km/s) = 6.71436 7.57624 7.15828
#
# Compressibility (1/GPa) = 0.02310661
#
# Stress axis : x y z
#
# Youngs Moduli (GPa) = 70.75926 70.75926 94.27370
#
# Poissons Ratio (x) = 0.26050 0.19804
# Poissons Ratio (y) = 0.26050 0.19804
# Poissons Ratio (z) = 0.14864 0.14864
#
# Static dielectric constant tensor:
#      x y z
#    x 1.848240 0.000000 0.000000 
#    y 0.000000 1.848240 0.000000 
#    z 0.000000 0.000000 1.595820 
# 
# From -- ./inp_files/3164.got.cif
#   From: 2010.05.17/outbox.cif.g08.bks.cpg/sg190_2_cif.got.tgz:3164.got - 2010.05.20 12:16:56.
