data_PCOD9586033
_publ_section_title
;
Structure prediction by ZEFSAII (Michael W. Deem and Ramdas Pophale) SiO2 
 PCOD9586033
Probable space group: P -6 C 2
;
_chemical_formula_sum "Si O2"
_cell_formula_units_Z 30
_cell_length_a 14.249199
_cell_length_b 14.249199
_cell_length_c 8.829756
_cell_angle_alpha 90.000000
_cell_angle_beta 90.000000
_cell_angle_gamma 120.000000
_cell_volume 1552.602345
_symmetry_space_group_name_H-M "P -6 C 2"
_symmetry_group_IT_number 188
_symmetry_cell_setting 'hexagonal'
loop_
_space_group_symop_operation_xyz
x,y,z
-x+y,-x,1/2-z
-y,x-y,z
x,y,1/2-z
-x+y,-x,z
-y,x-y,1/2-z
-y,-x,-z
-x+y,y,-z
x,x-y,-z
-x+y,y,1/2+z
x,x-y,1/2+z
-y,-x,1/2+z
loop_
_atom_site_type_symbol
_atom_site_label
_atom_site_fract_x
_atom_site_fract_y
_atom_site_fract_z
Si Si1 0.341491 0.073580 0.922073
Si Si2 0.127918 0.461641 0.069668
Si Si3 0.662879 0.209348 0.250000
O O1 0.296710 0.043599 0.750000
O O2 0.471707 0.143171 0.890560
O O3 0.309388 0.154694 0.000000
O O4 0.314817 0.969675 0.019190
O O5 0.135174 0.471472 0.250000
O O6 0.238716 0.477432 0.000000
O O7 0.106910 0.553455 0.000000
O O8 0.564514 0.233156 0.250000
#
# Coordination Sequence:
#
# PCOD9586033 Si02
#       3
#    12  12   6
#     4  10  22  36  60  92 130 169 211 251 311 362
#     4  12  26  44  66  90 124 164 213 266 319 379
#     4   8  20  34  52  88 134 172 212 240 298 360
#
# _framework density 19.322396999999999
#
# number of rings (size 3 to 8) (size 9 to 14) (size 15 to 20)
#    1.600    0.000    0.000    5.200    5.600    0.000 
#    0.000    0.000    0.000    0.800    0.000    5.600 
#    0.000    0.000    0.000    0.000    0.000    0.000 
#
# Total GULP energy -167404.062048 kJ/mol
# GULP energy per Si atom -5580.135402 kJ/mol
# Density = 1.927842 g / cm^3
# Si number density = 19.322397 Si / 1000 Ang^3
#
#
#
# Elastic Constant Matrix: (Units=GPa)
#
#
# Indices 1 2 3 4 5 6 
#
# 1 54.0797 14.2043 38.4956 0.0003 0.0000 0.0000
# 2 14.2043 54.0797 38.4956 -0.0003 0.0000 0.0000
# 3 38.4956 38.4956 185.1196 0.0000 0.0000 0.0000
# 4 0.0003 -0.0003 0.0000 27.2683 0.0000 0.0000
# 5 0.0000 0.0000 0.0000 0.0000 27.2683 0.0003
# 6 0.0000 0.0000 0.0000 0.0000 0.0003 19.9377
#
#
#
# Elastic Compliance Matrix: (Units=1/GPa)
#
#
# Indices 1 2 3 4 5 6 
#
# 1 0.022104 -0.002974 -0.003978 0.000000 0.000000 0.000000
# 2 -0.002974 0.022104 -0.003978 0.000000 0.000000 0.000000
# 3 -0.003978 -0.003978 0.007056 0.000000 0.000000 0.000000
# 4 0.000000 0.000000 0.000000 0.036673 0.000000 0.000000
# 5 0.000000 0.000000 0.000000 0.000000 0.036673 -0.000001
# 6 0.000000 0.000000 0.000000 0.000000 -0.000001 0.050156
#
#
# Mechanical properties :
#
#
# Convention : Reuss Voigt Hill
#
# Bulk Modulus (GPa) = 34.00880 52.85225 43.43053
# Shear Modulus (GPa) = 24.22152 28.36708 26.29430
#
# Velocity S-wave (km/s) = 3.54439 3.83573 3.69293
# Velocity P-wave (km/s) = 5.86423 6.85779 6.38038
#
# Compressibility (1/GPa) = 0.02940415
#
# Stress axis : x y z
#
# Youngs Moduli (GPa) = 45.24048 45.24048 141.71519
#
# Poissons Ratio (x) = 0.13455 0.56376
# Poissons Ratio (y) = 0.13455 0.56376
# Poissons Ratio (z) = 0.17997 0.17997
#
# Static dielectric constant tensor:
#      x y z
#    x 1.669600 0.000000 0.000000 
#    y 0.000000 1.669600 0.000000 
#    z 0.000000 0.000000 1.686520 
# 
# From -- ./inp_files/159.got.cif
#   From: 2010.05.17/outbox.cif.g08.bks.cpg/sg188_1_cif.got.tgz:159.got - 2010.05.20 12:11:46.
