data_PCOD9586469
_publ_section_title
;
Structure prediction by ZEFSAII (Michael W. Deem and Ramdas Pophale) SiO2 
 PCOD9586469
Probable space group: P -6 2 M
;
_chemical_formula_sum "Si O2"
_cell_formula_units_Z 72
_cell_length_a 13.731285
_cell_length_b 13.731285
_cell_length_c 22.024516
_cell_angle_alpha 90.000000
_cell_angle_beta 90.000000
_cell_angle_gamma 120.000000
_cell_volume 3596.328606
_symmetry_space_group_name_H-M "P -6 2 M"
_symmetry_group_IT_number 189
_symmetry_cell_setting 'hexagonal'
loop_
_space_group_symop_operation_xyz
x,y,z
-x+y,-x,-z
-y,x-y,z
x,y,-z
-x+y,-x,z
-y,x-y,-z
x-y,-y,-z
-x,-x+y,-z
y,x,-z
y,x,z
x-y,-y,z
-x,-x+y,z
loop_
_atom_site_type_symbol
_atom_site_label
_atom_site_fract_x
_atom_site_fract_y
_atom_site_fract_z
Si Si1 0.573410 0.441387 0.371140
Si Si2 0.806889 0.676447 0.366397
Si Si3 0.866974 0.189258 0.500000
Si Si4 0.471703 0.130236 0.070517
Si Si5 0.437170 0.307613 0.268363
Si Si6 0.557213 0.133615 0.500000
Si Si7 0.134008 0.681440 0.131664
O O1 0.478583 0.478583 0.372944
O O2 0.689150 0.557837 0.367892
O O3 0.544752 0.363994 0.312714
O O4 0.564788 0.383648 0.435984
O O5 0.772095 0.772095 0.359615
O O6 0.863089 0.689101 0.433054
O O7 0.866861 0.659225 0.308612
O O8 0.860152 0.303354 0.500000
O O9 0.000000 0.232334 0.500000
O O10 0.577123 0.149934 0.111713
O O11 0.429428 0.215194 0.089007
O O12 0.377692 0.000000 0.078209
O O13 0.507611 0.147023 0.000000
O O14 0.400656 0.400656 0.257690
O O15 0.455107 0.279333 0.200717
O O16 0.513414 0.000000 0.500000
O O17 0.000000 0.636020 0.125981
#
# Coordination Sequence:
#
# PCOD9586469 Si02
#       7
#    12  12   6  12  12   6  12
#     4   8  15  28  44  64  91 124 166 211 257 305
#     4   9  17  31  51  68  94 137 179 220 269 321
#     4   7  12  25  45  69  89 121 177 227 267 314
#     4  10  21  38  63  91 114 147 193 228 271 340
#     4  10  21  33  46  74 107 134 172 212 255 315
#     4   7  10  21  42  61  82 119 162 209 258 300
#     4  10  22  38  57  85 124 155 183 234 285 332
#
# _framework density 20.020416999999998
#
# number of rings (size 3 to 8) (size 9 to 14) (size 15 to 20)
#    0.000    3.000    0.000    2.833    2.333    2.333 
#    1.000    1.250    0.000    0.667    0.000    0.000 
#    0.000    0.000    0.000    0.000    0.000    0.000 
#
# Total GULP energy -401200.961015 kJ/mol
# GULP energy per Si atom -5572.235570 kJ/mol
# Density = 1.997485 g / cm^3
# Si number density = 20.020417 Si / 1000 Ang^3
#
#
#
# Elastic Constant Matrix: (Units=GPa)
#
#
# Indices 1 2 3 4 5 6 
#
# 1 59.0653 20.0186 28.1206 0.0000 0.0000 0.0000
# 2 20.0186 59.0653 28.1206 0.0000 0.0000 0.0000
# 3 28.1206 28.1206 122.1757 0.0000 0.0000 0.0000
# 4 0.0000 0.0000 0.0000 112.9997 0.0000 0.0000
# 5 0.0000 0.0000 0.0000 0.0000 112.9997 0.0000
# 6 0.0000 0.0000 0.0000 0.0000 0.0000 19.5233
#
#
#
# Elastic Compliance Matrix: (Units=1/GPa)
#
#
# Indices 1 2 3 4 5 6 
#
# 1 0.020365 -0.005245 -0.003480 0.000000 0.000000 0.000000
# 2 -0.005245 0.020365 -0.003480 0.000000 0.000000 0.000000
# 3 -0.003480 -0.003480 0.009787 0.000000 0.000000 0.000000
# 4 0.000000 0.000000 0.000000 0.008850 0.000000 0.000000
# 5 0.000000 0.000000 0.000000 0.000000 0.008850 0.000000
# 6 0.000000 0.000000 0.000000 0.000000 0.000000 0.051221
#
#
# Mechanical properties :
#
#
# Convention : Reuss Voigt Hill
#
# Bulk Modulus (GPa) = 38.30518 43.64733 40.97625
# Shear Modulus (GPa) = 32.77621 60.04096 46.40858
#
# Velocity S-wave (km/s) = 4.05055 5.48224 4.81985
# Velocity P-wave (km/s) = 6.40707 7.86906 7.17539
#
# Compressibility (1/GPa) = 0.02610613
#
# Stress axis : x y z
#
# Youngs Moduli (GPa) = 49.10381 49.10381 102.17747
#
# Poissons Ratio (x) = 0.25757 0.35558
# Poissons Ratio (y) = 0.25757 0.35558
# Poissons Ratio (z) = 0.17088 0.17088
#
# Static dielectric constant tensor:
#      x y z
#    x 1.727070 0.000000 0.000000 
#    y 0.000000 1.727070 0.000000 
#    z 0.000000 0.000000 1.774640 
# 
# From -- ./inp_files/3435.got.cif
#   From: 2010.05.17/outbox.cif.g08.bks.cpg/sg189_2_cif.got.tgz:3435.got - 2010.05.20 12:14:34.
