data_PCOD9586914
_publ_section_title
;
Structure prediction by ZEFSAII (Michael W. Deem and Ramdas Pophale) SiO2 
 PCOD9586914
Probable space group: P -6 2 C
;
_chemical_formula_sum "Si O2"
_cell_formula_units_Z 66
_cell_length_a 21.752346
_cell_length_b 21.752346
_cell_length_c 7.439094
_cell_angle_alpha 90.000000
_cell_angle_beta 90.000000
_cell_angle_gamma 120.000000
_cell_volume 3048.336340
_symmetry_space_group_name_H-M "P -6 2 C"
_symmetry_group_IT_number 190
_symmetry_cell_setting 'hexagonal'
loop_
_space_group_symop_operation_xyz
x,y,z
-x+y,-x,1/2-z
-y,x-y,z
x,y,1/2-z
-x+y,-x,z
-y,x-y,1/2-z
x-y,-y,-z
-x,-x+y,-z
y,x,-z
y,x,1/2+z
x-y,-y,1/2+z
-x,-x+y,1/2+z
loop_
_atom_site_type_symbol
_atom_site_label
_atom_site_fract_x
_atom_site_fract_y
_atom_site_fract_z
Si Si1 0.808757 0.726337 0.465334
Si Si2 0.286949 0.572298 0.250000
Si Si3 0.084153 0.410759 0.964272
Si Si4 0.819872 0.525778 0.032157
Si Si5 0.082734 0.771739 0.964300
Si Si6 0.541185 0.457433 0.035366
O O1 0.807279 0.721695 0.250000
O O2 0.782310 0.782310 0.500000
O O3 0.749924 0.647829 0.534567
O O4 0.884016 0.737294 0.528363
O O5 0.257804 0.627448 0.250000
O O6 0.268633 0.521226 0.423052
O O7 0.098522 0.416669 0.750000
O O8 0.109021 0.488879 0.037138
O O9 0.000000 0.371721 0.000000
O O10 0.808339 0.521682 0.250000
O O11 0.865767 0.608062 0.976058
O O12 0.869549 0.492940 0.981262
O O13 0.088446 0.773518 0.750000
O O14 0.000000 0.721479 0.000000
O O15 0.548190 0.457733 0.250000
O O16 0.490054 0.490054 0.000000
#
# Coordination Sequence:
#
# PCOD9586914 Si02
#       6
#    12   6  12  12  12  12
#     4   9  18  34  55  83 120 156 201 251 311 377
#     4  10  26  46  62  90 122 158 228 274 318 400
#     4   8  14  26  44  70 106 140 187 239 288 360
#     4  10  22  40  63  89 123 168 213 267 334 388
#     4  10  22  38  61  94 128 169 215 267 327 401
#     4   9  17  28  49  81 114 158 199 245 314 371
#
# _framework density 21.651153000000001
#
# number of rings (size 3 to 8) (size 9 to 14) (size 15 to 20)
#    0.182    2.545    0.000    0.545    2.545    2.909 
#    0.000    3.636    0.000    0.364    0.000    0.000 
#    0.000    0.000    0.000    0.000    0.000    0.000 
#
# Total GULP energy -367889.884651 kJ/mol
# GULP energy per Si atom -5574.089161 kJ/mol
# Density = 2.160187 g / cm^3
# Si number density = 21.651153 Si / 1000 Ang^3
#
#
#
# Elastic Constant Matrix: (Units=GPa)
#
#
# Indices 1 2 3 4 5 6 
#
# 1 116.6602 62.0194 20.3801 0.0000 0.0000 0.0000
# 2 62.0194 116.6602 20.3801 0.0000 0.0000 0.0000
# 3 20.3801 20.3801 82.5712 0.0000 0.0000 0.0000
# 4 0.0000 0.0000 0.0000 6.7964 0.0000 0.0000
# 5 0.0000 0.0000 0.0000 0.0000 6.7964 0.0000
# 6 0.0000 0.0000 0.0000 0.0000 0.0000 27.3204
#
#
#
# Elastic Compliance Matrix: (Units=1/GPa)
#
#
# Indices 1 2 3 4 5 6 
#
# 1 0.012116 -0.006185 -0.001464 0.000000 0.000000 0.000000
# 2 -0.006185 0.012116 -0.001464 0.000000 0.000000 0.000000
# 3 -0.001464 -0.001464 0.012833 0.000000 0.000000 0.000000
# 4 0.000000 0.000000 0.000000 0.147136 0.000000 0.000000
# 5 0.000000 0.000000 0.000000 0.000000 0.147136 0.000000
# 6 0.000000 0.000000 0.000000 0.000000 0.000000 0.036603
#
#
# Mechanical properties :
#
#
# Convention : Reuss Voigt Hill
#
# Bulk Modulus (GPa) = 53.08047 57.93898 55.50973
# Shear Modulus (GPa) = 12.74059 22.39011 17.56535
#
# Velocity S-wave (km/s) = 2.42843 3.21928 2.85140
# Velocity P-wave (km/s) = 5.69495 6.37469 6.04438
#
# Compressibility (1/GPa) = 0.01883932
#
# Stress axis : x y z
#
# Youngs Moduli (GPa) = 82.53593 82.53593 77.92215
#
# Poissons Ratio (x) = 0.51052 0.11406
# Poissons Ratio (y) = 0.51052 0.11406
# Poissons Ratio (z) = 0.12081 0.12081
#
# Static dielectric constant tensor:
#      x y z
#    x 1.816880 0.000000 0.000000 
#    y 0.000000 1.816880 0.000000 
#    z 0.000000 0.000000 1.817230 
# 
# From -- ./inp_files/1044.got.cif
#   From: 2010.05.17/outbox.cif.g08.bks.cpg/sg190_1_cif.got.tgz:1044.got - 2010.05.20 12:16:56.
