data_PCOD9586472
_publ_section_title
;
Structure prediction by ZEFSAII (Michael W. Deem and Ramdas Pophale) SiO2 
 PCOD9586472
Probable space group: P -6 2 M
;
_chemical_formula_sum "Si O2"
_cell_formula_units_Z 84
_cell_length_a 13.695882
_cell_length_b 13.695882
_cell_length_c 24.938355
_cell_angle_alpha 90.000000
_cell_angle_beta 90.000000
_cell_angle_gamma 120.000000
_cell_volume 4051.151137
_symmetry_space_group_name_H-M "P -6 2 M"
_symmetry_group_IT_number 189
_symmetry_cell_setting 'hexagonal'
loop_
_space_group_symop_operation_xyz
x,y,z
-x+y,-x,-z
-y,x-y,z
x,y,-z
-x+y,-x,z
-y,x-y,-z
x-y,-y,-z
-x,-x+y,-z
y,x,-z
y,x,z
x-y,-y,z
-x,-x+y,z
loop_
_atom_site_type_symbol
_atom_site_label
_atom_site_fract_x
_atom_site_fract_y
_atom_site_fract_z
Si Si1 0.678861 0.866342 0.441844
Si Si2 0.132171 0.573306 0.329410
Si Si3 0.192755 0.323259 0.323888
Si Si4 0.681034 0.546727 0.117076
Si Si5 0.340716 0.471501 0.937747
Si Si6 0.308588 0.870153 0.237809
Si Si7 0.556856 0.423014 0.556658
O O1 0.690098 0.820713 0.500000
O O2 0.689471 0.825537 0.382587
O O3 0.557751 0.860184 0.442757
O O4 0.769351 0.000000 0.441626
O O5 0.130990 0.689057 0.325978
O O6 0.181141 0.545118 0.277678
O O7 0.181410 0.565233 0.386791
O O8 0.000000 0.477781 0.331145
O O9 0.227128 0.227128 0.317723
O O10 0.133306 0.341081 0.272769
O O11 0.635386 0.635386 0.112477
O O12 0.785028 0.571537 0.079357
O O13 0.577101 0.426511 0.098691
O O14 0.719302 0.542834 0.178102
O O15 0.377796 0.377796 0.931402
O O16 0.358688 0.507615 0.000000
O O17 0.402344 0.000000 0.228523
O O18 0.616770 0.435506 0.500000
O O19 0.513036 0.513036 0.556370
#
# Coordination Sequence:
#
# PCOD9586472 Si02
#       7
#    12  12  12  12  12  12  12
#     4   7  10  19  38  64  87 112 160 218 264 313
#     4   8  15  28  43  62  91 123 160 207 254 305
#     4   9  17  30  50  69  91 133 178 216 263 319
#     4  10  22  38  58  86 123 161 191 233 288 335
#     4  10  21  38  63  93 120 151 193 235 277 334
#     4  10  21  34  47  71 107 138 170 212 257 304
#     4   7   9  16  34  57  79 109 151 198 250 304
#
# _framework density 20.734848
#
# number of rings (size 3 to 8) (size 9 to 14) (size 15 to 20)
#    0.000    3.286    0.000    3.286    2.000    1.429 
#    0.857    0.714    0.000    1.857    0.000    0.000 
#    0.000    0.000    0.000    0.000    0.000    0.286 
#
# Total GULP energy -468105.837058 kJ/mol
# GULP energy per Si atom -5572.688536 kJ/mol
# Density = 2.068765 g / cm^3
# Si number density = 20.734848 Si / 1000 Ang^3
#
#
#
# Elastic Constant Matrix: (Units=GPa)
#
#
# Indices 1 2 3 4 5 6 
#
# 1 56.5489 23.8055 29.2690 0.0000 0.0000 0.0000
# 2 23.8055 56.5489 29.2690 0.0000 0.0000 0.0000
# 3 29.2690 29.2690 137.8000 0.0000 0.0000 0.0000
# 4 0.0000 0.0000 0.0000 62.4632 0.0000 0.0000
# 5 0.0000 0.0000 0.0000 0.0000 62.4632 0.0000
# 6 0.0000 0.0000 0.0000 0.0000 0.0000 16.3717
#
#
#
# Elastic Compliance Matrix: (Units=1/GPa)
#
#
# Indices 1 2 3 4 5 6 
#
# 1 0.022632 -0.007909 -0.003127 0.000000 0.000000 0.000000
# 2 -0.007909 0.022632 -0.003127 0.000000 0.000000 0.000000
# 3 -0.003127 -0.003127 0.008585 0.000000 0.000000 0.000000
# 4 0.000000 0.000000 0.000000 0.016009 0.000000 0.000000
# 5 0.000000 0.000000 0.000000 0.000000 0.016009 0.000000
# 6 0.000000 0.000000 0.000000 0.000000 0.000000 0.061081
#
#
# Mechanical properties :
#
#
# Convention : Reuss Voigt Hill
#
# Bulk Modulus (GPa) = 39.18098 46.17610 42.67854
# Shear Modulus (GPa) = 27.20606 39.49658 33.35132
#
# Velocity S-wave (km/s) = 3.62621 4.36918 4.01492
# Velocity P-wave (km/s) = 6.03902 6.91167 6.49003
#
# Compressibility (1/GPa) = 0.02552259
#
# Stress axis : x y z
#
# Youngs Moduli (GPa) = 44.18567 44.18567 116.47762
#
# Poissons Ratio (x) = 0.34945 0.36425
# Poissons Ratio (y) = 0.34945 0.36425
# Poissons Ratio (z) = 0.13818 0.13818
#
# Static dielectric constant tensor:
#      x y z
#    x 1.761620 0.000000 0.000000 
#    y 0.000000 1.761620 0.000000 
#    z 0.000000 0.000000 1.811090 
# 
# From -- ./inp_files/3627.got.cif
#   From: 2010.05.17/outbox.cif.g08.bks.cpg/sg189_2_cif.got.tgz:3627.got - 2010.05.20 12:14:34.
