data_PCOD9586049
_publ_section_title
;
Structure prediction by ZEFSAII (Michael W. Deem and Ramdas Pophale) SiO2 
 PCOD9586049
Probable space group: P -6 C 2
;
_chemical_formula_sum "Si O2"
_cell_formula_units_Z 60
_cell_length_a 14.093360
_cell_length_b 14.093360
_cell_length_c 17.355181
_cell_angle_alpha 90.000000
_cell_angle_beta 90.000000
_cell_angle_gamma 120.000000
_cell_volume 2985.306114
_symmetry_space_group_name_H-M "P -6 C 2"
_symmetry_group_IT_number 188
_symmetry_cell_setting 'hexagonal'
loop_
_space_group_symop_operation_xyz
x,y,z
-x+y,-x,1/2-z
-y,x-y,z
x,y,1/2-z
-x+y,-x,z
-y,x-y,1/2-z
-y,-x,-z
-x+y,y,-z
x,x-y,-z
-x+y,y,1/2+z
x,x-y,1/2+z
-y,-x,1/2+z
loop_
_atom_site_type_symbol
_atom_site_label
_atom_site_fract_x
_atom_site_fract_y
_atom_site_fract_z
Si Si1 0.828473 0.539289 0.929413
Si Si2 0.307850 0.853557 0.337384
Si Si3 0.530041 0.641070 0.612009
Si Si4 0.875605 0.371763 0.837268
Si Si5 0.251983 0.307227 0.970860
O O1 0.869158 0.459392 0.894894
O O2 0.751947 0.544949 0.863100
O O3 0.926543 0.654996 0.962979
O O4 0.744282 0.488563 0.000000
O O5 0.341425 0.890499 0.250000
O O6 0.217580 0.726997 0.341729
O O7 0.411751 0.877977 0.388826
O O8 0.250228 0.909794 0.382471
O O9 0.606752 0.604824 0.655429
O O10 0.590599 0.692735 0.531543
O O11 0.852650 0.391045 0.750000
O O12 0.123851 0.247701 0.000000
#
# Coordination Sequence:
#
# PCOD9586049 Si02
#       5
#    12  12  12  12  12
#     4  12  24  42  65  90 132 179 226 279 339 401
#     4  11  21  34  58  87 124 164 198 253 318 382
#     4  11  22  39  59  92 131 167 212 254 320 405
#     4  12  25  41  64  97 134 175 225 275 332 409
#     4  10  23  41  63  89 122 169 226 273 325 398
#
# _framework density 20.098441000000001
#
# number of rings (size 3 to 8) (size 9 to 14) (size 15 to 20)
#    0.000    0.800    4.000    4.400    0.000    0.800 
#    0.000    2.000    0.000    0.400    0.000    0.000 
#    0.000    0.000    0.000    0.000    0.000    0.000 
#
# Total GULP energy -334121.687231 kJ/mol
# GULP energy per Si atom -5568.694787 kJ/mol
# Density = 2.005270 g / cm^3
# Si number density = 20.098441 Si / 1000 Ang^3
#
#
#
# Elastic Constant Matrix: (Units=GPa)
#
#
# Indices 1 2 3 4 5 6 
#
# 1 84.5092 32.2584 19.7211 0.0001 0.0000 0.0000
# 2 32.2584 84.5092 19.7211 -0.0001 0.0000 0.0000
# 3 19.7211 19.7211 103.7641 0.0000 0.0000 0.0000
# 4 0.0001 -0.0001 0.0000 12.4758 0.0000 0.0000
# 5 0.0000 0.0000 0.0000 0.0000 12.4758 0.0001
# 6 0.0000 0.0000 0.0000 0.0000 0.0001 26.1254
#
#
#
# Elastic Compliance Matrix: (Units=1/GPa)
#
#
# Indices 1 2 3 4 5 6 
#
# 1 0.014145 -0.004993 -0.001739 0.000000 0.000000 0.000000
# 2 -0.004993 0.014145 -0.001739 0.000000 0.000000 0.000000
# 3 -0.001739 -0.001739 0.010298 0.000000 0.000000 0.000000
# 4 0.000000 0.000000 0.000000 0.080155 0.000000 0.000000
# 5 0.000000 0.000000 0.000000 0.000000 0.080155 0.000000
# 6 0.000000 0.000000 0.000000 0.000000 0.000000 0.038277
#
#
# Mechanical properties :
#
#
# Convention : Reuss Voigt Hill
#
# Bulk Modulus (GPa) = 46.20177 46.24263 46.22220
# Shear Modulus (GPa) = 19.13257 23.62086 21.37672
#
# Velocity S-wave (km/s) = 3.08870 3.43192 3.26483
# Velocity P-wave (km/s) = 5.97978 6.22593 6.10409
#
# Compressibility (1/GPa) = 0.02164419
#
# Stress axis : x y z
#
# Youngs Moduli (GPa) = 70.69635 70.69635 97.10263
#
# Poissons Ratio (x) = 0.35302 0.16889
# Poissons Ratio (y) = 0.35302 0.16889
# Poissons Ratio (z) = 0.12296 0.12296
#
# Static dielectric constant tensor:
#      x y z
#    x 1.802710 0.000000 0.000000 
#    y 0.000000 1.802710 0.000000 
#    z 0.000000 0.000000 1.757030 
# 
# From -- ./inp_files/2284.got.cif
#   From: 2010.05.17/outbox.cif.g08.bks.cpg/sg188_2_cif.got.tgz:2284.got - 2010.05.20 12:11:46.
