data_PCOD9586674
_publ_section_title
;
Structure prediction by ZEFSAII (Michael W. Deem and Ramdas Pophale) SiO2 
 PCOD9586674
Probable space group: P -6 2 C
;
_chemical_formula_sum "Si O2"
_cell_formula_units_Z 78
_cell_length_a 24.815849
_cell_length_b 24.815849
_cell_length_c 7.631157
_cell_angle_alpha 90.000000
_cell_angle_beta 90.000000
_cell_angle_gamma 120.000000
_cell_volume 4069.858369
_symmetry_space_group_name_H-M "P -6 2 C"
_symmetry_group_IT_number 190
_symmetry_cell_setting 'hexagonal'
loop_
_space_group_symop_operation_xyz
x,y,z
-x+y,-x,1/2-z
-y,x-y,z
x,y,1/2-z
-x+y,-x,z
-y,x-y,1/2-z
x-y,-y,-z
-x,-x+y,-z
y,x,-z
y,x,1/2+z
x-y,-y,1/2+z
-x,-x+y,1/2+z
loop_
_atom_site_type_symbol
_atom_site_label
_atom_site_fract_x
_atom_site_fract_y
_atom_site_fract_z
Si Si1 0.141858 0.071013 0.043761
Si Si2 0.402853 0.247727 0.463608
Si Si3 0.071622 0.808903 0.960867
Si Si4 0.388387 0.459743 0.539383
Si Si5 0.510969 0.581439 0.540793
Si Si6 0.271286 0.590901 0.250000
Si Si7 0.702345 0.508084 0.038149
O O1 0.149254 0.076290 0.250000
O O2 0.207626 0.124905 0.968324
O O3 0.090253 0.090253 0.000000
O O4 0.118342 0.000000 0.000000
O O5 0.401518 0.249635 0.250000
O O6 0.331765 0.213686 0.526634
O O7 0.439133 0.319463 0.525096
O O8 0.439046 0.211272 0.507517
O O9 0.078140 0.813331 0.750000
O O10 0.000000 0.759039 0.000000
O O11 0.387281 0.464929 0.750000
O O12 0.408366 0.408366 0.500000
O O13 0.444847 0.525444 0.471084
O O14 0.505202 0.579904 0.750000
O O15 0.562776 0.562776 0.500000
O O16 0.524604 0.649226 0.487070
O O17 0.269969 0.655145 0.250000
O O18 0.239568 0.551683 0.423484
O O19 0.699474 0.497468 0.250000
#
# Coordination Sequence:
#
# PCOD9586674 Si02
#       7
#    12  12  12  12  12   6  12
#     4  10  19  31  49  72 102 138 177 227 277 337
#     4   9  18  34  56  77 106 145 185 223 270 338
#     4   9  18  33  52  76 107 139 177 222 275 333
#     4   9  17  30  49  79 105 132 173 217 269 329
#     4   9  19  34  56  82 108 147 188 233 287 332
#     4  10  26  42  58  94 122 154 200 238 294 356
#     4  10  22  41  62  84 119 160 195 238 291 346
#
# _framework density 19.165286999999999
#
# number of rings (size 3 to 8) (size 9 to 14) (size 15 to 20)
#    0.154    2.462    0.000    1.077    3.231    1.231 
#    2.769    0.769    0.000    0.000    0.000    0.000 
#    0.000    0.000    0.000    0.000    0.000    0.000 
#
# Total GULP energy -434949.997217 kJ/mol
# GULP energy per Si atom -5576.282016 kJ/mol
# Density = 1.912167 g / cm^3
# Si number density = 19.165287 Si / 1000 Ang^3
#
#
#
# Elastic Constant Matrix: (Units=GPa)
#
#
# Indices 1 2 3 4 5 6 
#
# 1 168.3218 112.3537 21.0957 0.0000 0.0000 0.0000
# 2 112.3537 168.3218 21.0957 0.0000 0.0000 0.0000
# 3 21.0957 21.0957 49.6227 0.0000 0.0000 0.0000
# 4 0.0000 0.0000 0.0000 13.3635 0.0000 0.0000
# 5 0.0000 0.0000 0.0000 0.0000 13.3635 0.0000
# 6 0.0000 0.0000 0.0000 0.0000 0.0000 27.9841
#
#
#
# Elastic Compliance Matrix: (Units=1/GPa)
#
#
# Indices 1 2 3 4 5 6 
#
# 1 0.010837 -0.007031 -0.001618 0.000000 0.000000 0.000000
# 2 -0.007031 0.010837 -0.001618 0.000000 0.000000 0.000000
# 3 -0.001618 -0.001618 0.021528 0.000000 0.000000 0.000000
# 4 0.000000 0.000000 0.000000 0.074831 0.000000 0.000000
# 5 0.000000 0.000000 0.000000 0.000000 0.074831 0.000000
# 6 0.000000 0.000000 0.000000 0.000000 0.000000 0.035735
#
#
# Mechanical properties :
#
#
# Convention : Reuss Voigt Hill
#
# Bulk Modulus (GPa) = 44.11553 77.26184 60.68868
# Shear Modulus (GPa) = 19.47904 26.39031 22.93468
#
# Velocity S-wave (km/s) = 3.19152 3.71480 3.46306
# Velocity P-wave (km/s) = 6.05388 7.66815 6.90833
#
# Compressibility (1/GPa) = 0.02266775
#
# Stress axis : x y z
#
# Youngs Moduli (GPa) = 92.27917 92.27917 46.45158
#
# Poissons Ratio (x) = 0.64878 0.07516
# Poissons Ratio (y) = 0.64878 0.07516
# Poissons Ratio (z) = 0.14931 0.14931
#
# Static dielectric constant tensor:
#      x y z
#    x 1.659220 0.000000 0.000000 
#    y 0.000000 1.659220 0.000000 
#    z 0.000000 0.000000 1.869720 
# 
# From -- ./inp_files/1333.got.cif
#   From: 2010.05.17/outbox.cif.g08.bks.cpg/sg190_1_cif.got.tgz:1333.got - 2010.05.20 12:16:56.
