data_PCOD9586240
_publ_section_title
;
Structure prediction by ZEFSAII (Michael W. Deem and Ramdas Pophale) SiO2 
 PCOD9586240
Probable space group: P -6 2 M
;
_chemical_formula_sum "Si O2"
_cell_formula_units_Z 82
_cell_length_a 20.833314
_cell_length_b 20.833314
_cell_length_c 12.989110
_cell_angle_alpha 90.000000
_cell_angle_beta 90.000000
_cell_angle_gamma 120.000000
_cell_volume 4882.325675
_symmetry_space_group_name_H-M "P -6 2 M"
_symmetry_group_IT_number 189
_symmetry_cell_setting 'hexagonal'
loop_
_space_group_symop_operation_xyz
x,y,z
-x+y,-x,-z
-y,x-y,z
x,y,-z
-x+y,-x,z
-y,x-y,-z
x-y,-y,-z
-x,-x+y,-z
y,x,-z
y,x,z
x-y,-y,z
-x,-x+y,z
loop_
_atom_site_type_symbol
_atom_site_label
_atom_site_fract_x
_atom_site_fract_y
_atom_site_fract_z
Si Si1 0.791228 0.447836 0.235104
Si Si2 0.484358 0.684825 0.122448
Si Si3 0.666668 0.333334 0.378107
Si Si4 0.088547 0.562626 0.382484
Si Si5 0.909986 0.088066 0.226465
Si Si6 0.710141 0.800390 0.383303
Si Si7 0.575289 0.663876 0.710616
Si Si8 0.825325 0.913260 0.000000
O O1 0.759401 0.489506 0.167530
O O2 0.789345 0.383341 0.163193
O O3 0.733775 0.406958 0.328539
O O4 0.869348 0.491872 0.293255
O O5 0.546223 0.673970 0.180117
O O6 0.488085 0.685157 0.000000
O O7 0.666667 0.333334 0.500000
O O8 0.110834 0.588869 0.500000
O O9 0.106458 0.496526 0.357992
O O10 0.000000 0.525612 0.375048
O O11 0.888285 0.130633 0.309170
O O12 0.000000 0.124984 0.229310
O O13 0.870629 0.000000 0.244576
O O14 0.887954 0.100577 0.111120
O O15 0.707071 0.822687 0.500000
O O16 0.754281 0.754281 0.384150
O O17 0.628820 0.742577 0.341562
O O18 0.621646 0.621646 0.721554
O O19 0.865133 0.865133 0.000000
O O20 0.886894 0.000000 0.000000
#
# Coordination Sequence:
#
# PCOD9586240 Si02
#       8
#    12  12   4  12  12  12  12   6
#     4   9  18  29  45  71  99 126 160 191 227 284
#     4  10  19  32  50  71  98 133 162 193 236 279
#     4   9  15  24  40  65 100 129 150 189 235 272
#     4   9  16  28  48  71  96 125 155 194 242 289
#     4   9  16  26  42  65  92 122 156 196 244 295
#     4   9  17  30  46  64  90 123 157 195 242 296
#     4   9  18  32  49  72  97 125 164 201 237 286
#     4   8  13  22  36  56  82 112 146 182 226 280
#
# _framework density 16.795273999999999
#
# number of rings (size 3 to 8) (size 9 to 14) (size 15 to 20)
#    0.000    2.927    0.000    1.829    0.000    3.512 
#    1.317    2.195    0.000    3.073    0.000    0.000 
#    0.000    0.000    0.000    0.000    0.000    0.000 
#
# Total GULP energy -456578.518532 kJ/mol
# GULP energy per Si atom -5568.030714 kJ/mol
# Density = 1.675705 g / cm^3
# Si number density = 16.795274 Si / 1000 Ang^3
#
#
#
# Elastic Constant Matrix: (Units=GPa)
#
#
# Indices 1 2 3 4 5 6 
#
# 1 21.2571 -4.0834 17.7438 0.0000 0.0000 0.0000
# 2 -4.0834 21.2575 17.7440 -0.0001 0.0000 0.0000
# 3 17.7438 17.7440 131.7629 -0.0001 -0.0001 0.0000
# 4 0.0000 -0.0001 -0.0001 19.9553 0.0000 0.0000
# 5 0.0000 0.0000 -0.0001 0.0000 19.9552 0.0000
# 6 0.0000 0.0000 0.0000 0.0000 0.0000 12.6703
#
#
#
# Elastic Compliance Matrix: (Units=1/GPa)
#
#
# Indices 1 2 3 4 5 6 
#
# 1 0.060071 0.020608 -0.010865 0.000000 0.000000 0.000000
# 2 0.020608 0.060070 -0.010865 0.000000 0.000000 0.000000
# 3 -0.010865 -0.010865 0.010516 0.000000 0.000000 0.000000
# 4 0.000000 0.000000 0.000000 0.050112 0.000000 0.000000
# 5 0.000000 0.000000 0.000000 0.000000 0.050112 0.000000
# 6 0.000000 0.000000 0.000000 0.000000 0.000000 0.078925
#
#
# Mechanical properties :
#
#
# Convention : Reuss Voigt Hill
#
# Bulk Modulus (GPa) = 7.78732 26.34293 17.06513
# Shear Modulus (GPa) = 14.09038 20.04104 17.06571
#
# Velocity S-wave (km/s) = 2.89960 3.45810 3.19109
# Velocity P-wave (km/s) = 3.98208 5.62702 4.87444
#
# Compressibility (1/GPa) = 0.12841381
#
# Stress axis : x y z
#
# Youngs Moduli (GPa) = 16.64701 16.64733 95.09723
#
# Poissons Ratio (x) = -0.34307 1.03320
# Poissons Ratio (y) = -0.34306 1.03319
# Poissons Ratio (z) = 0.18086 0.18087
#
# Static dielectric constant tensor:
#      x y z
#    x 1.576160 0.000000 0.000000 
#    y 0.000000 1.576160 0.000000 
#    z 0.000000 0.000000 1.567210 
# 
# From -- ./inp_files/2173.got.cif
#   From: 2010.05.17/outbox.cif.g08.bks.cpg/sg189_2_cif.got.tgz:2173.got - 2010.05.20 12:14:34.
