data_PCOD9586034
_publ_section_title
;
Structure prediction by ZEFSAII (Michael W. Deem and Ramdas Pophale) SiO2 
 PCOD9586034
Probable space group: P -6 C 2
;
_chemical_formula_sum "Si O2"
_cell_formula_units_Z 44
_cell_length_a 12.458749
_cell_length_b 12.458749
_cell_length_c 14.438317
_cell_angle_alpha 90.000000
_cell_angle_beta 90.000000
_cell_angle_gamma 120.000000
_cell_volume 1940.868347
_symmetry_space_group_name_H-M "P -6 C 2"
_symmetry_group_IT_number 188
_symmetry_cell_setting 'hexagonal'
loop_
_space_group_symop_operation_xyz
x,y,z
-x+y,-x,1/2-z
-y,x-y,z
x,y,1/2-z
-x+y,-x,z
-y,x-y,1/2-z
-y,-x,-z
-x+y,y,-z
x,x-y,-z
-x+y,y,1/2+z
x,x-y,1/2+z
-y,-x,1/2+z
loop_
_atom_site_type_symbol
_atom_site_label
_atom_site_fract_x
_atom_site_fract_y
_atom_site_fract_z
Si Si1 0.333335 0.666668 0.114681
Si Si2 0.384169 0.469307 0.910225
Si Si3 0.644199 0.540528 0.250000
Si Si4 0.000000 0.000000 0.862320
Si Si5 0.170819 0.285571 0.356661
Si Si6 0.390298 0.083829 0.750000
O O1 0.411951 0.604746 0.143320
O O2 0.333334 0.666667 0.000000
O O3 0.424055 0.393693 0.846096
O O4 0.234683 0.379947 0.914926
O O5 0.469955 0.530046 0.000000
O O6 0.791922 0.615607 0.250000
O O7 0.538471 0.395026 0.250000
O O8 0.054415 0.143445 0.889512
O O9 0.000000 0.000000 0.750000
O O10 0.130326 0.291495 0.250000
O O11 0.312805 0.316951 0.337417
#
# Coordination Sequence:
#
# PCOD9586034 Si02
#       6
#     4  12   6   4  12   6
#     4   9  21  37  56  91 127 170 217 286 362 451
#     4  11  22  38  63  95 139 179 234 298 377 462
#     4  12  22  42  62  98 129 184 238 302 370 446
#     4   9  15  30  63  96 138 173 230 307 384 453
#     4   9  18  34  58 101 135 181 229 294 377 455
#     4  10  22  36  66  96 143 184 238 296 364 458
#
# _framework density 22.670266000000002
#
# number of rings (size 3 to 8) (size 9 to 14) (size 15 to 20)
#    0.818    1.091    1.364    3.545    0.000    1.091 
#    0.000    1.364    0.000    6.545    0.000   13.364 
#    0.000    0.000    0.000    0.000    0.000    0.000 
#
# Total GULP energy -245015.490700 kJ/mol
# GULP energy per Si atom -5568.533880 kJ/mol
# Density = 2.261867 g / cm^3
# Si number density = 22.670266 Si / 1000 Ang^3
#
#
#
# Elastic Constant Matrix: (Units=GPa)
#
#
# Indices 1 2 3 4 5 6 
#
# 1 122.4208 28.4480 36.9688 0.0000 -0.0002 0.0001
# 2 28.4480 122.4217 36.9685 0.0000 0.0000 0.0000
# 3 36.9688 36.9685 107.1695 -0.0001 0.0001 -0.0001
# 4 0.0000 0.0000 -0.0001 45.9954 0.0001 -0.0001
# 5 -0.0002 0.0000 0.0001 0.0001 45.9977 0.0002
# 6 0.0001 0.0000 -0.0001 -0.0001 0.0002 46.9864
#
#
#
# Elastic Compliance Matrix: (Units=1/GPa)
#
#
# Indices 1 2 3 4 5 6 
#
# 1 0.009309 -0.001332 -0.002752 0.000000 0.000000 0.000000
# 2 -0.001332 0.009309 -0.002752 0.000000 0.000000 0.000000
# 3 -0.002752 -0.002752 0.011229 0.000000 0.000000 0.000000
# 4 0.000000 0.000000 0.000000 0.021741 0.000000 0.000000
# 5 0.000000 0.000000 0.000000 0.000000 0.021740 0.000000
# 6 0.000000 0.000000 0.000000 0.000000 0.000000 0.021283
#
#
# Mechanical properties :
#
#
# Convention : Reuss Voigt Hill
#
# Bulk Modulus (GPa) = 61.81841 61.86474 61.84158
# Shear Modulus (GPa) = 43.98509 44.43769 44.21139
#
# Velocity S-wave (km/s) = 4.40956 4.43219 4.42089
# Velocity P-wave (km/s) = 7.29749 7.31714 7.30732
#
# Compressibility (1/GPa) = 0.01617641
#
# Stress axis : x y z
#
# Youngs Moduli (GPa) = 107.42183 107.42304 89.05214
#
# Poissons Ratio (x) = 0.14312 0.24504
# Poissons Ratio (y) = 0.14312 0.24503
# Poissons Ratio (z) = 0.29559 0.29558
#
# Static dielectric constant tensor:
#      x y z
#    x 1.943120 0.000000 0.000000 
#    y 0.000000 1.943120 0.000000 
#    z 0.000000 0.000000 1.885220 
# 
# From -- ./inp_files/2963.got.cif
#   From: 2010.05.17/outbox.cif.g08.bks.cpg/sg188_2_cif.got.tgz:2963.got - 2010.05.20 12:11:46.
