data_PCOD9586692
_publ_section_title
;
Structure prediction by ZEFSAII (Michael W. Deem and Ramdas Pophale) SiO2 
 PCOD9586692
Probable space group: P -6 2 C
;
_chemical_formula_sum "Si O2"
_cell_formula_units_Z 78
_cell_length_a 25.103537
_cell_length_b 25.103537
_cell_length_c 8.110256
_cell_angle_alpha 90.000000
_cell_angle_beta 90.000000
_cell_angle_gamma 120.000000
_cell_volume 4426.240701
_symmetry_space_group_name_H-M "P -6 2 C"
_symmetry_group_IT_number 190
_symmetry_cell_setting 'hexagonal'
loop_
_space_group_symop_operation_xyz
x,y,z
-x+y,-x,1/2-z
-y,x-y,z
x,y,1/2-z
-x+y,-x,z
-y,x-y,1/2-z
x-y,-y,-z
-x,-x+y,-z
y,x,-z
y,x,1/2+z
x-y,-y,1/2+z
-x,-x+y,1/2+z
loop_
_atom_site_type_symbol
_atom_site_label
_atom_site_fract_x
_atom_site_fract_y
_atom_site_fract_z
Si Si1 0.810248 0.183645 0.442900
Si Si2 0.069573 0.361050 0.946743
Si Si3 0.521117 0.260364 0.434570
Si Si4 0.728774 0.319970 0.750000
Si Si5 0.518045 0.588132 0.447191
Si Si6 0.141398 0.621136 0.448645
Si Si7 0.380198 0.310704 0.448270
O O1 0.817456 0.172522 0.250000
O O2 0.878043 0.225842 0.515938
O O3 0.780152 0.227600 0.447262
O O4 0.757751 0.118697 0.512761
O O5 0.071837 0.359357 0.750000
O O6 0.084545 0.429696 0.992932
O O7 0.000000 0.315042 0.000000
O O8 0.540369 0.254250 0.250000
O O9 0.552798 0.244714 0.584092
O O10 0.534563 0.329818 0.464759
O O11 0.655152 0.272063 0.750000
O O12 0.517563 0.589945 0.250000
O O13 0.541184 0.541184 0.500000
O O14 0.448803 0.563630 0.505795
O O15 0.147397 0.623704 0.250000
O O16 0.092746 0.643550 0.489530
O O17 0.383337 0.309533 0.250000
O O18 0.335077 0.335077 0.500000
#
# Coordination Sequence:
#
# PCOD9586692 Si02
#       7
#    12  12  12   6  12  12  12
#     4   8  18  35  54  74  99 134 168 204 250 312
#     4  10  19  34  51  72  99 126 167 209 251 307
#     4  10  20  38  57  74  97 129 170 209 264 321
#     4  10  24  40  52  72  98 124 166 226 256 314
#     4  10  20  31  44  67  96 123 157 201 250 300
#     4  10  19  32  50  73 101 129 164 210 258 309
#     4  10  19  32  50  75 103 134 171 208 255 307
#
# _framework density 17.622176
#
# number of rings (size 3 to 8) (size 9 to 14) (size 15 to 20)
#    0.154    2.154    0.769    4.154    0.000    5.538 
#    2.769    1.538    0.000    0.000    0.000    0.000 
#    0.000    0.000    0.000    0.462    0.000    5.538 
#
# Total GULP energy -435336.254980 kJ/mol
# GULP energy per Si atom -5581.234038 kJ/mol
# Density = 1.758207 g / cm^3
# Si number density = 17.622176 Si / 1000 Ang^3
#
#
#
# Elastic Constant Matrix: (Units=GPa)
#
#
# Indices 1 2 3 4 5 6 
#
# 1 88.0530 43.2489 12.6345 0.0000 0.0000 0.0000
# 2 43.2489 88.0530 12.6345 0.0000 0.0000 0.0000
# 3 12.6345 12.6345 65.9889 0.0000 0.0000 0.0000
# 4 0.0000 0.0000 0.0000 19.0121 0.0000 0.0000
# 5 0.0000 0.0000 0.0000 0.0000 19.0121 0.0000
# 6 0.0000 0.0000 0.0000 0.0000 0.0000 22.4021
#
#
#
# Elastic Compliance Matrix: (Units=1/GPa)
#
#
# Indices 1 2 3 4 5 6 
#
# 1 0.015113 -0.007206 -0.001514 0.000000 0.000000 0.000000
# 2 -0.007206 0.015113 -0.001514 0.000000 0.000000 0.000000
# 3 -0.001514 -0.001514 0.015734 0.000000 0.000000 0.000000
# 4 0.000000 0.000000 0.000000 0.052598 0.000000 0.000000
# 5 0.000000 0.000000 0.000000 0.000000 0.052598 0.000000
# 6 0.000000 0.000000 0.000000 0.000000 0.000000 0.044639
#
#
# Mechanical properties :
#
#
# Convention : Reuss Voigt Hill
#
# Bulk Modulus (GPa) = 39.22697 42.12565 40.67631
# Shear Modulus (GPa) = 22.24587 23.65706 22.95147
#
# Velocity S-wave (km/s) = 3.55685 3.66793 3.61282
# Velocity P-wave (km/s) = 6.25912 6.47264 6.36678
#
# Compressibility (1/GPa) = 0.02549266
#
# Stress axis : x y z
#
# Youngs Moduli (GPa) = 66.16649 66.16649 63.55741
#
# Poissons Ratio (x) = 0.47679 0.09623
# Poissons Ratio (y) = 0.47679 0.09623
# Poissons Ratio (z) = 0.10018 0.10018
#
# Static dielectric constant tensor:
#      x y z
#    x 1.623860 0.000000 0.000000 
#    y 0.000000 1.623860 0.000000 
#    z 0.000000 0.000000 1.626310 
# 
# From -- ./inp_files/1440.got.cif
#   From: 2010.05.17/outbox.cif.g08.bks.cpg/sg190_1_cif.got.tgz:1440.got - 2010.05.20 12:16:56.
