data_PCOD9586540
_publ_section_title
;
Structure prediction by ZEFSAII (Michael W. Deem and Ramdas Pophale) SiO2 
 PCOD9586540
Probable space group: P -6 2 M
;
_chemical_formula_sum "Si O2"
_cell_formula_units_Z 54
_cell_length_a 17.309351
_cell_length_b 17.309351
_cell_length_c 10.640981
_cell_angle_alpha 90.000000
_cell_angle_beta 90.000000
_cell_angle_gamma 120.000000
_cell_volume 2761.047440
_symmetry_space_group_name_H-M "P -6 2 M"
_symmetry_group_IT_number 189
_symmetry_cell_setting 'hexagonal'
loop_
_space_group_symop_operation_xyz
x,y,z
-x+y,-x,-z
-y,x-y,z
x,y,-z
-x+y,-x,z
-y,x-y,-z
x-y,-y,-z
-x,-x+y,-z
y,x,-z
y,x,z
x-y,-y,z
-x,-x+y,z
loop_
_atom_site_type_symbol
_atom_site_label
_atom_site_fract_x
_atom_site_fract_y
_atom_site_fract_z
Si Si1 0.237260 0.677534 0.500000
Si Si2 0.791999 0.150122 0.854802
Si Si3 0.209742 0.105811 0.356647
Si Si4 0.100665 0.620726 0.284331
Si Si5 0.639771 0.538202 0.144972
O O1 0.341248 0.753472 0.500000
O O2 0.179495 0.675571 0.382116
O O3 0.839317 0.120057 0.751426
O O4 0.688129 0.105412 0.822361
O O5 0.833608 0.256166 0.838307
O O6 0.806668 0.133292 0.000000
O O7 0.247787 0.127567 0.500000
O O8 0.134416 0.134416 0.351657
O O9 0.166024 0.000000 0.338038
O O10 0.117188 0.543964 0.229512
O O11 0.000000 0.572194 0.338654
O O12 0.616307 0.616307 0.166846
O O13 0.617721 0.509667 0.000000
#
# Coordination Sequence:
#
# PCOD9586540 Si02
#       5
#     6  12  12  12  12
#     4  10  23  40  60  82 116 156 201 258 306 356
#     4  11  23  39  63  94 126 163 208 259 313 371
#     4  10  22  41  65  92 125 167 212 258 310 374
#     4  11  22  38  60  87 121 160 202 250 310 372
#     4   9  19  37  59  83 117 161 206 252 302 362
#
# _framework density 19.557794999999999
#
# number of rings (size 3 to 8) (size 9 to 14) (size 15 to 20)
#    0.222    1.556    0.000    3.889    1.556    4.889 
#    3.333    0.000    0.000    1.333    0.000    0.000 
#    0.000    0.000    0.000    0.000    0.000    0.000 
#
# Total GULP energy -301358.222425 kJ/mol
# GULP energy per Si atom -5580.707823 kJ/mol
# Density = 1.951328 g / cm^3
# Si number density = 19.557795 Si / 1000 Ang^3
#
#
#
# Elastic Constant Matrix: (Units=GPa)
#
#
# Indices 1 2 3 4 5 6 
#
# 1 62.9647 7.2352 39.0540 0.0000 0.0000 0.0000
# 2 7.2352 62.9647 39.0540 0.0000 0.0000 0.0000
# 3 39.0540 39.0540 104.8033 0.0000 0.0000 0.0000
# 4 0.0000 0.0000 0.0000 23.7221 0.0000 0.0000
# 5 0.0000 0.0000 0.0000 0.0000 23.7221 0.0000
# 6 0.0000 0.0000 0.0000 0.0000 0.0000 27.8648
#
#
#
# Elastic Compliance Matrix: (Units=1/GPa)
#
#
# Indices 1 2 3 4 5 6 
#
# 1 0.021139 0.003195 -0.009068 0.000000 0.000000 0.000000
# 2 0.003195 0.021139 -0.009068 0.000000 0.000000 0.000000
# 3 -0.009068 -0.009068 0.016300 0.000000 0.000000 0.000000
# 4 0.000000 0.000000 0.000000 0.042155 0.000000 0.000000
# 5 0.000000 0.000000 0.000000 0.000000 0.042155 0.000000
# 6 0.000000 0.000000 0.000000 0.000000 0.000000 0.035888
#
#
# Mechanical properties :
#
#
# Convention : Reuss Voigt Hill
#
# Bulk Modulus (GPa) = 34.84698 44.60212 39.72455
# Shear Modulus (GPa) = 22.91240 24.75444 23.83342
#
# Velocity S-wave (km/s) = 3.42646 3.56154 3.49465
# Velocity P-wave (km/s) = 5.78881 6.30615 6.05301
#
# Compressibility (1/GPa) = 0.02869689
#
# Stress axis : x y z
#
# Youngs Moduli (GPa) = 47.30549 47.30549 61.35000
#
# Poissons Ratio (x) = -0.15116 0.55632
# Poissons Ratio (y) = -0.15116 0.55632
# Poissons Ratio (z) = 0.42897 0.42897
#
# Static dielectric constant tensor:
#      x y z
#    x 1.671100 0.000000 0.000000 
#    y 0.000000 1.671100 0.000000 
#    z 0.000000 0.000000 1.689470 
# 
# From -- ./inp_files/1825.got.cif
#   From: 2010.05.17/outbox.cif.g08.bks.cpg/sg189_1_cif.got.tgz:1825.got - 2010.05.20 12:14:34.
