data_PCOD9586259
_publ_section_title
;
Structure prediction by ZEFSAII (Michael W. Deem and Ramdas Pophale) SiO2 
 PCOD9586259
Probable space group: P -6 2 M
;
_chemical_formula_sum "Si O2"
_cell_formula_units_Z 72
_cell_length_a 23.860107
_cell_length_b 23.860107
_cell_length_c 8.853976
_cell_angle_alpha 90.000000
_cell_angle_beta 90.000000
_cell_angle_gamma 120.000000
_cell_volume 4365.296487
_symmetry_space_group_name_H-M "P -6 2 M"
_symmetry_group_IT_number 189
_symmetry_cell_setting 'hexagonal'
loop_
_space_group_symop_operation_xyz
x,y,z
-x+y,-x,-z
-y,x-y,z
x,y,-z
-x+y,-x,z
-y,x-y,-z
x-y,-y,-z
-x,-x+y,-z
y,x,-z
y,x,z
x-y,-y,z
-x,-x+y,z
loop_
_atom_site_type_symbol
_atom_site_label
_atom_site_fract_x
_atom_site_fract_y
_atom_site_fract_z
Si Si1 0.073710 0.339628 0.818752
Si Si2 0.594065 0.126780 0.179942
Si Si3 0.519418 0.661927 0.321276
Si Si4 0.411583 0.411583 0.319131
Si Si5 0.665005 0.864625 0.819227
Si Si6 0.000000 0.721626 0.319965
Si Si7 0.794781 0.522555 0.679267
O O1 0.096332 0.408053 0.738888
O O2 0.126792 0.318728 0.781778
O O3 0.000000 0.288585 0.778718
O O4 0.076988 0.349956 0.000000
O O5 0.532421 0.130863 0.235393
O O6 0.591127 0.063091 0.249394
O O7 0.660316 0.186481 0.243506
O O8 0.595853 0.124643 0.000000
O O9 0.516389 0.649064 0.500000
O O10 0.505585 0.721158 0.297324
O O11 0.418387 0.418387 0.500000
O O12 0.345237 0.345237 0.285919
O O13 0.712956 0.934343 0.750435
O O14 0.593668 0.839361 0.750191
O O15 0.662036 0.869103 0.000000
O O16 0.000000 0.728218 0.500000
O O17 0.807354 0.525805 0.500000
#
# Coordination Sequence:
#
# PCOD9586259 Si02
#       7
#    12  12  12   6  12   6  12
#     4   9  19  36  56  79 109 141 174 214 259 306
#     4  12  24  37  56  79 105 135 174 225 275 323
#     4  10  22  38  56  76 102 138 178 220 266 320
#     4  11  23  37  55  77 106 140 174 215 266 325
#     4  10  19  32  54  80 107 138 171 210 256 308
#     4  11  21  33  53  79 110 144 172 211 256 311
#     4  10  20  37  56  74  99 134 173 216 268 321
#
# _framework density 16.493725000000001
#
# number of rings (size 3 to 8) (size 9 to 14) (size 15 to 20)
#    0.000    1.667    1.667    3.500    1.167    3.667 
#    1.000    0.000    0.000    0.000    0.000    0.000 
#    0.833    0.000    1.500    0.000    0.500    0.000 
#
# Total GULP energy -402162.755665 kJ/mol
# GULP energy per Si atom -5585.593829 kJ/mol
# Density = 1.645618 g / cm^3
# Si number density = 16.493725 Si / 1000 Ang^3
#
#
#
# Elastic Constant Matrix: (Units=GPa)
#
#
# Indices 1 2 3 4 5 6 
#
# 1 98.5979 61.0542 55.8610 0.0000 0.0000 0.0000
# 2 61.0542 98.5979 55.8610 0.0000 0.0000 0.0000
# 3 55.8610 55.8610 81.1522 0.0000 0.0000 0.0000
# 4 0.0000 0.0000 0.0000 25.4973 0.0000 0.0000
# 5 0.0000 0.0000 0.0000 0.0000 25.4973 0.0000
# 6 0.0000 0.0000 0.0000 0.0000 0.0000 18.7718
#
#
#
# Elastic Compliance Matrix: (Units=1/GPa)
#
#
# Indices 1 2 3 4 5 6 
#
# 1 0.019360 -0.007275 -0.008319 0.000000 0.000000 0.000000
# 2 -0.007275 0.019360 -0.008319 0.000000 0.000000 0.000000
# 3 -0.008319 -0.008319 0.023775 0.000000 0.000000 0.000000
# 4 0.000000 0.000000 0.000000 0.039220 0.000000 0.000000
# 5 0.000000 0.000000 0.000000 0.000000 0.039220 0.000000
# 6 0.000000 0.000000 0.000000 0.000000 0.000000 0.053271
#
#
# Mechanical properties :
#
#
# Convention : Reuss Voigt Hill
#
# Bulk Modulus (GPa) = 68.16614 69.32226 68.74420
# Shear Modulus (GPa) = 20.24937 20.99140 20.62039
#
# Velocity S-wave (km/s) = 3.50766 3.57135 3.53965
# Velocity P-wave (km/s) = 7.60415 7.68939 7.64689
#
# Compressibility (1/GPa) = 0.01467004
#
# Stress axis : x y z
#
# Youngs Moduli (GPa) = 51.65225 51.65225 42.06160
#
# Poissons Ratio (x) = 0.37579 0.34989
# Poissons Ratio (y) = 0.37579 0.34989
# Poissons Ratio (z) = 0.42967 0.42967
#
# Static dielectric constant tensor:
#      x y z
#    x 1.546670 0.000000 0.000000 
#    y 0.000000 1.546670 0.000000 
#    z 0.000000 0.000000 1.548410 
# 
# From -- ./inp_files/1337.got.cif
#   From: 2010.05.17/outbox.cif.g08.bks.cpg/sg189_1_cif.got.tgz:1337.got - 2010.05.20 12:14:34.
