data_PCOD9586622
_publ_section_title
;
Structure prediction by ZEFSAII (Michael W. Deem and Ramdas Pophale) SiO2 
 PCOD9586622
Probable space group: P -6 2 C
;
_chemical_formula_sum "Si O2"
_cell_formula_units_Z 60
_cell_length_a 10.695585
_cell_length_b 10.695585
_cell_length_c 30.431240
_cell_angle_alpha 90.000000
_cell_angle_beta 90.000000
_cell_angle_gamma 120.000000
_cell_volume 3014.805979
_symmetry_space_group_name_H-M "P -6 2 C"
_symmetry_group_IT_number 190
_symmetry_cell_setting 'hexagonal'
loop_
_space_group_symop_operation_xyz
x,y,z
-x+y,-x,1/2-z
-y,x-y,z
x,y,1/2-z
-x+y,-x,z
-y,x-y,1/2-z
x-y,-y,-z
-x,-x+y,-z
y,x,-z
y,x,1/2+z
x-y,-y,1/2+z
-x,-x+y,1/2+z
loop_
_atom_site_type_symbol
_atom_site_label
_atom_site_fract_x
_atom_site_fract_y
_atom_site_fract_z
Si Si1 0.333334 0.666668 0.010185
Si Si2 0.666667 0.333334 0.885059
Si Si3 0.168032 0.350646 0.156725
Si Si4 0.205223 0.478477 0.250000
Si Si5 0.335682 0.437142 0.635456
Si Si6 0.376746 0.055001 0.405620
Si Si7 0.333334 0.666667 0.801956
Si Si8 0.000000 0.427960 0.000000
O O1 0.333334 0.666667 0.062917
O O2 0.424056 0.584349 0.997355
O O3 0.745047 0.492721 0.865897
O O4 0.145391 0.382866 0.206630
O O5 0.279614 0.294519 0.151543
O O6 0.026023 0.269088 0.127508
O O7 0.181192 0.617450 0.250000
O O8 0.493336 0.528324 0.613836
O O9 0.223366 0.431002 0.599351
O O10 0.331817 0.528395 0.676770
O O11 0.347731 0.997262 0.454932
O O12 0.333334 0.666668 0.750000
#
# Coordination Sequence:
#
# PCOD9586622 Si02
#       8
#     4   4  12   6  12  12   4   6
#     4  12  24  40  68 103 135 172 236 277 345 403
#     4  12  18  37  62  91 117 157 200 271 318 370
#     4  12  20  38  62  91 125 160 207 263 322 373
#     4  10  18  30  56  94 122 146 204 264 310 368
#     4  10  22  41  61  87 133 165 206 267 318 381
#     4  11  23  41  62  92 126 168 214 264 325 384
#     4   9  21  40  62  94 126 172 212 253 324 388
#     4  12  24  40  70 100 132 176 224 280 336 408
#
# _framework density 19.901779000000001
#
# number of rings (size 3 to 8) (size 9 to 14) (size 15 to 20)
#    0.200    0.800    6.000    1.600    1.400    0.000 
#    8.400    0.000    0.000    0.400    0.000    0.000 
#    0.000    0.000    0.000    0.000    0.000    0.000 
#
# Total GULP energy -334684.365218 kJ/mol
# GULP energy per Si atom -5578.072754 kJ/mol
# Density = 1.985648 g / cm^3
# Si number density = 19.901779 Si / 1000 Ang^3
#
#
#
# Elastic Constant Matrix: (Units=GPa)
#
#
# Indices 1 2 3 4 5 6 
#
# 1 78.5381 24.4891 32.4319 0.0007 -0.0015 -0.0008
# 2 24.4891 78.5381 32.4327 -0.0009 0.0017 0.0008
# 3 32.4319 32.4327 163.3382 0.0005 -0.0003 0.0000
# 4 0.0007 -0.0009 0.0005 33.8042 -0.0020 -0.0016
# 5 -0.0015 0.0017 -0.0003 -0.0020 33.8152 -0.0008
# 6 -0.0008 0.0008 0.0000 -0.0016 -0.0008 27.0257
#
#
#
# Elastic Compliance Matrix: (Units=1/GPa)
#
#
# Indices 1 2 3 4 5 6 
#
# 1 0.014797 -0.003704 -0.002203 0.000000 0.000001 0.000001
# 2 -0.003704 0.014797 -0.002203 0.000001 -0.000001 -0.000001
# 3 -0.002203 -0.002203 0.006997 0.000000 0.000000 0.000000
# 4 0.000000 0.000001 0.000000 0.029582 0.000002 0.000002
# 5 0.000001 -0.000001 0.000000 0.000002 0.029573 0.000001
# 6 0.000001 -0.000001 0.000000 0.000002 0.000001 0.037002
#
#
# Mechanical properties :
#
#
# Convention : Reuss Voigt Hill
#
# Bulk Modulus (GPa) = 49.08609 55.45797 52.27203
# Shear Modulus (GPa) = 32.10106 34.33306 33.21706
#
# Velocity S-wave (km/s) = 4.02054 4.15797 4.08983
# Velocity P-wave (km/s) = 6.80226 7.13988 6.97311
#
# Compressibility (1/GPa) = 0.02037237
#
# Stress axis : x y z
#
# Youngs Moduli (GPa) = 67.57992 67.57969 142.91920
#
# Poissons Ratio (x) = 0.25034 0.31479
# Poissons Ratio (y) = 0.25034 0.31480
# Poissons Ratio (z) = 0.14885 0.14885
#
# Static dielectric constant tensor:
#      x y z
#    x 1.700110 0.000000 0.000000 
#    y 0.000000 1.700100 0.000000 
#    z 0.000000 0.000000 1.690400 
# 
# From -- ./inp_files/5130.got.cif
#   From: 2010.05.17/outbox.cif.g08.bks.cpg/sg190_3_cif.got.tgz:5130.got - 2010.05.20 12:16:56.
