data_PCOD9586526
_publ_section_title
;
Structure prediction by ZEFSAII (Michael W. Deem and Ramdas Pophale) SiO2 
 PCOD9586526
Probable space group: P -6 2 M
;
_chemical_formula_sum "Si O2"
_cell_formula_units_Z 57
_cell_length_a 14.386466
_cell_length_b 14.386466
_cell_length_c 14.050218
_cell_angle_alpha 90.000000
_cell_angle_beta 90.000000
_cell_angle_gamma 120.000000
_cell_volume 2518.383943
_symmetry_space_group_name_H-M "P -6 2 M"
_symmetry_group_IT_number 189
_symmetry_cell_setting 'hexagonal'
loop_
_space_group_symop_operation_xyz
x,y,z
-x+y,-x,-z
-y,x-y,z
x,y,-z
-x+y,-x,z
-y,x-y,-z
x-y,-y,-z
-x,-x+y,-z
y,x,-z
y,x,z
x-y,-y,z
-x,-x+y,z
loop_
_atom_site_type_symbol
_atom_site_label
_atom_site_fract_x
_atom_site_fract_y
_atom_site_fract_z
Si Si1 0.127974 0.874454 0.500000
Si Si2 0.125605 0.254300 0.713877
Si Si3 0.589976 0.123929 0.840875
Si Si4 0.766941 0.593013 0.896942
Si Si5 0.638153 0.204255 0.629798
Si Si6 0.431982 0.431982 0.500000
O O1 0.162000 0.857521 0.393896
O O2 0.000000 0.796182 0.500000
O O3 0.162356 0.000000 0.500000
O O4 0.200665 0.200665 0.721869
O O5 0.145479 0.332860 0.802745
O O6 0.000000 0.163970 0.717448
O O7 0.491949 0.133659 0.882763
O O8 0.697695 0.174634 0.900511
O O9 0.626438 0.185823 0.741540
O O10 0.548579 0.000000 0.824231
O O11 0.783963 0.649025 0.000000
O O12 0.752092 0.308489 0.605411
O O13 0.610825 0.095283 0.580467
#
# Coordination Sequence:
#
# PCOD9586526 Si02
#       6
#     6  12  12  12  12   3
#     4   8  15  32  62  95 128 170 221 266 319 386
#     4  10  21  40  68 102 140 180 224 279 339 412
#     4  12  24  45  72  96 132 183 235 286 357 421
#     4  12  26  45  70 100 135 175 228 297 354 413
#     4  10  21  41  65 101 142 181 229 288 345 415
#     4  12  20  36  72 102 134 192 228 272 360 404
#
# _framework density 22.633561
#
# number of rings (size 3 to 8) (size 9 to 14) (size 15 to 20)
#    0.421    0.842    3.158    3.263    0.000    5.895 
#    0.000    2.105    4.632    1.263    0.000    0.000 
#    0.000    0.000    0.000   20.211    0.000    0.000 
#
# Total GULP energy -317591.571803 kJ/mol
# GULP energy per Si atom -5571.781961 kJ/mol
# Density = 2.258205 g / cm^3
# Si number density = 22.633561 Si / 1000 Ang^3
#
#
#
# Elastic Constant Matrix: (Units=GPa)
#
#
# Indices 1 2 3 4 5 6 
#
# 1 60.4980 24.6384 23.5375 0.0000 0.0000 0.0000
# 2 24.6384 60.4980 23.5375 0.0000 0.0000 0.0000
# 3 23.5375 23.5375 224.8206 0.0000 0.0000 0.0000
# 4 0.0000 0.0000 0.0000 258.8814 0.0000 0.0000
# 5 0.0000 0.0000 0.0000 0.0000 258.8814 0.0000
# 6 0.0000 0.0000 0.0000 0.0000 0.0000 17.9298
#
#
#
# Elastic Compliance Matrix: (Units=1/GPa)
#
#
# Indices 1 2 3 4 5 6 
#
# 1 0.020177 -0.007709 -0.001305 0.000000 0.000000 0.000000
# 2 -0.007709 0.020177 -0.001305 0.000000 0.000000 0.000000
# 3 -0.001305 -0.001305 0.004721 0.000000 0.000000 0.000000
# 4 0.000000 0.000000 0.000000 0.003863 0.000000 0.000000
# 5 0.000000 0.000000 0.000000 0.000000 0.003863 0.000000
# 6 0.000000 0.000000 0.000000 0.000000 0.000000 0.055773
#
#
# Mechanical properties :
#
#
# Convention : Reuss Voigt Hill
#
# Bulk Modulus (GPa) = 40.92434 54.36036 47.64235
# Shear Modulus (GPa) = 36.40086 125.41206 80.90646
#
# Velocity S-wave (km/s) = 4.01467 7.45185 5.98530
# Velocity P-wave (km/s) = 6.29370 9.90504 8.29821
#
# Compressibility (1/GPa) = 0.02443533
#
# Stress axis : x y z
#
# Youngs Moduli (GPa) = 49.56119 49.56119 211.80588
#
# Poissons Ratio (x) = 0.38209 0.27647
# Poissons Ratio (y) = 0.38209 0.27647
# Poissons Ratio (z) = 0.06469 0.06469
#
# Static dielectric constant tensor:
#      x y z
#    x 1.842350 0.000000 0.000000 
#    y 0.000000 1.842350 0.000000 
#    z 0.000000 0.000000 1.934890 
# 
# From -- ./inp_files/2550.got.cif
#   From: 2010.05.17/outbox.cif.g08.bks.cpg/sg189_2_cif.got.tgz:2550.got - 2010.05.20 12:14:34.
