data_PCOD9586484
_publ_section_title
;
Structure prediction by ZEFSAII (Michael W. Deem and Ramdas Pophale) SiO2 
 PCOD9586484
Probable space group: P -6 2 M
;
_chemical_formula_sum "Si O2"
_cell_formula_units_Z 54
_cell_length_a 14.942534
_cell_length_b 14.942534
_cell_length_c 13.546352
_cell_angle_alpha 90.000000
_cell_angle_beta 90.000000
_cell_angle_gamma 120.000000
_cell_volume 2619.398012
_symmetry_space_group_name_H-M "P -6 2 M"
_symmetry_group_IT_number 189
_symmetry_cell_setting 'hexagonal'
loop_
_space_group_symop_operation_xyz
x,y,z
-x+y,-x,-z
-y,x-y,z
x,y,-z
-x+y,-x,z
-y,x-y,-z
x-y,-y,-z
-x,-x+y,-z
y,x,-z
y,x,z
x-y,-y,z
-x,-x+y,z
loop_
_atom_site_type_symbol
_atom_site_label
_atom_site_fract_x
_atom_site_fract_y
_atom_site_fract_z
Si Si1 0.876353 0.124965 0.000000
Si Si2 0.587496 0.782561 0.821915
Si Si3 0.567519 0.734957 0.615718
Si Si4 0.108815 0.603612 0.616866
Si Si5 0.450623 0.876598 0.887000
O O1 0.844182 0.168576 0.095031
O O2 0.000000 0.172765 0.000000
O O3 0.813723 0.000000 0.000000
O O4 0.636179 0.783629 0.713874
O O5 0.520414 0.840590 0.828201
O O6 0.502369 0.664244 0.848088
O O7 0.604557 0.751242 0.500000
O O8 0.497166 0.614208 0.634756
O O9 0.495349 0.785768 0.630180
O O10 0.098576 0.606886 0.500000
O O11 0.000000 0.584689 0.659870
O O12 0.509531 0.000000 0.887413
O O13 0.443407 0.839732 0.000000
#
# Coordination Sequence:
#
# PCOD9586484 Si02
#       5
#     6  12  12  12  12
#     4  12  27  48  70  90 112 148 205 272 332 378
#     4  12  23  38  64  94 129 168 205 244 296 368
#     4  10  21  35  55  87 125 166 208 246 289 348
#     4   9  18  34  54  78 116 163 206 244 282 334
#     4  11  22  39  61  90 127 163 200 245 299 355
#
# _framework density 20.615423
#
# number of rings (size 3 to 8) (size 9 to 14) (size 15 to 20)
#    0.000    1.333    2.222    3.667    0.000    7.111 
#    0.000    0.000    0.000    0.000    0.000    0.000 
#    0.000    1.778    0.000    0.000    0.000    0.000 
#
# Total GULP energy -300875.682483 kJ/mol
# GULP energy per Si atom -5571.771898 kJ/mol
# Density = 2.056850 g / cm^3
# Si number density = 20.615423 Si / 1000 Ang^3
#
#
#
# Elastic Constant Matrix: (Units=GPa)
#
#
# Indices 1 2 3 4 5 6 
#
# 1 108.8713 11.1122 7.4963 0.0000 0.0000 0.0000
# 2 11.1122 108.8713 7.4963 0.0000 0.0000 0.0000
# 3 7.4963 7.4963 123.7646 0.0000 0.0000 0.0000
# 4 0.0000 0.0000 0.0000 8.9048 0.0000 0.0000
# 5 0.0000 0.0000 0.0000 0.0000 8.9048 0.0000
# 6 0.0000 0.0000 0.0000 0.0000 0.0000 48.8796
#
#
#
# Elastic Compliance Matrix: (Units=1/GPa)
#
#
# Indices 1 2 3 4 5 6 
#
# 1 0.009314 -0.000916 -0.000509 0.000000 0.000000 0.000000
# 2 -0.000916 0.009314 -0.000509 0.000000 0.000000 0.000000
# 3 -0.000509 -0.000509 0.008141 0.000000 0.000000 0.000000
# 4 0.000000 0.000000 0.000000 0.112299 0.000000 0.000000
# 5 0.000000 0.000000 0.000000 0.000000 0.112299 0.000000
# 6 0.000000 0.000000 0.000000 0.000000 0.000000 0.020458
#
#
# Mechanical properties :
#
#
# Convention : Reuss Voigt Hill
#
# Bulk Modulus (GPa) = 43.66259 43.74632 43.70445
# Shear Modulus (GPa) = 17.64753 34.36466 26.00609
#
# Velocity S-wave (km/s) = 2.92898 4.08725 3.55560
# Velocity P-wave (km/s) = 5.71525 6.59851 6.17270
#
# Compressibility (1/GPa) = 0.02290290
#
# Stress axis : x y z
#
# Youngs Moduli (GPa) = 107.36952 107.36952 122.82792
#
# Poissons Ratio (x) = 0.09831 0.06248
# Poissons Ratio (y) = 0.09831 0.06248
# Poissons Ratio (z) = 0.05461 0.05461
#
# Static dielectric constant tensor:
#      x y z
#    x 1.626250 0.000000 0.000000 
#    y 0.000000 1.626250 0.000000 
#    z 0.000000 0.000000 1.967140 
# 
# From -- ./inp_files/2456.got.cif
#   From: 2010.05.17/outbox.cif.g08.bks.cpg/sg189_2_cif.got.tgz:2456.got - 2010.05.20 12:14:34.
