data_PCOD9586870
_publ_section_title
;
Structure prediction by ZEFSAII (Michael W. Deem and Ramdas Pophale) SiO2 
 PCOD9586870
Probable space group: P -6 2 C
;
_chemical_formula_sum "Si O2"
_cell_formula_units_Z 52
_cell_length_a 14.953984
_cell_length_b 14.953984
_cell_length_c 13.832402
_cell_angle_alpha 90.000000
_cell_angle_beta 90.000000
_cell_angle_gamma 120.000000
_cell_volume 2678.810897
_symmetry_space_group_name_H-M "P -6 2 C"
_symmetry_group_IT_number 190
_symmetry_cell_setting 'hexagonal'
loop_
_space_group_symop_operation_xyz
x,y,z
-x+y,-x,1/2-z
-y,x-y,z
x,y,1/2-z
-x+y,-x,z
-y,x-y,1/2-z
x-y,-y,-z
-x,-x+y,-z
y,x,-z
y,x,1/2+z
x-y,-y,1/2+z
-x,-x+y,1/2+z
loop_
_atom_site_type_symbol
_atom_site_label
_atom_site_fract_x
_atom_site_fract_y
_atom_site_fract_z
Si Si1 0.293731 0.449927 0.562680
Si Si2 0.880146 0.083564 0.640565
Si Si3 0.928155 0.588545 0.857202
Si Si4 0.902083 0.147781 0.367837
Si Si5 0.666667 0.333334 0.364107
O O1 0.366545 0.415887 0.620366
O O2 0.334605 0.469551 0.452236
O O3 0.178912 0.351162 0.579025
O O4 0.299741 0.552241 0.601039
O O5 0.912456 0.077243 0.750000
O O6 0.775631 0.088110 0.643629
O O7 0.977316 0.189503 0.605938
O O8 0.840347 0.968885 0.601768
O O9 0.901779 0.540596 0.750000
O O10 0.886375 0.150978 0.250000
O O11 0.666667 0.333334 0.250000
#
# Coordination Sequence:
#
# PCOD9586870 Si02
#       5
#    12  12  12  12   4
#     4  10  21  36  59  83 110 149 192 235 290 338
#     4   8  14  24  45  74 111 150 184 224 280 340
#     4   9  18  37  58  80 111 149 186 232 287 345
#     4   9  15  27  47  79 115 149 186 230 280 344
#     4  12  24  42  64  89 115 147 195 249 286 323
#
# _framework density 19.411597
#
# number of rings (size 3 to 8) (size 9 to 14) (size 15 to 20)
#    0.000    2.769    0.000    3.923    0.000    2.769 
#    0.000    5.769    0.000    5.538    0.000    0.000 
#    0.000    0.000    0.000    0.000    0.000    0.000 
#
# Total GULP energy -289579.272899 kJ/mol
# GULP energy per Si atom -5568.832171 kJ/mol
# Density = 1.936742 g / cm^3
# Si number density = 19.411597 Si / 1000 Ang^3
#
#
#
# Elastic Constant Matrix: (Units=GPa)
#
#
# Indices 1 2 3 4 5 6 
#
# 1 71.6346 56.5385 30.5540 0.0000 0.0000 0.0001
# 2 56.5385 71.6362 30.5543 0.0000 0.0001 0.0000
# 3 30.5540 30.5543 129.9944 -0.0001 0.0000 -0.0001
# 4 0.0000 0.0000 -0.0001 14.1470 0.0000 -0.0001
# 5 0.0000 0.0001 0.0000 0.0000 14.1469 0.0000
# 6 0.0001 0.0000 -0.0001 -0.0001 0.0000 7.5478
#
#
#
# Elastic Compliance Matrix: (Units=1/GPa)
#
#
# Indices 1 2 3 4 5 6 
#
# 1 0.037513 -0.028726 -0.002065 0.000000 0.000000 0.000000
# 2 -0.028726 0.037512 -0.002065 0.000000 0.000000 0.000000
# 3 -0.002065 -0.002065 0.008663 0.000000 0.000000 0.000000
# 4 0.000000 0.000000 0.000000 0.070687 0.000000 0.000001
# 5 0.000000 0.000000 0.000000 0.000000 0.070687 0.000000
# 6 0.000000 0.000000 0.000000 0.000001 0.000000 0.132488
#
#
# Mechanical properties :
#
#
# Convention : Reuss Voigt Hill
#
# Bulk Modulus (GPa) = 55.63074 56.50654 56.06864
# Shear Modulus (GPa) = 11.64806 17.54288 14.59547
#
# Velocity S-wave (km/s) = 2.45226 3.00948 2.74504
# Velocity P-wave (km/s) = 6.06126 6.42252 6.24450
#
# Compressibility (1/GPa) = 0.01797567
#
# Stress axis : x y z
#
# Youngs Moduli (GPa) = 26.65726 26.65787 115.42737
#
# Poissons Ratio (x) = 0.76578 0.23839
# Poissons Ratio (y) = 0.76576 0.23838
# Poissons Ratio (z) = 0.05505 0.05505
#
# Static dielectric constant tensor:
#      x y z
#    x 1.663670 0.000000 0.000000 
#    y 0.000000 1.663670 0.000000 
#    z 0.000000 0.000000 1.817250 
# 
# From -- ./inp_files/2688.got.cif
#   From: 2010.05.17/outbox.cif.g08.bks.cpg/sg190_2_cif.got.tgz:2688.got - 2010.05.20 12:16:56.
