data_PCOD9586776
_publ_section_title
;
Structure prediction by ZEFSAII (Michael W. Deem and Ramdas Pophale) SiO2 
 PCOD9586776
Probable space group: P -6 2 C
;
_chemical_formula_sum "Si O2"
_cell_formula_units_Z 90
_cell_length_a 25.439424
_cell_length_b 25.439424
_cell_length_c 9.650620
_cell_angle_alpha 90.000000
_cell_angle_beta 90.000000
_cell_angle_gamma 120.000000
_cell_volume 5408.793420
_symmetry_space_group_name_H-M "P -6 2 C"
_symmetry_group_IT_number 190
_symmetry_cell_setting 'hexagonal'
loop_
_space_group_symop_operation_xyz
x,y,z
-x+y,-x,1/2-z
-y,x-y,z
x,y,1/2-z
-x+y,-x,z
-y,x-y,1/2-z
x-y,-y,-z
-x,-x+y,-z
y,x,-z
y,x,1/2+z
x-y,-y,1/2+z
-x,-x+y,1/2+z
loop_
_atom_site_type_symbol
_atom_site_label
_atom_site_fract_x
_atom_site_fract_y
_atom_site_fract_z
Si Si1 0.132273 0.631450 0.091882
Si Si2 0.704418 0.290501 0.250000
Si Si3 0.478226 0.625964 0.407912
Si Si4 0.745858 0.493884 0.524127
Si Si5 0.054949 0.420192 0.906334
Si Si6 0.635910 0.815743 0.083831
Si Si7 0.303700 0.364166 0.084265
Si Si8 0.704604 0.762896 0.911045
O O1 0.111956 0.615470 0.250000
O O2 0.136299 0.574662 0.036713
O O3 0.200260 0.688175 0.092900
O O4 0.088522 0.654436 0.031445
O O5 0.632064 0.268125 0.250000
O O6 0.726051 0.267234 0.379551
O O7 0.495371 0.619796 0.250000
O O8 0.463106 0.680063 0.405417
O O9 0.532595 0.647198 0.514556
O O10 0.773955 0.566983 0.527596
O O11 0.052273 0.438647 0.750000
O O12 0.051874 0.355575 0.902555
O O13 0.000000 0.412950 0.000000
O O14 0.635755 0.803118 0.250000
O O15 0.650347 0.884882 0.068066
O O16 0.681935 0.802212 0.997864
O O17 0.313212 0.361791 0.250000
O O18 0.321337 0.321337 0.000000
O O19 0.722477 0.782521 0.750000
O O20 0.752944 0.752944 0.000000
#
# Coordination Sequence:
#
# PCOD9586776 Si02
#       8
#    12   6  12  12  12  12  12  12
#     4   9  20  37  52  73  97 124 167 216 270 330
#     4  10  24  38  48  68 100 132 158 222 282 336
#     4  11  21  33  55  75  95 126 166 210 262 325
#     4  11  20  35  54  68  97 129 169 208 270 330
#     4  10  21  35  51  72 102 129 161 199 245 301
#     4  10  20  34  57  83 109 139 178 225 274 326
#     4   9  19  37  56  76 104 136 173 225 272 320
#     4  10  20  33  52  78 112 144 177 211 255 311
#
# _framework density 16.639571
#
# number of rings (size 3 to 8) (size 9 to 14) (size 15 to 20)
#    0.133    1.867    1.333    3.600    1.867    2.133 
#    5.600    1.333    0.000    0.000    0.000    0.000 
#    0.000    0.000    0.000    0.400    0.000    6.400 
#
# Total GULP energy -501067.246966 kJ/mol
# GULP energy per Si atom -5567.413855 kJ/mol
# Density = 1.660170 g / cm^3
# Si number density = 16.639571 Si / 1000 Ang^3
#
#
#
# Elastic Constant Matrix: (Units=GPa)
#
#
# Indices 1 2 3 4 5 6 
#
# 1 58.7665 37.3405 45.4878 0.0000 0.0000 0.0000
# 2 37.3405 58.7665 45.4878 0.0000 0.0000 0.0000
# 3 45.4878 45.4878 108.3210 0.0000 0.0000 0.0000
# 4 0.0000 0.0000 0.0000 23.0981 0.0000 0.0000
# 5 0.0000 0.0000 0.0000 0.0000 23.0981 0.0000
# 6 0.0000 0.0000 0.0000 0.0000 0.0000 10.7130
#
#
#
# Elastic Compliance Matrix: (Units=1/GPa)
#
#
# Indices 1 2 3 4 5 6 
#
# 1 0.031971 -0.014701 -0.007252 0.000000 0.000000 0.000000
# 2 -0.014701 0.031971 -0.007252 0.000000 0.000000 0.000000
# 3 -0.007252 -0.007252 0.015323 0.000000 0.000000 0.000000
# 4 0.000000 0.000000 0.000000 0.043294 0.000000 0.000000
# 5 0.000000 0.000000 0.000000 0.000000 0.043294 0.000000
# 6 0.000000 0.000000 0.000000 0.000000 0.000000 0.093345
#
#
# Mechanical properties :
#
#
# Convention : Reuss Voigt Hill
#
# Bulk Modulus (GPa) = 47.95288 53.60958 50.78123
# Shear Modulus (GPa) = 15.40549 17.88440 16.64494
#
# Velocity S-wave (km/s) = 3.04605 3.28199 3.16622
# Velocity P-wave (km/s) = 6.42280 6.83008 6.62957
#
# Compressibility (1/GPa) = 0.02085380
#
# Stress axis : x y z
#
# Youngs Moduli (GPa) = 31.27813 31.27813 65.26206
#
# Poissons Ratio (x) = 0.45982 0.47330
# Poissons Ratio (y) = 0.45982 0.47330
# Poissons Ratio (z) = 0.22684 0.22684
#
# Static dielectric constant tensor:
#      x y z
#    x 1.580660 0.000000 0.000000 
#    y 0.000000 1.580660 0.000000 
#    z 0.000000 0.000000 1.599100 
# 
# From -- ./inp_files/1466.got.cif
#   From: 2010.05.17/outbox.cif.g08.bks.cpg/sg190_1_cif.got.tgz:1466.got - 2010.05.20 12:16:56.
