data_PCOD9586405
_publ_section_title
;
Structure prediction by ZEFSAII (Michael W. Deem and Ramdas Pophale) SiO2 
 PCOD9586405
Probable space group: P -6 2 M
;
_chemical_formula_sum "Si O2"
_cell_formula_units_Z 96
_cell_length_a 16.029184
_cell_length_b 16.029184
_cell_length_c 24.866742
_cell_angle_alpha 90.000000
_cell_angle_beta 90.000000
_cell_angle_gamma 120.000000
_cell_volume 5533.148787
_symmetry_space_group_name_H-M "P -6 2 M"
_symmetry_group_IT_number 189
_symmetry_cell_setting 'hexagonal'
loop_
_space_group_symop_operation_xyz
x,y,z
-x+y,-x,-z
-y,x-y,z
x,y,-z
-x+y,-x,z
-y,x-y,-z
x-y,-y,-z
-x,-x+y,-z
y,x,-z
y,x,z
x-y,-y,z
-x,-x+y,z
loop_
_atom_site_type_symbol
_atom_site_label
_atom_site_fract_x
_atom_site_fract_y
_atom_site_fract_z
Si Si1 0.515533 0.114505 0.256993
Si Si2 0.556608 0.818971 0.758241
Si Si3 0.391414 0.114700 0.937304
Si Si4 0.579364 0.116715 0.938573
Si Si5 0.455809 0.568688 0.383474
Si Si6 0.884402 0.262874 0.562383
Si Si7 0.738981 0.110791 0.127836
Si Si8 0.115767 0.732307 0.362576
O O1 0.627031 0.158007 0.241037
O O2 0.476251 0.182733 0.235777
O O3 0.515989 0.120868 0.322108
O O4 0.453327 0.000000 0.242495
O O5 0.622022 0.875448 0.808587
O O6 0.606212 0.855747 0.700180
O O7 0.502271 0.148429 0.922718
O O8 0.346302 0.162711 0.900854
O O9 0.332345 0.000000 0.932326
O O10 0.390814 0.138949 0.000000
O O11 0.663368 0.140411 0.896769
O O12 0.517994 0.000000 0.940757
O O13 0.613580 0.149598 0.000000
O O14 0.503370 0.503370 0.395791
O O15 0.510745 0.659222 0.422283
O O16 0.342742 0.492655 0.383122
O O17 0.864942 0.236028 0.500000
O O18 0.826961 0.172843 0.601665
O O19 0.000000 0.316093 0.571149
O O20 0.697949 0.000000 0.113456
O O21 0.000000 0.680055 0.367094
#
# Coordination Sequence:
#
# PCOD9586405 Si02
#       8
#    12  12  12  12  12  12  12  12
#     4  10  20  36  56  77 108 150 192 233 282 336
#     4  11  22  35  54  81 114 151 193 234 280 337
#     4   9  19  37  58  79 106 142 186 231 277 335
#     4   8  16  33  53  72 100 139 177 220 273 323
#     4   8  16  33  53  74 100 136 178 220 269 322
#     4  10  20  35  55  79 108 141 182 231 278 332
#     4  11  22  34  53  81 113 144 182 230 279 330
#     4  10  20  36  57  78 109 147 183 227 276 331
#
# _framework density 17.349976999999999
#
# number of rings (size 3 to 8) (size 9 to 14) (size 15 to 20)
#    0.000    2.375    1.250    3.250    1.750    2.000 
#    1.500    1.250    0.000    0.500    0.000    0.000 
#    0.000    0.000    0.000    0.000    0.000    0.000 
#
# Total GULP energy -535084.481138 kJ/mol
# GULP energy per Si atom -5573.796679 kJ/mol
# Density = 1.731049 g / cm^3
# Si number density = 17.349977 Si / 1000 Ang^3
#
#
#
# Elastic Constant Matrix: (Units=GPa)
#
#
# Indices 1 2 3 4 5 6 
#
# 1 60.4120 19.7563 28.7800 0.0000 0.0000 0.0000
# 2 19.7563 60.4120 28.7800 0.0000 0.0000 0.0000
# 3 28.7800 28.7800 61.4893 0.0000 0.0000 0.0000
# 4 0.0000 0.0000 0.0000 20.5964 0.0000 0.0000
# 5 0.0000 0.0000 0.0000 0.0000 20.5964 0.0000
# 6 0.0000 0.0000 0.0000 0.0000 0.0000 20.3278
#
#
#
# Elastic Compliance Matrix: (Units=1/GPa)
#
#
# Indices 1 2 3 4 5 6 
#
# 1 0.021692 -0.002905 -0.008793 0.000000 0.000000 0.000000
# 2 -0.002905 0.021692 -0.008793 0.000000 0.000000 0.000000
# 3 -0.008793 -0.008793 0.024494 0.000000 0.000000 0.000000
# 4 0.000000 0.000000 0.000000 0.048552 0.000000 0.000000
# 5 0.000000 0.000000 0.000000 0.000000 0.048552 0.000000
# 6 0.000000 0.000000 0.000000 0.000000 0.000000 0.049194
#
#
# Mechanical properties :
#
#
# Convention : Reuss Voigt Hill
#
# Bulk Modulus (GPa) = 37.18085 37.43842 37.30963
# Shear Modulus (GPa) = 18.93044 19.30393 19.11718
#
# Velocity S-wave (km/s) = 3.30675 3.33921 3.32302
# Velocity P-wave (km/s) = 6.00466 6.04089 6.02280
#
# Compressibility (1/GPa) = 0.02689557
#
# Stress axis : x y z
#
# Youngs Moduli (GPa) = 46.09977 46.09977 40.82551
#
# Poissons Ratio (x) = 0.13391 0.35899
# Poissons Ratio (y) = 0.13391 0.35899
# Poissons Ratio (z) = 0.40537 0.40537
#
# Static dielectric constant tensor:
#      x y z
#    x 1.600600 0.000000 0.000000 
#    y 0.000000 1.600600 0.000000 
#    z 0.000000 0.000000 1.595080 
# 
# From -- ./inp_files/3710.got.cif
#   From: 2010.05.17/outbox.cif.g08.bks.cpg/sg189_2_cif.got.tgz:3710.got - 2010.05.20 12:14:34.
