data_PCOD9586756
_publ_section_title
;
Structure prediction by ZEFSAII (Michael W. Deem and Ramdas Pophale) SiO2 
 PCOD9586756
Probable space group: P -6 2 C
;
_chemical_formula_sum "Si O2"
_cell_formula_units_Z 30
_cell_length_a 6.823208
_cell_length_b 6.823208
_cell_length_c 27.840073
_cell_angle_alpha 90.000000
_cell_angle_beta 90.000000
_cell_angle_gamma 120.000000
_cell_volume 1122.478995
_symmetry_space_group_name_H-M "P -6 2 C"
_symmetry_group_IT_number 190
_symmetry_cell_setting 'hexagonal'
loop_
_space_group_symop_operation_xyz
x,y,z
-x+y,-x,1/2-z
-y,x-y,z
x,y,1/2-z
-x+y,-x,z
-y,x-y,1/2-z
x-y,-y,-z
-x,-x+y,-z
y,x,-z
y,x,1/2+z
x-y,-y,1/2+z
-x,-x+y,1/2+z
loop_
_atom_site_type_symbol
_atom_site_label
_atom_site_fract_x
_atom_site_fract_y
_atom_site_fract_z
Si Si1 0.617143 0.726677 0.353724
Si Si2 0.103759 0.383575 0.250000
Si Si3 0.880227 0.262205 0.048508
O O1 0.515279 0.895604 0.354461
O O2 0.726447 0.740395 0.301731
O O3 0.747502 0.738787 0.401787
O O4 0.105836 0.623625 0.250000
O O5 0.899716 0.510760 0.048112
O O6 0.000000 0.253516 0.000000
#
# Coordination Sequence:
#
# PCOD9586756 Si02
#       3
#    12   6  12
#     4   8  14  28  52  70  90 119 153 182 214 267
#     4   6  10  22  44  74  90 114 150 174 208 272
#     4  10  20  30  46  66  90 119 153 191 235 270
#
# _framework density 26.726559000000002
#
# number of rings (size 3 to 8) (size 9 to 14) (size 15 to 20)
#    2.000    1.600    0.000    2.400    0.000    0.000 
#    0.000    2.000    0.000   14.400    0.000    0.000 
#    0.000    0.000    0.000    0.000    0.000    0.000 
#
# Total GULP energy -167322.207094 kJ/mol
# GULP energy per Si atom -5577.406903 kJ/mol
# Density = 2.666573 g / cm^3
# Si number density = 26.726559 Si / 1000 Ang^3
#
#
#
# Elastic Constant Matrix: (Units=GPa)
#
#
# Indices 1 2 3 4 5 6 
#
# 1 100.6577 22.9794 59.0520 0.0000 0.0000 0.0000
# 2 22.9794 100.6577 59.0520 0.0000 0.0000 0.0000
# 3 59.0520 59.0520 358.8828 0.0000 0.0000 0.0000
# 4 0.0000 0.0000 0.0000 -27.4350 0.0000 0.0000
# 5 0.0000 0.0000 0.0000 0.0000 -27.4350 0.0000
# 6 0.0000 0.0000 0.0000 0.0000 0.0000 38.8392
#
#
#
# Elastic Compliance Matrix: (Units=1/GPa)
#
#
# Indices 1 2 3 4 5 6 
#
# 1 0.011235 -0.001639 -0.001579 0.000000 0.000000 0.000000
# 2 -0.001639 0.011235 -0.001579 0.000000 0.000000 0.000000
# 3 -0.001579 -0.001579 0.003306 0.000000 0.000000 0.000000
# 4 0.000000 0.000000 0.000000 -0.036450 0.000000 0.000000
# 5 0.000000 0.000000 0.000000 0.000000 -0.036450 0.000000
# 6 0.000000 0.000000 0.000000 0.000000 0.000000 0.025747
#
#
# Mechanical properties :
#
#
# Convention : Reuss Voigt Hill
#
# Bulk Modulus (GPa) = 61.79323 93.59610 77.69466
# Shear Modulus (GPa) = -782.67039 24.73480 -378.96780
#
# Velocity S-wave (km/s) = -17.13124 3.04546 -11.92067
# Velocity P-wave (km/s) = 19.18685 6.88929 12.66240
#
# Compressibility (1/GPa) = 0.01618300
#
# Stress axis : x y z
#
# Youngs Moduli (GPa) = 89.00681 89.00681 302.47354
#
# Poissons Ratio (x) = 0.14584 0.47762
# Poissons Ratio (y) = 0.14584 0.47762
# Poissons Ratio (z) = 0.14055 0.14055
#
# Static dielectric constant tensor:
#      x y z
#    x 2.087190 0.000000 0.000000 
#    y 0.000000 2.087190 0.000000 
#    z 0.000000 0.000000 2.031090 
# 
# From -- ./inp_files/4483.got.cif
#   From: 2010.05.17/outbox.cif.g08.bks.cpg/sg190_3_cif.got.tgz:4483.got - 2010.05.20 12:16:56.
