data_PCOD9586249
_publ_section_title
;
Structure prediction by ZEFSAII (Michael W. Deem and Ramdas Pophale) SiO2 
 PCOD9586249
Probable space group: P -6 2 M
;
_chemical_formula_sum "Si O2"
_cell_formula_units_Z 96
_cell_length_a 18.021239
_cell_length_b 18.021239
_cell_length_c 19.911407
_cell_angle_alpha 90.000000
_cell_angle_beta 90.000000
_cell_angle_gamma 120.000000
_cell_volume 5600.178554
_symmetry_space_group_name_H-M "P -6 2 M"
_symmetry_group_IT_number 189
_symmetry_cell_setting 'hexagonal'
loop_
_space_group_symop_operation_xyz
x,y,z
-x+y,-x,-z
-y,x-y,z
x,y,-z
-x+y,-x,z
-y,x-y,-z
x-y,-y,-z
-x,-x+y,-z
y,x,-z
y,x,z
x-y,-y,z
-x,-x+y,z
loop_
_atom_site_type_symbol
_atom_site_label
_atom_site_fract_x
_atom_site_fract_y
_atom_site_fract_z
Si Si1 0.902524 0.395770 0.077737
Si Si2 0.351466 0.454379 0.133521
Si Si3 0.633071 0.802941 0.924750
Si Si4 0.317849 0.102213 0.780749
Si Si5 0.897807 0.684650 0.339632
Si Si6 0.360330 0.102419 0.423211
Si Si7 0.103187 0.464186 0.701431
Si Si8 0.367346 0.470885 0.716589
O O1 0.866443 0.447616 0.116714
O O2 0.850819 0.294659 0.079858
O O3 0.000000 0.428467 0.101556
O O4 0.907757 0.421635 0.000000
O O5 0.404647 0.404647 0.128647
O O6 0.270834 0.408512 0.085568
O O7 0.324417 0.453221 0.210123
O O8 0.687990 0.812810 0.858146
O O9 0.671318 0.814440 0.000000
O O10 0.295595 0.156170 0.728116
O O11 0.414830 0.124506 0.759642
O O12 0.258340 0.000000 0.770136
O O13 0.840432 0.687798 0.399668
O O14 0.877161 0.585861 0.334403
O O15 0.000000 0.744883 0.345042
O O16 0.389777 0.121673 0.500000
O O17 0.435426 0.125289 0.368946
O O18 0.297493 0.000000 0.417345
O O19 0.136673 0.565254 0.706750
O O20 0.000000 0.418394 0.703478
O O21 0.424403 0.424403 0.717589
#
# Coordination Sequence:
#
# PCOD9586249 Si02
#       8
#    12  12  12  12  12  12  12  12
#     4   9  18  32  47  63  89 127 166 207 260 317
#     4  10  19  33  50  68  95 132 169 210 264 323
#     4  11  21  31  47  73 100 129 173 227 275 323
#     4  10  19  33  52  73 100 138 181 225 272 321
#     4  10  19  32  52  79 109 137 173 221 268 314
#     4   9  18  34  56  81 109 141 174 209 252 307
#     4   8  15  29  52  77  97 125 168 206 242 298
#     4   9  16  28  48  72  98 126 159 204 250 293
#
# _framework density 17.142309999999998
#
# number of rings (size 3 to 8) (size 9 to 14) (size 15 to 20)
#    0.000    2.500    1.250    2.625    0.000    3.750 
#    0.750    0.625    0.000    8.250    0.000    0.000 
#    0.000    0.000    0.000    0.000    0.000    0.000 
#
# Total GULP energy -534508.972997 kJ/mol
# GULP energy per Si atom -5567.801802 kJ/mol
# Density = 1.710329 g / cm^3
# Si number density = 17.142310 Si / 1000 Ang^3
#
#
#
# Elastic Constant Matrix: (Units=GPa)
#
#
# Indices 1 2 3 4 5 6 
#
# 1 51.2961 14.2898 15.1866 0.0000 0.0000 0.0000
# 2 14.2898 51.2961 15.1866 0.0000 0.0000 0.0000
# 3 15.1866 15.1866 94.9250 0.0000 0.0000 0.0000
# 4 0.0000 0.0000 0.0000 18.9612 0.0000 0.0000
# 5 0.0000 0.0000 0.0000 0.0000 18.9612 0.0000
# 6 0.0000 0.0000 0.0000 0.0000 0.0000 18.5032
#
#
#
# Elastic Compliance Matrix: (Units=1/GPa)
#
#
# Indices 1 2 3 4 5 6 
#
# 1 0.021745 -0.005278 -0.002635 0.000000 0.000000 0.000000
# 2 -0.005278 0.021745 -0.002635 0.000000 0.000000 0.000000
# 3 -0.002635 -0.002635 0.011378 0.000000 0.000000 0.000000
# 4 0.000000 0.000000 0.000000 0.052739 0.000000 0.000000
# 5 0.000000 0.000000 0.000000 0.000000 0.052739 0.000000
# 6 0.000000 0.000000 0.000000 0.000000 0.000000 0.054045
#
#
# Mechanical properties :
#
#
# Convention : Reuss Voigt Hill
#
# Bulk Modulus (GPa) = 29.60856 31.87147 30.74002
# Shear Modulus (GPa) = 20.26409 21.47539 20.86974
#
# Velocity S-wave (km/s) = 3.44191 3.54329 3.49297
# Velocity P-wave (km/s) = 5.75373 5.94748 5.85141
#
# Compressibility (1/GPa) = 0.03377401
#
# Stress axis : x y z
#
# Youngs Moduli (GPa) = 45.98797 45.98797 87.89199
#
# Poissons Ratio (x) = 0.24271 0.23155
# Poissons Ratio (y) = 0.24271 0.23155
# Poissons Ratio (z) = 0.12116 0.12116
#
# Static dielectric constant tensor:
#      x y z
#    x 1.589560 0.000000 0.000000 
#    y 0.000000 1.589560 0.000000 
#    z 0.000000 0.000000 1.618240 
# 
# From -- ./inp_files/3518.got.cif
#   From: 2010.05.17/outbox.cif.g08.bks.cpg/sg189_2_cif.got.tgz:3518.got - 2010.05.20 12:14:34.
