data_PCOD9586678
_publ_section_title
;
Structure prediction by ZEFSAII (Michael W. Deem and Ramdas Pophale) SiO2 
 PCOD9586678
Probable space group: P -6 2 C
;
_chemical_formula_sum "Si O2"
_cell_formula_units_Z 78
_cell_length_a 24.944695
_cell_length_b 24.944695
_cell_length_c 8.273822
_cell_angle_alpha 90.000000
_cell_angle_beta 90.000000
_cell_angle_gamma 120.000000
_cell_volume 4458.545484
_symmetry_space_group_name_H-M "P -6 2 C"
_symmetry_group_IT_number 190
_symmetry_cell_setting 'hexagonal'
loop_
_space_group_symop_operation_xyz
x,y,z
-x+y,-x,1/2-z
-y,x-y,z
x,y,1/2-z
-x+y,-x,z
-y,x-y,1/2-z
x-y,-y,-z
-x,-x+y,-z
y,x,-z
y,x,1/2+z
x-y,-y,1/2+z
-x,-x+y,1/2+z
loop_
_atom_site_type_symbol
_atom_site_label
_atom_site_fract_x
_atom_site_fract_y
_atom_site_fract_z
Si Si1 0.068879 0.708869 0.057659
Si Si2 0.378902 0.068958 0.940613
Si Si3 0.809138 0.625160 0.061947
Si Si4 0.069789 0.588015 0.445052
Si Si5 0.263264 0.522926 0.564602
Si Si6 0.479096 0.622872 0.448489
Si Si7 0.729883 0.408790 0.750000
O O1 0.068684 0.705999 0.250000
O O2 0.083303 0.655306 0.995569
O O3 0.121944 0.776148 0.004927
O O4 0.000000 0.688152 0.000000
O O5 0.382028 0.066192 0.750000
O O6 0.449702 0.097044 0.001310
O O7 0.358552 0.119109 0.983305
O O8 0.334362 0.000000 0.000000
O O9 0.811639 0.638629 0.250000
O O10 0.779551 0.550978 0.042279
O O11 0.071403 0.589512 0.250000
O O12 0.115961 0.564230 0.497131
O O13 0.000000 0.540204 0.500000
O O14 0.286103 0.538937 0.750000
O O15 0.208759 0.538985 0.531745
O O16 0.310647 0.553982 0.415395
O O17 0.479939 0.627174 0.250000
O O18 0.728012 0.343897 0.750000
#
# Coordination Sequence:
#
# PCOD9586678 Si02
#       7
#    12  12  12  12  12  12   6
#     4  10  20  34  52  75 103 135 173 217 264 320
#     4  10  19  31  51  77 107 140 174 213 258 317
#     4  10  21  36  55  78 103 136 175 219 261 319
#     4   9  18  30  45  69  97 127 162 205 256 312
#     4  10  21  37  56  76  98 127 175 215 264 329
#     4   9  17  31  50  72 102 135 168 208 265 320
#     4  10  24  40  54  70  94 132 162 226 268 320
#
# _framework density 17.494495000000001
#
# number of rings (size 3 to 8) (size 9 to 14) (size 15 to 20)
#    0.154    2.154    0.769    1.846    2.154    3.692 
#    0.000    1.538    0.000    0.000    0.000    0.000 
#    0.000    0.000    0.000    0.462    0.000    6.462 
#
# Total GULP energy -435354.376686 kJ/mol
# GULP energy per Si atom -5581.466368 kJ/mol
# Density = 1.745468 g / cm^3
# Si number density = 17.494495 Si / 1000 Ang^3
#
#
#
# Elastic Constant Matrix: (Units=GPa)
#
#
# Indices 1 2 3 4 5 6 
#
# 1 70.8293 47.2509 15.1170 0.0000 0.0000 0.0000
# 2 47.2509 70.8293 15.1170 0.0000 0.0000 0.0000
# 3 15.1170 15.1170 52.0872 0.0000 0.0000 0.0000
# 4 0.0000 0.0000 0.0000 21.4987 0.0000 0.0000
# 5 0.0000 0.0000 0.0000 0.0000 21.4987 0.0000
# 6 0.0000 0.0000 0.0000 0.0000 0.0000 11.7892
#
#
#
# Elastic Compliance Matrix: (Units=1/GPa)
#
#
# Indices 1 2 3 4 5 6 
#
# 1 0.025780 -0.016632 -0.002655 0.000000 0.000000 0.000000
# 2 -0.016632 0.025780 -0.002655 0.000000 0.000000 0.000000
# 3 -0.002655 -0.002655 0.020740 0.000000 0.000000 0.000000
# 4 0.000000 0.000000 0.000000 0.046514 0.000000 0.000000
# 5 0.000000 0.000000 0.000000 0.000000 0.046514 0.000000
# 6 0.000000 0.000000 0.000000 0.000000 0.000000 0.084824
#
#
# Mechanical properties :
#
#
# Convention : Reuss Voigt Hill
#
# Bulk Modulus (GPa) = 35.19092 38.74617 36.96854
# Shear Modulus (GPa) = 16.47400 18.70804 17.59102
#
# Velocity S-wave (km/s) = 3.07199 3.27367 3.17443
# Velocity P-wave (km/s) = 5.72206 6.04027 5.88332
#
# Compressibility (1/GPa) = 0.02841642
#
# Stress axis : x y z
#
# Youngs Moduli (GPa) = 38.78943 38.78943 48.21660
#
# Poissons Ratio (x) = 0.64513 0.12802
# Poissons Ratio (y) = 0.64513 0.12802
# Poissons Ratio (z) = 0.10299 0.10299
#
# Static dielectric constant tensor:
#      x y z
#    x 1.604940 0.000000 0.000000 
#    y 0.000000 1.604940 0.000000 
#    z 0.000000 0.000000 1.606220 
# 
# From -- ./inp_files/1332.got.cif
#   From: 2010.05.17/outbox.cif.g08.bks.cpg/sg190_1_cif.got.tgz:1332.got - 2010.05.20 12:16:56.
