data_PCOD9586144
_publ_section_title
;
Structure prediction by ZEFSAII (Michael W. Deem and Ramdas Pophale) SiO2 
 PCOD9586144
Probable space group: P -6 2 M
;
_chemical_formula_sum "Si O2"
_cell_formula_units_Z 66
_cell_length_a 20.236509
_cell_length_b 20.236509
_cell_length_c 10.066046
_cell_angle_alpha 90.000000
_cell_angle_beta 90.000000
_cell_angle_gamma 120.000000
_cell_volume 3569.938474
_symmetry_space_group_name_H-M "P -6 2 M"
_symmetry_group_IT_number 189
_symmetry_cell_setting 'hexagonal'
loop_
_space_group_symop_operation_xyz
x,y,z
-x+y,-x,-z
-y,x-y,z
x,y,-z
-x+y,-x,z
-y,x-y,-z
x-y,-y,-z
-x,-x+y,-z
y,x,-z
y,x,z
x-y,-y,z
-x,-x+y,z
loop_
_atom_site_type_symbol
_atom_site_label
_atom_site_fract_x
_atom_site_fract_y
_atom_site_fract_z
Si Si1 0.825522 0.167386 0.345604
Si Si2 0.514733 0.842747 0.760228
Si Si3 0.306023 0.569943 0.000000
Si Si4 0.486812 0.577977 0.648578
Si Si5 0.371893 0.371893 0.140718
Si Si6 0.744510 0.000000 0.345857
Si Si7 0.395922 0.091485 0.151697
O O1 0.846787 0.188648 0.500000
O O2 0.743074 0.160745 0.317538
O O3 0.816551 0.083710 0.322512
O O4 0.879359 0.228338 0.238100
O O5 0.476375 0.774849 0.866359
O O6 0.458272 0.854587 0.664996
O O7 0.550302 0.921438 0.845160
O O8 0.391326 0.644709 0.000000
O O9 0.510310 0.611237 0.500000
O O10 0.515145 0.515145 0.659384
O O11 0.529402 0.640137 0.762611
O O12 0.320206 0.320206 0.257674
O O13 0.336024 0.336024 0.000000
O O14 0.725289 0.000000 0.500000
O O15 0.348162 0.000000 0.145397
O O16 0.411362 0.121198 0.000000
#
# Coordination Sequence:
#
# PCOD9586144 Si02
#       7
#    12  12   6  12   6   6  12
#     4  10  21  36  59  84 112 145 177 224 278 330
#     4  11  21  34  55  74 104 135 178 224 279 326
#     4  10  26  39  46  68 100 144 180 226 271 317
#     4  10  21  36  56  80 106 137 179 229 277 329
#     4  10  18  30  50  80  96 126 170 221 266 323
#     4   8  18  34  52  82 116 140 168 209 270 331
#     4  10  23  39  57  81 111 147 187 231 275 324
#
# _framework density 18.487714
#
# number of rings (size 3 to 8) (size 9 to 14) (size 15 to 20)
#    0.182    1.818    1.818    1.091    5.091    2.545 
#    0.000    0.000    0.000    0.000    0.000    0.000 
#    0.909    0.000    0.545    0.000    0.727    0.000 
#
# Total GULP energy -367764.646679 kJ/mol
# GULP energy per Si atom -5572.191616 kJ/mol
# Density = 1.844563 g / cm^3
# Si number density = 18.487714 Si / 1000 Ang^3
#
#
#
# Elastic Constant Matrix: (Units=GPa)
#
#
# Indices 1 2 3 4 5 6 
#
# 1 40.5814 -8.0249 20.6367 0.0000 0.0000 0.0000
# 2 -8.0249 40.5814 20.6367 0.0000 0.0000 0.0000
# 3 20.6367 20.6367 91.2386 0.0000 0.0000 0.0000
# 4 0.0000 0.0000 0.0000 27.7179 0.0000 0.0000
# 5 0.0000 0.0000 0.0000 0.0000 27.7179 0.0000
# 6 0.0000 0.0000 0.0000 0.0000 0.0000 24.3031
#
#
#
# Elastic Compliance Matrix: (Units=1/GPa)
#
#
# Indices 1 2 3 4 5 6 
#
# 1 0.031819 0.011245 -0.009740 0.000000 0.000000 0.000000
# 2 0.011245 0.031819 -0.009740 0.000000 0.000000 0.000000
# 3 -0.009740 -0.009740 0.015367 0.000000 0.000000 0.000000
# 4 0.000000 0.000000 0.000000 0.036078 0.000000 0.000000
# 5 0.000000 0.000000 0.000000 0.000000 0.036078 0.000000
# 6 0.000000 0.000000 0.000000 0.000000 0.000000 0.041147
#
#
# Mechanical properties :
#
#
# Convention : Reuss Voigt Hill
#
# Bulk Modulus (GPa) = 15.99151 26.54430 21.26790
# Shear Modulus (GPa) = 21.77492 25.22467 23.49979
#
# Velocity S-wave (km/s) = 3.43564 3.69779 3.56912
# Velocity P-wave (km/s) = 4.94032 5.71143 5.33981
#
# Compressibility (1/GPa) = 0.06253318
#
# Stress axis : x y z
#
# Youngs Moduli (GPa) = 31.42793 31.42793 65.07649
#
# Poissons Ratio (x) = -0.35342 0.63387
# Poissons Ratio (y) = -0.35342 0.63387
# Poissons Ratio (z) = 0.30612 0.30612
#
# Static dielectric constant tensor:
#      x y z
#    x 1.669300 0.000000 0.000000 
#    y 0.000000 1.669300 0.000000 
#    z 0.000000 0.000000 1.647230 
# 
# From -- ./inp_files/1077.got.cif
#   From: 2010.05.17/outbox.cif.g08.bks.cpg/sg189_1_cif.got.tgz:1077.got - 2010.05.20 12:14:34.
