data_PCOD9586619
_publ_section_title
;
Structure prediction by ZEFSAII (Michael W. Deem and Ramdas Pophale) SiO2 
 PCOD9586619
Probable space group: P -6 2 C
;
_chemical_formula_sum "Si O2"
_cell_formula_units_Z 96
_cell_length_a 28.312432
_cell_length_b 28.312432
_cell_length_c 7.692083
_cell_angle_alpha 90.000000
_cell_angle_beta 90.000000
_cell_angle_gamma 120.000000
_cell_volume 5339.848628
_symmetry_space_group_name_H-M "P -6 2 C"
_symmetry_group_IT_number 190
_symmetry_cell_setting 'hexagonal'
loop_
_space_group_symop_operation_xyz
x,y,z
-x+y,-x,1/2-z
-y,x-y,z
x,y,1/2-z
-x+y,-x,z
-y,x-y,1/2-z
x-y,-y,-z
-x,-x+y,-z
y,x,-z
y,x,1/2+z
x-y,-y,1/2+z
-x,-x+y,1/2+z
loop_
_atom_site_type_symbol
_atom_site_label
_atom_site_fract_x
_atom_site_fract_y
_atom_site_fract_z
Si Si1 0.637515 0.462826 0.050839
Si Si2 0.823363 0.650465 0.037631
Si Si3 0.523805 0.760078 0.537391
Si Si4 0.369554 0.429635 0.541716
Si Si5 0.939121 0.274678 0.042308
Si Si6 0.939434 0.678711 0.458767
Si Si7 0.445907 0.061690 0.948752
Si Si8 0.361533 0.531735 0.963385
O O1 0.645118 0.450841 0.250000
O O2 0.697978 0.494467 0.973064
O O3 0.615213 0.505173 0.051951
O O4 0.591246 0.406243 0.972797
O O5 0.824006 0.651769 0.250000
O O6 0.794559 0.586928 0.984089
O O7 0.783010 0.672299 0.981706
O O8 0.886224 0.680468 0.979091
O O9 0.525673 0.759844 0.750000
O O10 0.490027 0.789323 0.486391
O O11 0.364448 0.429499 0.750000
O O12 0.417909 0.417909 0.500000
O O13 0.313334 0.377463 0.475783
O O14 0.376314 0.486130 0.478593
O O15 0.935010 0.277723 0.250000
O O16 0.933262 0.324889 0.969538
O O17 0.000000 0.287983 0.000000
O O18 0.935760 0.674747 0.250000
O O19 0.000000 0.727171 0.500000
O O20 0.392596 0.929658 0.250000
O O21 0.427430 0.000000 0.000000
O O22 0.363369 0.533130 0.750000
#
# Coordination Sequence:
#
# PCOD9586619 Si02
#       8
#    12  12  12  12  12  12  12  12
#     4  10  19  32  50  69  90 116 151 192 234 278
#     4   9  15  26  48  68  89 126 160 182 222 277
#     4   9  15  28  47  67  89 114 148 188 229 279
#     4   9  16  27  43  62  86 110 138 174 217 263
#     4  10  18  30  48  72  98 125 157 194 230 273
#     4   9  16  27  44  66  91 121 153 187 221 264
#     4  11  21  33  49  69  94 121 150 187 232 282
#     4   9  17  29  46  67  88 113 144 185 231 274
#
# _framework density 17.978038000000002
#
# number of rings (size 3 to 8) (size 9 to 14) (size 15 to 20)
#    0.000    2.500    2.500    2.250    0.000    0.500 
#    0.750    3.125    0.000    1.500    0.000    0.000 
#    0.000    0.000    0.000    0.375    0.000    4.500 
#
# Total GULP energy -535454.587014 kJ/mol
# GULP energy per Si atom -5577.651948 kJ/mol
# Density = 1.793712 g / cm^3
# Si number density = 17.978038 Si / 1000 Ang^3
#
#
#
# Elastic Constant Matrix: (Units=GPa)
#
#
# Indices 1 2 3 4 5 6 
#
# 1 104.9042 63.3445 -4.3525 0.0000 0.0000 0.0000
# 2 63.3445 104.9042 -4.3525 0.0000 0.0000 0.0000
# 3 -4.3525 -4.3525 34.1229 0.0000 0.0000 0.0000
# 4 0.0000 0.0000 0.0000 6.0774 0.0000 0.0000
# 5 0.0000 0.0000 0.0000 0.0000 6.0774 0.0000
# 6 0.0000 0.0000 0.0000 0.0000 0.0000 20.7799
#
#
#
# Elastic Compliance Matrix: (Units=1/GPa)
#
#
# Indices 1 2 3 4 5 6 
#
# 1 0.015022 -0.009039 0.000763 0.000000 0.000000 0.000000
# 2 -0.009039 0.015022 0.000763 0.000000 0.000000 0.000000
# 3 0.000763 0.000763 0.029500 0.000000 0.000000 0.000000
# 4 0.000000 0.000000 0.000000 0.164544 0.000000 0.000000
# 5 0.000000 0.000000 0.000000 0.000000 0.164544 0.000000
# 6 0.000000 0.000000 0.000000 0.000000 0.000000 0.048123
#
#
# Mechanical properties :
#
#
# Convention : Reuss Voigt Hill
#
# Bulk Modulus (GPa) = 22.46217 39.24558 30.85388
# Shear Modulus (GPa) = 10.71529 19.20640 14.96085
#
# Velocity S-wave (km/s) = 2.44400 3.27207 2.88787
# Velocity P-wave (km/s) = 4.52610 6.01269 5.32156
#
# Compressibility (1/GPa) = 0.04451929
#
# Stress axis : x y z
#
# Youngs Moduli (GPa) = 66.56729 66.56729 33.89774
#
# Poissons Ratio (x) = 0.60172 -0.02587
# Poissons Ratio (y) = 0.60172 -0.02587
# Poissons Ratio (z) = -0.05080 -0.05080
#
# Static dielectric constant tensor:
#      x y z
#    x 1.620590 0.000000 0.000000 
#    y 0.000000 1.620590 0.000000 
#    z 0.000000 0.000000 1.645550 
# 
# From -- ./inp_files/2183.got.cif
#   From: 2010.05.17/outbox.cif.g08.bks.cpg/sg190_2_cif.got.tgz:2183.got - 2010.05.20 12:16:56.
