data_PCOD9586143
_publ_section_title
;
Structure prediction by ZEFSAII (Michael W. Deem and Ramdas Pophale) SiO2 
 PCOD9586143
Probable space group: P -6 2 M
;
_chemical_formula_sum "Si O2"
_cell_formula_units_Z 66
_cell_length_a 13.868155
_cell_length_b 13.868155
_cell_length_c 21.674167
_cell_angle_alpha 90.000000
_cell_angle_beta 90.000000
_cell_angle_gamma 120.000000
_cell_volume 3610.026758
_symmetry_space_group_name_H-M "P -6 2 M"
_symmetry_group_IT_number 189
_symmetry_cell_setting 'hexagonal'
loop_
_space_group_symop_operation_xyz
x,y,z
-x+y,-x,-z
-y,x-y,z
x,y,-z
-x+y,-x,z
-y,x-y,-z
x-y,-y,-z
-x,-x+y,-z
y,x,-z
y,x,z
x-y,-y,z
-x,-x+y,z
loop_
_atom_site_type_symbol
_atom_site_label
_atom_site_fract_x
_atom_site_fract_y
_atom_site_fract_z
Si Si1 0.417426 0.543061 0.804208
Si Si2 0.262060 0.131860 0.500000
Si Si3 0.131659 0.868909 0.124704
Si Si4 0.775399 0.593025 0.244807
Si Si5 0.335702 0.470963 0.932273
Si Si6 0.264318 0.132281 0.635566
O O1 0.442666 0.442666 0.806762
O O2 0.311637 0.500091 0.760700
O O3 0.525037 0.649594 0.778848
O O4 0.383100 0.553951 0.874079
O O5 0.168235 0.168235 0.500000
O O6 0.318216 0.168883 0.567062
O O7 0.205294 0.000000 0.500000
O O8 0.156850 0.846950 0.194671
O O9 0.161174 0.788960 0.084318
O O10 0.000000 0.822871 0.117348
O O11 0.204320 0.000000 0.110739
O O12 0.799653 0.647584 0.311512
O O13 0.409692 0.409692 0.934944
O O14 0.340164 0.518314 0.000000
O O15 0.200942 0.200942 0.649302
O O16 0.175754 0.000000 0.633721
#
# Coordination Sequence:
#
# PCOD9586143 Si02
#       6
#    12   6  12  12  12  12
#     4  10  20  35  52  71  96 125 165 217 264 304
#     4   8  15  26  44  72 108 146 176 204 241 300
#     4  10  19  31  49  77 110 138 163 195 246 318
#     4  11  21  34  52  73  96 132 176 220 267 312
#     4   8  16  32  51  68  91 127 167 205 245 290
#     4  10  18  30  50  79 113 144 173 205 252 317
#
# _framework density 18.282412999999998
#
# number of rings (size 3 to 8) (size 9 to 14) (size 15 to 20)
#    0.000    2.364    0.000    5.182    0.000    1.818 
#    0.000    5.455    0.000    6.545    0.000    5.091 
#    0.000    0.000    0.000    0.000    0.000    0.000 
#
# Total GULP energy -367829.342270 kJ/mol
# GULP energy per Si atom -5573.171853 kJ/mol
# Density = 1.824080 g / cm^3
# Si number density = 18.282413 Si / 1000 Ang^3
#
#
#
# Elastic Constant Matrix: (Units=GPa)
#
#
# Indices 1 2 3 4 5 6 
#
# 1 65.3252 17.6527 37.7795 0.0000 0.0000 0.0000
# 2 17.6527 65.3252 37.7795 0.0000 0.0000 0.0000
# 3 37.7795 37.7795 132.3647 0.0000 0.0000 0.0000
# 4 0.0000 0.0000 0.0000 19.3108 0.0000 0.0000
# 5 0.0000 0.0000 0.0000 0.0000 19.3108 0.0000
# 6 0.0000 0.0000 0.0000 0.0000 0.0000 23.8363
#
#
#
# Elastic Compliance Matrix: (Units=1/GPa)
#
#
# Indices 1 2 3 4 5 6 
#
# 1 0.018630 -0.002346 -0.004648 0.000000 0.000000 0.000000
# 2 -0.002346 0.018630 -0.004648 0.000000 0.000000 0.000000
# 3 -0.004648 -0.004648 0.010208 0.000000 0.000000 0.000000
# 4 0.000000 0.000000 0.000000 0.051785 0.000000 0.000000
# 5 0.000000 0.000000 0.000000 0.000000 0.051785 0.000000
# 6 0.000000 0.000000 0.000000 0.000000 0.000000 0.041953
#
#
# Mechanical properties :
#
#
# Convention : Reuss Voigt Hill
#
# Bulk Modulus (GPa) = 41.34896 49.93759 45.64327
# Shear Modulus (GPa) = 22.28812 23.81180 23.04996
#
# Velocity S-wave (km/s) = 3.49535 3.61285 3.55459
# Velocity P-wave (km/s) = 6.24146 6.69160 6.47045
#
# Compressibility (1/GPa) = 0.02418441
#
# Stress axis : x y z
#
# Youngs Moduli (GPa) = 53.67698 53.67698 97.96309
#
# Poissons Ratio (x) = 0.12595 0.45530
# Poissons Ratio (y) = 0.12595 0.45530
# Poissons Ratio (z) = 0.24947 0.24947
#
# Static dielectric constant tensor:
#      x y z
#    x 1.644130 0.000000 0.000000 
#    y 0.000000 1.644130 0.000000 
#    z 0.000000 0.000000 1.657280 
# 
# From -- ./inp_files/3407.got.cif
#   From: 2010.05.17/outbox.cif.g08.bks.cpg/sg189_2_cif.got.tgz:3407.got - 2010.05.20 12:14:34.
