data_PCOD9586485
_publ_section_title
;
Structure prediction by ZEFSAII (Michael W. Deem and Ramdas Pophale) SiO2 
 PCOD9586485
Probable space group: P -6 2 M
;
_chemical_formula_sum "Si O2"
_cell_formula_units_Z 63
_cell_length_a 20.651370
_cell_length_b 20.651370
_cell_length_c 7.328699
_cell_angle_alpha 90.000000
_cell_angle_beta 90.000000
_cell_angle_gamma 120.000000
_cell_volume 2706.794294
_symmetry_space_group_name_H-M "P -6 2 M"
_symmetry_group_IT_number 189
_symmetry_cell_setting 'hexagonal'
loop_
_space_group_symop_operation_xyz
x,y,z
-x+y,-x,-z
-y,x-y,z
x,y,-z
-x+y,-x,z
-y,x-y,-z
x-y,-y,-z
-x,-x+y,-z
y,x,-z
y,x,z
x-y,-y,z
-x,-x+y,z
loop_
_atom_site_type_symbol
_atom_site_label
_atom_site_fract_x
_atom_site_fract_y
_atom_site_fract_z
Si Si1 0.081752 0.515288 0.279135
Si Si2 0.085916 0.169611 0.719865
Si Si3 0.231086 0.915017 0.788200
Si Si4 0.883449 0.564827 0.279072
Si Si5 0.722742 0.520702 0.297674
Si Si6 0.000000 0.676948 0.000000
O O1 0.082596 0.508044 0.500000
O O2 0.087324 0.594200 0.242293
O O3 0.154173 0.513031 0.210067
O O4 0.000000 0.450246 0.216057
O O5 0.085665 0.167672 0.500000
O O6 0.139876 0.139876 0.786113
O O7 0.107914 0.252617 0.775091
O O8 0.000000 0.115214 0.779549
O O9 0.250960 0.859404 0.690511
O O10 0.277401 0.000000 0.718528
O O11 0.249413 0.914826 0.000000
O O12 0.887657 0.578728 0.500000
O O13 0.796467 0.523925 0.220563
O O14 0.934456 0.637663 0.160631
O O15 0.712225 0.486860 0.500000
#
# Coordination Sequence:
#
# PCOD9586485 Si02
#       6
#    12  12  12  12  12   3
#     4   9  17  36  64  92 123 161 209 259 312 386
#     4   9  17  31  51  73  98 133 181 232 284 346
#     4  10  21  36  52  77 113 148 187 242 297 355
#     4  10  22  41  63  96 131 162 217 270 313 390
#     4  10  21  38  62  89 120 158 199 255 316 364
#     4  12  22  40  68  90 122 184 210 254 322 374
#
# _framework density 23.274764999999999
#
# number of rings (size 3 to 8) (size 9 to 14) (size 15 to 20)
#    0.000    2.286    0.952    1.619    1.333    3.048 
#    4.571    0.000    0.000    1.143    0.000    0.000 
#    0.000    0.000    0.000    0.000    0.000    0.000 
#
# Total GULP energy -351123.760559 kJ/mol
# GULP energy per Si atom -5573.393025 kJ/mol
# Density = 2.322179 g / cm^3
# Si number density = 23.274765 Si / 1000 Ang^3
#
#
#
# Elastic Constant Matrix: (Units=GPa)
#
#
# Indices 1 2 3 4 5 6 
#
# 1 64.9642 16.7207 0.9799 0.0000 0.0000 0.0000
# 2 16.7207 64.9642 0.9799 0.0000 0.0000 0.0000
# 3 0.9799 0.9799 112.6108 0.0000 0.0000 0.0000
# 4 0.0000 0.0000 0.0000 -8.2311 0.0000 0.0000
# 5 0.0000 0.0000 0.0000 0.0000 -8.2311 0.0000
# 6 0.0000 0.0000 0.0000 0.0000 0.0000 24.1218
#
#
#
# Elastic Compliance Matrix: (Units=1/GPa)
#
#
# Indices 1 2 3 4 5 6 
#
# 1 0.016486 -0.004242 -0.000107 0.000000 0.000000 0.000000
# 2 -0.004242 0.016486 -0.000107 0.000000 0.000000 0.000000
# 3 -0.000107 -0.000107 0.008882 0.000000 0.000000 0.000000
# 4 0.000000 0.000000 0.000000 -0.121490 0.000000 0.000000
# 5 0.000000 0.000000 0.000000 0.000000 -0.121490 0.000000
# 6 0.000000 0.000000 0.000000 0.000000 0.000000 0.041456
#
#
# Mechanical properties :
#
#
# Convention : Reuss Voigt Hill
#
# Bulk Modulus (GPa) = 30.35338 31.10001 30.72670
# Shear Modulus (GPa) = -35.77127 16.45582 -9.65773
#
# Velocity S-wave (km/s) = -3.92460 2.66188 -2.03923
# Velocity P-wave (km/s) = 2.73258 4.77897 2.77232
#
# Compressibility (1/GPa) = 0.03294526
#
# Stress axis : x y z
#
# Youngs Moduli (GPa) = 60.65589 60.65589 112.58733
#
# Poissons Ratio (x) = 0.25729 0.01200
# Poissons Ratio (y) = 0.25729 0.01200
# Poissons Ratio (z) = 0.00646 0.00646
#
# Static dielectric constant tensor:
#      x y z
#    x 1.881200 0.000000 0.000000 
#    y 0.000000 1.881200 0.000000 
#    z 0.000000 0.000000 1.934230 
# 
# From -- ./inp_files/930.got.cif
#   From: 2010.05.17/outbox.cif.g08.bks.cpg/sg189_1_cif.got.tgz:930.got - 2010.05.20 12:14:34.
