data_PCOD9586057
_publ_section_title
;
Structure prediction by ZEFSAII (Michael W. Deem and Ramdas Pophale) SiO2 
 PCOD9586057
Probable space group: P -6 C 2
;
_chemical_formula_sum "Si O2"
_cell_formula_units_Z 58
_cell_length_a 13.715950
_cell_length_b 13.715950
_cell_length_c 15.433075
_cell_angle_alpha 90.000000
_cell_angle_beta 90.000000
_cell_angle_gamma 120.000000
_cell_volume 2514.402993
_symmetry_space_group_name_H-M "P -6 C 2"
_symmetry_group_IT_number 188
_symmetry_cell_setting 'hexagonal'
loop_
_space_group_symop_operation_xyz
x,y,z
-x+y,-x,1/2-z
-y,x-y,z
x,y,1/2-z
-x+y,-x,z
-y,x-y,1/2-z
-y,-x,-z
-x+y,y,-z
x,x-y,-z
-x+y,y,1/2+z
x,x-y,1/2+z
-y,-x,1/2+z
loop_
_atom_site_type_symbol
_atom_site_label
_atom_site_fract_x
_atom_site_fract_y
_atom_site_fract_z
Si Si1 0.666668 0.333335 0.355313
Si Si2 0.187778 0.615635 0.750000
Si Si3 0.416385 0.263021 0.353625
Si Si4 0.192208 0.807793 0.000000
Si Si5 0.221304 0.034210 0.431748
Si Si6 0.409055 0.926417 0.909870
Si Si7 0.111783 0.976672 0.250000
O O1 0.666667 0.333334 0.250000
O O2 0.541546 0.297407 0.382395
O O3 0.289992 0.743016 0.750000
O O4 0.111132 0.576586 0.835284
O O5 0.405676 0.243264 0.250000
O O6 0.329795 0.148942 0.401569
O O7 0.399145 0.367868 0.374971
O O8 0.177821 0.715402 0.069623
O O9 0.237577 0.937583 0.025358
O O10 0.164015 0.082008 0.500000
O O11 0.159821 0.974108 0.342492
O O12 0.476600 0.953199 0.000000
O O13 0.115753 0.096678 0.250000
#
# Coordination Sequence:
#
# PCOD9586057 Si02
#       7
#     4   6  12   6  12  12   6
#     4   9  24  45  73 110 142 190 251 325 370 443
#     4  10  24  48  75 107 144 198 253 320 378 449
#     4  11  24  48  76 107 151 198 254 316 381 458
#     4  12  28  44  74 110 154 200 242 318 376 458
#     4  12  24  45  69 108 149 190 251 300 375 451
#     4  12  26  47  76 111 150 200 256 315 384 454
#     4  10  24  38  67  95 138 202 239 290 366 439
#
# _framework density 23.067105999999999
#
# number of rings (size 3 to 8) (size 9 to 14) (size 15 to 20)
#    0.414    0.414    4.138    2.483    2.897    0.828 
#    1.241    2.069    0.000    0.000    0.000    0.000 
#    0.000    0.000    0.000    0.000    0.000    0.000 
#
# Total GULP energy -324169.559607 kJ/mol
# GULP energy per Si atom -5589.130338 kJ/mol
# Density = 2.301460 g / cm^3
# Si number density = 23.067106 Si / 1000 Ang^3
#
#
#
# Elastic Constant Matrix: (Units=GPa)
#
#
# Indices 1 2 3 4 5 6 
#
# 1 65.4147 -5.6329 7.7165 0.0002 0.0000 0.0000
# 2 -5.6329 65.4153 7.7165 -0.0001 -0.0001 0.0001
# 3 7.7165 7.7165 131.1146 0.0001 0.0000 0.0000
# 4 0.0002 -0.0001 0.0001 -10.3286 -0.0003 0.0001
# 5 0.0000 -0.0001 0.0000 -0.0003 -10.3280 0.0001
# 6 0.0000 0.0001 0.0000 0.0001 0.0001 35.5238
#
#
#
# Elastic Compliance Matrix: (Units=1/GPa)
#
#
# Indices 1 2 3 4 5 6 
#
# 1 0.015530 0.001455 -0.001000 0.000000 0.000000 0.000000
# 2 0.001455 0.015530 -0.001000 0.000000 0.000000 0.000000
# 3 -0.001000 -0.001000 0.007745 0.000000 0.000000 0.000000
# 4 0.000000 0.000000 0.000000 -0.096819 0.000003 0.000000
# 5 0.000000 0.000000 0.000000 0.000003 -0.096824 0.000000
# 6 0.000000 0.000000 0.000000 0.000000 0.000000 0.028150
#
#
# Mechanical properties :
#
#
# Convention : Reuss Voigt Hill
#
# Bulk Modulus (GPa) = 26.51331 31.28278 28.89804
# Shear Modulus (GPa) = -44.23715 19.78308 -12.22704
#
# Velocity S-wave (km/s) = -4.38397 2.93171 -2.30481
# Velocity P-wave (km/s) = 3.75589 5.00510 2.33926
#
# Compressibility (1/GPa) = 0.03771691
#
# Stress axis : x y z
#
# Youngs Moduli (GPa) = 64.39021 64.39081 129.12249
#
# Poissons Ratio (x) = -0.09370 0.12908
# Poissons Ratio (y) = -0.09370 0.12908
# Poissons Ratio (z) = 0.06437 0.06437
#
# Static dielectric constant tensor:
#      x y z
#    x 1.832930 0.000000 0.000000 
#    y 0.000000 1.832930 0.000000 
#    z 0.000000 0.000000 1.728060 
# 
# From -- ./inp_files/2365.got.cif
#   From: 2010.05.17/outbox.cif.g08.bks.cpg/sg188_2_cif.got.tgz:2365.got - 2010.05.20 12:11:46.
