data_PCOD9586116
_publ_section_title
;
Structure prediction by ZEFSAII (Michael W. Deem and Ramdas Pophale) SiO2 
 PCOD9586116
Probable space group: P -6 2 M
;
_chemical_formula_sum "Si O2"
_cell_formula_units_Z 72
_cell_length_a 24.499795
_cell_length_b 24.499795
_cell_length_c 7.493589
_cell_angle_alpha 90.000000
_cell_angle_beta 90.000000
_cell_angle_gamma 120.000000
_cell_volume 3895.340285
_symmetry_space_group_name_H-M "P -6 2 M"
_symmetry_group_IT_number 189
_symmetry_cell_setting 'hexagonal'
loop_
_space_group_symop_operation_xyz
x,y,z
-x+y,-x,-z
-y,x-y,z
x,y,-z
-x+y,-x,z
-y,x-y,-z
x-y,-y,-z
-x,-x+y,-z
y,x,-z
y,x,z
x-y,-y,z
-x,-x+y,z
loop_
_atom_site_type_symbol
_atom_site_label
_atom_site_fract_x
_atom_site_fract_y
_atom_site_fract_z
Si Si1 0.145295 0.072948 0.781675
Si Si2 0.072176 0.725294 0.290216
Si Si3 0.586017 0.509906 0.786651
Si Si4 0.629529 0.703482 0.217820
Si Si5 0.605809 0.072965 0.784819
Si Si6 0.131240 0.287399 0.205641
O O1 0.114609 0.114609 0.723066
O O2 0.217068 0.101027 0.718044
O O3 0.102824 0.000000 0.730319
O O4 0.146250 0.074974 0.000000
O O5 0.069320 0.734755 0.500000
O O6 0.099608 0.678031 0.265597
O O7 0.114079 0.793582 0.208649
O O8 0.000000 0.690142 0.219542
O O9 0.547363 0.547363 0.762603
O O10 0.655864 0.558156 0.717967
O O11 0.538846 0.438985 0.720254
O O12 0.591656 0.504631 0.000000
O O13 0.671428 0.671428 0.261878
O O14 0.665664 0.775032 0.283393
O O15 0.625759 0.703738 0.000000
O O16 0.571101 0.000000 0.722929
O O17 0.603614 0.072398 0.000000
O O18 0.109352 0.277664 0.000000
#
# Coordination Sequence:
#
# PCOD9586116 Si02
#       6
#    12  12  12  12  12  12
#     4   9  16  25  38  57  80 106 141 189 239 277
#     4  10  20  31  41  55  80 113 143 173 213 257
#     4   7  10  18  35  60  86 107 126 152 189 231
#     4   8  13  22  38  62  90 114 136 166 206 252
#     4   8  13  23  41  62  81 102 130 161 192 232
#     4  10  18  27  42  63  85 110 142 178 217 265
#
# _framework density 18.483623000000001
#
# number of rings (size 3 to 8) (size 9 to 14) (size 15 to 20)
#    0.000    3.333    0.000    3.667    0.000    4.333 
#    0.000    0.000    0.000    3.000    0.000    2.333 
#    1.667    1.333    3.000    0.000    1.000    0.000 
#
# Total GULP energy -400851.433723 kJ/mol
# GULP energy per Si atom -5567.381024 kJ/mol
# Density = 1.844155 g / cm^3
# Si number density = 18.483623 Si / 1000 Ang^3
#
#
#
# Elastic Constant Matrix: (Units=GPa)
#
#
# Indices 1 2 3 4 5 6 
#
# 1 81.2669 37.6881 -8.3230 0.0000 0.0000 0.0000
# 2 37.6881 81.2669 -8.3230 0.0000 0.0000 0.0000
# 3 -8.3230 -8.3230 47.4996 0.0000 0.0000 0.0000
# 4 0.0000 0.0000 0.0000 -21.6140 0.0000 0.0000
# 5 0.0000 0.0000 0.0000 0.0000 -21.6140 0.0000
# 6 0.0000 0.0000 0.0000 0.0000 0.0000 21.7894
#
#
#
# Elastic Compliance Matrix: (Units=1/GPa)
#
#
# Indices 1 2 3 4 5 6 
#
# 1 0.015782 -0.007165 0.001510 0.000000 0.000000 0.000000
# 2 -0.007165 0.015782 0.001510 0.000000 0.000000 0.000000
# 3 0.001510 0.001510 0.021582 0.000000 0.000000 0.000000
# 4 0.000000 0.000000 0.000000 -0.046266 0.000000 0.000000
# 5 0.000000 0.000000 0.000000 0.000000 -0.046266 0.000000
# 6 0.000000 0.000000 0.000000 0.000000 0.000000 0.045894
#
#
# Mechanical properties :
#
#
# Convention : Reuss Voigt Hill
#
# Bulk Modulus (GPa) = 22.29264 28.01307 25.15286
# Shear Modulus (GPa) = 168.06855 8.31168 88.19012
#
# Velocity S-wave (km/s) = 9.54598 2.12286 6.91492
# Velocity P-wave (km/s) = 11.55803 4.60405 8.79731
#
# Compressibility (1/GPa) = 0.04485785
#
# Stress axis : x y z
#
# Youngs Moduli (GPa) = 63.36170 63.36170 46.33493
#
# Poissons Ratio (x) = 0.45396 -0.06997
# Poissons Ratio (y) = 0.45396 -0.06997
# Poissons Ratio (z) = -0.09568 -0.09568
#
# Static dielectric constant tensor:
#      x y z
#    x 1.647560 0.000000 0.000000 
#    y 0.000000 1.647560 0.000000 
#    z 0.000000 0.000000 1.710630 
# 
# From -- ./inp_files/1268.got.cif
#   From: 2010.05.17/outbox.cif.g08.bks.cpg/sg189_1_cif.got.tgz:1268.got - 2010.05.20 12:14:34.
