data_PCOD9586316
_publ_section_title
;
Structure prediction by ZEFSAII (Michael W. Deem and Ramdas Pophale) SiO2 
 PCOD9586316
Probable space group: P -6 2 M
;
_chemical_formula_sum "Si O2"
_cell_formula_units_Z 84
_cell_length_a 18.255121
_cell_length_b 18.255121
_cell_length_c 14.139894
_cell_angle_alpha 90.000000
_cell_angle_beta 90.000000
_cell_angle_gamma 120.000000
_cell_volume 4080.808521
_symmetry_space_group_name_H-M "P -6 2 M"
_symmetry_group_IT_number 189
_symmetry_cell_setting 'hexagonal'
loop_
_space_group_symop_operation_xyz
x,y,z
-x+y,-x,-z
-y,x-y,z
x,y,-z
-x+y,-x,z
-y,x-y,-z
x-y,-y,-z
-x,-x+y,-z
y,x,-z
y,x,z
x-y,-y,z
-x,-x+y,z
loop_
_atom_site_type_symbol
_atom_site_label
_atom_site_fract_x
_atom_site_fract_y
_atom_site_fract_z
Si Si1 0.836092 0.621338 0.888425
Si Si2 0.340039 0.899239 0.795883
Si Si3 0.906598 0.812059 0.614409
Si Si4 0.495988 0.398074 0.802475
Si Si5 0.374575 0.141376 0.389988
Si Si6 0.095238 0.905353 0.114851
Si Si7 0.661989 0.094326 0.396725
O O1 0.740459 0.593349 0.862858
O O2 0.858569 0.555074 0.841634
O O3 0.888712 0.718618 0.853617
O O4 0.849560 0.620899 0.000000
O O5 0.406297 0.868442 0.822634
O O6 0.305135 0.880471 0.687715
O O7 0.388685 0.000000 0.807978
O O8 0.908585 0.806233 0.500000
O O9 0.885495 0.885495 0.636822
O O10 0.826251 0.722793 0.641953
O O11 0.000000 0.837276 0.649026
O O12 0.443352 0.443352 0.833453
O O13 0.490487 0.390164 0.689074
O O14 0.377552 0.116594 0.500000
O O15 0.409287 0.241779 0.389403
O O16 0.000000 0.881076 0.138246
O O17 0.162389 0.000000 0.147837
O O18 0.101166 0.906601 0.000000
O O19 0.629738 0.100255 0.500000
O O20 0.649758 0.000000 0.390541
#
# Coordination Sequence:
#
# PCOD9586316 Si02
#       7
#    12  12  12  12  12  12  12
#     4  11  23  42  65  90 120 163 212 259 316 379
#     4  11  24  41  62  92 126 159 201 257 317 374
#     4   9  16  26  43  72 114 164 213 255 293 339
#     4  10  22  41  64  90 119 153 199 257 317 376
#     4  10  19  34  58  88 123 163 206 250 303 371
#     4   9  17  31  56  91 129 166 204 247 296 357
#     4   9  17  33  60  91 120 153 197 248 305 372
#
# _framework density 20.584157000000001
#
# number of rings (size 3 to 8) (size 9 to 14) (size 15 to 20)
#    0.000    2.143    1.429    2.000    0.000    6.571 
#    0.857    2.857    0.000    0.000    0.000    2.000 
#    0.000    0.000    0.000    0.000    0.000    0.000 
#
# Total GULP energy -468819.023101 kJ/mol
# GULP energy per Si atom -5581.178846 kJ/mol
# Density = 2.053731 g / cm^3
# Si number density = 20.584157 Si / 1000 Ang^3
#
#
#
# Elastic Constant Matrix: (Units=GPa)
#
#
# Indices 1 2 3 4 5 6 
#
# 1 78.0249 28.5944 1.2990 0.0000 0.0000 0.0000
# 2 28.5944 78.0249 1.2990 0.0000 0.0000 0.0000
# 3 1.2990 1.2990 57.3128 0.0000 0.0000 0.0000
# 4 0.0000 0.0000 0.0000 15.1704 0.0000 0.0000
# 5 0.0000 0.0000 0.0000 0.0000 15.1704 0.0000
# 6 0.0000 0.0000 0.0000 0.0000 0.0000 24.7153
#
#
#
# Elastic Compliance Matrix: (Units=1/GPa)
#
#
# Indices 1 2 3 4 5 6 
#
# 1 0.014807 -0.005423 -0.000213 0.000000 0.000000 0.000000
# 2 -0.005423 0.014807 -0.000213 0.000000 0.000000 0.000000
# 3 -0.000213 -0.000213 0.017458 0.000000 0.000000 0.000000
# 4 0.000000 0.000000 0.000000 0.065918 0.000000 0.000000
# 5 0.000000 0.000000 0.000000 0.000000 0.065918 0.000000
# 6 0.000000 0.000000 0.000000 0.000000 0.000000 0.040461
#
#
# Mechanical properties :
#
#
# Convention : Reuss Voigt Hill
#
# Bulk Modulus (GPa) = 28.26799 30.63856 29.45327
# Shear Modulus (GPa) = 20.58820 23.15590 21.87205
#
# Velocity S-wave (km/s) = 3.16602 3.35765 3.26324
# Velocity P-wave (km/s) = 5.20842 5.47253 5.34211
#
# Compressibility (1/GPa) = 0.03537571
#
# Stress axis : x y z
#
# Youngs Moduli (GPa) = 67.53385 67.53385 57.28112
#
# Poissons Ratio (x) = 0.36624 0.01218
# Poissons Ratio (y) = 0.36624 0.01218
# Poissons Ratio (z) = 0.01436 0.01436
#
# Static dielectric constant tensor:
#      x y z
#    x 1.725990 0.000000 0.000000 
#    y 0.000000 1.725990 0.000000 
#    z 0.000000 0.000000 1.788480 
# 
# From -- ./inp_files/2821.got.cif
#   From: 2010.05.17/outbox.cif.g08.bks.cpg/sg189_2_cif.got.tgz:2821.got - 2010.05.20 12:14:34.
