data_PCOD9586672
_publ_section_title
;
Structure prediction by ZEFSAII (Michael W. Deem and Ramdas Pophale) SiO2 
 PCOD9586672
Probable space group: P -6 2 C
;
_chemical_formula_sum "Si O2"
_cell_formula_units_Z 72
_cell_length_a 24.320232
_cell_length_b 24.320232
_cell_length_c 8.886111
_cell_angle_alpha 90.000000
_cell_angle_beta 90.000000
_cell_angle_gamma 120.000000
_cell_volume 4551.743625
_symmetry_space_group_name_H-M "P -6 2 C"
_symmetry_group_IT_number 190
_symmetry_cell_setting 'hexagonal'
loop_
_space_group_symop_operation_xyz
x,y,z
-x+y,-x,1/2-z
-y,x-y,z
x,y,1/2-z
-x+y,-x,z
-y,x-y,1/2-z
x-y,-y,-z
-x,-x+y,-z
y,x,-z
y,x,1/2+z
x-y,-y,1/2+z
-x,-x+y,1/2+z
loop_
_atom_site_type_symbol
_atom_site_label
_atom_site_fract_x
_atom_site_fract_y
_atom_site_fract_z
Si Si1 0.857946 0.264500 0.070705
Si Si2 0.526704 0.930789 0.431000
Si Si3 0.401123 0.930395 0.430202
Si Si4 0.069364 0.811730 0.429872
Si Si5 0.257505 0.069284 0.069631
Si Si6 0.146975 0.740280 0.430419
O O1 0.857311 0.270477 0.250000
O O2 0.904801 0.236703 0.033631
O O3 0.883209 0.332100 0.993964
O O4 0.789284 0.211815 0.011262
O O5 0.532377 0.936151 0.250000
O O6 0.454723 0.911903 0.469970
O O7 0.549732 0.882187 0.478657
O O8 0.571696 0.000000 0.500000
O O9 0.398793 0.934235 0.250000
O O10 0.426205 0.000000 0.500000
O O11 0.067108 0.817525 0.250000
O O12 0.120782 0.878894 0.500819
O O13 0.096691 0.764113 0.461760
O O14 0.000000 0.783584 0.500000
O O15 0.251033 0.067433 0.250000
O O16 0.215076 0.000000 0.000000
O O17 0.157256 0.744712 0.250000
#
# Coordination Sequence:
#
# PCOD9586672 Si02
#       6
#    12  12  12  12  12  12
#     4  10  20  32  48  71  97 126 160 197 239 285
#     4   9  18  31  48  71  97 126 158 193 235 282
#     4  10  19  31  48  70  97 127 159 196 238 285
#     4  10  19  31  49  72  98 127 157 192 233 277
#     4  10  20  33  49  70  96 125 158 195 235 280
#     4   9  18  32  49  70  97 127 159 195 236 281
#
# _framework density 15.818113
#
# number of rings (size 3 to 8) (size 9 to 14) (size 15 to 20)
#    0.000    2.333    0.000    3.000    0.000    5.333 
#    0.000    0.000    0.000    1.000    0.000    4.667 
#    0.000    0.000    0.000    0.000    0.000    0.000 
#
# Total GULP energy -401731.053052 kJ/mol
# GULP energy per Si atom -5579.597959 kJ/mol
# Density = 1.578211 g / cm^3
# Si number density = 15.818113 Si / 1000 Ang^3
#
#
#
# Elastic Constant Matrix: (Units=GPa)
#
#
# Indices 1 2 3 4 5 6 
#
# 1 136.9835 91.8878 56.8796 0.0000 0.0000 0.0000
# 2 91.8878 136.9835 56.8796 0.0000 0.0000 0.0000
# 3 56.8796 56.8796 50.9261 0.0000 0.0000 0.0000
# 4 0.0000 0.0000 0.0000 26.5398 0.0000 0.0000
# 5 0.0000 0.0000 0.0000 0.0000 26.5398 0.0000
# 6 0.0000 0.0000 0.0000 0.0000 0.0000 22.5478
#
#
#
# Elastic Compliance Matrix: (Units=1/GPa)
#
#
# Indices 1 2 3 4 5 6 
#
# 1 0.015998 -0.006177 -0.010970 0.000000 0.000000 0.000000
# 2 -0.006177 0.015998 -0.010970 0.000000 0.000000 0.000000
# 3 -0.010970 -0.010970 0.044141 0.000000 0.000000 0.000000
# 4 0.000000 0.000000 0.000000 0.037679 0.000000 0.000000
# 5 0.000000 0.000000 0.000000 0.000000 0.037679 0.000000
# 6 0.000000 0.000000 0.000000 0.000000 0.000000 0.044350
#
#
# Mechanical properties :
#
#
# Convention : Reuss Voigt Hill
#
# Bulk Modulus (GPa) = 50.23929 81.79856 66.01892
# Shear Modulus (GPa) = 19.32624 23.07523 21.20074
#
# Velocity S-wave (km/s) = 3.49919 3.82355 3.66496
# Velocity P-wave (km/s) = 6.93940 8.44493 7.72891
#
# Compressibility (1/GPa) = 0.01990474
#
# Stress axis : x y z
#
# Youngs Moduli (GPa) = 62.50587 62.50587 22.65448
#
# Poissons Ratio (x) = 0.38607 0.24852
# Poissons Ratio (y) = 0.38607 0.24852
# Poissons Ratio (z) = 0.68570 0.68570
#
# Static dielectric constant tensor:
#      x y z
#    x 1.509270 0.000000 0.000000 
#    y 0.000000 1.509270 0.000000 
#    z 0.000000 0.000000 1.526160 
# 
# From -- ./inp_files/1177.got.cif
#   From: 2010.05.17/outbox.cif.g08.bks.cpg/sg190_1_cif.got.tgz:1177.got - 2010.05.20 12:16:56.
