data_PCOD9586471
_publ_section_title
;
Structure prediction by ZEFSAII (Michael W. Deem and Ramdas Pophale) SiO2 
 PCOD9586471
Probable space group: P -6 2 M
;
_chemical_formula_sum "Si O2"
_cell_formula_units_Z 84
_cell_length_a 21.175857
_cell_length_b 21.175857
_cell_length_c 12.710505
_cell_angle_alpha 90.000000
_cell_angle_beta 90.000000
_cell_angle_gamma 120.000000
_cell_volume 4936.003154
_symmetry_space_group_name_H-M "P -6 2 M"
_symmetry_group_IT_number 189
_symmetry_cell_setting 'hexagonal'
loop_
_space_group_symop_operation_xyz
x,y,z
-x+y,-x,-z
-y,x-y,z
x,y,-z
-x+y,-x,z
-y,x-y,-z
x-y,-y,-z
-x,-x+y,-z
y,x,-z
y,x,z
x-y,-y,z
-x,-x+y,z
loop_
_atom_site_type_symbol
_atom_site_label
_atom_site_fract_x
_atom_site_fract_y
_atom_site_fract_z
Si Si1 0.342008 0.425425 0.381213
Si Si2 0.737084 0.822130 0.378352
Si Si3 0.697229 0.915546 0.754303
Si Si4 0.596260 0.681712 0.289765
Si Si5 0.343389 0.796313 0.620046
Si Si6 0.214620 0.677540 0.272120
Si Si7 0.427003 0.206349 0.124146
O O1 0.333803 0.443793 0.500000
O O2 0.403452 0.403452 0.378571
O O3 0.268453 0.355966 0.339524
O O4 0.359482 0.489850 0.302407
O O5 0.740165 0.844095 0.500000
O O6 0.795699 0.795699 0.362200
O O7 0.744475 0.883209 0.296930
O O8 0.658386 0.750467 0.355163
O O9 0.641197 0.857582 0.839058
O O10 0.744203 0.000000 0.788874
O O11 0.628084 0.628084 0.269111
O O12 0.520252 0.644894 0.352751
O O13 0.582861 0.718057 0.186218
O O14 0.364285 0.792187 0.500000
O O15 0.382043 0.769403 0.704794
O O16 0.258509 0.739673 0.640224
O O17 0.226072 0.723999 0.167038
O O18 0.427953 0.199143 0.000000
#
# Coordination Sequence:
#
# PCOD9586471 Si02
#       7
#    12  12  12  12  12  12  12
#     4   9  16  27  44  66  94 125 154 194 248 295
#     4   9  16  27  44  68 102 139 167 195 238 293
#     4   9  17  28  46  72  96 121 162 209 247 289
#     4   9  19  33  50  76 103 125 159 205 251 298
#     4  11  20  31  50  72 101 139 169 197 236 287
#     4  10  21  34  47  71 101 130 170 206 236 281
#     4   9  19  36  55  71  94 129 164 206 256 296
#
# _framework density 17.017817999999998
#
# number of rings (size 3 to 8) (size 9 to 14) (size 15 to 20)
#    0.000    2.571    0.000    3.286    0.000    2.857 
#    0.000    2.857    0.000    0.286    0.000    0.000 
#    0.000    0.000    0.000    0.429    0.000    0.571 
#
# Total GULP energy -467664.777290 kJ/mol
# GULP energy per Si atom -5567.437825 kJ/mol
# Density = 1.697908 g / cm^3
# Si number density = 17.017818 Si / 1000 Ang^3
#
#
#
# Elastic Constant Matrix: (Units=GPa)
#
#
# Indices 1 2 3 4 5 6 
#
# 1 55.0504 14.4083 12.8249 0.0000 0.0000 0.0000
# 2 14.4083 55.0504 12.8249 0.0000 0.0000 0.0000
# 3 12.8249 12.8249 77.8784 0.0000 0.0000 0.0000
# 4 0.0000 0.0000 0.0000 12.3268 0.0000 0.0000
# 5 0.0000 0.0000 0.0000 0.0000 12.3268 0.0000
# 6 0.0000 0.0000 0.0000 0.0000 0.0000 20.3210
#
#
#
# Elastic Compliance Matrix: (Units=1/GPa)
#
#
# Indices 1 2 3 4 5 6 
#
# 1 0.019967 -0.004638 -0.002524 0.000000 0.000000 0.000000
# 2 -0.004638 0.019967 -0.002524 0.000000 0.000000 0.000000
# 3 -0.002524 -0.002524 0.013672 0.000000 0.000000 0.000000
# 4 0.000000 0.000000 0.000000 0.081124 0.000000 0.000000
# 5 0.000000 0.000000 0.000000 0.000000 0.081124 0.000000
# 6 0.000000 0.000000 0.000000 0.000000 0.000000 0.049210
#
#
# Mechanical properties :
#
#
# Convention : Reuss Voigt Hill
#
# Bulk Modulus (GPa) = 29.21171 29.78841 29.50006
# Shear Modulus (GPa) = 16.90053 18.85633 17.87843
#
# Velocity S-wave (km/s) = 3.15478 3.33233 3.24477
# Velocity P-wave (km/s) = 5.52022 5.68754 5.60450
#
# Compressibility (1/GPa) = 0.03423284
#
# Stress axis : x y z
#
# Youngs Moduli (GPa) = 50.08227 50.08227 73.14240
#
# Poissons Ratio (x) = 0.23228 0.18464
# Poissons Ratio (y) = 0.23228 0.18464
# Poissons Ratio (z) = 0.12643 0.12643
#
# Static dielectric constant tensor:
#      x y z
#    x 1.635220 0.000000 0.000000 
#    y 0.000000 1.635220 0.000000 
#    z 0.000000 0.000000 1.544380 
# 
# From -- ./inp_files/2120.got.cif
#   From: 2010.05.17/outbox.cif.g08.bks.cpg/sg189_2_cif.got.tgz:2120.got - 2010.05.20 12:14:34.
