data_PCOD9586558
_publ_section_title
;
Structure prediction by ZEFSAII (Michael W. Deem and Ramdas Pophale) SiO2 
 PCOD9586558
Probable space group: P -6 2 M
;
_chemical_formula_sum "Si O2"
_cell_formula_units_Z 58
_cell_length_a 14.145142
_cell_length_b 14.145142
_cell_length_c 15.792213
_cell_angle_alpha 90.000000
_cell_angle_beta 90.000000
_cell_angle_gamma 120.000000
_cell_volume 2736.454604
_symmetry_space_group_name_H-M "P -6 2 M"
_symmetry_group_IT_number 189
_symmetry_cell_setting 'hexagonal'
loop_
_space_group_symop_operation_xyz
x,y,z
-x+y,-x,-z
-y,x-y,z
x,y,-z
-x+y,-x,z
-y,x-y,-z
x-y,-y,-z
-x,-x+y,-z
y,x,-z
y,x,z
x-y,-y,z
-x,-x+y,z
loop_
_atom_site_type_symbol
_atom_site_label
_atom_site_fract_x
_atom_site_fract_y
_atom_site_fract_z
Si Si1 0.666668 0.333335 0.104355
Si Si2 0.173507 0.763589 0.341698
Si Si3 0.465395 0.588557 0.598571
Si Si4 0.251678 0.127792 0.500000
Si Si5 0.328975 0.880059 0.099977
Si Si6 0.256582 0.129290 0.819157
O O1 0.777514 0.337110 0.133264
O O2 0.666667 0.333334 0.000000
O O3 0.122408 0.636087 0.358090
O O4 0.302301 0.808382 0.348907
O O5 0.142623 0.815547 0.419555
O O6 0.139319 0.804893 0.259595
O O7 0.437982 0.599639 0.500000
O O8 0.563942 0.563942 0.595204
O O9 0.154047 0.154047 0.500000
O O10 0.205941 0.000000 0.500000
O O11 0.208804 0.864034 0.112988
O O12 0.412964 0.000000 0.137289
O O13 0.350536 0.884551 0.000000
O O14 0.185172 0.185172 0.842834
O O15 0.178022 0.000000 0.799400
#
# Coordination Sequence:
#
# PCOD9586558 Si02
#       6
#     4  12  12   6  12  12
#     4   9  18  36  66  99 129 166 203 259 333 384
#     4  12  24  39  61  86 115 152 198 249 307 368
#     4  11  21  37  58  81 111 150 190 236 293 359
#     4  12  23  38  58  82 112 148 193 242 298 362
#     4   9  20  39  63  94 132 173 219 267 318 384
#     4  11  24  42  63  90 126 167 213 268 326 386
#
# _framework density 21.195309999999999
#
# number of rings (size 3 to 8) (size 9 to 14) (size 15 to 20)
#    0.000    1.241    2.069    4.448    0.000    2.897 
#    0.000    6.207    0.000    1.241    0.000    0.000 
#    0.000    0.000    0.000    0.000    0.000    0.000 
#
# Total GULP energy -324132.843078 kJ/mol
# GULP energy per Si atom -5588.497294 kJ/mol
# Density = 2.114707 g / cm^3
# Si number density = 21.195310 Si / 1000 Ang^3
#
#
#
# Elastic Constant Matrix: (Units=GPa)
#
#
# Indices 1 2 3 4 5 6 
#
# 1 145.2031 72.6506 4.5989 0.0001 -0.0001 0.0000
# 2 72.6506 145.2025 4.5988 0.0002 -0.0002 -0.0002
# 3 4.5989 4.5988 15.5327 0.0001 0.0000 0.0000
# 4 0.0001 0.0002 0.0001 24.4286 -0.0004 0.0000
# 5 -0.0001 -0.0002 0.0000 -0.0004 24.4301 0.0001
# 6 0.0000 -0.0002 0.0000 0.0000 0.0001 36.2759
#
#
#
# Elastic Compliance Matrix: (Units=1/GPa)
#
#
# Indices 1 2 3 4 5 6 
#
# 1 0.009216 -0.004567 -0.001376 0.000000 0.000000 0.000000
# 2 -0.004567 0.009216 -0.001376 0.000000 0.000000 0.000000
# 3 -0.001376 -0.001376 0.065195 0.000000 0.000000 0.000000
# 4 0.000000 0.000000 0.000000 0.040936 0.000001 0.000000
# 5 0.000000 0.000000 0.000000 0.000001 0.040933 0.000000
# 6 0.000000 0.000000 0.000000 0.000000 0.000000 0.027567
#
#
# Mechanical properties :
#
#
# Convention : Reuss Voigt Hill
#
# Bulk Modulus (GPa) = 14.49547 52.18164 33.33856
# Shear Modulus (GPa) = 21.67337 31.96624 26.81980
#
# Velocity S-wave (km/s) = 3.20121 3.88774 3.56106
# Velocity P-wave (km/s) = 4.52963 6.69519 5.71590
#
# Compressibility (1/GPa) = 0.06898709
#
# Stress axis : x y z
#
# Youngs Moduli (GPa) = 108.50991 108.50958 15.33849
#
# Poissons Ratio (x) = 0.49561 0.02111
# Poissons Ratio (y) = 0.49561 0.02111
# Poissons Ratio (z) = 0.14934 0.14933
#
# Static dielectric constant tensor:
#      x y z
#    x 1.771900 0.000000 0.000000 
#    y 0.000000 1.771900 0.000000 
#    z 0.000000 0.000000 1.769950 
# 
# From -- ./inp_files/2561.got.cif
#   From: 2010.05.17/outbox.cif.g08.bks.cpg/sg189_2_cif.got.tgz:2561.got - 2010.05.20 12:14:34.
