data_PCOD9586110
_publ_section_title
;
Structure prediction by ZEFSAII (Michael W. Deem and Ramdas Pophale) SiO2 
 PCOD9586110
Probable space group: P -6 2 M
;
_chemical_formula_sum "Si O2"
_cell_formula_units_Z 72
_cell_length_a 14.214071
_cell_length_b 14.214071
_cell_length_c 22.377168
_cell_angle_alpha 90.000000
_cell_angle_beta 90.000000
_cell_angle_gamma 120.000000
_cell_volume 3915.369153
_symmetry_space_group_name_H-M "P -6 2 M"
_symmetry_group_IT_number 189
_symmetry_cell_setting 'hexagonal'
loop_
_space_group_symop_operation_xyz
x,y,z
-x+y,-x,-z
-y,x-y,z
x,y,-z
-x+y,-x,z
-y,x-y,-z
x-y,-y,-z
-x,-x+y,-z
y,x,-z
y,x,z
x-y,-y,z
-x,-x+y,z
loop_
_atom_site_type_symbol
_atom_site_label
_atom_site_fract_x
_atom_site_fract_y
_atom_site_fract_z
Si Si1 0.754096 0.878187 0.068836
Si Si2 0.880265 0.385065 0.821458
Si Si3 0.541490 0.667843 0.683409
Si Si4 0.787630 0.460792 0.500000
Si Si5 0.646072 0.201204 0.000000
Si Si6 0.541379 0.873099 0.369755
Si Si7 0.460768 0.290312 0.123926
O O1 0.793322 0.793322 0.081169
O O2 0.664665 0.870313 0.114601
O O3 0.854158 0.000000 0.070605
O O4 0.711469 0.860474 0.000000
O O5 0.863696 0.339497 0.754794
O O6 0.875381 0.495587 0.824742
O O7 0.784338 0.298089 0.862614
O O8 0.000000 0.415159 0.842236
O O9 0.630471 0.630471 0.670214
O O10 0.427874 0.573856 0.655621
O O11 0.566879 0.784596 0.659436
O O12 0.770639 0.338520 0.500000
O O13 0.847337 0.522610 0.559722
O O14 0.759483 0.317390 0.000000
O O15 0.645367 0.144623 0.938751
O O16 0.628480 0.000000 0.359064
#
# Coordination Sequence:
#
# PCOD9586110 Si02
#       7
#    12  12  12   6   6  12  12
#     4  10  21  36  54  74  99 132 173 220 272 331
#     4  11  23  36  55  79 104 140 179 223 278 332
#     4  10  21  37  56  82 116 153 198 246 294 343
#     4  10  17  32  56  86 129 160 192 240 288 334
#     4  10  18  34  48  72 102 138 168 200 274 350
#     4  11  20  35  59  86 122 163 201 237 286 344
#     4  12  20  36  53  77 105 135 170 223 274 349
#
# _framework density 18.38907
#
# number of rings (size 3 to 8) (size 9 to 14) (size 15 to 20)
#    0.333    1.000    4.167    3.083    0.000    0.667 
#    0.000    2.083    0.000    0.333    0.000    0.000 
#    0.000    0.000    0.000    0.000    0.000    0.000 
#
# Total GULP energy -401636.784583 kJ/mol
# GULP energy per Si atom -5578.288675 kJ/mol
# Density = 1.834722 g / cm^3
# Si number density = 18.389070 Si / 1000 Ang^3
#
#
#
# Elastic Constant Matrix: (Units=GPa)
#
#
# Indices 1 2 3 4 5 6 
#
# 1 101.4503 49.5273 31.6550 0.0000 0.0000 0.0000
# 2 49.5273 101.4503 31.6550 0.0000 0.0000 0.0000
# 3 31.6550 31.6550 59.4889 0.0000 0.0000 0.0000
# 4 0.0000 0.0000 0.0000 10.0922 0.0000 0.0000
# 5 0.0000 0.0000 0.0000 0.0000 10.0922 0.0000
# 6 0.0000 0.0000 0.0000 0.0000 0.0000 25.9615
#
#
#
# Elastic Compliance Matrix: (Units=1/GPa)
#
#
# Indices 1 2 3 4 5 6 
#
# 1 0.013893 -0.005367 -0.004537 0.000000 0.000000 0.000000
# 2 -0.005367 0.013893 -0.004537 0.000000 0.000000 0.000000
# 3 -0.004537 -0.004537 0.021638 0.000000 0.000000 0.000000
# 4 0.000000 0.000000 0.000000 0.099087 0.000000 0.000000
# 5 0.000000 0.000000 0.000000 0.000000 0.099087 0.000000
# 6 0.000000 0.000000 0.000000 0.000000 0.000000 0.038519
#
#
# Mechanical properties :
#
#
# Convention : Reuss Voigt Hill
#
# Bulk Modulus (GPa) = 48.67894 54.22935 51.45414
# Shear Modulus (GPa) = 15.53550 19.19932 17.36741
#
# Velocity S-wave (km/s) = 2.90974 3.23470 3.07651
# Velocity P-wave (km/s) = 6.14963 6.59584 6.37663
#
# Compressibility (1/GPa) = 0.02054276
#
# Stress axis : x y z
#
# Youngs Moduli (GPa) = 71.98077 71.98077 46.21492
#
# Poissons Ratio (x) = 0.38630 0.20967
# Poissons Ratio (y) = 0.38630 0.20967
# Poissons Ratio (z) = 0.32656 0.32656
#
# Static dielectric constant tensor:
#      x y z
#    x 1.659990 0.000000 0.000000 
#    y 0.000000 1.659990 0.000000 
#    z 0.000000 0.000000 1.629110 
# 
# From -- ./inp_files/3443.got.cif
#   From: 2010.05.17/outbox.cif.g08.bks.cpg/sg189_2_cif.got.tgz:3443.got - 2010.05.20 12:14:34.
