data_PCOD9586087
_publ_section_title
;
Structure prediction by ZEFSAII (Michael W. Deem and Ramdas Pophale) SiO2 
 PCOD9586087
Probable space group: P -6 C 2
;
_chemical_formula_sum "Si O2"
_cell_formula_units_Z 54
_cell_length_a 10.971948
_cell_length_b 10.971948
_cell_length_c 24.589432
_cell_angle_alpha 90.000000
_cell_angle_beta 90.000000
_cell_angle_gamma 120.000000
_cell_volume 2563.578437
_symmetry_space_group_name_H-M "P -6 C 2"
_symmetry_group_IT_number 188
_symmetry_cell_setting 'hexagonal'
loop_
_space_group_symop_operation_xyz
x,y,z
-x+y,-x,1/2-z
-y,x-y,z
x,y,1/2-z
-x+y,-x,z
-y,x-y,1/2-z
-y,-x,-z
-x+y,y,-z
x,x-y,-z
-x+y,y,1/2+z
x,x-y,1/2+z
-y,-x,1/2+z
loop_
_atom_site_type_symbol
_atom_site_label
_atom_site_fract_x
_atom_site_fract_y
_atom_site_fract_z
Si Si1 0.302193 0.358049 0.190151
Si Si2 0.967465 0.580199 0.930412
Si Si3 0.921679 0.649751 0.073494
Si Si4 0.665748 0.832874 0.000000
Si Si5 0.042146 0.408632 0.309007
O O1 0.309401 0.300747 0.250000
O O2 0.322190 0.281311 0.138022
O O3 0.159015 0.362706 0.187224
O O4 0.424392 0.522049 0.189868
O O5 0.841882 0.608399 0.944804
O O6 0.944926 0.426350 0.940612
O O7 0.962916 0.596985 0.865423
O O8 0.110955 0.697836 0.959625
O O9 0.037191 0.785639 0.040836
O O10 0.969492 0.359126 0.250000
#
# Coordination Sequence:
#
# PCOD9586087 Si02
#       5
#    12  12  12   6  12
#     4   9  17  33  59  92 127 162 204 256 315 375
#     4  11  24  44  66  95 127 168 208 259 317 378
#     4  11  24  44  66  95 127 168 208 259 317 378
#     4  12  24  44  60  92 116 164 216 258 304 356
#     4   9  17  33  59  92 127 162 204 256 315 375
#
# _framework density 21.064305000000001
#
# number of rings (size 3 to 8) (size 9 to 14) (size 15 to 20)
#    0.000    1.778    2.222    2.222    0.000    2.667 
#   10.667    2.222    0.000    2.667    0.000    0.000 
#    0.000    0.000    0.000    0.000    0.000    0.000 
#
# Total GULP energy -300792.651062 kJ/mol
# GULP energy per Si atom -5570.234279 kJ/mol
# Density = 2.101636 g / cm^3
# Si number density = 21.064305 Si / 1000 Ang^3
#
#
#
# Elastic Constant Matrix: (Units=GPa)
#
#
# Indices 1 2 3 4 5 6 
#
# 1 66.2593 44.1680 25.7067 -0.0001 0.0000 0.0000
# 2 44.1680 66.2593 25.7067 0.0001 0.0000 0.0000
# 3 25.7067 25.7067 152.4577 0.0000 0.0000 0.0000
# 4 -0.0001 0.0001 0.0000 15.5256 0.0000 0.0000
# 5 0.0000 0.0000 0.0000 0.0000 15.5256 -0.0001
# 6 0.0000 0.0000 0.0000 0.0000 -0.0001 11.0456
#
#
#
# Elastic Compliance Matrix: (Units=1/GPa)
#
#
# Indices 1 2 3 4 5 6 
#
# 1 0.027547 -0.017720 -0.001657 0.000000 0.000000 0.000000
# 2 -0.017720 0.027547 -0.001657 0.000000 0.000000 0.000000
# 3 -0.001657 -0.001657 0.007118 0.000000 0.000000 0.000000
# 4 0.000000 0.000000 0.000000 0.064410 0.000000 0.000000
# 5 0.000000 0.000000 0.000000 0.000000 0.064410 0.000000
# 6 0.000000 0.000000 0.000000 0.000000 0.000000 0.090534
#
#
# Mechanical properties :
#
#
# Convention : Reuss Voigt Hill
#
# Bulk Modulus (GPa) = 49.64170 52.90433 51.27302
# Shear Modulus (GPa) = 15.13559 21.04570 18.09065
#
# Velocity S-wave (km/s) = 2.68347 3.16431 2.93376
# Velocity P-wave (km/s) = 5.76362 6.20650 5.98915
#
# Compressibility (1/GPa) = 0.02014435
#
# Stress axis : x y z
#
# Youngs Moduli (GPa) = 36.30157 36.30157 140.48905
#
# Poissons Ratio (x) = 0.64326 0.23279
# Poissons Ratio (y) = 0.64326 0.23279
# Poissons Ratio (z) = 0.06015 0.06015
#
# Static dielectric constant tensor:
#      x y z
#    x 1.740000 0.000000 0.000000 
#    y 0.000000 1.740000 0.000000 
#    z 0.000000 0.000000 1.878130 
# 
# From -- ./inp_files/3998.got.cif
#   From: 2010.05.17/outbox.cif.g08.bks.cpg/sg188_2_cif.got.tgz:3998.got - 2010.05.20 12:11:46.
