data_PCOD9586013
_publ_section_title
;
Structure prediction by ZEFSAII (Michael W. Deem and Ramdas Pophale) SiO2 
 PCOD9586013
Probable space group: P -6 C 2
;
_chemical_formula_sum "Si O2"
_cell_formula_units_Z 52
_cell_length_a 14.344051
_cell_length_b 14.344051
_cell_length_c 14.948037
_cell_angle_alpha 90.000000
_cell_angle_beta 90.000000
_cell_angle_gamma 120.000000
_cell_volume 2663.535179
_symmetry_space_group_name_H-M "P -6 C 2"
_symmetry_group_IT_number 188
_symmetry_cell_setting 'hexagonal'
loop_
_space_group_symop_operation_xyz
x,y,z
-x+y,-x,1/2-z
-y,x-y,z
x,y,1/2-z
-x+y,-x,z
-y,x-y,1/2-z
-y,-x,-z
-x+y,y,-z
x,x-y,-z
-x+y,y,1/2+z
x,x-y,1/2+z
-y,-x,1/2+z
loop_
_atom_site_type_symbol
_atom_site_label
_atom_site_fract_x
_atom_site_fract_y
_atom_site_fract_z
Si Si1 0.743120 0.909541 0.750000
Si Si2 0.902894 0.424950 0.143566
Si Si3 0.333334 0.666668 0.360082
Si Si4 0.247828 0.085083 0.750000
Si Si5 0.821106 0.580573 0.403171
Si Si6 0.326991 0.873096 0.147117
O O1 0.804596 0.843346 0.750000
O O2 0.661180 0.880838 0.834880
O O3 0.828861 0.035749 0.750000
O O4 0.910101 0.450880 0.250000
O O5 0.813472 0.300419 0.133863
O O6 0.869855 0.501839 0.093227
O O7 0.016001 0.438807 0.109375
O O8 0.333334 0.666668 0.250000
O O9 0.450099 0.687469 0.390718
O O10 0.322941 0.110094 0.663767
O O11 0.810197 0.620394 0.500000
O O12 0.363606 0.874296 0.250000
#
# Coordination Sequence:
#
# PCOD9586013 Si02
#       6
#     6  12   4   6  12  12
#     4  10  21  37  63  87 119 168 212 266 320 372
#     4  11  19  38  60  88 133 167 205 261 321 393
#     4   9  15  24  48  87 118 149 199 250 302 361
#     4  12  23  43  65  89 127 166 222 270 330 392
#     4  12  24  38  62  99 131 170 211 261 337 406
#     4   8  17  30  53  86 122 153 208 260 303 375
#
# _framework density 19.522924
#
# number of rings (size 3 to 8) (size 9 to 14) (size 15 to 20)
#    0.692    0.923    4.615    1.385    3.231    0.000 
#    0.000    1.154    0.000    0.000    0.000    0.000 
#    0.000    0.000    0.000    0.000    0.000    0.000 
#
# Total GULP energy -289929.206018 kJ/mol
# GULP energy per Si atom -5575.561654 kJ/mol
# Density = 1.947849 g / cm^3
# Si number density = 19.522924 Si / 1000 Ang^3
#
#
#
# Elastic Constant Matrix: (Units=GPa)
#
#
# Indices 1 2 3 4 5 6 
#
# 1 105.0399 81.3644 -2.2384 0.0013 0.0000 0.0004
# 2 81.3644 105.0382 -2.2387 -0.0011 0.0001 -0.0007
# 3 -2.2384 -2.2387 48.4658 0.0000 0.0000 -0.0001
# 4 0.0013 -0.0011 0.0000 -1.3166 0.0000 -0.0001
# 5 0.0000 0.0001 0.0000 0.0000 -1.3167 0.0011
# 6 0.0004 -0.0007 -0.0001 -0.0001 0.0011 11.8374
#
#
#
# Elastic Compliance Matrix: (Units=1/GPa)
#
#
# Indices 1 2 3 4 5 6 
#
# 1 0.023805 -0.018434 0.000248 0.000040 -0.000002 -0.000002
# 2 -0.018434 0.023805 0.000248 -0.000039 0.000002 0.000002
# 3 0.000248 0.000248 0.020656 0.000000 0.000000 0.000000
# 4 0.000040 -0.000039 0.000000 -0.759532 -0.000019 -0.000004
# 5 -0.000002 0.000002 0.000000 -0.000019 -0.759498 0.000073
# 6 -0.000002 0.000002 0.000000 -0.000004 0.000073 0.084478
#
#
# Mechanical properties :
#
#
# Convention : Reuss Voigt Hill
#
# Bulk Modulus (GPa) = 30.87410 45.81317 38.34364
# Shear Modulus (GPa) = -3.78899 13.95128 5.08115
#
# Velocity S-wave (km/s) = -1.39463 2.67612 1.61503
# Velocity P-wave (km/s) = 3.64078 5.75031 4.81256
#
# Compressibility (1/GPa) = 0.03238961
#
# Stress axis : x y z
#
# Youngs Moduli (GPa) = 42.00843 42.00773 48.41201
#
# Poissons Ratio (x) = 0.77438 -0.01200
# Poissons Ratio (y) = 0.77440 -0.01202
# Poissons Ratio (z) = -0.01041 -0.01043
#
# Static dielectric constant tensor:
#      x y z
#    x 1.799950 0.000000 0.000000 
#    y 0.000000 1.799950 0.000000 
#    z 0.000000 0.000000 1.714810 
# 
# From -- ./inp_files/2227.got.cif
#   From: 2010.05.17/outbox.cif.g08.bks.cpg/sg188_2_cif.got.tgz:2227.got - 2010.05.20 12:11:46.
