data_PCOD9586613
_publ_section_title
;
Structure prediction by ZEFSAII (Michael W. Deem and Ramdas Pophale) SiO2 
 PCOD9586613
Probable space group: P -6 2 C
;
_chemical_formula_sum "Si O2"
_cell_formula_units_Z 72
_cell_length_a 15.476738
_cell_length_b 15.476738
_cell_length_c 15.855322
_cell_angle_alpha 90.000000
_cell_angle_beta 90.000000
_cell_angle_gamma 120.000000
_cell_volume 3289.005194
_symmetry_space_group_name_H-M "P -6 2 C"
_symmetry_group_IT_number 190
_symmetry_cell_setting 'hexagonal'
loop_
_space_group_symop_operation_xyz
x,y,z
-x+y,-x,1/2-z
-y,x-y,z
x,y,1/2-z
-x+y,-x,z
-y,x-y,1/2-z
x-y,-y,-z
-x,-x+y,-z
y,x,-z
y,x,1/2+z
x-y,-y,1/2+z
-x,-x+y,1/2+z
loop_
_atom_site_type_symbol
_atom_site_label
_atom_site_fract_x
_atom_site_fract_y
_atom_site_fract_z
Si Si1 0.882692 0.499240 0.524839
Si Si2 0.037143 0.472623 0.339574
Si Si3 0.779596 0.128855 0.850675
Si Si4 0.497868 0.848718 0.841991
Si Si5 0.283005 0.003133 0.402549
Si Si6 0.274799 0.184169 0.153749
O O1 0.890376 0.417604 0.582565
O O2 0.849707 0.559771 0.587183
O O3 0.820930 0.457626 0.438015
O O4 0.000000 0.575594 0.500000
O O5 0.090544 0.491913 0.250000
O O6 0.970052 0.354649 0.354157
O O7 0.959994 0.513161 0.335262
O O8 0.754882 0.125145 0.750000
O O9 0.894847 0.207121 0.866099
O O10 0.763893 0.020902 0.876622
O O11 0.451812 0.801143 0.750000
O O12 0.605353 0.857431 0.846617
O O13 0.303474 0.000000 0.500000
O O14 0.246966 0.082725 0.392455
O O15 0.240868 0.157675 0.250000
#
# Coordination Sequence:
#
# PCOD9586613 Si02
#       6
#    12  12  12  12  12  12
#     4  10  17  31  60  84 111 142 200 236 292 359
#     4  10  19  35  56  85 114 147 190 246 302 355
#     4  11  22  38  60  86 118 164 209 252 309 368
#     4   9  17  31  56  81 108 145 188 235 290 355
#     4  12  25  36  57  88 125 158 206 263 308 358
#     4  10  20  38  58  82 115 161 208 250 305 365
#
# _framework density 21.891119
#
# number of rings (size 3 to 8) (size 9 to 14) (size 15 to 20)
#    0.000    1.667    3.333    4.500    0.000    0.000 
#    1.000    0.000    0.000    1.333    0.000   11.667 
#    0.000    0.000    0.000    0.000    0.000    0.000 
#
# Total GULP energy -401289.731213 kJ/mol
# GULP energy per Si atom -5573.468489 kJ/mol
# Density = 2.184129 g / cm^3
# Si number density = 21.891119 Si / 1000 Ang^3
#
#
#
# Elastic Constant Matrix: (Units=GPa)
#
#
# Indices 1 2 3 4 5 6 
#
# 1 49.9747 7.6836 27.9563 0.0000 0.0000 0.0000
# 2 7.6836 49.9747 27.9563 0.0000 0.0000 0.0000
# 3 27.9563 27.9563 168.6331 0.0000 0.0000 0.0000
# 4 0.0000 0.0000 0.0000 18.7839 0.0000 0.0000
# 5 0.0000 0.0000 0.0000 0.0000 18.7839 0.0000
# 6 0.0000 0.0000 0.0000 0.0000 0.0000 21.1455
#
#
#
# Elastic Compliance Matrix: (Units=1/GPa)
#
#
# Indices 1 2 3 4 5 6 
#
# 1 0.022156 -0.001490 -0.003426 0.000000 0.000000 0.000000
# 2 -0.001490 0.022156 -0.003426 0.000000 0.000000 0.000000
# 3 -0.003426 -0.003426 0.007066 0.000000 0.000000 0.000000
# 4 0.000000 0.000000 0.000000 0.053237 0.000000 0.000000
# 5 0.000000 0.000000 0.000000 0.000000 0.053237 0.000000
# 6 0.000000 0.000000 0.000000 0.000000 0.000000 0.047291
#
#
# Mechanical properties :
#
#
# Convention : Reuss Voigt Hill
#
# Bulk Modulus (GPa) = 28.82376 43.97498 36.39937
# Shear Modulus (GPa) = 21.42324 25.40841 23.41582
#
# Velocity S-wave (km/s) = 3.13169 3.41056 3.27410
# Velocity P-wave (km/s) = 5.12564 5.97000 5.56386
#
# Compressibility (1/GPa) = 0.03469360
#
# Stress axis : x y z
#
# Youngs Moduli (GPa) = 45.13500 45.13500 141.52327
#
# Poissons Ratio (x) = 0.06725 0.48486
# Poissons Ratio (y) = 0.06725 0.48486
# Poissons Ratio (z) = 0.15463 0.15463
#
# Static dielectric constant tensor:
#      x y z
#    x 1.785500 0.000000 0.000000 
#    y 0.000000 1.785500 0.000000 
#    z 0.000000 0.000000 1.897600 
# 
# From -- ./inp_files/3777.got.cif
#   From: 2010.05.17/outbox.cif.g08.bks.cpg/sg190_2_cif.got.tgz:3777.got - 2010.05.20 12:16:56.
