data_PCOD9586260
_publ_section_title
;
Structure prediction by ZEFSAII (Michael W. Deem and Ramdas Pophale) SiO2 
 PCOD9586260
Probable space group: P -6 2 M
;
_chemical_formula_sum "Si O2"
_cell_formula_units_Z 60
_cell_length_a 18.187142
_cell_length_b 18.187142
_cell_length_c 11.676342
_cell_angle_alpha 90.000000
_cell_angle_beta 90.000000
_cell_angle_gamma 120.000000
_cell_volume 3344.770730
_symmetry_space_group_name_H-M "P -6 2 M"
_symmetry_group_IT_number 189
_symmetry_cell_setting 'hexagonal'
loop_
_space_group_symop_operation_xyz
x,y,z
-x+y,-x,-z
-y,x-y,z
x,y,-z
-x+y,-x,z
-y,x-y,-z
x-y,-y,-z
-x,-x+y,-z
y,x,-z
y,x,z
x-y,-y,z
-x,-x+y,z
loop_
_atom_site_type_symbol
_atom_site_label
_atom_site_fract_x
_atom_site_fract_y
_atom_site_fract_z
Si Si1 0.641276 0.478624 0.500000
Si Si2 0.364510 0.898964 0.251544
Si Si3 0.100887 0.747956 0.719048
Si Si4 0.101920 0.313714 0.134382
Si Si5 0.609608 0.102718 0.872136
Si Si6 0.700950 0.176893 0.500000
O O1 0.655811 0.530641 0.616576
O O2 0.544554 0.399760 0.500000
O O3 0.721238 0.463698 0.500000
O O4 0.285740 0.877326 0.169756
O O5 0.423329 0.863006 0.204727
O O6 0.420057 0.000000 0.248261
O O7 0.139447 0.841709 0.772994
O O8 0.117127 0.695496 0.817290
O O9 0.144712 0.732744 0.608349
O O10 0.000000 0.703675 0.698317
O O11 0.000000 0.252300 0.148120
O O12 0.121997 0.309909 0.000000
O O13 0.550406 0.000000 0.876752
O O14 0.620921 0.136114 0.000000
#
# Coordination Sequence:
#
# PCOD9586260 Si02
#       6
#     6  12  12  12  12   6
#     4  12  22  37  55  74 112 156 195 232 278 336
#     4  10  19  32  54  80 107 144 188 234 282 343
#     4  11  22  37  59  86 116 151 197 254 306 352
#     4  10  21  38  59  84 117 156 196 241 299 367
#     4   9  17  30  51  79 108 139 177 226 285 344
#     4  12  24  39  57  82 117 162 201 240 288 348
#
# _framework density 17.938448999999999
#
# number of rings (size 3 to 8) (size 9 to 14) (size 15 to 20)
#    0.000    1.600    4.000    2.000    0.000    4.400 
#    0.000    0.500    0.000    0.400    0.000    5.600 
#    0.000    0.000    0.000    0.000    0.000    0.000 
#
# Total GULP energy -334213.210413 kJ/mol
# GULP energy per Si atom -5570.220174 kJ/mol
# Density = 1.789762 g / cm^3
# Si number density = 17.938449 Si / 1000 Ang^3
#
#
#
# Elastic Constant Matrix: (Units=GPa)
#
#
# Indices 1 2 3 4 5 6 
#
# 1 48.0613 37.8289 25.6361 0.0000 0.0000 0.0000
# 2 37.8289 48.0613 25.6361 0.0000 0.0000 0.0000
# 3 25.6361 25.6361 104.0642 0.0000 0.0000 0.0000
# 4 0.0000 0.0000 0.0000 11.1986 0.0000 0.0000
# 5 0.0000 0.0000 0.0000 0.0000 11.1986 0.0000
# 6 0.0000 0.0000 0.0000 0.0000 0.0000 5.1162
#
#
#
# Elastic Compliance Matrix: (Units=1/GPa)
#
#
# Indices 1 2 3 4 5 6 
#
# 1 0.055690 -0.042040 -0.003363 0.000000 0.000000 0.000000
# 2 -0.042040 0.055690 -0.003363 0.000000 0.000000 0.000000
# 3 -0.003363 -0.003363 0.011266 0.000000 0.000000 0.000000
# 4 0.000000 0.000000 0.000000 0.089297 0.000000 0.000000
# 5 0.000000 0.000000 0.000000 0.000000 0.089297 0.000000
# 6 0.000000 0.000000 0.000000 0.000000 0.000000 0.195459
#
#
# Mechanical properties :
#
#
# Convention : Reuss Voigt Hill
#
# Bulk Modulus (GPa) = 39.81567 42.04322 40.92945
# Shear Modulus (GPa) = 8.29736 12.90837 10.60287
#
# Velocity S-wave (km/s) = 2.15302 2.68543 2.43383
# Velocity P-wave (km/s) = 5.33147 5.75359 5.54655
#
# Compressibility (1/GPa) = 0.02511574
#
# Stress axis : x y z
#
# Youngs Moduli (GPa) = 17.95660 17.95660 88.76076
#
# Poissons Ratio (x) = 0.75489 0.29848
# Poissons Ratio (y) = 0.75489 0.29848
# Poissons Ratio (z) = 0.06038 0.06038
#
# Static dielectric constant tensor:
#      x y z
#    x 1.636120 0.000000 0.000000 
#    y 0.000000 1.636120 0.000000 
#    z 0.000000 0.000000 1.612210 
# 
# From -- ./inp_files/1959.got.cif
#   From: 2010.05.17/outbox.cif.g08.bks.cpg/sg189_1_cif.got.tgz:1959.got - 2010.05.20 12:14:34.
