data_PCOD9586688
_publ_section_title
;
Structure prediction by ZEFSAII (Michael W. Deem and Ramdas Pophale) SiO2 
 PCOD9586688
Probable space group: P -6 2 C
;
_chemical_formula_sum "Si O2"
_cell_formula_units_Z 72
_cell_length_a 24.433842
_cell_length_b 24.433842
_cell_length_c 8.560212
_cell_angle_alpha 90.000000
_cell_angle_beta 90.000000
_cell_angle_gamma 120.000000
_cell_volume 4425.870216
_symmetry_space_group_name_H-M "P -6 2 C"
_symmetry_group_IT_number 190
_symmetry_cell_setting 'hexagonal'
loop_
_space_group_symop_operation_xyz
x,y,z
-x+y,-x,1/2-z
-y,x-y,z
x,y,1/2-z
-x+y,-x,z
-y,x-y,1/2-z
x-y,-y,-z
-x,-x+y,-z
y,x,-z
y,x,1/2+z
x-y,-y,1/2+z
-x,-x+y,1/2+z
loop_
_atom_site_type_symbol
_atom_site_label
_atom_site_fract_x
_atom_site_fract_y
_atom_site_fract_z
Si Si1 0.809775 0.070332 0.063415
Si Si2 0.141914 0.742079 0.436242
Si Si3 0.069629 0.600163 0.562149
Si Si4 0.595496 0.190656 0.439398
Si Si5 0.930391 0.070577 0.563240
Si Si6 0.520089 0.258243 0.060404
O O1 0.810863 0.067925 0.250000
O O2 0.786926 0.117995 0.007390
O O3 0.877999 0.087126 0.997076
O O4 0.761352 0.000000 0.000000
O O5 0.138988 0.742924 0.250000
O O6 0.095975 0.670790 0.497372
O O7 0.211734 0.759309 0.491577
O O8 0.069335 0.603077 0.750000
O O9 0.120769 0.579796 0.513279
O O10 0.000000 0.554610 0.500000
O O11 0.593931 0.191424 0.250000
O O12 0.548945 0.215075 0.493288
O O13 0.668644 0.237295 0.483238
O O14 0.930155 0.069306 0.750000
O O15 0.000000 0.117343 0.500000
O O16 0.907127 0.000000 0.500000
O O17 0.515208 0.256036 0.250000
#
# Coordination Sequence:
#
# PCOD9586688 Si02
#       6
#    12  12  12  12  12  12
#     4  11  21  35  53  75 100 130 164 204 248 295
#     4  11  21  33  48  71 100 131 163 203 247 293
#     4  10  19  32  49  72  98 129 163 200 242 290
#     4   8  15  27  48  72  95 122 158 197 238 285
#     4  11  21  35  53  77 105 135 167 203 244 290
#     4   9  16  30  50  73  97 127 163 201 241 291
#
# _framework density 16.267987999999999
#
# number of rings (size 3 to 8) (size 9 to 14) (size 15 to 20)
#    0.000    2.000    0.000    8.000    0.000    1.333 
#    0.000    4.167    0.000    1.000    0.000    4.667 
#    0.000    0.000    0.000    0.000    0.000    0.000 
#
# Total GULP energy -401876.216516 kJ/mol
# GULP energy per Si atom -5581.614118 kJ/mol
# Density = 1.623096 g / cm^3
# Si number density = 16.267988 Si / 1000 Ang^3
#
#
#
# Elastic Constant Matrix: (Units=GPa)
#
#
# Indices 1 2 3 4 5 6 
#
# 1 133.2824 92.1391 49.3480 0.0000 0.0000 0.0000
# 2 92.1391 133.2824 49.3480 0.0000 0.0000 0.0000
# 3 49.3480 49.3480 116.6974 0.0000 0.0000 0.0000
# 4 0.0000 0.0000 0.0000 26.0171 0.0000 0.0000
# 5 0.0000 0.0000 0.0000 0.0000 26.0171 0.0000
# 6 0.0000 0.0000 0.0000 0.0000 0.0000 20.5716
#
#
#
# Elastic Compliance Matrix: (Units=1/GPa)
#
#
# Indices 1 2 3 4 5 6 
#
# 1 0.014875 -0.009431 -0.002302 0.000000 0.000000 0.000000
# 2 -0.009431 0.014875 -0.002302 0.000000 0.000000 0.000000
# 3 -0.002302 -0.002302 0.010516 0.000000 0.000000 0.000000
# 4 0.000000 0.000000 0.000000 0.038436 0.000000 0.000000
# 5 0.000000 0.000000 0.000000 0.000000 0.038436 0.000000
# 6 0.000000 0.000000 0.000000 0.000000 0.000000 0.048611
#
#
# Mechanical properties :
#
#
# Convention : Reuss Voigt Hill
#
# Bulk Modulus (GPa) = 81.99563 84.99249 83.49406
# Shear Modulus (GPa) = 25.26735 27.34964 26.30850
#
# Velocity S-wave (km/s) = 3.94533 4.10468 4.02580
# Velocity P-wave (km/s) = 8.44196 8.65004 8.54664
#
# Compressibility (1/GPa) = 0.01219577
#
# Stress axis : x y z
#
# Youngs Moduli (GPa) = 67.22822 67.22822 95.09144
#
# Poissons Ratio (x) = 0.63400 0.21891
# Poissons Ratio (y) = 0.63400 0.21891
# Poissons Ratio (z) = 0.15477 0.15477
#
# Static dielectric constant tensor:
#      x y z
#    x 1.533080 0.000000 0.000000 
#    y 0.000000 1.533080 0.000000 
#    z 0.000000 0.000000 1.550180 
# 
# From -- ./inp_files/1258.got.cif
#   From: 2010.05.17/outbox.cif.g08.bks.cpg/sg190_1_cif.got.tgz:1258.got - 2010.05.20 12:16:56.
