data_PCOD9586340
_publ_section_title
;
Structure prediction by ZEFSAII (Michael W. Deem and Ramdas Pophale) SiO2 
 PCOD9586340
Probable space group: P -6 2 M
;
_chemical_formula_sum "Si O2"
_cell_formula_units_Z 58
_cell_length_a 18.050921
_cell_length_b 18.050921
_cell_length_c 14.425630
_cell_angle_alpha 90.000000
_cell_angle_beta 90.000000
_cell_angle_gamma 120.000000
_cell_volume 4070.653645
_symmetry_space_group_name_H-M "P -6 2 M"
_symmetry_group_IT_number 189
_symmetry_cell_setting 'hexagonal'
loop_
_space_group_symop_operation_xyz
x,y,z
-x+y,-x,-z
-y,x-y,z
x,y,-z
-x+y,-x,z
-y,x-y,-z
x-y,-y,-z
-x,-x+y,-z
y,x,-z
y,x,z
x-y,-y,z
-x,-x+y,z
loop_
_atom_site_type_symbol
_atom_site_label
_atom_site_fract_x
_atom_site_fract_y
_atom_site_fract_z
Si Si1 0.902698 0.574086 0.300590
Si Si2 0.896993 0.334189 0.500000
Si Si3 0.392736 0.494152 0.500000
Si Si4 0.275205 0.802207 0.315949
Si Si5 0.666668 0.333335 0.385845
Si Si6 0.601555 0.221098 0.000000
Si Si7 0.097950 0.524345 0.175508
O O1 0.878800 0.537905 0.405788
O O2 0.819637 0.578688 0.273181
O O3 0.903542 0.501554 0.237410
O O4 0.000000 0.653245 0.299979
O O5 0.867792 0.406336 0.500000
O O6 0.856062 0.281919 0.592778
O O7 0.000000 0.381723 0.500000
O O8 0.450978 0.450978 0.500000
O O9 0.300740 0.729913 0.345733
O O10 0.345152 0.864390 0.242824
O O11 0.666667 0.333334 0.500000
O O12 0.705115 0.280110 0.000000
O O13 0.566701 0.161600 0.910265
O O14 0.000000 0.460100 0.146902
#
# Coordination Sequence:
#
# PCOD9586340 Si02
#       7
#    12   6   6  12   4   6  12
#     4  10  20  31  45  63  90 123 155 190 235 276
#     4  11  19  28  41  63  89 121 153 189 232 277
#     4   9  15  28  40  59  88 117 148 183 225 273
#     4  12  20  29  46  65  93 120 159 197 232 270
#     4  12  21  27  42  70  92 127 168 198 231 256
#     4  10  23  36  52  66  84 112 159 198 228 254
#     4  11  21  34  48  66  89 117 150 195 240 274
#
# _framework density 14.248324999999999
#
# number of rings (size 3 to 8) (size 9 to 14) (size 15 to 20)
#    0.207    1.034    5.172    2.793    0.000    0.000 
#    0.000    0.000    0.000    0.000    0.000    0.000 
#    0.000    0.000    0.000    8.690    0.000    0.828 
#
# Total GULP energy -323314.601831 kJ/mol
# GULP energy per Si atom -5574.389687 kJ/mol
# Density = 1.421590 g / cm^3
# Si number density = 14.248325 Si / 1000 Ang^3
#
#
#
# Elastic Constant Matrix: (Units=GPa)
#
#
# Indices 1 2 3 4 5 6 
#
# 1 76.6745 37.3880 24.8071 0.0000 0.0000 0.0000
# 2 37.3880 76.6745 24.8071 -0.0001 0.0000 0.0000
# 3 24.8071 24.8071 79.7907 0.0000 0.0000 0.0000
# 4 0.0000 -0.0001 0.0000 14.4854 0.0000 0.0000
# 5 0.0000 0.0000 0.0000 0.0000 14.4854 0.0000
# 6 0.0000 0.0000 0.0000 0.0000 0.0000 19.6433
#
#
#
# Elastic Compliance Matrix: (Units=1/GPa)
#
#
# Indices 1 2 3 4 5 6 
#
# 1 0.017796 -0.007658 -0.003152 0.000000 0.000000 0.000000
# 2 -0.007658 0.017796 -0.003152 0.000000 0.000000 0.000000
# 3 -0.003152 -0.003152 0.014493 0.000000 0.000000 0.000000
# 4 0.000000 0.000000 0.000000 0.069035 0.000000 0.000000
# 5 0.000000 0.000000 0.000000 0.000000 0.069035 0.000000
# 6 0.000000 0.000000 0.000000 0.000000 0.000000 0.050908
#
#
# Mechanical properties :
#
#
# Convention : Reuss Voigt Hill
#
# Bulk Modulus (GPa) = 45.12410 45.23823 45.18116
# Shear Modulus (GPa) = 18.22332 19.46532 18.84432
#
# Velocity S-wave (km/s) = 3.58016 3.70015 3.64065
# Velocity P-wave (km/s) = 6.98775 7.07627 7.03215
#
# Compressibility (1/GPa) = 0.02216111
#
# Stress axis : x y z
#
# Youngs Moduli (GPa) = 56.19215 56.19214 69.00026
#
# Poissons Ratio (x) = 0.43032 0.21749
# Poissons Ratio (y) = 0.43032 0.21749
# Poissons Ratio (z) = 0.17712 0.17712
#
# Static dielectric constant tensor:
#      x y z
#    x 1.476680 0.000000 0.000240 
#    y 0.000000 1.476680 0.000050 
#    z 0.000240 0.000050 -47.438980 
# 
# From -- ./inp_files/2642.got.cif
#   From: 2010.05.17/outbox.cif.g08.bks.cpg/sg189_2_cif.got.tgz:2642.got - 2010.05.20 12:14:34.
