data_PCOD9586894
_publ_section_title
;
Structure prediction by ZEFSAII (Michael W. Deem and Ramdas Pophale) SiO2 
 PCOD9586894
Probable space group: P -6 2 C
;
_chemical_formula_sum "Si O2"
_cell_formula_units_Z 76
_cell_length_a 17.578021
_cell_length_b 17.578021
_cell_length_c 14.200793
_cell_angle_alpha 90.000000
_cell_angle_beta 90.000000
_cell_angle_gamma 120.000000
_cell_volume 3799.996412
_symmetry_space_group_name_H-M "P -6 2 C"
_symmetry_group_IT_number 190
_symmetry_cell_setting 'hexagonal'
loop_
_space_group_symop_operation_xyz
x,y,z
-x+y,-x,1/2-z
-y,x-y,z
x,y,1/2-z
-x+y,-x,z
-y,x-y,1/2-z
x-y,-y,-z
-x,-x+y,-z
y,x,-z
y,x,1/2+z
x-y,-y,1/2+z
-x,-x+y,1/2+z
loop_
_atom_site_type_symbol
_atom_site_label
_atom_site_fract_x
_atom_site_fract_y
_atom_site_fract_z
Si Si1 0.098984 0.691381 0.541439
Si Si2 0.666668 0.333334 0.639990
Si Si3 0.417940 0.864348 0.641897
Si Si4 0.975184 0.199023 0.642697
Si Si5 0.291879 0.792424 0.028150
Si Si6 0.966006 0.365686 0.643876
Si Si7 0.863915 0.097251 0.466676
O O1 0.120886 0.633580 0.611889
O O2 0.186108 0.734462 0.474994
O O3 0.099141 0.779418 0.574543
O O4 0.000000 0.629136 0.500000
O O5 0.666667 0.333334 0.750000
O O6 0.747504 0.327102 0.599181
O O7 0.397797 0.835969 0.750000
O O8 0.339349 0.800719 0.571978
O O9 0.424965 0.959418 0.632323
O O10 0.947346 0.168435 0.750000
O O11 0.007679 0.302596 0.639696
O O12 0.900888 0.154063 0.562810
O O13 0.057219 0.191079 0.607315
O O14 0.329350 0.890450 0.066616
O O15 0.928148 0.354614 0.750000
O O16 0.833054 0.000000 0.500000
#
# Coordination Sequence:
#
# PCOD9586894 Si02
#       7
#    12   4  12  12  12  12  12
#     4  11  23  42  65  94 132 173 215 265 331 383
#     4  12  27  42  61  95 127 168 219 261 325 386
#     4  11  25  41  65  98 130 170 219 264 321 387
#     4  10  21  40  67  98 124 166 222 271 322 384
#     4  12  22  43  65  91 129 171 208 270 321 377
#     4  10  21  39  68  96 121 163 217 269 317 379
#     4  10  22  40  64  92 132 173 213 266 331 401
#
# _framework density 20.000019000000002
#
# number of rings (size 3 to 8) (size 9 to 14) (size 15 to 20)
#    0.000    1.263    3.158    2.842    2.211    1.895 
#    3.789    3.158    0.000    0.000    0.000    0.000 
#    0.000    0.000    0.000    0.000    0.000    0.000 
#
# Total GULP energy -424006.779413 kJ/mol
# GULP energy per Si atom -5579.036571 kJ/mol
# Density = 1.995450 g / cm^3
# Si number density = 20.000019 Si / 1000 Ang^3
#
#
#
# Elastic Constant Matrix: (Units=GPa)
#
#
# Indices 1 2 3 4 5 6 
#
# 1 77.7890 22.9832 30.2963 -0.0001 0.0001 0.0021
# 2 22.9832 77.7892 30.2952 0.0001 -0.0002 -0.0028
# 3 30.2963 30.2952 116.7365 -0.0001 -0.0001 -0.0004
# 4 -0.0001 0.0001 -0.0001 22.6844 0.0000 0.0002
# 5 0.0001 -0.0002 -0.0001 0.0000 22.6844 0.0001
# 6 0.0021 -0.0028 -0.0004 0.0002 0.0001 27.3951
#
#
#
# Elastic Compliance Matrix: (Units=1/GPa)
#
#
# Indices 1 2 3 4 5 6 
#
# 1 0.015002 -0.003244 -0.003052 0.000000 0.000000 -0.000002
# 2 -0.003244 0.015002 -0.003051 0.000000 0.000000 0.000002
# 3 -0.003052 -0.003051 0.010150 0.000000 0.000000 0.000000
# 4 0.000000 0.000000 0.000000 0.044083 0.000000 0.000000
# 5 0.000000 0.000000 0.000000 0.000000 0.044083 0.000000
# 6 -0.000002 0.000002 0.000000 0.000000 0.000000 0.036503
#
#
# Mechanical properties :
#
#
# Convention : Reuss Voigt Hill
#
# Bulk Modulus (GPa) = 46.59735 48.82934 47.71335
# Shear Modulus (GPa) = 26.22315 27.13546 26.67930
#
# Velocity S-wave (km/s) = 3.62492 3.68743 3.65631
# Velocity P-wave (km/s) = 6.39291 6.52665 6.46013
#
# Compressibility (1/GPa) = 0.02146045
#
# Stress axis : x y z
#
# Youngs Moduli (GPa) = 66.65666 66.65739 98.52054
#
# Poissons Ratio (x) = 0.21624 0.30065
# Poissons Ratio (y) = 0.21624 0.30063
# Poissons Ratio (z) = 0.20341 0.20340
#
# Static dielectric constant tensor:
#      x y z
#    x 1.778980 0.000020 0.000000 
#    y 0.000020 1.779070 0.000000 
#    z 0.000000 0.000000 1.717370 
# 
# From -- ./inp_files/3082.got.cif
#   From: 2010.05.17/outbox.cif.g08.bks.cpg/sg190_2_cif.got.tgz:3082.got - 2010.05.20 12:16:56.
