data_PCOD9586731
_publ_section_title
;
Structure prediction by ZEFSAII (Michael W. Deem and Ramdas Pophale) SiO2 
 PCOD9586731
Probable space group: P -6 2 C
;
_chemical_formula_sum "Si O2"
_cell_formula_units_Z 52
_cell_length_a 13.355110
_cell_length_b 13.355110
_cell_length_c 14.406742
_cell_angle_alpha 90.000000
_cell_angle_beta 90.000000
_cell_angle_gamma 120.000000
_cell_volume 2225.314252
_symmetry_space_group_name_H-M "P -6 2 C"
_symmetry_group_IT_number 190
_symmetry_cell_setting 'hexagonal'
loop_
_space_group_symop_operation_xyz
x,y,z
-x+y,-x,1/2-z
-y,x-y,z
x,y,1/2-z
-x+y,-x,z
-y,x-y,1/2-z
x-y,-y,-z
-x,-x+y,-z
y,x,-z
y,x,1/2+z
x-y,-y,1/2+z
-x,-x+y,1/2+z
loop_
_atom_site_type_symbol
_atom_site_label
_atom_site_fract_x
_atom_site_fract_y
_atom_site_fract_z
Si Si1 0.440233 0.223818 0.949160
Si Si2 0.000000 0.000000 0.390458
Si Si3 0.967231 0.761127 0.648660
Si Si4 0.474150 0.945551 0.401655
Si Si5 0.841342 0.525176 0.349794
O O1 0.306006 0.184609 0.934785
O O2 0.457587 0.120175 0.913619
O O3 0.497978 0.340158 0.885468
O O4 0.493876 0.265977 0.053175
O O5 0.120456 0.104091 0.357171
O O6 0.000000 0.000000 0.500000
O O7 0.908002 0.720135 0.750000
O O8 0.070921 0.734052 0.646785
O O9 0.533295 0.000000 0.500000
O O10 0.545666 0.064856 0.346694
O O11 0.778596 0.495244 0.250000
#
# Coordination Sequence:
#
# PCOD9586731 Si02
#       5
#    12   4  12  12  12
#     4  10  19  36  57  82 113 153 196 242 295 348
#     4  12  22  35  55  81 115 155 191 233 283 345
#     4  10  21  36  55  81 115 152 192 236 286 347
#     4   9  19  34  55  80 111 149 196 247 293 349
#     4   9  19  37  57  80 114 153 193 242 297 353
#
# _framework density 23.367484999999999
#
# number of rings (size 3 to 8) (size 9 to 14) (size 15 to 20)
#    0.000    2.308    0.000    4.615    0.000    3.692 
#    0.000    4.615    0.000    4.154    0.000    0.000 
#    0.000    0.000    0.000    0.000    0.000    0.000 
#
# Total GULP energy -289628.137661 kJ/mol
# GULP energy per Si atom -5569.771878 kJ/mol
# Density = 2.331430 g / cm^3
# Si number density = 23.367485 Si / 1000 Ang^3
#
#
#
# Elastic Constant Matrix: (Units=GPa)
#
#
# Indices 1 2 3 4 5 6 
#
# 1 69.6789 34.1470 -8.8853 0.0000 0.0000 0.0000
# 2 34.1470 69.6789 -8.8853 0.0000 0.0000 0.0000
# 3 -8.8853 -8.8853 115.8128 0.0000 0.0000 0.0000
# 4 0.0000 0.0000 0.0000 7.0721 0.0000 0.0000
# 5 0.0000 0.0000 0.0000 0.0000 7.0721 0.0000
# 6 0.0000 0.0000 0.0000 0.0000 0.0000 17.7659
#
#
#
# Elastic Compliance Matrix: (Units=1/GPa)
#
#
# Indices 1 2 3 4 5 6 
#
# 1 0.018952 -0.009192 0.000749 0.000000 0.000000 0.000000
# 2 -0.009192 0.018952 0.000749 0.000000 0.000000 0.000000
# 3 0.000749 0.000749 0.008750 0.000000 0.000000 0.000000
# 4 0.000000 0.000000 0.000000 0.141400 0.000000 0.000000
# 5 0.000000 0.000000 0.000000 0.000000 0.141400 0.000000
# 6 0.000000 0.000000 0.000000 0.000000 0.000000 0.056288
#
#
# Mechanical properties :
#
#
# Convention : Reuss Voigt Hill
#
# Bulk Modulus (GPa) = 31.98574 31.99150 31.98862
# Shear Modulus (GPa) = 12.14914 22.30163 17.22539
#
# Velocity S-wave (km/s) = 2.28264 3.09267 2.71800
# Velocity P-wave (km/s) = 4.54589 5.14520 4.85480
#
# Compressibility (1/GPa) = 0.03126393
#
# Stress axis : x y z
#
# Youngs Moduli (GPa) = 52.76564 52.76564 114.29205
#
# Poissons Ratio (x) = 0.48503 -0.08558
# Poissons Ratio (y) = 0.48503 -0.08558
# Poissons Ratio (z) = -0.03951 -0.03951
#
# Static dielectric constant tensor:
#      x y z
#    x 1.894080 0.000000 0.000000 
#    y 0.000000 1.894080 0.000000 
#    z 0.000000 0.000000 2.066420 
# 
# From -- ./inp_files/2723.got.cif
#   From: 2010.05.17/outbox.cif.g08.bks.cpg/sg190_2_cif.got.tgz:2723.got - 2010.05.20 12:16:56.
