data_PCOD9586967
_publ_section_title
;
Structure prediction by ZEFSAII (Michael W. Deem and Ramdas Pophale) SiO2 
 PCOD9586967
Probable space group: P -6 2 C
;
_chemical_formula_sum "Si O2"
_cell_formula_units_Z 44
_cell_length_a 11.614860
_cell_length_b 11.614860
_cell_length_c 19.433294
_cell_angle_alpha 90.000000
_cell_angle_beta 90.000000
_cell_angle_gamma 120.000000
_cell_volume 2270.413767
_symmetry_space_group_name_H-M "P -6 2 C"
_symmetry_group_IT_number 190
_symmetry_cell_setting 'hexagonal'
loop_
_space_group_symop_operation_xyz
x,y,z
-x+y,-x,1/2-z
-y,x-y,z
x,y,1/2-z
-x+y,-x,z
-y,x-y,1/2-z
x-y,-y,-z
-x,-x+y,-z
y,x,-z
y,x,1/2+z
x-y,-y,1/2+z
-x,-x+y,1/2+z
loop_
_atom_site_type_symbol
_atom_site_label
_atom_site_fract_x
_atom_site_fract_y
_atom_site_fract_z
Si Si1 0.459969 0.625681 0.750000
Si Si2 0.735970 0.113650 0.444107
Si Si3 0.000000 0.351667 0.000000
Si Si4 0.510346 0.477598 0.634564
Si Si5 0.333334 0.666668 0.983887
Si Si6 0.666668 0.333334 0.648702
O O1 0.298629 0.529829 0.750000
O O2 0.519442 0.593294 0.683445
O O3 0.672875 0.208019 0.455993
O O4 0.889384 0.218160 0.461595
O O5 0.692920 0.000000 0.500000
O O6 0.647879 0.027515 0.379118
O O7 0.951845 0.410614 0.937361
O O8 0.578048 0.399269 0.667522
O O9 0.333334 0.666667 0.065444
#
# Coordination Sequence:
#
# PCOD9586967 Si02
#       6
#     6  12   6  12   4   4
#     4  10  26  42  58  90 128 172 208 248 338 406
#     4  12  20  34  57  87 122 161 207 263 314 386
#     4  12  22  32  62  88 116 174 208 262 324 374
#     4  12  21  39  61  90 131 157 212 272 316 400
#     4  12  18  33  55  95 115 153 214 248 331 369
#     4  12  21  37  64  99 118 166 214 263 355 352
#
# _framework density 19.379726999999999
#
# number of rings (size 3 to 8) (size 9 to 14) (size 15 to 20)
#    0.273    0.000    9.545    1.636    0.000    1.091 
#    0.818    0.000    0.000    0.000    0.000    0.000 
#    0.000    0.000    0.000    0.000    0.000    0.000 
#
# Total GULP energy -244956.021885 kJ/mol
# GULP energy per Si atom -5567.182316 kJ/mol
# Density = 1.933562 g / cm^3
# Si number density = 19.379727 Si / 1000 Ang^3
#
#
#
# Elastic Constant Matrix: (Units=GPa)
#
#
# Indices 1 2 3 4 5 6 
#
# 1 110.2003 50.6414 13.2210 -0.0001 -0.0001 0.0001
# 2 50.6414 110.1995 13.2205 0.0000 -0.0001 -0.0002
# 3 13.2210 13.2205 70.8715 0.0000 0.0000 -0.0001
# 4 -0.0001 0.0000 0.0000 22.3175 0.0000 0.0000
# 5 -0.0001 -0.0001 0.0000 0.0000 22.3176 0.0000
# 6 0.0001 -0.0002 -0.0001 0.0000 0.0000 29.7792
#
#
#
# Elastic Compliance Matrix: (Units=1/GPa)
#
#
# Indices 1 2 3 4 5 6 
#
# 1 0.011602 -0.005188 -0.001197 0.000000 0.000000 0.000000
# 2 -0.005188 0.011602 -0.001196 0.000000 0.000000 0.000000
# 3 -0.001197 -0.001196 0.014556 0.000000 0.000000 0.000000
# 4 0.000000 0.000000 0.000000 0.044808 0.000000 0.000000
# 5 0.000000 0.000000 0.000000 0.000000 0.044808 0.000000
# 6 0.000000 0.000000 0.000000 0.000000 0.000000 0.033581
#
#
# Mechanical properties :
#
#
# Convention : Reuss Voigt Hill
#
# Bulk Modulus (GPa) = 44.25082 49.49301 46.87191
# Shear Modulus (GPa) = 27.22543 29.16208 28.19375
#
# Velocity S-wave (km/s) = 3.75219 3.88335 3.81833
# Velocity P-wave (km/s) = 6.45407 6.76026 6.60894
#
# Compressibility (1/GPa) = 0.02259845
#
# Stress axis : x y z
#
# Youngs Moduli (GPa) = 86.19144 86.19099 68.69806
#
# Poissons Ratio (x) = 0.44717 0.08220
# Poissons Ratio (y) = 0.44717 0.08219
# Poissons Ratio (z) = 0.10313 0.10312
#
# Static dielectric constant tensor:
#      x y z
#    x 1.724450 0.000000 0.000000 
#    y 0.000000 1.724450 0.000000 
#    z 0.000000 0.000000 1.753700 
# 
# From -- ./inp_files/3534.got.cif
#   From: 2010.05.17/outbox.cif.g08.bks.cpg/sg190_2_cif.got.tgz:3534.got - 2010.05.20 12:16:56.
