data_PCOD9586995
_publ_section_title
;
Structure prediction by ZEFSAII (Michael W. Deem and Ramdas Pophale) SiO2 
 PCOD9586995
Probable space group: P -6 2 C
;
_chemical_formula_sum "Si O2"
_cell_formula_units_Z 44
_cell_length_a 12.428180
_cell_length_b 12.428180
_cell_length_c 15.309958
_cell_angle_alpha 90.000000
_cell_angle_beta 90.000000
_cell_angle_gamma 120.000000
_cell_volume 2047.951655
_symmetry_space_group_name_H-M "P -6 2 C"
_symmetry_group_IT_number 190
_symmetry_cell_setting 'hexagonal'
loop_
_space_group_symop_operation_xyz
x,y,z
-x+y,-x,1/2-z
-y,x-y,z
x,y,1/2-z
-x+y,-x,z
-y,x-y,1/2-z
x-y,-y,-z
-x,-x+y,-z
y,x,-z
y,x,1/2+z
x-y,-y,1/2+z
-x,-x+y,1/2+z
loop_
_atom_site_type_symbol
_atom_site_label
_atom_site_fract_x
_atom_site_fract_y
_atom_site_fract_z
Si Si1 0.914099 0.353195 0.416647
Si Si2 0.666668 0.333334 0.143410
Si Si3 0.086757 0.438238 0.250000
Si Si4 0.000000 0.000000 0.894182
Si Si5 0.058735 0.785515 0.595371
Si Si6 0.080698 0.682738 0.250000
O O1 0.804749 0.381908 0.393472
O O2 0.847151 0.204495 0.422088
O O3 0.000000 0.421306 0.500000
O O4 0.003801 0.386412 0.335055
O O5 0.666667 0.333334 0.250000
O O6 0.126377 0.582642 0.250000
O O7 0.187966 0.396049 0.250000
O O8 0.108611 0.137459 0.869284
O O9 0.000000 0.000000 0.000000
O O10 0.000000 0.742893 0.500000
O O11 0.001543 0.674315 0.665465
#
# Coordination Sequence:
#
# PCOD9586995 Si02
#       6
#    12   4   6   4  12   6
#     4  12  26  46  76 107 144 196 254 310 375 459
#     4  12  27  51  78 106 152 211 258 309 381 475
#     4  12  26  46  66 102 145 190 256 310 372 450
#     4   9  18  37  65  97 142 173 223 304 368 436
#     4  11  23  43  68 103 140 184 240 302 381 450
#     4  12  26  42  70  96 139 194 238 314 376 446
#
# _framework density 21.484884000000001
#
# number of rings (size 3 to 8) (size 9 to 14) (size 15 to 20)
#    0.000    0.545    1.364    8.455    0.000    7.636 
#    0.000    0.000    0.000    0.000    0.000    0.000 
#    0.000    0.000    0.000    0.000    0.000    0.000 
#
# Total GULP energy -246275.671502 kJ/mol
# GULP energy per Si atom -5597.174352 kJ/mol
# Density = 2.143598 g / cm^3
# Si number density = 21.484884 Si / 1000 Ang^3
#
#
#
# Elastic Constant Matrix: (Units=GPa)
#
#
# Indices 1 2 3 4 5 6 
#
# 1 115.0027 28.4087 50.4762 -0.0001 -0.0001 0.0001
# 2 28.4087 115.0013 50.4758 0.0000 0.0001 -0.0002
# 3 50.4762 50.4758 159.8041 0.0000 -0.0001 0.0001
# 4 -0.0001 0.0000 0.0000 40.9862 0.0000 -0.0001
# 5 -0.0001 0.0001 -0.0001 0.0000 40.9864 0.0001
# 6 0.0001 -0.0002 0.0001 -0.0001 0.0001 43.2959
#
#
#
# Elastic Compliance Matrix: (Units=1/GPa)
#
#
# Indices 1 2 3 4 5 6 
#
# 1 0.010257 -0.001291 -0.002832 0.000000 0.000000 0.000000
# 2 -0.001291 0.010258 -0.002832 0.000000 0.000000 0.000000
# 3 -0.002832 -0.002832 0.008047 0.000000 0.000000 0.000000
# 4 0.000000 0.000000 0.000000 0.024398 0.000000 0.000000
# 5 0.000000 0.000000 0.000000 0.000000 0.024398 0.000000
# 6 0.000000 0.000000 0.000000 0.000000 0.000000 0.023097
#
#
# Mechanical properties :
#
#
# Convention : Reuss Voigt Hill
#
# Bulk Modulus (GPa) = 68.25334 72.05883 70.15608
# Shear Modulus (GPa) = 41.92882 42.41686 42.17284
#
# Velocity S-wave (km/s) = 4.42243 4.44809 4.43528
# Velocity P-wave (km/s) = 7.61014 7.74550 7.67812
#
# Compressibility (1/GPa) = 0.01465130
#
# Stress axis : x y z
#
# Youngs Moduli (GPa) = 97.49052 97.48941 124.27220
#
# Poissons Ratio (x) = 0.12584 0.35197
# Poissons Ratio (y) = 0.12584 0.35197
# Poissons Ratio (z) = 0.27612 0.27611
#
# Static dielectric constant tensor:
#      x y z
#    x 1.674170 0.000000 0.000000 
#    y 0.000000 1.674170 0.000000 
#    z 0.000000 0.000000 1.724630 
# 
# From -- ./inp_files/3544.got.cif
#   From: 2010.05.17/outbox.cif.g08.bks.cpg/sg190_2_cif.got.tgz:3544.got - 2010.05.20 12:16:56.
