data_PCOD9586347
_publ_section_title
;
Structure prediction by ZEFSAII (Michael W. Deem and Ramdas Pophale) SiO2 
 PCOD9586347
Probable space group: P -6 2 M
;
_chemical_formula_sum "Si O2"
_cell_formula_units_Z 84
_cell_length_a 13.841460
_cell_length_b 13.841460
_cell_length_c 27.970538
_cell_angle_alpha 90.000000
_cell_angle_beta 90.000000
_cell_angle_gamma 120.000000
_cell_volume 4640.825680
_symmetry_space_group_name_H-M "P -6 2 M"
_symmetry_group_IT_number 189
_symmetry_cell_setting 'hexagonal'
loop_
_space_group_symop_operation_xyz
x,y,z
-x+y,-x,-z
-y,x-y,z
x,y,-z
-x+y,-x,z
-y,x-y,-z
x-y,-y,-z
-x,-x+y,-z
y,x,-z
y,x,z
x-y,-y,z
-x,-x+y,z
loop_
_atom_site_type_symbol
_atom_site_label
_atom_site_fract_x
_atom_site_fract_y
_atom_site_fract_z
Si Si1 0.868826 0.442186 0.448993
Si Si2 0.128841 0.804183 0.553876
Si Si3 0.453097 0.133286 0.738578
Si Si4 0.451665 0.129677 0.943198
Si Si5 0.469834 0.340358 0.214339
Si Si6 0.436087 0.128777 0.630660
Si Si7 0.870386 0.529648 0.897714
O O1 0.819771 0.386135 0.500000
O O2 0.869405 0.557445 0.446387
O O3 0.820045 0.364242 0.403403
O O4 0.000000 0.479336 0.450303
O O5 0.164120 0.853135 0.500000
O O6 0.208563 0.866873 0.598230
O O7 0.000000 0.770064 0.560504
O O8 0.429618 0.214355 0.770998
O O9 0.572513 0.149395 0.754683
O O10 0.454651 0.173877 0.684072
O O11 0.365548 0.000000 0.743367
O O12 0.429034 0.216679 0.915257
O O13 0.573380 0.152319 0.927543
O O14 0.366775 0.000000 0.931483
O O15 0.449124 0.144569 0.000000
O O16 0.377135 0.377135 0.221395
O O17 0.500889 0.355334 0.158345
O O18 0.398475 0.000000 0.638954
O O19 0.000000 0.620660 0.904805
#
# Coordination Sequence:
#
# PCOD9586347 Si02
#       7
#    12  12  12  12  12  12  12
#     4   8  15  29  46  64  89 119 151 187 229 284
#     4   9  18  32  50  71  95 125 159 195 239 295
#     4  10  22  37  53  78 108 136 178 228 274 328
#     4  10  20  33  53  83 116 149 180 217 269 317
#     4  10  21  37  57  78 104 144 183 224 278 319
#     4  10  20  32  49  71  95 126 158 194 246 300
#     4  10  20  34  54  79 107 144 188 226 265 317
#
# _framework density 18.100225999999999
#
# number of rings (size 3 to 8) (size 9 to 14) (size 15 to 20)
#    0.000    2.429    0.000    3.143    2.000    4.000 
#    0.857    0.000    0.000    0.857    0.000    0.000 
#    0.000    0.000    0.000    0.000    0.000    0.000 
#
# Total GULP energy -468286.586203 kJ/mol
# GULP energy per Si atom -5574.840312 kJ/mol
# Density = 1.805903 g / cm^3
# Si number density = 18.100226 Si / 1000 Ang^3
#
#
#
# Elastic Constant Matrix: (Units=GPa)
#
#
# Indices 1 2 3 4 5 6 
#
# 1 64.2449 21.5919 28.6980 0.0000 0.0000 0.0000
# 2 21.5919 64.2449 28.6980 0.0000 0.0000 0.0000
# 3 28.6980 28.6980 75.6932 0.0000 0.0000 0.0000
# 4 0.0000 0.0000 0.0000 23.3798 0.0000 0.0000
# 5 0.0000 0.0000 0.0000 0.0000 23.3798 0.0000
# 6 0.0000 0.0000 0.0000 0.0000 0.0000 21.3265
#
#
#
# Elastic Compliance Matrix: (Units=1/GPa)
#
#
# Indices 1 2 3 4 5 6 
#
# 1 0.019526 -0.003919 -0.005917 0.000000 0.000000 0.000000
# 2 -0.003919 0.019526 -0.005917 0.000000 0.000000 0.000000
# 3 -0.005917 -0.005917 0.017698 0.000000 0.000000 0.000000
# 4 0.000000 0.000000 0.000000 0.042772 0.000000 0.000000
# 5 0.000000 0.000000 0.000000 0.000000 0.042772 0.000000
# 6 0.000000 0.000000 0.000000 0.000000 0.000000 0.046890
#
#
# Mechanical properties :
#
#
# Convention : Reuss Voigt Hill
#
# Bulk Modulus (GPa) = 39.61500 40.23987 39.92744
# Shear Modulus (GPa) = 21.82414 21.96356 21.89385
#
# Velocity S-wave (km/s) = 3.47614 3.48723 3.48169
# Velocity P-wave (km/s) = 6.16809 6.20438 6.18626
#
# Compressibility (1/GPa) = 0.02524296
#
# Stress axis : x y z
#
# Youngs Moduli (GPa) = 51.21438 51.21438 56.50389
#
# Poissons Ratio (x) = 0.20072 0.33433
# Poissons Ratio (y) = 0.20072 0.33433
# Poissons Ratio (z) = 0.30303 0.30303
#
# Static dielectric constant tensor:
#      x y z
#    x 1.630940 0.000000 0.000000 
#    y 0.000000 1.630940 0.000000 
#    z 0.000000 0.000000 1.663810 
# 
# From -- ./inp_files/3596.got.cif
#   From: 2010.05.17/outbox.cif.g08.bks.cpg/sg189_2_cif.got.tgz:3596.got - 2010.05.20 12:14:34.
