data_PCOD9586937
_publ_section_title
;
Structure prediction by ZEFSAII (Michael W. Deem and Ramdas Pophale) SiO2 
 PCOD9586937
Probable space group: P -6 2 C
;
_chemical_formula_sum "Si O2"
_cell_formula_units_Z 30
_cell_length_a 9.013934
_cell_length_b 9.013934
_cell_length_c 22.298197
_cell_angle_alpha 90.000000
_cell_angle_beta 90.000000
_cell_angle_gamma 120.000000
_cell_volume 1569.022341
_symmetry_space_group_name_H-M "P -6 2 C"
_symmetry_group_IT_number 190
_symmetry_cell_setting 'hexagonal'
loop_
_space_group_symop_operation_xyz
x,y,z
-x+y,-x,1/2-z
-y,x-y,z
x,y,1/2-z
-x+y,-x,z
-y,x-y,1/2-z
x-y,-y,-z
-x,-x+y,-z
y,x,-z
y,x,1/2+z
x-y,-y,1/2+z
-x,-x+y,1/2+z
loop_
_atom_site_type_symbol
_atom_site_label
_atom_site_fract_x
_atom_site_fract_y
_atom_site_fract_z
Si Si1 0.000000 0.000000 0.928188
Si Si2 0.333334 0.666668 0.915641
Si Si3 0.850704 0.538719 0.750000
Si Si4 0.660317 0.987522 0.119472
Si Si5 0.333335 0.666667 0.059546
O O1 0.009657 0.837237 0.904540
O O2 0.000000 0.000000 0.000000
O O3 0.346139 0.505039 0.892834
O O4 0.333334 0.666667 0.987908
O O5 0.834690 0.350461 0.750000
O O6 0.940551 0.635850 0.810333
O O7 0.503296 0.829989 0.085044
#
# Coordination Sequence:
#
# PCOD9586937 Si02
#       5
#     4   4   6  12   4
#     4  12  27  46  68 106 141 177 232 281 340 414
#     4  12  27  40  68 106 132 177 232 266 340 411
#     4  10  22  46  72  94 134 176 228 280 340 406
#     4  12  25  44  72  97 138 182 222 283 338 397
#     4  12  21  46  68  97 141 180 217 284 337 396
#
# _framework density 19.120186
#
# number of rings (size 3 to 8) (size 9 to 14) (size 15 to 20)
#    0.400    0.000    4.000    6.000    0.000    3.200 
#    0.000    0.000    0.000    0.000    0.000    0.000 
#    0.000    0.000    0.000    0.000    0.000    0.000 
#
# Total GULP energy -167892.437987 kJ/mol
# GULP energy per Si atom -5596.414600 kJ/mol
# Density = 1.907667 g / cm^3
# Si number density = 19.120186 Si / 1000 Ang^3
#
#
#
# Elastic Constant Matrix: (Units=GPa)
#
#
# Indices 1 2 3 4 5 6 
#
# 1 63.7964 -21.3037 10.4198 0.0053 0.0046 0.0008
# 2 -21.3037 63.8008 10.4205 0.0051 0.0063 0.0012
# 3 10.4198 10.4205 190.8864 -0.0018 0.0005 0.0004
# 4 0.0053 0.0051 -0.0018 116.1231 -0.0146 -0.0008
# 5 0.0046 0.0063 0.0005 -0.0146 116.2600 -0.0001
# 6 0.0008 0.0012 0.0004 -0.0008 -0.0001 42.5516
#
#
#
# Elastic Compliance Matrix: (Units=1/GPa)
#
#
# Indices 1 2 3 4 5 6 
#
# 1 0.017966 0.006215 -0.001320 -0.000001 -0.000001 -0.000001
# 2 0.006215 0.017964 -0.001320 -0.000001 -0.000001 -0.000001
# 3 -0.001320 -0.001320 0.005383 0.000000 0.000000 0.000000
# 4 -0.000001 -0.000001 0.000000 0.008612 0.000001 0.000000
# 5 -0.000001 -0.000001 0.000000 0.000001 0.008601 0.000000
# 6 -0.000001 -0.000001 0.000000 0.000000 0.000000 0.023501
#
#
# Mechanical properties :
#
#
# Convention : Reuss Voigt Hill
#
# Bulk Modulus (GPa) = 20.63461 35.28407 27.95934
# Shear Modulus (GPa) = 54.92602 76.25007 65.58804
#
# Velocity S-wave (km/s) = 5.36555 6.32186 5.86323
# Velocity P-wave (km/s) = 7.01434 8.47241 7.77762
#
# Compressibility (1/GPa) = 0.04846228
#
# Stress axis : x y z
#
# Youngs Moduli (GPa) = 55.66169 55.66550 185.77616
#
# Poissons Ratio (x) = -0.34593 0.24521
# Poissons Ratio (y) = -0.34591 0.24521
# Poissons Ratio (z) = 0.07347 0.07347
#
# Static dielectric constant tensor:
#      x y z
#    x 1.634030 0.000000 0.000000 
#    y 0.000000 1.634030 0.000000 
#    z 0.000000 0.000000 1.633770 
# 
# From -- ./inp_files/4503.got.cif
#   From: 2010.05.17/outbox.cif.g08.bks.cpg/sg190_3_cif.got.tgz:4503.got - 2010.05.20 12:16:56.
