data_PCOD9586671
_publ_section_title
;
Structure prediction by ZEFSAII (Michael W. Deem and Ramdas Pophale) SiO2 
 PCOD9586671
Probable space group: P -6 2 C
;
_chemical_formula_sum "Si O2"
_cell_formula_units_Z 72
_cell_length_a 24.501935
_cell_length_b 24.501935
_cell_length_c 9.038778
_cell_angle_alpha 90.000000
_cell_angle_beta 90.000000
_cell_angle_gamma 120.000000
_cell_volume 4699.385996
_symmetry_space_group_name_H-M "P -6 2 C"
_symmetry_group_IT_number 190
_symmetry_cell_setting 'hexagonal'
loop_
_space_group_symop_operation_xyz
x,y,z
-x+y,-x,1/2-z
-y,x-y,z
x,y,1/2-z
-x+y,-x,z
-y,x-y,1/2-z
x-y,-y,-z
-x,-x+y,-z
y,x,-z
y,x,1/2+z
x-y,-y,1/2+z
-x,-x+y,1/2+z
loop_
_atom_site_type_symbol
_atom_site_label
_atom_site_fract_x
_atom_site_fract_y
_atom_site_fract_z
Si Si1 0.516056 0.368882 0.073309
Si Si2 0.811808 0.176511 0.918878
Si Si3 0.067706 0.367917 0.428437
Si Si4 0.635546 0.495443 0.073731
Si Si5 0.257898 0.517511 0.080866
Si Si6 0.630654 0.932344 0.926104
O O1 0.517320 0.359258 0.250000
O O2 0.564002 0.441899 0.041956
O O3 0.443579 0.344685 0.032117
O O4 0.538169 0.325109 0.990794
O O5 0.812708 0.156548 0.750000
O O6 0.882296 0.227392 0.967347
O O7 0.776917 0.217975 0.916999
O O8 0.768733 0.116774 0.019039
O O9 0.064705 0.369491 0.250000
O O10 0.096584 0.438843 0.491221
O O11 0.000000 0.324944 0.500000
O O12 0.643542 0.506317 0.250000
O O13 0.680238 0.468788 0.016055
O O14 0.262605 0.539230 0.250000
O O15 0.635082 0.938076 0.750000
O O16 0.670435 0.000000 0.000000
#
# Coordination Sequence:
#
# PCOD9586671 Si02
#       6
#    12  12  12  12  12  12
#     4   9  19  33  47  64  86 117 153 193 241 289
#     4   8  16  31  48  66  89 116 146 182 221 264
#     4  10  20  33  50  72  96 123 156 191 232 281
#     4  10  19  32  48  65  89 118 152 196 244 292
#     4   9  17  30  47  64  82 109 146 187 235 287
#     4  10  19  31  48  69  92 119 153 187 227 277
#
# _framework density 15.321149999999999
#
# number of rings (size 3 to 8) (size 9 to 14) (size 15 to 20)
#    0.000    2.667    0.000    3.000    0.000    7.333 
#    1.000    1.667    0.000    0.000    0.000    0.000 
#    0.000    0.000    0.000    0.500    0.000    8.000 
#
# Total GULP energy -401214.589572 kJ/mol
# GULP energy per Si atom -5572.424855 kJ/mol
# Density = 1.528628 g / cm^3
# Si number density = 15.321150 Si / 1000 Ang^3
#
#
#
# Elastic Constant Matrix: (Units=GPa)
#
#
# Indices 1 2 3 4 5 6 
#
# 1 82.4612 55.9056 46.6426 0.0000 0.0000 0.0000
# 2 55.9056 82.4612 46.6426 0.0000 0.0000 0.0000
# 3 46.6426 46.6426 62.2461 0.0000 0.0000 0.0000
# 4 0.0000 0.0000 0.0000 22.0933 0.0000 0.0000
# 5 0.0000 0.0000 0.0000 0.0000 22.0933 0.0000
# 6 0.0000 0.0000 0.0000 0.0000 0.0000 13.2778
#
#
#
# Elastic Compliance Matrix: (Units=1/GPa)
#
#
# Indices 1 2 3 4 5 6 
#
# 1 0.026131 -0.011526 -0.010945 0.000000 0.000000 0.000000
# 2 -0.011526 0.026131 -0.010945 0.000000 0.000000 0.000000
# 3 -0.010945 -0.010945 0.032467 0.000000 0.000000 0.000000
# 4 0.000000 0.000000 0.000000 0.045263 0.000000 0.000000
# 5 0.000000 0.000000 0.000000 0.000000 0.045263 0.000000
# 6 0.000000 0.000000 0.000000 0.000000 0.000000 0.075314
#
#
# Mechanical properties :
#
#
# Convention : Reuss Voigt Hill
#
# Bulk Modulus (GPa) = 55.86326 58.39447 57.12887
# Shear Modulus (GPa) = 15.46240 16.69137 16.07688
#
# Velocity S-wave (km/s) = 3.18027 3.30424 3.24284
# Velocity P-wave (km/s) = 7.07292 7.26317 7.16868
#
# Compressibility (1/GPa) = 0.01790085
#
# Stress axis : x y z
#
# Youngs Moduli (GPa) = 38.26822 38.26822 30.80024
#
# Poissons Ratio (x) = 0.44106 0.33709
# Poissons Ratio (y) = 0.44106 0.33709
# Poissons Ratio (z) = 0.41883 0.41883
#
# Static dielectric constant tensor:
#      x y z
#    x 1.503570 0.000000 0.000000 
#    y 0.000000 1.503570 0.000000 
#    z 0.000000 0.000000 1.514830 
# 
# From -- ./inp_files/1172.got.cif
#   From: 2010.05.17/outbox.cif.g08.bks.cpg/sg190_1_cif.got.tgz:1172.got - 2010.05.20 12:16:56.
