data_PCOD9586151
_publ_section_title
;
Structure prediction by ZEFSAII (Michael W. Deem and Ramdas Pophale) SiO2 
 PCOD9586151
Probable space group: P -6 2 M
;
_chemical_formula_sum "Si O2"
_cell_formula_units_Z 60
_cell_length_a 20.836563
_cell_length_b 20.836563
_cell_length_c 7.443254
_cell_angle_alpha 90.000000
_cell_angle_beta 90.000000
_cell_angle_gamma 120.000000
_cell_volume 2798.630985
_symmetry_space_group_name_H-M "P -6 2 M"
_symmetry_group_IT_number 189
_symmetry_cell_setting 'hexagonal'
loop_
_space_group_symop_operation_xyz
x,y,z
-x+y,-x,-z
-y,x-y,z
x,y,-z
-x+y,-x,z
-y,x-y,-z
x-y,-y,-z
-x,-x+y,-z
y,x,-z
y,x,z
x-y,-y,z
-x,-x+y,z
loop_
_atom_site_type_symbol
_atom_site_label
_atom_site_fract_x
_atom_site_fract_y
_atom_site_fract_z
Si Si1 0.173103 0.416472 0.779934
Si Si2 0.916687 0.164916 0.787554
Si Si3 0.848791 0.511612 0.792383
Si Si4 0.000000 0.807277 0.713246
Si Si5 0.585884 0.500460 0.219695
Si Si6 0.000000 0.660219 0.282794
O O1 0.137228 0.331404 0.717514
O O2 0.257381 0.467324 0.715107
O O3 0.121238 0.449874 0.729058
O O4 0.176207 0.416124 0.000000
O O5 0.000000 0.209335 0.713527
O O6 0.878382 0.076869 0.766099
O O7 0.922245 0.179749 0.000000
O O8 0.865769 0.449921 0.715717
O O9 0.927099 0.587867 0.784342
O O10 0.827364 0.490632 0.000000
O O11 0.000000 0.803477 0.500000
O O12 0.000000 0.733800 0.781062
O O13 0.537177 0.537177 0.277575
O O14 0.583196 0.498650 0.000000
O O15 0.000000 0.658697 0.500000
#
# Coordination Sequence:
#
# PCOD9586151 Si02
#       6
#    12  12  12   6  12   6
#     4   9  17  29  48  77 109 136 169 214 260 306
#     4  10  20  35  57  81 105 137 178 222 263 314
#     4  10  18  31  53  78 104 138 174 213 262 312
#     4  11  23  37  55  79 107 140 173 220 273 317
#     4   9  16  27  46  74 105 133 165 209 260 307
#     4  11  21  33  53  79 105 132 173 224 265 305
#
# _framework density 21.439053000000001
#
# number of rings (size 3 to 8) (size 9 to 14) (size 15 to 20)
#    0.000    2.200    3.000    1.200    0.000    3.600 
#    1.800    0.000    0.000    2.400    0.000    0.000 
#    0.000    0.000    0.000    0.000    0.000    0.000 
#
# Total GULP energy -335073.298097 kJ/mol
# GULP energy per Si atom -5584.554968 kJ/mol
# Density = 2.139026 g / cm^3
# Si number density = 21.439053 Si / 1000 Ang^3
#
#
#
# Elastic Constant Matrix: (Units=GPa)
#
#
# Indices 1 2 3 4 5 6 
#
# 1 140.1824 64.6508 -1.2542 0.0000 0.0000 0.0000
# 2 64.6508 140.1824 -1.2542 0.0000 0.0000 0.0000
# 3 -1.2542 -1.2542 68.2586 0.0000 0.0000 0.0000
# 4 0.0000 0.0000 0.0000 -30.9564 0.0000 0.0000
# 5 0.0000 0.0000 0.0000 0.0000 -30.9564 0.0000
# 6 0.0000 0.0000 0.0000 0.0000 0.0000 37.7658
#
#
#
# Elastic Compliance Matrix: (Units=1/GPa)
#
#
# Indices 1 2 3 4 5 6 
#
# 1 0.009061 -0.004178 0.000090 0.000000 0.000000 0.000000
# 2 -0.004178 0.009061 0.000090 0.000000 0.000000 0.000000
# 3 0.000090 0.000090 0.014653 0.000000 0.000000 0.000000
# 4 0.000000 0.000000 0.000000 -0.032303 0.000000 0.000000
# 5 0.000000 0.000000 0.000000 0.000000 -0.032303 0.000000
# 6 0.000000 0.000000 0.000000 0.000000 0.000000 0.026479
#
#
# Mechanical properties :
#
#
# Convention : Reuss Voigt Hill
#
# Bulk Modulus (GPa) = 40.35741 52.54536 46.45138
# Shear Modulus (GPa) = 458.49896 14.26932 236.38414
#
# Velocity S-wave (km/s) = 14.63987 2.58267 10.51180
# Velocity P-wave (km/s) = 17.45374 5.78412 13.00171
#
# Compressibility (1/GPa) = 0.02477860
#
# Stress axis : x y z
#
# Youngs Moduli (GPa) = 110.35941 110.35941 68.24322
#
# Poissons Ratio (x) = 0.46110 -0.00612
# Poissons Ratio (y) = 0.46110 -0.00612
# Poissons Ratio (z) = -0.00990 -0.00990
#
# Static dielectric constant tensor:
#      x y z
#    x 1.764080 0.000000 0.000000 
#    y 0.000000 1.764080 0.000000 
#    z 0.000000 0.000000 1.816090 
# 
# From -- ./inp_files/911.got.cif
#   From: 2010.05.17/outbox.cif.g08.bks.cpg/sg189_1_cif.got.tgz:911.got - 2010.05.20 12:14:34.
