data_PCOD9586567
_publ_section_title
;
Structure prediction by ZEFSAII (Michael W. Deem and Ramdas Pophale) SiO2 
 PCOD9586567
Probable space group: P -6 2 M
;
_chemical_formula_sum "Si O2"
_cell_formula_units_Z 60
_cell_length_a 15.072431
_cell_length_b 15.072431
_cell_length_c 14.139309
_cell_angle_alpha 90.000000
_cell_angle_beta 90.000000
_cell_angle_gamma 120.000000
_cell_volume 2781.796947
_symmetry_space_group_name_H-M "P -6 2 M"
_symmetry_group_IT_number 189
_symmetry_cell_setting 'hexagonal'
loop_
_space_group_symop_operation_xyz
x,y,z
-x+y,-x,-z
-y,x-y,z
x,y,-z
-x+y,-x,z
-y,x-y,-z
x-y,-y,-z
-x,-x+y,-z
y,x,-z
y,x,z
x-y,-y,z
-x,-x+y,z
loop_
_atom_site_type_symbol
_atom_site_label
_atom_site_fract_x
_atom_site_fract_y
_atom_site_fract_z
Si Si1 0.691218 0.886426 0.607960
Si Si2 0.343196 0.878854 0.393086
Si Si3 0.773506 0.549841 0.888013
Si Si4 0.558666 0.118669 0.795692
Si Si5 0.228355 0.114028 0.808692
O O1 0.724659 0.881554 0.500000
O O2 0.585767 0.779208 0.619712
O O3 0.757970 0.883984 0.694888
O O4 0.702964 0.000000 0.615824
O O5 0.370139 0.866719 0.500000
O O6 0.406219 0.859962 0.313467
O O7 0.375862 0.000000 0.382344
O O8 0.806831 0.475935 0.837749
O O9 0.661941 0.521928 0.851161
O O10 0.854058 0.663680 0.854984
O O11 0.773485 0.538755 0.000000
O O12 0.526253 0.000000 0.805878
O O13 0.145447 0.145447 0.836111
O O14 0.194034 0.000000 0.837384
#
# Coordination Sequence:
#
# PCOD9586567 Si02
#       5
#    12  12  12  12  12
#     4   9  17  31  57  95 136 178 221 262 310 378
#     4   9  17  34  63  95 129 171 215 260 317 386
#     4  12  26  44  68  96 125 162 219 283 339 399
#     4  11  24  45  70  97 129 167 211 267 337 401
#     4  11  23  40  62  94 135 179 223 270 327 395
#
# _framework density 21.568792999999999
#
# number of rings (size 3 to 8) (size 9 to 14) (size 15 to 20)
#    0.000    1.600    2.000    3.000    0.000    5.200 
#    0.000    2.000    0.000    7.600    0.000    2.800 
#    0.000    0.000    0.000    0.000    0.000    0.000 
#
# Total GULP energy -335165.465140 kJ/mol
# GULP energy per Si atom -5586.091086 kJ/mol
# Density = 2.151970 g / cm^3
# Si number density = 21.568793 Si / 1000 Ang^3
#
#
#
# Elastic Constant Matrix: (Units=GPa)
#
#
# Indices 1 2 3 4 5 6 
#
# 1 54.1635 0.5522 37.8889 0.0000 0.0000 0.0000
# 2 0.5522 54.1635 37.8889 0.0000 0.0000 0.0000
# 3 37.8889 37.8889 114.8382 0.0000 0.0000 0.0000
# 4 0.0000 0.0000 0.0000 351.8789 0.0000 0.0000
# 5 0.0000 0.0000 0.0000 0.0000 351.8790 0.0000
# 6 0.0000 0.0000 0.0000 0.0000 0.0000 26.8056
#
#
#
# Elastic Compliance Matrix: (Units=1/GPa)
#
#
# Indices 1 2 3 4 5 6 
#
# 1 0.026153 0.007501 -0.011104 0.000000 0.000000 0.000000
# 2 0.007501 0.026153 -0.011104 0.000000 0.000000 0.000000
# 3 -0.011104 -0.011104 0.016035 0.000000 0.000000 0.000000
# 4 0.000000 0.000000 0.000000 0.002842 0.000000 0.000000
# 5 0.000000 0.000000 0.000000 0.000000 0.002842 0.000000
# 6 0.000000 0.000000 0.000000 0.000000 0.000000 0.037306
#
#
# Mechanical properties :
#
#
# Convention : Reuss Voigt Hill
#
# Bulk Modulus (GPa) = 25.68808 41.75834 33.72321
# Shear Modulus (GPa) = 32.52666 155.90172 94.21419
#
# Velocity S-wave (km/s) = 3.88757 8.51106 6.61631
# Velocity P-wave (km/s) = 5.66450 10.76971 8.60445
#
# Compressibility (1/GPa) = 0.03892855
#
# Stress axis : x y z
#
# Youngs Moduli (GPa) = 38.23595 38.23595 62.36458
#
# Poissons Ratio (x) = -0.28679 0.69247
# Poissons Ratio (y) = -0.28679 0.69247
# Poissons Ratio (z) = 0.42455 0.42455
#
# Static dielectric constant tensor:
#      x y z
#    x 1.754410 0.000000 0.000000 
#    y 0.000000 1.754410 0.000000 
#    z 0.000000 0.000000 1.775080 
# 
# From -- ./inp_files/2538.got.cif
#   From: 2010.05.17/outbox.cif.g08.bks.cpg/sg189_2_cif.got.tgz:2538.got - 2010.05.20 12:14:34.
