data_PCOD9586861
_publ_section_title
;
Structure prediction by ZEFSAII (Michael W. Deem and Ramdas Pophale) SiO2 
 PCOD9586861
Probable space group: P -6 2 C
;
_chemical_formula_sum "Si O2"
_cell_formula_units_Z 42
_cell_length_a 8.620487
_cell_length_b 8.620487
_cell_length_c 33.392609
_cell_angle_alpha 90.000000
_cell_angle_beta 90.000000
_cell_angle_gamma 120.000000
_cell_volume 2149.040433
_symmetry_space_group_name_H-M "P -6 2 C"
_symmetry_group_IT_number 190
_symmetry_cell_setting 'hexagonal'
loop_
_space_group_symop_operation_xyz
x,y,z
-x+y,-x,1/2-z
-y,x-y,z
x,y,1/2-z
-x+y,-x,z
-y,x-y,1/2-z
x-y,-y,-z
-x,-x+y,-z
y,x,-z
y,x,1/2+z
x-y,-y,1/2+z
-x,-x+y,1/2+z
loop_
_atom_site_type_symbol
_atom_site_label
_atom_site_fract_x
_atom_site_fract_y
_atom_site_fract_z
Si Si1 0.995794 0.793072 0.295366
Si Si2 0.669991 0.670563 0.412443
Si Si3 0.794492 0.794492 0.500000
Si Si4 0.999570 0.661712 0.378820
O O1 0.994310 0.731863 0.250000
O O2 0.995235 0.670335 0.330780
O O3 0.831727 0.835103 0.299630
O O4 0.692574 0.694588 0.460065
O O5 0.863569 0.723756 0.394929
O O6 0.529164 0.474091 0.397259
O O7 0.610776 0.805662 0.394780
O O8 0.000000 0.832893 0.500000
#
# Coordination Sequence:
#
# PCOD9586861 Si02
#       4
#    12  12   6  12
#     4   8  15  33  66  93 123 174 221 259 313 381
#     4  12  24  39  68  89 134 168 217 274 323 386
#     4  10  20  42  68  88 116 178 226 270 320 378
#     4  12  22  42  60 102 126 172 215 271 325 388
#
# _framework density 19.543604999999999
#
# number of rings (size 3 to 8) (size 9 to 14) (size 15 to 20)
#    0.857    0.571    5.714    1.714    0.000    2.286 
#    0.000    2.857    0.000    0.000    0.000    0.000 
#    0.000    0.000    0.000    0.000    0.000    0.000 
#
# Total GULP energy -234262.936186 kJ/mol
# GULP energy per Si atom -5577.688957 kJ/mol
# Density = 1.949912 g / cm^3
# Si number density = 19.543605 Si / 1000 Ang^3
#
#
#
# Elastic Constant Matrix: (Units=GPa)
#
#
# Indices 1 2 3 4 5 6 
#
# 1 54.1859 2.0819 37.1596 0.0000 0.0000 0.0000
# 2 2.0819 54.1859 37.1596 0.0000 0.0000 0.0000
# 3 37.1596 37.1596 228.2128 0.0000 0.0000 0.0000
# 4 0.0000 0.0000 0.0000 0.2318 0.0000 0.0000
# 5 0.0000 0.0000 0.0000 0.0000 0.2318 0.0000
# 6 0.0000 0.0000 0.0000 0.0000 0.0000 26.0520
#
#
#
# Elastic Compliance Matrix: (Units=1/GPa)
#
#
# Indices 1 2 3 4 5 6 
#
# 1 0.020917 0.001725 -0.003687 0.000000 0.000000 0.000000
# 2 0.001725 0.020917 -0.003687 0.000000 0.000000 0.000000
# 3 -0.003687 -0.003687 0.005582 0.000000 0.000000 0.000000
# 4 0.000000 0.000000 0.000000 4.313448 0.000001 0.000000
# 5 0.000000 0.000000 0.000000 0.000001 4.313446 0.000000
# 6 0.000000 0.000000 0.000000 0.000000 0.000000 0.038385
#
#
# Mechanical properties :
#
#
# Convention : Reuss Voigt Hill
#
# Bulk Modulus (GPa) = 27.68637 54.37628 41.03133
# Shear Modulus (GPa) = 0.57234 22.64872 11.61053
#
# Velocity S-wave (km/s) = 0.54175 3.40793 2.44003
# Velocity P-wave (km/s) = 3.81949 6.58550 5.38318
#
# Compressibility (1/GPa) = 0.03611885
#
# Stress axis : x y z
#
# Youngs Moduli (GPa) = 47.80809 47.80809 179.13203
#
# Poissons Ratio (x) = -0.08245 0.66041
# Poissons Ratio (y) = -0.08245 0.66041
# Poissons Ratio (z) = 0.17625 0.17625
#
# Static dielectric constant tensor:
#      x y z
#    x 1.689870 0.000000 0.000000 
#    y 0.000000 1.689870 0.000000 
#    z 0.000000 0.000000 1.678040 
# 
# From -- ./inp_files/5076.got.cif
#   From: 2010.05.17/outbox.cif.g08.bks.cpg/sg190_3_cif.got.tgz:5076.got - 2010.05.20 12:16:56.
