data_PCOD9586899
_publ_section_title
;
Structure prediction by ZEFSAII (Michael W. Deem and Ramdas Pophale) SiO2 
 PCOD9586899
Probable space group: P -6 2 C
;
_chemical_formula_sum "Si O2"
_cell_formula_units_Z 58
_cell_length_a 14.508390
_cell_length_b 14.508390
_cell_length_c 14.676654
_cell_angle_alpha 90.000000
_cell_angle_beta 90.000000
_cell_angle_gamma 120.000000
_cell_volume 2675.445633
_symmetry_space_group_name_H-M "P -6 2 C"
_symmetry_group_IT_number 190
_symmetry_cell_setting 'hexagonal'
loop_
_space_group_symop_operation_xyz
x,y,z
-x+y,-x,1/2-z
-y,x-y,z
x,y,1/2-z
-x+y,-x,z
-y,x-y,1/2-z
x-y,-y,-z
-x,-x+y,-z
y,x,-z
y,x,1/2+z
x-y,-y,1/2+z
-x,-x+y,1/2+z
loop_
_atom_site_type_symbol
_atom_site_label
_atom_site_fract_x
_atom_site_fract_y
_atom_site_fract_z
Si Si1 0.193662 0.457272 0.548489
Si Si2 0.493124 0.967116 0.250000
Si Si3 0.228372 0.156110 0.088350
Si Si4 0.270941 0.331398 0.750000
Si Si5 0.846234 0.299625 0.250000
Si Si6 0.000000 0.000000 0.390805
Si Si7 0.892837 0.479307 0.547054
O O1 0.145552 0.330285 0.560482
O O2 0.204197 0.503306 0.651719
O O3 0.304009 0.504433 0.493899
O O4 0.122590 0.491862 0.492219
O O5 0.477490 0.903398 0.343706
O O6 0.618339 0.057550 0.250000
O O7 0.431969 0.033865 0.250000
O O8 0.268158 0.254344 0.158351
O O9 0.124824 0.055891 0.133100
O O10 0.187515 0.187515 0.000000
O O11 0.171916 0.352457 0.750000
O O12 0.000000 0.000000 0.500000
O O13 0.000000 0.570343 0.500000
#
# Coordination Sequence:
#
# PCOD9586899 Si02
#       7
#    12   6  12   6   6   4  12
#     4  11  24  42  68 102 134 191 235 291 357 434
#     4  12  24  46  66 101 149 185 232 308 366 429
#     4  10  21  41  64  94 135 172 228 281 343 409
#     4  10  22  40  66  97 130 177 229 281 345 419
#     4  10  22  40  64  98 135 170 241 291 339 408
#     4   9  21  40  65  94 130 179 211 286 329 400
#     4  12  25  44  71 101 145 186 241 298 367 441
#
# _framework density 21.678633000000001
#
# number of rings (size 3 to 8) (size 9 to 14) (size 15 to 20)
#    0.000    1.241    2.069    4.759    0.000    4.138 
#    0.621    1.034    0.000    0.000    0.000    0.000 
#    0.000    0.000    0.000    0.000    0.000    0.000 
#
# Total GULP energy -323421.266076 kJ/mol
# GULP energy per Si atom -5576.228725 kJ/mol
# Density = 2.162929 g / cm^3
# Si number density = 21.678633 Si / 1000 Ang^3
#
#
#
# Elastic Constant Matrix: (Units=GPa)
#
#
# Indices 1 2 3 4 5 6 
#
# 1 87.6321 31.3924 30.7982 0.0000 0.0000 0.0000
# 2 31.3924 87.6321 30.7982 0.0000 0.0000 0.0000
# 3 30.7982 30.7982 194.8212 0.0000 0.0000 0.0000
# 4 0.0000 0.0000 0.0000 18.9373 0.0000 0.0000
# 5 0.0000 0.0000 0.0000 0.0000 18.9373 0.0000
# 6 0.0000 0.0000 0.0000 0.0000 0.0000 28.1198
#
#
#
# Elastic Compliance Matrix: (Units=1/GPa)
#
#
# Indices 1 2 3 4 5 6 
#
# 1 0.013466 -0.004315 -0.001447 0.000000 0.000000 0.000000
# 2 -0.004315 0.013466 -0.001447 0.000000 0.000000 0.000000
# 3 -0.001447 -0.001447 0.005590 0.000000 0.000000 0.000000
# 4 0.000000 0.000000 0.000000 0.052806 0.000000 0.000000
# 5 0.000000 0.000000 0.000000 0.000000 0.052806 0.000000
# 6 0.000000 0.000000 0.000000 0.000000 0.000000 0.035562
#
#
# Mechanical properties :
#
#
# Convention : Reuss Voigt Hill
#
# Bulk Modulus (GPa) = 55.23446 61.78481 58.50963
# Shear Modulus (GPa) = 25.75368 31.67200 28.71284
#
# Velocity S-wave (km/s) = 3.45044 3.82642 3.64328
# Velocity P-wave (km/s) = 6.43491 6.93428 6.68926
#
# Compressibility (1/GPa) = 0.01810464
#
# Stress axis : x y z
#
# Youngs Moduli (GPa) = 74.26319 74.26319 178.88286
#
# Poissons Ratio (x) = 0.32048 0.25876
# Poissons Ratio (y) = 0.32048 0.25876
# Poissons Ratio (z) = 0.10742 0.10742
#
# Static dielectric constant tensor:
#      x y z
#    x 1.856710 0.000000 0.000000 
#    y 0.000000 1.856710 0.000000 
#    z 0.000000 0.000000 1.859810 
# 
# From -- ./inp_files/2891.got.cif
#   From: 2010.05.17/outbox.cif.g08.bks.cpg/sg190_2_cif.got.tgz:2891.got - 2010.05.20 12:16:56.
