data_PCOD9586568
_publ_section_title
;
Structure prediction by ZEFSAII (Michael W. Deem and Ramdas Pophale) SiO2 
 PCOD9586568
Probable space group: P -6 2 M
;
_chemical_formula_sum "Si O2"
_cell_formula_units_Z 48
_cell_length_a 17.844253
_cell_length_b 17.844253
_cell_length_c 8.684397
_cell_angle_alpha 90.000000
_cell_angle_beta 90.000000
_cell_angle_gamma 120.000000
_cell_volume 2394.787842
_symmetry_space_group_name_H-M "P -6 2 M"
_symmetry_group_IT_number 189
_symmetry_cell_setting 'hexagonal'
loop_
_space_group_symop_operation_xyz
x,y,z
-x+y,-x,-z
-y,x-y,z
x,y,-z
-x+y,-x,z
-y,x-y,-z
x-y,-y,-z
-x,-x+y,-z
y,x,-z
y,x,z
x-y,-y,z
-x,-x+y,z
loop_
_atom_site_type_symbol
_atom_site_label
_atom_site_fract_x
_atom_site_fract_y
_atom_site_fract_z
Si Si1 0.288514 0.187079 0.815986
Si Si2 0.000000 0.382084 0.320061
Si Si3 0.722218 0.204451 0.682827
Si Si4 0.547644 0.160815 0.817685
Si Si5 0.797856 0.797856 0.678773
O O1 0.248153 0.248153 0.779056
O O2 0.383343 0.225377 0.740844
O O3 0.223679 0.089747 0.758198
O O4 0.298263 0.185894 0.000000
O O5 0.000000 0.404317 0.500000
O O6 0.917873 0.373860 0.233521
O O7 0.000000 0.292633 0.314852
O O8 0.732395 0.215577 0.500000
O O9 0.622403 0.152050 0.732185
O O10 0.757225 0.297758 0.761865
O O11 0.560440 0.163023 0.000000
O O12 0.820877 0.820877 0.500000
#
# Coordination Sequence:
#
# PCOD9586568 Si02
#       5
#    12   6  12  12   6
#     4  11  25  45  70 100 134 172 219 274 335 398
#     4  11  23  41  65  97 127 166 217 266 322 388
#     4  12  25  43  66  95 134 176 220 272 327 386
#     4  12  25  42  65  94 129 172 220 268 321 385
#     4  11  23  43  73 101 131 170 219 270 334 402
#
# _framework density 20.043528999999999
#
# number of rings (size 3 to 8) (size 9 to 14) (size 15 to 20)
#    0.000    0.500    2.500    6.500    1.750    3.000 
#    0.750    0.000    0.000    0.000    0.000    0.000 
#    0.000    0.000    0.000    0.000    0.000    0.000 
#
# Total GULP energy -268583.579903 kJ/mol
# GULP energy per Si atom -5595.491248 kJ/mol
# Density = 1.999791 g / cm^3
# Si number density = 20.043529 Si / 1000 Ang^3
#
#
#
# Elastic Constant Matrix: (Units=GPa)
#
#
# Indices 1 2 3 4 5 6 
#
# 1 74.2265 7.1316 17.0132 0.0000 0.0000 0.0000
# 2 7.1316 74.2265 17.0132 0.0000 0.0000 0.0000
# 3 17.0132 17.0132 69.4404 0.0000 0.0000 0.0000
# 4 0.0000 0.0000 0.0000 13.7430 0.0000 0.0000
# 5 0.0000 0.0000 0.0000 0.0000 13.7430 0.0000
# 6 0.0000 0.0000 0.0000 0.0000 0.0000 33.5475
#
#
#
# Elastic Compliance Matrix: (Units=1/GPa)
#
#
# Indices 1 2 3 4 5 6 
#
# 1 0.014299 -0.000605 -0.003355 0.000000 0.000000 0.000000
# 2 -0.000605 0.014299 -0.003355 0.000000 0.000000 0.000000
# 3 -0.003355 -0.003355 0.016045 0.000000 0.000000 0.000000
# 4 0.000000 0.000000 0.000000 0.072764 0.000000 0.000000
# 5 0.000000 0.000000 0.000000 0.000000 0.072764 0.000000
# 6 0.000000 0.000000 0.000000 0.000000 0.000000 0.029809
#
#
# Mechanical properties :
#
#
# Convention : Reuss Voigt Hill
#
# Bulk Modulus (GPa) = 33.31869 33.35660 33.33764
# Shear Modulus (GPa) = 20.44022 23.98906 22.21464
#
# Velocity S-wave (km/s) = 3.19688 3.46330 3.33276
# Velocity P-wave (km/s) = 5.50327 5.71584 5.61056
#
# Compressibility (1/GPa) = 0.03001319
#
# Stress axis : x y z
#
# Youngs Moduli (GPa) = 69.93287 69.93287 62.32494
#
# Poissons Ratio (x) = 0.04230 0.20911
# Poissons Ratio (y) = 0.04230 0.20911
# Poissons Ratio (z) = 0.23464 0.23464
#
# Static dielectric constant tensor:
#      x y z
#    x 1.720290 0.000000 0.000000 
#    y 0.000000 1.720290 0.000000 
#    z 0.000000 0.000000 1.669340 
# 
# From -- ./inp_files/651.got.cif
#   From: 2010.05.17/outbox.cif.g08.bks.cpg/sg189_1_cif.got.tgz:651.got - 2010.05.20 12:14:34.
