data_PCOD9586811
_publ_section_title
;
Structure prediction by ZEFSAII (Michael W. Deem and Ramdas Pophale) SiO2 
 PCOD9586811
Probable space group: P -6 2 C
;
_chemical_formula_sum "Si O2"
_cell_formula_units_Z 58
_cell_length_a 13.997073
_cell_length_b 13.997073
_cell_length_c 13.907790
_cell_angle_alpha 90.000000
_cell_angle_beta 90.000000
_cell_angle_gamma 120.000000
_cell_volume 2359.734876
_symmetry_space_group_name_H-M "P -6 2 C"
_symmetry_group_IT_number 190
_symmetry_cell_setting 'hexagonal'
loop_
_space_group_symop_operation_xyz
x,y,z
-x+y,-x,1/2-z
-y,x-y,z
x,y,1/2-z
-x+y,-x,z
-y,x-y,1/2-z
x-y,-y,-z
-x,-x+y,-z
y,x,-z
y,x,1/2+z
x-y,-y,1/2+z
-x,-x+y,1/2+z
loop_
_atom_site_type_symbol
_atom_site_label
_atom_site_fract_x
_atom_site_fract_y
_atom_site_fract_z
Si Si1 0.756219 0.099778 0.357784
Si Si2 0.000000 0.000000 0.362327
Si Si3 0.869819 0.343942 0.572490
Si Si4 0.462557 0.108239 0.141018
Si Si5 0.678013 0.130080 0.642787
Si Si6 0.000000 0.845665 0.500000
O O1 0.785410 0.077628 0.250000
O O2 0.793387 0.227652 0.354759
O O3 0.825230 0.084611 0.440789
O O4 0.882032 0.946131 0.415039
O O5 0.000000 0.000000 0.250000
O O6 0.873293 0.391129 0.464362
O O7 0.775819 0.217809 0.577460
O O8 0.845677 0.424079 0.636603
O O9 0.985018 0.361255 0.616261
O O10 0.504849 0.104653 0.250000
O O11 0.724300 0.151202 0.750000
O O12 0.631578 0.999929 0.623953
#
# Coordination Sequence:
#
# PCOD9586811 Si02
#       6
#    12   4  12  12  12   6
#     4  10  22  39  63  93 127 167 216 273 337 403
#     4  10  23  37  52  80 121 166 215 277 343 401
#     4  11  24  42  69  99 133 179 229 280 341 408
#     4  10  23  43  64  92 131 176 223 277 339 407
#     4  11  23  42  69 102 136 175 225 283 340 404
#     4  10  20  36  58  82 116 162 214 270 328 402
#
# _framework density 24.579031000000001
#
# number of rings (size 3 to 8) (size 9 to 14) (size 15 to 20)
#    0.000    1.655    0.000    4.138    0.000   11.586 
#    0.000    7.241    0.000    2.897    0.000    5.793 
#    0.000    0.000    0.000    0.000    0.000    0.000 
#
# Total GULP energy -323179.204389 kJ/mol
# GULP energy per Si atom -5572.055248 kJ/mol
# Density = 2.452309 g / cm^3
# Si number density = 24.579031 Si / 1000 Ang^3
#
#
#
# Elastic Constant Matrix: (Units=GPa)
#
#
# Indices 1 2 3 4 5 6 
#
# 1 58.9666 18.3177 12.9265 0.0000 0.0000 0.0000
# 2 18.3177 58.9666 12.9265 0.0000 0.0000 0.0000
# 3 12.9265 12.9265 203.9624 0.0000 0.0000 0.0000
# 4 0.0000 0.0000 0.0000 32.8989 0.0000 0.0000
# 5 0.0000 0.0000 0.0000 0.0000 32.8989 0.0000
# 6 0.0000 0.0000 0.0000 0.0000 0.0000 20.3245
#
#
#
# Elastic Compliance Matrix: (Units=1/GPa)
#
#
# Indices 1 2 3 4 5 6 
#
# 1 0.018910 -0.005691 -0.000838 0.000000 0.000000 0.000000
# 2 -0.005691 0.018910 -0.000838 0.000000 0.000000 0.000000
# 3 -0.000838 -0.000838 0.005009 0.000000 0.000000 0.000000
# 4 0.000000 0.000000 0.000000 0.030396 0.000000 0.000000
# 5 0.000000 0.000000 0.000000 0.000000 0.030396 0.000000
# 6 0.000000 0.000000 0.000000 0.000000 0.000000 0.049202
#
#
# Mechanical properties :
#
#
# Convention : Reuss Voigt Hill
#
# Bulk Modulus (GPa) = 35.59125 45.58191 40.58658
# Shear Modulus (GPa) = 28.26107 35.73945 32.00026
#
# Velocity S-wave (km/s) = 3.39455 3.81735 3.61215
# Velocity P-wave (km/s) = 5.46587 6.16562 5.82626
#
# Compressibility (1/GPa) = 0.02809680
#
# Stress axis : x y z
#
# Youngs Moduli (GPa) = 52.88152 52.88152 199.63828
#
# Poissons Ratio (x) = 0.30093 0.16726
# Poissons Ratio (y) = 0.30093 0.16726
# Poissons Ratio (z) = 0.04430 0.04430
#
# Static dielectric constant tensor:
#      x y z
#    x 1.997080 0.000000 0.000000 
#    y 0.000000 1.997080 0.000000 
#    z 0.000000 0.000000 1.960060 
# 
# From -- ./inp_files/2880.got.cif
#   From: 2010.05.17/outbox.cif.g08.bks.cpg/sg190_2_cif.got.tgz:2880.got - 2010.05.20 12:16:56.
