data_PCOD9586109
_publ_section_title
;
Structure prediction by ZEFSAII (Michael W. Deem and Ramdas Pophale) SiO2 
 PCOD9586109
Probable space group: P -6 2 M
;
_chemical_formula_sum "Si O2"
_cell_formula_units_Z 84
_cell_length_a 14.035433
_cell_length_b 14.035433
_cell_length_c 28.610982
_cell_angle_alpha 90.000000
_cell_angle_beta 90.000000
_cell_angle_gamma 120.000000
_cell_volume 4881.069894
_symmetry_space_group_name_H-M "P -6 2 M"
_symmetry_group_IT_number 189
_symmetry_cell_setting 'hexagonal'
loop_
_space_group_symop_operation_xyz
x,y,z
-x+y,-x,-z
-y,x-y,z
x,y,-z
-x+y,-x,z
-y,x-y,-z
x-y,-y,-z
-x,-x+y,-z
y,x,-z
y,x,z
x-y,-y,z
-x,-x+y,z
loop_
_atom_site_type_symbol
_atom_site_label
_atom_site_fract_x
_atom_site_fract_y
_atom_site_fract_z
Si Si1 0.804199 0.431067 0.000000
Si Si2 0.453967 0.126972 0.644030
Si Si3 0.343382 0.474994 0.199993
Si Si4 0.258394 0.128547 0.944456
Si Si5 0.319649 0.872437 0.755857
Si Si6 0.796032 0.454416 0.500000
Si Si7 0.336582 0.462746 0.602490
Si Si8 0.870750 0.547049 0.095733
O O1 0.699217 0.449232 0.000000
O O2 0.859210 0.477002 0.950421
O O3 0.450319 0.136769 0.699851
O O4 0.431212 0.216441 0.620166
O O5 0.573854 0.149425 0.627836
O O6 0.369460 0.000000 0.631023
O O7 0.387522 0.387522 0.202364
O O8 0.434323 0.582203 0.227096
O O9 0.222469 0.429742 0.221447
O O10 0.340920 0.508410 0.145842
O O11 0.178441 0.178441 0.934578
O O12 0.371300 0.196419 0.916416
O O13 0.196497 0.000000 0.934866
O O14 0.283038 0.146684 0.000000
O O15 0.359040 0.000000 0.768382
O O16 0.766003 0.326642 0.500000
O O17 0.856996 0.511916 0.452703
O O18 0.373353 0.373353 0.612546
O O19 0.000000 0.626168 0.101034
#
# Coordination Sequence:
#
# PCOD9586109 Si02
#       8
#     6  12  12  12  12   6  12  12
#     4  10  23  34  52  72  91 124 168 200 238 292
#     4  10  20  34  53  79 109 143 185 232 281 323
#     4  10  22  37  57  81 105 140 174 213 272 330
#     4   9  16  28  48  72  98 125 155 191 235 290
#     4  10  21  36  56  81 108 139 179 229 275 322
#     4  10  17  32  52  76 123 156 188 226 272 322
#     4  11  20  33  55  81 116 154 189 228 274 327
#     4  10  20  37  54  72 102 131 157 197 250 302
#
# _framework density 17.209340999999998
#
# number of rings (size 3 to 8) (size 9 to 14) (size 15 to 20)
#    0.286    1.714    2.143    2.000    2.000    2.857 
#    0.000    1.786    0.000    0.571    0.000    0.000 
#    0.000    0.000    0.000    0.000    0.000    0.000 
#
# Total GULP energy -468170.901688 kJ/mol
# GULP energy per Si atom -5573.463115 kJ/mol
# Density = 1.717017 g / cm^3
# Si number density = 17.209341 Si / 1000 Ang^3
#
#
#
# Elastic Constant Matrix: (Units=GPa)
#
#
# Indices 1 2 3 4 5 6 
#
# 1 75.9793 39.0663 27.0433 0.0000 0.0000 0.0000
# 2 39.0663 75.9793 27.0433 0.0000 0.0000 0.0000
# 3 27.0433 27.0433 80.0634 0.0000 0.0000 0.0000
# 4 0.0000 0.0000 0.0000 13.1678 0.0000 0.0000
# 5 0.0000 0.0000 0.0000 0.0000 13.1678 0.0000
# 6 0.0000 0.0000 0.0000 0.0000 0.0000 18.4565
#
#
#
# Elastic Compliance Matrix: (Units=1/GPa)
#
#
# Indices 1 2 3 4 5 6 
#
# 1 0.018712 -0.008379 -0.003490 0.000000 0.000000 0.000000
# 2 -0.008379 0.018712 -0.003490 0.000000 0.000000 0.000000
# 3 -0.003490 -0.003490 0.014848 0.000000 0.000000 0.000000
# 4 0.000000 0.000000 0.000000 0.075943 0.000000 0.000000
# 5 0.000000 0.000000 0.000000 0.000000 0.075943 0.000000
# 6 0.000000 0.000000 0.000000 0.000000 0.000000 0.054181
#
#
# Mechanical properties :
#
#
# Convention : Reuss Voigt Hill
#
# Bulk Modulus (GPa) = 46.39699 46.48086 46.43893
# Shear Modulus (GPa) = 16.87809 18.21636 17.54723
#
# Velocity S-wave (km/s) = 3.13509 3.25701 3.19663
# Velocity P-wave (km/s) = 6.33435 6.41965 6.37714
#
# Compressibility (1/GPa) = 0.02155312
#
# Stress axis : x y z
#
# Youngs Moduli (GPa) = 53.44200 53.44200 67.34953
#
# Poissons Ratio (x) = 0.44778 0.23507
# Poissons Ratio (y) = 0.44778 0.23507
# Poissons Ratio (z) = 0.18653 0.18653
#
# Static dielectric constant tensor:
#      x y z
#    x 1.583210 0.000000 0.000000 
#    y 0.000000 1.583210 0.000000 
#    z 0.000000 0.000000 1.613800 
# 
# From -- ./inp_files/3692.got.cif
#   From: 2010.05.17/outbox.cif.g08.bks.cpg/sg189_2_cif.got.tgz:3692.got - 2010.05.20 12:14:34.
