data_PCOD9586522
_publ_section_title
;
Structure prediction by ZEFSAII (Michael W. Deem and Ramdas Pophale) SiO2 
 PCOD9586522
Probable space group: P -6 2 M
;
_chemical_formula_sum "Si O2"
_cell_formula_units_Z 74
_cell_length_a 16.190568
_cell_length_b 16.190568
_cell_length_c 17.890776
_cell_angle_alpha 90.000000
_cell_angle_beta 90.000000
_cell_angle_gamma 120.000000
_cell_volume 4061.476829
_symmetry_space_group_name_H-M "P -6 2 M"
_symmetry_group_IT_number 189
_symmetry_cell_setting 'hexagonal'
loop_
_space_group_symop_operation_xyz
x,y,z
-x+y,-x,-z
-y,x-y,z
x,y,-z
-x+y,-x,z
-y,x-y,-z
x-y,-y,-z
-x,-x+y,-z
y,x,-z
y,x,z
x-y,-y,z
-x,-x+y,z
loop_
_atom_site_type_symbol
_atom_site_label
_atom_site_fract_x
_atom_site_fract_y
_atom_site_fract_z
Si Si1 0.335633 0.113740 0.145918
Si Si2 0.802427 0.292017 0.652474
Si Si3 0.000000 0.807096 0.410042
Si Si4 0.891184 0.175625 0.690124
Si Si5 0.499686 0.388014 0.411730
Si Si6 0.000000 0.000000 0.411223
Si Si7 0.113023 0.887166 0.000000
Si Si8 0.691512 0.447934 0.822662
O O1 0.300446 0.139542 0.222954
O O2 0.289424 0.132075 0.073762
O O3 0.450113 0.172440 0.142968
O O4 0.295483 0.000000 0.150483
O O5 0.885322 0.267539 0.666334
O O6 0.845374 0.387620 0.604192
O O7 0.711931 0.195708 0.621150
O O8 0.771081 0.310066 0.733484
O O9 0.000000 0.793446 0.500000
O O10 0.092877 0.823486 0.366514
O O11 0.000000 0.904697 0.391745
O O12 0.000000 0.200061 0.685069
O O13 0.482629 0.374823 0.500000
O O14 0.435816 0.435816 0.384231
O O15 0.000000 0.000000 0.500000
O O16 0.000000 0.826300 0.000000
O O17 0.149130 0.000000 0.000000
O O18 0.589943 0.354928 0.841894
#
# Coordination Sequence:
#
# PCOD9586522 Si02
#       8
#    12  12   6  12  12   2   6  12
#     4   9  20  38  61  90 123 158 193 243 296 350
#     4  11  20  39  57  77 110 148 192 252 304 355
#     4  11  22  36  54  77 110 150 194 242 294 352
#     4  10  22  37  58  83 111 152 198 237 291 357
#     4  11  23  36  53  79 107 145 198 251 312 375
#     4   9  18  36  54  72 102 148 194 235 288 354
#     4  10  21  40  64  92 130 166 201 244 296 352
#     4   9  17  36  62  87 113 153 200 236 288 356
#
# _framework density 18.219973
#
# number of rings (size 3 to 8) (size 9 to 14) (size 15 to 20)
#    0.324    1.622    2.432    1.378    2.270    1.946 
#    0.000    1.622    0.000    0.973    0.000    0.000 
#    0.000    0.000    0.000    0.000    0.000    0.000 
#
# Total GULP energy -412052.547730 kJ/mol
# GULP energy per Si atom -5568.277672 kJ/mol
# Density = 1.817850 g / cm^3
# Si number density = 18.219973 Si / 1000 Ang^3
#
#
#
# Elastic Constant Matrix: (Units=GPa)
#
#
# Indices 1 2 3 4 5 6 
#
# 1 94.4812 32.5045 38.8275 0.0000 0.0000 0.0000
# 2 32.5045 94.4812 38.8275 0.0000 0.0000 0.0000
# 3 38.8275 38.8275 85.3561 0.0000 0.0000 0.0000
# 4 0.0000 0.0000 0.0000 18.1082 0.0000 0.0000
# 5 0.0000 0.0000 0.0000 0.0000 18.1082 0.0000
# 6 0.0000 0.0000 0.0000 0.0000 0.0000 30.9884
#
#
#
# Elastic Compliance Matrix: (Units=1/GPa)
#
#
# Indices 1 2 3 4 5 6 
#
# 1 0.013522 -0.002613 -0.004963 0.000000 0.000000 0.000000
# 2 -0.002613 0.013522 -0.004963 0.000000 0.000000 0.000000
# 3 -0.004963 -0.004963 0.016231 0.000000 0.000000 0.000000
# 4 0.000000 0.000000 0.000000 0.055224 0.000000 0.000000
# 5 0.000000 0.000000 0.000000 0.000000 0.055224 0.000000
# 6 0.000000 0.000000 0.000000 0.000000 0.000000 0.032270
#
#
# Mechanical properties :
#
#
# Convention : Reuss Voigt Hill
#
# Bulk Modulus (GPa) = 54.94747 54.95972 54.95360
# Shear Modulus (GPa) = 23.02707 24.38486 23.70597
#
# Velocity S-wave (km/s) = 3.55891 3.66233 3.61099
# Velocity P-wave (km/s) = 6.86375 6.93639 6.90017
#
# Compressibility (1/GPa) = 0.01819920
#
# Stress axis : x y z
#
# Youngs Moduli (GPa) = 73.95127 73.95127 61.61205
#
# Poissons Ratio (x) = 0.19321 0.30576
# Poissons Ratio (y) = 0.19321 0.30576
# Poissons Ratio (z) = 0.36700 0.36700
#
# Static dielectric constant tensor:
#      x y z
#    x 1.610830 0.000000 0.000000 
#    y 0.000000 1.610830 0.000000 
#    z 0.000000 0.000000 1.613540 
# 
# From -- ./inp_files/3458.got.cif
#   From: 2010.05.17/outbox.cif.g08.bks.cpg/sg189_2_cif.got.tgz:3458.got - 2010.05.20 12:14:34.
