data_PCOD9586873
_publ_section_title
;
Structure prediction by ZEFSAII (Michael W. Deem and Ramdas Pophale) SiO2 
 PCOD9586873
Probable space group: P -6 2 C
;
_chemical_formula_sum "Si O2"
_cell_formula_units_Z 60
_cell_length_a 19.724894
_cell_length_b 19.724894
_cell_length_c 9.432663
_cell_angle_alpha 90.000000
_cell_angle_beta 90.000000
_cell_angle_gamma 120.000000
_cell_volume 3178.295745
_symmetry_space_group_name_H-M "P -6 2 C"
_symmetry_group_IT_number 190
_symmetry_cell_setting 'hexagonal'
loop_
_space_group_symop_operation_xyz
x,y,z
-x+y,-x,1/2-z
-y,x-y,z
x,y,1/2-z
-x+y,-x,z
-y,x-y,1/2-z
x-y,-y,-z
-x,-x+y,-z
y,x,-z
y,x,1/2+z
x-y,-y,1/2+z
-x,-x+y,1/2+z
loop_
_atom_site_type_symbol
_atom_site_label
_atom_site_fract_x
_atom_site_fract_y
_atom_site_fract_z
Si Si1 0.937996 0.123585 0.750000
Si Si2 0.061273 0.877418 0.750000
Si Si3 0.085190 0.533045 0.421023
Si Si4 0.080825 0.405683 0.914245
Si Si5 0.150076 0.852412 0.503627
Si Si6 0.598385 0.920842 0.087061
O O1 0.914355 0.156274 0.613878
O O2 0.028490 0.147233 0.750000
O O3 0.882297 0.029308 0.750000
O O4 0.084485 0.844667 0.613757
O O5 0.080002 0.519895 0.250000
O O6 0.123451 0.487701 0.499445
O O7 0.119743 0.625485 0.447025
O O8 0.000000 0.494259 0.500000
O O9 0.068881 0.418756 0.750000
O O10 0.120297 0.352287 0.920372
O O11 0.000000 0.356458 0.000000
O O12 0.127208 0.769634 0.434936
O O13 0.604769 0.944047 0.250000
O O14 0.644268 0.000000 0.000000
#
# Coordination Sequence:
#
# PCOD9586873 Si02
#       6
#     6   6  12  12  12  12
#     4  12  25  42  64  80 120 164 222 280 340 388
#     4  12  25  44  58  88 114 166 222 280 338 390
#     4   9  18  33  57  85 113 142 174 217 282 354
#     4  11  22  37  57  86 118 151 195 244 302 364
#     4  12  25  38  60  88 120 161 209 267 319 370
#     4  10  21  37  58  87 118 152 193 243 301 364
#
# _framework density 18.878042000000001
#
# number of rings (size 3 to 8) (size 9 to 14) (size 15 to 20)
#    0.000    1.200    2.000    6.200    4.200    0.800 
#    0.000    2.000    0.000    0.800    0.000    0.000 
#    0.000    0.000    0.000    0.000    0.000    0.000 
#
# Total GULP energy -334684.120481 kJ/mol
# GULP energy per Si atom -5578.068675 kJ/mol
# Density = 1.883507 g / cm^3
# Si number density = 18.878042 Si / 1000 Ang^3
#
#
#
# Elastic Constant Matrix: (Units=GPa)
#
#
# Indices 1 2 3 4 5 6 
#
# 1 83.2076 23.6649 23.1100 0.0000 0.0000 0.0000
# 2 23.6649 83.2076 23.1100 0.0000 0.0000 0.0000
# 3 23.1100 23.1100 121.7778 0.0000 0.0000 0.0000
# 4 0.0000 0.0000 0.0000 27.9992 0.0000 0.0000
# 5 0.0000 0.0000 0.0000 0.0000 27.9992 0.0000
# 6 0.0000 0.0000 0.0000 0.0000 0.0000 29.7714
#
#
#
# Elastic Compliance Matrix: (Units=1/GPa)
#
#
# Indices 1 2 3 4 5 6 
#
# 1 0.013494 -0.003301 -0.001934 0.000000 0.000000 0.000000
# 2 -0.003301 0.013494 -0.001934 0.000000 0.000000 0.000000
# 3 -0.001934 -0.001934 0.008946 0.000000 0.000000 0.000000
# 4 0.000000 0.000000 0.000000 0.035715 0.000000 0.000000
# 5 0.000000 0.000000 0.000000 0.000000 0.035715 0.000000
# 6 0.000000 0.000000 0.000000 0.000000 0.000000 0.033589
#
#
# Mechanical properties :
#
#
# Convention : Reuss Voigt Hill
#
# Bulk Modulus (GPa) = 46.30661 47.55143 46.92902
# Shear Modulus (GPa) = 30.77086 31.70782 31.23934
#
# Velocity S-wave (km/s) = 4.04168 4.10276 4.07233
# Velocity P-wave (km/s) = 6.80903 6.90557 6.85747
#
# Compressibility (1/GPa) = 0.02159519
#
# Stress axis : x y z
#
# Youngs Moduli (GPa) = 74.10644 74.10644 111.78324
#
# Poissons Ratio (x) = 0.24459 0.21624
# Poissons Ratio (y) = 0.24459 0.21624
# Poissons Ratio (z) = 0.14336 0.14336
#
# Static dielectric constant tensor:
#      x y z
#    x 1.682740 0.000000 0.000000 
#    y 0.000000 1.682740 0.000000 
#    z 0.000000 0.000000 1.672190 
# 
# From -- ./inp_files/949.got.cif
#   From: 2010.05.17/outbox.cif.g08.bks.cpg/sg190_1_cif.got.tgz:949.got - 2010.05.20 12:16:56.
