data_PCOD9586482
_publ_section_title
;
Structure prediction by ZEFSAII (Michael W. Deem and Ramdas Pophale) SiO2 
 PCOD9586482
Probable space group: P -6 2 M
;
_chemical_formula_sum "Si O2"
_cell_formula_units_Z 84
_cell_length_a 18.448050
_cell_length_b 18.448050
_cell_length_c 14.047987
_cell_angle_alpha 90.000000
_cell_angle_beta 90.000000
_cell_angle_gamma 120.000000
_cell_volume 4140.432057
_symmetry_space_group_name_H-M "P -6 2 M"
_symmetry_group_IT_number 189
_symmetry_cell_setting 'hexagonal'
loop_
_space_group_symop_operation_xyz
x,y,z
-x+y,-x,-z
-y,x-y,z
x,y,-z
-x+y,-x,z
-y,x-y,-z
x-y,-y,-z
-x,-x+y,-z
y,x,-z
y,x,z
x-y,-y,z
-x,-x+y,z
loop_
_atom_site_type_symbol
_atom_site_label
_atom_site_fract_x
_atom_site_fract_y
_atom_site_fract_z
Si Si1 0.806554 0.290161 0.613314
Si Si2 0.198495 0.823860 0.114344
Si Si3 0.901772 0.803133 0.787920
Si Si4 0.638979 0.094479 0.195375
Si Si5 0.608056 0.510895 0.114543
Si Si6 0.707518 0.806720 0.389006
Si Si7 0.622738 0.150176 0.612665
O O1 0.819563 0.293901 0.500000
O O2 0.849163 0.237276 0.647256
O O3 0.706838 0.239730 0.627320
O O4 0.846098 0.386334 0.640840
O O5 0.157168 0.877965 0.149852
O O6 0.146278 0.732119 0.158301
O O7 0.295244 0.859434 0.142180
O O8 0.194548 0.820089 0.000000
O O9 0.869080 0.869080 0.798194
O O10 0.882080 0.767654 0.679761
O O11 0.000000 0.845193 0.810060
O O12 0.581119 0.131065 0.157021
O O13 0.634553 0.093913 0.309901
O O14 0.597731 0.000000 0.158729
O O15 0.564608 0.564608 0.143928
O O16 0.604383 0.503803 0.000000
O O17 0.711366 0.831025 0.500000
O O18 0.739918 0.739918 0.383649
O O19 0.618973 0.128765 0.500000
#
# Coordination Sequence:
#
# PCOD9586482 Si02
#       7
#    12  12  12  12  12  12  12
#     4   9  18  34  53  77 114 161 210 257 302 354
#     4  11  24  44  67  91 120 162 210 260 321 387
#     4  11  24  41  65  96 130 166 210 263 322 387
#     4  11  24  38  60  92 124 161 203 253 312 365
#     4   9  20  41  65  89 119 155 199 251 306 367
#     4   9  19  36  60  89 122 165 214 261 310 372
#     4  10  21  35  54  82 121 164 205 248 301 361
#
# _framework density 20.287738000000001
#
# number of rings (size 3 to 8) (size 9 to 14) (size 15 to 20)
#    0.000    2.000    0.000    2.571    4.000    4.857 
#    0.857    1.429    0.000    6.000    0.000    0.000 
#    0.000    0.000    0.000    0.000    0.000    0.000 
#
# Total GULP energy -468910.801224 kJ/mol
# GULP energy per Si atom -5582.271443 kJ/mol
# Density = 2.024156 g / cm^3
# Si number density = 20.287738 Si / 1000 Ang^3
#
#
#
# Elastic Constant Matrix: (Units=GPa)
#
#
# Indices 1 2 3 4 5 6 
#
# 1 71.5318 17.8932 14.1976 0.0000 0.0000 0.0000
# 2 17.8932 71.5318 14.1976 0.0000 0.0000 0.0000
# 3 14.1976 14.1976 58.9128 0.0000 0.0000 0.0000
# 4 0.0000 0.0000 0.0000 22.1787 0.0000 0.0000
# 5 0.0000 0.0000 0.0000 0.0000 22.1787 0.0000
# 6 0.0000 0.0000 0.0000 0.0000 0.0000 26.8193
#
#
#
# Elastic Compliance Matrix: (Units=1/GPa)
#
#
# Indices 1 2 3 4 5 6 
#
# 1 0.015376 -0.003267 -0.002918 0.000000 0.000000 0.000000
# 2 -0.003267 0.015376 -0.002918 0.000000 0.000000 0.000000
# 3 -0.002918 -0.002918 0.018381 0.000000 0.000000 0.000000
# 4 0.000000 0.000000 0.000000 0.045088 0.000000 0.000000
# 5 0.000000 0.000000 0.000000 0.000000 0.045088 0.000000
# 6 0.000000 0.000000 0.000000 0.000000 0.000000 0.037287
#
#
# Mechanical properties :
#
#
# Convention : Reuss Voigt Hill
#
# Bulk Modulus (GPa) = 32.33502 32.72813 32.53157
# Shear Modulus (GPa) = 24.37687 24.61452 24.49569
#
# Velocity S-wave (km/s) = 3.47011 3.48698 3.47856
# Velocity P-wave (km/s) = 5.65936 5.69026 5.67483
#
# Compressibility (1/GPa) = 0.03092622
#
# Stress axis : x y z
#
# Youngs Moduli (GPa) = 65.03538 65.03538 54.40459
#
# Poissons Ratio (x) = 0.21247 0.15877
# Poissons Ratio (y) = 0.21247 0.15877
# Poissons Ratio (z) = 0.18979 0.18979
#
# Static dielectric constant tensor:
#      x y z
#    x 1.714370 0.000000 0.000000 
#    y 0.000000 1.714370 0.000000 
#    z 0.000000 0.000000 1.751580 
# 
# From -- ./inp_files/2802.got.cif
#   From: 2010.05.17/outbox.cif.g08.bks.cpg/sg189_2_cif.got.tgz:2802.got - 2010.05.20 12:14:34.
