data_PCOD9586551
_publ_section_title
;
Structure prediction by ZEFSAII (Michael W. Deem and Ramdas Pophale) SiO2 
 PCOD9586551
Probable space group: P -6 2 M
;
_chemical_formula_sum "Si O2"
_cell_formula_units_Z 48
_cell_length_a 14.437940
_cell_length_b 14.437940
_cell_length_c 15.264461
_cell_angle_alpha 90.000000
_cell_angle_beta 90.000000
_cell_angle_gamma 120.000000
_cell_volume 2755.640574
_symmetry_space_group_name_H-M "P -6 2 M"
_symmetry_group_IT_number 189
_symmetry_cell_setting 'hexagonal'
loop_
_space_group_symop_operation_xyz
x,y,z
-x+y,-x,-z
-y,x-y,z
x,y,-z
-x+y,-x,z
-y,x-y,-z
x-y,-y,-z
-x,-x+y,-z
y,x,-z
y,x,z
x-y,-y,z
-x,-x+y,z
loop_
_atom_site_type_symbol
_atom_site_label
_atom_site_fract_x
_atom_site_fract_y
_atom_site_fract_z
Si Si1 0.527001 0.276456 0.599011
Si Si2 0.663661 0.788523 0.099536
Si Si3 0.872813 0.432644 0.904286
Si Si4 0.296759 0.420412 0.763358
O O1 0.598245 0.218744 0.607053
O O2 0.483868 0.258927 0.500000
O O3 0.445645 0.251341 0.676853
O O4 0.748107 0.748107 0.113318
O O5 0.546259 0.681616 0.104952
O O6 0.661938 0.865900 0.172381
O O7 0.676443 0.830111 0.000000
O O8 0.833060 0.471602 0.822218
O O9 0.000000 0.516937 0.907354
O O10 0.827551 0.437192 0.000000
O O11 0.375000 0.375000 0.739928
#
# Coordination Sequence:
#
# PCOD9586551 Si02
#       4
#    12  12  12  12
#     4   8  17  33  49  65  94 130 159 190 234 290
#     4   9  18  32  46  62  93 133 162 189 235 291
#     4   8  15  27  41  61  90 119 150 191 236 284
#     4  11  19  27  47  74  95 119 159 207 244 277
#
# _framework density 17.418817000000001
#
# number of rings (size 3 to 8) (size 9 to 14) (size 15 to 20)
#    0.500    2.500    0.000    3.750    0.000    2.000 
#    1.500    0.000    0.000    2.750    0.000    0.000 
#    0.000    0.000    0.000    0.000    0.000    0.000 
#
# Total GULP energy -267260.411976 kJ/mol
# GULP energy per Si atom -5567.925250 kJ/mol
# Density = 1.737917 g / cm^3
# Si number density = 17.418817 Si / 1000 Ang^3
#
#
#
# Elastic Constant Matrix: (Units=GPa)
#
#
# Indices 1 2 3 4 5 6 
#
# 1 22.8394 -6.0418 14.9435 0.0000 0.0000 0.0000
# 2 -6.0418 22.8394 14.9435 0.0000 0.0000 0.0000
# 3 14.9435 14.9435 104.7874 0.0000 0.0000 0.0000
# 4 0.0000 0.0000 0.0000 14.3814 0.0000 0.0000
# 5 0.0000 0.0000 0.0000 0.0000 14.3814 0.0000
# 6 0.0000 0.0000 0.0000 0.0000 0.0000 14.4406
#
#
#
# Elastic Compliance Matrix: (Units=1/GPa)
#
#
# Indices 1 2 3 4 5 6 
#
# 1 0.057199 0.022575 -0.011376 0.000000 0.000000 0.000000
# 2 0.022575 0.057199 -0.011376 0.000000 0.000000 0.000000
# 3 -0.011376 -0.011376 0.012788 0.000000 0.000000 0.000000
# 4 0.000000 0.000000 0.000000 0.069534 0.000000 0.000000
# 5 0.000000 0.000000 0.000000 0.000000 0.069534 0.000000
# 6 0.000000 0.000000 0.000000 0.000000 0.000000 0.069249
#
#
# Mechanical properties :
#
#
# Convention : Reuss Voigt Hill
#
# Bulk Modulus (GPa) = 7.88458 22.01737 14.95097
# Shear Modulus (GPa) = 13.22272 17.08206 15.15239
#
# Velocity S-wave (km/s) = 2.75818 3.13496 2.95258
# Velocity P-wave (km/s) = 3.83141 5.07655 4.49728
#
# Compressibility (1/GPa) = 0.12682991
#
# Stress axis : x y z
#
# Youngs Moduli (GPa) = 17.48278 17.48278 78.19935
#
# Poissons Ratio (x) = -0.39467 0.88962
# Poissons Ratio (y) = -0.39467 0.88962
# Poissons Ratio (z) = 0.19889 0.19889
#
# Static dielectric constant tensor:
#      x y z
#    x 1.597730 0.000000 0.000000 
#    y 0.000000 1.597730 0.000000 
#    z 0.000000 0.000000 1.609420 
# 
# From -- ./inp_files/1736.got.cif
#   From: 2010.05.17/outbox.cif.g08.bks.cpg/sg189_1_cif.got.tgz:1736.got - 2010.05.20 12:14:34.
