data_PCOD9586335
_publ_section_title
;
Structure prediction by ZEFSAII (Michael W. Deem and Ramdas Pophale) SiO2 
 PCOD9586335
Probable space group: P -6 2 M
;
_chemical_formula_sum "Si O2"
_cell_formula_units_Z 72
_cell_length_a 24.273861
_cell_length_b 24.273861
_cell_length_c 9.166261
_cell_angle_alpha 90.000000
_cell_angle_beta 90.000000
_cell_angle_gamma 120.000000
_cell_volume 4677.357576
_symmetry_space_group_name_H-M "P -6 2 M"
_symmetry_group_IT_number 189
_symmetry_cell_setting 'hexagonal'
loop_
_space_group_symop_operation_xyz
x,y,z
-x+y,-x,-z
-y,x-y,z
x,y,-z
-x+y,-x,z
-y,x-y,-z
x-y,-y,-z
-x,-x+y,-z
y,x,-z
y,x,z
x-y,-y,z
-x,-x+y,z
loop_
_atom_site_type_symbol
_atom_site_label
_atom_site_fract_x
_atom_site_fract_y
_atom_site_fract_z
Si Si1 0.258297 0.184772 0.174689
Si Si2 0.407299 0.267474 0.826648
Si Si3 0.598235 0.074656 0.325973
Si Si4 0.408856 0.925166 0.826126
Si Si5 0.862259 0.262745 0.175131
Si Si6 0.735182 0.809005 0.325765
O O1 0.213593 0.213593 0.213357
O O2 0.332068 0.236390 0.206441
O O3 0.243083 0.120861 0.257523
O O4 0.254600 0.173795 0.000000
O O5 0.448269 0.331969 0.739881
O O6 0.422728 0.211274 0.793705
O O7 0.415689 0.280527 0.000000
O O8 0.599318 0.080105 0.500000
O O9 0.547955 0.092246 0.258046
O O10 0.570628 0.000000 0.288414
O O11 0.334953 0.884263 0.785250
O O12 0.434620 0.000000 0.797870
O O13 0.414469 0.918324 0.000000
O O14 0.904337 0.238066 0.256113
O O15 0.871122 0.260417 0.000000
O O16 0.729183 0.810823 0.500000
O O17 0.782503 0.782503 0.292272
#
# Coordination Sequence:
#
# PCOD9586335 Si02
#       6
#    12  12  12  12  12  12
#     4   9  18  32  50  71  93 120 156 196 234 271
#     4   9  17  30  48  69  93 119 149 187 228 270
#     4  10  20  31  44  66  95 124 153 185 223 269
#     4   9  17  30  49  70  91 118 152 189 229 271
#     4   9  18  32  50  71  93 120 155 193 231 271
#     4  10  20  31  45  69  99 128 155 185 227 278
#
# _framework density 15.393306000000001
#
# number of rings (size 3 to 8) (size 9 to 14) (size 15 to 20)
#    0.000    2.667    0.000    3.000    0.000    7.333 
#    0.000    1.667    0.000    1.000    0.000    2.333 
#    0.000    0.000    0.000    0.000    0.000    0.000 
#
# Total GULP energy -401459.391577 kJ/mol
# GULP energy per Si atom -5575.824883 kJ/mol
# Density = 1.535827 g / cm^3
# Si number density = 15.393306 Si / 1000 Ang^3
#
#
#
# Elastic Constant Matrix: (Units=GPa)
#
#
# Indices 1 2 3 4 5 6 
#
# 1 133.0589 89.5357 60.9113 0.0000 0.0000 0.0000
# 2 89.5357 133.0589 60.9113 0.0000 0.0000 0.0000
# 3 60.9113 60.9113 42.8838 0.0000 0.0000 0.0000
# 4 0.0000 0.0000 0.0000 14.4325 0.0000 0.0000
# 5 0.0000 0.0000 0.0000 0.0000 14.4325 0.0000
# 6 0.0000 0.0000 0.0000 0.0000 0.0000 21.7616
#
#
#
# Elastic Compliance Matrix: (Units=1/GPa)
#
#
# Indices 1 2 3 4 5 6 
#
# 1 0.021577 -0.001399 -0.028660 0.000000 0.000000 0.000000
# 2 -0.001399 0.021577 -0.028660 0.000000 0.000000 0.000000
# 3 -0.028660 -0.028660 0.104734 0.000000 0.000000 0.000000
# 4 0.000000 0.000000 0.000000 0.069288 0.000000 0.000000
# 5 0.000000 0.000000 0.000000 0.000000 0.069288 0.000000
# 6 0.000000 0.000000 0.000000 0.000000 0.000000 0.045953
#
#
# Mechanical properties :
#
#
# Convention : Reuss Voigt Hill
#
# Bulk Modulus (GPa) = 32.84038 81.30202 57.07120
# Shear Modulus (GPa) = 10.86946 16.63486 13.75216
#
# Velocity S-wave (km/s) = 2.66017 3.29090 2.99220
# Velocity P-wave (km/s) = 5.55120 8.20799 7.00667
#
# Compressibility (1/GPa) = 0.03045032
#
# Stress axis : x y z
#
# Youngs Moduli (GPa) = 46.34596 46.34596 9.54800
#
# Poissons Ratio (x) = 0.06486 0.27364
# Poissons Ratio (y) = 0.06486 0.27364
# Poissons Ratio (z) = 1.32826 1.32826
#
# Static dielectric constant tensor:
#      x y z
#    x 1.495960 0.000000 0.000000 
#    y 0.000000 1.495960 0.000000 
#    z 0.000000 0.000000 1.509180 
# 
# From -- ./inp_files/1206.got.cif
#   From: 2010.05.17/outbox.cif.g08.bks.cpg/sg189_1_cif.got.tgz:1206.got - 2010.05.20 12:14:34.
