data_PCOD9586749
_publ_section_title
;
Structure prediction by ZEFSAII (Michael W. Deem and Ramdas Pophale) SiO2 
 PCOD9586749
Probable space group: P -6 2 C
;
_chemical_formula_sum "Si O2"
_cell_formula_units_Z 84
_cell_length_a 17.204317
_cell_length_b 17.204317
_cell_length_c 16.034326
_cell_angle_alpha 90.000000
_cell_angle_beta 90.000000
_cell_angle_gamma 120.000000
_cell_volume 4110.136195
_symmetry_space_group_name_H-M "P -6 2 C"
_symmetry_group_IT_number 190
_symmetry_cell_setting 'hexagonal'
loop_
_space_group_symop_operation_xyz
x,y,z
-x+y,-x,1/2-z
-y,x-y,z
x,y,1/2-z
-x+y,-x,z
-y,x-y,1/2-z
x-y,-y,-z
-x,-x+y,-z
y,x,-z
y,x,1/2+z
x-y,-y,1/2+z
-x,-x+y,1/2+z
loop_
_atom_site_type_symbol
_atom_site_label
_atom_site_fract_x
_atom_site_fract_y
_atom_site_fract_z
Si Si1 0.844331 0.033922 0.655807
Si Si2 0.898525 0.410506 0.344591
Si Si3 0.644595 0.720372 0.937088
Si Si4 0.494820 0.891614 0.007992
Si Si5 0.490391 0.116078 0.844205
Si Si6 0.622256 0.823278 0.082232
Si Si7 0.857378 0.827119 0.404447
O O1 0.816029 0.006870 0.750000
O O2 0.804245 0.095515 0.625081
O O3 0.952193 0.094576 0.648816
O O4 0.817327 0.943902 0.606001
O O5 0.870611 0.411894 0.250000
O O6 0.869903 0.314124 0.384116
O O7 0.868515 0.458810 0.412932
O O8 0.007248 0.447834 0.342757
O O9 0.734664 0.766421 0.883182
O O10 0.646681 0.646681 0.000000
O O11 0.656147 0.796513 0.000135
O O12 0.413340 0.859832 0.074440
O O13 0.554010 0.853631 0.048324
O O14 0.553799 0.000000 0.000000
O O15 0.529006 0.145708 0.750000
O O16 0.425267 0.157067 0.862369
O O17 0.850470 0.850470 0.500000
#
# Coordination Sequence:
#
# PCOD9586749 Si02
#       7
#    12  12  12  12  12  12  12
#     4  12  25  40  60  92 135 180 227 285 333 383
#     4  10  19  39  69  94 120 162 212 263 322 391
#     4  11  19  38  65  94 119 159 221 271 321 384
#     4  10  23  41  64  92 133 168 206 255 326 403
#     4  10  20  39  67  95 123 159 208 263 323 388
#     4  12  23  39  66  96 128 166 214 271 331 392
#     4  11  23  39  61  86 127 179 233 270 330 384
#
# _framework density 20.437280000000001
#
# number of rings (size 3 to 8) (size 9 to 14) (size 15 to 20)
#    0.000    1.143    5.714    2.000    2.000    3.429 
#    0.857    0.714    0.000    0.000    0.000    0.000 
#    0.000    0.000    0.000    0.000    0.000    0.000 
#
# Total GULP energy -468275.760703 kJ/mol
# GULP energy per Si atom -5574.711437 kJ/mol
# Density = 2.039076 g / cm^3
# Si number density = 20.437280 Si / 1000 Ang^3
#
#
#
# Elastic Constant Matrix: (Units=GPa)
#
#
# Indices 1 2 3 4 5 6 
#
# 1 77.0967 25.0963 34.7665 0.0000 0.0000 0.0000
# 2 25.0963 77.0967 34.7665 0.0000 0.0000 0.0000
# 3 34.7665 34.7665 128.7229 0.0000 0.0000 0.0000
# 4 0.0000 0.0000 0.0000 7.8414 0.0000 0.0000
# 5 0.0000 0.0000 0.0000 0.0000 7.8414 0.0000
# 6 0.0000 0.0000 0.0000 0.0000 0.0000 26.0002
#
#
#
# Elastic Compliance Matrix: (Units=1/GPa)
#
#
# Indices 1 2 3 4 5 6 
#
# 1 0.015610 -0.003621 -0.003238 0.000000 0.000000 0.000000
# 2 -0.003621 0.015610 -0.003238 0.000000 0.000000 0.000000
# 3 -0.003238 -0.003238 0.009518 0.000000 0.000000 0.000000
# 4 0.000000 0.000000 0.000000 0.127529 0.000000 0.000000
# 5 0.000000 0.000000 0.000000 0.000000 0.127529 0.000000
# 6 0.000000 0.000000 0.000000 0.000000 0.000000 0.038461
#
#
# Mechanical properties :
#
#
# Convention : Reuss Voigt Hill
#
# Bulk Modulus (GPa) = 48.67853 52.46387 50.57120
# Shear Modulus (GPa) = 13.83901 20.88906 17.36403
#
# Velocity S-wave (km/s) = 2.60502 3.20051 2.91800
# Velocity P-wave (km/s) = 5.73746 6.27567 6.01259
#
# Compressibility (1/GPa) = 0.02054294
#
# Stress axis : x y z
#
# Youngs Moduli (GPa) = 64.06327 64.06327 105.06742
#
# Poissons Ratio (x) = 0.23197 0.34020
# Poissons Ratio (y) = 0.23197 0.34020
# Poissons Ratio (z) = 0.20743 0.20743
#
# Static dielectric constant tensor:
#      x y z
#    x 1.772650 0.000000 0.000000 
#    y 0.000000 1.772650 0.000000 
#    z 0.000000 0.000000 1.757320 
# 
# From -- ./inp_files/3170.got.cif
#   From: 2010.05.17/outbox.cif.g08.bks.cpg/sg190_2_cif.got.tgz:3170.got - 2010.05.20 12:16:56.
