data_PCOD9586827
_publ_section_title
;
Structure prediction by ZEFSAII (Michael W. Deem and Ramdas Pophale) SiO2 
 PCOD9586827
Probable space group: P -6 2 C
;
_chemical_formula_sum "Si O2"
_cell_formula_units_Z 48
_cell_length_a 18.582261
_cell_length_b 18.582261
_cell_length_c 8.762218
_cell_angle_alpha 90.000000
_cell_angle_beta 90.000000
_cell_angle_gamma 120.000000
_cell_volume 2620.244374
_symmetry_space_group_name_H-M "P -6 2 C"
_symmetry_group_IT_number 190
_symmetry_cell_setting 'hexagonal'
loop_
_space_group_symop_operation_xyz
x,y,z
-x+y,-x,1/2-z
-y,x-y,z
x,y,1/2-z
-x+y,-x,z
-y,x-y,1/2-z
x-y,-y,-z
-x,-x+y,-z
y,x,-z
y,x,1/2+z
x-y,-y,1/2+z
-x,-x+y,1/2+z
loop_
_atom_site_type_symbol
_atom_site_label
_atom_site_fract_x
_atom_site_fract_y
_atom_site_fract_z
Si Si1 0.379424 0.471603 0.432556
Si Si2 0.471622 0.092512 0.431577
Si Si3 0.184790 0.381314 0.433130
Si Si4 0.907100 0.814063 0.566300
O O1 0.389295 0.476223 0.250000
O O2 0.416543 0.416543 0.500000
O O3 0.435922 0.563148 0.502108
O O4 0.282418 0.427566 0.469205
O O5 0.473490 0.087716 0.250000
O O6 0.428066 0.143564 0.484108
O O7 0.418248 0.000000 0.500000
O O8 0.175843 0.385922 0.250000
O O9 0.139718 0.283813 0.473993
O O10 0.911013 0.821180 0.750000
O O11 0.860112 0.860112 0.500000
O O12 0.000000 0.856913 0.500000
#
# Coordination Sequence:
#
# PCOD9586827 Si02
#       4
#    12  12  12  12
#     4  10  20  37  60  84 114 149 188 233 286 343
#     4  11  22  37  59  84 114 150 189 234 284 341
#     4  10  22  39  60  87 115 150 193 238 289 345
#     4  11  23  39  59  85 118 155 197 241 290 343
#
# _framework density 18.318902000000001
#
# number of rings (size 3 to 8) (size 9 to 14) (size 15 to 20)
#    0.000    1.500    0.000    7.000    0.000    6.000 
#    1.500    0.000    0.000    0.000    0.000    0.000 
#    0.000    0.000    0.000    0.000    0.000    0.000 
#
# Total GULP energy -268303.371786 kJ/mol
# GULP energy per Si atom -5589.653579 kJ/mol
# Density = 1.827721 g / cm^3
# Si number density = 18.318902 Si / 1000 Ang^3
#
#
#
# Elastic Constant Matrix: (Units=GPa)
#
#
# Indices 1 2 3 4 5 6 
#
# 1 158.6867 107.8377 80.4787 0.0000 0.0000 0.0000
# 2 107.8377 158.6867 80.4787 0.0000 0.0000 0.0000
# 3 80.4787 80.4787 88.7476 0.0000 0.0000 0.0000
# 4 0.0000 0.0000 0.0000 23.6160 0.0000 0.0000
# 5 0.0000 0.0000 0.0000 0.0000 23.6160 0.0000
# 6 0.0000 0.0000 0.0000 0.0000 0.0000 25.4245
#
#
#
# Elastic Compliance Matrix: (Units=1/GPa)
#
#
# Indices 1 2 3 4 5 6 
#
# 1 0.013980 -0.005686 -0.007522 0.000000 0.000000 0.000000
# 2 -0.005686 0.013980 -0.007522 0.000000 0.000000 0.000000
# 3 -0.007522 -0.007522 0.024909 0.000000 0.000000 0.000000
# 4 0.000000 0.000000 0.000000 0.042344 0.000000 0.000000
# 5 0.000000 0.000000 0.000000 0.000000 0.042344 0.000000
# 6 0.000000 0.000000 0.000000 0.000000 0.000000 0.039332
#
#
# Mechanical properties :
#
#
# Convention : Reuss Voigt Hill
#
# Bulk Modulus (GPa) = 87.62765 104.85679 96.24222
# Shear Modulus (GPa) = 22.50709 23.68635 23.09672
#
# Velocity S-wave (km/s) = 3.50898 3.59973 3.55465
# Velocity P-wave (km/s) = 8.02220 8.63952 8.33658
#
# Compressibility (1/GPa) = 0.01141192
#
# Stress axis : x y z
#
# Youngs Moduli (GPa) = 71.52965 71.52965 40.14550
#
# Poissons Ratio (x) = 0.40671 0.30196
# Poissons Ratio (y) = 0.40671 0.30196
# Poissons Ratio (z) = 0.53801 0.53801
#
# Static dielectric constant tensor:
#      x y z
#    x 1.610300 0.000000 0.000000 
#    y 0.000000 1.610300 0.000000 
#    z 0.000000 0.000000 1.613070 
# 
# From -- ./inp_files/595.got.cif
#   From: 2010.05.17/outbox.cif.g08.bks.cpg/sg190_1_cif.got.tgz:595.got - 2010.05.20 12:16:56.
