data_PCOD9586236
_publ_section_title
;
Structure prediction by ZEFSAII (Michael W. Deem and Ramdas Pophale) SiO2 
 PCOD9586236
Probable space group: P -6 2 M
;
_chemical_formula_sum "Si O2"
_cell_formula_units_Z 72
_cell_length_a 24.606390
_cell_length_b 24.606390
_cell_length_c 7.853298
_cell_angle_alpha 90.000000
_cell_angle_beta 90.000000
_cell_angle_gamma 120.000000
_cell_volume 4117.925785
_symmetry_space_group_name_H-M "P -6 2 M"
_symmetry_group_IT_number 189
_symmetry_cell_setting 'hexagonal'
loop_
_space_group_symop_operation_xyz
x,y,z
-x+y,-x,-z
-y,x-y,z
x,y,-z
-x+y,-x,z
-y,x-y,-z
x-y,-y,-z
-x,-x+y,-z
y,x,-z
y,x,z
x-y,-y,z
-x,-x+y,z
loop_
_atom_site_type_symbol
_atom_site_label
_atom_site_fract_x
_atom_site_fract_y
_atom_site_fract_z
Si Si1 0.072581 0.929179 0.707896
Si Si2 0.590896 0.071106 0.708225
Si Si3 0.264398 0.407112 0.294140
Si Si4 0.532150 0.275205 0.807454
Si Si5 0.586449 0.190383 0.305054
Si Si6 0.192967 0.265517 0.707891
O O1 0.073702 0.930019 0.500000
O O2 0.090085 0.876853 0.762380
O O3 0.000000 0.902804 0.756766
O O4 0.116993 0.000000 0.767277
O O5 0.590246 0.071650 0.500000
O O6 0.663177 0.096392 0.758129
O O7 0.573651 0.123429 0.764768
O O8 0.545971 0.000000 0.764589
O O9 0.263473 0.406563 0.500000
O O10 0.247716 0.459265 0.235047
O O11 0.219683 0.336417 0.233221
O O12 0.572468 0.337944 0.697894
O O13 0.554964 0.225415 0.785518
O O14 0.543407 0.298551 0.000000
O O15 0.564806 0.181236 0.500000
O O16 0.192740 0.266374 0.500000
O O17 0.239105 0.239105 0.756919
#
# Coordination Sequence:
#
# PCOD9586236 Si02
#       6
#    12  12  12  12  12  12
#     4   8  12  17  27  48  81 118 150 182 226 276
#     4   8  14  25  44  68  87 104 132 174 220 262
#     4   9  16  27  44  64  86 114 147 182 220 263
#     4  11  21  32  46  66  93 120 147 179 216 257
#     4  10  19  32  50  70  92 117 147 180 216 260
#     4   8  13  21  36  58  81 109 149 191 224 259
#
# _framework density 17.484529999999999
#
# number of rings (size 3 to 8) (size 9 to 14) (size 15 to 20)
#    0.000    3.000    0.000    5.000    0.000    2.667 
#    0.000    0.000    0.000   18.000    0.000    4.667 
#    0.000    0.000    0.000    0.500    0.000    4.500 
#
# Total GULP energy -401274.984741 kJ/mol
# GULP energy per Si atom -5573.263677 kJ/mol
# Density = 1.744473 g / cm^3
# Si number density = 17.484530 Si / 1000 Ang^3
#
#
#
# Elastic Constant Matrix: (Units=GPa)
#
#
# Indices 1 2 3 4 5 6 
#
# 1 134.6058 84.2567 2.4076 0.0000 0.0000 0.0000
# 2 84.2567 134.6058 2.4076 0.0000 0.0000 0.0000
# 3 2.4076 2.4076 24.9020 0.0000 0.0000 0.0000
# 4 0.0000 0.0000 0.0000 -23.1613 0.0000 0.0000
# 5 0.0000 0.0000 0.0000 0.0000 -23.1613 0.0000
# 6 0.0000 0.0000 0.0000 0.0000 0.0000 25.1746
#
#
#
# Elastic Compliance Matrix: (Units=1/GPa)
#
#
# Indices 1 2 3 4 5 6 
#
# 1 0.012220 -0.007641 -0.000443 0.000000 0.000000 0.000000
# 2 -0.007641 0.012220 -0.000443 0.000000 0.000000 0.000000
# 3 -0.000443 -0.000443 0.040243 0.000000 0.000000 0.000000
# 4 0.000000 0.000000 0.000000 -0.043176 0.000000 0.000000
# 5 0.000000 0.000000 0.000000 0.000000 -0.043176 0.000000
# 6 0.000000 0.000000 0.000000 0.000000 0.000000 0.039723
#
#
# Mechanical properties :
#
#
# Convention : Reuss Voigt Hill
#
# Bulk Modulus (GPa) = 20.99523 52.47304 36.73413
# Shear Modulus (GPa) = 98.06883 9.43986 53.75434
#
# Velocity S-wave (km/s) = 7.49738 2.32609 5.55074
# Velocity P-wave (km/s) = 9.32639 6.10660 7.88264
#
# Compressibility (1/GPa) = 0.04762987
#
# Stress axis : x y z
#
# Youngs Moduli (GPa) = 81.83261 81.83261 24.84904
#
# Poissons Ratio (x) = 0.62530 0.01100
# Poissons Ratio (y) = 0.62530 0.01100
# Poissons Ratio (z) = 0.03623 0.03623
#
# Static dielectric constant tensor:
#      x y z
#    x 1.582730 0.000000 0.000000 
#    y 0.000000 1.582730 0.000000 
#    z 0.000000 0.000000 1.610760 
# 
# From -- ./inp_files/1272.got.cif
#   From: 2010.05.17/outbox.cif.g08.bks.cpg/sg189_1_cif.got.tgz:1272.got - 2010.05.20 12:14:34.
