data_PCOD9586667
_publ_section_title
;
Structure prediction by ZEFSAII (Michael W. Deem and Ramdas Pophale) SiO2 
 PCOD9586667
Probable space group: P -6 2 C
;
_chemical_formula_sum "Si O2"
_cell_formula_units_Z 72
_cell_length_a 24.411116
_cell_length_b 24.411116
_cell_length_c 8.784511
_cell_angle_alpha 90.000000
_cell_angle_beta 90.000000
_cell_angle_gamma 120.000000
_cell_volume 4533.394273
_symmetry_space_group_name_H-M "P -6 2 C"
_symmetry_group_IT_number 190
_symmetry_cell_setting 'hexagonal'
loop_
_space_group_symop_operation_xyz
x,y,z
-x+y,-x,1/2-z
-y,x-y,z
x,y,1/2-z
-x+y,-x,z
-y,x-y,1/2-z
x-y,-y,-z
-x,-x+y,-z
y,x,-z
y,x,1/2+z
x-y,-y,1/2+z
-x,-x+y,1/2+z
loop_
_atom_site_type_symbol
_atom_site_label
_atom_site_fract_x
_atom_site_fract_y
_atom_site_fract_z
Si Si1 0.861680 0.930004 0.567098
Si Si2 0.474461 0.406636 0.931761
Si Si3 0.265037 0.735823 0.932479
Si Si4 0.599181 0.403312 0.567656
Si Si5 0.594461 0.862521 0.566542
Si Si6 0.806630 0.069358 0.433203
O O1 0.867075 0.932318 0.750000
O O2 0.882818 0.882818 0.500000
O O3 0.790403 0.912617 0.524181
O O4 0.907114 0.000000 0.500000
O O5 0.469245 0.405910 0.750000
O O6 0.544844 0.420437 0.971396
O O7 0.455101 0.455101 0.000000
O O8 0.427304 0.336421 0.995140
O O9 0.269939 0.735549 0.750000
O O10 0.208777 0.749872 0.973789
O O11 0.241794 0.665573 0.995817
O O12 0.332250 0.784108 0.003582
O O13 0.601335 0.398836 0.750000
O O14 0.593275 0.867791 0.750000
O O15 0.665501 0.883105 0.519031
O O16 0.803146 0.064927 0.250000
O O17 0.760724 0.000000 0.500000
#
# Coordination Sequence:
#
# PCOD9586667 Si02
#       6
#    12  12  12  12  12  12
#     4  10  19  31  47  67  92 120 151 185 223 267
#     4  10  20  32  48  70  95 124 155 190 231 274
#     4  10  19  31  49  71  94 122 156 191 228 273
#     4  10  20  33  48  68  96 126 155 190 233 277
#     4   9  18  32  49  70  95 122 152 187 228 274
#     4   9  18  31  47  68  93 120 149 183 223 267
#
# _framework density 15.882139
#
# number of rings (size 3 to 8) (size 9 to 14) (size 15 to 20)
#    0.000    2.333    0.000    3.000    0.000    5.333 
#    0.000    0.000    0.000    1.000    0.000    4.667 
#    0.000    0.000    0.000    0.000    0.000    0.000 
#
# Total GULP energy -401638.848722 kJ/mol
# GULP energy per Si atom -5578.317343 kJ/mol
# Density = 1.584599 g / cm^3
# Si number density = 15.882139 Si / 1000 Ang^3
#
#
#
# Elastic Constant Matrix: (Units=GPa)
#
#
# Indices 1 2 3 4 5 6 
#
# 1 119.4458 78.2594 37.8271 0.0000 0.0000 0.0000
# 2 78.2594 119.4458 37.8271 0.0000 0.0000 0.0000
# 3 37.8271 37.8271 37.6873 0.0000 0.0000 0.0000
# 4 0.0000 0.0000 0.0000 21.4834 0.0000 0.0000
# 5 0.0000 0.0000 0.0000 0.0000 21.4834 0.0000
# 6 0.0000 0.0000 0.0000 0.0000 0.0000 20.5932
#
#
#
# Elastic Compliance Matrix: (Units=1/GPa)
#
#
# Indices 1 2 3 4 5 6 
#
# 1 0.016246 -0.008034 -0.008243 0.000000 0.000000 0.000000
# 2 -0.008034 0.016246 -0.008243 0.000000 0.000000 0.000000
# 3 -0.008243 -0.008243 0.043081 0.000000 0.000000 0.000000
# 4 0.000000 0.000000 0.000000 0.046548 0.000000 0.000000
# 5 0.000000 0.000000 0.000000 0.000000 0.046548 0.000000
# 6 0.000000 0.000000 0.000000 0.000000 0.000000 0.048560
#
#
# Mechanical properties :
#
#
# Convention : Reuss Voigt Hill
#
# Bulk Modulus (GPa) = 37.68698 64.93399 51.31048
# Shear Modulus (GPa) = 18.17452 20.88968 19.53210
#
# Velocity S-wave (km/s) = 3.38647 3.63063 3.51068
# Velocity P-wave (km/s) = 6.25073 7.65173 6.98644
#
# Compressibility (1/GPa) = 0.02653436
#
# Stress axis : x y z
#
# Youngs Moduli (GPa) = 61.55354 61.55354 23.21234
#
# Poissons Ratio (x) = 0.49451 0.19133
# Poissons Ratio (y) = 0.49451 0.19133
# Poissons Ratio (z) = 0.50736 0.50736
#
# Static dielectric constant tensor:
#      x y z
#    x 1.521660 0.000000 0.000000 
#    y 0.000000 1.521660 0.000000 
#    z 0.000000 0.000000 1.529220 
# 
# From -- ./inp_files/1190.got.cif
#   From: 2010.05.17/outbox.cif.g08.bks.cpg/sg190_1_cif.got.tgz:1190.got - 2010.05.20 12:16:56.
