data_PCOD9586165
_publ_section_title
;
Structure prediction by ZEFSAII (Michael W. Deem and Ramdas Pophale) SiO2 
 PCOD9586165
Probable space group: P -6 2 M
;
_chemical_formula_sum "Si O2"
_cell_formula_units_Z 60
_cell_length_a 20.881480
_cell_length_b 20.881480
_cell_length_c 7.642774
_cell_angle_alpha 90.000000
_cell_angle_beta 90.000000
_cell_angle_gamma 120.000000
_cell_volume 2886.052336
_symmetry_space_group_name_H-M "P -6 2 M"
_symmetry_group_IT_number 189
_symmetry_cell_setting 'hexagonal'
loop_
_space_group_symop_operation_xyz
x,y,z
-x+y,-x,-z
-y,x-y,z
x,y,-z
-x+y,-x,z
-y,x-y,-z
x-y,-y,-z
-x,-x+y,-z
y,x,-z
y,x,z
x-y,-y,z
-x,-x+y,z
loop_
_atom_site_type_symbol
_atom_site_label
_atom_site_fract_x
_atom_site_fract_y
_atom_site_fract_z
Si Si1 0.166270 0.083344 0.707216
Si Si2 0.181520 0.849133 0.200297
Si Si3 0.323965 0.000000 0.295393
Si Si4 0.473316 0.000000 0.787854
Si Si5 0.247855 0.752003 0.214791
Si Si6 0.418008 0.581105 0.786491
O O1 0.152910 0.075699 0.500000
O O2 0.121674 0.121674 0.780998
O O3 0.254083 0.133990 0.726784
O O4 0.135447 0.000000 0.777810
O O5 0.200451 0.789177 0.278036
O O6 0.258210 0.926578 0.211888
O O7 0.160900 0.827964 0.000000
O O8 0.306144 0.000000 0.500000
O O9 0.399877 0.000000 0.272793
O O10 0.465182 0.922457 0.730702
O O11 0.472939 0.000000 0.000000
O O12 0.211141 0.666912 0.268675
O O13 0.333446 0.799823 0.269710
O O14 0.248386 0.754114 0.000000
O O15 0.418030 0.581784 0.000000
#
# Coordination Sequence:
#
# PCOD9586165 Si02
#       6
#    12  12   6   6  12  12
#     4  10  21  38  59  82 109 147 188 225 269 331
#     4  11  21  35  56  85 114 140 178 234 285 325
#     4  12  22  34  56  82 108 143 184 225 276 335
#     4  10  18  32  54  80 108 137 176 227 272 313
#     4   9  17  29  49  79 111 139 174 222 275 324
#     4   9  16  28  48  76 107 139 173 216 270 321
#
# _framework density 20.789645
#
# number of rings (size 3 to 8) (size 9 to 14) (size 15 to 20)
#    0.000    2.000    3.000    2.100    0.000    2.800 
#    1.800    0.000    0.000    3.600    0.000    0.000 
#    0.000    0.000    0.000    0.000    0.000    0.000 
#
# Total GULP energy -334979.611102 kJ/mol
# GULP energy per Si atom -5582.993518 kJ/mol
# Density = 2.074233 g / cm^3
# Si number density = 20.789645 Si / 1000 Ang^3
#
#
#
# Elastic Constant Matrix: (Units=GPa)
#
#
# Indices 1 2 3 4 5 6 
#
# 1 145.9483 80.3354 5.9036 0.0000 0.0000 0.0000
# 2 80.3354 145.9483 5.9036 0.0000 0.0000 0.0000
# 3 5.9036 5.9036 40.6246 0.0000 0.0000 0.0000
# 4 0.0000 0.0000 0.0000 13.6391 0.0000 0.0000
# 5 0.0000 0.0000 0.0000 0.0000 13.6391 0.0000
# 6 0.0000 0.0000 0.0000 0.0000 0.0000 32.8065
#
#
#
# Elastic Compliance Matrix: (Units=1/GPa)
#
#
# Indices 1 2 3 4 5 6 
#
# 1 0.009847 -0.005394 -0.000647 0.000000 0.000000 0.000000
# 2 -0.005394 0.009847 -0.000647 0.000000 0.000000 0.000000
# 3 -0.000647 -0.000647 0.024804 0.000000 0.000000 0.000000
# 4 0.000000 0.000000 0.000000 0.073319 0.000000 0.000000
# 5 0.000000 0.000000 0.000000 0.000000 0.073319 0.000000
# 6 0.000000 0.000000 0.000000 0.000000 0.000000 0.030482
#
#
# Mechanical properties :
#
#
# Convention : Reuss Voigt Hill
#
# Bulk Modulus (GPa) = 32.13240 57.42296 44.77768
# Shear Modulus (GPa) = 20.37767 28.04218 24.20993
#
# Velocity S-wave (km/s) = 3.13419 3.67666 3.41621
# Velocity P-wave (km/s) = 5.34668 6.76052 6.09474
#
# Compressibility (1/GPa) = 0.03112124
#
# Stress axis : x y z
#
# Youngs Moduli (GPa) = 101.55431 101.55431 40.31655
#
# Poissons Ratio (x) = 0.54778 0.02609
# Poissons Ratio (y) = 0.54778 0.02609
# Poissons Ratio (z) = 0.06572 0.06572
#
# Static dielectric constant tensor:
#      x y z
#    x 1.721840 0.000000 0.000000 
#    y 0.000000 1.721840 0.000000 
#    z 0.000000 0.000000 1.778080 
# 
# From -- ./inp_files/937.got.cif
#   From: 2010.05.17/outbox.cif.g08.bks.cpg/sg189_1_cif.got.tgz:937.got - 2010.05.20 12:14:34.
