data_PCOD9586450
_publ_section_title
;
Structure prediction by ZEFSAII (Michael W. Deem and Ramdas Pophale) SiO2 
 PCOD9586450
Probable space group: P -6 2 M
;
_chemical_formula_sum "Si O2"
_cell_formula_units_Z 63
_cell_length_a 14.943537
_cell_length_b 14.943537
_cell_length_c 16.913993
_cell_angle_alpha 90.000000
_cell_angle_beta 90.000000
_cell_angle_gamma 120.000000
_cell_volume 3271.022901
_symmetry_space_group_name_H-M "P -6 2 M"
_symmetry_group_IT_number 189
_symmetry_cell_setting 'hexagonal'
loop_
_space_group_symop_operation_xyz
x,y,z
-x+y,-x,-z
-y,x-y,z
x,y,-z
-x+y,-x,z
-y,x-y,-z
x-y,-y,-z
-x,-x+y,-z
y,x,-z
y,x,z
x-y,-y,z
-x,-x+y,z
loop_
_atom_site_type_symbol
_atom_site_label
_atom_site_fract_x
_atom_site_fract_y
_atom_site_fract_z
Si Si1 0.762171 0.881195 0.906511
Si Si2 0.690189 0.690189 0.500000
Si Si3 0.715212 0.524161 0.585991
Si Si4 0.457674 0.274116 0.841209
Si Si5 0.515691 0.117819 0.091030
Si Si6 0.616196 0.123268 0.671510
O O1 0.804834 0.804834 0.884976
O O2 0.663127 0.862302 0.857125
O O3 0.850918 0.000000 0.897472
O O4 0.734328 0.865162 0.000000
O O5 0.725381 0.634269 0.568133
O O6 0.678089 0.469976 0.500000
O O7 0.821367 0.532014 0.610568
O O8 0.627280 0.459507 0.650356
O O9 0.507002 0.368594 0.902705
O O10 0.507195 0.201785 0.856279
O O11 0.485000 0.330913 0.757186
O O12 0.437771 0.000000 0.116145
O O13 0.492256 0.129389 0.000000
O O14 0.551824 0.000000 0.663370
#
# Coordination Sequence:
#
# PCOD9586450 Si02
#       6
#    12   3  12  12  12  12
#     4  10  20  37  59  83 111 150 203 260 308 350
#     4   8  20  40  62  88 120 154 204 244 294 340
#     4  10  21  40  63  88 123 157 194 248 288 346
#     4  12  24  38  57  85 122 157 194 243 298 359
#     4  11  23  40  60  82 113 159 208 253 298 350
#     4  12  23  39  62  94 131 162 200 240 303 374
#
# _framework density 19.260031000000001
#
# number of rings (size 3 to 8) (size 9 to 14) (size 15 to 20)
#    0.571    0.571    0.952    6.667    0.000    4.952 
#    3.429    0.000    0.000    0.000    0.000    0.000 
#    3.810    0.000    0.000    0.000    0.000    0.000 
#
# Total GULP energy -350942.992561 kJ/mol
# GULP energy per Si atom -5570.523691 kJ/mol
# Density = 1.921619 g / cm^3
# Si number density = 19.260031 Si / 1000 Ang^3
#
#
#
# Elastic Constant Matrix: (Units=GPa)
#
#
# Indices 1 2 3 4 5 6 
#
# 1 85.2110 38.7090 29.4019 0.0000 0.0000 0.0000
# 2 38.7090 85.2110 29.4019 0.0000 0.0000 0.0000
# 3 29.4019 29.4019 73.3924 0.0000 0.0000 0.0000
# 4 0.0000 0.0000 0.0000 -82.7366 0.0000 0.0000
# 5 0.0000 0.0000 0.0000 0.0000 -82.7366 0.0000
# 6 0.0000 0.0000 0.0000 0.0000 0.0000 23.2510
#
#
#
# Elastic Compliance Matrix: (Units=1/GPa)
#
#
# Indices 1 2 3 4 5 6 
#
# 1 0.015734 -0.005770 -0.003992 0.000000 0.000000 0.000000
# 2 -0.005770 0.015734 -0.003992 0.000000 0.000000 0.000000
# 3 -0.003992 -0.003992 0.016824 0.000000 0.000000 0.000000
# 4 0.000000 0.000000 0.000000 -0.012087 0.000000 0.000000
# 5 0.000000 0.000000 0.000000 0.000000 -0.012087 0.000000
# 6 0.000000 0.000000 0.000000 0.000000 0.000000 0.043009
#
#
# Mechanical properties :
#
#
# Convention : Reuss Voigt Hill
#
# Bulk Modulus (GPa) = 48.11220 48.76000 48.43610
# Shear Modulus (GPa) = 49.23051 -18.69097 15.26977
#
# Velocity S-wave (km/s) = 5.06127 -3.11859 2.81876
# Velocity P-wave (km/s) = 7.69349 3.52195 5.98306
#
# Compressibility (1/GPa) = 0.02078475
#
# Stress axis : x y z
#
# Youngs Moduli (GPa) = 63.55603 63.55603 59.44026
#
# Poissons Ratio (x) = 0.36673 0.23727
# Poissons Ratio (y) = 0.36673 0.23727
# Poissons Ratio (z) = 0.25369 0.25369
#
# Static dielectric constant tensor:
#      x y z
#    x 1.667780 0.000000 0.000000 
#    y 0.000000 1.667780 0.000000 
#    z 0.000000 0.000000 1.708260 
# 
# From -- ./inp_files/3027.got.cif
#   From: 2010.05.17/outbox.cif.g08.bks.cpg/sg189_2_cif.got.tgz:3027.got - 2010.05.20 12:14:34.
