data_PCOD9586025
_publ_section_title
;
Structure prediction by ZEFSAII (Michael W. Deem and Ramdas Pophale) SiO2 
 PCOD9586025
Probable space group: P -6 C 2
;
_chemical_formula_sum "Si O2"
_cell_formula_units_Z 58
_cell_length_a 14.445291
_cell_length_b 14.445291
_cell_length_c 15.399631
_cell_angle_alpha 90.000000
_cell_angle_beta 90.000000
_cell_angle_gamma 120.000000
_cell_volume 2782.873957
_symmetry_space_group_name_H-M "P -6 C 2"
_symmetry_group_IT_number 188
_symmetry_cell_setting 'hexagonal'
loop_
_space_group_symop_operation_xyz
x,y,z
-x+y,-x,1/2-z
-y,x-y,z
x,y,1/2-z
-x+y,-x,z
-y,x-y,1/2-z
-y,-x,-z
-x+y,y,-z
x,x-y,-z
-x+y,y,1/2+z
x,x-y,1/2+z
-y,-x,1/2+z
loop_
_atom_site_type_symbol
_atom_site_label
_atom_site_fract_x
_atom_site_fract_y
_atom_site_fract_z
Si Si1 0.333334 0.666668 0.604451
Si Si2 0.566302 0.846180 0.650762
Si Si3 0.667233 0.960327 0.349942
Si Si4 0.613611 0.031815 0.979634
Si Si5 0.891227 0.153208 0.090246
Si Si6 0.989199 0.116180 0.250000
O O1 0.333334 0.666667 0.500000
O O2 0.452960 0.739346 0.638580
O O3 0.579772 0.882918 0.750000
O O4 0.653630 0.809491 0.632122
O O5 0.567250 0.934561 0.588330
O O6 0.633005 0.957496 0.250000
O O7 0.604073 0.976899 0.427361
O O8 0.781560 0.066453 0.364885
O O9 0.735768 0.099541 0.943411
O O10 0.544467 0.088933 0.000000
O O11 0.976245 0.169580 0.163609
O O12 0.899442 0.100559 0.000000
O O13 0.093812 0.103966 0.250000
#
# Coordination Sequence:
#
# PCOD9586025 Si02
#       6
#     4  12  12  12  12   6
#     4  12  22  38  55  87 133 176 221 278 322 411
#     4  11  23  35  61  90 133 175 221 270 339 412
#     4  10  21  40  63  90 125 169 217 281 350 421
#     4  11  24  40  61  93 126 177 232 284 345 410
#     4  10  23  41  64  91 133 178 230 291 350 419
#     4  10  24  38  64  98 142 184 236 288 342 430
#
# _framework density 20.841764000000001
#
# number of rings (size 3 to 8) (size 9 to 14) (size 15 to 20)
#    0.207    1.241    1.034    4.345    4.345    3.310 
#    0.000    0.000    0.000   11.172    0.000    0.000 
#    0.000    0.000    0.000    0.000    0.000    0.000 
#
# Total GULP energy -323278.171212 kJ/mol
# GULP energy per Si atom -5573.761573 kJ/mol
# Density = 2.079433 g / cm^3
# Si number density = 20.841764 Si / 1000 Ang^3
#
#
#
# Elastic Constant Matrix: (Units=GPa)
#
#
# Indices 1 2 3 4 5 6 
#
# 1 104.5333 49.3001 31.3005 -0.0012 0.0001 0.0000
# 2 49.3001 104.5331 31.3006 -0.0012 0.0051 0.0000
# 3 31.3005 31.3006 145.3186 0.0047 -0.0047 0.0001
# 4 -0.0012 -0.0012 0.0047 150.3040 0.0423 -0.0025
# 5 0.0001 0.0051 -0.0047 0.0423 150.4262 0.0005
# 6 0.0000 0.0000 0.0001 -0.0025 0.0005 27.6165
#
#
#
# Elastic Compliance Matrix: (Units=1/GPa)
#
#
# Indices 1 2 3 4 5 6 
#
# 1 0.012615 -0.005490 -0.001535 0.000000 0.000000 0.000000
# 2 -0.005490 0.012615 -0.001535 0.000000 0.000000 0.000000
# 3 -0.001535 -0.001535 0.007543 0.000000 0.000000 0.000000
# 4 0.000000 0.000000 0.000000 0.006653 -0.000002 0.000001
# 5 0.000000 0.000000 0.000000 -0.000002 0.006648 0.000000
# 6 0.000000 0.000000 0.000000 0.000001 0.000000 0.036210
#
#
# Mechanical properties :
#
#
# Convention : Reuss Voigt Hill
#
# Bulk Modulus (GPa) = 63.88168 64.24306 64.06237
# Shear Modulus (GPa) = 47.79168 81.83491 64.81330
#
# Velocity S-wave (km/s) = 4.79380 6.27297 5.58259
# Velocity P-wave (km/s) = 7.83314 9.13006 8.50635
#
# Compressibility (1/GPa) = 0.01565394
#
# Stress axis : x y z
#
# Youngs Moduli (GPa) = 79.27023 79.27005 132.58110
#
# Poissons Ratio (x) = 0.43519 0.20347
# Poissons Ratio (y) = 0.43520 0.20347
# Poissons Ratio (z) = 0.12165 0.12166
#
# Static dielectric constant tensor:
#      x y z
#    x 1.802330 0.000000 0.000000 
#    y 0.000000 1.802330 0.000000 
#    z 0.000000 0.000000 1.755910 
# 
# From -- ./inp_files/2295.got.cif
#   From: 2010.05.17/outbox.cif.g08.bks.cpg/sg188_2_cif.got.tgz:2295.got - 2010.05.20 12:11:46.
