data_PCOD9586718
_publ_section_title
;
Structure prediction by ZEFSAII (Michael W. Deem and Ramdas Pophale) SiO2 
 PCOD9586718
Probable space group: P -6 2 C
;
_chemical_formula_sum "Si O2"
_cell_formula_units_Z 40
_cell_length_a 9.588073
_cell_length_b 9.588073
_cell_length_c 30.029096
_cell_angle_alpha 90.000000
_cell_angle_beta 90.000000
_cell_angle_gamma 120.000000
_cell_volume 2390.757649
_symmetry_space_group_name_H-M "P -6 2 C"
_symmetry_group_IT_number 190
_symmetry_cell_setting 'hexagonal'
loop_
_space_group_symop_operation_xyz
x,y,z
-x+y,-x,1/2-z
-y,x-y,z
x,y,1/2-z
-x+y,-x,z
-y,x-y,1/2-z
x-y,-y,-z
-x,-x+y,-z
y,x,-z
y,x,1/2+z
x-y,-y,1/2+z
-x,-x+y,1/2+z
loop_
_atom_site_type_symbol
_atom_site_label
_atom_site_fract_x
_atom_site_fract_y
_atom_site_fract_z
Si Si1 0.666668 0.333334 0.182940
Si Si2 0.333334 0.666667 0.574355
Si Si3 0.808487 0.100024 0.750000
Si Si4 0.683091 0.841415 0.529349
Si Si5 0.050580 0.479272 0.750000
Si Si6 0.000000 0.000000 0.689189
Si Si7 0.000000 0.000000 0.414305
O O1 0.666668 0.333334 0.129019
O O2 0.634976 0.467967 0.206519
O O3 0.512267 0.756433 0.553372
O O4 0.921608 0.291730 0.750000
O O5 0.860782 0.029532 0.708639
O O6 0.621593 0.039974 0.750000
O O7 0.721456 0.721456 0.500000
O O8 0.722274 0.000000 0.500000
O O9 0.821369 0.910161 0.566372
O O10 0.000000 0.000000 0.637548
#
# Coordination Sequence:
#
# PCOD9586718 Si02
#       7
#     4   4   6  12   6   4   4
#     4  10  22  36  54  81 117 144 177 222 280 313
#     4  12  22  31  63  87 108 141 186 229 271 327
#     4  10  21  34  61  74 110 146 178 220 279 312
#     4   9  20  39  56  80 111 151 175 224 278 320
#     4  10  21  40  53  78 120 140 178 228 275 322
#     4  10  19  34  55  85  98 148 193 211 253 337
#     4   9  20  35  60  76 113 136 192 221 257 333
#
# _framework density 16.731097999999999
#
# number of rings (size 3 to 8) (size 9 to 14) (size 15 to 20)
#    0.000    2.400    0.000    6.000    8.400    0.000 
#    0.000    0.000    0.000    0.000    0.000    0.000 
#    0.000    0.000    0.000    0.000    0.000    0.000 
#
# Total GULP energy -222998.246632 kJ/mol
# GULP energy per Si atom -5574.956166 kJ/mol
# Density = 1.669302 g / cm^3
# Si number density = 16.731098 Si / 1000 Ang^3
#
#
#
# Elastic Constant Matrix: (Units=GPa)
#
#
# Indices 1 2 3 4 5 6 
#
# 1 97.5991 63.3344 61.4484 -0.0001 0.0000 -0.0002
# 2 63.3344 97.5985 61.4484 -0.0002 0.0000 -0.0001
# 3 61.4484 61.4484 178.4903 0.0000 -0.0001 -0.0001
# 4 -0.0001 -0.0002 0.0000 22.0280 0.0000 0.0000
# 5 0.0000 0.0000 -0.0001 0.0000 22.0281 0.0000
# 6 -0.0002 -0.0001 -0.0001 0.0000 0.0000 17.1324
#
#
#
# Elastic Compliance Matrix: (Units=1/GPa)
#
#
# Indices 1 2 3 4 5 6 
#
# 1 0.018807 -0.010377 -0.002902 0.000000 0.000000 0.000000
# 2 -0.010377 0.018807 -0.002902 0.000000 0.000000 0.000000
# 3 -0.002902 -0.002902 0.007601 0.000000 0.000000 0.000000
# 4 0.000000 0.000000 0.000000 0.045397 0.000000 0.000000
# 5 0.000000 0.000000 0.000000 0.000000 0.045397 0.000000
# 6 0.000000 0.000000 0.000000 0.000000 0.000000 0.058369
#
#
# Mechanical properties :
#
#
# Convention : Reuss Voigt Hill
#
# Bulk Modulus (GPa) = 77.80827 82.90557 80.35692
# Shear Modulus (GPa) = 21.64263 24.73481 23.18872
#
# Velocity S-wave (km/s) = 3.60051 3.84913 3.72689
# Velocity P-wave (km/s) = 7.99319 8.33149 8.16409
#
# Compressibility (1/GPa) = 0.01285210
#
# Stress axis : x y z
#
# Youngs Moduli (GPa) = 53.17081 53.17036 131.56521
#
# Poissons Ratio (x) = 0.55177 0.38182
# Poissons Ratio (y) = 0.55177 0.38183
# Poissons Ratio (z) = 0.15431 0.15431
#
# Static dielectric constant tensor:
#      x y z
#    x 1.558700 0.000000 0.000000 
#    y 0.000000 1.558710 0.000000 
#    z 0.000000 0.000000 1.537900 
# 
# From -- ./inp_files/5103.got.cif
#   From: 2010.05.17/outbox.cif.g08.bks.cpg/sg190_3_cif.got.tgz:5103.got - 2010.05.20 12:16:56.
