data_PCOD9586754
_publ_section_title
;
Structure prediction by ZEFSAII (Michael W. Deem and Ramdas Pophale) SiO2 
 PCOD9586754
Probable space group: P -6 2 C
;
_chemical_formula_sum "Si O2"
_cell_formula_units_Z 36
_cell_length_a 6.922618
_cell_length_b 6.922618
_cell_length_c 33.202270
_cell_angle_alpha 90.000000
_cell_angle_beta 90.000000
_cell_angle_gamma 120.000000
_cell_volume 1377.968035
_symmetry_space_group_name_H-M "P -6 2 C"
_symmetry_group_IT_number 190
_symmetry_cell_setting 'hexagonal'
loop_
_space_group_symop_operation_xyz
x,y,z
-x+y,-x,1/2-z
-y,x-y,z
x,y,1/2-z
-x+y,-x,z
-y,x-y,1/2-z
x-y,-y,-z
-x,-x+y,-z
y,x,-z
y,x,1/2+z
x-y,-y,1/2+z
-x,-x+y,1/2+z
loop_
_atom_site_type_symbol
_atom_site_label
_atom_site_fract_x
_atom_site_fract_y
_atom_site_fract_z
Si Si1 0.543342 0.596953 0.126017
Si Si2 0.973259 0.241099 0.043479
Si Si3 0.216434 0.934823 0.706271
O O1 0.563495 0.842250 0.126847
O O2 0.645087 0.593938 0.083162
O O3 0.664162 0.587173 0.166227
O O4 0.194789 0.214884 0.044545
O O5 0.000000 0.354719 0.000000
O O6 0.304880 0.916210 0.750000
O O7 0.227390 0.176311 0.705768
#
# Coordination Sequence:
#
# PCOD9586754 Si02
#       3
#    12  12  12
#     4  10  20  28  44  81 111 126 147 208 274 301
#     4   8  16  34  57  68  83 136 186 201 226 299
#     4   8  16  32  56  73  90 136 186 203 217 292
#
# _framework density 26.125426000000001
#
# number of rings (size 3 to 8) (size 9 to 14) (size 15 to 20)
#    2.000    1.333    0.000    2.000    0.000    1.333 
#    6.000    0.000    0.000   10.667    0.000    0.000 
#    0.000    0.000    0.000    0.000    0.000    0.000 
#
# Total GULP energy -200707.739070 kJ/mol
# GULP energy per Si atom -5575.214974 kJ/mol
# Density = 2.606596 g / cm^3
# Si number density = 26.125426 Si / 1000 Ang^3
#
#
#
# Elastic Constant Matrix: (Units=GPa)
#
#
# Indices 1 2 3 4 5 6 
#
# 1 80.5453 18.1492 51.3424 0.0000 0.0000 0.0000
# 2 18.1492 80.5453 51.3424 0.0000 0.0000 0.0000
# 3 51.3424 51.3424 307.5201 0.0000 0.0000 0.0000
# 4 0.0000 0.0000 0.0000 -11.5359 0.0000 0.0000
# 5 0.0000 0.0000 0.0000 0.0000 -11.5359 0.0000
# 6 0.0000 0.0000 0.0000 0.0000 0.0000 31.1981
#
#
#
# Elastic Compliance Matrix: (Units=1/GPa)
#
#
# Indices 1 2 3 4 5 6 
#
# 1 0.014144 -0.001882 -0.002047 0.000000 0.000000 0.000000
# 2 -0.001882 0.014144 -0.002047 0.000000 0.000000 0.000000
# 3 -0.002047 -0.002047 0.003935 0.000000 0.000000 0.000000
# 4 0.000000 0.000000 0.000000 -0.086686 0.000000 0.000000
# 5 0.000000 0.000000 0.000000 0.000000 -0.086686 0.000000
# 6 0.000000 0.000000 0.000000 0.000000 0.000000 0.032053
#
#
# Mechanical properties :
#
#
# Convention : Reuss Voigt Hill
#
# Bulk Modulus (GPa) = 49.33160 78.91985 64.12573
# Shear Modulus (GPa) = -55.31984 24.81037 -15.25474
#
# Velocity S-wave (km/s) = -4.60659 3.08500 -2.41903
# Velocity P-wave (km/s) = 3.06115 6.55464 4.09833
#
# Compressibility (1/GPa) = 0.02027098
#
# Stress axis : x y z
#
# Youngs Moduli (GPa) = 70.69899 70.69899 254.10187
#
# Poissons Ratio (x) = 0.13307 0.52022
# Poissons Ratio (y) = 0.13307 0.52022
# Poissons Ratio (z) = 0.14474 0.14474
#
# Static dielectric constant tensor:
#      x y z
#    x 2.061310 0.000000 0.000000 
#    y 0.000000 2.061310 0.000000 
#    z 0.000000 0.000000 2.005210 
# 
# From -- ./inp_files/4802.got.cif
#   From: 2010.05.17/outbox.cif.g08.bks.cpg/sg190_3_cif.got.tgz:4802.got - 2010.05.20 12:16:56.
