data_PCOD9586278
_publ_section_title
;
Structure prediction by ZEFSAII (Michael W. Deem and Ramdas Pophale) SiO2 
 PCOD9586278
Probable space group: P -6 2 M
;
_chemical_formula_sum "Si O2"
_cell_formula_units_Z 84
_cell_length_a 15.774499
_cell_length_b 15.774499
_cell_length_c 22.493193
_cell_angle_alpha 90.000000
_cell_angle_beta 90.000000
_cell_angle_gamma 120.000000
_cell_volume 4847.221783
_symmetry_space_group_name_H-M "P -6 2 M"
_symmetry_group_IT_number 189
_symmetry_cell_setting 'hexagonal'
loop_
_space_group_symop_operation_xyz
x,y,z
-x+y,-x,-z
-y,x-y,z
x,y,-z
-x+y,-x,z
-y,x-y,-z
x-y,-y,-z
-x,-x+y,-z
y,x,-z
y,x,z
x-y,-y,z
-x,-x+y,z
loop_
_atom_site_type_symbol
_atom_site_label
_atom_site_fract_x
_atom_site_fract_y
_atom_site_fract_z
Si Si1 0.527317 0.118850 0.434882
Si Si2 0.497697 0.383016 0.758061
Si Si3 0.740791 0.118669 0.000000
Si Si4 0.628322 0.739184 0.347999
Si Si5 0.425370 0.313529 0.623374
Si Si6 0.832488 0.280912 0.782081
Si Si7 0.609850 0.723209 0.085483
Si Si8 0.882971 0.425634 0.000000
O O1 0.512698 0.150426 0.500000
O O2 0.473886 0.137299 0.380154
O O3 0.640646 0.158114 0.420828
O O4 0.473681 0.000000 0.436175
O O5 0.432587 0.432587 0.777145
O O6 0.473270 0.356838 0.688157
O O7 0.610938 0.459361 0.771077
O O8 0.473742 0.279901 0.786050
O O9 0.811856 0.172510 0.943808
O O10 0.656347 0.149636 0.000000
O O11 0.688275 0.000000 0.000000
O O12 0.705990 0.705990 0.363934
O O13 0.641898 0.839977 0.371652
O O14 0.615601 0.736864 0.277159
O O15 0.358360 0.358360 0.606765
O O16 0.880246 0.279113 0.843997
O O17 0.683246 0.683246 0.068766
O O18 0.503900 0.646056 0.056594
O O19 0.000000 0.490982 0.000000
#
# Coordination Sequence:
#
# PCOD9586278 Si02
#       8
#    12  12   6  12  12  12  12   6
#     4   9  17  31  50  71  99 137 178 222 271 321
#     4  10  20  34  50  76 111 142 184 230 266 325
#     4  10  21  39  59  77 103 141 183 222 262 312
#     4  10  19  33  53  76 105 141 181 225 274 327
#     4   9  18  33  51  70 101 140 178 221 268 322
#     4  11  21  33  55  79 109 149 180 220 282 329
#     4  10  21  37  56  79 109 140 173 216 267 323
#     4   8  18  37  54  73 102 135 166 208 257 308
#
# _framework density 17.329515000000001
#
# number of rings (size 3 to 8) (size 9 to 14) (size 15 to 20)
#    0.000    2.286    1.429    2.214    2.000    1.143 
#    4.286    0.000    0.000    1.429    0.000    0.000 
#    0.000    1.143    0.000    7.143    0.000    0.000 
#
# Total GULP energy -467659.129381 kJ/mol
# GULP energy per Si atom -5567.370588 kJ/mol
# Density = 1.729007 g / cm^3
# Si number density = 17.329515 Si / 1000 Ang^3
#
#
#
# Elastic Constant Matrix: (Units=GPa)
#
#
# Indices 1 2 3 4 5 6 
#
# 1 78.8395 40.3902 9.3580 0.0000 0.0000 0.0000
# 2 40.3902 78.8395 9.3580 0.0000 0.0000 0.0000
# 3 9.3580 9.3580 67.5610 0.0000 0.0000 0.0000
# 4 0.0000 0.0000 0.0000 14.1327 0.0000 0.0000
# 5 0.0000 0.0000 0.0000 0.0000 14.1327 0.0000
# 6 0.0000 0.0000 0.0000 0.0000 0.0000 19.2247
#
#
#
# Elastic Compliance Matrix: (Units=1/GPa)
#
#
# Indices 1 2 3 4 5 6 
#
# 1 0.017291 -0.008717 -0.001188 0.000000 0.000000 0.000000
# 2 -0.008717 0.017291 -0.001188 0.000000 0.000000 0.000000
# 3 -0.001188 -0.001188 0.015130 0.000000 0.000000 0.000000
# 4 0.000000 0.000000 0.000000 0.070758 0.000000 0.000000
# 5 0.000000 0.000000 0.000000 0.000000 0.070758 0.000000
# 6 0.000000 0.000000 0.000000 0.000000 0.000000 0.052016
#
#
# Mechanical properties :
#
#
# Convention : Reuss Voigt Hill
#
# Bulk Modulus (GPa) = 36.32740 38.16136 37.24438
# Shear Modulus (GPa) = 18.20799 20.57363 19.39081
#
# Velocity S-wave (km/s) = 3.24496 3.44932 3.34870
# Velocity P-wave (km/s) = 5.92013 6.15894 6.04071
#
# Compressibility (1/GPa) = 0.02752743
#
# Stress axis : x y z
#
# Youngs Moduli (GPa) = 57.83387 57.83387 66.09204
#
# Poissons Ratio (x) = 0.50416 0.07849
# Poissons Ratio (y) = 0.50416 0.07849
# Poissons Ratio (z) = 0.06868 0.06868
#
# Static dielectric constant tensor:
#      x y z
#    x 1.600850 0.000000 0.000000 
#    y 0.000000 1.600850 0.000000 
#    z 0.000000 0.000000 1.607910 
# 
# From -- ./inp_files/3645.got.cif
#   From: 2010.05.17/outbox.cif.g08.bks.cpg/sg189_2_cif.got.tgz:3645.got - 2010.05.20 12:14:34.
