data_PCOD9586136
_publ_section_title
;
Structure prediction by ZEFSAII (Michael W. Deem and Ramdas Pophale) SiO2 
 PCOD9586136
Probable space group: P -6 2 M
;
_chemical_formula_sum "Si O2"
_cell_formula_units_Z 76
_cell_length_a 18.766796
_cell_length_b 18.766796
_cell_length_c 14.496728
_cell_angle_alpha 90.000000
_cell_angle_beta 90.000000
_cell_angle_gamma 120.000000
_cell_volume 4421.614628
_symmetry_space_group_name_H-M "P -6 2 M"
_symmetry_group_IT_number 189
_symmetry_cell_setting 'hexagonal'
loop_
_space_group_symop_operation_xyz
x,y,z
-x+y,-x,-z
-y,x-y,z
x,y,-z
-x+y,-x,z
-y,x-y,-z
x-y,-y,-z
-x,-x+y,-z
y,x,-z
y,x,z
x-y,-y,z
-x,-x+y,z
loop_
_atom_site_type_symbol
_atom_site_label
_atom_site_fract_x
_atom_site_fract_y
_atom_site_fract_z
Si Si1 0.305363 0.899971 0.397787
Si Si2 0.242803 0.901848 0.791577
Si Si3 0.229116 0.326590 0.890863
Si Si4 0.515802 0.169383 0.889457
Si Si5 0.523011 0.900916 0.798492
Si Si6 0.428479 0.528704 0.396742
Si Si7 0.333334 0.666668 0.888320
O O1 0.270064 0.871983 0.500000
O O2 0.242753 0.874610 0.313953
O O3 0.376590 0.876788 0.382124
O O4 0.355200 0.000000 0.398037
O O5 0.154227 0.855553 0.838722
O O6 0.300240 0.874036 0.845341
O O7 0.285157 0.000000 0.795382
O O8 0.267594 0.267594 0.876814
O O9 0.293454 0.415728 0.848977
O O10 0.220725 0.334406 0.000000
O O11 0.566490 0.126155 0.855419
O O12 0.575379 0.264451 0.859842
O O13 0.508722 0.166072 0.000000
O O14 0.500651 0.871122 0.692505
O O15 0.571854 0.000000 0.795569
O O16 0.393191 0.520886 0.500000
O O17 0.476198 0.476198 0.397765
O O18 0.333334 0.666668 0.000000
#
# Coordination Sequence:
#
# PCOD9586136 Si02
#       7
#    12  12  12  12  12  12   4
#     4   8  14  27  48  75 105 131 157 198 256 311
#     4  11  21  34  55  82 102 123 168 227 270 306
#     4  10  22  38  52  68 101 147 179 205 262 333
#     4  11  20  30  46  71 101 132 169 211 252 290
#     4  10  18  30  48  72 100 134 174 211 248 300
#     4   8  13  24  44  70 100 132 167 206 246 291
#     4   9  21  36  45  57  91 140 172 189 231 309
#
# _framework density 17.188291
#
# number of rings (size 3 to 8) (size 9 to 14) (size 15 to 20)
#    0.000    2.368    1.579    3.316    0.000    4.105 
#    0.000    0.789    0.000    1.737    0.000    1.105 
#    0.000    0.000    0.000    0.000    0.000    0.316 
#
# Total GULP energy -423786.881113 kJ/mol
# GULP energy per Si atom -5576.143173 kJ/mol
# Density = 1.714917 g / cm^3
# Si number density = 17.188291 Si / 1000 Ang^3
#
#
#
# Elastic Constant Matrix: (Units=GPa)
#
#
# Indices 1 2 3 4 5 6 
#
# 1 52.4392 19.8504 39.2827 0.0000 0.0000 0.0000
# 2 19.8504 52.4385 39.2825 0.0000 0.0000 -0.0001
# 3 39.2827 39.2825 133.6128 -0.0001 0.0000 0.0000
# 4 0.0000 0.0000 -0.0001 17.2800 0.0001 0.0000
# 5 0.0000 0.0000 0.0000 0.0001 17.2799 0.0000
# 6 0.0000 -0.0001 0.0000 0.0000 0.0000 16.2939
#
#
#
# Elastic Compliance Matrix: (Units=1/GPa)
#
#
# Indices 1 2 3 4 5 6 
#
# 1 0.025507 -0.005178 -0.005977 0.000000 0.000000 0.000000
# 2 -0.005178 0.025508 -0.005977 0.000000 0.000000 0.000000
# 3 -0.005977 -0.005977 0.010999 0.000000 0.000000 0.000000
# 4 0.000000 0.000000 0.000000 0.057870 0.000000 0.000000
# 5 0.000000 0.000000 0.000000 0.000000 0.057871 0.000000
# 6 0.000000 0.000000 0.000000 0.000000 0.000000 0.061373
#
#
# Mechanical properties :
#
#
# Convention : Reuss Voigt Hill
#
# Bulk Modulus (GPa) = 36.03663 48.36907 42.20285
# Shear Modulus (GPa) = 17.69029 19.50909 18.59969
#
# Velocity S-wave (km/s) = 3.21160 3.37266 3.29312
# Velocity P-wave (km/s) = 5.89609 6.58546 6.25029
#
# Compressibility (1/GPa) = 0.02774954
#
# Stress axis : x y z
#
# Youngs Moduli (GPa) = 39.20462 39.20406 90.91974
#
# Poissons Ratio (x) = 0.20301 0.54341
# Poissons Ratio (y) = 0.20302 0.54341
# Poissons Ratio (z) = 0.23432 0.23432
#
# Static dielectric constant tensor:
#      x y z
#    x 1.593790 0.000000 0.000000 
#    y 0.000000 1.593790 0.000000 
#    z 0.000000 0.000000 1.611450 
# 
# From -- ./inp_files/2722.got.cif
#   From: 2010.05.17/outbox.cif.g08.bks.cpg/sg189_2_cif.got.tgz:2722.got - 2010.05.20 12:14:34.
