data_PCOD9586832
_publ_section_title
;
Structure prediction by ZEFSAII (Michael W. Deem and Ramdas Pophale) SiO2 
 PCOD9586832
Probable space group: P -6 2 C
;
_chemical_formula_sum "Si O2"
_cell_formula_units_Z 32
_cell_length_a 11.273581
_cell_length_b 11.273581
_cell_length_c 13.645542
_cell_angle_alpha 90.000000
_cell_angle_beta 90.000000
_cell_angle_gamma 120.000000
_cell_volume 1501.914469
_symmetry_space_group_name_H-M "P -6 2 C"
_symmetry_group_IT_number 190
_symmetry_cell_setting 'hexagonal'
loop_
_space_group_symop_operation_xyz
x,y,z
-x+y,-x,1/2-z
-y,x-y,z
x,y,1/2-z
-x+y,-x,z
-y,x-y,1/2-z
x-y,-y,-z
-x,-x+y,-z
y,x,-z
y,x,1/2+z
x-y,-y,1/2+z
-x,-x+y,1/2+z
loop_
_atom_site_type_symbol
_atom_site_label
_atom_site_fract_x
_atom_site_fract_y
_atom_site_fract_z
Si Si1 0.333335 0.666668 0.367730
Si Si2 0.240861 0.839778 0.471682
Si Si3 0.000000 0.000000 0.866629
Si Si4 0.950722 0.714909 0.134250
O O1 0.333334 0.666668 0.250000
O O2 0.340785 0.800795 0.414946
O O3 0.164411 0.755907 0.570896
O O4 0.108077 0.779691 0.399296
O O5 0.324473 0.000000 0.500000
O O6 0.086150 0.157323 0.894508
O O7 0.000000 0.000000 0.750000
O O8 0.937632 0.690858 0.250000
#
# Coordination Sequence:
#
# PCOD9586832 Si02
#       4
#     4  12   4  12
#     4  12  30  51  67  92 136 192 234 273 340 407
#     4  11  24  41  68  99 131 176 231 279 332 407
#     4   9  15  28  56 100 139 173 208 265 344 385
#     4  10  20  37  65 101 141 175 218 283 345 395
#
# _framework density 21.306139000000002
#
# number of rings (size 3 to 8) (size 9 to 14) (size 15 to 20)
#    0.000    1.500    3.750    1.125    5.250    1.500 
#    0.000    1.875    0.000    0.000    0.000    0.000 
#    0.000    0.000    0.000    0.000    0.000    0.000 
#
# Total GULP energy -178256.565055 kJ/mol
# GULP energy per Si atom -5570.517658 kJ/mol
# Density = 2.125765 g / cm^3
# Si number density = 21.306139 Si / 1000 Ang^3
#
#
#
# Elastic Constant Matrix: (Units=GPa)
#
#
# Indices 1 2 3 4 5 6 
#
# 1 58.8587 27.4030 42.0540 0.0001 -0.0001 -0.0001
# 2 27.4030 58.8586 42.0536 0.0002 0.0001 -0.0001
# 3 42.0540 42.0536 195.3835 0.0000 -0.0001 -0.0002
# 4 0.0001 0.0002 0.0000 25.4130 -0.0001 -0.0001
# 5 -0.0001 0.0001 -0.0001 -0.0001 25.4131 0.0000
# 6 -0.0001 -0.0001 -0.0002 -0.0001 0.0000 15.7281
#
#
#
# Elastic Compliance Matrix: (Units=1/GPa)
#
#
# Indices 1 2 3 4 5 6 
#
# 1 0.023231 -0.008560 -0.003158 0.000000 0.000000 0.000000
# 2 -0.008560 0.023231 -0.003158 0.000000 0.000000 0.000000
# 3 -0.003158 -0.003158 0.006478 0.000000 0.000000 0.000000
# 4 0.000000 0.000000 0.000000 0.039350 0.000000 0.000000
# 5 0.000000 0.000000 0.000000 0.000000 0.039350 0.000000
# 6 0.000000 0.000000 0.000000 0.000000 0.000000 0.063580
#
#
# Mechanical properties :
#
#
# Convention : Reuss Voigt Hill
#
# Bulk Modulus (GPa) = 43.12333 59.56911 51.34622
# Shear Modulus (GPa) = 21.48683 26.75019 24.11851
#
# Velocity S-wave (km/s) = 3.17910 3.54717 3.36817
# Velocity P-wave (km/s) = 5.81028 6.69297 6.26719
#
# Compressibility (1/GPa) = 0.02318931
#
# Stress axis : x y z
#
# Youngs Moduli (GPa) = 43.04544 43.04552 154.37991
#
# Poissons Ratio (x) = 0.36845 0.48752
# Poissons Ratio (y) = 0.36845 0.48751
# Poissons Ratio (z) = 0.13593 0.13593
#
# Static dielectric constant tensor:
#      x y z
#    x 1.857180 0.000000 0.000000 
#    y 0.000000 1.857180 0.000000 
#    z 0.000000 0.000000 1.757090 
# 
# From -- ./inp_files/2302.got.cif
#   From: 2010.05.17/outbox.cif.g08.bks.cpg/sg190_2_cif.got.tgz:2302.got - 2010.05.20 12:16:56.
