data_PCOD9586073
_publ_section_title
;
Structure prediction by ZEFSAII (Michael W. Deem and Ramdas Pophale) SiO2 
 PCOD9586073
Probable space group: P -6 C 2
;
_chemical_formula_sum "Si O2"
_cell_formula_units_Z 58
_cell_length_a 13.861321
_cell_length_b 13.861321
_cell_length_c 16.192810
_cell_angle_alpha 90.000000
_cell_angle_beta 90.000000
_cell_angle_gamma 120.000000
_cell_volume 2694.400149
_symmetry_space_group_name_H-M "P -6 C 2"
_symmetry_group_IT_number 188
_symmetry_cell_setting 'hexagonal'
loop_
_space_group_symop_operation_xyz
x,y,z
-x+y,-x,1/2-z
-y,x-y,z
x,y,1/2-z
-x+y,-x,z
-y,x-y,1/2-z
-y,-x,-z
-x+y,y,-z
x,x-y,-z
-x+y,y,1/2+z
x,x-y,1/2+z
-y,-x,1/2+z
loop_
_atom_site_type_symbol
_atom_site_label
_atom_site_fract_x
_atom_site_fract_y
_atom_site_fract_z
Si Si1 0.993555 0.363249 0.345719
Si Si2 0.464651 0.775201 0.850406
Si Si3 0.963153 0.102283 0.750000
Si Si4 0.833829 0.119069 0.088919
Si Si5 0.602517 0.097932 0.412742
Si Si6 0.666666 0.333333 0.151436
O O1 0.992198 0.333816 0.250000
O O2 0.119844 0.422190 0.380442
O O3 0.901674 0.251518 0.389395
O O4 0.963889 0.462006 0.351587
O O5 0.351980 0.778776 0.874427
O O6 0.470409 0.779725 0.750000
O O7 0.941087 0.147850 0.833790
O O8 0.085526 0.117064 0.750000
O O9 0.701349 0.070838 0.082073
O O10 0.884271 0.115730 0.000000
O O11 0.543580 0.087160 0.500000
O O12 0.664829 0.225432 0.383382
O O13 0.666667 0.333334 0.250000
#
# Coordination Sequence:
#
# PCOD9586073 Si02
#       6
#    12  12   6  12  12   4
#     4  11  21  35  62 101 137 180 235 289 349 440
#     4   7  14  33  56  85 123 166 212 274 345 408
#     4  10  28  56  74 100 136 186 256 326 368 424
#     4  12  24  44  73 103 145 186 237 300 374 452
#     4  12  23  38  57  97 148 185 222 284 365 446
#     4  12  22  32  55  87 133 182 208 267 355 428
#
# _framework density 21.526128
#
# number of rings (size 3 to 8) (size 9 to 14) (size 15 to 20)
#    0.621    0.828    5.172    1.241    2.897    0.828 
#    3.724    0.000    0.000    1.241    0.000    0.000 
#    0.000    0.000    0.000    0.000    0.000    0.000 
#
# Total GULP energy -323330.190405 kJ/mol
# GULP energy per Si atom -5574.658455 kJ/mol
# Density = 2.147713 g / cm^3
# Si number density = 21.526128 Si / 1000 Ang^3
#
#
#
# Elastic Constant Matrix: (Units=GPa)
#
#
# Indices 1 2 3 4 5 6 
#
# 1 90.4240 -21.8859 29.4444 -0.0010 0.0004 -0.0057
# 2 -21.8859 90.4232 29.4443 0.0010 -0.0004 0.0053
# 3 29.4444 29.4443 106.4898 0.0001 0.0000 0.0001
# 4 -0.0010 0.0010 0.0001 -1.5013 0.0000 0.0004
# 5 0.0004 -0.0004 0.0000 0.0000 -1.5012 0.0000
# 6 -0.0057 0.0053 0.0001 0.0004 0.0000 56.1629
#
#
#
# Elastic Compliance Matrix: (Units=1/GPa)
#
#
# Indices 1 2 3 4 5 6 
#
# 1 0.014020 0.005116 -0.005291 -0.000006 0.000002 0.000001
# 2 0.005116 0.014021 -0.005291 0.000006 -0.000002 -0.000001
# 3 -0.005291 -0.005291 0.012317 0.000000 0.000000 0.000000
# 4 -0.000006 0.000006 0.000000 -0.666104 -0.000015 0.000004
# 5 0.000002 -0.000002 0.000000 -0.000015 -0.666131 0.000001
# 6 0.000001 -0.000001 0.000000 0.000004 0.000001 0.017805
#
#
# Mechanical properties :
#
#
# Convention : Reuss Voigt Hill
#
# Bulk Modulus (GPa) = 33.98454 40.14920 37.06687
# Shear Modulus (GPa) = -3.98937 27.32103 11.66583
#
# Velocity S-wave (km/s) = -1.36283 3.56645 2.33048
# Velocity P-wave (km/s) = 3.65314 5.97087 4.94958
#
# Compressibility (1/GPa) = 0.02942515
#
# Stress axis : x y z
#
# Youngs Moduli (GPa) = 71.32465 71.32407 81.19069
#
# Poissons Ratio (x) = -0.36493 0.42961
# Poissons Ratio (y) = -0.36493 0.42961
# Poissons Ratio (z) = 0.37740 0.37740
#
# Static dielectric constant tensor:
#      x y z
#    x 1.776330 0.000000 0.000000 
#    y 0.000000 1.776340 0.000000 
#    z 0.000000 0.000000 1.789250 
# 
# From -- ./inp_files/2319.got.cif
#   From: 2010.05.17/outbox.cif.g08.bks.cpg/sg188_2_cif.got.tgz:2319.got - 2010.05.20 12:11:46.
