data_PCOD9586970
_publ_section_title
;
Structure prediction by ZEFSAII (Michael W. Deem and Ramdas Pophale) SiO2 
 PCOD9586970
Probable space group: P -6 2 C
;
_chemical_formula_sum "Si O2"
_cell_formula_units_Z 34
_cell_length_a 10.758927
_cell_length_b 10.758927
_cell_length_c 15.831712
_cell_angle_alpha 90.000000
_cell_angle_beta 90.000000
_cell_angle_gamma 120.000000
_cell_volume 1587.071286
_symmetry_space_group_name_H-M "P -6 2 C"
_symmetry_group_IT_number 190
_symmetry_cell_setting 'hexagonal'
loop_
_space_group_symop_operation_xyz
x,y,z
-x+y,-x,1/2-z
-y,x-y,z
x,y,1/2-z
-x+y,-x,z
-y,x-y,1/2-z
x-y,-y,-z
-x,-x+y,-z
y,x,-z
y,x,1/2+z
x-y,-y,1/2+z
-x,-x+y,1/2+z
loop_
_atom_site_type_symbol
_atom_site_label
_atom_site_fract_x
_atom_site_fract_y
_atom_site_fract_z
Si Si1 0.557381 0.583564 0.906017
Si Si2 0.146499 0.586578 0.250000
Si Si3 0.020051 0.168047 0.351294
Si Si4 0.666668 0.333335 0.149040
O O1 0.516544 0.464190 0.833834
O O2 0.726739 0.697290 0.897457
O O3 0.473305 0.666777 0.884156
O O4 0.523528 0.523528 0.000000
O O5 0.265910 0.753226 0.250000
O O6 0.018269 0.187590 0.250000
O O7 0.141721 0.125492 0.370721
O O8 0.666667 0.333334 0.250000
#
# Coordination Sequence:
#
# PCOD9586970 Si02
#       4
#    12   6  12   4
#     4  12  26  45  72 105 142 182 242 299 350 427
#     4  10  26  48  72  98 140 188 232 278 364 426
#     4   8  17  38  66  99 131 181 232 277 346 406
#     4  12  27  51  72 103 143 196 237 291 372 418
#
# _framework density 21.423110000000001
#
# number of rings (size 3 to 8) (size 9 to 14) (size 15 to 20)
#    1.059    0.706    3.529    0.000    4.941    4.235 
#    0.000    0.000    0.000    0.000    0.000    0.000 
#    0.000    0.000    0.000    0.000    0.000    0.000 
#
# Total GULP energy -189815.222608 kJ/mol
# GULP energy per Si atom -5582.800665 kJ/mol
# Density = 2.137435 g / cm^3
# Si number density = 21.423110 Si / 1000 Ang^3
#
#
#
# Elastic Constant Matrix: (Units=GPa)
#
#
# Indices 1 2 3 4 5 6 
#
# 1 63.6228 -28.2272 13.7988 0.0005 0.0006 -0.0028
# 2 -28.2272 63.6210 13.7961 -0.0006 -0.0007 0.0030
# 3 13.7988 13.7961 148.1414 0.0001 0.0001 -0.0010
# 4 0.0005 -0.0006 0.0001 3.1978 0.0000 0.0007
# 5 0.0006 -0.0007 0.0001 0.0000 3.1973 -0.0005
# 6 -0.0028 0.0030 -0.0010 0.0007 -0.0005 45.9383
#
#
#
# Elastic Compliance Matrix: (Units=1/GPa)
#
#
# Indices 1 2 3 4 5 6 
#
# 1 0.020676 0.009789 -0.002837 -0.000001 -0.000002 0.000001
# 2 0.009789 0.020676 -0.002837 0.000002 0.000003 -0.000001
# 3 -0.002837 -0.002837 0.007279 0.000000 0.000000 0.000000
# 4 -0.000001 0.000002 0.000000 0.312718 -0.000001 -0.000005
# 5 -0.000002 0.000003 0.000000 -0.000001 0.312767 0.000004
# 6 0.000001 -0.000001 0.000000 -0.000005 0.000004 0.021768
#
#
# Mechanical properties :
#
#
# Convention : Reuss Voigt Hill
#
# Bulk Modulus (GPa) = 17.58734 30.45785 24.02260
# Shear Modulus (GPa) = 7.07604 28.86783 17.97194
#
# Velocity S-wave (km/s) = 1.81939 3.67483 2.89953
# Velocity P-wave (km/s) = 3.55540 5.67926 4.73787
#
# Compressibility (1/GPa) = 0.05685907
#
# Stress axis : x y z
#
# Youngs Moduli (GPa) = 48.36530 48.36435 137.38450
#
# Poissons Ratio (x) = -0.47343 0.38983
# Poissons Ratio (y) = -0.47344 0.38981
# Poissons Ratio (z) = 0.13724 0.13723
#
# Static dielectric constant tensor:
#      x y z
#    x 1.758400 0.000000 0.000000 
#    y 0.000000 1.758400 0.000000 
#    z 0.000000 0.000000 1.748860 
# 
# From -- ./inp_files/2394.got.cif
#   From: 2010.05.17/outbox.cif.g08.bks.cpg/sg190_2_cif.got.tgz:2394.got - 2010.05.20 12:16:56.
