data_PCOD9586595
_publ_section_title
;
Structure prediction by ZEFSAII (Michael W. Deem and Ramdas Pophale) SiO2 
 PCOD9586595
Probable space group: P -6 2 M
;
_chemical_formula_sum "Si O2"
_cell_formula_units_Z 60
_cell_length_a 18.000000
_cell_length_b 18.000000
_cell_length_c 12.000000
_cell_angle_alpha 90.000000
_cell_angle_beta 90.000000
_cell_angle_gamma 120.000000
_cell_volume 3367.106770
_symmetry_space_group_name_H-M "P -6 2 M"
_symmetry_group_IT_number 189
_symmetry_cell_setting 'hexagonal'
loop_
_space_group_symop_operation_xyz
x,y,z
-x+y,-x,-z
-y,x-y,z
x,y,-z
-x+y,-x,z
-y,x-y,-z
x-y,-y,-z
-x,-x+y,-z
y,x,-z
y,x,z
x-y,-y,z
-x,-x+y,z
loop_
_atom_site_type_symbol
_atom_site_label
_atom_site_fract_x
_atom_site_fract_y
_atom_site_fract_z
Si Si1 0.421330 0.903053 0.000000
Si Si2 0.507302 0.103782 0.242168
Si Si3 0.098630 0.196626 0.366529
Si Si4 0.240488 0.900330 0.000000
Si Si5 0.626209 0.797091 0.757382
Si Si6 0.896947 0.550064 0.628856
O O1 0.418500 0.864309 0.121266
O O2 0.333643 0.907201 0.000000
O O3 0.500924 0.000000 0.000000
O O4 0.442959 0.139694 0.262667
O O5 0.578471 0.122944 0.334804
O O6 0.448304 0.000000 0.233488
O O7 0.107709 0.208009 0.500000
O O8 0.162207 0.162207 0.329492
O O9 0.119872 0.285903 0.311628
O O10 0.000000 0.126349 0.343048
O O11 0.195912 0.849545 0.887157
O O12 0.262957 0.000000 0.000000
O O13 0.583414 0.851413 0.713741
O O14 0.872228 0.551986 0.500000
O O15 0.000000 0.611056 0.636685
#
# Coordination Sequence:
#
# PCOD9586595 Si02
#       6
#     6  12  12   6  12  12
#     4   7  12  27  52  77  99 126 164 215 270 322
#     4   9  18  34  56  79 104 138 182 228 278 335
#     4  10  20  34  54  80 110 144 186 238 292 349
#     4   9  18  33  55  85 115 138 176 237 284 322
#     4  11  20  35  58  82 109 148 191 228 282 353
#     4  10  22  38  53  76 114 151 187 239 291 333
#
# _framework density 17.819452999999999
#
# number of rings (size 3 to 8) (size 9 to 14) (size 15 to 20)
#    0.000    2.400    0.000    4.400    0.000    4.800 
#    1.200    5.000    0.000    0.000    0.000    1.400 
#    0.000    0.000    0.000    0.000    0.000    0.000 
#
# Total GULP energy -334333.478132 kJ/mol
# GULP energy per Si atom -5572.224636 kJ/mol
# Density = 1.777889 g / cm^3
# Si number density = 17.819453 Si / 1000 Ang^3
#
#
#
# Elastic Constant Matrix: (Units=GPa)
#
#
# Indices 1 2 3 4 5 6 
#
# 1 77.9644 25.4636 51.3579 0.0000 0.0000 0.0000
# 2 25.4636 77.9644 51.3579 0.0000 0.0000 0.0000
# 3 51.3579 51.3579 99.4296 0.0000 0.0000 0.0000
# 4 0.0000 0.0000 0.0000 27.1981 0.0000 0.0000
# 5 0.0000 0.0000 0.0000 0.0000 27.1981 0.0000
# 6 0.0000 0.0000 0.0000 0.0000 0.0000 26.2504
#
#
#
# Elastic Compliance Matrix: (Units=1/GPa)
#
#
# Indices 1 2 3 4 5 6 
#
# 1 0.019450 0.000402 -0.010254 0.000000 0.000000 0.000000
# 2 0.000402 0.019450 -0.010254 0.000000 0.000000 0.000000
# 3 -0.010254 -0.010254 0.020650 0.000000 0.000000 0.000000
# 4 0.000000 0.000000 0.000000 0.036767 0.000000 0.000000
# 5 0.000000 0.000000 0.000000 0.000000 0.036767 0.000000
# 6 0.000000 0.000000 0.000000 0.000000 0.000000 0.038095
#
#
# Mechanical properties :
#
#
# Convention : Reuss Voigt Hill
#
# Bulk Modulus (GPa) = 51.71138 56.85748 54.28443
# Shear Modulus (GPa) = 22.95297 24.60792 23.78045
#
# Velocity S-wave (km/s) = 3.59288 3.72016 3.65707
# Velocity P-wave (km/s) = 6.80400 7.10138 6.95428
#
# Compressibility (1/GPa) = 0.01933810
#
# Stress axis : x y z
#
# Youngs Moduli (GPa) = 51.41467 51.41467 48.42520
#
# Poissons Ratio (x) = -0.02069 0.49656
# Poissons Ratio (y) = -0.02069 0.49656
# Poissons Ratio (z) = 0.52721 0.52721
#
# Static dielectric constant tensor:
#      x y z
#    x 1.601700 0.000000 0.000000 
#    y 0.000000 1.601700 0.000000 
#    z 0.000000 0.000000 1.642770 
# 
# From -- ./inp_files/1939.got.cif
#   From: 2010.05.17/outbox.ucp.g08.bks.cvg/sg189_1_cif.got.tgz:1939.got - 2010.06.11 15:22:13.
