data_PCOD9586298
_publ_section_title
;
Structure prediction by ZEFSAII (Michael W. Deem and Ramdas Pophale) SiO2 
 PCOD9586298
Probable space group: P -6 2 M
;
_chemical_formula_sum "Si O2"
_cell_formula_units_Z 66
_cell_length_a 16.856262
_cell_length_b 16.856262
_cell_length_c 17.233179
_cell_angle_alpha 90.000000
_cell_angle_beta 90.000000
_cell_angle_gamma 120.000000
_cell_volume 4240.514735
_symmetry_space_group_name_H-M "P -6 2 M"
_symmetry_group_IT_number 189
_symmetry_cell_setting 'hexagonal'
loop_
_space_group_symop_operation_xyz
x,y,z
-x+y,-x,-z
-y,x-y,z
x,y,-z
-x+y,-x,z
-y,x-y,-z
x-y,-y,-z
-x,-x+y,-z
y,x,-z
y,x,z
x-y,-y,z
-x,-x+y,z
loop_
_atom_site_type_symbol
_atom_site_label
_atom_site_fract_x
_atom_site_fract_y
_atom_site_fract_z
Si Si1 0.445271 0.554730 0.161758
Si Si2 0.610209 0.895814 0.251070
Si Si3 0.714394 0.610209 0.251070
Si Si4 0.332123 0.850607 0.587310
Si Si5 0.786121 0.393061 0.000000
Si Si6 0.149393 0.667877 0.412690
O O1 0.500000 0.500000 0.153133
O O2 0.353632 0.486337 0.208861
O O3 0.513663 0.646368 0.208861
O O4 0.421979 0.578021 0.078141
O O5 0.637249 0.818625 0.234961
O O6 0.589081 0.893967 0.342778
O O7 0.682484 0.000000 0.228148
O O8 0.682484 0.682484 0.228148
O O9 0.695113 0.589081 0.342778
O O10 0.326696 0.881586 0.500000
O O11 0.433605 0.867211 0.598927
O O12 0.257745 0.742255 0.590521
O O13 0.716290 0.432580 0.000000
O O14 0.118414 0.673304 0.500000
#
# Coordination Sequence:
#
# PCOD9586298 Si02
#       6
#    12  12  12  12   6  12
#     4  10  19  34  51  72  97 125 158 197 238 278
#     4  10  20  33  49  69  95 126 163 202 246 288
#     4  10  20  33  49  69  95 126 163 202 246 288
#     4   9  16  26  41  64  94 127 162 196 232 277
#     4  10  21  32  48  70  98 128 164 186 215 270
#     4   9  16  26  41  64  94 127 162 196 232 277
#
# _framework density 15.564147999999999
#
# number of rings (size 3 to 8) (size 9 to 14) (size 15 to 20)
#    0.182    2.182    1.818    1.727    0.000    2.182 
#    1.091    1.818    0.000    0.364    0.000    0.000 
#    0.000    0.000    0.000    9.091    0.000   37.818 
#
# Total GULP energy -367764.256334 kJ/mol
# GULP energy per Si atom -5572.185702 kJ/mol
# Density = 1.552872 g / cm^3
# Si number density = 15.564148 Si / 1000 Ang^3
#
#
#
# Elastic Constant Matrix: (Units=GPa)
#
#
# Indices 1 2 3 4 5 6 
#
# 1 65.2357 43.8504 18.9709 0.0000 0.0000 0.0000
# 2 43.8504 65.2357 18.9709 0.0000 0.0000 0.0000
# 3 18.9709 18.9709 76.7275 0.0000 0.0000 0.0000
# 4 0.0000 0.0000 0.0000 17.4075 0.0000 0.0000
# 5 0.0000 0.0000 0.0000 0.0000 17.4075 0.0000
# 6 0.0000 0.0000 0.0000 0.0000 0.0000 10.6927
#
#
#
# Elastic Compliance Matrix: (Units=1/GPa)
#
#
# Indices 1 2 3 4 5 6 
#
# 1 0.028395 -0.018366 -0.002480 0.000000 0.000000 0.000000
# 2 -0.018366 0.028395 -0.002480 0.000000 0.000000 0.000000
# 3 -0.002480 -0.002480 0.014259 0.000000 0.000000 0.000000
# 4 0.000000 0.000000 0.000000 0.057446 0.000000 0.000000
# 5 0.000000 0.000000 0.000000 0.000000 0.057446 0.000000
# 6 0.000000 0.000000 0.000000 0.000000 0.000000 0.093522
#
#
# Mechanical properties :
#
#
# Convention : Reuss Voigt Hill
#
# Bulk Modulus (GPa) = 40.98477 41.19815 41.09146
# Shear Modulus (GPa) = 14.95892 17.46199 16.21046
#
# Velocity S-wave (km/s) = 3.10355 3.35317 3.23077
# Velocity P-wave (km/s) = 6.26360 6.44352 6.35420
#
# Compressibility (1/GPa) = 0.02439931
#
# Stress axis : x y z
#
# Youngs Moduli (GPa) = 35.21709 35.21709 70.12915
#
# Poissons Ratio (x) = 0.64679 0.17391
# Poissons Ratio (y) = 0.64679 0.17391
# Poissons Ratio (z) = 0.08733 0.08733
#
# Static dielectric constant tensor:
#      x y z
#    x 1.522580 0.000000 0.000000 
#    y 0.000000 1.522580 0.000000 
#    z 0.000000 0.000000 1.529510 
# 
# From -- ./inp_files/2671.got.cif
#   From: 2010.05.17/outbox.cif.g08.bks.cpg/sg189_2_cif.got.tgz:2671.got - 2010.05.20 12:14:34.
