data_PCOD9586598
_publ_section_title
;
Structure prediction by ZEFSAII (Michael W. Deem and Ramdas Pophale) SiO2 
 PCOD9586598
Probable space group: P -6 2 M
;
_chemical_formula_sum "Si O2"
_cell_formula_units_Z 60
_cell_length_a 18.000000
_cell_length_b 18.000000
_cell_length_c 12.000000
_cell_angle_alpha 90.000000
_cell_angle_beta 90.000000
_cell_angle_gamma 120.000000
_cell_volume 3367.106770
_symmetry_space_group_name_H-M "P -6 2 M"
_symmetry_group_IT_number 189
_symmetry_cell_setting 'hexagonal'
loop_
_space_group_symop_operation_xyz
x,y,z
-x+y,-x,-z
-y,x-y,z
x,y,-z
-x+y,-x,z
-y,x-y,-z
x-y,-y,-z
-x,-x+y,-z
y,x,-z
y,x,z
x-y,-y,z
-x,-x+y,z
loop_
_atom_site_type_symbol
_atom_site_label
_atom_site_fract_x
_atom_site_fract_y
_atom_site_fract_z
Si Si1 0.448196 0.896103 0.000000
Si Si2 0.476396 0.103315 0.231199
Si Si3 0.099120 0.198785 0.367050
Si Si4 0.103744 0.725209 0.000000
Si Si5 0.623819 0.829298 0.760101
Si Si6 0.896549 0.515722 0.628281
O O1 0.392804 0.869186 0.888260
O O2 0.521472 0.870563 0.000000
O O3 0.500439 0.000000 0.000000
O O4 0.420505 0.147830 0.249681
O O5 0.549582 0.125758 0.323027
O O6 0.416269 0.000000 0.230918
O O7 0.105788 0.214940 0.500000
O O8 0.131543 0.131543 0.345797
O O9 0.159764 0.286358 0.304056
O O10 0.000000 0.158404 0.334537
O O11 0.140864 0.779286 0.111884
O O12 0.000000 0.677516 0.000000
O O13 0.561318 0.858554 0.704418
O O14 0.870307 0.510932 0.500000
O O15 0.000000 0.573838 0.634157
#
# Coordination Sequence:
#
# PCOD9586598 Si02
#       6
#     6  12  12   6  12  12
#     4   9  17  36  60  77 101 145 189 227 272 336
#     4  10  21  38  58  81 113 151 190 235 291 349
#     4  10  21  38  61  89 123 161 202 251 308 371
#     4  11  21  36  61  87 114 149 196 247 295 348
#     4  12  22  36  60  91 118 152 200 254 297 356
#     4  10  21  38  59  81 111 153 195 237 291 351
#
# _framework density 17.819452999999999
#
# number of rings (size 3 to 8) (size 9 to 14) (size 15 to 20)
#    0.000    1.600    2.000    3.800    0.000    4.000 
#    1.200    3.500    0.000    0.000    0.000    1.400 
#    0.000    0.000    0.000    0.000    0.000    0.000 
#
# Total GULP energy -335129.882753 kJ/mol
# GULP energy per Si atom -5585.498046 kJ/mol
# Density = 1.777889 g / cm^3
# Si number density = 17.819453 Si / 1000 Ang^3
#
#
#
# Elastic Constant Matrix: (Units=GPa)
#
#
# Indices 1 2 3 4 5 6 
#
# 1 65.1201 24.8095 33.2954 0.0000 0.0000 0.0000
# 2 24.8095 65.1201 33.2954 0.0000 0.0000 0.0000
# 3 33.2954 33.2954 89.9820 0.0000 0.0000 0.0000
# 4 0.0000 0.0000 0.0000 14.6222 0.0000 0.0000
# 5 0.0000 0.0000 0.0000 0.0000 14.6222 0.0000
# 6 0.0000 0.0000 0.0000 0.0000 0.0000 20.1553
#
#
#
# Elastic Compliance Matrix: (Units=1/GPa)
#
#
# Indices 1 2 3 4 5 6 
#
# 1 0.020062 -0.004745 -0.005667 0.000000 0.000000 0.000000
# 2 -0.004745 0.020062 -0.005667 0.000000 0.000000 0.000000
# 3 -0.005667 -0.005667 0.015307 0.000000 0.000000 0.000000
# 4 0.000000 0.000000 0.000000 0.068389 0.000000 0.000000
# 5 0.000000 0.000000 0.000000 0.000000 0.068389 0.000000
# 6 0.000000 0.000000 0.000000 0.000000 0.000000 0.049615
#
#
# Mechanical properties :
#
#
# Convention : Reuss Voigt Hill
#
# Bulk Modulus (GPa) = 42.97264 44.78030 43.87647
# Shear Modulus (GPa) = 17.74674 18.46807 18.10741
#
# Velocity S-wave (km/s) = 3.15924 3.22281 3.19118
# Velocity P-wave (km/s) = 6.12174 6.24766 6.18502
#
# Compressibility (1/GPa) = 0.02327062
#
# Stress axis : x y z
#
# Youngs Moduli (GPa) = 49.84580 49.84580 65.32758
#
# Poissons Ratio (x) = 0.23654 0.37024
# Poissons Ratio (y) = 0.23654 0.37024
# Poissons Ratio (z) = 0.28250 0.28250
#
# Static dielectric constant tensor:
#      x y z
#    x 1.582350 0.000000 0.000000 
#    y 0.000000 1.582350 0.000000 
#    z 0.000000 0.000000 1.601610 
# 
# From -- ./inp_files/1937.got.cif
#   From: 2010.05.17/outbox.ucp.g08.bks.cvg/sg189_1_cif.got.tgz:1937.got - 2010.06.11 15:22:13.
