data_PCOD9586176
_publ_section_title
;
Structure prediction by ZEFSAII (Michael W. Deem and Ramdas Pophale) SiO2 
 PCOD9586176
Probable space group: P -6 2 M
;
_chemical_formula_sum "Si O2"
_cell_formula_units_Z 48
_cell_length_a 18.242805
_cell_length_b 18.242805
_cell_length_c 8.672816
_cell_angle_alpha 90.000000
_cell_angle_beta 90.000000
_cell_angle_gamma 120.000000
_cell_volume 2499.620030
_symmetry_space_group_name_H-M "P -6 2 M"
_symmetry_group_IT_number 189
_symmetry_cell_setting 'hexagonal'
loop_
_space_group_symop_operation_xyz
x,y,z
-x+y,-x,-z
-y,x-y,z
x,y,-z
-x+y,-x,z
-y,x-y,-z
x-y,-y,-z
-x,-x+y,-z
y,x,-z
y,x,z
x-y,-y,z
-x,-x+y,z
loop_
_atom_site_type_symbol
_atom_site_label
_atom_site_fract_x
_atom_site_fract_y
_atom_site_fract_z
Si Si1 0.211640 0.211640 0.818212
Si Si2 0.547686 0.381174 0.319356
Si Si3 0.717280 0.517603 0.815852
Si Si4 0.367203 0.367203 0.677210
Si Si5 0.811523 0.713700 0.811416
O O1 0.298893 0.298893 0.791050
O O2 0.230484 0.139418 0.756863
O O3 0.195009 0.195009 0.000000
O O4 0.564796 0.378392 0.500000
O O5 0.622628 0.466452 0.248199
O O6 0.534857 0.296667 0.238650
O O7 0.458183 0.376576 0.301691
O O8 0.769734 0.615555 0.761656
O O9 0.715572 0.518873 0.000000
O O10 0.339230 0.339230 0.500000
O O11 0.755204 0.755204 0.765133
O O12 0.813139 0.713060 0.000000
#
# Coordination Sequence:
#
# PCOD9586176 Si02
#       5
#     6  12  12   6  12
#     4  10  18  36  64  86 113 150 192 239 288 347
#     4  11  23  39  57  81 115 151 190 235 284 340
#     4  11  22  37  59  84 115 152 194 238 283 337
#     4  10  22  38  58  82 111 148 192 237 282 341
#     4   9  19  35  56  87 120 148 184 236 292 343
#
# _framework density 19.202919000000001
#
# number of rings (size 3 to 8) (size 9 to 14) (size 15 to 20)
#    0.000    1.750    2.500    2.000    1.750    1.000 
#    0.750    0.000    0.000    3.750    0.000    0.000 
#    0.000    0.000    0.000    0.000    0.000    0.000 
#
# Total GULP energy -267950.502158 kJ/mol
# GULP energy per Si atom -5582.302128 kJ/mol
# Density = 1.915921 g / cm^3
# Si number density = 19.202919 Si / 1000 Ang^3
#
#
#
# Elastic Constant Matrix: (Units=GPa)
#
#
# Indices 1 2 3 4 5 6 
#
# 1 75.6113 50.4641 12.4560 0.0000 0.0000 0.0000
# 2 50.4641 75.6113 12.4560 0.0000 0.0000 0.0000
# 3 12.4560 12.4560 28.4947 0.0000 0.0000 0.0000
# 4 0.0000 0.0000 0.0000 13.0960 0.0000 0.0000
# 5 0.0000 0.0000 0.0000 0.0000 13.0960 0.0000
# 6 0.0000 0.0000 0.0000 0.0000 0.0000 12.5736
#
#
#
# Elastic Compliance Matrix: (Units=1/GPa)
#
#
# Indices 1 2 3 4 5 6 
#
# 1 0.024224 -0.015542 -0.003795 0.000000 0.000000 0.000000
# 2 -0.015542 0.024224 -0.003795 0.000000 0.000000 0.000000
# 3 -0.003795 -0.003795 0.038412 0.000000 0.000000 0.000000
# 4 0.000000 0.000000 0.000000 0.076359 0.000000 0.000000
# 5 0.000000 0.000000 0.000000 0.000000 0.076359 0.000000
# 6 0.000000 0.000000 0.000000 0.000000 0.000000 0.079532
#
#
# Mechanical properties :
#
#
# Convention : Reuss Voigt Hill
#
# Bulk Modulus (GPa) = 24.63342 36.71886 30.67614
# Shear Modulus (GPa) = 13.19589 14.70920 13.95255
#
# Velocity S-wave (km/s) = 2.62426 2.77065 2.69845
# Velocity P-wave (km/s) = 4.69448 5.42202 5.07131
#
# Compressibility (1/GPa) = 0.04059525
#
# Stress axis : x y z
#
# Youngs Moduli (GPa) = 41.28186 41.28186 26.03340
#
# Poissons Ratio (x) = 0.64161 0.09880
# Poissons Ratio (y) = 0.64161 0.09880
# Poissons Ratio (z) = 0.15667 0.15667
#
# Static dielectric constant tensor:
#      x y z
#    x 1.679410 0.000000 0.000000 
#    y 0.000000 1.679410 0.000000 
#    z 0.000000 0.000000 1.657570 
# 
# From -- ./inp_files/636.got.cif
#   From: 2010.05.17/outbox.cif.g08.bks.cpg/sg189_1_cif.got.tgz:636.got - 2010.05.20 12:14:34.
