data_PCOD9586653
_publ_section_title
;
Structure prediction by ZEFSAII (Michael W. Deem and Ramdas Pophale) SiO2 
 PCOD9586653
Probable space group: P -6 2 C
;
_chemical_formula_sum "Si O2"
_cell_formula_units_Z 72
_cell_length_a 23.802554
_cell_length_b 23.802554
_cell_length_c 7.691345
_cell_angle_alpha 90.000000
_cell_angle_beta 90.000000
_cell_angle_gamma 120.000000
_cell_volume 3773.810098
_symmetry_space_group_name_H-M "P -6 2 C"
_symmetry_group_IT_number 190
_symmetry_cell_setting 'hexagonal'
loop_
_space_group_symop_operation_xyz
x,y,z
-x+y,-x,1/2-z
-y,x-y,z
x,y,1/2-z
-x+y,-x,z
-y,x-y,1/2-z
x-y,-y,-z
-x,-x+y,-z
y,x,-z
y,x,1/2+z
x-y,-y,1/2+z
-x,-x+y,1/2+z
loop_
_atom_site_type_symbol
_atom_site_label
_atom_site_fract_x
_atom_site_fract_y
_atom_site_fract_z
Si Si1 0.804416 0.071169 0.040517
Si Si2 0.347224 0.923408 0.541161
Si Si3 0.205172 0.818452 0.537434
Si Si4 0.565725 0.185376 0.037729
Si Si5 0.070473 0.140291 0.953915
Si Si6 0.290790 0.527966 0.961663
O O1 0.807399 0.075289 0.250000
O O2 0.808128 0.136629 0.976850
O O3 0.868706 0.072396 0.967972
O O4 0.744432 0.000000 0.000000
O O5 0.345505 0.919468 0.750000
O O6 0.271508 0.883415 0.481838
O O7 0.377994 0.878856 0.480555
O O8 0.387007 0.000000 0.500000
O O9 0.205630 0.820362 0.750000
O O10 0.209875 0.755858 0.484990
O O11 0.564990 0.182989 0.250000
O O12 0.635185 0.197173 0.977619
O O13 0.562711 0.249768 0.988729
O O14 0.076777 0.148125 0.750000
O O15 0.080085 0.080085 0.000000
O O16 0.000000 0.126653 0.000000
O O17 0.292949 0.529196 0.750000
#
# Coordination Sequence:
#
# PCOD9586653 Si02
#       6
#    12  12  12  12  12  12
#     4   9  18  32  47  62  82 109 140 174 211 249
#     4   9  17  29  44  64  91 120 148 179 217 261
#     4   8  15  28  44  61  84 115 147 178 214 255
#     4   8  13  21  37  63  90 113 141 179 220 257
#     4  10  19  30  44  61  81 103 129 163 203 247
#     4   8  12  20  37  61  88 114 140 175 216 253
#
# _framework density 19.078859999999999
#
# number of rings (size 3 to 8) (size 9 to 14) (size 15 to 20)
#    0.000    3.333    0.000    3.000    0.000    2.667 
#    0.000    1.667    0.000    0.000    0.000    4.667 
#    0.000    0.000    0.000    0.000    0.000    0.000 
#
# Total GULP energy -400817.138772 kJ/mol
# GULP energy per Si atom -5566.904705 kJ/mol
# Density = 1.903544 g / cm^3
# Si number density = 19.078860 Si / 1000 Ang^3
#
#
#
# Elastic Constant Matrix: (Units=GPa)
#
#
# Indices 1 2 3 4 5 6 
#
# 1 149.2951 104.3826 4.8758 0.0000 0.0000 0.0000
# 2 104.3826 149.2951 4.8758 0.0000 0.0000 0.0000
# 3 4.8758 4.8758 30.8096 0.0000 0.0000 0.0000
# 4 0.0000 0.0000 0.0000 26.0033 0.0000 0.0000
# 5 0.0000 0.0000 0.0000 0.0000 26.0033 0.0000
# 6 0.0000 0.0000 0.0000 0.0000 0.0000 22.4563
#
#
#
# Elastic Compliance Matrix: (Units=1/GPa)
#
#
# Indices 1 2 3 4 5 6 
#
# 1 0.013116 -0.009150 -0.000628 0.000000 0.000000 0.000000
# 2 -0.009150 0.013116 -0.000628 0.000000 0.000000 0.000000
# 3 -0.000628 -0.000628 0.032656 0.000000 0.000000 0.000000
# 4 0.000000 0.000000 0.000000 0.038457 0.000000 0.000000
# 5 0.000000 0.000000 0.000000 0.000000 0.038457 0.000000
# 6 0.000000 0.000000 0.000000 0.000000 0.000000 0.044531
#
#
# Mechanical properties :
#
#
# Convention : Reuss Voigt Hill
#
# Bulk Modulus (GPa) = 26.26207 61.96314 44.11260
# Shear Modulus (GPa) = 23.38257 29.24364 26.31310
#
# Velocity S-wave (km/s) = 3.50462 3.91932 3.71775
# Velocity P-wave (km/s) = 5.49285 7.28212 6.44983
#
# Compressibility (1/GPa) = 0.03807773
#
# Stress axis : x y z
#
# Youngs Moduli (GPa) = 76.24384 76.24384 30.62213
#
# Poissons Ratio (x) = 0.69761 0.01922
# Poissons Ratio (y) = 0.69761 0.01922
# Poissons Ratio (z) = 0.04786 0.04786
#
# Static dielectric constant tensor:
#      x y z
#    x 1.672390 0.000000 0.000000 
#    y 0.000000 1.672390 0.000000 
#    z 0.000000 0.000000 1.722850 
# 
# From -- ./inp_files/1205.got.cif
#   From: 2010.05.17/outbox.cif.g08.bks.cpg/sg190_1_cif.got.tgz:1205.got - 2010.05.20 12:16:56.
