data_PCOD9586414
_publ_section_title
;
Structure prediction by ZEFSAII (Michael W. Deem and Ramdas Pophale) SiO2 
 PCOD9586414
Probable space group: P -6 2 M
;
_chemical_formula_sum "Si O2"
_cell_formula_units_Z 76
_cell_length_a 18.013251
_cell_length_b 18.013251
_cell_length_c 14.480838
_cell_angle_alpha 90.000000
_cell_angle_beta 90.000000
_cell_angle_gamma 120.000000
_cell_volume 4069.195241
_symmetry_space_group_name_H-M "P -6 2 M"
_symmetry_group_IT_number 189
_symmetry_cell_setting 'hexagonal'
loop_
_space_group_symop_operation_xyz
x,y,z
-x+y,-x,-z
-y,x-y,z
x,y,-z
-x+y,-x,z
-y,x-y,-z
x-y,-y,-z
-x,-x+y,-z
y,x,-z
y,x,z
x-y,-y,z
-x,-x+y,z
loop_
_atom_site_type_symbol
_atom_site_label
_atom_site_fract_x
_atom_site_fract_y
_atom_site_fract_z
Si Si1 0.376300 0.163183 0.391567
Si Si2 0.305489 0.818066 0.891354
Si Si3 0.811486 0.711098 0.106112
Si Si4 0.633852 0.100295 0.607645
Si Si5 0.666667 0.333335 0.889098
Si Si6 0.099889 0.199385 0.711379
Si Si7 0.100474 0.491153 0.713166
O O1 0.375427 0.142975 0.500000
O O2 0.416580 0.264894 0.380918
O O3 0.280595 0.117978 0.351079
O O4 0.436738 0.137908 0.334938
O O5 0.227626 0.837174 0.879608
O O6 0.292134 0.725307 0.863063
O O7 0.377933 0.882298 0.821862
O O8 0.328386 0.831917 0.000000
O O9 0.736602 0.736602 0.117321
O O10 0.880701 0.765038 0.183432
O O11 0.841530 0.731848 0.000000
O O12 0.614077 0.105592 0.500000
O O13 0.584254 0.135327 0.669143
O O14 0.596672 0.000000 0.629336
O O15 0.666667 0.333334 0.000000
O O16 0.160050 0.160050 0.688216
O O17 0.000000 0.128415 0.703357
O O18 0.000000 0.440064 0.693887
#
# Coordination Sequence:
#
# PCOD9586414 Si02
#       7
#    12  12  12  12   4  12  12
#     4  11  23  40  61  85 115 157 202 245 298 363
#     4  10  20  35  57  84 119 155 193 235 281 342
#     4   9  18  35  59  85 114 152 198 243 290 352
#     4   9  20  39  59  82 114 150 190 239 291 340
#     4   9  21  36  51  81 121 161 193 228 285 342
#     4  11  23  39  60  88 119 154 199 251 307 365
#     4  11  22  36  59  89 117 151 193 240 291 342
#
# _framework density 18.676912000000002
#
# number of rings (size 3 to 8) (size 9 to 14) (size 15 to 20)
#    0.000    1.895    1.579    2.053    2.211    4.105 
#    0.947    0.000    0.000    2.842    0.000   11.053 
#    0.000    0.000    0.000    0.000    0.000    0.000 
#
# Total GULP energy -424001.700099 kJ/mol
# GULP energy per Si atom -5578.969738 kJ/mol
# Density = 1.863440 g / cm^3
# Si number density = 18.676912 Si / 1000 Ang^3
#
#
#
# Elastic Constant Matrix: (Units=GPa)
#
#
# Indices 1 2 3 4 5 6 
#
# 1 52.8653 14.7454 15.9133 0.0000 0.0000 0.0001
# 2 14.7454 52.8660 15.9137 0.0000 0.0000 0.0000
# 3 15.9133 15.9137 64.4610 0.0000 0.0000 0.0001
# 4 0.0000 0.0000 0.0000 24.6182 0.0000 0.0000
# 5 0.0000 0.0000 0.0000 0.0000 24.6180 0.0000
# 6 0.0001 0.0000 0.0001 0.0000 0.0000 19.0600
#
#
#
# Elastic Compliance Matrix: (Units=1/GPa)
#
#
# Indices 1 2 3 4 5 6 
#
# 1 0.021484 -0.004749 -0.004131 0.000000 0.000000 0.000000
# 2 -0.004749 0.021484 -0.004131 0.000000 0.000000 0.000000
# 3 -0.004131 -0.004131 0.017553 0.000000 0.000000 0.000000
# 4 0.000000 0.000000 0.000000 0.040620 0.000000 0.000000
# 5 0.000000 0.000000 0.000000 0.000000 0.040621 0.000000
# 6 0.000000 0.000000 0.000000 0.000000 0.000000 0.052466
#
#
# Mechanical properties :
#
#
# Convention : Reuss Voigt Hill
#
# Bulk Modulus (GPa) = 28.98723 29.25966 29.12344
# Shear Modulus (GPa) = 21.57490 21.90056 21.73773
#
# Velocity S-wave (km/s) = 3.40246 3.42804 3.41527
# Velocity P-wave (km/s) = 5.56684 5.60079 5.58384
#
# Compressibility (1/GPa) = 0.03449795
#
# Stress axis : x y z
#
# Youngs Moduli (GPa) = 46.54588 46.54639 56.96992
#
# Poissons Ratio (x) = 0.22104 0.23537
# Poissons Ratio (y) = 0.22104 0.23537
# Poissons Ratio (z) = 0.19230 0.19231
#
# Static dielectric constant tensor:
#      x y z
#    x 1.639300 0.000000 0.000000 
#    y 0.000000 1.639290 0.000000 
#    z 0.000000 0.000000 1.658160 
# 
# From -- ./inp_files/2737.got.cif
#   From: 2010.05.17/outbox.cif.g08.bks.cpg/sg189_2_cif.got.tgz:2737.got - 2010.05.20 12:14:34.
