data_PCOD9586942
_publ_section_title
;
Structure prediction by ZEFSAII (Michael W. Deem and Ramdas Pophale) SiO2 
 PCOD9586942
Probable space group: P -6 2 C
;
_chemical_formula_sum "Si O2"
_cell_formula_units_Z 64
_cell_length_a 14.379038
_cell_length_b 14.379038
_cell_length_c 17.908332
_cell_angle_alpha 90.000000
_cell_angle_beta 90.000000
_cell_angle_gamma 120.000000
_cell_volume 3206.604751
_symmetry_space_group_name_H-M "P -6 2 C"
_symmetry_group_IT_number 190
_symmetry_cell_setting 'hexagonal'
loop_
_space_group_symop_operation_xyz
x,y,z
-x+y,-x,1/2-z
-y,x-y,z
x,y,1/2-z
-x+y,-x,z
-y,x-y,1/2-z
x-y,-y,-z
-x,-x+y,-z
y,x,-z
y,x,1/2+z
x-y,-y,1/2+z
-x,-x+y,1/2+z
loop_
_atom_site_type_symbol
_atom_site_label
_atom_site_fract_x
_atom_site_fract_y
_atom_site_fract_z
Si Si1 0.467412 0.544186 0.425312
Si Si2 0.875124 0.428866 0.165593
Si Si3 0.000000 0.000000 0.659893
Si Si4 0.578793 0.790813 0.065855
Si Si5 0.006711 0.798133 0.091429
Si Si6 0.799893 0.575929 0.105669
O O1 0.513932 0.513932 0.500000
O O2 0.493214 0.490454 0.356406
O O3 0.340633 0.494186 0.433717
O O4 0.522361 0.669556 0.407850
O O5 0.848810 0.441225 0.250000
O O6 0.813073 0.471007 0.113032
O O7 0.848532 0.307757 0.151697
O O8 0.000000 0.000000 0.750000
O O9 0.004874 0.898084 0.627198
O O10 0.689345 0.875601 0.105053
O O11 0.597134 0.779161 0.978439
O O12 0.912162 0.683683 0.123031
O O13 0.000000 0.798286 0.000000
#
# Coordination Sequence:
#
# PCOD9586942 Si02
#       6
#    12  12   4  12  12  12
#     4  12  22  41  66 100 134 170 223 267 324 395
#     4  12  25  40  63 100 139 173 210 264 340 405
#     4  12  28  44  61  93 130 170 214 267 343 407
#     4  11  21  40  70  99 127 166 222 277 318 379
#     4  10  23  43  68  93 127 168 223 274 319 377
#     4  11  21  41  67  97 132 169 213 275 327 383
#
# _framework density 19.958805000000002
#
# number of rings (size 3 to 8) (size 9 to 14) (size 15 to 20)
#    0.000    0.750    5.625    2.438    2.625    1.500 
#    0.000    0.938    0.000    0.000    0.000    0.000 
#    0.000    0.000    0.000    0.000    0.000    0.000 
#
# Total GULP energy -357135.928948 kJ/mol
# GULP energy per Si atom -5580.248890 kJ/mol
# Density = 1.991338 g / cm^3
# Si number density = 19.958805 Si / 1000 Ang^3
#
#
#
# Elastic Constant Matrix: (Units=GPa)
#
#
# Indices 1 2 3 4 5 6 
#
# 1 93.5506 24.9376 3.5645 0.0000 0.0000 0.0000
# 2 24.9376 93.5506 3.5645 0.0000 0.0000 0.0000
# 3 3.5645 3.5645 31.3171 0.0000 0.0000 0.0000
# 4 0.0000 0.0000 0.0000 10.8424 0.0000 0.0000
# 5 0.0000 0.0000 0.0000 0.0000 10.8424 0.0000
# 6 0.0000 0.0000 0.0000 0.0000 0.0000 34.3065
#
#
#
# Elastic Compliance Matrix: (Units=1/GPa)
#
#
# Indices 1 2 3 4 5 6 
#
# 1 0.011536 -0.003038 -0.000967 0.000000 0.000000 0.000000
# 2 -0.003038 0.011536 -0.000967 0.000000 0.000000 0.000000
# 3 -0.000967 -0.000967 0.032152 0.000000 0.000000 0.000000
# 4 0.000000 0.000000 0.000000 0.092230 0.000000 0.000000
# 5 0.000000 0.000000 0.000000 0.000000 0.092230 0.000000
# 6 0.000000 0.000000 0.000000 0.000000 0.000000 0.029149
#
#
# Mechanical properties :
#
#
# Convention : Reuss Voigt Hill
#
# Bulk Modulus (GPa) = 22.08558 31.39463 26.74011
# Shear Modulus (GPa) = 17.01420 23.62170 20.31795
#
# Velocity S-wave (km/s) = 2.92287 3.44397 3.19406
# Velocity P-wave (km/s) = 4.74136 5.61947 5.19899
#
# Compressibility (1/GPa) = 0.04527840
#
# Stress axis : x y z
#
# Youngs Moduli (GPa) = 86.68382 86.68382 31.10266
#
# Poissons Ratio (x) = 0.26337 0.03008
# Poissons Ratio (y) = 0.26337 0.03008
# Poissons Ratio (z) = 0.08384 0.08384
#
# Static dielectric constant tensor:
#      x y z
#    x 1.714430 0.000000 0.000000 
#    y 0.000000 1.714430 0.000000 
#    z 0.000000 0.000000 1.705120 
# 
# From -- ./inp_files/3649.got.cif
#   From: 2010.05.17/outbox.cif.g08.bks.cpg/sg190_2_cif.got.tgz:3649.got - 2010.05.20 12:16:56.
