data_PCOD9586571
_publ_section_title
;
Structure prediction by ZEFSAII (Michael W. Deem and Ramdas Pophale) SiO2 
 PCOD9586571
Probable space group: P -6 2 M
;
_chemical_formula_sum "Si O2"
_cell_formula_units_Z 48
_cell_length_a 14.433467
_cell_length_b 14.433467
_cell_length_c 13.700314
_cell_angle_alpha 90.000000
_cell_angle_beta 90.000000
_cell_angle_gamma 120.000000
_cell_volume 2471.738259
_symmetry_space_group_name_H-M "P -6 2 M"
_symmetry_group_IT_number 189
_symmetry_cell_setting 'hexagonal'
loop_
_space_group_symop_operation_xyz
x,y,z
-x+y,-x,-z
-y,x-y,z
x,y,-z
-x+y,-x,z
-y,x-y,-z
x-y,-y,-z
-x,-x+y,-z
y,x,-z
y,x,z
x-y,-y,z
-x,-x+y,z
loop_
_atom_site_type_symbol
_atom_site_label
_atom_site_fract_x
_atom_site_fract_y
_atom_site_fract_z
Si Si1 0.535407 0.122943 0.612137
Si Si2 0.661685 0.785680 0.110786
Si Si3 0.876734 0.438790 0.889978
Si Si4 0.267824 0.466235 0.734197
O O1 0.549610 0.159248 0.500000
O O2 0.501352 0.191846 0.679503
O O3 0.644066 0.130725 0.652462
O O4 0.443949 0.000000 0.617781
O O5 0.751892 0.751892 0.124288
O O6 0.548105 0.673396 0.111655
O O7 0.643542 0.842616 0.204308
O O8 0.674239 0.830911 0.000000
O O9 0.799927 0.454706 0.818532
O O10 0.000000 0.526390 0.865518
O O11 0.853647 0.456789 0.000000
#
# Coordination Sequence:
#
# PCOD9586571 Si02
#       4
#    12  12  12  12
#     4  11  25  40  51  71 103 137 185 250 297 328
#     4   9  18  31  46  70 103 133 165 211 263 318
#     4   9  18  31  46  70 103 133 165 211 263 318
#     4  12  19  32  52  70  89 134 182 215 271 328
#
# _framework density 19.419530000000002
#
# number of rings (size 3 to 8) (size 9 to 14) (size 15 to 20)
#    0.000    1.750    2.500    5.000    0.000    0.000 
#    0.000    0.000    0.000    0.000    0.000    0.000 
#    0.000    0.000    0.000   48.000    0.000  360.000 
#
# Total GULP energy -267460.675432 kJ/mol
# GULP energy per Si atom -5572.097405 kJ/mol
# Density = 1.937533 g / cm^3
# Si number density = 19.419530 Si / 1000 Ang^3
#
#
#
# Elastic Constant Matrix: (Units=GPa)
#
#
# Indices 1 2 3 4 5 6 
#
# 1 37.0744 3.1349 21.7099 0.0000 0.0000 0.0000
# 2 3.1349 37.0744 21.7099 0.0000 0.0000 0.0000
# 3 21.7099 21.7099 137.2622 0.0000 0.0000 0.0000
# 4 0.0000 0.0000 0.0000 27.0324 0.0000 0.0000
# 5 0.0000 0.0000 0.0000 0.0000 27.0324 0.0000
# 6 0.0000 0.0000 0.0000 0.0000 0.0000 16.9698
#
#
#
# Elastic Compliance Matrix: (Units=1/GPa)
#
#
# Indices 1 2 3 4 5 6 
#
# 1 0.029728 0.000264 -0.004744 0.000000 0.000000 0.000000
# 2 0.000264 0.029728 -0.004744 0.000000 0.000000 0.000000
# 3 -0.004744 -0.004744 0.008786 0.000000 0.000000 0.000000
# 4 0.000000 0.000000 0.000000 0.036993 0.000000 0.000000
# 5 0.000000 0.000000 0.000000 0.000000 0.036993 0.000000
# 6 0.000000 0.000000 0.000000 0.000000 0.000000 0.058928
#
#
# Mechanical properties :
#
#
# Convention : Reuss Voigt Hill
#
# Bulk Modulus (GPa) = 20.08203 33.83559 26.95881
# Shear Modulus (GPa) = 21.16838 25.19733 23.18285
#
# Velocity S-wave (km/s) = 3.30518 3.60603 3.45888
# Velocity P-wave (km/s) = 4.99292 5.89909 5.46482
#
# Compressibility (1/GPa) = 0.04979576
#
# Stress axis : x y z
#
# Youngs Moduli (GPa) = 33.63803 33.63803 113.81892
#
# Poissons Ratio (x) = -0.00888 0.53992
# Poissons Ratio (y) = -0.00888 0.53992
# Poissons Ratio (z) = 0.15957 0.15957
#
# Static dielectric constant tensor:
#      x y z
#    x 1.717720 0.000000 0.000000 
#    y 0.000000 1.717720 0.000000 
#    z 0.000000 0.000000 1.760330 
# 
# From -- ./inp_files/2386.got.cif
#   From: 2010.05.17/outbox.cif.g08.bks.cpg/sg189_2_cif.got.tgz:2386.got - 2010.05.20 12:14:34.
