data_PCOD9586907
_publ_section_title
;
Structure prediction by ZEFSAII (Michael W. Deem and Ramdas Pophale) SiO2 
 PCOD9586907
Probable space group: P -6 2 C
;
_chemical_formula_sum "Si O2"
_cell_formula_units_Z 54
_cell_length_a 16.031556
_cell_length_b 16.031556
_cell_length_c 11.290089
_cell_angle_alpha 90.000000
_cell_angle_beta 90.000000
_cell_angle_gamma 120.000000
_cell_volume 2512.923976
_symmetry_space_group_name_H-M "P -6 2 C"
_symmetry_group_IT_number 190
_symmetry_cell_setting 'hexagonal'
loop_
_space_group_symop_operation_xyz
x,y,z
-x+y,-x,1/2-z
-y,x-y,z
x,y,1/2-z
-x+y,-x,z
-y,x-y,1/2-z
x-y,-y,-z
-x,-x+y,-z
y,x,-z
y,x,1/2+z
x-y,-y,1/2+z
-x,-x+y,1/2+z
loop_
_atom_site_type_symbol
_atom_site_label
_atom_site_fract_x
_atom_site_fract_y
_atom_site_fract_z
Si Si1 0.607336 0.117274 0.120304
Si Si2 0.456776 0.232201 0.537404
Si Si3 0.444485 0.670999 0.250000
Si Si4 0.329310 0.940314 0.614802
Si Si5 0.277734 0.299538 0.377736
O O1 0.631781 0.164331 0.250000
O O2 0.492627 0.065020 0.111170
O O3 0.645895 0.041048 0.116750
O O4 0.663836 0.194181 0.017717
O O5 0.498504 0.185616 0.629207
O O6 0.413008 0.166715 0.421302
O O7 0.378429 0.244835 0.610272
O O8 0.338673 0.579204 0.250000
O O9 0.318294 0.966771 0.750000
O O10 0.329563 0.000000 0.500000
O O11 0.248617 0.250589 0.250000
O O12 0.241181 0.241181 0.500000
#
# Coordination Sequence:
#
# PCOD9586907 Si02
#       5
#    12  12   6  12  12
#     4   9  19  36  55  76  98 131 177 227 274 321
#     4  11  19  34  52  71 102 133 175 217 270 324
#     4  10  22  30  42  74 100 132 168 220 274 316
#     4  11  24  38  55  75 102 141 177 221 274 331
#     4   9  17  30  52  75  94 127 164 217 265 311
#
# _framework density 21.488910000000001
#
# number of rings (size 3 to 8) (size 9 to 14) (size 15 to 20)
#    0.222    1.778    1.111    4.000    1.556    0.889 
#    3.333    0.000    0.000    0.000    0.000    0.000 
#    0.000    0.000    0.000   18.000    0.000  140.667 
#
# Total GULP energy -300950.806655 kJ/mol
# GULP energy per Si atom -5573.163086 kJ/mol
# Density = 2.144000 g / cm^3
# Si number density = 21.488910 Si / 1000 Ang^3
#
#
#
# Elastic Constant Matrix: (Units=GPa)
#
#
# Indices 1 2 3 4 5 6 
#
# 1 23.2595 7.9667 14.5387 0.0000 0.0000 0.0000
# 2 7.9667 23.2595 14.5387 0.0000 0.0000 0.0000
# 3 14.5387 14.5387 215.6898 0.0000 0.0000 0.0000
# 4 0.0000 0.0000 0.0000 25.4076 0.0000 0.0000
# 5 0.0000 0.0000 0.0000 0.0000 25.4076 0.0000
# 6 0.0000 0.0000 0.0000 0.0000 0.0000 7.6464
#
#
#
# Elastic Compliance Matrix: (Units=1/GPa)
#
#
# Indices 1 2 3 4 5 6 
#
# 1 0.049780 -0.015611 -0.002303 0.000000 0.000000 0.000000
# 2 -0.015611 0.049780 -0.002303 0.000000 0.000000 0.000000
# 3 -0.002303 -0.002303 0.004947 0.000000 0.000000 0.000000
# 4 0.000000 0.000000 0.000000 0.039358 0.000000 0.000000
# 5 0.000000 0.000000 0.000000 0.000000 0.039358 0.000000
# 6 0.000000 0.000000 0.000000 0.000000 0.000000 0.130781
#
#
# Mechanical properties :
#
#
# Convention : Reuss Voigt Hill
#
# Bulk Modulus (GPa) = 15.60738 37.36633 26.48685
# Shear Modulus (GPa) = 13.30513 26.70329 20.00421
#
# Velocity S-wave (km/s) = 2.49100 3.52895 3.05439
# Velocity P-wave (km/s) = 3.94363 5.83362 4.97912
#
# Compressibility (1/GPa) = 0.06407225
#
# Stress axis : x y z
#
# Youngs Moduli (GPa) = 20.08850 20.08850 202.15155
#
# Poissons Ratio (x) = 0.31359 0.46559
# Poissons Ratio (y) = 0.31359 0.46559
# Poissons Ratio (z) = 0.04627 0.04627
#
# Static dielectric constant tensor:
#      x y z
#    x 1.805960 0.000000 0.000000 
#    y 0.000000 1.805960 0.000000 
#    z 0.000000 0.000000 1.870810 
# 
# From -- ./inp_files/1930.got.cif
#   From: 2010.05.17/outbox.cif.g08.bks.cpg/sg190_1_cif.got.tgz:1930.got - 2010.05.20 12:16:56.
