data_PCOD9586476
_publ_section_title
;
Structure prediction by ZEFSAII (Michael W. Deem and Ramdas Pophale) SiO2 
 PCOD9586476
Probable space group: P -6 2 M
;
_chemical_formula_sum "Si O2"
_cell_formula_units_Z 72
_cell_length_a 23.762505
_cell_length_b 23.762505
_cell_length_c 7.857670
_cell_angle_alpha 90.000000
_cell_angle_beta 90.000000
_cell_angle_gamma 120.000000
_cell_volume 3842.455618
_symmetry_space_group_name_H-M "P -6 2 M"
_symmetry_group_IT_number 189
_symmetry_cell_setting 'hexagonal'
loop_
_space_group_symop_operation_xyz
x,y,z
-x+y,-x,-z
-y,x-y,z
x,y,-z
-x+y,-x,z
-y,x-y,-z
x-y,-y,-z
-x,-x+y,-z
y,x,-z
y,x,z
x-y,-y,z
-x,-x+y,z
loop_
_atom_site_type_symbol
_atom_site_label
_atom_site_fract_x
_atom_site_fract_y
_atom_site_fract_z
Si Si1 0.423624 0.349253 0.297895
Si Si2 0.527411 0.237180 0.207822
Si Si3 0.433363 0.813533 0.205007
Si Si4 0.386343 0.205621 0.794321
Si Si5 0.855876 0.928748 0.295683
Si Si6 0.199612 0.928726 0.199054
O O1 0.421762 0.352386 0.500000
O O2 0.388215 0.388215 0.228655
O O3 0.499646 0.378398 0.250046
O O4 0.388225 0.272678 0.250990
O O5 0.561423 0.196960 0.267038
O O6 0.562779 0.312798 0.259934
O O7 0.453555 0.210455 0.261517
O O8 0.528251 0.236525 0.000000
O O9 0.431670 0.812362 0.000000
O O10 0.328199 0.137901 0.726527
O O11 0.384494 0.203679 0.000000
O O12 0.845249 0.924898 0.500000
O O13 0.914475 0.914475 0.265796
O O14 0.793158 0.870584 0.211765
O O15 0.875130 0.000000 0.236383
O O16 0.250270 0.000000 0.273388
O O17 0.216752 0.930620 0.000000
#
# Coordination Sequence:
#
# PCOD9586476 Si02
#       6
#    12  12  12  12  12  12
#     4  10  21  35  49  68  98 133 167 205 245 283
#     4   8  14  26  47  74  97 118 148 187 228 272
#     4   9  16  29  51  76 101 126 155 193 239 290
#     4   9  18  33  52  72  95 125 161 198 237 284
#     4   9  17  29  45  64  86 113 146 185 229 277
#     4   9  18  32  48  67  93 122 151 188 234 280
#
# _framework density 18.738016999999999
#
# number of rings (size 3 to 8) (size 9 to 14) (size 15 to 20)
#    0.000    3.000    0.000    2.000    0.000    5.000 
#    0.000    7.500    0.000    4.000    0.000    2.333 
#    0.000    0.000    0.000    0.000    0.000    0.000 
#
# Total GULP energy -400896.121323 kJ/mol
# GULP energy per Si atom -5568.001685 kJ/mol
# Density = 1.869537 g / cm^3
# Si number density = 18.738017 Si / 1000 Ang^3
#
#
#
# Elastic Constant Matrix: (Units=GPa)
#
#
# Indices 1 2 3 4 5 6 
#
# 1 133.8202 97.7456 8.7909 0.0000 0.0000 0.0000
# 2 97.7456 133.8202 8.7909 0.0000 0.0000 0.0000
# 3 8.7909 8.7909 22.2930 0.0000 0.0000 0.0000
# 4 0.0000 0.0000 0.0000 -303.7858 0.0000 0.0000
# 5 0.0000 0.0000 0.0000 0.0000 -303.7858 0.0000
# 6 0.0000 0.0000 0.0000 0.0000 0.0000 18.0373
#
#
#
# Elastic Compliance Matrix: (Units=1/GPa)
#
#
# Indices 1 2 3 4 5 6 
#
# 1 0.016086 -0.011634 -0.001755 0.000000 0.000000 0.000000
# 2 -0.011634 0.016086 -0.001755 0.000000 0.000000 0.000000
# 3 -0.001755 -0.001755 0.046242 0.000000 0.000000 0.000000
# 4 0.000000 0.000000 0.000000 -0.003292 0.000000 0.000000
# 5 0.000000 0.000000 0.000000 0.000000 -0.003292 0.000000
# 6 0.000000 0.000000 0.000000 0.000000 0.000000 0.055441
#
#
# Mechanical properties :
#
#
# Convention : Reuss Voigt Hill
#
# Bulk Modulus (GPa) = 20.77997 57.84314 39.31155
# Shear Modulus (GPa) = 28.80143 -106.26648 -38.73253
#
# Velocity S-wave (km/s) = 3.92479 -7.53889 -4.55142
# Velocity P-wave (km/s) = 5.62605 6.69652 2.56816
#
# Compressibility (1/GPa) = 0.04812326
#
# Stress axis : x y z
#
# Youngs Moduli (GPa) = 62.16573 62.16573 21.62550
#
# Poissons Ratio (x) = 0.72326 0.03796
# Poissons Ratio (y) = 0.72326 0.03796
# Poissons Ratio (z) = 0.10913 0.10913
#
# Static dielectric constant tensor:
#      x y z
#    x 1.661610 0.000000 0.000000 
#    y 0.000000 1.661610 0.000000 
#    z 0.000000 0.000000 1.689760 
# 
# From -- ./inp_files/1280.got.cif
#   From: 2010.05.17/outbox.cif.g08.bks.cpg/sg189_1_cif.got.tgz:1280.got - 2010.05.20 12:14:34.
