data_PCOD9586608
_publ_section_title
;
Structure prediction by ZEFSAII (Michael W. Deem and Ramdas Pophale) SiO2 
 PCOD9586608
Probable space group: P -6 2 C
;
_chemical_formula_sum "Si O2"
_cell_formula_units_Z 48
_cell_length_a 13.441694
_cell_length_b 13.441694
_cell_length_c 12.179642
_cell_angle_alpha 90.000000
_cell_angle_beta 90.000000
_cell_angle_gamma 120.000000
_cell_volume 1905.781750
_symmetry_space_group_name_H-M "P -6 2 C"
_symmetry_group_IT_number 190
_symmetry_cell_setting 'hexagonal'
loop_
_space_group_symop_operation_xyz
x,y,z
-x+y,-x,1/2-z
-y,x-y,z
x,y,1/2-z
-x+y,-x,z
-y,x-y,1/2-z
x-y,-y,-z
-x,-x+y,-z
y,x,-z
y,x,1/2+z
x-y,-y,1/2+z
-x,-x+y,1/2+z
loop_
_atom_site_type_symbol
_atom_site_label
_atom_site_fract_x
_atom_site_fract_y
_atom_site_fract_z
Si Si1 0.940105 0.508247 0.622805
Si Si2 0.245897 0.831514 0.077169
Si Si3 0.965308 0.818300 0.876492
Si Si4 0.420180 0.275712 0.129964
O O1 0.973961 0.542751 0.750000
O O2 0.898043 0.374830 0.614801
O O3 0.830633 0.528638 0.613351
O O4 0.069839 0.597794 0.575118
O O5 0.166980 0.885291 0.111320
O O6 0.243104 0.815540 0.946651
O O7 0.976684 0.865581 0.750000
O O8 0.047697 0.762787 0.871516
O O9 0.000000 0.876813 0.000000
O O10 0.462871 0.272667 0.250000
#
# Coordination Sequence:
#
# PCOD9586608 Si02
#       4
#    12  12  12  12
#     4  10  17  25  40  61  79 101 135 181 235 282
#     4  10  17  26  40  58  80 102 134 179 229 285
#     4   8  13  22  36  52  70  96 126 160 207 264
#     4   8  16  29  41  53  77 109 136 168 225 293
#
# _framework density 25.186513000000001
#
# number of rings (size 3 to 8) (size 9 to 14) (size 15 to 20)
#    0.000    3.000    0.000    6.500    0.000    0.000 
#    0.000    1.250    0.000    9.000    0.000    0.000 
#    0.000    0.000    0.000    0.000    0.000    0.000 
#
# Total GULP energy -267210.834615 kJ/mol
# GULP energy per Si atom -5566.892388 kJ/mol
# Density = 2.512919 g / cm^3
# Si number density = 25.186513 Si / 1000 Ang^3
#
#
#
# Elastic Constant Matrix: (Units=GPa)
#
#
# Indices 1 2 3 4 5 6 
#
# 1 86.5000 35.3002 7.4196 0.0000 0.0000 0.0000
# 2 35.3002 86.5000 7.4196 0.0000 0.0000 0.0000
# 3 7.4196 7.4196 102.7272 0.0000 0.0000 0.0000
# 4 0.0000 0.0000 0.0000 87.7386 0.0000 0.0000
# 5 0.0000 0.0000 0.0000 0.0000 87.7386 0.0000
# 6 0.0000 0.0000 0.0000 0.0000 0.0000 25.5999
#
#
#
# Elastic Compliance Matrix: (Units=1/GPa)
#
#
# Indices 1 2 3 4 5 6 
#
# 1 0.013907 -0.005624 -0.000598 0.000000 0.000000 0.000000
# 2 -0.005624 0.013907 -0.000598 0.000000 0.000000 0.000000
# 3 -0.000598 -0.000598 0.009821 0.000000 0.000000 0.000000
# 4 0.000000 0.000000 0.000000 0.011397 0.000000 0.000000
# 5 0.000000 0.000000 0.000000 0.000000 0.011397 0.000000
# 6 0.000000 0.000000 0.000000 0.000000 0.000000 0.039063
#
#
# Mechanical properties :
#
#
# Convention : Reuss Voigt Hill
#
# Bulk Modulus (GPa) = 41.67701 41.77842 41.72772
# Shear Modulus (GPa) = 41.27717 55.25460 48.26588
#
# Velocity S-wave (km/s) = 4.05268 4.68890 4.38235
# Velocity P-wave (km/s) = 6.20340 6.77776 6.49693
#
# Compressibility (1/GPa) = 0.02399404
#
# Stress axis : x y z
#
# Youngs Moduli (GPa) = 71.90519 71.90519 101.82331
#
# Poissons Ratio (x) = 0.40441 0.06092
# Poissons Ratio (y) = 0.40441 0.06092
# Poissons Ratio (z) = 0.04302 0.04302
#
# Static dielectric constant tensor:
#      x y z
#    x 1.920300 0.000000 0.000000 
#    y 0.000000 1.920300 0.000000 
#    z 0.000000 0.000000 2.223370 
# 
# From -- ./inp_files/1796.got.cif
#   From: 2010.05.17/outbox.cif.g08.bks.cpg/sg190_1_cif.got.tgz:1796.got - 2010.05.20 12:16:56.
