data_PCOD9586092
_publ_section_title
;
Structure prediction by ZEFSAII (Michael W. Deem and Ramdas Pophale) SiO2 
 PCOD9586092
Probable space group: P -6 C 2
;
_chemical_formula_sum "Si O2"
_cell_formula_units_Z 64
_cell_length_a 14.940427
_cell_length_b 14.940427
_cell_length_c 14.078134
_cell_angle_alpha 90.000000
_cell_angle_beta 90.000000
_cell_angle_gamma 120.000000
_cell_volume 2721.458688
_symmetry_space_group_name_H-M "P -6 C 2"
_symmetry_group_IT_number 188
_symmetry_cell_setting 'hexagonal'
loop_
_space_group_symop_operation_xyz
x,y,z
-x+y,-x,1/2-z
-y,x-y,z
x,y,1/2-z
-x+y,-x,z
-y,x-y,1/2-z
-y,-x,-z
-x+y,y,-z
x,x-y,-z
-x+y,y,1/2+z
x,x-y,1/2+z
-y,-x,1/2+z
loop_
_atom_site_type_symbol
_atom_site_label
_atom_site_fract_x
_atom_site_fract_y
_atom_site_fract_z
Si Si1 0.666667 0.333333 0.889028
Si Si2 0.389033 0.796439 0.135320
Si Si3 0.599459 0.606158 0.134412
Si Si4 0.061563 0.226901 0.365600
Si Si5 0.830682 0.774184 0.634409
Si Si6 0.770259 0.209670 0.859770
O O1 0.753705 0.306625 0.859365
O O2 0.666668 0.333334 0.000000
O O3 0.269086 0.713750 0.108961
O O4 0.392537 0.800951 0.250000
O O5 0.427325 0.911540 0.101654
O O6 0.592282 0.594918 0.250000
O O7 0.671783 0.727312 0.110602
O O8 0.666449 0.554976 0.099280
O O9 0.064949 0.226736 0.250000
O O10 0.158262 0.218024 0.401664
O O11 0.951723 0.126602 0.390523
O O12 0.824224 0.775778 0.750000
O O13 0.778975 0.655122 0.601512
O O14 0.771949 0.181660 0.750000
#
# Coordination Sequence:
#
# PCOD9586092 Si02
#       6
#     4  12  12  12  12  12
#     4  12  25  41  55  66  85 125 172 216 259 296
#     4   7  11  19  30  49  85 124 151 173 211 270
#     4   8  13  23  38  60  92 126 151 185 232 278
#     4   8  12  18  32  56  93 130 157 179 219 280
#     4   8  13  22  38  66 101 135 157 185 233 288
#     4   9  18  33  51  71  97 122 156 206 253 286
#
# _framework density 23.5168
#
# number of rings (size 3 to 8) (size 9 to 14) (size 15 to 20)
#    0.375    3.375    0.000    3.188    0.000    1.500 
#    3.375    0.000    0.000    0.000    0.000    5.250 
#    0.000    0.000    0.000    0.000    0.000    0.000 
#
# Total GULP energy -356579.003105 kJ/mol
# GULP energy per Si atom -5571.546924 kJ/mol
# Density = 2.346327 g / cm^3
# Si number density = 23.516800 Si / 1000 Ang^3
#
#
#
# Elastic Constant Matrix: (Units=GPa)
#
#
# Indices 1 2 3 4 5 6 
#
# 1 64.1461 5.0120 1.5747 0.0000 -0.0001 -0.0002
# 2 5.0120 64.1451 1.5746 -0.0003 0.0000 -0.0001
# 3 1.5747 1.5746 75.8264 -0.0001 0.0000 0.0000
# 4 0.0000 -0.0003 -0.0001 -7.9914 -0.0002 0.0000
# 5 -0.0001 0.0000 0.0000 -0.0002 -7.9914 -0.0001
# 6 -0.0002 -0.0001 0.0000 0.0000 -0.0001 29.5672
#
#
#
# Elastic Compliance Matrix: (Units=1/GPa)
#
#
# Indices 1 2 3 4 5 6 
#
# 1 0.015692 -0.001219 -0.000301 0.000000 0.000000 0.000000
# 2 -0.001219 0.015692 -0.000301 0.000000 0.000000 0.000000
# 3 -0.000301 -0.000301 0.013201 0.000000 0.000000 0.000000
# 4 0.000000 0.000000 0.000000 -0.125134 0.000002 0.000000
# 5 0.000000 0.000000 0.000000 0.000002 -0.125134 -0.000001
# 6 0.000000 0.000000 0.000000 0.000000 -0.000001 0.033821
#
#
# Mechanical properties :
#
#
# Convention : Reuss Voigt Hill
#
# Bulk Modulus (GPa) = 24.42296 24.49335 24.45816
# Shear Modulus (GPa) = -32.34706 15.78061 -8.28323
#
# Velocity S-wave (km/s) = -3.71278 2.59325 -1.87880
# Velocity P-wave (km/s) = 2.82343 4.40505 2.39088
#
# Compressibility (1/GPa) = 0.04094508
#
# Stress axis : x y z
#
# Youngs Moduli (GPa) = 63.72668 63.72570 75.75469
#
# Poissons Ratio (x) = 0.07766 0.02277
# Poissons Ratio (y) = 0.07767 0.02277
# Poissons Ratio (z) = 0.01915 0.01915
#
# Static dielectric constant tensor:
#      x y z
#    x 1.873380 0.000000 0.000000 
#    y 0.000000 1.873380 0.000000 
#    z 0.000000 0.000000 1.970760 
# 
# From -- ./inp_files/3088.got.cif
#   From: 2010.05.17/outbox.cif.g08.bks.cpg/sg188_2_cif.got.tgz:3088.got - 2010.05.20 12:11:46.
