data_PCOD9586310
_publ_section_title
;
Structure prediction by ZEFSAII (Michael W. Deem and Ramdas Pophale) SiO2 
 PCOD9586310
Probable space group: P -6 2 M
;
_chemical_formula_sum "Si O2"
_cell_formula_units_Z 60
_cell_length_a 17.114420
_cell_length_b 17.114420
_cell_length_c 12.937654
_cell_angle_alpha 90.000000
_cell_angle_beta 90.000000
_cell_angle_gamma 120.000000
_cell_volume 3281.788096
_symmetry_space_group_name_H-M "P -6 2 M"
_symmetry_group_IT_number 189
_symmetry_cell_setting 'hexagonal'
loop_
_space_group_symop_operation_xyz
x,y,z
-x+y,-x,-z
-y,x-y,z
x,y,-z
-x+y,-x,z
-y,x-y,-z
x-y,-y,-z
-x,-x+y,-z
y,x,-z
y,x,z
x-y,-y,z
-x,-x+y,z
loop_
_atom_site_type_symbol
_atom_site_label
_atom_site_fract_x
_atom_site_fract_y
_atom_site_fract_z
Si Si1 0.215071 0.107663 0.000000
Si Si2 0.675468 0.783388 0.802651
Si Si3 0.106922 0.760473 0.620556
Si Si4 0.414233 0.633187 0.500000
Si Si5 0.502360 0.612048 0.883711
Si Si6 0.579317 0.106369 0.316744
O O1 0.276102 0.127838 0.102163
O O2 0.163191 0.163191 0.000000
O O3 0.145577 0.000000 0.000000
O O4 0.729893 0.729893 0.786052
O O5 0.674306 0.834622 0.700137
O O6 0.575380 0.709447 0.839754
O O7 0.131084 0.783280 0.500000
O O8 0.117513 0.674824 0.651930
O O9 0.000000 0.725172 0.631257
O O10 0.304542 0.572284 0.500000
O O11 0.447299 0.607040 0.602115
O O12 0.555802 0.555802 0.889114
O O13 0.424652 0.561538 0.799245
O O14 0.473690 0.617368 0.000000
O O15 0.508199 0.000000 0.325128
#
# Coordination Sequence:
#
# PCOD9586310 Si02
#       6
#     6  12  12   6  12  12
#     4  10  19  34  56  84 118 154 196 240 291 350
#     4  10  20  35  58  85 117 151 189 240 292 346
#     4  10  21  37  57  81 114 150 190 242 289 338
#     4  10  23  34  54  80 108 142 175 228 278 326
#     4   9  18  35  56  79 107 143 182 228 282 332
#     4  10  20  37  59  79 107 146 189 227 276 343
#
# _framework density 18.282715
#
# number of rings (size 3 to 8) (size 9 to 14) (size 15 to 20)
#    0.200    2.000    2.000    1.000    2.800    0.400 
#    1.800    0.000    0.000    0.400    0.000    0.000 
#    0.000    0.000    0.000    0.000    0.000    0.000 
#
# Total GULP energy -334737.777895 kJ/mol
# GULP energy per Si atom -5578.962965 kJ/mol
# Density = 1.824110 g / cm^3
# Si number density = 18.282715 Si / 1000 Ang^3
#
#
#
# Elastic Constant Matrix: (Units=GPa)
#
#
# Indices 1 2 3 4 5 6 
#
# 1 38.8038 17.4986 52.7785 0.0000 0.0000 0.0000
# 2 17.4986 38.8038 52.7785 0.0000 0.0000 0.0000
# 3 52.7785 52.7785 202.2043 0.0000 0.0000 0.0000
# 4 0.0000 0.0000 0.0000 29.6266 0.0000 0.0000
# 5 0.0000 0.0000 0.0000 0.0000 29.6266 0.0000
# 6 0.0000 0.0000 0.0000 0.0000 0.0000 10.6526
#
#
#
# Elastic Compliance Matrix: (Units=1/GPa)
#
#
# Indices 1 2 3 4 5 6 
#
# 1 0.040859 -0.006077 -0.009079 0.000000 0.000000 0.000000
# 2 -0.006077 0.040859 -0.009079 0.000000 0.000000 0.000000
# 3 -0.009079 -0.009079 0.009685 0.000000 0.000000 0.000000
# 4 0.000000 0.000000 0.000000 0.033753 0.000000 0.000000
# 5 0.000000 0.000000 0.000000 0.000000 0.033753 0.000000
# 6 0.000000 0.000000 0.000000 0.000000 0.000000 0.093874
#
#
# Mechanical properties :
#
#
# Convention : Reuss Voigt Hill
#
# Bulk Modulus (GPa) = 23.29138 58.43591 40.86364
# Shear Modulus (GPa) = 15.84459 24.43160 20.13809
#
# Velocity S-wave (km/s) = 2.94707 3.65954 3.32246
# Velocity P-wave (km/s) = 4.93432 7.06315 6.09244
#
# Compressibility (1/GPa) = 0.04293434
#
# Stress axis : x y z
#
# Youngs Moduli (GPa) = 24.47414 24.47414 103.25417
#
# Poissons Ratio (x) = 0.14874 0.93741
# Poissons Ratio (y) = 0.14874 0.93741
# Poissons Ratio (z) = 0.22219 0.22219
#
# Static dielectric constant tensor:
#      x y z
#    x 1.623410 0.000000 0.000000 
#    y 0.000000 1.623410 0.000000 
#    z 0.000000 0.000000 1.626590 
# 
# From -- ./inp_files/1921.got.cif
#   From: 2010.05.17/outbox.cif.g08.bks.cpg/sg189_1_cif.got.tgz:1921.got - 2010.05.20 12:14:34.
