data_PCOD9586052
_publ_section_title
;
Structure prediction by ZEFSAII (Michael W. Deem and Ramdas Pophale) SiO2 
 PCOD9586052
Probable space group: P -6 C 2
;
_chemical_formula_sum "Si O2"
_cell_formula_units_Z 72
_cell_length_a 14.462082
_cell_length_b 14.462082
_cell_length_c 16.870881
_cell_angle_alpha 90.000000
_cell_angle_beta 90.000000
_cell_angle_gamma 120.000000
_cell_volume 3055.835931
_symmetry_space_group_name_H-M "P -6 C 2"
_symmetry_group_IT_number 188
_symmetry_cell_setting 'hexagonal'
loop_
_space_group_symop_operation_xyz
x,y,z
-x+y,-x,1/2-z
-y,x-y,z
x,y,1/2-z
-x+y,-x,z
-y,x-y,1/2-z
-y,-x,-z
-x+y,y,-z
x,x-y,-z
-x+y,y,1/2+z
x,x-y,1/2+z
-y,-x,1/2+z
loop_
_atom_site_type_symbol
_atom_site_label
_atom_site_fract_x
_atom_site_fract_y
_atom_site_fract_z
Si Si1 0.189540 0.750308 0.658648
Si Si2 0.462693 0.587168 0.590051
Si Si3 0.750309 0.560768 0.841352
Si Si4 0.197833 0.973170 0.405763
Si Si5 0.537308 0.412833 0.909949
Si Si6 0.224663 0.197833 0.094237
O O1 0.199648 0.780991 0.750000
O O2 0.290995 0.839343 0.610043
O O3 0.186478 0.638773 0.647053
O O4 0.077656 0.732345 0.624001
O O5 0.422768 0.577233 0.500000
O O6 0.500001 0.500000 0.598832
O O7 0.780992 0.581344 0.750000
O O8 0.638774 0.452296 0.852947
O O9 0.839343 0.548347 0.889957
O O10 0.732345 0.654689 0.876000
O O11 0.082435 0.876497 0.378586
O O12 0.205938 0.082435 0.378587
O O13 0.218118 0.999999 0.500000
O O14 0.577233 0.422768 0.000000
#
# Coordination Sequence:
#
# PCOD9586052 Si02
#       6
#    12  12  12  12  12  12
#     4  12  26  45  70 104 145 186 234 296 364 425
#     4  11  26  44  72  99 137 186 236 291 345 425
#     4  12  26  45  70 104 145 186 234 296 364 425
#     4  10  23  41  71 100 139 184 238 294 354 429
#     4  11  26  44  72  99 137 186 236 291 345 425
#     4  10  23  41  71 100 139 184 238 294 354 429
#
# _framework density 23.561474
#
# number of rings (size 3 to 8) (size 9 to 14) (size 15 to 20)
#    0.000    1.000    0.000    5.000   14.000    8.000 
#    0.000    0.000    0.000    2.000    0.000    0.000 
#    0.000    0.000    0.000    0.000    0.000    0.000 
#
# Total GULP energy -402370.828328 kJ/mol
# GULP energy per Si atom -5588.483727 kJ/mol
# Density = 2.350785 g / cm^3
# Si number density = 23.561474 Si / 1000 Ang^3
#
#
#
# Elastic Constant Matrix: (Units=GPa)
#
#
# Indices 1 2 3 4 5 6 
#
# 1 108.7328 14.7648 49.4465 0.0000 0.0000 0.0000
# 2 14.7648 108.7328 49.4465 0.0000 0.0000 0.0000
# 3 49.4465 49.4465 88.8367 0.0000 0.0000 0.0000
# 4 0.0000 0.0000 0.0000 11.6038 0.0000 0.0000
# 5 0.0000 0.0000 0.0000 0.0000 11.6038 0.0000
# 6 0.0000 0.0000 0.0000 0.0000 0.0000 46.9840
#
#
#
# Elastic Compliance Matrix: (Units=1/GPa)
#
#
# Indices 1 2 3 4 5 6 
#
# 1 0.012625 0.001983 -0.008131 0.000000 0.000000 0.000000
# 2 0.001983 0.012625 -0.008131 0.000000 0.000000 0.000000
# 3 -0.008131 -0.008131 0.020308 0.000000 0.000000 0.000000
# 4 0.000000 0.000000 0.000000 0.086179 0.000000 0.000000
# 5 0.000000 0.000000 0.000000 0.000000 0.086179 0.000000
# 6 0.000000 0.000000 0.000000 0.000000 0.000000 0.021284
#
#
# Mechanical properties :
#
#
# Convention : Reuss Voigt Hill
#
# Bulk Modulus (GPa) = 58.82097 59.29088 59.05593
# Shear Modulus (GPa) = 18.28662 26.88130 22.58396
#
# Velocity S-wave (km/s) = 2.78892 3.38139 3.09934
# Velocity P-wave (km/s) = 5.94894 6.36113 6.15848
#
# Compressibility (1/GPa) = 0.01700074
#
# Stress axis : x y z
#
# Youngs Moduli (GPa) = 79.20692 79.20692 49.24149
#
# Poissons Ratio (x) = -0.15709 0.40038
# Poissons Ratio (y) = -0.15709 0.40038
# Poissons Ratio (z) = 0.64403 0.64403
#
# Static dielectric constant tensor:
#      x y z
#    x 1.908750 0.000000 0.000000 
#    y 0.000000 1.908750 0.000000 
#    z 0.000000 0.000000 1.869870 
# 
# From -- ./inp_files/3200.got.cif
#   From: 2010.05.17/outbox.cif.g08.bks.cpg/sg188_2_cif.got.tgz:3200.got - 2010.05.20 12:11:46.
