data_PCOD9586108
_publ_section_title
;
Structure prediction by ZEFSAII (Michael W. Deem and Ramdas Pophale) SiO2 
 PCOD9586108
Probable space group: P -6 2 M
;
_chemical_formula_sum "Si O2"
_cell_formula_units_Z 54
_cell_length_a 13.910338
_cell_length_b 13.910338
_cell_length_c 20.595473
_cell_angle_alpha 90.000000
_cell_angle_beta 90.000000
_cell_angle_gamma 120.000000
_cell_volume 3451.260714
_symmetry_space_group_name_H-M "P -6 2 M"
_symmetry_group_IT_number 189
_symmetry_cell_setting 'hexagonal'
loop_
_space_group_symop_operation_xyz
x,y,z
-x+y,-x,-z
-y,x-y,z
x,y,-z
-x+y,-x,z
-y,x-y,-z
x-y,-y,-z
-x,-x+y,-z
y,x,-z
y,x,z
x-y,-y,z
-x,-x+y,z
loop_
_atom_site_type_symbol
_atom_site_label
_atom_site_fract_x
_atom_site_fract_y
_atom_site_fract_z
Si Si1 0.673036 0.210068 0.500000
Si Si2 0.671251 0.128392 0.357625
Si Si3 0.129651 0.461931 0.859694
Si Si4 0.458938 0.329653 0.077417
Si Si5 0.333174 0.870345 0.294692
O O1 0.565492 0.227034 0.500000
O O2 0.675044 0.150788 0.434437
O O3 0.787380 0.215108 0.325739
O O4 0.577849 0.152062 0.327012
O O5 0.630225 0.000000 0.344635
O O6 0.151653 0.576425 0.892365
O O7 0.213211 0.427552 0.890607
O O8 0.147601 0.478354 0.782522
O O9 0.000000 0.373854 0.871113
O O10 0.371366 0.371366 0.090544
O O11 0.470577 0.325383 0.000000
O O12 0.375332 0.000000 0.306064
#
# Coordination Sequence:
#
# PCOD9586108 Si02
#       5
#     6  12  12  12  12
#     4  10  17  32  52  70 107 132 160 204 240 284
#     4  11  20  33  52  73 102 135 165 200 247 294
#     4  10  20  33  50  72  99 130 164 202 247 293
#     4  10  20  33  50  73  99 129 164 202 247 298
#     4  10  20  33  50  73 100 131 166 205 244 290
#
# _framework density 15.646456000000001
#
# number of rings (size 3 to 8) (size 9 to 14) (size 15 to 20)
#    0.222    1.556    2.222    3.222    0.000    4.000 
#    0.000    0.556    0.000    0.889    0.000    0.000 
#    0.000    0.000    0.000    0.000    0.000    0.000 
#
# Total GULP energy -301364.119752 kJ/mol
# GULP energy per Si atom -5580.817032 kJ/mol
# Density = 1.561084 g / cm^3
# Si number density = 15.646456 Si / 1000 Ang^3
#
#
#
# Elastic Constant Matrix: (Units=GPa)
#
#
# Indices 1 2 3 4 5 6 
#
# 1 82.1464 50.0013 58.3305 0.0000 0.0000 0.0000
# 2 50.0013 82.1464 58.3305 0.0000 0.0000 0.0000
# 3 58.3305 58.3305 107.0451 0.0000 0.0000 0.0000
# 4 0.0000 0.0000 0.0000 18.8405 0.0000 0.0000
# 5 0.0000 0.0000 0.0000 0.0000 18.8405 0.0000
# 6 0.0000 0.0000 0.0000 0.0000 0.0000 16.0725
#
#
#
# Elastic Compliance Matrix: (Units=1/GPa)
#
#
# Indices 1 2 3 4 5 6 
#
# 1 0.022846 -0.008263 -0.007946 0.000000 0.000000 0.000000
# 2 -0.008263 0.022846 -0.007946 0.000000 0.000000 0.000000
# 3 -0.007946 -0.007946 0.018002 0.000000 0.000000 0.000000
# 4 0.000000 0.000000 0.000000 0.053077 0.000000 0.000000
# 5 0.000000 0.000000 0.000000 0.000000 0.053077 0.000000
# 6 0.000000 0.000000 0.000000 0.000000 0.000000 0.062218
#
#
# Mechanical properties :
#
#
# Convention : Reuss Voigt Hill
#
# Bulk Modulus (GPa) = 65.01183 67.18472 66.09827
# Shear Modulus (GPa) = 17.51292 17.72905 17.62099
#
# Velocity S-wave (km/s) = 3.34921 3.36981 3.35953
# Velocity P-wave (km/s) = 7.52310 7.62714 7.57530
#
# Compressibility (1/GPa) = 0.01538182
#
# Stress axis : x y z
#
# Youngs Moduli (GPa) = 43.77220 43.77220 55.55053
#
# Poissons Ratio (x) = 0.36171 0.44140
# Poissons Ratio (y) = 0.36171 0.44140
# Poissons Ratio (z) = 0.34781 0.34781
#
# Static dielectric constant tensor:
#      x y z
#    x 1.508570 0.000000 0.000000 
#    y 0.000000 1.508570 0.000000 
#    z 0.000000 0.000000 1.516840 
# 
# From -- ./inp_files/2983.got.cif
#   From: 2010.05.17/outbox.cif.g08.bks.cpg/sg189_2_cif.got.tgz:2983.got - 2010.05.20 12:14:34.
