data_PCOD9586361
_publ_section_title
;
Structure prediction by ZEFSAII (Michael W. Deem and Ramdas Pophale) SiO2 
 PCOD9586361
Probable space group: P -6 2 M
;
_chemical_formula_sum "Si O2"
_cell_formula_units_Z 72
_cell_length_a 23.699645
_cell_length_b 23.699645
_cell_length_c 7.677677
_cell_angle_alpha 90.000000
_cell_angle_beta 90.000000
_cell_angle_gamma 120.000000
_cell_volume 3734.600496
_symmetry_space_group_name_H-M "P -6 2 M"
_symmetry_group_IT_number 189
_symmetry_cell_setting 'hexagonal'
loop_
_space_group_symop_operation_xyz
x,y,z
-x+y,-x,-z
-y,x-y,z
x,y,-z
-x+y,-x,z
-y,x-y,-z
x-y,-y,-z
-x,-x+y,-z
y,x,-z
y,x,z
x-y,-y,z
-x,-x+y,z
loop_
_atom_site_type_symbol
_atom_site_label
_atom_site_fract_x
_atom_site_fract_y
_atom_site_fract_z
Si Si1 0.416251 0.341568 0.293236
Si Si2 0.536080 0.239846 0.200389
Si Si3 0.439920 0.817728 0.211509
Si Si4 0.397959 0.205824 0.704216
Si Si5 0.857081 0.929511 0.212108
Si Si6 0.199497 0.927662 0.210935
O O1 0.404658 0.335976 0.500000
O O2 0.379712 0.379712 0.223478
O O3 0.494687 0.377969 0.267411
O O4 0.391622 0.267424 0.227521
O O5 0.565140 0.196056 0.271031
O O6 0.557277 0.311180 0.275218
O O7 0.458565 0.205136 0.207430
O O8 0.558552 0.252533 0.000000
O O9 0.443554 0.819907 0.000000
O O10 0.413788 0.218392 0.500000
O O11 0.335483 0.135707 0.726199
O O12 0.913288 0.913288 0.259668
O O13 0.789542 0.868898 0.269203
O O14 0.874061 0.000000 0.275032
O O15 0.855088 0.929789 0.000000
O O16 0.255749 0.000000 0.265867
O O17 0.200175 0.927155 0.000000
#
# Coordination Sequence:
#
# PCOD9586361 Si02
#       6
#    12  12  12  12  12  12
#     4   9  19  35  51  69  99 135 165 199 244 287
#     4   9  17  31  51  75 102 127 152 189 236 282
#     4   9  17  30  51  77 101 126 157 192 234 286
#     4  10  20  33  50  71  94 125 166 203 236 282
#     4   8  13  22  39  64  91 116 143 180 229 282
#     4   9  18  32  48  67  93 123 155 195 241 282
#
# _framework density 19.279169
#
# number of rings (size 3 to 8) (size 9 to 14) (size 15 to 20)
#    0.000    3.000    0.000    2.000    0.000    4.667 
#    0.000    0.833    0.000    3.000    0.000    0.000 
#    0.000    1.333    0.000    0.000    0.000    0.000 
#
# Total GULP energy -400895.619716 kJ/mol
# GULP energy per Si atom -5567.994718 kJ/mol
# Density = 1.923529 g / cm^3
# Si number density = 19.279169 Si / 1000 Ang^3
#
#
#
# Elastic Constant Matrix: (Units=GPa)
#
#
# Indices 1 2 3 4 5 6 
#
# 1 126.1889 87.3518 -0.3899 0.0000 0.0000 0.0000
# 2 87.3518 126.1889 -0.3899 0.0000 0.0000 0.0000
# 3 -0.3899 -0.3899 34.1742 0.0000 0.0000 0.0000
# 4 0.0000 0.0000 0.0000 7.0581 0.0000 0.0000
# 5 0.0000 0.0000 0.0000 0.0000 7.0581 0.0000
# 6 0.0000 0.0000 0.0000 0.0000 0.0000 19.4185
#
#
#
# Elastic Compliance Matrix: (Units=1/GPa)
#
#
# Indices 1 2 3 4 5 6 
#
# 1 0.015216 -0.010533 0.000053 0.000000 0.000000 0.000000
# 2 -0.010533 0.015216 0.000053 0.000000 0.000000 0.000000
# 3 0.000053 0.000053 0.029263 0.000000 0.000000 0.000000
# 4 0.000000 0.000000 0.000000 0.141682 0.000000 0.000000
# 5 0.000000 0.000000 0.000000 0.000000 0.141682 0.000000
# 6 0.000000 0.000000 0.000000 0.000000 0.000000 0.051497
#
#
# Mechanical properties :
#
#
# Convention : Reuss Voigt Hill
#
# Bulk Modulus (GPa) = 25.74463 51.07733 38.41098
# Shear Modulus (GPa) = 11.67256 20.03893 15.85575
#
# Velocity S-wave (km/s) = 2.46326 3.22748 2.87091
# Velocity P-wave (km/s) = 4.63387 6.35924 5.56384
#
# Compressibility (1/GPa) = 0.03884306
#
# Stress axis : x y z
#
# Youngs Moduli (GPa) = 65.72084 65.72084 34.17280
#
# Poissons Ratio (x) = 0.69222 -0.00183
# Poissons Ratio (y) = 0.69222 -0.00183
# Poissons Ratio (z) = -0.00351 -0.00351
#
# Static dielectric constant tensor:
#      x y z
#    x 1.678130 0.000000 0.000000 
#    y 0.000000 1.678130 0.000000 
#    z 0.000000 0.000000 1.747870 
# 
# From -- ./inp_files/1281.got.cif
#   From: 2010.05.17/outbox.cif.g08.bks.cpg/sg189_1_cif.got.tgz:1281.got - 2010.05.20 12:14:34.
