data_PCOD9586314
_publ_section_title
;
Structure prediction by ZEFSAII (Michael W. Deem and Ramdas Pophale) SiO2 
 PCOD9586314
Probable space group: P -6 2 M
;
_chemical_formula_sum "Si O2"
_cell_formula_units_Z 48
_cell_length_a 18.524129
_cell_length_b 18.524129
_cell_length_c 7.576605
_cell_angle_alpha 90.000000
_cell_angle_beta 90.000000
_cell_angle_gamma 120.000000
_cell_volume 2251.546245
_symmetry_space_group_name_H-M "P -6 2 M"
_symmetry_group_IT_number 189
_symmetry_cell_setting 'hexagonal'
loop_
_space_group_symop_operation_xyz
x,y,z
-x+y,-x,-z
-y,x-y,z
x,y,-z
-x+y,-x,z
-y,x-y,-z
x-y,-y,-z
-x,-x+y,-z
y,x,-z
y,x,z
x-y,-y,z
-x,-x+y,z
loop_
_atom_site_type_symbol
_atom_site_label
_atom_site_fract_x
_atom_site_fract_y
_atom_site_fract_z
Si Si1 0.833970 0.385496 0.705241
Si Si2 0.187537 0.282306 0.710392
Si Si3 0.800452 0.526207 0.283301
Si Si4 0.219798 0.000000 0.790070
Si Si5 0.000000 0.384682 0.787278
O O1 0.810739 0.382499 0.500000
O O2 0.768218 0.295186 0.779804
O O3 0.840524 0.470291 0.773287
O O4 0.920172 0.387179 0.721422
O O5 0.200179 0.289686 0.500000
O O6 0.236260 0.236260 0.779975
O O7 0.225942 0.377607 0.778055
O O8 0.088116 0.228909 0.738638
O O9 0.800008 0.530757 0.500000
O O10 0.302327 0.000000 0.721914
O O11 0.223165 0.000000 0.000000
O O12 0.000000 0.384038 0.000000
#
# Coordination Sequence:
#
# PCOD9586314 Si02
#       5
#    12  12  12   6   6
#     4  10  19  34  58  84 113 150 191 236 284 335
#     4  10  21  38  61  90 119 146 186 241 300 353
#     4   9  18  32  56  88 116 146 189 236 281 334
#     4  11  23  41  63  83 112 153 200 241 287 352
#     4  11  23  37  53  81 114 151 198 237 275 336
#
# _framework density 21.318684000000001
#
# number of rings (size 3 to 8) (size 9 to 14) (size 15 to 20)
#    0.000    2.000    2.500    1.250    1.750    3.500 
#    0.750    2.500    0.000    0.000    0.000    0.000 
#    0.000    0.000    0.000    0.000    0.000    0.000 
#
# Total GULP energy -267871.881574 kJ/mol
# GULP energy per Si atom -5580.664199 kJ/mol
# Density = 2.127016 g / cm^3
# Si number density = 21.318684 Si / 1000 Ang^3
#
#
#
# Elastic Constant Matrix: (Units=GPa)
#
#
# Indices 1 2 3 4 5 6 
#
# 1 122.3007 68.9793 2.1662 0.0000 0.0000 0.0000
# 2 68.9793 122.3007 2.1662 0.0000 0.0000 0.0000
# 3 2.1662 2.1662 46.7327 0.0000 0.0000 0.0000
# 4 0.0000 0.0000 0.0000 -11.4515 0.0000 0.0000
# 5 0.0000 0.0000 0.0000 0.0000 -11.4515 0.0000
# 6 0.0000 0.0000 0.0000 0.0000 0.0000 26.6607
#
#
#
# Elastic Compliance Matrix: (Units=1/GPa)
#
#
# Indices 1 2 3 4 5 6 
#
# 1 0.011994 -0.006760 -0.000243 0.000000 0.000000 0.000000
# 2 -0.006760 0.011994 -0.000243 0.000000 0.000000 0.000000
# 3 -0.000243 -0.000243 0.021421 0.000000 0.000000 0.000000
# 4 0.000000 0.000000 0.000000 -0.087325 0.000000 0.000000
# 5 0.000000 0.000000 0.000000 0.000000 -0.087325 0.000000
# 6 0.000000 0.000000 0.000000 0.000000 0.000000 0.037508
#
#
# Mechanical properties :
#
#
# Convention : Reuss Voigt Hill
#
# Bulk Modulus (GPa) = 32.34433 48.66195 40.50314
# Shear Modulus (GPa) = -74.69757 15.28637 -29.70560
#
# Velocity S-wave (km/s) = -5.92576 2.68067 -3.73689
# Velocity P-wave (km/s) = 5.62270 5.69709 0.64888
#
# Compressibility (1/GPa) = 0.03091732
#
# Stress axis : x y z
#
# Youngs Moduli (GPa) = 83.37623 83.37623 46.68360
#
# Poissons Ratio (x) = 0.56366 0.01132
# Poissons Ratio (y) = 0.56366 0.01132
# Poissons Ratio (z) = 0.02023 0.02023
#
# Static dielectric constant tensor:
#      x y z
#    x 1.843580 0.000000 0.000000 
#    y 0.000000 1.843580 0.000000 
#    z 0.000000 0.000000 1.807820 
# 
# From -- ./inp_files/630.got.cif
#   From: 2010.05.17/outbox.cif.g08.bks.cpg/sg189_1_cif.got.tgz:630.got - 2010.05.20 12:14:34.
