data_PCOD9586516
_publ_section_title
;
Structure prediction by ZEFSAII (Michael W. Deem and Ramdas Pophale) SiO2 
 PCOD9586516
Probable space group: P -6 2 M
;
_chemical_formula_sum "Si O2"
_cell_formula_units_Z 67
_cell_length_a 20.976482
_cell_length_b 20.976482
_cell_length_c 9.060872
_cell_angle_alpha 90.000000
_cell_angle_beta 90.000000
_cell_angle_gamma 120.000000
_cell_volume 3452.756364
_symmetry_space_group_name_H-M "P -6 2 M"
_symmetry_group_IT_number 189
_symmetry_cell_setting 'hexagonal'
loop_
_space_group_symop_operation_xyz
x,y,z
-x+y,-x,-z
-y,x-y,z
x,y,-z
-x+y,-x,z
-y,x-y,-z
x-y,-y,-z
-x,-x+y,-z
y,x,-z
y,x,z
x-y,-y,z
-x,-x+y,z
loop_
_atom_site_type_symbol
_atom_site_label
_atom_site_fract_x
_atom_site_fract_y
_atom_site_fract_z
Si Si1 0.666668 0.333334 0.675546
Si Si2 0.262552 0.000000 0.664951
Si Si3 0.000000 0.204943 0.000000
Si Si4 0.918491 0.748305 0.000000
Si Si5 0.915969 0.649327 0.728327
Si Si6 0.542673 0.195455 0.826373
Si Si7 0.914495 0.502291 0.675515
Si Si8 0.751681 0.594393 0.655547
O O1 0.666667 0.333334 0.500000
O O2 0.589833 0.272230 0.742545
O O3 0.227617 0.000000 0.500000
O O4 0.340448 0.074084 0.661697
O O5 0.232280 0.000000 0.829418
O O6 0.083422 0.219331 0.000000
O O7 0.912620 0.696545 0.863930
O O8 0.000000 0.816972 0.000000
O O9 0.909370 0.569653 0.750466
O O10 0.839246 0.628310 0.651356
O O11 0.000000 0.699000 0.665775
O O12 0.563439 0.138064 0.753626
O O13 0.458782 0.171622 0.791802
O O14 0.558107 0.202630 0.000000
O O15 0.896758 0.500513 0.500000
O O16 0.000000 0.524638 0.685309
O O17 0.720620 0.552437 0.500000
#
# Coordination Sequence:
#
# PCOD9586516 Si02
#       8
#     4   6   3   6  12  12  12  12
#     4  12  25  47  67  84 115 161 211 261 325 383
#     4  10  24  40  64  98 130 174 225 271 328 401
#     4  12  20  44  74  92 148 182 222 284 342 404
#     4  10  22  38  64 101 137 176 223 275 339 406
#     4  10  21  38  65  97 129 163 214 272 332 398
#     4  12  27  42  65  92 125 165 217 270 326 393
#     4  10  22  41  64  92 128 171 216 265 328 397
#     4  11  23  41  64  92 129 170 213 268 327 394
#
# _framework density 19.404788
#
# number of rings (size 3 to 8) (size 9 to 14) (size 15 to 20)
#    0.000    1.254    1.791    3.761    5.015    1.433 
#    0.269    0.000    0.000    0.537    0.000    0.000 
#    0.000    0.000    0.000    0.000    0.000    0.000 
#
# Total GULP energy -373126.923517 kJ/mol
# GULP energy per Si atom -5569.058560 kJ/mol
# Density = 1.936062 g / cm^3
# Si number density = 19.404788 Si / 1000 Ang^3
#
#
#
# Elastic Constant Matrix: (Units=GPa)
#
#
# Indices 1 2 3 4 5 6 
#
# 1 94.9870 34.5822 39.9405 0.0017 -0.0004 -0.0002
# 2 34.5822 94.9872 39.9406 0.0055 -0.0001 -0.0003
# 3 39.9405 39.9406 128.7406 -0.0003 0.0059 -0.0001
# 4 0.0017 0.0055 -0.0003 -305.0932 -0.0275 -0.0001
# 5 -0.0004 -0.0001 0.0059 -0.0275 -304.7274 0.0019
# 6 -0.0002 -0.0003 -0.0001 -0.0001 0.0019 30.2024
#
#
#
# Elastic Compliance Matrix: (Units=1/GPa)
#
#
# Indices 1 2 3 4 5 6 
#
# 1 0.013049 -0.003506 -0.002961 0.000000 0.000000 0.000000
# 2 -0.003506 0.013049 -0.002961 0.000000 0.000000 0.000000
# 3 -0.002961 -0.002961 0.009605 0.000000 0.000000 0.000000
# 4 0.000000 0.000000 0.000000 -0.003278 0.000000 0.000000
# 5 0.000000 0.000000 0.000000 0.000000 -0.003282 0.000000
# 6 0.000000 0.000000 0.000000 0.000000 0.000000 0.033110
#
#
# Mechanical properties :
#
#
# Convention : Reuss Voigt Hill
#
# Bulk Modulus (GPa) = 59.35341 60.84905 60.10123
# Shear Modulus (GPa) = 57.65428 -102.30685 -22.32629
#
# Velocity S-wave (km/s) = 5.45673 -7.26890 -3.39566
# Velocity P-wave (km/s) = 8.38776 6.24687 3.95797
#
# Compressibility (1/GPa) = 0.01684823
#
# Stress axis : x y z
#
# Youngs Moduli (GPa) = 76.63385 76.63399 104.11681
#
# Poissons Ratio (x) = 0.26867 0.30826
# Poissons Ratio (y) = 0.26867 0.30826
# Poissons Ratio (z) = 0.22689 0.22689
#
# Static dielectric constant tensor:
#      x y z
#    x 1.668760 0.000000 0.000000 
#    y 0.000000 1.668760 0.000000 
#    z 0.000000 0.000000 1.704810 
# 
# From -- ./inp_files/1112.got.cif
#   From: 2010.05.17/outbox.cif.g08.bks.cpg/sg189_1_cif.got.tgz:1112.got - 2010.05.20 12:14:34.
