data_PCOD9586778
_publ_section_title
;
Structure prediction by ZEFSAII (Michael W. Deem and Ramdas Pophale) SiO2 
 PCOD9586778
Probable space group: P -6 2 C
;
_chemical_formula_sum "Si O2"
_cell_formula_units_Z 72
_cell_length_a 23.528268
_cell_length_b 23.528268
_cell_length_c 8.274474
_cell_angle_alpha 90.000000
_cell_angle_beta 90.000000
_cell_angle_gamma 120.000000
_cell_volume 3966.897182
_symmetry_space_group_name_H-M "P -6 2 C"
_symmetry_group_IT_number 190
_symmetry_cell_setting 'hexagonal'
loop_
_space_group_symop_operation_xyz
x,y,z
-x+y,-x,1/2-z
-y,x-y,z
x,y,1/2-z
-x+y,-x,z
-y,x-y,1/2-z
x-y,-y,-z
-x,-x+y,-z
y,x,-z
y,x,1/2+z
x-y,-y,1/2+z
-x,-x+y,1/2+z
loop_
_atom_site_type_symbol
_atom_site_label
_atom_site_fract_x
_atom_site_fract_y
_atom_site_fract_z
Si Si1 0.759839 0.901627 0.434563
Si Si2 0.036621 0.145581 0.250000
Si Si3 0.417679 0.811606 0.440530
Si Si4 0.523823 0.249530 0.059042
Si Si5 0.220915 0.383291 0.941786
Si Si6 0.843048 0.959269 0.750000
Si Si7 0.441190 0.367153 0.944148
O O1 0.759419 0.928986 0.250000
O O2 0.804062 0.868379 0.399159
O O3 0.684626 0.854548 0.476801
O O4 0.796884 0.945320 0.592213
O O5 0.086989 0.115751 0.250000
O O6 0.961420 0.093569 0.250000
O O7 0.409353 0.816129 0.250000
O O8 0.350816 0.795758 0.526155
O O9 0.433609 0.753369 0.473554
O O10 0.483302 0.877555 0.494684
O O11 0.525531 0.262686 0.250000
O O12 0.448371 0.219314 0.004365
O O13 0.210788 0.376268 0.750000
O O14 0.294439 0.398920 0.982461
O O15 0.438295 0.361294 0.750000
O O16 0.412613 0.412613 0.000000
#
# Coordination Sequence:
#
# PCOD9586778 Si02
#       7
#    12   6  12  12  12   6  12
#     4  10  23  37  60  85 114 152 189 235 284 341
#     4  10  25  38  66  86 114 158 180 234 298 348
#     4  10  20  34  52  82 114 148 184 228 281 335
#     4  10  20  33  57  82 114 151 189 234 283 337
#     4  10  20  39  58  82 113 149 191 239 287 337
#     4  12  21  46  58  88 124 144 192 236 290 364
#     4  10  21  35  54  79 111 148 187 230 282 337
#
# _framework density 18.150205
#
# number of rings (size 3 to 8) (size 9 to 14) (size 15 to 20)
#    0.500    1.333    0.833    3.500    0.000    5.333 
#    0.000    1.667    0.000    2.000    0.000    0.000 
#    0.000    0.000    0.000    0.000    0.000    0.000 
#
# Total GULP energy -400957.655025 kJ/mol
# GULP energy per Si atom -5568.856320 kJ/mol
# Density = 1.810889 g / cm^3
# Si number density = 18.150205 Si / 1000 Ang^3
#
#
#
# Elastic Constant Matrix: (Units=GPa)
#
#
# Indices 1 2 3 4 5 6 
#
# 1 102.1565 63.6860 20.9602 0.0000 0.0000 0.0000
# 2 63.6860 102.1565 20.9602 0.0000 0.0000 0.0000
# 3 20.9602 20.9602 71.3748 0.0000 0.0000 0.0000
# 4 0.0000 0.0000 0.0000 18.3553 0.0000 0.0000
# 5 0.0000 0.0000 0.0000 0.0000 18.3553 0.0000
# 6 0.0000 0.0000 0.0000 0.0000 0.0000 19.2353
#
#
#
# Elastic Compliance Matrix: (Units=1/GPa)
#
#
# Indices 1 2 3 4 5 6 
#
# 1 0.016254 -0.009740 -0.001913 0.000000 0.000000 0.000000
# 2 -0.009740 0.016254 -0.001913 0.000000 0.000000 0.000000
# 3 -0.001913 -0.001913 0.015134 0.000000 0.000000 0.000000
# 4 0.000000 0.000000 0.000000 0.054480 0.000000 0.000000
# 5 0.000000 0.000000 0.000000 0.000000 0.054480 0.000000
# 6 0.000000 0.000000 0.000000 0.000000 0.000000 0.051988
#
#
# Mechanical properties :
#
#
# Convention : Reuss Voigt Hill
#
# Bulk Modulus (GPa) = 48.75753 54.10008 51.42880
# Shear Modulus (GPa) = 20.61369 22.52794 21.57081
#
# Velocity S-wave (km/s) = 3.37371 3.52688 3.45115
# Velocity P-wave (km/s) = 6.48826 6.81592 6.65411
#
# Compressibility (1/GPa) = 0.02050965
#
# Stress axis : x y z
#
# Youngs Moduli (GPa) = 61.52483 61.52483 66.07662
#
# Poissons Ratio (x) = 0.59927 0.12639
# Poissons Ratio (y) = 0.59927 0.12639
# Poissons Ratio (z) = 0.11768 0.11768
#
# Static dielectric constant tensor:
#      x y z
#    x 1.623460 0.000000 0.000000 
#    y 0.000000 1.623460 0.000000 
#    z 0.000000 0.000000 1.704360 
# 
# From -- ./inp_files/1288.got.cif
#   From: 2010.05.17/outbox.cif.g08.bks.cpg/sg190_1_cif.got.tgz:1288.got - 2010.05.20 12:16:56.
