data_PCOD9586846
_publ_section_title
;
Structure prediction by ZEFSAII (Michael W. Deem and Ramdas Pophale) SiO2 
 PCOD9586846
Probable space group: P -6 2 C
;
_chemical_formula_sum "Si O2"
_cell_formula_units_Z 48
_cell_length_a 18.185105
_cell_length_b 18.185105
_cell_length_c 8.697750
_cell_angle_alpha 90.000000
_cell_angle_beta 90.000000
_cell_angle_gamma 120.000000
_cell_volume 2490.973907
_symmetry_space_group_name_H-M "P -6 2 C"
_symmetry_group_IT_number 190
_symmetry_cell_setting 'hexagonal'
loop_
_space_group_symop_operation_xyz
x,y,z
-x+y,-x,1/2-z
-y,x-y,z
x,y,1/2-z
-x+y,-x,z
-y,x-y,1/2-z
x-y,-y,-z
-x,-x+y,-z
y,x,-z
y,x,1/2+z
x-y,-y,1/2+z
-x,-x+y,1/2+z
loop_
_atom_site_type_symbol
_atom_site_label
_atom_site_fract_x
_atom_site_fract_y
_atom_site_fract_z
Si Si1 0.000000 0.792809 0.500000
Si Si2 0.572011 0.667531 0.565910
Si Si3 0.772451 0.151506 0.565455
Si Si4 0.581530 0.094270 0.566683
Si Si5 0.076017 0.108779 0.250000
O O1 0.077867 0.776733 0.531863
O O2 0.042344 0.873267 0.387785
O O3 0.579174 0.674252 0.750000
O O4 0.625161 0.625161 0.500000
O O5 0.605111 0.758015 0.487370
O O6 0.474969 0.602651 0.515674
O O7 0.776874 0.136615 0.750000
O O8 0.681943 0.145422 0.540056
O O9 0.565489 0.088912 0.750000
O O10 0.547102 0.000000 0.500000
O O11 0.088475 0.025648 0.250000
#
# Coordination Sequence:
#
# PCOD9586846 Si02
#       5
#     6  12  12  12   6
#     4  12  22  42  66  96 130 172 228 276 320 396
#     4  11  24  42  65  94 126 166 209 264 329 386
#     4  11  24  41  65  98 131 170 218 267 320 390
#     4  10  20  39  66  90 126 163 203 257 319 385
#     4  10  24  42  60  88 130 184 220 268 338 380
#
# _framework density 19.269570000000002
#
# number of rings (size 3 to 8) (size 9 to 14) (size 15 to 20)
#    0.250    1.000    2.500    5.250    1.750    4.000 
#    1.500    0.000    0.000    0.000    0.000    0.000 
#    0.000    0.000    0.000    0.000    0.000    0.000 
#
# Total GULP energy -267539.270519 kJ/mol
# GULP energy per Si atom -5573.734802 kJ/mol
# Density = 1.922571 g / cm^3
# Si number density = 19.269570 Si / 1000 Ang^3
#
#
#
# Elastic Constant Matrix: (Units=GPa)
#
#
# Indices 1 2 3 4 5 6 
#
# 1 99.9121 44.8545 -1.8097 0.0000 0.0000 0.0000
# 2 44.8545 99.9121 -1.8097 0.0000 0.0000 0.0000
# 3 -1.8097 -1.8097 31.4303 0.0000 0.0000 0.0000
# 4 0.0000 0.0000 0.0000 29.9724 0.0000 0.0000
# 5 0.0000 0.0000 0.0000 0.0000 29.9724 0.0000
# 6 0.0000 0.0000 0.0000 0.0000 0.0000 27.5288
#
#
#
# Elastic Compliance Matrix: (Units=1/GPa)
#
#
# Indices 1 2 3 4 5 6 
#
# 1 0.012540 -0.005623 0.000398 0.000000 0.000000 0.000000
# 2 -0.005623 0.012540 0.000398 0.000000 0.000000 0.000000
# 3 0.000398 0.000398 0.031862 0.000000 0.000000 0.000000
# 4 0.000000 0.000000 0.000000 0.033364 0.000000 0.000000
# 5 0.000000 0.000000 0.000000 0.000000 0.033364 0.000000
# 6 0.000000 0.000000 0.000000 0.000000 0.000000 0.036326
#
#
# Mechanical properties :
#
#
# Convention : Reuss Voigt Hill
#
# Bulk Modulus (GPa) = 21.14577 34.85830 28.00203
# Shear Modulus (GPa) = 26.96699 30.16269 28.56484
#
# Velocity S-wave (km/s) = 3.74499 3.96068 3.85435
# Velocity P-wave (km/s) = 5.44954 6.24861 5.86270
#
# Compressibility (1/GPa) = 0.04729078
#
# Stress axis : x y z
#
# Youngs Moduli (GPa) = 79.74345 79.74345 31.38506
#
# Poissons Ratio (x) = 0.44836 -0.01250
# Poissons Ratio (y) = 0.44836 -0.01250
# Poissons Ratio (z) = -0.03176 -0.03176
#
# Static dielectric constant tensor:
#      x y z
#    x 1.641960 0.000000 0.000000 
#    y 0.000000 1.641960 0.000000 
#    z 0.000000 0.000000 1.658390 
# 
# From -- ./inp_files/701.got.cif
#   From: 2010.05.17/outbox.cif.g08.bks.cpg/sg190_1_cif.got.tgz:701.got - 2010.05.20 12:16:56.
