data_PCOD9586344
_publ_section_title
;
Structure prediction by ZEFSAII (Michael W. Deem and Ramdas Pophale) SiO2 
 PCOD9586344
Probable space group: P -6 2 M
;
_chemical_formula_sum "Si O2"
_cell_formula_units_Z 72
_cell_length_a 24.510397
_cell_length_b 24.510397
_cell_length_c 9.024219
_cell_angle_alpha 90.000000
_cell_angle_beta 90.000000
_cell_angle_gamma 120.000000
_cell_volume 4695.057866
_symmetry_space_group_name_H-M "P -6 2 M"
_symmetry_group_IT_number 189
_symmetry_cell_setting 'hexagonal'
loop_
_space_group_symop_operation_xyz
x,y,z
-x+y,-x,-z
-y,x-y,z
x,y,-z
-x+y,-x,z
-y,x-y,-z
x-y,-y,-z
-x,-x+y,-z
y,x,-z
y,x,z
x-y,-y,z
-x,-x+y,z
loop_
_atom_site_type_symbol
_atom_site_label
_atom_site_fract_x
_atom_site_fract_y
_atom_site_fract_z
Si Si1 0.926453 0.620421 0.175688
Si Si2 0.516462 0.377030 0.677852
Si Si3 0.518085 0.255434 0.331041
Si Si4 0.630821 0.490709 0.823977
Si Si5 0.700923 0.627785 0.678510
Si Si6 0.634529 0.824005 0.330725
O O1 0.901603 0.553696 0.257837
O O2 0.883300 0.648748 0.231551
O O3 0.000000 0.665658 0.207141
O O4 0.918022 0.608900 0.000000
O O5 0.514889 0.381104 0.500000
O O6 0.539886 0.326821 0.712486
O O7 0.564291 0.443286 0.750061
O O8 0.538519 0.253319 0.500000
O O9 0.532280 0.212038 0.225675
O O10 0.441879 0.222748 0.333251
O O11 0.659300 0.560918 0.758487
O O12 0.626068 0.491255 0.000000
O O13 0.697245 0.616655 0.500000
O O14 0.673625 0.673625 0.710425
O O15 0.774107 0.655118 0.720104
O O16 0.655158 0.843852 0.500000
#
# Coordination Sequence:
#
# PCOD9586344 Si02
#       6
#    12  12  12  12  12  12
#     4  10  20  32  47  69  95 121 149 183 226 272
#     4  10  20  34  50  64  83 115 152 191 234 279
#     4   8  16  32  49  62  78 107 146 182 223 277
#     4  11  21  31  46  67  91 115 143 188 239 283
#     4   9  18  33  51  69  91 121 154 184 219 268
#     4   8  15  29  49  69  88 114 147 180 213 257
#
# _framework density 15.335274
#
# number of rings (size 3 to 8) (size 9 to 14) (size 15 to 20)
#    0.000    2.667    0.000    4.500    0.000    9.000 
#    1.000    0.000    0.000    0.000    0.000    0.000 
#    0.000    0.000    0.000    0.500    0.000    7.667 
#
# Total GULP energy -401230.982904 kJ/mol
# GULP energy per Si atom -5572.652540 kJ/mol
# Density = 1.530037 g / cm^3
# Si number density = 15.335274 Si / 1000 Ang^3
#
#
#
# Elastic Constant Matrix: (Units=GPa)
#
#
# Indices 1 2 3 4 5 6 
#
# 1 79.6534 53.3313 49.4991 0.0000 0.0000 0.0000
# 2 53.3313 79.6534 49.4991 0.0000 0.0000 0.0000
# 3 49.4991 49.4991 69.2648 0.0000 0.0000 0.0000
# 4 0.0000 0.0000 0.0000 15.0209 0.0000 0.0000
# 5 0.0000 0.0000 0.0000 0.0000 15.0209 0.0000
# 6 0.0000 0.0000 0.0000 0.0000 0.0000 13.1611
#
#
#
# Elastic Compliance Matrix: (Units=1/GPa)
#
#
# Indices 1 2 3 4 5 6 
#
# 1 0.027029 -0.010962 -0.011482 0.000000 0.000000 0.000000
# 2 -0.010962 0.027029 -0.011482 0.000000 0.000000 0.000000
# 3 -0.011482 -0.011482 0.030849 0.000000 0.000000 0.000000
# 4 0.000000 0.000000 0.000000 0.066574 0.000000 0.000000
# 5 0.000000 0.000000 0.000000 0.000000 0.066574 0.000000
# 6 0.000000 0.000000 0.000000 0.000000 0.000000 0.075982
#
#
# Mechanical properties :
#
#
# Convention : Reuss Voigt Hill
#
# Bulk Modulus (GPa) = 58.63655 59.24784 58.94220
# Shear Modulus (GPa) = 13.60269 13.72340 13.66305
#
# Velocity S-wave (km/s) = 2.98152 2.99472 2.98813
# Velocity P-wave (km/s) = 7.08322 7.11875 7.10101
#
# Compressibility (1/GPa) = 0.01705421
#
# Stress axis : x y z
#
# Youngs Moduli (GPa) = 36.99702 36.99702 32.41611
#
# Poissons Ratio (x) = 0.40555 0.37222
# Poissons Ratio (y) = 0.40555 0.37222
# Poissons Ratio (z) = 0.42482 0.42482
#
# Static dielectric constant tensor:
#      x y z
#    x 1.516120 0.000000 0.000000 
#    y 0.000000 1.516120 0.000000 
#    z 0.000000 0.000000 1.510490 
# 
# From -- ./inp_files/1249.got.cif
#   From: 2010.05.17/outbox.cif.g08.bks.cpg/sg189_1_cif.got.tgz:1249.got - 2010.05.20 12:14:34.
