data_PCOD9586245
_publ_section_title
;
Structure prediction by ZEFSAII (Michael W. Deem and Ramdas Pophale) SiO2 
 PCOD9586245
Probable space group: P -6 2 M
;
_chemical_formula_sum "Si O2"
_cell_formula_units_Z 72
_cell_length_a 21.237915
_cell_length_b 21.237915
_cell_length_c 11.954825
_cell_angle_alpha 90.000000
_cell_angle_beta 90.000000
_cell_angle_gamma 120.000000
_cell_volume 4669.792802
_symmetry_space_group_name_H-M "P -6 2 M"
_symmetry_group_IT_number 189
_symmetry_cell_setting 'hexagonal'
loop_
_space_group_symop_operation_xyz
x,y,z
-x+y,-x,-z
-y,x-y,z
x,y,-z
-x+y,-x,z
-y,x-y,-z
x-y,-y,-z
-x,-x+y,-z
y,x,-z
y,x,z
x-y,-y,z
-x,-x+y,z
loop_
_atom_site_type_symbol
_atom_site_label
_atom_site_fract_x
_atom_site_fract_y
_atom_site_fract_z
Si Si1 0.667561 0.181638 0.500000
Si Si2 0.912188 0.456094 0.874999
Si Si3 0.082894 0.773774 0.872512
Si Si4 0.917106 0.226226 0.127488
Si Si5 0.570771 0.657403 0.713891
Si Si6 0.818362 0.332439 0.500000
Si Si7 0.429229 0.342597 0.286109
O O1 0.736983 0.263017 0.500000
O O2 0.591102 0.182203 0.500000
O O3 0.670600 0.136780 0.392878
O O4 0.892986 0.385409 0.804287
O O5 0.892986 0.507577 0.804287
O O6 0.000000 0.500000 0.882838
O O7 0.882319 0.441159 0.000000
O O8 0.142461 0.857539 0.862112
O O9 0.095935 0.727890 0.778251
O O10 0.000000 0.754472 0.861706
O O11 0.089754 0.750337 0.000000
O O12 0.904065 0.272110 0.221749
O O13 0.000000 0.245528 0.138294
O O14 0.910246 0.249663 0.000000
O O15 0.607237 0.607237 0.686283
O O16 0.533820 0.670600 0.607122
O O17 0.392763 0.392763 0.313717
#
# Coordination Sequence:
#
# PCOD9586245 Si02
#       7
#     6  12  12  12  12   6  12
#     4  12  24  37  49  65  90 131 169 203 239 290
#     4   9  16  27  47  75  99 116 141 185 243 299
#     4   9  17  30  49  74 102 130 160 197 242 289
#     4   9  17  30  49  74 102 130 160 197 242 289
#     4  10  19  32  51  73  96 120 154 201 248 293
#     4  12  24  37  49  65  90 131 169 203 239 290
#     4  10  19  32  51  73  96 120 154 201 248 293
#
# _framework density 15.418241999999999
#
# number of rings (size 3 to 8) (size 9 to 14) (size 15 to 20)
#    0.000    2.167    1.667    2.667    0.000    4.667 
#    0.000    0.000    0.000    0.333    0.000    2.333 
#    0.000    0.000    0.000    0.000    0.000   34.667 
#
# Total GULP energy -401128.253270 kJ/mol
# GULP energy per Si atom -5571.225740 kJ/mol
# Density = 1.538315 g / cm^3
# Si number density = 15.418242 Si / 1000 Ang^3
#
#
#
# Elastic Constant Matrix: (Units=GPa)
#
#
# Indices 1 2 3 4 5 6 
#
# 1 93.0451 61.4780 61.3463 0.0000 0.0000 0.0000
# 2 61.4780 93.0451 61.3463 0.0000 0.0000 0.0000
# 3 61.3463 61.3463 129.5851 0.0000 0.0000 0.0000
# 4 0.0000 0.0000 0.0000 31.2310 0.0000 0.0000
# 5 0.0000 0.0000 0.0000 0.0000 31.2310 0.0000
# 6 0.0000 0.0000 0.0000 0.0000 0.0000 15.7836
#
#
#
# Elastic Compliance Matrix: (Units=1/GPa)
#
#
# Indices 1 2 3 4 5 6 
#
# 1 0.021024 -0.010655 -0.004909 0.000000 0.000000 0.000000
# 2 -0.010655 0.021024 -0.004909 0.000000 0.000000 0.000000
# 3 -0.004909 -0.004909 0.012365 0.000000 0.000000 0.000000
# 4 0.000000 0.000000 0.000000 0.032019 0.000000 0.000000
# 5 0.000000 0.000000 0.000000 0.000000 0.032019 0.000000
# 6 0.000000 0.000000 0.000000 0.000000 0.000000 0.063357
#
#
# Mechanical properties :
#
#
# Convention : Reuss Voigt Hill
#
# Bulk Modulus (GPa) = 74.25163 76.00182 75.12672
# Shear Modulus (GPa) = 22.00294 24.41609 23.20951
#
# Velocity S-wave (km/s) = 3.78176 3.98374 3.88406
# Velocity P-wave (km/s) = 8.20559 8.40004 8.30339
#
# Compressibility (1/GPa) = 0.01346772
#
# Stress axis : x y z
#
# Youngs Moduli (GPa) = 47.56499 47.56499 80.87558
#
# Poissons Ratio (x) = 0.50679 0.39700
# Poissons Ratio (y) = 0.50679 0.39700
# Poissons Ratio (z) = 0.23349 0.23349
#
# Static dielectric constant tensor:
#      x y z
#    x 1.501650 0.000000 0.000000 
#    y 0.000000 1.501650 0.000000 
#    z 0.000000 0.000000 1.523030 
# 
# From -- ./inp_files/2115.got.cif
#   From: 2010.05.17/outbox.cif.g08.bks.cpg/sg189_2_cif.got.tgz:2115.got - 2010.05.20 12:14:34.
