data_PCOD9586780
_publ_section_title
;
Structure prediction by ZEFSAII (Michael W. Deem and Ramdas Pophale) SiO2 
 PCOD9586780
Probable space group: P -6 2 C
;
_chemical_formula_sum "Si O2"
_cell_formula_units_Z 72
_cell_length_a 24.440696
_cell_length_b 24.440696
_cell_length_c 8.853145
_cell_angle_alpha 90.000000
_cell_angle_beta 90.000000
_cell_angle_gamma 120.000000
_cell_volume 4579.893165
_symmetry_space_group_name_H-M "P -6 2 C"
_symmetry_group_IT_number 190
_symmetry_cell_setting 'hexagonal'
loop_
_space_group_symop_operation_xyz
x,y,z
-x+y,-x,1/2-z
-y,x-y,z
x,y,1/2-z
-x+y,-x,z
-y,x-y,1/2-z
x-y,-y,-z
-x,-x+y,-z
y,x,-z
y,x,1/2+z
x-y,-y,1/2+z
-x,-x+y,1/2+z
loop_
_atom_site_type_symbol
_atom_site_label
_atom_site_fract_x
_atom_site_fract_y
_atom_site_fract_z
Si Si1 0.514721 0.375820 0.931678
Si Si2 0.810689 0.175914 0.922552
Si Si3 0.068738 0.367529 0.432199
Si Si4 0.630124 0.492494 0.070875
Si Si5 0.255360 0.518103 0.077806
Si Si6 0.625226 0.931575 0.929178
O O1 0.510825 0.377192 0.750000
O O2 0.539480 0.326619 0.968869
O O3 0.563315 0.443590 0.998162
O O4 0.445102 0.347514 0.000872
O O5 0.810524 0.155173 0.750000
O O6 0.881606 0.225739 0.972044
O O7 0.777364 0.219104 0.918708
O O8 0.766135 0.116789 0.025185
O O9 0.067377 0.370753 0.250000
O O10 0.096858 0.438077 0.498519
O O11 0.000000 0.323739 0.500000
O O12 0.625496 0.496057 0.250000
O O13 0.679073 0.468373 0.027298
O O14 0.254155 0.539186 0.250000
O O15 0.621810 0.935482 0.750000
O O16 0.668801 0.000000 0.000000
#
# Coordination Sequence:
#
# PCOD9586780 Si02
#       6
#    12  12  12  12  12  12
#     4  10  20  35  51  66  89 120 156 198 247 298
#     4   8  16  32  51  70  94 123 152 187 228 273
#     4  10  20  34  52  73  98 127 160 194 234 285
#     4  11  21  32  48  69  93 119 153 199 248 295
#     4   8  16  32  50  64  82 114 150 187 236 292
#     4  11  21  33  51  74  98 125 159 195 235 285
#
# _framework density 15.720891
#
# number of rings (size 3 to 8) (size 9 to 14) (size 15 to 20)
#    0.000    2.333    0.000    6.000    0.000    8.000 
#    1.000    3.333    0.000    0.000    0.000    0.000 
#    0.000    0.000    0.000    0.500    0.000    8.000 
#
# Total GULP energy -401496.500441 kJ/mol
# GULP energy per Si atom -5576.340284 kJ/mol
# Density = 1.568511 g / cm^3
# Si number density = 15.720891 Si / 1000 Ang^3
#
#
#
# Elastic Constant Matrix: (Units=GPa)
#
#
# Indices 1 2 3 4 5 6 
#
# 1 80.3514 52.5984 51.7088 0.0000 0.0000 0.0000
# 2 52.5984 80.3514 51.7088 0.0000 0.0000 0.0000
# 3 51.7088 51.7088 100.7873 0.0000 0.0000 0.0000
# 4 0.0000 0.0000 0.0000 -516.7191 0.0002 0.0000
# 5 0.0000 0.0000 0.0000 0.0002 -516.7194 0.0000
# 6 0.0000 0.0000 0.0000 0.0000 0.0000 13.8765
#
#
#
# Elastic Compliance Matrix: (Units=1/GPa)
#
#
# Indices 1 2 3 4 5 6 
#
# 1 0.024275 -0.011758 -0.006422 0.000000 0.000000 0.000000
# 2 -0.011758 0.024275 -0.006422 0.000000 0.000000 0.000000
# 3 -0.006422 -0.006422 0.016511 0.000000 0.000000 0.000000
# 4 0.000000 0.000000 0.000000 -0.001935 0.000000 0.000000
# 5 0.000000 0.000000 0.000000 0.000000 -0.001935 0.000000
# 6 0.000000 0.000000 0.000000 0.000000 0.000000 0.072064
#
#
# Mechanical properties :
#
#
# Convention : Reuss Voigt Hill
#
# Bulk Modulus (GPa) = 63.05978 63.72470 63.39224
# Shear Modulus (GPa) = 26.63220 -196.88079 -85.12429
#
# Velocity S-wave (km/s) = 4.12037 -11.20299 -7.36646
# Velocity P-wave (km/s) = 7.92690 11.25698 5.65172
#
# Compressibility (1/GPa) = 0.01585797
#
# Stress axis : x y z
#
# Youngs Moduli (GPa) = 41.19538 41.19538 60.56451
#
# Poissons Ratio (x) = 0.48436 0.38894
# Poissons Ratio (y) = 0.48436 0.38894
# Poissons Ratio (z) = 0.26455 0.26455
#
# Static dielectric constant tensor:
#      x y z
#    x 1.529080 0.000000 0.000000 
#    y 0.000000 1.529080 0.000000 
#    z 0.000000 0.000000 1.521660 
# 
# From -- ./inp_files/1213.got.cif
#   From: 2010.05.17/outbox.cif.g08.bks.cpg/sg190_1_cif.got.tgz:1213.got - 2010.05.20 12:16:56.
