data_PCOD9586580
_publ_section_title
;
Structure prediction by ZEFSAII (Michael W. Deem and Ramdas Pophale) SiO2 
 PCOD9586580
Probable space group: P -6 2 M
;
_chemical_formula_sum "Si O2"
_cell_formula_units_Z 72
_cell_length_a 24.831347
_cell_length_b 24.831347
_cell_length_c 7.384719
_cell_angle_alpha 90.000000
_cell_angle_beta 90.000000
_cell_angle_gamma 120.000000
_cell_volume 3943.348533
_symmetry_space_group_name_H-M "P -6 2 M"
_symmetry_group_IT_number 189
_symmetry_cell_setting 'hexagonal'
loop_
_space_group_symop_operation_xyz
x,y,z
-x+y,-x,-z
-y,x-y,z
x,y,-z
-x+y,-x,z
-y,x-y,-z
x-y,-y,-z
-x,-x+y,-z
y,x,-z
y,x,z
x-y,-y,z
-x,-x+y,z
loop_
_atom_site_type_symbol
_atom_site_label
_atom_site_fract_x
_atom_site_fract_y
_atom_site_fract_z
Si Si1 0.808671 0.404937 0.279604
Si Si2 0.071879 0.929909 0.220631
Si Si3 0.526655 0.929844 0.721086
Si Si4 0.261848 0.191702 0.216427
Si Si5 0.594403 0.856227 0.284795
Si Si6 0.524537 0.259884 0.279205
O O1 0.808888 0.404268 0.500000
O O2 0.877715 0.457401 0.223157
O O3 0.783575 0.334957 0.216707
O O4 0.762187 0.430222 0.227968
O O5 0.087689 0.877069 0.280617
O O6 0.000000 0.904547 0.271115
O O7 0.116497 0.000000 0.283326
O O8 0.073580 0.931171 0.000000
O O9 0.527103 0.930834 0.500000
O O10 0.572289 0.904100 0.780427
O O11 0.552174 0.000000 0.782325
O O12 0.239597 0.239597 0.283235
O O13 0.333365 0.215621 0.253815
O O14 0.256102 0.190053 0.000000
O O15 0.585829 0.853613 0.500000
O O16 0.544507 0.787271 0.218543
O O17 0.524549 0.258034 0.500000
#
# Coordination Sequence:
#
# PCOD9586580 Si02
#       6
#    12  12  12  12  12  12
#     4   8  12  18  29  46  69  91 112 147 188 217
#     4   8  13  22  38  59  79  97 120 154 193 227
#     4   8  13  20  31  49  71  95 123 151 179 213
#     4   9  17  27  39  58  81 101 124 155 188 223
#     4   9  16  25  38  56  78 103 128 153 183 224
#     4   8  13  20  32  52  74  96 123 154 189 226
#
# _framework density 18.258593999999999
#
# number of rings (size 3 to 8) (size 9 to 14) (size 15 to 20)
#    0.000    3.667    0.000    4.000    0.000    3.000 
#    0.000    0.000    0.000    1.500    0.000    7.000 
#    0.000    1.333    0.000    0.000    0.000    0.000 
#
# Total GULP energy -401173.855016 kJ/mol
# GULP energy per Si atom -5571.859097 kJ/mol
# Density = 1.821704 g / cm^3
# Si number density = 18.258594 Si / 1000 Ang^3
#
#
#
# Elastic Constant Matrix: (Units=GPa)
#
#
# Indices 1 2 3 4 5 6 
#
# 1 173.9595 119.6375 3.6708 0.0000 0.0000 0.0000
# 2 119.6375 173.9595 3.6708 0.0000 0.0000 0.0000
# 3 3.6708 3.6708 59.8979 0.0000 0.0000 0.0000
# 4 0.0000 0.0000 0.0000 2.4460 0.0000 0.0000
# 5 0.0000 0.0000 0.0000 0.0000 2.4460 0.0000
# 6 0.0000 0.0000 0.0000 0.0000 0.0000 27.1610
#
#
#
# Elastic Compliance Matrix: (Units=1/GPa)
#
#
# Indices 1 2 3 4 5 6 
#
# 1 0.010910 -0.007499 -0.000209 0.000000 0.000000 0.000000
# 2 -0.007499 0.010910 -0.000209 0.000000 0.000000 0.000000
# 3 -0.000209 -0.000209 0.016721 0.000000 0.000000 0.000000
# 4 0.000000 0.000000 0.000000 0.408824 0.000000 0.000000
# 5 0.000000 0.000000 0.000000 0.000000 0.408824 0.000000
# 6 0.000000 0.000000 0.000000 0.000000 0.000000 0.036817
#
#
# Mechanical properties :
#
#
# Convention : Reuss Voigt Hill
#
# Bulk Modulus (GPa) = 44.03930 73.53058 58.78494
# Shear Modulus (GPa) = 5.45608 25.13315 15.29461
#
# Velocity S-wave (km/s) = 1.73052 3.71416 2.89739
# Velocity P-wave (km/s) = 5.30708 7.66502 6.59233
#
# Compressibility (1/GPa) = 0.02270699
#
# Stress axis : x y z
#
# Youngs Moduli (GPa) = 91.65910 91.65910 59.80607
#
# Poissons Ratio (x) = 0.68733 0.01250
# Poissons Ratio (y) = 0.68733 0.01250
# Poissons Ratio (z) = 0.01916 0.01916
#
# Static dielectric constant tensor:
#      x y z
#    x 1.621080 0.000000 0.000000 
#    y 0.000000 1.621080 0.000000 
#    z 0.000000 0.000000 1.724150 
# 
# From -- ./inp_files/1244.got.cif
#   From: 2010.05.17/outbox.cif.g08.bks.cpg/sg189_1_cif.got.tgz:1244.got - 2010.05.20 12:14:34.
