data_PCOD9587952
_publ_section_title
;
Structure prediction by ZEFSAII (Michael W. Deem and Ramdas Pophale) SiO2 
 PCOD9587952
Probable space group: P 6/M M M
;
_chemical_formula_sum "Si O2"
_cell_formula_units_Z 108
_cell_length_a 18.206364
_cell_length_b 18.206364
_cell_length_c 21.869404
_cell_angle_alpha 90.000000
_cell_angle_beta 90.000000
_cell_angle_gamma 120.000000
_cell_volume 6277.894627
_symmetry_space_group_name_H-M "P 6/M M M"
_symmetry_group_IT_number 191
_symmetry_cell_setting 'hexagonal'
loop_
_space_group_symop_operation_xyz
x,y,z
x-y,x,z
-y,x-y,z
-x,-y,z
-x+y,-x,z
y,-x+y,z
x-y,-y,-z
-x,-x+y,-z
y,x,-z
-y,-x,-z
-x+y,y,-z
x,x-y,-z
-x,-y,-z
-x+y,-x,-z
y,-x+y,-z
x,y,-z
x-y,x,-z
-y,x-y,-z
-x+y,y,z
x,x-y,z
-y,-x,z
y,x,z
x-y,-y,z
-x,-x+y,z
loop_
_atom_site_type_symbol
_atom_site_label
_atom_site_fract_x
_atom_site_fract_y
_atom_site_fract_z
Si Si1 0.899156 0.533101 0.769838
Si Si2 0.667371 0.159751 0.000000
Si Si3 0.365860 0.266836 0.886887
Si Si4 0.494464 0.162782 0.366285
Si Si5 0.830875 0.000000 0.425579
Si Si6 0.660649 0.660649 0.573300
O O1 0.878529 0.439265 0.790180
O O2 0.883275 0.582833 0.823377
O O3 0.851965 0.523831 0.706406
O O4 0.000000 0.585271 0.756515
O O5 0.684261 0.117443 0.940963
O O6 0.741439 0.258562 0.000000
O O7 0.575165 0.150330 0.000000
O O8 0.334954 0.167477 0.893889
O O9 0.294551 0.294551 0.888490
O O10 0.583447 0.166894 0.377240
O O11 0.497562 0.248781 0.385195
O O12 0.420279 0.082989 0.400897
O O13 0.830617 0.915309 0.405306
O O14 0.746043 0.000000 0.406971
O O15 0.832083 0.000000 0.500000
O O16 0.658236 0.658236 0.500000
#
# Coordination Sequence:
#
# PCOD9587952 Si02
#       6
#    24  12  24  24  12  12
#     4   9  17  32  54  79 105 136 172 212 257 309
#     4  10  20  33  50  77 112 148 179 212 258 315
#     4  10  20  33  51  76 106 141 181 223 265 309
#     4  11  22  37  56  79 106 137 176 221 267 314
#     4   9  17  31  53  81 109 135 164 201 247 300
#     4  11  23  39  57  77 103 138 175 211 259 323
#
# _framework density 17.203220000000002
#
# number of rings (size 3 to 8) (size 9 to 14) (size 15 to 20)
#    0.000    2.000    1.111    3.111    0.000    4.444 
#    0.000    0.000    0.000    8.667    0.000    0.000 
#    0.000    2.667    0.000    0.000    0.000    0.000 
#
# Total GULP energy -602811.508175 kJ/mol
# GULP energy per Si atom -5581.588039 kJ/mol
# Density = 1.716407 g / cm^3
# Si number density = 17.203220 Si / 1000 Ang^3
#
#
#
# Elastic Constant Matrix: (Units=GPa)
#
#
# Indices 1 2 3 4 5 6 
#
# 1 147.5294 96.0260 48.8719 0.0000 0.0000 0.0000
# 2 96.0260 147.5294 48.8719 0.0000 0.0000 0.0000
# 3 48.8719 48.8719 52.2824 0.0000 0.0000 0.0000
# 4 0.0000 0.0000 0.0000 19.4348 0.0000 0.0000
# 5 0.0000 0.0000 0.0000 0.0000 19.4348 0.0000
# 6 0.0000 0.0000 0.0000 0.0000 0.0000 25.7517
#
#
#
# Elastic Compliance Matrix: (Units=1/GPa)
#
#
# Indices 1 2 3 4 5 6 
#
# 1 0.012994 -0.006423 -0.006142 0.000000 0.000000 0.000000
# 2 -0.006423 0.012994 -0.006142 0.000000 0.000000 0.000000
# 3 -0.006142 -0.006142 0.030610 0.000000 0.000000 0.000000
# 4 0.000000 0.000000 0.000000 0.051454 0.000000 0.000000
# 5 0.000000 0.000000 0.000000 0.000000 0.051454 0.000000
# 6 0.000000 0.000000 0.000000 0.000000 0.000000 0.038832
#
#
# Mechanical properties :
#
#
# Convention : Reuss Voigt Hill
#
# Bulk Modulus (GPa) = 52.13000 81.65342 66.89171
# Shear Modulus (GPa) = 20.64869 23.16234 21.90551
#
# Velocity S-wave (km/s) = 3.46826 3.67331 3.57226
# Velocity P-wave (km/s) = 6.81225 8.09679 7.48214
#
# Compressibility (1/GPa) = 0.01918281
#
# Stress axis : x y z
#
# Youngs Moduli (GPa) = 76.96146 76.96146 32.66911
#
# Poissons Ratio (x) = 0.49430 0.20066
# Poissons Ratio (y) = 0.49430 0.20066
# Poissons Ratio (z) = 0.47271 0.47271
#
# Static dielectric constant tensor:
#      x y z
#    x 1.566900 0.000000 0.000000 
#    y 0.000000 1.566900 0.000000 
#    z 0.000000 0.000000 1.579910 
# 
# From -- ./inp_files/7386.got.cif
#   From: 2010.05.17/outbox.cif.g08.bks.cpg/sg191_4_cif.got.tgz:7386.got - 2010.05.20 12:20:32.
