data_PCOD9587793
_publ_section_title
;
Structure prediction by ZEFSAII (Michael W. Deem and Ramdas Pophale) SiO2 
 PCOD9587793
Probable space group: P 6/M M M
;
_chemical_formula_sum "Si O2"
_cell_formula_units_Z 144
_cell_length_a 22.257739
_cell_length_b 22.257739
_cell_length_c 25.184690
_cell_angle_alpha 90.000000
_cell_angle_beta 90.000000
_cell_angle_gamma 120.000000
_cell_volume 10805.113472
_symmetry_space_group_name_H-M "P 6/M M M"
_symmetry_group_IT_number 191
_symmetry_cell_setting 'hexagonal'
loop_
_space_group_symop_operation_xyz
x,y,z
x-y,x,z
-y,x-y,z
-x,-y,z
-x+y,-x,z
y,-x+y,z
x-y,-y,-z
-x,-x+y,-z
y,x,-z
-y,-x,-z
-x+y,y,-z
x,x-y,-z
-x,-y,-z
-x+y,-x,-z
y,-x+y,-z
x,y,-z
x-y,x,-z
-y,x-y,-z
-x+y,y,z
x,x-y,z
-y,-x,z
y,x,z
x-y,-y,z
-x,-x+y,z
loop_
_atom_site_type_symbol
_atom_site_label
_atom_site_fract_x
_atom_site_fract_y
_atom_site_fract_z
Si Si1 0.923323 0.711682 0.064167
Si Si2 0.803405 0.333648 0.140437
Si Si3 0.524432 0.332884 0.264658
Si Si4 0.807727 0.332842 0.562990
Si Si5 0.080625 0.432736 0.937860
Si Si6 0.612434 0.079304 0.648784
O O1 0.859275 0.718550 0.084894
O O2 0.913071 0.635596 0.073190
O O3 0.000000 0.767310 0.083843
O O4 0.924358 0.718587 0.000000
O O5 0.776126 0.388063 0.137953
O O6 0.742458 0.257543 0.125205
O O7 0.822734 0.332174 0.201964
O O8 0.867998 0.359292 0.101572
O O9 0.522013 0.261007 0.277784
O O10 0.602191 0.397810 0.273794
O O11 0.473312 0.347184 0.300434
O O12 0.820138 0.332389 0.500000
O O13 0.793992 0.396996 0.572999
O O14 0.739416 0.260585 0.577150
O O15 0.874465 0.348199 0.597482
O O16 0.000000 0.409058 0.930488
O O17 0.097823 0.451353 0.000000
O O18 0.537632 0.075265 0.649125
O O19 0.595237 0.000000 0.648882
#
# Coordination Sequence:
#
# PCOD9587793 Si02
#       6
#    24  24  24  24  24  24
#     4   8  13  22  37  55  73  93 117 144 173 206
#     4  10  20  32  45  60  78  99 122 151 190 236
#     4   9  17  29  44  59  74  95 125 159 192 227
#     4   9  16  25  38  56  77 101 130 164 199 232
#     4   9  18  31  45  60  76  96 124 156 188 222
#     4   9  17  27  38  54  76 100 125 154 191 234
#
# _framework density 13.327023000000001
#
# number of rings (size 3 to 8) (size 9 to 14) (size 15 to 20)
#    0.000    3.000    0.000    2.500    0.000    4.667 
#    0.000    5.833    0.000    1.167    0.000    1.167 
#    0.000    0.000    0.000    0.000    0.000    0.000 
#
# Total GULP energy -801727.315242 kJ/mol
# GULP energy per Si atom -5567.550800 kJ/mol
# Density = 1.329669 g / cm^3
# Si number density = 13.327023 Si / 1000 Ang^3
#
#
#
# Elastic Constant Matrix: (Units=GPa)
#
#
# Indices 1 2 3 4 5 6 
#
# 1 67.3865 32.5161 40.6567 0.0000 0.0000 0.0000
# 2 32.5161 67.3865 40.6567 0.0000 0.0000 0.0000
# 3 40.6567 40.6567 55.6291 0.0000 0.0000 0.0000
# 4 0.0000 0.0000 0.0000 14.5574 0.0000 0.0000
# 5 0.0000 0.0000 0.0000 0.0000 14.5574 0.0000
# 6 0.0000 0.0000 0.0000 0.0000 0.0000 17.4352
#
#
#
# Elastic Compliance Matrix: (Units=1/GPa)
#
#
# Indices 1 2 3 4 5 6 
#
# 1 0.026692 -0.001985 -0.018057 0.000000 0.000000 0.000000
# 2 -0.001985 0.026692 -0.018057 0.000000 0.000000 0.000000
# 3 -0.018057 -0.018057 0.044371 0.000000 0.000000 0.000000
# 4 0.000000 0.000000 0.000000 0.068694 0.000000 0.000000
# 5 0.000000 0.000000 0.000000 0.000000 0.068694 0.000000
# 6 0.000000 0.000000 0.000000 0.000000 0.000000 0.057355
#
#
# Mechanical properties :
#
#
# Convention : Reuss Voigt Hill
#
# Bulk Modulus (GPa) = 46.39133 46.45122 46.42127
# Shear Modulus (GPa) = 13.30202 14.41482 13.85842
#
# Velocity S-wave (km/s) = 3.16274 3.29237 3.22821
# Velocity P-wave (km/s) = 6.94426 7.02734 6.98592
#
# Compressibility (1/GPa) = 0.02155575
#
# Stress axis : x y z
#
# Youngs Moduli (GPa) = 37.46395 37.46395 22.53745
#
# Poissons Ratio (x) = 0.07438 0.40696
# Poissons Ratio (y) = 0.07438 0.40696
# Poissons Ratio (z) = 0.67649 0.67649
#
# Static dielectric constant tensor:
#      x y z
#    x 1.432310 0.000000 0.000000 
#    y 0.000000 1.432310 0.000000 
#    z 0.000000 0.000000 1.441410 
# 
# From -- ./inp_files/9101.got.cif
#   From: 2010.05.17/outbox.cif.g08.bks.cpg/sg191_5_cif.got.tgz:9101.got - 2010.05.20 12:20:32.
