data_PCOD9587737
_publ_section_title
;
Structure prediction by ZEFSAII (Michael W. Deem and Ramdas Pophale) SiO2 
 PCOD9587737
Probable space group: P 6/M M M
;
_chemical_formula_sum "Si O2"
_cell_formula_units_Z 108
_cell_length_a 18.239883
_cell_length_b 18.239883
_cell_length_c 22.412004
_cell_angle_alpha 90.000000
_cell_angle_beta 90.000000
_cell_angle_gamma 120.000000
_cell_volume 6457.366249
_symmetry_space_group_name_H-M "P 6/M M M"
_symmetry_group_IT_number 191
_symmetry_cell_setting 'hexagonal'
loop_
_space_group_symop_operation_xyz
x,y,z
x-y,x,z
-y,x-y,z
-x,-y,z
-x+y,-x,z
y,-x+y,z
x-y,-y,-z
-x,-x+y,-z
y,x,-z
-y,-x,-z
-x+y,y,-z
x,x-y,-z
-x,-y,-z
-x+y,-x,-z
y,-x+y,-z
x,y,-z
x-y,x,-z
-y,x-y,-z
-x+y,y,z
x,x-y,z
-y,-x,z
y,x,z
x-y,-y,z
-x,-x+y,z
loop_
_atom_site_type_symbol
_atom_site_label
_atom_site_fract_x
_atom_site_fract_y
_atom_site_fract_z
Si Si1 0.194329 0.097165 0.427460
Si Si2 0.195840 0.391680 0.571448
Si Si3 0.532257 0.634411 0.000000
Si Si4 0.465089 0.364491 0.645637
Si Si5 0.266582 0.901233 0.113150
Si Si6 0.332896 0.495125 0.219351
O O1 0.146365 0.146365 0.407071
O O2 0.191433 0.095717 0.500000
O O3 0.292573 0.146287 0.410944
O O4 0.198599 0.397197 0.500000
O O5 0.146678 0.435175 0.599782
O O6 0.568126 0.691700 0.058675
O O7 0.577847 0.577847 0.000000
O O8 0.431993 0.568008 0.000000
O O9 0.559518 0.440483 0.632499
O O10 0.404023 0.404023 0.643011
O O11 0.466448 0.334517 0.713051
O O12 0.166637 0.833364 0.113813
O O13 0.307415 0.888277 0.173172
O O14 0.294920 0.000000 0.106545
O O15 0.260273 0.520545 0.214574
O O16 0.424967 0.575034 0.206055
#
# Coordination Sequence:
#
# PCOD9587737 Si02
#       6
#    12  12  12  24  24  24
#     4   9  17  30  51  78 106 134 163 200 249 311
#     4  11  22  37  54  77 104 135 172 213 264 323
#     4   9  17  30  49  76 110 144 176 211 257 314
#     4  10  21  37  56  77 103 136 175 218 262 311
#     4  10  20  33  52  78 108 144 185 227 270 315
#     4  10  19  33  54  80 107 137 172 213 256 306
#
# _framework density 16.725085
#
# number of rings (size 3 to 8) (size 9 to 14) (size 15 to 20)
#    0.000    2.111    1.111    2.667    0.000    4.444 
#    0.667    1.111    0.000    3.333    0.000    0.000 
#    0.000    2.667    0.000    0.000    0.000    0.000 
#
# Total GULP energy -602537.682115 kJ/mol
# GULP energy per Si atom -5579.052612 kJ/mol
# Density = 1.668702 g / cm^3
# Si number density = 16.725085 Si / 1000 Ang^3
#
#
#
# Elastic Constant Matrix: (Units=GPa)
#
#
# Indices 1 2 3 4 5 6 
#
# 1 100.1824 66.8183 47.9800 0.0000 0.0000 0.0000
# 2 66.8183 100.1824 47.9800 0.0000 0.0000 0.0000
# 3 47.9800 47.9800 72.9313 0.0000 0.0000 0.0000
# 4 0.0000 0.0000 0.0000 20.1916 0.0000 0.0000
# 5 0.0000 0.0000 0.0000 0.0000 20.1916 0.0000
# 6 0.0000 0.0000 0.0000 0.0000 0.0000 16.6820
#
#
#
# Elastic Compliance Matrix: (Units=1/GPa)
#
#
# Indices 1 2 3 4 5 6 
#
# 1 0.019800 -0.010173 -0.006334 0.000000 0.000000 0.000000
# 2 -0.010173 0.019800 -0.006334 0.000000 0.000000 0.000000
# 3 -0.006334 -0.006334 0.022045 0.000000 0.000000 0.000000
# 4 0.000000 0.000000 0.000000 0.049526 0.000000 0.000000
# 5 0.000000 0.000000 0.000000 0.000000 0.049526 0.000000
# 6 0.000000 0.000000 0.000000 0.000000 0.000000 0.059945
#
#
# Mechanical properties :
#
#
# Convention : Reuss Voigt Hill
#
# Bulk Modulus (GPa) = 62.63612 66.53919 64.58765
# Shear Modulus (GPa) = 18.40657 18.78088 18.59372
#
# Velocity S-wave (km/s) = 3.32103 3.35463 3.33787
# Velocity P-wave (km/s) = 7.22754 7.40778 7.31822
#
# Compressibility (1/GPa) = 0.01596523
#
# Stress axis : x y z
#
# Youngs Moduli (GPa) = 50.50538 50.50538 45.36163
#
# Poissons Ratio (x) = 0.51377 0.28730
# Poissons Ratio (y) = 0.51377 0.28730
# Poissons Ratio (z) = 0.31988 0.31988
#
# Static dielectric constant tensor:
#      x y z
#    x 1.555220 0.000000 0.000000 
#    y 0.000000 1.555220 0.000000 
#    z 0.000000 0.000000 1.552070 
# 
# From -- ./inp_files/7372.got.cif
#   From: 2010.05.17/outbox.cif.g08.bks.cpg/sg191_4_cif.got.tgz:7372.got - 2010.05.20 12:20:32.
