data_PCOD9587171
_publ_section_title
;
Structure prediction by ZEFSAII (Michael W. Deem and Ramdas Pophale) SiO2 
 PCOD9587171
Probable space group: P 6/M M M
;
_chemical_formula_sum "Si O2"
_cell_formula_units_Z 168
_cell_length_a 25.887910
_cell_length_b 25.887910
_cell_length_c 19.462198
_cell_angle_alpha 90.000000
_cell_angle_beta 90.000000
_cell_angle_gamma 120.000000
_cell_volume 11295.787104
_symmetry_space_group_name_H-M "P 6/M M M"
_symmetry_group_IT_number 191
_symmetry_cell_setting 'hexagonal'
loop_
_space_group_symop_operation_xyz
x,y,z
x-y,x,z
-y,x-y,z
-x,-y,z
-x+y,-x,z
y,-x+y,z
x-y,-y,-z
-x,-x+y,-z
y,x,-z
-y,-x,-z
-x+y,y,-z
x,x-y,-z
-x,-y,-z
-x+y,-x,-z
y,-x+y,-z
x,y,-z
x-y,x,-z
-y,x-y,-z
-x+y,y,z
x,x-y,z
-y,-x,z
y,x,z
x-y,-y,z
-x,-x+y,z
loop_
_atom_site_type_symbol
_atom_site_label
_atom_site_fract_x
_atom_site_fract_y
_atom_site_fract_z
Si Si1 0.632587 0.930555 0.080019
Si Si2 0.333751 0.789276 0.292558
Si Si3 0.829039 0.293521 0.422200
Si Si4 0.067519 0.816551 0.136951
Si Si5 0.930553 0.241863 0.724887
Si Si6 0.431966 0.277160 0.801858
Si Si7 0.070745 0.740263 0.575880
O O1 0.690308 0.924008 0.097598
O O2 0.581477 0.885214 0.130619
O O3 0.654535 0.000000 0.094577
O O4 0.617824 0.918863 0.000000
O O5 0.395692 0.791383 0.282839
O O6 0.278644 0.721357 0.294229
O O7 0.331242 0.819395 0.364277
O O8 0.318173 0.822986 0.233658
O O9 0.824658 0.311783 0.500000
O O10 0.774638 0.225363 0.413029
O O11 0.889945 0.291723 0.416274
O O12 0.118298 0.881702 0.116873
O O13 0.074769 0.804895 0.217528
O O14 0.000000 0.800350 0.125130
O O15 0.885944 0.264588 0.748936
O O16 0.918023 0.221966 0.645576
O O17 0.000000 0.294001 0.729414
O O18 0.426538 0.213269 0.816955
O O19 0.086034 0.769880 0.500000
O O20 0.000000 0.693856 0.575229
#
# Coordination Sequence:
#
# PCOD9587171 Si02
#       7
#    24  24  24  24  24  24  24
#     4   9  17  29  47  72  99 121 138 165 209 256
#     4  10  20  33  48  66  87 112 144 184 227 263
#     4   9  17  29  45  64  85 112 149 189 226 263
#     4   9  17  27  41  62  89 120 150 182 219 257
#     4   9  15  24  40  61  86 113 141 176 215 256
#     4  10  18  28  45  66  87 114 146 176 208 253
#     4   9  16  25  39  60  87 117 145 175 214 260
#
# _framework density 14.872802
#
# number of rings (size 3 to 8) (size 9 to 14) (size 15 to 20)
#    0.000    2.714    1.429    3.143    0.000    2.000 
#    0.000    0.000    0.000    5.286    0.000    3.000 
#    0.000    1.143    0.000    3.571    0.000    0.000 
#
# Total GULP energy -935293.841204 kJ/mol
# GULP energy per Si atom -5567.225245 kJ/mol
# Density = 1.483895 g / cm^3
# Si number density = 14.872802 Si / 1000 Ang^3
#
#
#
# Elastic Constant Matrix: (Units=GPa)
#
#
# Indices 1 2 3 4 5 6 
#
# 1 54.0665 23.2068 22.3048 0.0000 0.0000 0.0000
# 2 23.2068 54.0665 22.3048 0.0000 0.0000 0.0000
# 3 22.3048 22.3048 96.2705 0.0000 0.0000 0.0000
# 4 0.0000 0.0000 0.0000 12.5850 0.0000 0.0000
# 5 0.0000 0.0000 0.0000 0.0000 12.5850 0.0000
# 6 0.0000 0.0000 0.0000 0.0000 0.0000 15.4299
#
#
#
# Elastic Compliance Matrix: (Units=1/GPa)
#
#
# Indices 1 2 3 4 5 6 
#
# 1 0.023672 -0.008733 -0.003461 0.000000 0.000000 0.000000
# 2 -0.008733 0.023672 -0.003461 0.000000 0.000000 0.000000
# 3 -0.003461 -0.003461 0.011991 0.000000 0.000000 0.000000
# 4 0.000000 0.000000 0.000000 0.079460 0.000000 0.000000
# 5 0.000000 0.000000 0.000000 0.000000 0.079460 0.000000
# 6 0.000000 0.000000 0.000000 0.000000 0.000000 0.064809
#
#
# Mechanical properties :
#
#
# Convention : Reuss Voigt Hill
#
# Bulk Modulus (GPa) = 35.68277 37.78182 36.73229
# Shear Modulus (GPa) = 15.44564 17.22578 16.33571
#
# Velocity S-wave (km/s) = 3.22610 3.40694 3.31775
# Velocity P-wave (km/s) = 6.15800 6.39803 6.27916
#
# Compressibility (1/GPa) = 0.02802473
#
# Stress axis : x y z
#
# Youngs Moduli (GPa) = 42.24404 42.24404 83.39404
#
# Poissons Ratio (x) = 0.36891 0.28865
# Poissons Ratio (y) = 0.36891 0.28865
# Poissons Ratio (z) = 0.14622 0.14622
#
# Static dielectric constant tensor:
#      x y z
#    x 1.476790 0.000000 0.000000 
#    y 0.000000 1.476790 0.000000 
#    z 0.000000 0.000000 1.537940 
# 
# From -- ./inp_files/7978.got.cif
#   From: 2010.05.17/outbox.cif.g08.bks.cpg/sg191_4_cif.got.tgz:7978.got - 2010.05.20 12:20:32.
