data_PCOD9587402
_publ_section_title
;
Structure prediction by ZEFSAII (Michael W. Deem and Ramdas Pophale) SiO2 
 PCOD9587402
Probable space group: P 6/M M M
;
_chemical_formula_sum "Si O2"
_cell_formula_units_Z 168
_cell_length_a 22.781705
_cell_length_b 22.781705
_cell_length_c 24.515903
_cell_angle_alpha 90.000000
_cell_angle_beta 90.000000
_cell_angle_gamma 120.000000
_cell_volume 11019.223043
_symmetry_space_group_name_H-M "P 6/M M M"
_symmetry_group_IT_number 191
_symmetry_cell_setting 'hexagonal'
loop_
_space_group_symop_operation_xyz
x,y,z
x-y,x,z
-y,x-y,z
-x,-y,z
-x+y,-x,z
y,-x+y,z
x-y,-y,-z
-x,-x+y,-z
y,x,-z
-y,-x,-z
-x+y,y,-z
x,x-y,-z
-x,-y,-z
-x+y,-x,-z
y,-x+y,-z
x,y,-z
x-y,x,-z
-y,x-y,-z
-x+y,y,z
x,x-y,z
-y,-x,z
y,x,z
x-y,-y,z
-x,-x+y,z
loop_
_atom_site_type_symbol
_atom_site_label
_atom_site_fract_x
_atom_site_fract_y
_atom_site_fract_z
Si Si1 0.618103 0.699850 0.561131
Si Si2 0.193583 0.526438 0.262373
Si Si3 0.081520 0.609056 0.062680
Si Si4 0.432336 0.284891 0.841402
Si Si5 0.922538 0.391241 0.349699
Si Si6 0.921418 0.706145 0.223627
Si Si7 0.078206 0.793819 0.650183
O O1 0.609262 0.718810 0.500000
O O2 0.662856 0.662856 0.556999
O O3 0.550490 0.646404 0.592351
O O4 0.658188 0.759593 0.604356
O O5 0.263728 0.527455 0.274546
O O6 0.203632 0.601816 0.262604
O O7 0.167509 0.490590 0.203938
O O8 0.134354 0.481708 0.305516
O O9 0.099700 0.549850 0.072944
O O10 0.114667 0.667791 0.106781
O O11 0.000000 0.572305 0.066584
O O12 0.100318 0.632357 0.000000
O O13 0.432290 0.216145 0.856218
O O14 0.360171 0.261357 0.812406
O O15 0.924317 0.462159 0.353316
O O16 0.000000 0.409866 0.335427
O O17 0.863329 0.726657 0.213506
O O18 0.915287 0.687796 0.288199
O O19 0.000000 0.762736 0.214178
O O20 0.126200 0.873801 0.647247
O O21 0.000000 0.768584 0.641106
#
# Coordination Sequence:
#
# PCOD9587402 Si02
#       7
#    24  24  24  24  24  24  24
#     4   9  17  28  42  61  85 112 139 169 211 262
#     4  10  20  33  48  66  89 117 149 184 222 264
#     4   9  18  32  48  65  87 117 151 184 217 255
#     4  10  19  29  45  69  92 116 147 183 225 267
#     4   9  18  31  46  66  90 113 140 177 219 261
#     4   9  17  29  46  68  94 122 150 183 224 269
#     4   9  17  29  44  62  86 115 145 178 217 261
#
# _framework density 15.246084
#
# number of rings (size 3 to 8) (size 9 to 14) (size 15 to 20)
#    0.000    2.714    0.000    2.286    0.000    4.857 
#    0.000    2.857    0.000    0.571    0.000    2.000 
#    0.000    1.143    0.000    3.571    0.000    3.714 
#
# Total GULP energy -935584.957176 kJ/mol
# GULP energy per Si atom -5568.958078 kJ/mol
# Density = 1.521138 g / cm^3
# Si number density = 15.246084 Si / 1000 Ang^3
#
#
#
# Elastic Constant Matrix: (Units=GPa)
#
#
# Indices 1 2 3 4 5 6 
#
# 1 80.3159 49.2502 58.5541 0.0000 0.0000 0.0000
# 2 49.2502 80.3159 58.5541 0.0000 0.0000 0.0000
# 3 58.5541 58.5541 112.1183 0.0000 0.0000 0.0000
# 4 0.0000 0.0000 0.0000 18.8798 0.0000 0.0000
# 5 0.0000 0.0000 0.0000 0.0000 18.8798 0.0000
# 6 0.0000 0.0000 0.0000 0.0000 0.0000 15.5328
#
#
#
# Elastic Compliance Matrix: (Units=1/GPa)
#
#
# Indices 1 2 3 4 5 6 
#
# 1 0.023404 -0.008786 -0.007635 0.000000 0.000000 0.000000
# 2 -0.008786 0.023404 -0.007635 0.000000 0.000000 0.000000
# 3 -0.007635 -0.007635 0.016894 0.000000 0.000000 0.000000
# 4 0.000000 0.000000 0.000000 0.052967 0.000000 0.000000
# 5 0.000000 0.000000 0.000000 0.000000 0.052967 0.000000
# 6 0.000000 0.000000 0.000000 0.000000 0.000000 0.064380
#
#
# Mechanical properties :
#
#
# Convention : Reuss Voigt Hill
#
# Bulk Modulus (GPa) = 64.13416 67.27412 65.70414
# Shear Modulus (GPa) = 17.40205 17.75125 17.57665
#
# Velocity S-wave (km/s) = 3.38214 3.41591 3.39907
# Velocity P-wave (km/s) = 7.57688 7.73170 7.65468
#
# Compressibility (1/GPa) = 0.01559231
#
# Stress axis : x y z
#
# Youngs Moduli (GPa) = 42.72725 42.72725 59.19422
#
# Poissons Ratio (x) = 0.37539 0.45192
# Poissons Ratio (y) = 0.37539 0.45192
# Poissons Ratio (z) = 0.32621 0.32621
#
# Static dielectric constant tensor:
#      x y z
#    x 1.507860 0.000000 0.000000 
#    y 0.000000 1.507860 0.000000 
#    z 0.000000 0.000000 1.500140 
# 
# From -- ./inp_files/7895.got.cif
#   From: 2010.05.17/outbox.cif.g08.bks.cpg/sg191_4_cif.got.tgz:7895.got - 2010.05.20 12:20:32.
