data_PCOD9587693
_publ_section_title
;
Structure prediction by ZEFSAII (Michael W. Deem and Ramdas Pophale) SiO2 
 PCOD9587693
Probable space group: P 6/M M M
;
_chemical_formula_sum "Si O2"
_cell_formula_units_Z 192
_cell_length_a 23.512107
_cell_length_b 23.512107
_cell_length_c 23.076995
_cell_angle_alpha 90.000000
_cell_angle_beta 90.000000
_cell_angle_gamma 120.000000
_cell_volume 11048.237120
_symmetry_space_group_name_H-M "P 6/M M M"
_symmetry_group_IT_number 191
_symmetry_cell_setting 'hexagonal'
loop_
_space_group_symop_operation_xyz
x,y,z
x-y,x,z
-y,x-y,z
-x,-y,z
-x+y,-x,z
y,-x+y,z
x-y,-y,-z
-x,-x+y,-z
y,x,-z
-y,-x,-z
-x+y,y,-z
x,x-y,-z
-x,-y,-z
-x+y,-x,-z
y,-x+y,-z
x,y,-z
x-y,x,-z
-y,x-y,-z
-x+y,y,z
x,x-y,z
-y,-x,z
y,x,z
x-y,-y,z
-x,-x+y,z
loop_
_atom_site_type_symbol
_atom_site_label
_atom_site_fract_x
_atom_site_fract_y
_atom_site_fract_z
Si Si1 0.075249 0.275691 0.185491
Si Si2 0.275611 0.073427 0.569806
Si Si3 0.924705 0.259562 0.935602
Si Si4 0.798990 0.333316 0.429947
Si Si5 0.268996 0.405471 0.262634
Si Si6 0.510913 0.687244 0.063515
Si Si7 0.663893 0.200949 0.188814
Si Si8 0.595529 0.671697 0.383489
O O1 0.125333 0.250666 0.199678
O O2 0.083406 0.296920 0.118031
O O3 0.098218 0.341959 0.222070
O O4 0.000000 0.224986 0.197137
O O5 0.272032 0.073415 0.500000
O O6 0.266860 0.133430 0.591781
O O7 0.346680 0.084222 0.586598
O O8 0.222680 0.000000 0.590412
O O9 0.875316 0.287268 0.930082
O O10 0.000000 0.317964 0.932855
O O11 0.914627 0.229384 0.000000
O O12 0.799884 0.331913 0.500000
O O13 0.791051 0.395526 0.412658
O O14 0.735903 0.264098 0.410628
O O15 0.867637 0.341960 0.407542
O O16 0.203332 0.406663 0.282850
O O17 0.311343 0.470865 0.225163
O O18 0.309899 0.402384 0.316207
O O19 0.504251 0.752125 0.062044
O O20 0.475885 0.651770 0.122354
O O21 0.489249 0.654669 0.000000
O O22 0.598574 0.197148 0.212714
O O23 0.724257 0.275744 0.188797
O O24 0.615600 0.615600 0.392081
#
# Coordination Sequence:
#
# PCOD9587693 Si02
#       8
#    24  24  24  24  24  24  24  24
#     4  10  19  32  51  74 100 129 163 204 249 298
#     4   9  17  30  50  77 108 141 176 212 252 299
#     4   9  16  26  45  72  99 125 156 199 248 297
#     4  10  21  38  60  84 110 141 177 215 252 294
#     4  10  20  35  53  73  99 134 174 215 255 297
#     4   9  16  28  47  69  94 124 159 199 245 298
#     4  10  20  34  51  72  97 128 166 208 255 304
#     4  11  22  35  54  80 109 138 168 210 263 316
#
# _framework density 17.378337999999999
#
# number of rings (size 3 to 8) (size 9 to 14) (size 15 to 20)
#    0.000    2.250    1.250    2.500    0.000    4.000 
#    0.000    0.625    0.000    5.500    0.000    2.625 
#    0.000    0.000    0.000    7.125    0.000    2.750 
#
# Total GULP energy -1070441.797966 kJ/mol
# GULP energy per Si atom -5575.217698 kJ/mol
# Density = 1.733878 g / cm^3
# Si number density = 17.378338 Si / 1000 Ang^3
#
#
#
# Elastic Constant Matrix: (Units=GPa)
#
#
# Indices 1 2 3 4 5 6 
#
# 1 103.0279 72.0964 22.7763 0.0000 0.0000 0.0000
# 2 72.0964 103.0279 22.7763 0.0000 0.0000 0.0000
# 3 22.7763 22.7763 29.5925 0.0000 0.0000 0.0000
# 4 0.0000 0.0000 0.0000 29.1414 0.0000 0.0000
# 5 0.0000 0.0000 0.0000 0.0000 29.1414 0.0000
# 6 0.0000 0.0000 0.0000 0.0000 0.0000 15.4657
#
#
#
# Elastic Compliance Matrix: (Units=1/GPa)
#
#
# Indices 1 2 3 4 5 6 
#
# 1 0.019735 -0.012595 -0.005495 0.000000 0.000000 0.000000
# 2 -0.012595 0.019735 -0.005495 0.000000 0.000000 0.000000
# 3 -0.005495 -0.005495 0.042251 0.000000 0.000000 0.000000
# 4 0.000000 0.000000 0.000000 0.034315 0.000000 0.000000
# 5 0.000000 0.000000 0.000000 0.000000 0.034315 0.000000
# 6 0.000000 0.000000 0.000000 0.000000 0.000000 0.064659
#
#
# Mechanical properties :
#
#
# Convention : Reuss Voigt Hill
#
# Bulk Modulus (GPa) = 28.94362 52.32738 40.63550
# Shear Modulus (GPa) = 18.26835 22.61631 20.44233
#
# Velocity S-wave (km/s) = 3.24576 3.61142 3.43346
# Velocity P-wave (km/s) = 5.54417 6.89680 6.25714
#
# Compressibility (1/GPa) = 0.03454993
#
# Stress axis : x y z
#
# Youngs Moduli (GPa) = 50.67246 50.67246 23.66799
#
# Poissons Ratio (x) = 0.63822 0.13006
# Poissons Ratio (y) = 0.63822 0.13006
# Poissons Ratio (z) = 0.27845 0.27845
#
# Static dielectric constant tensor:
#      x y z
#    x 1.581210 0.000000 0.000000 
#    y 0.000000 1.581210 0.000000 
#    z 0.000000 0.000000 1.616520 
# 
# From -- ./inp_files/8107.got.cif
#   From: 2010.05.17/outbox.cif.g08.bks.cpg/sg191_5_cif.got.tgz:8107.got - 2010.05.20 12:20:32.
