data_PCOD9587049
_publ_section_title
;
Structure prediction by ZEFSAII (Michael W. Deem and Ramdas Pophale) SiO2 
 PCOD9587049
Probable space group: P 6/M M M
;
_chemical_formula_sum "Si O2"
_cell_formula_units_Z 120
_cell_length_a 28.910690
_cell_length_b 28.910690
_cell_length_c 12.213167
_cell_angle_alpha 90.000000
_cell_angle_beta 90.000000
_cell_angle_gamma 120.000000
_cell_volume 8840.479902
_symmetry_space_group_name_H-M "P 6/M M M"
_symmetry_group_IT_number 191
_symmetry_cell_setting 'hexagonal'
loop_
_space_group_symop_operation_xyz
x,y,z
x-y,x,z
-y,x-y,z
-x,-y,z
-x+y,-x,z
y,-x+y,z
x-y,-y,-z
-x,-x+y,-z
y,x,-z
-y,-x,-z
-x+y,y,-z
x,x-y,-z
-x,-y,-z
-x+y,-x,-z
y,-x+y,-z
x,y,-z
x-y,x,-z
-y,x-y,-z
-x+y,y,z
x,x-y,z
-y,-x,z
y,x,z
x-y,-y,z
-x,-x+y,z
loop_
_atom_site_type_symbol
_atom_site_label
_atom_site_fract_x
_atom_site_fract_y
_atom_site_fract_z
Si Si1 0.728897 0.564937 0.500000
Si Si2 0.756725 0.061623 0.737219
Si Si3 0.900395 0.205968 0.500000
Si Si4 0.063751 0.586413 0.126510
Si Si5 0.847955 0.695910 0.875042
Si Si6 0.565840 0.873617 0.263083
Si Si7 0.566376 0.783188 0.125104
O O1 0.773196 0.546392 0.500000
O O2 0.763475 0.629665 0.500000
O O3 0.695442 0.550273 0.388311
O O4 0.776285 0.066760 0.611815
O O5 0.808677 0.097934 0.810836
O O6 0.719182 0.088636 0.742384
O O7 0.723926 0.000000 0.770899
O O8 0.856609 0.143392 0.500000
O O9 0.074883 0.537442 0.140921
O O10 0.095156 0.634067 0.210503
O O11 0.000000 0.560933 0.139341
O O12 0.077002 0.605418 0.000000
O O13 0.815563 0.631125 0.876904
O O14 0.857476 0.714951 0.000000
O O15 0.551007 0.821358 0.191005
O O16 0.547384 0.773692 0.000000
#
# Coordination Sequence:
#
# PCOD9587049 Si02
#       7
#    12  24  12  24  12  24  12
#     4   9  16  27  42  63  88 119 139 169 218 263
#     4  10  18  27  42  61  81 110 146 180 211 246
#     4   9  15  27  43  57  79 109 141 176 211 243
#     4   9  18  32  47  62  85 119 154 187 223 260
#     4   9  18  29  37  53  83 112 138 172 213 250
#     4  10  17  28  44  64  89 114 147 180 219 260
#     4   9  16  25  41  63  85 108 139 182 220 253
#
# _framework density 13.573923000000001
#
# number of rings (size 3 to 8) (size 9 to 14) (size 15 to 20)
#    0.000    2.600    2.000    2.100    0.000    1.200 
#    0.000    2.000    0.000    1.200    0.000    0.000 
#    1.000    0.000    1.200    0.300    0.000    2.600 
#
# Total GULP energy -668328.430192 kJ/mol
# GULP energy per Si atom -5569.403585 kJ/mol
# Density = 1.354303 g / cm^3
# Si number density = 13.573923 Si / 1000 Ang^3
#
#
#
# Elastic Constant Matrix: (Units=GPa)
#
#
# Indices 1 2 3 4 5 6 
#
# 1 67.5764 25.7395 52.1337 0.0000 0.0000 0.0000
# 2 25.7395 67.5764 52.1337 0.0000 0.0000 0.0000
# 3 52.1337 52.1337 138.2417 0.0000 0.0000 0.0000
# 4 0.0000 0.0000 0.0000 18.3173 0.0000 0.0000
# 5 0.0000 0.0000 0.0000 0.0000 18.3173 0.0000
# 6 0.0000 0.0000 0.0000 0.0000 0.0000 20.9185
#
#
#
# Elastic Compliance Matrix: (Units=1/GPa)
#
#
# Indices 1 2 3 4 5 6 
#
# 1 0.021211 -0.002691 -0.006984 0.000000 0.000000 0.000000
# 2 -0.002691 0.021211 -0.006984 0.000000 0.000000 0.000000
# 3 -0.006984 -0.006984 0.012502 0.000000 0.000000 0.000000
# 4 0.000000 0.000000 0.000000 0.054593 0.000000 0.000000
# 5 0.000000 0.000000 0.000000 0.000000 0.054593 0.000000
# 6 0.000000 0.000000 0.000000 0.000000 0.000000 0.047805
#
#
# Mechanical properties :
#
#
# Convention : Reuss Voigt Hill
#
# Bulk Modulus (GPa) = 46.28608 59.26759 52.77684
# Shear Modulus (GPa) = 19.80694 21.06977 20.43836
#
# Velocity S-wave (km/s) = 3.82408 3.94410 3.88455
# Velocity P-wave (km/s) = 7.32608 8.03112 7.68669
#
# Compressibility (1/GPa) = 0.02160477
#
# Stress axis : x y z
#
# Youngs Moduli (GPa) = 47.14455 47.14455 79.98958
#
# Poissons Ratio (x) = 0.12686 0.55868
# Poissons Ratio (y) = 0.12686 0.55868
# Poissons Ratio (z) = 0.32928 0.32928
#
# Static dielectric constant tensor:
#      x y z
#    x 1.424750 0.000000 0.000000 
#    y 0.000000 1.424750 0.000000 
#    z 0.000000 0.000000 1.461420 
# 
# From -- ./inp_files/3303.got.cif
#   From: 2010.05.17/outbox.cif.g08.bks.cpg/sg191_2_cif.got.tgz:3303.got - 2010.05.20 12:20:32.
