data_PCOD9587887
_publ_section_title
;
Structure prediction by ZEFSAII (Michael W. Deem and Ramdas Pophale) SiO2 
 PCOD9587887
Probable space group: P 6/M M M
;
_chemical_formula_sum "Si O2"
_cell_formula_units_Z 168
_cell_length_a 21.507653
_cell_length_b 21.507653
_cell_length_c 24.062417
_cell_angle_alpha 90.000000
_cell_angle_beta 90.000000
_cell_angle_gamma 120.000000
_cell_volume 9639.531406
_symmetry_space_group_name_H-M "P 6/M M M"
_symmetry_group_IT_number 191
_symmetry_cell_setting 'hexagonal'
loop_
_space_group_symop_operation_xyz
x,y,z
x-y,x,z
-y,x-y,z
-x,-y,z
-x+y,-x,z
y,-x+y,z
x-y,-y,-z
-x,-x+y,-z
y,x,-z
-y,-x,-z
-x+y,y,-z
x,x-y,-z
-x,-y,-z
-x+y,-x,-z
y,-x+y,-z
x,y,-z
x-y,x,-z
-y,x-y,-z
-x+y,y,z
x,x-y,z
-y,-x,z
y,x,z
x-y,-y,z
-x,-x+y,z
loop_
_atom_site_type_symbol
_atom_site_label
_atom_site_fract_x
_atom_site_fract_y
_atom_site_fract_z
Si Si1 0.809960 0.476808 0.065667
Si Si2 0.560060 0.643726 0.839975
Si Si3 0.665949 0.194240 0.566303
Si Si4 0.300459 0.220275 0.796377
Si Si5 0.369292 0.284322 0.438994
Si Si6 0.479939 0.665136 0.263823
Si Si7 0.915488 0.287281 0.319484
O O1 0.744320 0.488639 0.083193
O O2 0.787525 0.393763 0.073469
O O3 0.880306 0.523876 0.102117
O O4 0.822731 0.492420 0.000000
O O5 0.582630 0.582630 0.833946
O O6 0.633598 0.719106 0.831802
O O7 0.507993 0.643891 0.791757
O O8 0.666588 0.206817 0.500000
O O9 0.596703 0.193406 0.590089
O O10 0.739964 0.260037 0.589010
O O11 0.666017 0.120399 0.569080
O O12 0.284236 0.142118 0.811579
O O13 0.235138 0.235138 0.801443
O O14 0.329680 0.238358 0.732934
O O15 0.358792 0.248418 0.500000
O O16 0.330162 0.330162 0.442507
O O17 0.347687 0.247125 0.378819
O O18 0.476591 0.738296 0.256048
O O19 0.402321 0.597680 0.277897
O O20 0.544061 0.682360 0.307504
O O21 0.000000 0.349876 0.319715
#
# Coordination Sequence:
#
# PCOD9587887 Si02
#       7
#    24  24  24  24  24  24  24
#     4  10  20  33  49  69  97 135 176 214 249 287
#     4  10  20  33  51  74  98 126 160 200 245 287
#     4   9  17  28  41  56  74  99 131 165 202 246
#     4   9  17  31  52  75  98 124 155 190 228 274
#     4   9  18  32  48  66  87 110 141 181 224 272
#     4  11  22  35  51  69  91 118 150 192 239 287
#     4   9  18  32  50  69  88 115 149 187 231 275
#
# _framework density 17.428232999999999
#
# number of rings (size 3 to 8) (size 9 to 14) (size 15 to 20)
#    0.000    2.429    0.000    4.714    0.000    5.429 
#    0.000    5.000    0.000    1.857    0.000    0.000 
#    0.000    0.000    0.000    0.000    0.000    0.000 
#
# Total GULP energy -935956.411710 kJ/mol
# GULP energy per Si atom -5571.169117 kJ/mol
# Density = 1.738857 g / cm^3
# Si number density = 17.428233 Si / 1000 Ang^3
#
#
#
# Elastic Constant Matrix: (Units=GPa)
#
#
# Indices 1 2 3 4 5 6 
#
# 1 80.5728 58.7216 19.7333 0.0000 0.0000 0.0000
# 2 58.7216 80.5728 19.7333 0.0000 0.0000 0.0000
# 3 19.7333 19.7333 65.6782 0.0000 0.0000 0.0000
# 4 0.0000 0.0000 0.0000 3.4655 0.0000 0.0000
# 5 0.0000 0.0000 0.0000 0.0000 3.4655 0.0000
# 6 0.0000 0.0000 0.0000 0.0000 0.0000 10.9256
#
#
#
# Elastic Compliance Matrix: (Units=1/GPa)
#
#
# Indices 1 2 3 4 5 6 
#
# 1 0.026805 -0.018958 -0.002358 0.000000 0.000000 0.000000
# 2 -0.018958 0.026805 -0.002358 0.000000 0.000000 0.000000
# 3 -0.002358 -0.002358 0.016642 0.000000 0.000000 0.000000
# 4 0.000000 0.000000 0.000000 0.288560 0.000000 0.000000
# 5 0.000000 0.000000 0.000000 0.000000 0.288560 0.000000
# 6 0.000000 0.000000 0.000000 0.000000 0.000000 0.091528
#
#
# Mechanical properties :
#
#
# Convention : Reuss Voigt Hill
#
# Bulk Modulus (GPa) = 43.65692 47.02225 45.33959
# Shear Modulus (GPa) = 6.29815 12.14704 9.22260
#
# Velocity S-wave (km/s) = 1.90305 2.64289 2.30288
# Velocity P-wave (km/s) = 5.47108 6.02928 5.75695
#
# Compressibility (1/GPa) = 0.02290588
#
# Stress axis : x y z
#
# Youngs Moduli (GPa) = 37.30580 37.30580 60.08713
#
# Poissons Ratio (x) = 0.70726 0.14167
# Poissons Ratio (y) = 0.70726 0.14167
# Poissons Ratio (z) = 0.08796 0.08796
#
# Static dielectric constant tensor:
#      x y z
#    x 1.589470 0.000000 0.000000 
#    y 0.000000 1.589470 0.000000 
#    z 0.000000 0.000000 1.668160 
# 
# From -- ./inp_files/8967.got.cif
#   From: 2010.05.17/outbox.cif.g08.bks.cpg/sg191_5_cif.got.tgz:8967.got - 2010.05.20 12:20:32.
