data_PCOD9587177
_publ_section_title
;
Structure prediction by ZEFSAII (Michael W. Deem and Ramdas Pophale) SiO2 
 PCOD9587177
Probable space group: P 6/M M M
;
_chemical_formula_sum "Si O2"
_cell_formula_units_Z 114
_cell_length_a 21.352295
_cell_length_b 21.352295
_cell_length_c 16.871883
_cell_angle_alpha 90.000000
_cell_angle_beta 90.000000
_cell_angle_gamma 120.000000
_cell_volume 6661.672968
_symmetry_space_group_name_H-M "P 6/M M M"
_symmetry_group_IT_number 191
_symmetry_cell_setting 'hexagonal'
loop_
_space_group_symop_operation_xyz
x,y,z
x-y,x,z
-y,x-y,z
-x,-y,z
-x+y,-x,z
y,-x+y,z
x-y,-y,-z
-x,-x+y,-z
y,x,-z
-y,-x,-z
-x+y,y,-z
x,x-y,-z
-x,-y,-z
-x+y,-x,-z
y,-x+y,-z
x,y,-z
x-y,x,-z
-y,x-y,-z
-x+y,y,z
x,x-y,z
-y,-x,z
y,x,z
x-y,-y,z
-x,-x+y,z
loop_
_atom_site_type_symbol
_atom_site_label
_atom_site_fract_x
_atom_site_fract_y
_atom_site_fract_z
Si Si1 0.837528 0.918764 0.406911
Si Si2 0.086074 0.468236 0.666685
Si Si3 0.220275 0.302140 0.905694
Si Si4 0.301282 0.843759 0.824342
Si Si5 0.542667 0.457334 0.904931
Si Si6 0.150870 0.301740 0.500000
Si Si7 0.321236 0.407978 0.500000
O O1 0.871577 0.871577 0.372738
O O2 0.858485 0.929243 0.500000
O O3 0.750870 0.875435 0.421821
O O4 0.095348 0.547674 0.672270
O O5 0.132635 0.458187 0.734214
O O6 0.107639 0.454721 0.579903
O O7 0.000000 0.412336 0.678675
O O8 0.136015 0.272029 0.891368
O O9 0.248020 0.248020 0.883451
O O10 0.263954 0.376732 0.859054
O O11 0.233393 0.317820 0.000000
O O12 0.241041 0.758960 0.831645
O O13 0.375819 0.872526 0.872275
O O14 0.500000 0.500000 0.878894
O O15 0.542677 0.457324 0.000000
O O16 0.236406 0.352129 0.500000
O O17 0.362068 0.362068 0.500000
#
# Coordination Sequence:
#
# PCOD9587177 Si02
#       7
#    12  24  24  24  12   6  12
#     4   8  13  22  40  66 100 140 174 202 238 300
#     4  10  20  37  59  78 100 133 181 230 270 321
#     4   9  17  30  50  77 109 142 176 215 260 311
#     4  11  22  35  54  81 113 143 178 220 271 324
#     4  11  22  38  62  86 111 148 191 226 263 321
#     4  10  18  28  45  68 106 128 160 212 274 326
#     4  10  21  34  52  77 100 132 174 227 285 324
#
# _framework density 17.112818999999998
#
# number of rings (size 3 to 8) (size 9 to 14) (size 15 to 20)
#    0.316    1.789    1.053    3.579    1.474    4.632 
#    0.632    0.000    0.000    0.211    0.000    1.474 
#    0.000    0.000    0.000    0.000    0.000    0.000 
#
# Total GULP energy -635157.397331 kJ/mol
# GULP energy per Si atom -5571.556117 kJ/mol
# Density = 1.707387 g / cm^3
# Si number density = 17.112819 Si / 1000 Ang^3
#
#
#
# Elastic Constant Matrix: (Units=GPa)
#
#
# Indices 1 2 3 4 5 6 
#
# 1 112.8880 69.8603 46.5958 0.0000 0.0000 0.0000
# 2 69.8603 112.8880 46.5958 0.0000 0.0000 0.0000
# 3 46.5958 46.5958 73.4351 0.0000 0.0000 0.0000
# 4 0.0000 0.0000 0.0000 11.5534 0.0000 0.0000
# 5 0.0000 0.0000 0.0000 0.0000 11.5534 0.0000
# 6 0.0000 0.0000 0.0000 0.0000 0.0000 21.5138
#
#
#
# Elastic Compliance Matrix: (Units=1/GPa)
#
#
# Indices 1 2 3 4 5 6 
#
# 1 0.015665 -0.007576 -0.005133 0.000000 0.000000 0.000000
# 2 -0.007576 0.015665 -0.005133 0.000000 0.000000 0.000000
# 3 -0.005133 -0.005133 0.020131 0.000000 0.000000 0.000000
# 4 0.000000 0.000000 0.000000 0.086555 0.000000 0.000000
# 5 0.000000 0.000000 0.000000 0.000000 0.086555 0.000000
# 6 0.000000 0.000000 0.000000 0.000000 0.000000 0.046482
#
#
# Mechanical properties :
#
#
# Convention : Reuss Voigt Hill
#
# Bulk Modulus (GPa) = 63.37686 69.47945 66.42816
# Shear Modulus (GPa) = 16.02589 18.00140 17.01365
#
# Velocity S-wave (km/s) = 3.06352 3.24686 3.15652
# Velocity P-wave (km/s) = 7.04476 7.39899 7.22405
#
# Compressibility (1/GPa) = 0.01577863
#
# Stress axis : x y z
#
# Youngs Moduli (GPa) = 63.83580 63.83580 49.67374
#
# Poissons Ratio (x) = 0.48360 0.25497
# Poissons Ratio (y) = 0.48360 0.25497
# Poissons Ratio (z) = 0.32767 0.32767
#
# Static dielectric constant tensor:
#      x y z
#    x 1.577660 0.000000 0.000000 
#    y 0.000000 1.577660 0.000000 
#    z 0.000000 0.000000 1.589830 
# 
# From -- ./inp_files/4440.got.cif
#   From: 2010.05.17/outbox.cif.g08.bks.cpg/sg191_3_cif.got.tgz:4440.got - 2010.05.20 12:20:32.
