data_PCOD9587692
_publ_section_title
;
Structure prediction by ZEFSAII (Michael W. Deem and Ramdas Pophale) SiO2 
 PCOD9587692
Probable space group: P 6/M M M
;
_chemical_formula_sum "Si O2"
_cell_formula_units_Z 168
_cell_length_a 20.976955
_cell_length_b 20.976955
_cell_length_c 23.538334
_cell_angle_alpha 90.000000
_cell_angle_beta 90.000000
_cell_angle_gamma 120.000000
_cell_volume 8969.975273
_symmetry_space_group_name_H-M "P 6/M M M"
_symmetry_group_IT_number 191
_symmetry_cell_setting 'hexagonal'
loop_
_space_group_symop_operation_xyz
x,y,z
x-y,x,z
-y,x-y,z
-x,-y,z
-x+y,-x,z
y,-x+y,z
x-y,-y,-z
-x,-x+y,-z
y,x,-z
-y,-x,-z
-x+y,y,-z
x,x-y,-z
-x,-y,-z
-x+y,-x,-z
y,-x+y,-z
x,y,-z
x-y,x,-z
-y,x-y,-z
-x+y,y,z
x,x-y,z
-y,-x,z
y,x,z
x-y,-y,z
-x,-x+y,z
loop_
_atom_site_type_symbol
_atom_site_label
_atom_site_fract_x
_atom_site_fract_y
_atom_site_fract_z
Si Si1 0.911721 0.385446 0.599998
Si Si2 0.693326 0.774483 0.892195
Si Si3 0.840630 0.308433 0.287385
Si Si4 0.083007 0.775400 0.758332
Si Si5 0.085359 0.637336 0.937145
Si Si6 0.472897 0.808623 0.835333
Si Si7 0.761544 0.674258 0.567439
O O1 0.893042 0.446521 0.573375
O O2 0.872268 0.363408 0.660882
O O3 0.894963 0.305912 0.574906
O O4 0.000000 0.429667 0.605617
O O5 0.710082 0.855041 0.905341
O O6 0.761360 0.761360 0.899223
O O7 0.670505 0.758601 0.825274
O O8 0.627057 0.714913 0.929677
O O9 0.756650 0.243351 0.296700
O O10 0.889095 0.268922 0.279483
O O11 0.843501 0.343929 0.226549
O O12 0.139071 0.860930 0.750635
O O13 0.000000 0.750266 0.745528
O O14 0.133083 0.636343 0.885560
O O15 0.000000 0.575915 0.931905
O O16 0.111739 0.632658 0.000000
O O17 0.385395 0.770790 0.835970
O O18 0.499148 0.749574 0.843816
O O19 0.771651 0.687679 0.500000
O O20 0.841008 0.682016 0.588577
O O21 0.728166 0.728166 0.588220
#
# Coordination Sequence:
#
# PCOD9587692 Si02
#       7
#    24  24  24  24  24  24  24
#     4  10  20  32  49  77 110 143 181 225 273 324
#     4   9  16  28  46  68  92 118 150 188 233 283
#     4  10  19  32  51  73  98 130 169 213 258 306
#     4   9  16  27  45  68  94 124 160 202 248 300
#     4  10  21  36  54  74  93 115 149 197 248 292
#     4  11  23  38  54  72  96 128 161 193 234 291
#     4   9  18  34  57  84 115 153 196 240 285 333
#
# _framework density 18.729147999999999
#
# number of rings (size 3 to 8) (size 9 to 14) (size 15 to 20)
#    0.000    2.286    1.429    1.857    0.000    2.571 
#    0.000    2.143    0.000    4.429    0.000    3.000 
#    0.000    0.000    0.000    8.143    0.000   10.000 
#
# Total GULP energy -935751.562950 kJ/mol
# GULP energy per Si atom -5569.949779 kJ/mol
# Density = 1.868652 g / cm^3
# Si number density = 18.729148 Si / 1000 Ang^3
#
#
#
# Elastic Constant Matrix: (Units=GPa)
#
#
# Indices 1 2 3 4 5 6 
#
# 1 90.3833 45.4775 15.8941 0.0000 0.0000 0.0000
# 2 45.4775 90.3833 15.8941 0.0000 0.0000 0.0000
# 3 15.8941 15.8941 45.1627 0.0000 0.0000 0.0000
# 4 0.0000 0.0000 0.0000 -20.9104 0.0000 0.0000
# 5 0.0000 0.0000 0.0000 0.0000 -20.9104 0.0000
# 6 0.0000 0.0000 0.0000 0.0000 0.0000 22.4529
#
#
#
# Elastic Compliance Matrix: (Units=1/GPa)
#
#
# Indices 1 2 3 4 5 6 
#
# 1 0.015145 -0.007124 -0.002823 0.000000 0.000000 0.000000
# 2 -0.007124 0.015145 -0.002823 0.000000 0.000000 0.000000
# 3 -0.002823 -0.002823 0.024129 0.000000 0.000000 0.000000
# 4 0.000000 0.000000 0.000000 -0.047823 0.000000 0.000000
# 5 0.000000 0.000000 0.000000 0.000000 -0.047823 0.000000
# 6 0.000000 0.000000 0.000000 0.000000 0.000000 0.044538
#
#
# Mechanical properties :
#
#
# Convention : Reuss Voigt Hill
#
# Bulk Modulus (GPa) = 34.62646 42.27343 38.44995
# Shear Modulus (GPa) = 129.95134 6.03733 67.99434
#
# Velocity S-wave (km/s) = 8.33878 1.79736 6.03182
# Velocity P-wave (km/s) = 10.54712 5.18915 8.31171
#
# Compressibility (1/GPa) = 0.02887965
#
# Stress axis : x y z
#
# Youngs Moduli (GPa) = 66.02886 66.02886 41.44387
#
# Poissons Ratio (x) = 0.47039 0.11699
# Poissons Ratio (y) = 0.47039 0.11699
# Poissons Ratio (z) = 0.18639 0.18639
#
# Static dielectric constant tensor:
#      x y z
#    x 1.660870 0.000000 0.000000 
#    y 0.000000 1.660870 0.000000 
#    z 0.000000 0.000000 1.682440 
# 
# From -- ./inp_files/9010.got.cif
#   From: 2010.05.17/outbox.cif.g08.bks.cpg/sg191_5_cif.got.tgz:9010.got - 2010.05.20 12:20:32.
