data_PCOD9587311
_publ_section_title
;
Structure prediction by ZEFSAII (Michael W. Deem and Ramdas Pophale) SiO2 
 PCOD9587311
Probable space group: P 6/M M M
;
_chemical_formula_sum "Si O2"
_cell_formula_units_Z 156
_cell_length_a 21.902066
_cell_length_b 21.902066
_cell_length_c 23.565018
_cell_angle_alpha 90.000000
_cell_angle_beta 90.000000
_cell_angle_gamma 120.000000
_cell_volume 9789.681762
_symmetry_space_group_name_H-M "P 6/M M M"
_symmetry_group_IT_number 191
_symmetry_cell_setting 'hexagonal'
loop_
_space_group_symop_operation_xyz
x,y,z
x-y,x,z
-y,x-y,z
-x,-y,z
-x+y,-x,z
y,-x+y,z
x-y,-y,-z
-x,-x+y,-z
y,x,-z
-y,-x,-z
-x+y,y,-z
x,x-y,-z
-x,-y,-z
-x+y,-x,-z
y,-x+y,-z
x,y,-z
x-y,x,-z
-y,x-y,-z
-x+y,y,z
x,x-y,z
-y,-x,z
y,x,z
x-y,-y,z
-x,-x+y,z
loop_
_atom_site_type_symbol
_atom_site_label
_atom_site_fract_x
_atom_site_fract_y
_atom_site_fract_z
Si Si1 0.080948 0.781428 0.362176
Si Si2 0.188925 0.666915 0.066419
Si Si3 0.580510 0.662263 0.157968
Si Si4 0.920837 0.214872 0.226233
Si Si5 0.610605 0.530646 0.278375
Si Si6 0.540376 0.841658 0.620397
Si Si7 0.458103 0.916205 0.432143
O O1 0.136838 0.863163 0.374238
O O2 0.083600 0.772672 0.293597
O O3 0.111481 0.735600 0.391171
O O4 0.000000 0.752709 0.377442
O O5 0.189061 0.594531 0.077211
O O6 0.266374 0.733627 0.075670
O O7 0.133903 0.672034 0.107768
O O8 0.170947 0.667298 0.000000
O O9 0.618833 0.618833 0.139621
O O10 0.639314 0.733829 0.187983
O O11 0.530879 0.621228 0.211349
O O12 0.864514 0.135487 0.213775
O O13 0.000000 0.234786 0.214701
O O14 0.540201 0.459800 0.294992
O O15 0.595239 0.595239 0.290507
O O16 0.673830 0.533567 0.314030
O O17 0.519729 0.759865 0.611991
O O18 0.497618 0.873796 0.588206
O O19 0.458386 0.916772 0.500000
O O20 0.500000 0.000000 0.414038
#
# Coordination Sequence:
#
# PCOD9587311 Si02
#       7
#    24  24  24  24  24  24  12
#     4   9  16  27  46  72 100 128 159 199 245 289
#     4  10  21  36  51  64  85 123 169 210 246 294
#     4  10  19  30  48  74  98 122 154 197 255 306
#     4   9  16  26  42  66  95 124 153 188 234 287
#     4  10  18  30  50  72  97 127 160 202 249 306
#     4  11  21  33  53  78 102 130 167 213 261 300
#     4  11  24  42  62  78  98 138 185 219 255 313
#
# _framework density 15.935145
#
# number of rings (size 3 to 8) (size 9 to 14) (size 15 to 20)
#    0.000    2.077    2.308    2.462    0.000    2.769 
#    0.462    0.769    0.000    0.308    0.000    2.154 
#    0.000    0.000    0.000    0.000    0.000    0.000 
#
# Total GULP energy -869106.746677 kJ/mol
# GULP energy per Si atom -5571.197094 kJ/mol
# Density = 1.589888 g / cm^3
# Si number density = 15.935145 Si / 1000 Ang^3
#
#
#
# Elastic Constant Matrix: (Units=GPa)
#
#
# Indices 1 2 3 4 5 6 
#
# 1 109.5654 71.8798 30.8808 0.0000 0.0000 0.0000
# 2 71.8798 109.5654 30.8808 0.0000 0.0000 0.0000
# 3 30.8808 30.8808 37.3301 0.0000 0.0000 0.0000
# 4 0.0000 0.0000 0.0000 16.5318 0.0000 0.0000
# 5 0.0000 0.0000 0.0000 0.0000 16.5318 0.0000
# 6 0.0000 0.0000 0.0000 0.0000 0.0000 18.8428
#
#
#
# Elastic Compliance Matrix: (Units=1/GPa)
#
#
# Indices 1 2 3 4 5 6 
#
# 1 0.017103 -0.009432 -0.006346 0.000000 0.000000 0.000000
# 2 -0.009432 0.017103 -0.006346 0.000000 0.000000 0.000000
# 3 -0.006346 -0.006346 0.037287 0.000000 0.000000 0.000000
# 4 0.000000 0.000000 0.000000 0.060489 0.000000 0.000000
# 5 0.000000 0.000000 0.000000 0.000000 0.060489 0.000000
# 6 0.000000 0.000000 0.000000 0.000000 0.000000 0.053071
#
#
# Mechanical properties :
#
#
# Convention : Reuss Voigt Hill
#
# Bulk Modulus (GPa) = 36.70265 58.19373 47.44819
# Shear Modulus (GPa) = 16.72947 18.56926 17.64937
#
# Velocity S-wave (km/s) = 3.24365 3.41736 3.33164
# Velocity P-wave (km/s) = 6.09187 7.22284 6.68133
#
# Compressibility (1/GPa) = 0.02724599
#
# Stress axis : x y z
#
# Youngs Moduli (GPa) = 58.46805 58.46805 26.81868
#
# Poissons Ratio (x) = 0.55147 0.17019
# Poissons Ratio (y) = 0.55147 0.17019
# Poissons Ratio (z) = 0.37104 0.37104
#
# Static dielectric constant tensor:
#      x y z
#    x 1.539460 0.000000 0.000000 
#    y 0.000000 1.539460 0.000000 
#    z 0.000000 0.000000 1.536580 
# 
# From -- ./inp_files/7718.got.cif
#   From: 2010.05.17/outbox.cif.g08.bks.cpg/sg191_4_cif.got.tgz:7718.got - 2010.05.20 12:20:32.
