data_PCOD9587650
_publ_section_title
;
Structure prediction by ZEFSAII (Michael W. Deem and Ramdas Pophale) SiO2 
 PCOD9587650
Probable space group: P 6/M M M
;
_chemical_formula_sum "Si O2"
_cell_formula_units_Z 168
_cell_length_a 23.384155
_cell_length_b 23.384155
_cell_length_c 20.431157
_cell_angle_alpha 90.000000
_cell_angle_beta 90.000000
_cell_angle_gamma 120.000000
_cell_volume 9675.356027
_symmetry_space_group_name_H-M "P 6/M M M"
_symmetry_group_IT_number 191
_symmetry_cell_setting 'hexagonal'
loop_
_space_group_symop_operation_xyz
x,y,z
x-y,x,z
-y,x-y,z
-x,-y,z
-x+y,-x,z
y,-x+y,z
x-y,-y,-z
-x,-x+y,-z
y,x,-z
-y,-x,-z
-x+y,y,-z
x,x-y,-z
-x,-y,-z
-x+y,-x,-z
y,-x+y,-z
x,y,-z
x-y,x,-z
-y,x-y,-z
-x+y,y,z
x,x-y,z
-y,-x,z
y,x,z
x-y,-y,z
-x,-x+y,z
loop_
_atom_site_type_symbol
_atom_site_label
_atom_site_fract_x
_atom_site_fract_y
_atom_site_fract_z
Si Si1 0.715648 0.792839 0.167027
Si Si2 0.538494 0.204831 0.596529
Si Si3 0.635465 0.924572 0.715168
Si Si4 0.667019 0.465305 0.889734
Si Si5 0.644265 0.481357 0.257254
Si Si6 0.395171 0.319771 0.922945
Si Si7 0.737700 0.124661 0.571327
O O1 0.736667 0.868334 0.153775
O O2 0.771718 0.771718 0.162617
O O3 0.682184 0.772172 0.238861
O O4 0.656841 0.743839 0.118213
O O5 0.595299 0.190598 0.574961
O O6 0.551706 0.275853 0.574602
O O7 0.537988 0.204000 0.675755
O O8 0.465332 0.150990 0.574843
O O9 0.559811 0.881983 0.737279
O O10 0.642350 0.914010 0.638416
O O11 0.657929 0.000000 0.727219
O O12 0.734735 0.469469 0.912940
O O13 0.601897 0.398104 0.911640
O O14 0.666837 0.464830 0.810388
O O15 0.663424 0.530464 0.908446
O O16 0.564147 0.435854 0.256866
O O17 0.377382 0.377382 0.907219
O O18 0.383228 0.305838 0.000000
O O19 0.731229 0.092778 0.500000
O O20 0.809338 0.190662 0.574235
#
# Coordination Sequence:
#
# PCOD9587650 Si02
#       7
#    24  24  24  24  24  24  24
#     4  10  20  35  57  84 111 138 171 211 252 298
#     4   9  16  26  41  60  83 112 151 200 252 304
#     4  10  19  31  50  75  98 125 164 209 255 301
#     4  11  22  35  53  76 105 140 178 221 269 322
#     4   9  18  30  45  67  94 127 164 207 258 311
#     4  10  22  39  58  81 107 139 179 220 266 313
#     4   9  18  31  45  62  89 125 159 194 243 302
#
# _framework density 17.363703000000001
#
# number of rings (size 3 to 8) (size 9 to 14) (size 15 to 20)
#    0.000    2.286    1.429    1.571    0.000    3.714 
#    0.000    3.571    0.000    1.857    0.000    4.000 
#    0.000    0.000    0.000    3.571    0.000    0.000 
#
# Total GULP energy -936448.469431 kJ/mol
# GULP energy per Si atom -5574.098032 kJ/mol
# Density = 1.732418 g / cm^3
# Si number density = 17.363703 Si / 1000 Ang^3
#
#
#
# Elastic Constant Matrix: (Units=GPa)
#
#
# Indices 1 2 3 4 5 6 
#
# 1 90.3346 62.0075 17.3217 0.0000 0.0000 0.0000
# 2 62.0075 90.3346 17.3217 0.0000 0.0000 0.0000
# 3 17.3217 17.3217 88.3789 0.0000 0.0000 0.0000
# 4 0.0000 0.0000 0.0000 45.5832 0.0000 0.0000
# 5 0.0000 0.0000 0.0000 0.0000 45.5832 0.0000
# 6 0.0000 0.0000 0.0000 0.0000 0.0000 14.1636
#
#
#
# Elastic Compliance Matrix: (Units=1/GPa)
#
#
# Indices 1 2 3 4 5 6 
#
# 1 0.021086 -0.014216 -0.001347 0.000000 0.000000 0.000000
# 2 -0.014216 0.021086 -0.001347 0.000000 0.000000 0.000000
# 3 -0.001347 -0.001347 0.011843 0.000000 0.000000 0.000000
# 4 0.000000 0.000000 0.000000 0.021938 0.000000 0.000000
# 5 0.000000 0.000000 0.000000 0.000000 0.021938 0.000000
# 6 0.000000 0.000000 0.000000 0.000000 0.000000 0.070604
#
#
# Mechanical properties :
#
#
# Convention : Reuss Voigt Hill
#
# Bulk Modulus (GPa) = 49.51151 51.37219 50.44185
# Shear Modulus (GPa) = 23.91834 32.55913 28.23873
#
# Velocity S-wave (km/s) = 3.71548 4.33497 4.03713
# Velocity P-wave (km/s) = 6.85439 7.39636 7.13053
#
# Compressibility (1/GPa) = 0.02019732
#
# Stress axis : x y z
#
# Youngs Moduli (GPa) = 47.42456 47.42456 84.43989
#
# Poissons Ratio (x) = 0.67417 0.11370
# Poissons Ratio (y) = 0.67417 0.11370
# Poissons Ratio (z) = 0.06386 0.06386
#
# Static dielectric constant tensor:
#      x y z
#    x 1.582250 0.000000 0.000000 
#    y 0.000000 1.582250 0.000000 
#    z 0.000000 0.000000 1.643230 
# 
# From -- ./inp_files/9162.got.cif
#   From: 2010.05.17/outbox.cif.g08.bks.cpg/sg191_5_cif.got.tgz:9162.got - 2010.05.20 12:20:32.
