data_PCOD9587902
_publ_section_title
;
Structure prediction by ZEFSAII (Michael W. Deem and Ramdas Pophale) SiO2 
 PCOD9587902
Probable space group: P 6/M M M
;
_chemical_formula_sum "Si O2"
_cell_formula_units_Z 168
_cell_length_a 18.209252
_cell_length_b 18.209252
_cell_length_c 35.943841
_cell_angle_alpha 90.000000
_cell_angle_beta 90.000000
_cell_angle_gamma 120.000000
_cell_volume 10321.417096
_symmetry_space_group_name_H-M "P 6/M M M"
_symmetry_group_IT_number 191
_symmetry_cell_setting 'hexagonal'
loop_
_space_group_symop_operation_xyz
x,y,z
x-y,x,z
-y,x-y,z
-x,-y,z
-x+y,-x,z
y,-x+y,z
x-y,-y,-z
-x,-x+y,-z
y,x,-z
-y,-x,-z
-x+y,y,-z
x,x-y,-z
-x,-y,-z
-x+y,-x,-z
y,-x+y,-z
x,y,-z
x-y,x,-z
-y,x-y,-z
-x+y,y,z
x,x-y,z
-y,-x,z
y,x,z
x-y,-y,z
-x,-x+y,z
loop_
_atom_site_type_symbol
_atom_site_label
_atom_site_fract_x
_atom_site_fract_y
_atom_site_fract_z
Si Si1 0.507606 0.666546 0.958091
Si Si2 0.638864 0.735510 0.455943
Si Si3 0.506234 0.839146 0.607214
Si Si4 0.355798 0.093745 0.896042
Si Si5 0.839261 0.332855 0.255362
Si Si6 0.266461 0.363795 0.190316
Si Si7 0.902713 0.634338 0.675892
O O1 0.489770 0.744885 0.955461
O O2 0.421285 0.578716 0.953840
O O3 0.573224 0.680688 0.925782
O O4 0.541026 0.669326 0.000000
O O5 0.620460 0.722362 0.500000
O O6 0.665678 0.832839 0.447396
O O7 0.709015 0.709015 0.447437
O O8 0.556141 0.678716 0.431246
O O9 0.424753 0.849505 0.611444
O O10 0.480551 0.740276 0.608461
O O11 0.574355 0.884480 0.640023
O O12 0.332824 0.166412 0.902974
O O13 0.387049 0.103663 0.853341
O O14 0.277708 0.000000 0.899680
O O15 0.849539 0.424770 0.259372
O O16 0.740372 0.259628 0.256671
O O17 0.877371 0.320895 0.216925
O O18 0.884561 0.310430 0.288319
O O19 0.168096 0.336192 0.197342
O O20 0.292890 0.292890 0.197678
O O21 0.830988 0.661975 0.675976
O O22 0.000000 0.708206 0.675909
#
# Coordination Sequence:
#
# PCOD9587902 Si02
#       7
#    24  24  24  24  24  24  24
#     4   9  17  29  45  65  90 120 152 184 218 258
#     4   9  18  32  49  69  93 122 156 194 237 282
#     4  10  20  33  49  70  97 128 160 193 230 272
#     4   9  18  32  48  66  89 117 149 185 227 273
#     4  10  20  33  49  70  97 128 160 192 226 264
#     4   9  18  32  49  68  90 118 151 187 228 272
#     4  10  21  35  51  72  97 125 156 192 235 279
#
# _framework density 16.276834999999998
#
# number of rings (size 3 to 8) (size 9 to 14) (size 15 to 20)
#    0.000    2.571    0.000    1.714    0.000    4.857 
#    0.000    4.286    0.000    3.143    0.000    3.000 
#    0.000    6.857    0.000    3.857    0.000    4.286 
#
# Total GULP energy -936368.286656 kJ/mol
# GULP energy per Si atom -5573.620754 kJ/mol
# Density = 1.623979 g / cm^3
# Si number density = 16.276835 Si / 1000 Ang^3
#
#
#
# Elastic Constant Matrix: (Units=GPa)
#
#
# Indices 1 2 3 4 5 6 
#
# 1 85.4088 77.2081 42.6190 0.0000 0.0000 0.0000
# 2 77.2081 85.4088 42.6190 0.0000 0.0000 0.0000
# 3 42.6190 42.6190 59.8921 0.0000 0.0000 0.0000
# 4 0.0000 0.0000 0.0000 19.2455 0.0000 0.0000
# 5 0.0000 0.0000 0.0000 0.0000 19.2455 0.0000
# 6 0.0000 0.0000 0.0000 0.0000 0.0000 4.1004
#
#
#
# Elastic Compliance Matrix: (Units=1/GPa)
#
#
# Indices 1 2 3 4 5 6 
#
# 1 0.065874 -0.056066 -0.006979 0.000000 0.000000 0.000000
# 2 -0.056066 0.065874 -0.006979 0.000000 0.000000 0.000000
# 3 -0.006979 -0.006979 0.026629 0.000000 0.000000 0.000000
# 4 0.000000 0.000000 0.000000 0.051960 0.000000 0.000000
# 5 0.000000 0.000000 0.000000 0.000000 0.051960 0.000000
# 6 0.000000 0.000000 0.000000 0.000000 0.000000 0.243880
#
#
# Mechanical properties :
#
#
# Convention : Reuss Voigt Hill
#
# Bulk Modulus (GPa) = 54.56068 61.73354 58.14711
# Shear Modulus (GPa) = 7.66476 13.06920 10.36698
#
# Velocity S-wave (km/s) = 2.17238 2.83668 2.52646
# Velocity P-wave (km/s) = 6.31550 6.98130 6.65673
#
# Compressibility (1/GPa) = 0.01832822
#
# Stress axis : x y z
#
# Youngs Moduli (GPa) = 15.18052 15.18052 37.55275
#
# Poissons Ratio (x) = 0.85112 0.26208
# Poissons Ratio (y) = 0.85112 0.26208
# Poissons Ratio (z) = 0.10595 0.10595
#
# Static dielectric constant tensor:
#      x y z
#    x 1.529710 0.000000 0.000000 
#    y 0.000000 1.529710 0.000000 
#    z 0.000000 0.000000 1.567980 
# 
# From -- ./inp_files/10740.got.cif
#   From: 2010.05.17/outbox.cif.g08.bks.cpg/sg191_6_cif.got.tgz:10740.got - 2010.05.20 12:20:32.
