data_PCOD9587687
_publ_section_title
;
Structure prediction by ZEFSAII (Michael W. Deem and Ramdas Pophale) SiO2 
 PCOD9587687
Probable space group: P 6/M M M
;
_chemical_formula_sum "Si O2"
_cell_formula_units_Z 156
_cell_length_a 23.043955
_cell_length_b 23.043955
_cell_length_c 20.159574
_cell_angle_alpha 90.000000
_cell_angle_beta 90.000000
_cell_angle_gamma 120.000000
_cell_volume 9270.988007
_symmetry_space_group_name_H-M "P 6/M M M"
_symmetry_group_IT_number 191
_symmetry_cell_setting 'hexagonal'
loop_
_space_group_symop_operation_xyz
x,y,z
x-y,x,z
-y,x-y,z
-x,-y,z
-x+y,-x,z
y,-x+y,z
x-y,-y,-z
-x,-x+y,-z
y,x,-z
-y,-x,-z
-x+y,y,-z
x,x-y,-z
-x,-y,-z
-x+y,-x,-z
y,-x+y,-z
x,y,-z
x-y,x,-z
-y,x-y,-z
-x+y,y,z
x,x-y,z
-y,-x,z
y,x,z
x-y,-y,z
-x,-x+y,z
loop_
_atom_site_type_symbol
_atom_site_label
_atom_site_fract_x
_atom_site_fract_y
_atom_site_fract_z
Si Si1 0.465528 0.799102 0.770681
Si Si2 0.080535 0.471041 0.000000
Si Si3 0.207489 0.923827 0.170224
Si Si4 0.570059 0.852594 0.884768
Si Si5 0.666486 0.197327 0.612311
Si Si6 0.922843 0.314499 0.425134
Si Si7 0.208420 0.923339 0.672498
O O1 0.406642 0.813284 0.790059
O O2 0.442183 0.721092 0.781367
O O3 0.530329 0.840282 0.815683
O O4 0.477811 0.810961 0.692254
O O5 0.114556 0.456872 0.062985
O O6 0.092730 0.546365 0.000000
O O7 0.000000 0.421870 0.000000
O O8 0.130110 0.869891 0.157878
O O9 0.251518 0.900062 0.129405
O O10 0.219859 0.919274 0.248914
O O11 0.229772 0.000000 0.155336
O O12 0.559872 0.779936 0.905785
O O13 0.602513 0.205026 0.595652
O O14 0.735725 0.264276 0.594077
O O15 0.662226 0.131486 0.581695
O O16 0.918609 0.288366 0.500000
O O17 0.908194 0.257434 0.371374
O O18 0.000000 0.372703 0.414860
O O19 0.132227 0.867774 0.658266
O O20 0.229141 0.000000 0.658277
#
# Coordination Sequence:
#
# PCOD9587687 Si02
#       7
#    24  12  24  24  24  24  24
#     4   9  17  30  49  71  94 120 153 193 235 277
#     4  11  23  36  48  64  94 133 163 189 228 278
#     4   9  17  30  50  74  98 124 155 193 235 279
#     4  10  19  32  51  72  93 120 157 200 239 274
#     4  10  20  34  52  73  96 122 152 188 232 284
#     4  10  21  35  50  68  91 122 159 199 242 283
#     4   9  17  30  49  73  99 126 158 196 238 283
#
# _framework density 16.826685999999999
#
# number of rings (size 3 to 8) (size 9 to 14) (size 15 to 20)
#    0.000    2.385    0.000    2.846    0.000    5.538 
#    0.000    1.538    0.000    5.231    0.000    2.154 
#    0.000    0.000    0.000    3.846    0.000   20.000 
#
# Total GULP energy -869896.986097 kJ/mol
# GULP energy per Si atom -5576.262731 kJ/mol
# Density = 1.678839 g / cm^3
# Si number density = 16.826686 Si / 1000 Ang^3
#
#
#
# Elastic Constant Matrix: (Units=GPa)
#
#
# Indices 1 2 3 4 5 6 
#
# 1 107.7712 66.0294 31.7239 0.0000 0.0000 0.0000
# 2 66.0294 107.7712 31.7239 0.0000 0.0000 0.0000
# 3 31.7239 31.7239 29.1963 0.0000 0.0000 0.0000
# 4 0.0000 0.0000 0.0000 15.4357 0.0000 0.0000
# 5 0.0000 0.0000 0.0000 0.0000 15.4357 0.0000
# 6 0.0000 0.0000 0.0000 0.0000 0.0000 20.8709
#
#
#
# Elastic Compliance Matrix: (Units=1/GPa)
#
#
# Indices 1 2 3 4 5 6 
#
# 1 0.016747 -0.007210 -0.010362 0.000000 0.000000 0.000000
# 2 -0.007210 0.016747 -0.010362 0.000000 0.000000 0.000000
# 3 -0.010362 -0.010362 0.056769 0.000000 0.000000 0.000000
# 4 0.000000 0.000000 0.000000 0.064785 0.000000 0.000000
# 5 0.000000 0.000000 0.000000 0.000000 0.064785 0.000000
# 6 0.000000 0.000000 0.000000 0.000000 0.000000 0.047914
#
#
# Mechanical properties :
#
#
# Convention : Reuss Voigt Hill
#
# Bulk Modulus (GPa) = 29.07490 55.96590 42.52040
# Shear Modulus (GPa) = 14.92181 18.03255 16.47718
#
# Velocity S-wave (km/s) = 2.98114 3.27718 3.13266
# Velocity P-wave (km/s) = 5.40057 6.90306 6.19752
#
# Compressibility (1/GPa) = 0.03439393
#
# Stress axis : x y z
#
# Youngs Moduli (GPa) = 59.71334 59.71334 17.61509
#
# Poissons Ratio (x) = 0.43054 0.18253
# Poissons Ratio (y) = 0.43054 0.18253
# Poissons Ratio (z) = 0.61876 0.61876
#
# Static dielectric constant tensor:
#      x y z
#    x 1.550570 0.000000 0.000000 
#    y 0.000000 1.550570 0.000000 
#    z 0.000000 0.000000 1.573210 
# 
# From -- ./inp_files/7728.got.cif
#   From: 2010.05.17/outbox.cif.g08.bks.cpg/sg191_4_cif.got.tgz:7728.got - 2010.05.20 12:20:32.
