data_PCOD9587409
_publ_section_title
;
Structure prediction by ZEFSAII (Michael W. Deem and Ramdas Pophale) SiO2 
 PCOD9587409
Probable space group: P 6/M M M
;
_chemical_formula_sum "Si O2"
_cell_formula_units_Z 192
_cell_length_a 23.164653
_cell_length_b 23.164653
_cell_length_c 25.354282
_cell_angle_alpha 90.000000
_cell_angle_beta 90.000000
_cell_angle_gamma 120.000000
_cell_volume 11782.394128
_symmetry_space_group_name_H-M "P 6/M M M"
_symmetry_group_IT_number 191
_symmetry_cell_setting 'hexagonal'
loop_
_space_group_symop_operation_xyz
x,y,z
x-y,x,z
-y,x-y,z
-x,-y,z
-x+y,-x,z
y,-x+y,z
x-y,-y,-z
-x,-x+y,-z
y,x,-z
-y,-x,-z
-x+y,y,-z
x,x-y,-z
-x,-y,-z
-x+y,-x,-z
y,-x+y,-z
x,y,-z
x-y,x,-z
-y,x-y,-z
-x+y,y,z
x,x-y,z
-y,-x,z
y,x,z
x-y,-y,z
-x,-x+y,z
loop_
_atom_site_type_symbol
_atom_site_label
_atom_site_fract_x
_atom_site_fract_y
_atom_site_fract_z
Si Si1 0.393519 0.924787 0.939348
Si Si2 0.277215 0.203928 0.705928
Si Si3 0.583637 0.859958 0.867722
Si Si4 0.806496 0.472317 0.658251
Si Si5 0.422034 0.141088 0.253524
Si Si6 0.148288 0.711925 0.441510
Si Si7 0.076535 0.790876 0.938550
Si Si8 0.717973 0.792961 0.420883
O O1 0.461403 0.922806 0.937131
O O2 0.338309 0.871186 0.902129
O O3 0.412718 0.000000 0.923886
O O4 0.371204 0.914881 0.000000
O O5 0.266970 0.133485 0.725868
O O6 0.223640 0.223640 0.724899
O O7 0.351111 0.261272 0.721320
O O8 0.275669 0.201403 0.642528
O O9 0.569983 0.784992 0.868971
O O10 0.579386 0.877958 0.807284
O O11 0.654641 0.903793 0.897141
O O12 0.732491 0.464982 0.658078
O O13 0.801438 0.400719 0.658008
O O14 0.845671 0.516379 0.709499
O O15 0.845352 0.515944 0.606606
O O16 0.423486 0.211743 0.253899
O O17 0.138922 0.681589 0.500000
O O18 0.219149 0.780851 0.441210
O O19 0.095236 0.736948 0.433170
O O20 0.131453 0.868548 0.931980
O O21 0.000000 0.770180 0.930950
O O22 0.082938 0.773788 0.000000
O O23 0.728758 0.864379 0.439846
O O24 0.768444 0.768444 0.439513
#
# Coordination Sequence:
#
# PCOD9587409 Si02
#       8
#    24  24  24  24  24  24  24  24
#     4   9  18  32  48  65  88 120 154 186 225 279
#     4   9  16  28  47  68  91 121 156 192 229 271
#     4  10  19  29  46  71  94 118 153 198 243 281
#     4  10  19  33  52  73  97 125 157 194 238 288
#     4   9  18  32  47  66  94 127 160 193 231 278
#     4   9  17  30  49  72  97 126 160 197 237 280
#     4   9  17  29  46  70 100 131 162 199 244 290
#     4   9  16  28  48  72  96 124 160 199 236 275
#
# _framework density 16.295499
#
# number of rings (size 3 to 8) (size 9 to 14) (size 15 to 20)
#    0.000    2.750    1.250    1.250    0.000    3.750 
#    0.000    0.000    0.000    2.875    0.000    3.500 
#    0.000    0.000    0.000    9.375    0.000    9.750 
#
# Total GULP energy -1069005.094278 kJ/mol
# GULP energy per Si atom -5567.734866 kJ/mol
# Density = 1.625841 g / cm^3
# Si number density = 16.295499 Si / 1000 Ang^3
#
#
#
# Elastic Constant Matrix: (Units=GPa)
#
#
# Indices 1 2 3 4 5 6 
#
# 1 84.0141 43.9622 44.6702 0.0000 0.0000 0.0000
# 2 43.9622 84.0141 44.6702 0.0000 0.0000 0.0000
# 3 44.6702 44.6702 91.5921 0.0000 0.0000 0.0000
# 4 0.0000 0.0000 0.0000 2.8564 0.0000 0.0000
# 5 0.0000 0.0000 0.0000 0.0000 2.8564 0.0000
# 6 0.0000 0.0000 0.0000 0.0000 0.0000 20.0260
#
#
#
# Elastic Compliance Matrix: (Units=1/GPa)
#
#
# Indices 1 2 3 4 5 6 
#
# 1 0.018408 -0.006560 -0.005778 0.000000 0.000000 0.000000
# 2 -0.006560 0.018408 -0.005778 0.000000 0.000000 0.000000
# 3 -0.005778 -0.005778 0.016554 0.000000 0.000000 0.000000
# 4 0.000000 0.000000 0.000000 0.350087 0.000000 0.000000
# 5 0.000000 0.000000 0.000000 0.000000 0.350087 0.000000
# 6 0.000000 0.000000 0.000000 0.000000 0.000000 0.049935
#
#
# Mechanical properties :
#
#
# Convention : Reuss Voigt Hill
#
# Bulk Modulus (GPa) = 58.35433 58.46949 58.41191
# Shear Modulus (GPa) = 5.91419 13.56894 9.74157
#
# Velocity S-wave (km/s) = 1.90715 2.88875 2.44766
# Velocity P-wave (km/s) = 6.38259 6.86186 6.62656
#
# Compressibility (1/GPa) = 0.01713669
#
# Stress axis : x y z
#
# Youngs Moduli (GPa) = 54.32518 54.32518 60.40778
#
# Poissons Ratio (x) = 0.35637 0.34905
# Poissons Ratio (y) = 0.35637 0.34905
# Poissons Ratio (z) = 0.31390 0.31390
#
# Static dielectric constant tensor:
#      x y z
#    x 1.543000 0.000000 0.000000 
#    y 0.000000 1.543000 0.000000 
#    z 0.000000 0.000000 1.578790 
# 
# From -- ./inp_files/8128.got.cif
#   From: 2010.05.17/outbox.cif.g08.bks.cpg/sg191_5_cif.got.tgz:8128.got - 2010.05.20 12:20:32.
