data_PCOD9587529
_publ_section_title
;
Structure prediction by ZEFSAII (Michael W. Deem and Ramdas Pophale) SiO2 
 PCOD9587529
Probable space group: P 6/M M M
;
_chemical_formula_sum "Si O2"
_cell_formula_units_Z 108
_cell_length_a 22.205572
_cell_length_b 22.205572
_cell_length_c 16.977758
_cell_angle_alpha 90.000000
_cell_angle_beta 90.000000
_cell_angle_gamma 120.000000
_cell_volume 7249.948142
_symmetry_space_group_name_H-M "P 6/M M M"
_symmetry_group_IT_number 191
_symmetry_cell_setting 'hexagonal'
loop_
_space_group_symop_operation_xyz
x,y,z
x-y,x,z
-y,x-y,z
-x,-y,z
-x+y,-x,z
y,-x+y,z
x-y,-y,-z
-x,-x+y,-z
y,x,-z
-y,-x,-z
-x+y,y,-z
x,x-y,-z
-x,-y,-z
-x+y,-x,-z
y,-x+y,-z
x,y,-z
x-y,x,-z
-y,x-y,-z
-x+y,y,z
x,x-y,z
-y,-x,z
y,x,z
x-y,-y,z
-x,-x+y,z
loop_
_atom_site_type_symbol
_atom_site_label
_atom_site_fract_x
_atom_site_fract_y
_atom_site_fract_z
Si Si1 0.333205 0.801670 0.592050
Si Si2 0.531065 0.919516 0.859168
Si Si3 0.522576 0.188725 0.000000
Si Si4 0.660894 0.080465 0.689077
Si Si5 0.218458 0.919871 0.408319
O O1 0.330170 0.816755 0.500000
O O2 0.387017 0.774034 0.599215
O O3 0.257128 0.742873 0.617692
O O4 0.358602 0.869515 0.642994
O O5 0.457251 0.914501 0.837823
O O6 0.513903 0.861441 0.924914
O O7 0.565795 0.907989 0.781918
O O8 0.580407 0.000000 0.886501
O O9 0.603057 0.206113 0.000000
O O10 0.518203 0.259102 0.000000
O O11 0.733038 0.093105 0.651495
O O12 0.606137 0.000000 0.674188
O O13 0.236172 0.913204 0.500000
O O14 0.138524 0.861477 0.396763
O O15 0.238465 0.000000 0.398280
#
# Coordination Sequence:
#
# PCOD9587529 Si02
#       5
#    24  24  12  24  24
#     4  10  20  32  44  58  81 115 151 183 216 257
#     4   9  18  33  50  65  84 112 144 175 209 253
#     4  10  20  33  49  69  90 111 136 170 213 256
#     4  10  19  30  46  68  89 109 139 180 221 259
#     4   9  17  29  45  65  90 119 148 178 215 258
#
# _framework density 14.896658
#
# number of rings (size 3 to 8) (size 9 to 14) (size 15 to 20)
#    0.000    2.444    0.000    2.667    0.000    8.444 
#    0.000    1.111    0.000    2.889    0.000    1.556 
#    0.000    0.000    0.000    0.000    0.000    0.000 
#
# Total GULP energy -601711.591347 kJ/mol
# GULP energy per Si atom -5571.403624 kJ/mol
# Density = 1.486275 g / cm^3
# Si number density = 14.896658 Si / 1000 Ang^3
#
#
#
# Elastic Constant Matrix: (Units=GPa)
#
#
# Indices 1 2 3 4 5 6 
#
# 1 83.4068 50.0975 56.5245 0.0000 0.0000 0.0000
# 2 50.0975 83.4068 56.5245 0.0000 0.0000 0.0000
# 3 56.5245 56.5245 74.4523 0.0000 0.0000 0.0000
# 4 0.0000 0.0000 0.0000 1.6930 0.0000 0.0000
# 5 0.0000 0.0000 0.0000 0.0000 1.6930 0.0000
# 6 0.0000 0.0000 0.0000 0.0000 0.0000 16.6547
#
#
#
# Elastic Compliance Matrix: (Units=1/GPa)
#
#
# Indices 1 2 3 4 5 6 
#
# 1 0.025498 -0.004524 -0.015924 0.000000 0.000000 0.000000
# 2 -0.004524 0.025498 -0.015924 0.000000 0.000000 0.000000
# 3 -0.015924 -0.015924 0.037610 0.000000 0.000000 0.000000
# 4 0.000000 0.000000 0.000000 0.590671 0.000000 0.000000
# 5 0.000000 0.000000 0.000000 0.000000 0.590671 0.000000
# 6 0.000000 0.000000 0.000000 0.000000 0.000000 0.060043
#
#
# Mechanical properties :
#
#
# Convention : Reuss Voigt Hill
#
# Bulk Modulus (GPa) = 63.03689 63.06210 63.04950
# Shear Modulus (GPa) = 3.55108 9.21609 6.38358
#
# Velocity S-wave (km/s) = 1.54563 2.49000 2.07233
# Velocity P-wave (km/s) = 6.75228 7.11982 6.93848
#
# Compressibility (1/GPa) = 0.01586373
#
# Stress axis : x y z
#
# Youngs Moduli (GPa) = 39.21871 39.21871 26.58841
#
# Poissons Ratio (x) = 0.17741 0.42339
# Poissons Ratio (y) = 0.17741 0.42339
# Poissons Ratio (z) = 0.62451 0.62451
#
# Static dielectric constant tensor:
#      x y z
#    x 1.488630 0.000000 0.000000 
#    y 0.000000 1.488630 0.000000 
#    z 0.000000 0.000000 1.493870 
# 
# From -- ./inp_files/6083.got.cif
#   From: 2010.05.17/outbox.cif.g08.bks.cpg/sg191_4_cif.got.tgz:6083.got - 2010.05.20 12:20:32.
