data_PCOD9587222
_publ_section_title
;
Structure prediction by ZEFSAII (Michael W. Deem and Ramdas Pophale) SiO2 
 PCOD9587222
Probable space group: P 6/M M M
;
_chemical_formula_sum "Si O2"
_cell_formula_units_Z 120
_cell_length_a 20.468038
_cell_length_b 20.468038
_cell_length_c 20.861264
_cell_angle_alpha 90.000000
_cell_angle_beta 90.000000
_cell_angle_gamma 120.000000
_cell_volume 7568.741626
_symmetry_space_group_name_H-M "P 6/M M M"
_symmetry_group_IT_number 191
_symmetry_cell_setting 'hexagonal'
loop_
_space_group_symop_operation_xyz
x,y,z
x-y,x,z
-y,x-y,z
-x,-y,z
-x+y,-x,z
y,-x+y,z
x-y,-y,-z
-x,-x+y,-z
y,x,-z
-y,-x,-z
-x+y,y,-z
x,x-y,-z
-x,-y,-z
-x+y,-x,-z
y,-x+y,-z
x,y,-z
x-y,x,-z
-y,x-y,-z
-x+y,y,z
x,x-y,z
-y,-x,z
y,x,z
x-y,-y,z
-x,-x+y,z
loop_
_atom_site_type_symbol
_atom_site_label
_atom_site_fract_x
_atom_site_fract_y
_atom_site_fract_z
Si Si1 0.084965 0.766372 0.000000
Si Si2 0.315705 0.909273 0.376026
Si Si3 0.328085 0.238956 0.752624
Si Si4 0.318334 0.229547 0.500000
Si Si5 0.138031 0.428129 0.121351
Si Si6 0.454542 0.909084 0.923689
Si Si7 0.546169 0.092337 0.424543
O O1 0.100735 0.729688 0.061869
O O2 0.145895 0.854106 0.000000
O O3 0.000000 0.747504 0.000000
O O4 0.269626 0.888809 0.310431
O O5 0.262725 0.892220 0.437497
O O6 0.374496 0.880701 0.389626
O O7 0.366490 0.000000 0.374013
O O8 0.298803 0.149402 0.757913
O O9 0.265359 0.265359 0.748606
O O10 0.380937 0.278754 0.814071
O O11 0.260482 0.260482 0.500000
O O12 0.280403 0.140202 0.500000
O O13 0.226277 0.452554 0.121537
O O14 0.122783 0.496356 0.109444
O O15 0.500000 0.000000 0.918359
O O16 0.445410 0.890819 0.000000
O O17 0.556457 0.112914 0.500000
O O18 0.500000 0.000000 0.423633
#
# Coordination Sequence:
#
# PCOD9587222 Si02
#       7
#    12  24  24  12  24  12  12
#     4  10  18  31  51  72  97 127 165 209 255 305
#     4   9  17  28  45  70  97 125 155 196 247 296
#     4  10  20  34  51  73 104 136 170 212 261 310
#     4  10  18  29  45  66  95 127 163 207 256 306
#     4  10  21  35  51  74 102 133 169 209 255 302
#     4  11  20  31  53  77 101 131 169 211 253 293
#     4   9  14  25  45  69  99 125 151 191 243 293
#
# _framework density 15.854683
#
# number of rings (size 3 to 8) (size 9 to 14) (size 15 to 20)
#    0.000    2.200    2.000    2.400    0.000    0.800 
#    0.600    2.000    0.000    0.400    0.000    0.000 
#   14.000    9.600    0.000    0.000    0.000    1.600 
#
# Total GULP energy -668759.651421 kJ/mol
# GULP energy per Si atom -5572.997095 kJ/mol
# Density = 1.581860 g / cm^3
# Si number density = 15.854683 Si / 1000 Ang^3
#
#
#
# Elastic Constant Matrix: (Units=GPa)
#
#
# Indices 1 2 3 4 5 6 
#
# 1 99.9170 69.5932 39.5389 0.0000 0.0000 0.0000
# 2 69.5932 99.9170 39.5389 0.0000 0.0000 0.0000
# 3 39.5389 39.5389 128.7190 0.0000 0.0000 0.0000
# 4 0.0000 0.0000 0.0000 20.1741 0.0000 0.0000
# 5 0.0000 0.0000 0.0000 0.0000 20.1741 0.0000
# 6 0.0000 0.0000 0.0000 0.0000 0.0000 15.1619
#
#
#
# Elastic Compliance Matrix: (Units=1/GPa)
#
#
# Indices 1 2 3 4 5 6 
#
# 1 0.019932 -0.013046 -0.002115 0.000000 0.000000 0.000000
# 2 -0.013046 0.019932 -0.002115 0.000000 0.000000 0.000000
# 3 -0.002115 -0.002115 0.009068 0.000000 0.000000 0.000000
# 4 0.000000 0.000000 0.000000 0.049568 0.000000 0.000000
# 5 0.000000 0.000000 0.000000 0.000000 0.049568 0.000000
# 6 0.000000 0.000000 0.000000 0.000000 0.000000 0.065955
#
#
# Mechanical properties :
#
#
# Convention : Reuss Voigt Hill
#
# Bulk Modulus (GPa) = 69.54256 69.54385 69.54321
# Shear Modulus (GPa) = 19.73406 23.09416 21.41411
#
# Velocity S-wave (km/s) = 3.53183 3.82070 3.67910
# Velocity P-wave (km/s) = 7.78393 7.96381 7.87438
#
# Compressibility (1/GPa) = 0.01437968
#
# Stress axis : x y z
#
# Youngs Moduli (GPa) = 50.17115 50.17115 110.27380
#
# Poissons Ratio (x) = 0.65452 0.23325
# Poissons Ratio (y) = 0.65452 0.23325
# Poissons Ratio (z) = 0.10612 0.10612
#
# Static dielectric constant tensor:
#      x y z
#    x 1.524180 0.000000 0.000000 
#    y 0.000000 1.524180 0.000000 
#    z 0.000000 0.000000 1.537340 
# 
# From -- ./inp_files/6305.got.cif
#   From: 2010.05.17/outbox.cif.g08.bks.cpg/sg191_4_cif.got.tgz:6305.got - 2010.05.20 12:20:32.
