data_PCOD9587797
_publ_section_title
;
Structure prediction by ZEFSAII (Michael W. Deem and Ramdas Pophale) SiO2 
 PCOD9587797
Probable space group: P 6/M M M
;
_chemical_formula_sum "Si O2"
_cell_formula_units_Z 168
_cell_length_a 28.806137
_cell_length_b 28.806137
_cell_length_c 15.162525
_cell_angle_alpha 90.000000
_cell_angle_beta 90.000000
_cell_angle_gamma 120.000000
_cell_volume 10896.128224
_symmetry_space_group_name_H-M "P 6/M M M"
_symmetry_group_IT_number 191
_symmetry_cell_setting 'hexagonal'
loop_
_space_group_symop_operation_xyz
x,y,z
x-y,x,z
-y,x-y,z
-x,-y,z
-x+y,-x,z
y,-x+y,z
x-y,-y,-z
-x,-x+y,-z
y,x,-z
-y,-x,-z
-x+y,y,-z
x,x-y,-z
-x,-y,-z
-x+y,-x,-z
y,-x+y,-z
x,y,-z
x-y,x,-z
-y,x-y,-z
-x+y,y,z
x,x-y,z
-y,-x,z
y,x,z
x-y,-y,z
-x,-x+y,z
loop_
_atom_site_type_symbol
_atom_site_label
_atom_site_fract_x
_atom_site_fract_y
_atom_site_fract_z
Si Si1 0.381983 0.062563 0.104059
Si Si2 0.864111 0.241730 0.753846
Si Si3 0.686030 0.064432 0.394880
Si Si4 0.557884 0.334448 0.406213
Si Si5 0.505057 0.390946 0.105875
Si Si6 0.506001 0.305940 0.774223
Si Si7 0.518075 0.936968 0.606741
O O1 0.363839 0.096887 0.162477
O O2 0.442430 0.076091 0.129445
O O3 0.342881 0.000000 0.117789
O O4 0.383554 0.075001 0.000000
O O5 0.821336 0.178665 0.755149
O O6 0.900299 0.262893 0.666015
O O7 0.829101 0.271372 0.760876
O O8 0.696097 0.074075 0.500000
O O9 0.641326 0.080506 0.366741
O O10 0.658728 0.000000 0.381258
O O11 0.534797 0.340587 0.500000
O O12 0.553872 0.276936 0.407319
O O13 0.619071 0.380930 0.403900
O O14 0.530159 0.335998 0.317429
O O15 0.548373 0.451628 0.133212
O O16 0.519904 0.349338 0.150001
O O17 0.507375 0.389074 0.000000
O O18 0.525003 0.262502 0.791559
O O19 0.517137 0.934938 0.500000
O O20 0.456120 0.912239 0.635913
O O21 0.548060 0.000000 0.630418
#
# Coordination Sequence:
#
# PCOD9587797 Si02
#       7
#    24  24  24  24  24  24  24
#     4   9  18  33  52  71  90 112 138 172 216 265
#     4  10  20  32  46  64  86 112 142 175 208 249
#     4   9  17  29  45  64  88 119 150 180 218 263
#     4   9  16  26  40  55  70  91 123 164 208 252
#     4   9  17  29  46  67  88 109 134 167 211 266
#     4   9  18  30  42  57  78 106 137 168 207 255
#     4   7  10  19  36  56  78 106 140 176 214 257
#
# _framework density 15.418321000000001
#
# number of rings (size 3 to 8) (size 9 to 14) (size 15 to 20)
#    0.000    3.143    0.000    2.286    0.000    2.286 
#    0.000    9.286    0.000    5.429    0.000    0.000 
#    0.000    0.000    0.000    5.857    0.000    6.429 
#
# Total GULP energy -935742.931794 kJ/mol
# GULP energy per Si atom -5569.898404 kJ/mol
# Density = 1.538323 g / cm^3
# Si number density = 15.418321 Si / 1000 Ang^3
#
#
#
# Elastic Constant Matrix: (Units=GPa)
#
#
# Indices 1 2 3 4 5 6 
#
# 1 57.6591 30.6808 33.1791 0.0000 0.0000 0.0000
# 2 30.6808 57.6591 33.1791 0.0000 0.0000 0.0000
# 3 33.1791 33.1791 53.9691 0.0000 0.0000 0.0000
# 4 0.0000 0.0000 0.0000 3.6432 0.0000 0.0000
# 5 0.0000 0.0000 0.0000 0.0000 3.6432 0.0000
# 6 0.0000 0.0000 0.0000 0.0000 0.0000 13.4891
#
#
#
# Elastic Compliance Matrix: (Units=1/GPa)
#
#
# Indices 1 2 3 4 5 6 
#
# 1 0.029050 -0.008017 -0.012931 0.000000 0.000000 0.000000
# 2 -0.008017 0.029050 -0.012931 0.000000 0.000000 0.000000
# 3 -0.012931 -0.012931 0.034428 0.000000 0.000000 0.000000
# 4 0.000000 0.000000 0.000000 0.274484 0.000000 0.000000
# 5 0.000000 0.000000 0.000000 0.000000 0.274484 0.000000
# 6 0.000000 0.000000 0.000000 0.000000 0.000000 0.074134
#
#
# Mechanical properties :
#
#
# Convention : Reuss Voigt Hill
#
# Bulk Modulus (GPa) = 40.36897 40.37393 40.37145
# Shear Modulus (GPa) = 6.31597 8.97166 7.64382
#
# Velocity S-wave (km/s) = 2.02615 2.41484 2.22899
# Velocity P-wave (km/s) = 5.63143 5.83248 5.73284
#
# Compressibility (1/GPa) = 0.02477150
#
# Stress axis : x y z
#
# Youngs Moduli (GPa) = 34.42348 34.42348 29.04595
#
# Poissons Ratio (x) = 0.27597 0.37558
# Poissons Ratio (y) = 0.27597 0.37558
# Poissons Ratio (z) = 0.44512 0.44512
#
# Static dielectric constant tensor:
#      x y z
#    x 1.524190 0.000000 0.000000 
#    y 0.000000 1.524190 0.000000 
#    z 0.000000 0.000000 1.552320 
# 
# From -- ./inp_files/5422.got.cif
#   From: 2010.05.17/outbox.cif.g08.bks.cpg/sg191_3_cif.got.tgz:5422.got - 2010.05.20 12:20:32.
