data_PCOD9587833
_publ_section_title
;
Structure prediction by ZEFSAII (Michael W. Deem and Ramdas Pophale) SiO2 
 PCOD9587833
Probable space group: P 6/M M M
;
_chemical_formula_sum "Si O2"
_cell_formula_units_Z 120
_cell_length_a 18.316387
_cell_length_b 18.316387
_cell_length_c 24.362027
_cell_angle_alpha 90.000000
_cell_angle_beta 90.000000
_cell_angle_gamma 120.000000
_cell_volume 7078.213757
_symmetry_space_group_name_H-M "P 6/M M M"
_symmetry_group_IT_number 191
_symmetry_cell_setting 'hexagonal'
loop_
_space_group_symop_operation_xyz
x,y,z
x-y,x,z
-y,x-y,z
-x,-y,z
-x+y,-x,z
y,-x+y,z
x-y,-y,-z
-x,-x+y,-z
y,x,-z
-y,-x,-z
-x+y,y,-z
x,x-y,-z
-x,-y,-z
-x+y,-x,-z
y,-x+y,-z
x,y,-z
x-y,x,-z
-y,x-y,-z
-x+y,y,z
x,x-y,z
-y,-x,z
y,x,z
x-y,-y,z
-x,-x+y,z
loop_
_atom_site_type_symbol
_atom_site_label
_atom_site_fract_x
_atom_site_fract_y
_atom_site_fract_z
Si Si1 0.641584 0.738798 0.839536
Si Si2 0.168656 0.000000 0.566809
Si Si3 0.661665 0.000000 0.565852
Si Si4 0.333582 0.838918 0.380584
Si Si5 0.633919 0.531600 0.062070
Si Si6 0.836179 0.502134 0.250147
O O1 0.675162 0.837581 0.834755
O O2 0.711413 0.711413 0.845626
O O3 0.578300 0.702617 0.891480
O O4 0.583680 0.692901 0.786673
O O5 0.168951 0.084476 0.584808
O O6 0.167543 0.000000 0.500000
O O7 0.253272 0.000000 0.583386
O O8 0.663466 0.083011 0.588403
O O9 0.659380 0.000000 0.500000
O O10 0.415633 0.831265 0.393672
O O11 0.248037 0.751964 0.393056
O O12 0.335395 0.853953 0.314918
O O13 0.565571 0.434430 0.074647
O O14 0.580685 0.580685 0.061533
O O15 0.666171 0.536538 0.000000
O O16 0.738894 0.477788 0.242064
O O17 0.849368 0.424684 0.234331
#
# Coordination Sequence:
#
# PCOD9587833 Si02
#       6
#    24  12  12  24  24  24
#     4  10  20  32  48  72 100 132 171 216 262 305
#     4   9  17  31  53  79 105 133 165 202 245 295
#     4  11  23  37  53  77 107 137 168 209 257 301
#     4  10  21  37  56  77 103 136 173 212 255 306
#     4   8  14  26  45  70 100 132 164 199 243 298
#     4   9  18  32  52  77 104 131 161 198 244 295
#
# _framework density 16.953430000000001
#
# number of rings (size 3 to 8) (size 9 to 14) (size 15 to 20)
#    0.000    2.600    0.000    2.600    1.400    5.600 
#    0.000    0.000    0.000    1.800    0.000    0.000 
#    0.000    0.000    0.000    5.000    0.000    0.000 
#
# Total GULP energy -669188.905974 kJ/mol
# GULP energy per Si atom -5576.574216 kJ/mol
# Density = 1.691484 g / cm^3
# Si number density = 16.953430 Si / 1000 Ang^3
#
#
#
# Elastic Constant Matrix: (Units=GPa)
#
#
# Indices 1 2 3 4 5 6 
#
# 1 122.1293 76.8762 47.3079 0.0000 0.0000 0.0000
# 2 76.8762 122.1293 47.3079 0.0000 0.0000 0.0000
# 3 47.3079 47.3079 40.5081 0.0000 0.0000 0.0000
# 4 0.0000 0.0000 0.0000 18.8331 0.0000 0.0000
# 5 0.0000 0.0000 0.0000 0.0000 18.8331 0.0000
# 6 0.0000 0.0000 0.0000 0.0000 0.0000 22.6266
#
#
#
# Elastic Compliance Matrix: (Units=1/GPa)
#
#
# Indices 1 2 3 4 5 6 
#
# 1 0.016698 -0.005400 -0.013195 0.000000 0.000000 0.000000
# 2 -0.005400 0.016698 -0.013195 0.000000 0.000000 0.000000
# 3 -0.013195 -0.013195 0.055507 0.000000 0.000000 0.000000
# 4 0.000000 0.000000 0.000000 0.053098 0.000000 0.000000
# 5 0.000000 0.000000 0.000000 0.000000 0.053098 0.000000
# 6 0.000000 0.000000 0.000000 0.000000 0.000000 0.044196
#
#
# Mechanical properties :
#
#
# Convention : Reuss Voigt Hill
#
# Bulk Modulus (GPa) = 39.48951 69.75006 54.61979
# Shear Modulus (GPa) = 16.06086 19.61021 17.83554
#
# Velocity S-wave (km/s) = 3.08125 3.40473 3.24702
# Velocity P-wave (km/s) = 6.00019 7.52913 6.80772
#
# Compressibility (1/GPa) = 0.02532318
#
# Stress axis : x y z
#
# Youngs Moduli (GPa) = 59.88661 59.88661 18.01585
#
# Poissons Ratio (x) = 0.32337 0.23772
# Poissons Ratio (y) = 0.32337 0.23772
# Poissons Ratio (z) = 0.79021 0.79021
#
# Static dielectric constant tensor:
#      x y z
#    x 1.560150 0.000000 0.000000 
#    y 0.000000 1.560150 0.000000 
#    z 0.000000 0.000000 1.579850 
# 
# From -- ./inp_files/8538.got.cif
#   From: 2010.05.17/outbox.cif.g08.bks.cpg/sg191_5_cif.got.tgz:8538.got - 2010.05.20 12:20:32.
