data_PCOD9587172
_publ_section_title
;
Structure prediction by ZEFSAII (Michael W. Deem and Ramdas Pophale) SiO2 
 PCOD9587172
Probable space group: P 6/M M M
;
_chemical_formula_sum "Si O2"
_cell_formula_units_Z 180
_cell_length_a 21.958922
_cell_length_b 21.958922
_cell_length_c 28.972559
_cell_angle_alpha 90.000000
_cell_angle_beta 90.000000
_cell_angle_gamma 120.000000
_cell_volume 12098.722612
_symmetry_space_group_name_H-M "P 6/M M M"
_symmetry_group_IT_number 191
_symmetry_cell_setting 'hexagonal'
loop_
_space_group_symop_operation_xyz
x,y,z
x-y,x,z
-y,x-y,z
-x,-y,z
-x+y,-x,z
y,-x+y,z
x-y,-y,-z
-x,-x+y,-z
y,x,-z
-y,-x,-z
-x+y,y,-z
x,x-y,-z
-x,-y,-z
-x+y,-x,-z
y,-x+y,-z
x,y,-z
x-y,x,-z
-y,x-y,-z
-x+y,y,z
x,x-y,z
-y,-x,z
y,x,z
x-y,-y,z
-x,-x+y,z
loop_
_atom_site_type_symbol
_atom_site_label
_atom_site_fract_x
_atom_site_fract_y
_atom_site_fract_z
Si Si1 0.301163 0.455261 0.678166
Si Si2 0.219445 0.298462 0.696885
Si Si3 0.914904 0.528881 0.050419
Si Si4 0.664621 0.474152 0.225314
Si Si5 0.477641 0.812055 0.419256
Si Si6 0.082429 0.653964 0.849708
Si Si7 0.292487 0.077585 0.192279
Si Si8 0.533315 0.614290 0.500000
O O1 0.227463 0.454925 0.679686
O O2 0.278009 0.373466 0.676865
O O3 0.338251 0.491321 0.726004
O O4 0.339084 0.497478 0.632350
O O5 0.141930 0.283859 0.683485
O O6 0.238859 0.238859 0.685270
O O7 0.224144 0.307374 0.752654
O O8 0.896449 0.448225 0.054495
O O9 0.893838 0.551478 0.097371
O O10 0.000000 0.574605 0.049264
O O11 0.889598 0.538327 0.000000
O O12 0.743253 0.486505 0.219103
O O13 0.608048 0.391953 0.226837
O O14 0.644624 0.510555 0.184655
O O15 0.398064 0.796128 0.426380
O O16 0.481208 0.740604 0.424831
O O17 0.526897 0.872162 0.455543
O O18 0.085470 0.725371 0.833762
O O19 0.000000 0.593072 0.845853
O O20 0.277782 0.138891 0.178976
O O21 0.228884 0.000000 0.183359
O O22 0.596007 0.596007 0.500000
O O23 0.461366 0.538635 0.500000
#
# Coordination Sequence:
#
# PCOD9587172 Si02
#       8
#    24  24  24  24  24  24  24  12
#     4   9  18  30  44  64  89 117 148 184 222 262
#     4   9  16  28  45  65  90 120 153 185 221 267
#     4   8  14  25  40  59  84 111 139 175 222 271
#     4  11  21  32  44  60  87 120 151 181 218 266
#     4  10  19  32  50  70  91 117 154 198 240 279
#     4  10  18  28  45  67  87 109 141 183 226 268
#     4   9  16  27  44  64  87 115 145 178 217 261
#     4   9  19  34  48  64  88 117 148 184 232 288
#
# _framework density 14.877603000000001
#
# number of rings (size 3 to 8) (size 9 to 14) (size 15 to 20)
#    0.000    2.600    1.333    2.067    0.000    1.333 
#    0.000    2.000    0.000    4.267    0.000    1.867 
#    0.000    1.067    0.000    0.000    0.000    0.000 
#
# Total GULP energy -1002157.643263 kJ/mol
# GULP energy per Si atom -5567.542463 kJ/mol
# Density = 1.484374 g / cm^3
# Si number density = 14.877603 Si / 1000 Ang^3
#
#
#
# Elastic Constant Matrix: (Units=GPa)
#
#
# Indices 1 2 3 4 5 6 
#
# 1 65.1106 28.1966 28.5430 0.0000 0.0000 0.0000
# 2 28.1966 65.1106 28.5430 0.0000 0.0000 0.0000
# 3 28.5430 28.5430 80.3848 0.0000 0.0000 0.0000
# 4 0.0000 0.0000 0.0000 15.3893 0.0000 0.0000
# 5 0.0000 0.0000 0.0000 0.0000 15.3893 0.0000
# 6 0.0000 0.0000 0.0000 0.0000 0.0000 18.4570
#
#
#
# Elastic Compliance Matrix: (Units=1/GPa)
#
#
# Indices 1 2 3 4 5 6 
#
# 1 0.020391 -0.006699 -0.004862 0.000000 0.000000 0.000000
# 2 -0.006699 0.020391 -0.004862 0.000000 0.000000 0.000000
# 3 -0.004862 -0.004862 0.015893 0.000000 0.000000 0.000000
# 4 0.000000 0.000000 0.000000 0.064980 0.000000 0.000000
# 5 0.000000 0.000000 0.000000 0.000000 0.064980 0.000000
# 6 0.000000 0.000000 0.000000 0.000000 0.000000 0.054180
#
#
# Mechanical properties :
#
#
# Convention : Reuss Voigt Hill
#
# Bulk Modulus (GPa) = 41.96482 42.35239 42.15860
# Shear Modulus (GPa) = 17.75550 18.20200 17.97875
#
# Velocity S-wave (km/s) = 3.45837 3.50158 3.48004
# Velocity P-wave (km/s) = 6.64944 6.69904 6.67428
#
# Compressibility (1/GPa) = 0.02382948
#
# Stress axis : x y z
#
# Youngs Moduli (GPa) = 49.04166 49.04166 62.92193
#
# Poissons Ratio (x) = 0.32854 0.30590
# Poissons Ratio (y) = 0.32854 0.30590
# Poissons Ratio (z) = 0.23842 0.23842
#
# Static dielectric constant tensor:
#      x y z
#    x 1.494600 0.000000 0.000000 
#    y 0.000000 1.494600 0.000000 
#    z 0.000000 0.000000 1.504490 
# 
# From -- ./inp_files/10830.got.cif
#   From: 2010.05.17/outbox.cif.g08.bks.cpg/sg191_6_cif.got.tgz:10830.got - 2010.05.20 12:20:32.
