data_PCOD9587480
_publ_section_title
;
Structure prediction by ZEFSAII (Michael W. Deem and Ramdas Pophale) SiO2 
 PCOD9587480
Probable space group: P 6/M M M
;
_chemical_formula_sum "Si O2"
_cell_formula_units_Z 72
_cell_length_a 18.140105
_cell_length_b 18.140105
_cell_length_c 15.707617
_cell_angle_alpha 90.000000
_cell_angle_beta 90.000000
_cell_angle_gamma 120.000000
_cell_volume 4476.313842
_symmetry_space_group_name_H-M "P 6/M M M"
_symmetry_group_IT_number 191
_symmetry_cell_setting 'hexagonal'
loop_
_space_group_symop_operation_xyz
x,y,z
x-y,x,z
-y,x-y,z
-x,-y,z
-x+y,-x,z
y,-x+y,z
x-y,-y,-z
-x,-x+y,-z
y,x,-z
-y,-x,-z
-x+y,y,-z
x,x-y,-z
-x,-y,-z
-x+y,-x,-z
y,-x+y,-z
x,y,-z
x-y,x,-z
-y,x-y,-z
-x+y,y,z
x,x-y,z
-y,-x,z
y,x,z
x-y,-y,z
-x,-x+y,z
loop_
_atom_site_type_symbol
_atom_site_label
_atom_site_fract_x
_atom_site_fract_y
_atom_site_fract_z
Si Si1 0.331246 0.495148 0.314885
Si Si2 0.459216 0.096839 0.500000
Si Si3 0.635004 0.102750 0.000000
Si Si4 0.732752 0.098960 0.837451
O O1 0.262734 0.525467 0.300165
O O2 0.426672 0.573329 0.304123
O O3 0.320215 0.461348 0.411512
O O4 0.309177 0.420526 0.247884
O O5 0.547568 0.095136 0.500000
O O6 0.383813 0.000000 0.500000
O O7 0.692005 0.124246 0.084072
O O8 0.568459 0.136918 0.000000
O O9 0.578175 0.000000 0.000000
O O10 0.833080 0.166921 0.835249
O O11 0.704733 0.000000 0.847188
#
# Coordination Sequence:
#
# PCOD9587480 Si02
#       4
#    24  12  12  24
#     4  10  19  30  45  66  93 124 157 193 232 274
#     4   9  17  28  42  60  84 119 161 197 227 264
#     4   9  17  30  49  72  96 122 152 183 217 262
#     4  10  20  33  50  71  94 122 156 195 237 280
#
# _framework density 16.084662999999999
#
# number of rings (size 3 to 8) (size 9 to 14) (size 15 to 20)
#    0.000    2.333    0.000    3.333    0.000    3.333 
#    0.000    1.667    0.000    5.000    0.000    0.000 
#    0.000    4.000    0.000    0.000    0.000   34.667 
#
# Total GULP energy -401289.998061 kJ/mol
# GULP energy per Si atom -5573.472195 kJ/mol
# Density = 1.604805 g / cm^3
# Si number density = 16.084663 Si / 1000 Ang^3
#
#
#
# Elastic Constant Matrix: (Units=GPa)
#
#
# Indices 1 2 3 4 5 6 
#
# 1 78.1084 49.3415 27.3944 0.0000 0.0000 0.0000
# 2 49.3415 78.1084 27.3944 0.0000 0.0000 0.0000
# 3 27.3944 27.3944 107.9507 0.0000 0.0000 0.0000
# 4 0.0000 0.0000 0.0000 17.8907 0.0000 0.0000
# 5 0.0000 0.0000 0.0000 0.0000 17.8907 0.0000
# 6 0.0000 0.0000 0.0000 0.0000 0.0000 14.3834
#
#
#
# Elastic Compliance Matrix: (Units=1/GPa)
#
#
# Indices 1 2 3 4 5 6 
#
# 1 0.021785 -0.012978 -0.002235 0.000000 0.000000 0.000000
# 2 -0.012978 0.021785 -0.002235 0.000000 0.000000 0.000000
# 3 -0.002235 -0.002235 0.010398 0.000000 0.000000 0.000000
# 4 0.000000 0.000000 0.000000 0.055895 0.000000 0.000000
# 5 0.000000 0.000000 0.000000 0.000000 0.055895 0.000000
# 6 0.000000 0.000000 0.000000 0.000000 0.000000 0.069524
#
#
# Mechanical properties :
#
#
# Convention : Reuss Voigt Hill
#
# Bulk Modulus (GPa) = 52.43275 52.49200 52.46238
# Shear Modulus (GPa) = 18.08100 20.70213 19.39156
#
# Velocity S-wave (km/s) = 3.35642 3.59147 3.47593
# Velocity P-wave (km/s) = 6.90576 7.06427 6.98546
#
# Compressibility (1/GPa) = 0.01907205
#
# Stress axis : x y z
#
# Youngs Moduli (GPa) = 45.90399 45.90399 96.17425
#
# Poissons Ratio (x) = 0.59572 0.21494
# Poissons Ratio (y) = 0.59572 0.21494
# Poissons Ratio (z) = 0.10259 0.10259
#
# Static dielectric constant tensor:
#      x y z
#    x 1.535690 0.000000 0.000000 
#    y 0.000000 1.535690 0.000000 
#    z 0.000000 0.000000 1.552710 
# 
# From -- ./inp_files/3906.got.cif
#   From: 2010.05.17/outbox.cif.g08.bks.cpg/sg191_2_cif.got.tgz:3906.got - 2010.05.20 12:20:32.
