data_PCOD9587733
_publ_section_title
;
Structure prediction by ZEFSAII (Michael W. Deem and Ramdas Pophale) SiO2 
 PCOD9587733
Probable space group: P 6/M M M
;
_chemical_formula_sum "Si O2"
_cell_formula_units_Z 54
_cell_length_a 20.557156
_cell_length_b 20.557156
_cell_length_c 8.184364
_cell_angle_alpha 90.000000
_cell_angle_beta 90.000000
_cell_angle_gamma 120.000000
_cell_volume 2995.308999
_symmetry_space_group_name_H-M "P 6/M M M"
_symmetry_group_IT_number 191
_symmetry_cell_setting 'hexagonal'
loop_
_space_group_symop_operation_xyz
x,y,z
x-y,x,z
-y,x-y,z
-x,-y,z
-x+y,-x,z
y,-x+y,z
x-y,-y,-z
-x,-x+y,-z
y,x,-z
-y,-x,-z
-x+y,y,-z
x,x-y,-z
-x,-y,-z
-x+y,-x,-z
y,-x+y,-z
x,y,-z
x-y,x,-z
-y,x-y,-z
-x+y,y,z
x,x-y,z
-y,-x,z
y,x,z
x-y,-y,z
-x,-x+y,z
loop_
_atom_site_type_symbol
_atom_site_label
_atom_site_fract_x
_atom_site_fract_y
_atom_site_fract_z
Si Si1 0.156017 0.156017 0.500000
Si Si2 0.143296 0.711077 0.804052
Si Si3 0.715027 0.715027 0.315837
Si Si4 0.456358 0.912715 0.799944
O O1 0.150476 0.075238 0.500000
O O2 0.207219 0.207219 0.347419
O O3 0.219915 0.780086 0.737596
O O4 0.074112 0.724529 0.768197
O O5 0.125072 0.629456 0.743451
O O6 0.149941 0.709689 0.000000
O O7 0.687358 0.687358 0.500000
O O8 0.500000 0.000000 0.752585
O O9 0.455561 0.911121 0.000000
#
# Coordination Sequence:
#
# PCOD9587733 Si02
#       4
#     6  24  12  12
#     4  10  21  36  54  75 102 132 160 202 258 317
#     4  10  19  33  54  77 104 138 175 217 262 310
#     4  10  21  33  53  77 106 130 169 217 261 302
#     4   9  16  30  50  74 104 134 168 212 260 308
#
# _framework density 18.028189999999999
#
# number of rings (size 3 to 8) (size 9 to 14) (size 15 to 20)
#    0.667    1.556    2.222    2.111    0.000    0.000 
#    1.333    2.222    0.000    0.000    0.000    0.000 
#    0.000   10.667    0.000    0.000    0.000    0.000 
#
# Total GULP energy -300836.746673 kJ/mol
# GULP energy per Si atom -5571.050864 kJ/mol
# Density = 1.798716 g / cm^3
# Si number density = 18.028190 Si / 1000 Ang^3
#
#
#
# Elastic Constant Matrix: (Units=GPa)
#
#
# Indices 1 2 3 4 5 6 
#
# 1 183.6551 128.1373 4.6031 0.0000 0.0000 0.0000
# 2 128.1373 183.6551 4.6031 0.0000 0.0000 0.0000
# 3 4.6031 4.6031 5.9573 0.0000 0.0000 0.0000
# 4 0.0000 0.0000 0.0000 5.9207 0.0000 0.0000
# 5 0.0000 0.0000 0.0000 0.0000 5.9207 0.0000
# 6 0.0000 0.0000 0.0000 0.0000 0.0000 27.7589
#
#
#
# Elastic Compliance Matrix: (Units=1/GPa)
#
#
# Indices 1 2 3 4 5 6 
#
# 1 0.010647 -0.007365 -0.002536 0.000000 0.000000 0.000000
# 2 -0.007365 0.010647 -0.002536 0.000000 0.000000 0.000000
# 3 -0.002536 -0.002536 0.171780 0.000000 0.000000 0.000000
# 4 0.000000 0.000000 0.000000 0.168899 0.000000 0.000000
# 5 0.000000 0.000000 0.000000 0.000000 0.168899 0.000000
# 6 0.000000 0.000000 0.000000 0.000000 0.000000 0.036024
#
#
# Mechanical properties :
#
#
# Convention : Reuss Voigt Hill
#
# Bulk Modulus (GPa) = 5.94531 71.99494 38.97012
# Shear Modulus (GPa) = 7.71800 23.64834 15.68317
#
# Velocity S-wave (km/s) = 2.07132 3.62573 2.95265
# Velocity P-wave (km/s) = 3.00424 7.58612 5.76952
#
# Compressibility (1/GPa) = 0.16819988
#
# Stress axis : x y z
#
# Youngs Moduli (GPa) = 93.92148 93.92148 5.82141
#
# Poissons Ratio (x) = 0.69174 0.01476
# Poissons Ratio (y) = 0.69174 0.01476
# Poissons Ratio (z) = 0.23819 0.23819
#
# Static dielectric constant tensor:
#      x y z
#    x 1.617050 0.000000 0.000000 
#    y 0.000000 1.617050 0.000000 
#    z 0.000000 0.000000 1.635450 
# 
# From -- ./inp_files/506.got.cif
#   From: 2010.05.17/outbox.cif.g08.bks.cpg/sg191_1_cif.got.tgz:506.got - 2010.05.20 12:20:32.
