data_PCOD9587589
_publ_section_title
;
Structure prediction by ZEFSAII (Michael W. Deem and Ramdas Pophale) SiO2 
 PCOD9587589
Probable space group: P 6/M M M
;
_chemical_formula_sum "Si O2"
_cell_formula_units_Z 96
_cell_length_a 29.272654
_cell_length_b 29.272654
_cell_length_c 7.712603
_cell_angle_alpha 90.000000
_cell_angle_beta 90.000000
_cell_angle_gamma 120.000000
_cell_volume 5723.422514
_symmetry_space_group_name_H-M "P 6/M M M"
_symmetry_group_IT_number 191
_symmetry_cell_setting 'hexagonal'
loop_
_space_group_symop_operation_xyz
x,y,z
x-y,x,z
-y,x-y,z
-x,-y,z
-x+y,-x,z
y,-x+y,z
x-y,-y,-z
-x,-x+y,-z
y,x,-z
-y,-x,-z
-x+y,y,-z
x,x-y,-z
-x,-y,-z
-x+y,-x,-z
y,-x+y,-z
x,y,-z
x-y,x,-z
-y,x-y,-z
-x+y,y,z
x,x-y,z
-y,-x,z
y,x,z
x-y,-y,z
-x,-x+y,z
loop_
_atom_site_type_symbol
_atom_site_label
_atom_site_fract_x
_atom_site_fract_y
_atom_site_fract_z
Si Si1 0.706373 0.000000 0.213146
Si Si2 0.784406 0.670480 0.204471
Si Si3 0.399872 0.000000 0.212035
Si Si4 0.450519 0.174193 0.706646
Si Si5 0.107239 0.502127 0.791939
O O1 0.756276 0.054559 0.274032
O O2 0.653042 0.000000 0.264799
O O3 0.706871 0.000000 0.000000
O O4 0.839746 0.679491 0.279403
O O5 0.742972 0.607951 0.220838
O O6 0.792781 0.682211 0.000000
O O7 0.399432 0.947331 0.271241
O O8 0.400168 0.000000 0.000000
O O9 0.445257 0.172453 0.500000
O O10 0.465684 0.232842 0.766231
O O11 0.490422 0.154061 0.753024
O O12 0.114343 0.557172 0.725802
O O13 0.102823 0.502452 0.000000
#
# Coordination Sequence:
#
# PCOD9587589 Si02
#       5
#    12  24  12  24  24
#     4   9  14  23  42  64  87 113 142 176 211 245
#     4   9  16  27  44  63  83 111 146 178 206 242
#     4   9  15  26  43  66  92 114 136 167 206 249
#     4  10  20  32  45  62  85 110 136 170 211 254
#     4  10  19  31  48  67  86 111 141 171 206 251
#
# _framework density 16.77318
#
# number of rings (size 3 to 8) (size 9 to 14) (size 15 to 20)
#    0.000    2.500    2.500    1.125    0.000    3.500 
#    0.000    2.500    0.000    2.000    0.000    0.000 
#    0.000    0.000    0.000    0.375    0.000   12.000 
#
# Total GULP energy -535291.060741 kJ/mol
# GULP energy per Si atom -5575.948549 kJ/mol
# Density = 1.673500 g / cm^3
# Si number density = 16.773180 Si / 1000 Ang^3
#
#
#
# Elastic Constant Matrix: (Units=GPa)
#
#
# Indices 1 2 3 4 5 6 
#
# 1 129.1646 79.0994 2.8613 0.0000 0.0000 0.0000
# 2 79.0994 129.1646 2.8613 0.0000 0.0000 0.0000
# 3 2.8613 2.8613 27.4998 0.0000 0.0000 0.0000
# 4 0.0000 0.0000 0.0000 -24.0840 0.0000 0.0000
# 5 0.0000 0.0000 0.0000 0.0000 -24.0840 0.0000
# 6 0.0000 0.0000 0.0000 0.0000 0.0000 25.0326
#
#
#
# Elastic Compliance Matrix: (Units=1/GPa)
#
#
# Indices 1 2 3 4 5 6 
#
# 1 0.012395 -0.007579 -0.000501 0.000000 0.000000 0.000000
# 2 -0.007579 0.012395 -0.000501 0.000000 0.000000 0.000000
# 3 -0.000501 -0.000501 0.036468 0.000000 0.000000 0.000000
# 4 0.000000 0.000000 0.000000 -0.041521 0.000000 0.000000
# 5 0.000000 0.000000 0.000000 0.000000 -0.041521 0.000000
# 6 0.000000 0.000000 0.000000 0.000000 0.000000 0.039948
#
#
# Mechanical properties :
#
#
# Convention : Reuss Voigt Hill
#
# Bulk Modulus (GPa) = 22.67841 50.60813 36.64327
# Shear Modulus (GPa) = 99.95235 8.77337 54.36286
#
# Velocity S-wave (km/s) = 7.72787 2.28953 5.69921
# Velocity P-wave (km/s) = 9.65280 6.10138 8.07476
#
# Compressibility (1/GPa) = 0.04409479
#
# Stress axis : x y z
#
# Youngs Moduli (GPa) = 80.67990 80.67990 27.42114
#
# Poissons Ratio (x) = 0.61150 0.01374
# Poissons Ratio (y) = 0.61150 0.01374
# Poissons Ratio (z) = 0.04042 0.04042
#
# Static dielectric constant tensor:
#      x y z
#    x 1.578330 0.000000 0.000000 
#    y 0.000000 1.578330 0.000000 
#    z 0.000000 0.000000 1.609690 
# 
# From -- ./inp_files/1568.got.cif
#   From: 2010.05.17/outbox.cif.g08.bks.cpg/sg191_1_cif.got.tgz:1568.got - 2010.05.20 12:20:32.
