data_PCOD9587861
_publ_section_title
;
Structure prediction by ZEFSAII (Michael W. Deem and Ramdas Pophale) SiO2 
 PCOD9587861
Probable space group: P 6/M M M
;
_chemical_formula_sum "Si O2"
_cell_formula_units_Z 96
_cell_length_a 18.085819
_cell_length_b 18.085819
_cell_length_c 22.713615
_cell_angle_alpha 90.000000
_cell_angle_beta 90.000000
_cell_angle_gamma 120.000000
_cell_volume 6434.180679
_symmetry_space_group_name_H-M "P 6/M M M"
_symmetry_group_IT_number 191
_symmetry_cell_setting 'hexagonal'
loop_
_space_group_symop_operation_xyz
x,y,z
x-y,x,z
-y,x-y,z
-x,-y,z
-x+y,-x,z
y,-x+y,z
x-y,-y,-z
-x,-x+y,-z
y,x,-z
-y,-x,-z
-x+y,y,-z
x,x-y,-z
-x,-y,-z
-x+y,-x,-z
y,-x+y,-z
x,y,-z
x-y,x,-z
-y,x-y,-z
-x+y,y,z
x,x-y,z
-y,-x,z
y,x,z
x-y,-y,z
-x,-x+y,z
loop_
_atom_site_type_symbol
_atom_site_label
_atom_site_fract_x
_atom_site_fract_y
_atom_site_fract_z
Si Si1 0.731223 0.096873 0.609884
Si Si2 0.332884 0.841542 0.852390
Si Si3 0.159840 0.666343 0.283824
Si Si4 0.508031 0.840579 0.500000
Si Si5 0.410096 0.000000 0.067479
O O1 0.830608 0.169393 0.607142
O O2 0.692854 0.110442 0.670366
O O3 0.684825 0.117925 0.557129
O O4 0.709335 0.000000 0.604835
O O5 0.413006 0.826011 0.859979
O O6 0.245243 0.754758 0.862701
O O7 0.335764 0.867389 0.783919
O O8 0.346197 0.916040 0.896348
O O9 0.150544 0.575272 0.298303
O O10 0.259335 0.740665 0.287300
O O11 0.425476 0.850951 0.500000
O O12 0.481500 0.740750 0.500000
O O13 0.500000 0.000000 0.066967
O O14 0.384796 0.000000 0.000000
#
# Coordination Sequence:
#
# PCOD9587861 Si02
#       5
#    24  24  24  12  12
#     4  10  21  34  48  67  91 120 154 192 235 276
#     4   9  17  29  45  64  87 117 152 187 222 263
#     4   9  17  28  44  66  91 119 150 184 219 259
#     4  10  20  33  48  69  98 132 163 190 220 261
#     4   9  18  30  42  60  86 113 144 184 226 263
#
# _framework density 14.920315
#
# number of rings (size 3 to 8) (size 9 to 14) (size 15 to 20)
#    0.000    2.625    0.000    1.750    1.750    5.000 
#    0.000    2.500    0.000    1.750    0.000    0.000 
#    0.000    3.000    0.000    0.375    0.000    1.625 
#
# Total GULP energy -535296.489735 kJ/mol
# GULP energy per Si atom -5576.005101 kJ/mol
# Density = 1.488636 g / cm^3
# Si number density = 14.920315 Si / 1000 Ang^3
#
#
#
# Elastic Constant Matrix: (Units=GPa)
#
#
# Indices 1 2 3 4 5 6 
#
# 1 81.5327 61.1522 53.5383 0.0000 0.0000 0.0000
# 2 61.1522 81.5327 53.5383 0.0000 0.0000 0.0000
# 3 53.5383 53.5383 95.2761 0.0000 0.0000 0.0000
# 4 0.0000 0.0000 0.0000 17.5783 0.0000 0.0000
# 5 0.0000 0.0000 0.0000 0.0000 17.5783 0.0000
# 6 0.0000 0.0000 0.0000 0.0000 0.0000 10.1903
#
#
#
# Elastic Compliance Matrix: (Units=1/GPa)
#
#
# Indices 1 2 3 4 5 6 
#
# 1 0.030593 -0.018474 -0.006810 0.000000 0.000000 0.000000
# 2 -0.018474 0.030593 -0.006810 0.000000 0.000000 0.000000
# 3 -0.006810 -0.006810 0.018149 0.000000 0.000000 0.000000
# 4 0.000000 0.000000 0.000000 0.056888 0.000000 0.000000
# 5 0.000000 0.000000 0.000000 0.000000 0.056888 0.000000
# 6 0.000000 0.000000 0.000000 0.000000 0.000000 0.098133
#
#
# Mechanical properties :
#
#
# Convention : Reuss Voigt Hill
#
# Bulk Modulus (GPa) = 66.01868 66.08879 66.05374
# Shear Modulus (GPa) = 13.87037 15.07689 14.47363
#
# Velocity S-wave (km/s) = 3.05229 3.18228 3.11796
# Velocity P-wave (km/s) = 7.53429 7.60876 7.57162
#
# Compressibility (1/GPa) = 0.01514723
#
# Stress axis : x y z
#
# Youngs Moduli (GPa) = 32.68753 32.68753 55.09872
#
# Poissons Ratio (x) = 0.60386 0.37522
# Poissons Ratio (y) = 0.60386 0.37522
# Poissons Ratio (z) = 0.22260 0.22260
#
# Static dielectric constant tensor:
#      x y z
#    x 1.475560 0.000000 0.000000 
#    y 0.000000 1.475560 0.000000 
#    z 0.000000 0.000000 1.509550 
# 
# From -- ./inp_files/7120.got.cif
#   From: 2010.05.17/outbox.cif.g08.bks.cpg/sg191_4_cif.got.tgz:7120.got - 2010.05.20 12:20:32.
