data_PCOD9587250
_publ_section_title
;
Structure prediction by ZEFSAII (Michael W. Deem and Ramdas Pophale) SiO2 
 PCOD9587250
Probable space group: P 6/M M M
;
_chemical_formula_sum "Si O2"
_cell_formula_units_Z 168
_cell_length_a 29.835248
_cell_length_b 29.835248
_cell_length_c 14.987058
_cell_angle_alpha 90.000000
_cell_angle_beta 90.000000
_cell_angle_gamma 120.000000
_cell_volume 11553.307275
_symmetry_space_group_name_H-M "P 6/M M M"
_symmetry_group_IT_number 191
_symmetry_cell_setting 'hexagonal'
loop_
_space_group_symop_operation_xyz
x,y,z
x-y,x,z
-y,x-y,z
-x,-y,z
-x+y,-x,z
y,-x+y,z
x-y,-y,-z
-x,-x+y,-z
y,x,-z
-y,-x,-z
-x+y,y,-z
x,x-y,-z
-x,-y,-z
-x+y,-x,-z
y,-x+y,-z
x,y,-z
x-y,x,-z
-y,x-y,-z
-x+y,y,z
x,x-y,z
-y,-x,z
y,x,z
x-y,-y,z
-x,-x+y,z
loop_
_atom_site_type_symbol
_atom_site_label
_atom_site_fract_x
_atom_site_fract_y
_atom_site_fract_z
Si Si1 0.452079 0.135125 0.397214
Si Si2 0.480989 0.420174 0.708506
Si Si3 0.146462 0.393274 0.758283
Si Si4 0.332980 0.562153 0.654336
Si Si5 0.479311 0.096872 0.904393
Si Si6 0.938947 0.297049 0.100403
Si Si7 0.205064 0.695744 0.843377
O O1 0.438903 0.122238 0.500000
O O2 0.460901 0.093226 0.344736
O O3 0.407509 0.137847 0.341230
O O4 0.507676 0.188189 0.390533
O O5 0.535557 0.464444 0.670413
O O6 0.441363 0.441363 0.704278
O O7 0.490032 0.412260 0.811869
O O8 0.186336 0.372671 0.758961
O O9 0.096582 0.358625 0.818884
O O10 0.176068 0.450799 0.803384
O O11 0.287144 0.574289 0.633509
O O12 0.389282 0.610719 0.633242
O O13 0.328764 0.548312 0.760098
O O14 0.417442 0.073634 0.901939
O O15 0.508568 0.159506 0.900186
O O16 0.490680 0.080923 0.000000
O O17 0.000000 0.320961 0.114763
O O18 0.925490 0.273380 0.000000
O O19 0.258812 0.741189 0.884150
#
# Coordination Sequence:
#
# PCOD9587250 Si02
#       7
#    24  24  24  24  24  24  24
#     4  11  22  36  53  67  83 109 141 176 213 254
#     4  11  23  37  50  65  89 114 138 172 211 260
#     4   9  17  30  47  69  93 116 145 178 214 254
#     4  10  19  32  50  69  87 105 128 160 200 245
#     4  10  18  29  48  70  90 112 137 166 202 249
#     4   9  16  27  46  70  95 122 147 172 207 251
#     4   8  15  28  44  65  91 114 136 163 196 237
#
# _framework density 14.541290999999999
#
# number of rings (size 3 to 8) (size 9 to 14) (size 15 to 20)
#    0.000    2.286    4.286    2.286    0.000    4.286 
#    0.000    4.286    0.000    0.857    0.000    0.000 
#    0.000    1.143    0.000    0.000    0.000    0.000 
#
# Total GULP energy -935815.914990 kJ/mol
# GULP energy per Si atom -5570.332827 kJ/mol
# Density = 1.450819 g / cm^3
# Si number density = 14.541291 Si / 1000 Ang^3
#
#
#
# Elastic Constant Matrix: (Units=GPa)
#
#
# Indices 1 2 3 4 5 6 
#
# 1 44.9968 21.9462 27.0770 0.0000 0.0000 0.0000
# 2 21.9462 44.9968 27.0770 0.0000 0.0000 0.0000
# 3 27.0770 27.0770 93.8925 0.0000 0.0000 0.0000
# 4 0.0000 0.0000 0.0000 -1.4658 0.0000 0.0000
# 5 0.0000 0.0000 0.0000 0.0000 -1.4658 0.0000
# 6 0.0000 0.0000 0.0000 0.0000 0.0000 11.5253
#
#
#
# Elastic Compliance Matrix: (Units=1/GPa)
#
#
# Indices 1 2 3 4 5 6 
#
# 1 0.031433 -0.011950 -0.005619 0.000000 0.000000 0.000000
# 2 -0.011950 0.031433 -0.005619 0.000000 0.000000 0.000000
# 3 -0.005619 -0.005619 0.013891 0.000000 0.000000 0.000000
# 4 0.000000 0.000000 0.000000 -0.682209 0.000000 0.000000
# 5 0.000000 0.000000 0.000000 0.000000 -0.682209 0.000000
# 6 0.000000 0.000000 0.000000 0.000000 0.000000 0.086766
#
#
# Mechanical properties :
#
#
# Convention : Reuss Voigt Hill
#
# Bulk Modulus (GPa) = 32.91298 37.34295 35.12796
# Shear Modulus (GPa) = -4.36913 8.90444 2.26765
#
# Velocity S-wave (km/s) = -1.73527 2.47727 1.25014
# Velocity P-wave (km/s) = 4.32070 5.82399 5.12773
#
# Compressibility (1/GPa) = 0.03038315
#
# Stress axis : x y z
#
# Youngs Moduli (GPa) = 31.81354 31.81354 71.98840
#
# Poissons Ratio (x) = 0.38017 0.40448
# Poissons Ratio (y) = 0.38017 0.40448
# Poissons Ratio (z) = 0.17875 0.17875
#
# Static dielectric constant tensor:
#      x y z
#    x 1.481430 0.000000 0.000000 
#    y 0.000000 1.481430 0.000000 
#    z 0.000000 0.000000 1.524310 
# 
# From -- ./inp_files/5428.got.cif
#   From: 2010.05.17/outbox.cif.g08.bks.cpg/sg191_3_cif.got.tgz:5428.got - 2010.05.20 12:20:32.
