data_PCOD9587865
_publ_section_title
;
Structure prediction by ZEFSAII (Michael W. Deem and Ramdas Pophale) SiO2 
 PCOD9587865
Probable space group: P 6/M M M
;
_chemical_formula_sum "Si O2"
_cell_formula_units_Z 120
_cell_length_a 23.362577
_cell_length_b 23.362577
_cell_length_c 13.969714
_cell_angle_alpha 90.000000
_cell_angle_beta 90.000000
_cell_angle_gamma 120.000000
_cell_volume 6603.278861
_symmetry_space_group_name_H-M "P 6/M M M"
_symmetry_group_IT_number 191
_symmetry_cell_setting 'hexagonal'
loop_
_space_group_symop_operation_xyz
x,y,z
x-y,x,z
-y,x-y,z
-x,-y,z
-x+y,-x,z
y,-x+y,z
x-y,-y,-z
-x,-x+y,-z
y,x,-z
-y,-x,-z
-x+y,y,-z
x,x-y,-z
-x,-y,-z
-x+y,-x,-z
y,-x+y,-z
x,y,-z
x-y,x,-z
-y,x-y,-z
-x+y,y,z
x,x-y,z
-y,-x,z
y,x,z
x-y,-y,z
-x,-x+y,z
loop_
_atom_site_type_symbol
_atom_site_label
_atom_site_fract_x
_atom_site_fract_y
_atom_site_fract_z
Si Si1 0.077000 0.281690 0.794032
Si Si2 0.920146 0.646538 0.391955
Si Si3 0.477483 0.399617 0.383580
Si Si4 0.797911 0.333312 0.116895
Si Si5 0.329607 0.403300 0.114867
O O1 0.130395 0.260789 0.820605
O O2 0.091106 0.310741 0.686161
O O3 0.086504 0.344189 0.855924
O O4 0.000000 0.226211 0.801870
O O5 0.896793 0.646582 0.500000
O O6 0.894884 0.571518 0.357152
O O7 0.000000 0.680756 0.396825
O O8 0.478427 0.397779 0.500000
O O9 0.553326 0.446675 0.351429
O O10 0.439584 0.439584 0.358574
O O11 0.789859 0.394930 0.146659
O O12 0.736326 0.263675 0.148405
O O13 0.867939 0.341952 0.147272
O O14 0.797427 0.332543 0.000000
O O15 0.381539 0.381539 0.151056
O O16 0.333621 0.405730 0.000000
#
# Coordination Sequence:
#
# PCOD9587865 Si02
#       5
#    24  24  24  24  24
#     4  10  20  33  49  68  89 113 143 180 223 273
#     4   8  14  25  41  62  88 116 144 173 208 253
#     4   7   9  15  30  52  78 109 142 172 201 233
#     4   9  16  26  42  64  91 124 160 195 229 267
#     4   9  18  32  49  68  90 119 155 193 231 267
#
# _framework density 18.172789999999999
#
# number of rings (size 3 to 8) (size 9 to 14) (size 15 to 20)
#    0.000    3.400    0.000    2.600    0.000    2.800 
#    0.000    3.000    0.000    3.800    0.000    0.000 
#    0.000    0.000    0.000   10.600    0.000    8.600 
#
# Total GULP energy -668198.581029 kJ/mol
# GULP energy per Si atom -5568.321509 kJ/mol
# Density = 1.813143 g / cm^3
# Si number density = 18.172790 Si / 1000 Ang^3
#
#
#
# Elastic Constant Matrix: (Units=GPa)
#
#
# Indices 1 2 3 4 5 6 
#
# 1 99.4642 71.1604 0.9308 0.0000 0.0000 0.0000
# 2 71.1604 99.4642 0.9308 0.0000 0.0000 0.0000
# 3 0.9308 0.9308 34.3096 0.0000 0.0000 0.0000
# 4 0.0000 0.0000 0.0000 11.6170 0.0000 0.0000
# 5 0.0000 0.0000 0.0000 0.0000 11.6170 0.0000
# 6 0.0000 0.0000 0.0000 0.0000 0.0000 14.1519
#
#
#
# Elastic Compliance Matrix: (Units=1/GPa)
#
#
# Indices 1 2 3 4 5 6 
#
# 1 0.020597 -0.014734 -0.000159 0.000000 0.000000 0.000000
# 2 -0.014734 0.020597 -0.000159 0.000000 0.000000 0.000000
# 3 -0.000159 -0.000159 0.029155 0.000000 0.000000 0.000000
# 4 0.000000 0.000000 0.000000 0.086081 0.000000 0.000000
# 5 0.000000 0.000000 0.000000 0.000000 0.086081 0.000000
# 6 0.000000 0.000000 0.000000 0.000000 0.000000 0.070662
#
#
# Mechanical properties :
#
#
# Convention : Reuss Voigt Hill
#
# Bulk Modulus (GPa) = 24.84846 42.14242 33.49544
# Shear Modulus (GPa) = 14.01772 18.15824 16.08798
#
# Velocity S-wave (km/s) = 2.78035 3.16444 2.97859
# Velocity P-wave (km/s) = 4.90002 6.04911 5.50463
#
# Compressibility (1/GPa) = 0.04024395
#
# Stress axis : x y z
#
# Youngs Moduli (GPa) = 48.55133 48.55133 34.29943
#
# Poissons Ratio (x) = 0.71537 0.00546
# Poissons Ratio (y) = 0.71537 0.00546
# Poissons Ratio (z) = 0.00772 0.00772
#
# Static dielectric constant tensor:
#      x y z
#    x 1.625910 0.000000 0.000000 
#    y 0.000000 1.625910 0.000000 
#    z 0.000000 0.000000 1.675380 
# 
# From -- ./inp_files/4682.got.cif
#   From: 2010.05.17/outbox.cif.g08.bks.cpg/sg191_3_cif.got.tgz:4682.got - 2010.05.20 12:20:32.
