data_PCOD9587046
_publ_section_title
;
Structure prediction by ZEFSAII (Michael W. Deem and Ramdas Pophale) SiO2 
 PCOD9587046
Probable space group: P 6/M M M
;
_chemical_formula_sum "Si O2"
_cell_formula_units_Z 168
_cell_length_a 28.772491
_cell_length_b 28.772491
_cell_length_c 16.075599
_cell_angle_alpha 90.000000
_cell_angle_beta 90.000000
_cell_angle_gamma 120.000000
_cell_volume 11525.312819
_symmetry_space_group_name_H-M "P 6/M M M"
_symmetry_group_IT_number 191
_symmetry_cell_setting 'hexagonal'
loop_
_space_group_symop_operation_xyz
x,y,z
x-y,x,z
-y,x-y,z
-x,-y,z
-x+y,-x,z
y,-x+y,z
x-y,-y,-z
-x,-x+y,-z
y,x,-z
-y,-x,-z
-x+y,y,-z
x,x-y,-z
-x,-y,-z
-x+y,-x,-z
y,-x+y,-z
x,y,-z
x-y,x,-z
-y,x-y,-z
-x+y,y,z
x,x-y,z
-y,-x,z
y,x,z
x-y,-y,z
-x,-x+y,z
loop_
_atom_site_type_symbol
_atom_site_label
_atom_site_fract_x
_atom_site_fract_y
_atom_site_fract_z
Si Si1 0.426888 0.064724 0.408105
Si Si2 0.653312 0.880814 0.844909
Si Si3 0.164292 0.223924 0.600416
Si Si4 0.591087 0.654567 0.906227
Si Si5 0.939747 0.776778 0.899380
Si Si6 0.479528 0.414292 0.757636
Si Si7 0.734459 0.671657 0.327743
O O1 0.449531 0.085284 0.500000
O O2 0.466672 0.083931 0.329696
O O3 0.377484 0.074275 0.387524
O O4 0.400154 0.000000 0.410280
O O5 0.637797 0.818899 0.853268
O O6 0.618977 0.900558 0.896728
O O7 0.715569 0.915689 0.871458
O O8 0.650899 0.898019 0.750590
O O9 0.162959 0.223193 0.500000
O O10 0.108147 0.216294 0.631567
O O11 0.179571 0.179571 0.628186
O O12 0.213217 0.281096 0.628674
O O13 0.634926 0.634926 0.893674
O O14 0.546479 0.625548 0.835274
O O15 0.569944 0.638243 0.000000
O O16 0.897277 0.794554 0.872265
O O17 0.000000 0.813110 0.868034
O O18 0.940968 0.777448 0.000000
O O19 0.541647 0.458354 0.767279
O O20 0.447387 0.447387 0.755312
O O21 0.698003 0.698003 0.300546
#
# Coordination Sequence:
#
# PCOD9587046 Si02
#       7
#    24  24  24  24  24  24  24
#     4   9  16  26  42  63  87 115 145 178 216 255
#     4  11  20  28  41  61  84 110 144 182 226 272
#     4   9  17  28  41  57  77 103 138 182 232 285
#     4  10  19  31  46  62  84 117 152 185 222 260
#     4   9  17  28  41  57  77 102 134 175 225 282
#     4   9  17  29  44  64  89 115 147 182 208 236
#     4  10  17  27  42  59  83 111 143 179 219 268
#
# _framework density 14.576611
#
# number of rings (size 3 to 8) (size 9 to 14) (size 15 to 20)
#    0.000    2.429    1.429    2.571    0.000    4.286 
#    0.000    2.857    0.000    0.286    0.000    2.000 
#    0.000    0.000    0.000    5.000    0.000    8.143 
#
# Total GULP energy -936070.722276 kJ/mol
# GULP energy per Si atom -5571.849537 kJ/mol
# Density = 1.454343 g / cm^3
# Si number density = 14.576611 Si / 1000 Ang^3
#
#
#
# Elastic Constant Matrix: (Units=GPa)
#
#
# Indices 1 2 3 4 5 6 
#
# 1 68.6705 32.6389 35.6943 0.0000 0.0000 0.0000
# 2 32.6389 68.6705 35.6943 0.0000 0.0000 0.0000
# 3 35.6943 35.6943 84.0702 0.0000 0.0000 0.0000
# 4 0.0000 0.0000 0.0000 12.9783 0.0000 0.0000
# 5 0.0000 0.0000 0.0000 0.0000 12.9783 0.0000
# 6 0.0000 0.0000 0.0000 0.0000 0.0000 18.0158
#
#
#
# Elastic Compliance Matrix: (Units=1/GPa)
#
#
# Indices 1 2 3 4 5 6 
#
# 1 0.020919 -0.006834 -0.005980 0.000000 0.000000 0.000000
# 2 -0.006834 0.020919 -0.005980 0.000000 0.000000 0.000000
# 3 -0.005980 -0.005980 0.016973 0.000000 0.000000 0.000000
# 4 0.000000 0.000000 0.000000 0.077052 0.000000 0.000000
# 5 0.000000 0.000000 0.000000 0.000000 0.077052 0.000000
# 6 0.000000 0.000000 0.000000 0.000000 0.000000 0.055507
#
#
# Mechanical properties :
#
#
# Convention : Reuss Voigt Hill
#
# Bulk Modulus (GPa) = 47.12097 47.71847 47.41972
# Shear Modulus (GPa) = 15.97017 16.62007 16.29512
#
# Velocity S-wave (km/s) = 3.31358 3.38033 3.34712
# Velocity P-wave (km/s) = 6.85830 6.93130 6.89490
#
# Compressibility (1/GPa) = 0.02122197
#
# Stress axis : x y z
#
# Youngs Moduli (GPa) = 47.80341 47.80341 58.91797
#
# Poissons Ratio (x) = 0.32671 0.35233
# Poissons Ratio (y) = 0.32671 0.35233
# Poissons Ratio (z) = 0.28586 0.28586
#
# Static dielectric constant tensor:
#      x y z
#    x 1.469670 0.000000 0.000000 
#    y 0.000000 1.469670 0.000000 
#    z 0.000000 0.000000 1.524780 
# 
# From -- ./inp_files/5384.got.cif
#   From: 2010.05.17/outbox.cif.g08.bks.cpg/sg191_3_cif.got.tgz:5384.got - 2010.05.20 12:20:32.
