data_PCOD9587808
_publ_section_title
;
Structure prediction by ZEFSAII (Michael W. Deem and Ramdas Pophale) SiO2 
 PCOD9587808
Probable space group: P 6/M M M
;
_chemical_formula_sum "Si O2"
_cell_formula_units_Z 96
_cell_length_a 23.219655
_cell_length_b 23.219655
_cell_length_c 13.090984
_cell_angle_alpha 90.000000
_cell_angle_beta 90.000000
_cell_angle_gamma 120.000000
_cell_volume 6112.437748
_symmetry_space_group_name_H-M "P 6/M M M"
_symmetry_group_IT_number 191
_symmetry_cell_setting 'hexagonal'
loop_
_space_group_symop_operation_xyz
x,y,z
x-y,x,z
-y,x-y,z
-x,-y,z
-x+y,-x,z
y,-x+y,z
x-y,-y,-z
-x,-x+y,-z
y,x,-z
-y,-x,-z
-x+y,y,-z
x,x-y,-z
-x,-y,-z
-x+y,-x,-z
y,-x+y,-z
x,y,-z
x-y,x,-z
-y,x-y,-z
-x+y,y,z
x,x-y,z
-y,-x,z
y,x,z
x-y,-y,z
-x,-x+y,z
loop_
_atom_site_type_symbol
_atom_site_label
_atom_site_fract_x
_atom_site_fract_y
_atom_site_fract_z
Si Si1 0.381193 0.257373 0.806396
Si Si2 0.473607 0.392845 0.725405
Si Si3 0.607506 0.532199 0.500000
Si Si4 0.790414 0.075835 0.000000
Si Si5 0.208278 0.923920 0.383851
O O1 0.402467 0.201234 0.809042
O O2 0.441791 0.331997 0.802928
O O3 0.331701 0.242090 0.900916
O O4 0.339007 0.245982 0.702718
O O5 0.548693 0.451308 0.745350
O O6 0.429346 0.429346 0.724602
O O7 0.469422 0.364207 0.610429
O O8 0.593611 0.593611 0.500000
O O9 0.535019 0.464982 0.500000
O O10 0.868203 0.131798 0.000000
O O11 0.773036 0.000000 0.000000
O O12 0.227821 0.916740 0.500000
O O13 0.130625 0.869376 0.372576
O O14 0.227122 0.000000 0.371888
#
# Coordination Sequence:
#
# PCOD9587808 Si02
#       5
#    24  24  12  12  24
#     4  10  20  32  46  66  92 122 155 189 231 282
#     4   9  16  27  44  66  91 117 147 183 224 267
#     4   7  12  22  37  60  88 116 142 171 213 263
#     4  10  20  34  51  70  95 127 161 195 233 281
#     4   9  17  28  43  64  89 116 146 183 228 277
#
# _framework density 15.705681999999999
#
# number of rings (size 3 to 8) (size 9 to 14) (size 15 to 20)
#    0.000    2.875    0.000    3.750    1.750    0.000 
#    0.000    0.625    0.000    3.125    0.000    1.750 
#    0.000    6.000    0.000    0.250    0.000    0.500 
#
# Total GULP energy -534518.243733 kJ/mol
# GULP energy per Si atom -5567.898372 kJ/mol
# Density = 1.566994 g / cm^3
# Si number density = 15.705682 Si / 1000 Ang^3
#
#
#
# Elastic Constant Matrix: (Units=GPa)
#
#
# Indices 1 2 3 4 5 6 
#
# 1 84.1428 46.4984 37.8329 0.0000 0.0000 0.0000
# 2 46.4984 84.1428 37.8329 0.0000 0.0000 0.0000
# 3 37.8329 37.8329 66.0482 0.0000 0.0000 0.0000
# 4 0.0000 0.0000 0.0000 15.7799 0.0000 0.0000
# 5 0.0000 0.0000 0.0000 0.0000 15.7799 0.0000
# 6 0.0000 0.0000 0.0000 0.0000 0.0000 18.8222
#
#
#
# Elastic Compliance Matrix: (Units=1/GPa)
#
#
# Indices 1 2 3 4 5 6 
#
# 1 0.019010 -0.007555 -0.006561 0.000000 0.000000 0.000000
# 2 -0.007555 0.019010 -0.006561 0.000000 0.000000 0.000000
# 3 -0.006561 -0.006561 0.022657 0.000000 0.000000 0.000000
# 4 0.000000 0.000000 0.000000 0.063372 0.000000 0.000000
# 5 0.000000 0.000000 0.000000 0.000000 0.063372 0.000000
# 6 0.000000 0.000000 0.000000 0.000000 0.000000 0.053129
#
#
# Mechanical properties :
#
#
# Convention : Reuss Voigt Hill
#
# Bulk Modulus (GPa) = 51.75630 53.18472 52.47051
# Shear Modulus (GPa) = 17.34036 17.55437 17.44737
#
# Velocity S-wave (km/s) = 3.32638 3.34684 3.33663
# Velocity P-wave (km/s) = 6.91220 6.99085 6.95164
#
# Compressibility (1/GPa) = 0.01932132
#
# Stress axis : x y z
#
# Youngs Moduli (GPa) = 52.60502 52.60502 44.13584
#
# Poissons Ratio (x) = 0.39742 0.28959
# Poissons Ratio (y) = 0.39742 0.28959
# Poissons Ratio (z) = 0.34516 0.34516
#
# Static dielectric constant tensor:
#      x y z
#    x 1.521210 0.000000 0.000000 
#    y 0.000000 1.521210 0.000000 
#    z 0.000000 0.000000 1.561210 
# 
# From -- ./inp_files/2808.got.cif
#   From: 2010.05.17/outbox.cif.g08.bks.cpg/sg191_2_cif.got.tgz:2808.got - 2010.05.20 12:20:32.
