data_PCOD9587999
_publ_section_title
;
Structure prediction by ZEFSAII (Michael W. Deem and Ramdas Pophale) SiO2 
 PCOD9587999
Probable space group: P 6/M M M
;
_chemical_formula_sum "Si O2"
_cell_formula_units_Z 120
_cell_length_a 22.987827
_cell_length_b 22.987827
_cell_length_c 14.569264
_cell_angle_alpha 90.000000
_cell_angle_beta 90.000000
_cell_angle_gamma 120.000000
_cell_volume 6667.516281
_symmetry_space_group_name_H-M "P 6/M M M"
_symmetry_group_IT_number 191
_symmetry_cell_setting 'hexagonal'
loop_
_space_group_symop_operation_xyz
x,y,z
x-y,x,z
-y,x-y,z
-x,-y,z
-x+y,-x,z
y,-x+y,z
x-y,-y,-z
-x,-x+y,-z
y,x,-z
-y,-x,-z
-x+y,y,-z
x,x-y,-z
-x,-y,-z
-x+y,-x,-z
y,-x+y,-z
x,y,-z
x-y,x,-z
-y,x-y,-z
-x+y,y,z
x,x-y,z
-y,-x,z
y,x,z
x-y,-y,z
-x,-x+y,z
loop_
_atom_site_type_symbol
_atom_site_label
_atom_site_fract_x
_atom_site_fract_y
_atom_site_fract_z
Si Si1 0.792286 0.075325 0.112202
Si Si2 0.597623 0.866214 0.610056
Si Si3 0.712126 0.565302 0.896396
Si Si4 0.000000 0.730526 0.612065
Si Si5 0.194104 0.528497 0.269220
Si Si6 0.000000 0.865267 0.387853
O O1 0.864723 0.135278 0.144266
O O2 0.735342 0.094556 0.135779
O O3 0.769455 0.000000 0.141878
O O4 0.794568 0.076661 0.000000
O O5 0.593202 0.867814 0.500000
O O6 0.608542 0.804271 0.635563
O O7 0.527440 0.848938 0.654798
O O8 0.662575 0.934138 0.640981
O O9 0.782629 0.565257 0.899600
O O10 0.666434 0.507198 0.826480
O O11 0.685443 0.555134 0.000000
O O12 0.000000 0.797833 0.640493
O O13 0.000000 0.731418 0.500000
O O14 0.269249 0.538498 0.270364
O O15 0.196556 0.598278 0.282430
O O16 0.932562 0.865123 0.358531
O O17 0.000000 0.865700 0.500000
#
# Coordination Sequence:
#
# PCOD9587999 Si02
#       6
#    24  24  24  12  24  12
#     4   8  13  23  42  67  94 126 164 203 242 285
#     4   9  18  33  52  73  97 127 166 210 250 287
#     4   8  15  29  48  70  97 129 162 196 236 285
#     4   9  16  29  49  69  92 128 171 211 249 289
#     4  10  20  34  52  74  99 127 158 198 248 303
#     4   9  15  22  37  67 106 140 167 199 244 298
#
# _framework density 17.997706000000001
#
# number of rings (size 3 to 8) (size 9 to 14) (size 15 to 20)
#    0.000    3.200    0.000    2.100    0.000    3.600 
#    1.800    0.500    0.000    4.400    0.000    4.200 
#    0.000    0.000    0.000    0.000    0.000    0.000 
#
# Total GULP energy -669010.665779 kJ/mol
# GULP energy per Si atom -5575.088881 kJ/mol
# Density = 1.795674 g / cm^3
# Si number density = 17.997706 Si / 1000 Ang^3
#
#
#
# Elastic Constant Matrix: (Units=GPa)
#
#
# Indices 1 2 3 4 5 6 
#
# 1 141.2572 88.0057 32.8486 0.0000 0.0000 0.0000
# 2 88.0057 141.2572 32.8486 0.0000 0.0000 0.0000
# 3 32.8486 32.8486 38.8116 0.0000 0.0000 0.0000
# 4 0.0000 0.0000 0.0000 -13.8370 0.0000 0.0000
# 5 0.0000 0.0000 0.0000 0.0000 -13.8370 0.0000
# 6 0.0000 0.0000 0.0000 0.0000 0.0000 26.6258
#
#
#
# Elastic Compliance Matrix: (Units=1/GPa)
#
#
# Indices 1 2 3 4 5 6 
#
# 1 0.012269 -0.006510 -0.004874 0.000000 0.000000 0.000000
# 2 -0.006510 0.012269 -0.004874 0.000000 0.000000 0.000000
# 3 -0.004874 -0.004874 0.034015 0.000000 0.000000 0.000000
# 4 0.000000 0.000000 0.000000 -0.072270 0.000000 0.000000
# 5 0.000000 0.000000 0.000000 0.000000 -0.072270 0.000000
# 6 0.000000 0.000000 0.000000 0.000000 0.000000 0.037558
#
#
# Mechanical properties :
#
#
# Convention : Reuss Voigt Hill
#
# Bulk Modulus (GPa) = 38.40641 69.85909 54.13275
# Shear Modulus (GPa) = -691.02405 10.96523 -340.02941
#
# Velocity S-wave (km/s) = -19.61593 2.47099 -13.76007
# Velocity P-wave (km/s) = 22.17341 6.85864 14.91005
#
# Compressibility (1/GPa) = 0.02603732
#
# Stress axis : x y z
#
# Youngs Moduli (GPa) = 81.50891 81.50891 29.39860
#
# Poissons Ratio (x) = 0.53064 0.14328
# Poissons Ratio (y) = 0.53064 0.14328
# Poissons Ratio (z) = 0.39725 0.39725
#
# Static dielectric constant tensor:
#      x y z
#    x 1.596590 0.000000 0.000000 
#    y 0.000000 1.596590 0.000000 
#    z 0.000000 0.000000 1.685070 
# 
# From -- ./inp_files/6297.got.cif
#   From: 2010.05.17/outbox.cif.g08.bks.cpg/sg191_4_cif.got.tgz:6297.got - 2010.05.20 12:20:32.
