data_PCOD9587743
_publ_section_title
;
Structure prediction by ZEFSAII (Michael W. Deem and Ramdas Pophale) SiO2 
 PCOD9587743
Probable space group: P 6/M M M
;
_chemical_formula_sum "Si O2"
_cell_formula_units_Z 96
_cell_length_a 17.417172
_cell_length_b 17.417172
_cell_length_c 23.065088
_cell_angle_alpha 90.000000
_cell_angle_beta 90.000000
_cell_angle_gamma 120.000000
_cell_volume 6059.559146
_symmetry_space_group_name_H-M "P 6/M M M"
_symmetry_group_IT_number 191
_symmetry_cell_setting 'hexagonal'
loop_
_space_group_symop_operation_xyz
x,y,z
x-y,x,z
-y,x-y,z
-x,-y,z
-x+y,-x,z
y,-x+y,z
x-y,-y,-z
-x,-x+y,-z
y,x,-z
-y,-x,-z
-x+y,y,-z
x,x-y,-z
-x,-y,-z
-x+y,-x,-z
y,-x+y,-z
x,y,-z
x-y,x,-z
-y,x-y,-z
-x+y,y,z
x,x-y,z
-y,-x,z
y,x,z
x-y,-y,z
-x,-x+y,z
loop_
_atom_site_type_symbol
_atom_site_label
_atom_site_fract_x
_atom_site_fract_y
_atom_site_fract_z
Si Si1 0.000000 0.824214 0.070179
Si Si2 0.849851 0.517608 0.310423
Si Si3 0.356450 0.356450 0.910540
Si Si4 0.000000 0.592458 0.221752
Si Si5 0.516727 0.851057 0.000000
Si Si6 0.332847 0.849883 0.562316
O O1 0.911683 0.823366 0.090398
O O2 0.000000 0.735383 0.086095
O O3 0.000000 0.827055 0.000000
O O4 0.754496 0.508992 0.304369
O O5 0.841009 0.420505 0.308861
O O6 0.914628 0.574250 0.258971
O O7 0.887604 0.557301 0.374631
O O8 0.380807 0.380807 0.844039
O O9 0.430740 0.344379 0.945078
O O10 0.000000 0.500000 0.221532
O O11 0.416371 0.832742 0.000000
O O12 0.520683 0.760341 0.000000
O O13 0.327390 0.889431 0.500000
O O14 0.424379 0.848758 0.561392
O O15 0.250288 0.749713 0.563059
#
# Coordination Sequence:
#
# PCOD9587743 Si02
#       6
#    12  24  12  12  12  24
#     4  10  19  33  54  82 108 127 148 182 225 272
#     4   9  17  29  45  64  88 119 156 195 234 276
#     4  11  21  36  56  73  98 132 163 189 230 290
#     4  10  21  35  47  65  92 123 157 195 233 269
#     4  11  22  37  56  78 100 123 156 199 242 282
#     4   8  12  19  34  57  83 111 145 187 233 277
#
# _framework density 15.842737
#
# number of rings (size 3 to 8) (size 9 to 14) (size 15 to 20)
#    0.000    2.500    1.250    3.000    0.000    5.500 
#    0.000    0.625    0.000    6.750    0.000    0.000 
#    0.000    0.000    0.000    0.000    0.000    0.000 
#
# Total GULP energy -534469.730774 kJ/mol
# GULP energy per Si atom -5567.393029 kJ/mol
# Density = 1.580668 g / cm^3
# Si number density = 15.842737 Si / 1000 Ang^3
#
#
#
# Elastic Constant Matrix: (Units=GPa)
#
#
# Indices 1 2 3 4 5 6 
#
# 1 67.5787 50.4797 45.9316 0.0000 0.0000 0.0000
# 2 50.4797 67.5787 45.9316 0.0000 0.0000 0.0000
# 3 45.9316 45.9316 163.2645 0.0000 0.0000 0.0000
# 4 0.0000 0.0000 0.0000 -69.8357 0.0000 0.0000
# 5 0.0000 0.0000 0.0000 0.0000 -69.8357 0.0000
# 6 0.0000 0.0000 0.0000 0.0000 0.0000 8.5495
#
#
#
# Elastic Compliance Matrix: (Units=1/GPa)
#
#
# Indices 1 2 3 4 5 6 
#
# 1 0.034664 -0.023819 -0.003051 0.000000 0.000000 0.000000
# 2 -0.023819 0.034664 -0.003051 0.000000 0.000000 0.000000
# 3 -0.003051 -0.003051 0.007842 0.000000 0.000000 0.000000
# 4 0.000000 0.000000 0.000000 -0.014319 0.000000 0.000000
# 5 0.000000 0.000000 0.000000 0.000000 -0.014319 0.000000
# 6 0.000000 0.000000 0.000000 0.000000 0.000000 0.116966
#
#
# Mechanical properties :
#
#
# Convention : Reuss Voigt Hill
#
# Bulk Modulus (GPa) = 57.71394 64.78973 61.25183
# Shear Modulus (GPa) = 21.63431 -15.81911 2.90760
#
# Velocity S-wave (km/s) = 3.69937 -3.16335 1.35620
# Velocity P-wave (km/s) = 7.39969 5.25756 6.41862
#
# Compressibility (1/GPa) = 0.01732684
#
# Stress axis : x y z
#
# Youngs Moduli (GPa) = 28.84862 28.84862 127.52434
#
# Poissons Ratio (x) = 0.68716 0.38906
# Poissons Ratio (y) = 0.68716 0.38906
# Poissons Ratio (z) = 0.08801 0.08801
#
# Static dielectric constant tensor:
#      x y z
#    x 1.520710 0.000000 0.000000 
#    y 0.000000 1.520710 0.000000 
#    z 0.000000 0.000000 1.573670 
# 
# From -- ./inp_files/8295.got.cif
#   From: 2010.05.17/outbox.cif.g08.bks.cpg/sg191_5_cif.got.tgz:8295.got - 2010.05.20 12:20:32.
