data_PCOD9587495
_publ_section_title
;
Structure prediction by ZEFSAII (Michael W. Deem and Ramdas Pophale) SiO2 
 PCOD9587495
Probable space group: P 6/M M M
;
_chemical_formula_sum "Si O2"
_cell_formula_units_Z 132
_cell_length_a 18.063131
_cell_length_b 18.063131
_cell_length_c 28.545321
_cell_angle_alpha 90.000000
_cell_angle_beta 90.000000
_cell_angle_gamma 120.000000
_cell_volume 8065.877576
_symmetry_space_group_name_H-M "P 6/M M M"
_symmetry_group_IT_number 191
_symmetry_cell_setting 'hexagonal'
loop_
_space_group_symop_operation_xyz
x,y,z
x-y,x,z
-y,x-y,z
-x,-y,z
-x+y,-x,z
y,-x+y,z
x-y,-y,-z
-x,-x+y,-z
y,x,-z
-y,-x,-z
-x+y,y,-z
x,x-y,-z
-x,-y,-z
-x+y,-x,-z
y,-x+y,-z
x,y,-z
x-y,x,-z
-y,x-y,-z
-x+y,y,z
x,x-y,z
-y,-x,z
y,x,z
x-y,-y,z
-x,-x+y,z
loop_
_atom_site_type_symbol
_atom_site_label
_atom_site_fract_x
_atom_site_fract_y
_atom_site_fract_z
Si Si1 0.268724 0.903417 0.138224
Si Si2 0.508209 0.667447 0.774447
Si Si3 0.097293 0.459047 0.500000
Si Si4 0.494701 0.331104 0.398044
Si Si5 0.159954 0.666361 0.945586
Si Si6 0.097053 0.730620 0.686466
O O1 0.169431 0.830570 0.140335
O O2 0.315541 0.882102 0.179882
O O3 0.307326 0.891067 0.089858
O O4 0.289827 0.000000 0.142829
O O5 0.481739 0.740870 0.774382
O O6 0.425582 0.574419 0.774131
O O7 0.567546 0.684978 0.729147
O O8 0.095824 0.547912 0.500000
O O9 0.141590 0.461046 0.451261
O O10 0.000000 0.383497 0.500000
O O11 0.525942 0.262971 0.389351
O O12 0.573064 0.426937 0.392270
O O13 0.419954 0.308769 0.361139
O O14 0.150156 0.575078 0.933929
O O15 0.259246 0.740755 0.941217
O O16 0.135516 0.664732 0.000000
O O17 0.169829 0.830172 0.688132
O O18 0.000000 0.708865 0.689786
#
# Coordination Sequence:
#
# PCOD9587495 Si02
#       6
#    24  24  12  24  24  24
#     4  10  21  35  50  69  93 122 156 196 242 286
#     4  10  20  33  50  73 102 134 164 191 220 259
#     4   9  17  28  42  60  84 119 163 205 237 266
#     4  10  19  30  45  66  94 127 161 195 231 273
#     4   9  17  29  46  69  98 131 163 192 223 264
#     4  10  21  35  51  71  94 122 155 194 239 282
#
# _framework density 16.365237
#
# number of rings (size 3 to 8) (size 9 to 14) (size 15 to 20)
#    0.000    2.273    0.000    3.000    0.000    5.455 
#    0.000    5.455    0.000    0.364    0.000    0.000 
#    0.000    4.364    0.000    4.545    0.000   18.909 
#
# Total GULP energy -736465.680355 kJ/mol
# GULP energy per Si atom -5579.285457 kJ/mol
# Density = 1.632799 g / cm^3
# Si number density = 16.365237 Si / 1000 Ang^3
#
#
#
# Elastic Constant Matrix: (Units=GPa)
#
#
# Indices 1 2 3 4 5 6 
#
# 1 89.4262 75.6643 38.3101 0.0000 0.0000 0.0000
# 2 75.6643 89.4262 38.3101 0.0000 0.0000 0.0000
# 3 38.3101 38.3101 82.5114 0.0000 0.0000 0.0000
# 4 0.0000 0.0000 0.0000 10.9006 0.0000 0.0000
# 5 0.0000 0.0000 0.0000 0.0000 10.9006 0.0000
# 6 0.0000 0.0000 0.0000 0.0000 0.0000 6.8809
#
#
#
# Elastic Compliance Matrix: (Units=1/GPa)
#
#
# Indices 1 2 3 4 5 6 
#
# 1 0.040193 -0.032472 -0.003585 0.000000 0.000000 0.000000
# 2 -0.032472 0.040193 -0.003585 0.000000 0.000000 0.000000
# 3 -0.003585 -0.003585 0.015448 0.000000 0.000000 0.000000
# 4 0.000000 0.000000 0.000000 0.091738 0.000000 0.000000
# 5 0.000000 0.000000 0.000000 0.000000 0.091738 0.000000
# 6 0.000000 0.000000 0.000000 0.000000 0.000000 0.145329
#
#
# Mechanical properties :
#
#
# Convention : Reuss Voigt Hill
#
# Bulk Modulus (GPa) = 60.41922 62.88143 61.65032
# Shear Modulus (GPa) = 9.81469 13.00836 11.41153
#
# Velocity S-wave (km/s) = 2.45159 2.82242 2.64351
# Velocity P-wave (km/s) = 6.70918 7.00918 6.86082
#
# Compressibility (1/GPa) = 0.01655103
#
# Stress axis : x y z
#
# Youngs Moduli (GPa) = 24.88005 24.88005 64.73130
#
# Poissons Ratio (x) = 0.80790 0.23206
# Poissons Ratio (y) = 0.80790 0.23206
# Poissons Ratio (z) = 0.08919 0.08919
#
# Static dielectric constant tensor:
#      x y z
#    x 1.535590 0.000000 0.000000 
#    y 0.000000 1.535590 0.000000 
#    z 0.000000 0.000000 1.565390 
# 
# From -- ./inp_files/9720.got.cif
#   From: 2010.05.17/outbox.cif.g08.bks.cpg/sg191_5_cif.got.tgz:9720.got - 2010.05.20 12:20:32.
