data_PCOD9587229
_publ_section_title
;
Structure prediction by ZEFSAII (Michael W. Deem and Ramdas Pophale) SiO2 
 PCOD9587229
Probable space group: P 6/M M M
;
_chemical_formula_sum "Si O2"
_cell_formula_units_Z 84
_cell_length_a 23.441350
_cell_length_b 23.441350
_cell_length_c 12.074437
_cell_angle_alpha 90.000000
_cell_angle_beta 90.000000
_cell_angle_gamma 120.000000
_cell_volume 5745.962141
_symmetry_space_group_name_H-M "P 6/M M M"
_symmetry_group_IT_number 191
_symmetry_cell_setting 'hexagonal'
loop_
_space_group_symop_operation_xyz
x,y,z
x-y,x,z
-y,x-y,z
-x,-y,z
-x+y,-x,z
y,-x+y,z
x-y,-y,-z
-x,-x+y,-z
y,x,-z
-y,-x,-z
-x+y,y,-z
x,x-y,-z
-x,-y,-z
-x+y,-x,-z
y,-x+y,-z
x,y,-z
x-y,x,-z
-y,x-y,-z
-x+y,y,z
x,x-y,z
-y,-x,z
y,x,z
x-y,-y,z
-x,-x+y,z
loop_
_atom_site_type_symbol
_atom_site_label
_atom_site_fract_x
_atom_site_fract_y
_atom_site_fract_z
Si Si1 0.075352 0.281766 0.500000
Si Si2 0.476380 0.396248 0.371120
Si Si3 0.642864 0.922309 0.723665
Si Si4 0.846830 0.693660 0.132245
Si Si5 0.076301 0.923700 0.865065
O O1 0.130309 0.260617 0.500000
O O2 0.084398 0.325649 0.391547
O O3 0.000000 0.223011 0.500000
O O4 0.478206 0.378875 0.500000
O O5 0.550225 0.449776 0.335670
O O6 0.435075 0.435075 0.370247
O O7 0.433570 0.331553 0.299070
O O8 0.658645 0.884430 0.816779
O O9 0.679968 0.000000 0.750132
O O10 0.885425 0.770850 0.168288
O O11 0.846018 0.692035 0.000000
O O12 0.000000 0.885145 0.828918
O O13 0.075768 0.924233 0.000000
#
# Coordination Sequence:
#
# PCOD9587229 Si02
#       5
#    12  24  24  12  12
#     4  10  18  30  47  68  91 121 157 199 253 305
#     4   8  13  23  42  69  97 117 133 160 209 276
#     4  10  18  29  46  67  93 121 152 191 238 291
#     4  11  22  32  43  60  89 129 168 206 246 287
#     4   9  17  30  46  61  77 104 153 218 280 321
#
# _framework density 14.618961000000001
#
# number of rings (size 3 to 8) (size 9 to 14) (size 15 to 20)
#    0.000    2.571    2.857    1.857    0.000    2.286 
#    0.000    0.000    0.000    1.000    0.000    4.000 
#    1.429    0.000    1.714    0.000    0.000    0.000 
#
# Total GULP energy -467898.664271 kJ/mol
# GULP energy per Si atom -5570.222194 kJ/mol
# Density = 1.458569 g / cm^3
# Si number density = 14.618961 Si / 1000 Ang^3
#
#
#
# Elastic Constant Matrix: (Units=GPa)
#
#
# Indices 1 2 3 4 5 6 
#
# 1 100.7823 63.0286 35.6539 0.0000 0.0000 0.0000
# 2 63.0286 100.7823 35.6539 0.0000 0.0000 0.0000
# 3 35.6539 35.6539 54.0747 0.0000 0.0000 0.0000
# 4 0.0000 0.0000 0.0000 17.4225 0.0000 0.0000
# 5 0.0000 0.0000 0.0000 0.0000 17.4225 0.0000
# 6 0.0000 0.0000 0.0000 0.0000 0.0000 18.8768
#
#
#
# Elastic Compliance Matrix: (Units=1/GPa)
#
#
# Indices 1 2 3 4 5 6 
#
# 1 0.017525 -0.008963 -0.005645 0.000000 0.000000 0.000000
# 2 -0.008963 0.017525 -0.005645 0.000000 0.000000 0.000000
# 3 -0.005645 -0.005645 0.025937 0.000000 0.000000 0.000000
# 4 0.000000 0.000000 0.000000 0.057397 0.000000 0.000000
# 5 0.000000 0.000000 0.000000 0.000000 0.057397 0.000000
# 6 0.000000 0.000000 0.000000 0.000000 0.000000 0.052975
#
#
# Mechanical properties :
#
#
# Convention : Reuss Voigt Hill
#
# Bulk Modulus (GPa) = 48.82787 58.25691 53.54239
# Shear Modulus (GPa) = 18.11007 18.83123 18.47065
#
# Velocity S-wave (km/s) = 3.52349 3.59296 3.55839
# Velocity P-wave (km/s) = 7.07292 7.55971 7.32036
#
# Compressibility (1/GPa) = 0.02048011
#
# Stress axis : x y z
#
# Youngs Moduli (GPa) = 57.06204 57.06204 38.55435
#
# Poissons Ratio (x) = 0.51143 0.21765
# Poissons Ratio (y) = 0.51143 0.21765
# Poissons Ratio (z) = 0.32214 0.32214
#
# Static dielectric constant tensor:
#      x y z
#    x 1.487590 0.000000 0.000000 
#    y 0.000000 1.487590 0.000000 
#    z 0.000000 0.000000 1.479780 
# 
# From -- ./inp_files/2691.got.cif
#   From: 2010.05.17/outbox.cif.g08.bks.cpg/sg191_2_cif.got.tgz:2691.got - 2010.05.20 12:20:32.
