data_PCOD9587188
_publ_section_title
;
Structure prediction by ZEFSAII (Michael W. Deem and Ramdas Pophale) SiO2 
 PCOD9587188
Probable space group: P 6/M M M
;
_chemical_formula_sum "Si O2"
_cell_formula_units_Z 144
_cell_length_a 21.449191
_cell_length_b 21.449191
_cell_length_c 23.977661
_cell_angle_alpha 90.000000
_cell_angle_beta 90.000000
_cell_angle_gamma 120.000000
_cell_volume 9553.429004
_symmetry_space_group_name_H-M "P 6/M M M"
_symmetry_group_IT_number 191
_symmetry_cell_setting 'hexagonal'
loop_
_space_group_symop_operation_xyz
x,y,z
x-y,x,z
-y,x-y,z
-x,-y,z
-x+y,-x,z
y,-x+y,z
x-y,-y,-z
-x,-x+y,-z
y,x,-z
-y,-x,-z
-x+y,y,-z
x,x-y,-z
-x,-y,-z
-x+y,-x,-z
y,-x+y,-z
x,y,-z
x-y,x,-z
-y,x-y,-z
-x+y,y,z
x,x-y,z
-y,-x,z
y,x,z
x-y,-y,z
-x,-x+y,z
loop_
_atom_site_type_symbol
_atom_site_label
_atom_site_fract_x
_atom_site_fract_y
_atom_site_fract_z
Si Si1 0.912571 0.456286 0.063338
Si Si2 0.465627 0.305049 0.372209
Si Si3 0.774283 0.082955 0.676209
Si Si4 0.084614 0.542307 0.433183
Si Si5 0.805817 0.472326 0.248161
Si Si6 0.082292 0.306197 0.808416
Si Si7 0.914780 0.556769 0.153943
O O1 0.891677 0.506601 0.099494
O O2 0.000000 0.500000 0.060791
O O3 0.885686 0.442843 0.000000
O O4 0.475805 0.237903 0.391476
O O5 0.380748 0.272064 0.359804
O O6 0.500466 0.375856 0.410129
O O7 0.502641 0.328818 0.311551
O O8 0.858046 0.141955 0.666919
O O9 0.760572 0.088132 0.742509
O O10 0.749097 0.000000 0.664872
O O11 0.087100 0.543550 0.500000
O O12 0.000000 0.500000 0.415827
O O13 0.746160 0.492320 0.230177
O O14 0.775238 0.387619 0.245467
O O15 0.872882 0.510258 0.207244
O O16 0.142141 0.284282 0.818818
O O17 0.096844 0.374830 0.845101
O O18 0.000000 0.244697 0.817307
O O19 0.000000 0.589460 0.161169
#
# Coordination Sequence:
#
# PCOD9587188 Si02
#       7
#    12  24  24  12  24  24  24
#     4   9  18  31  45  65  93 124 159 195 231 279
#     4  10  20  34  51  71  95 123 158 201 246 295
#     4   9  16  27  45  70  98 125 152 188 236 284
#     4  11  24  39  53  71  95 128 169 209 247 287
#     4  11  20  31  46  69  93 119 146 189 242 292
#     4   9  16  26  42  67  96 122 150 188 235 285
#     4  10  18  28  46  70  92 117 152 193 240 286
#
# _framework density 15.073122
#
# number of rings (size 3 to 8) (size 9 to 14) (size 15 to 20)
#    0.000    2.167    3.333    1.167    0.000    1.000 
#    0.500    0.000    0.000    2.333    0.000    2.333 
#    0.000    0.000    0.000    0.000    0.000    0.000 
#
# Total GULP energy -802100.029967 kJ/mol
# GULP energy per Si atom -5570.139097 kJ/mol
# Density = 1.503881 g / cm^3
# Si number density = 15.073122 Si / 1000 Ang^3
#
#
#
# Elastic Constant Matrix: (Units=GPa)
#
#
# Indices 1 2 3 4 5 6 
#
# 1 98.2382 62.9770 39.9065 0.0000 0.0000 0.0000
# 2 62.9770 98.2382 39.9065 0.0000 0.0000 0.0000
# 3 39.9065 39.9065 54.4837 0.0000 0.0000 0.0000
# 4 0.0000 0.0000 0.0000 12.9609 0.0000 0.0000
# 5 0.0000 0.0000 0.0000 0.0000 12.9609 0.0000
# 6 0.0000 0.0000 0.0000 0.0000 0.0000 17.6306
#
#
#
# Elastic Compliance Matrix: (Units=1/GPa)
#
#
# Indices 1 2 3 4 5 6 
#
# 1 0.019046 -0.009314 -0.007128 0.000000 0.000000 0.000000
# 2 -0.009314 0.019046 -0.007128 0.000000 0.000000 0.000000
# 3 -0.007128 -0.007128 0.028796 0.000000 0.000000 0.000000
# 4 0.000000 0.000000 0.000000 0.077155 0.000000 0.000000
# 5 0.000000 0.000000 0.000000 0.000000 0.077155 0.000000
# 6 0.000000 0.000000 0.000000 0.000000 0.000000 0.056719
#
#
# Mechanical properties :
#
#
# Convention : Reuss Voigt Hill
#
# Bulk Modulus (GPa) = 50.63960 59.61557 55.12759
# Shear Modulus (GPa) = 15.07658 15.92181 15.49920
#
# Velocity S-wave (km/s) = 3.16607 3.25361 3.21014
# Velocity P-wave (km/s) = 6.85815 7.33154 7.09879
#
# Compressibility (1/GPa) = 0.01974739
#
# Stress axis : x y z
#
# Youngs Moduli (GPa) = 52.50514 52.50514 34.72709
#
# Poissons Ratio (x) = 0.48903 0.24754
# Poissons Ratio (y) = 0.48903 0.24754
# Poissons Ratio (z) = 0.37426 0.37426
#
# Static dielectric constant tensor:
#      x y z
#    x 1.511650 0.000000 0.000000 
#    y 0.000000 1.511650 0.000000 
#    z 0.000000 0.000000 1.481230 
# 
# From -- ./inp_files/7679.got.cif
#   From: 2010.05.17/outbox.cif.g08.bks.cpg/sg191_4_cif.got.tgz:7679.got - 2010.05.20 12:20:32.
