data_PCOD9587620
_publ_section_title
;
Structure prediction by ZEFSAII (Michael W. Deem and Ramdas Pophale) SiO2 
 PCOD9587620
Probable space group: P 6/M M M
;
_chemical_formula_sum "Si O2"
_cell_formula_units_Z 144
_cell_length_a 23.062952
_cell_length_b 23.062952
_cell_length_c 20.556668
_cell_angle_alpha 90.000000
_cell_angle_beta 90.000000
_cell_angle_gamma 120.000000
_cell_volume 9469.196825
_symmetry_space_group_name_H-M "P 6/M M M"
_symmetry_group_IT_number 191
_symmetry_cell_setting 'hexagonal'
loop_
_space_group_symop_operation_xyz
x,y,z
x-y,x,z
-y,x-y,z
-x,-y,z
-x+y,-x,z
y,-x+y,z
x-y,-y,-z
-x,-x+y,-z
y,x,-z
-y,-x,-z
-x+y,y,-z
x,x-y,-z
-x,-y,-z
-x+y,-x,-z
y,-x+y,-z
x,y,-z
x-y,x,-z
-y,x-y,-z
-x+y,y,z
x,x-y,z
-y,-x,z
y,x,z
x-y,-y,z
-x,-x+y,z
loop_
_atom_site_type_symbol
_atom_site_label
_atom_site_fract_x
_atom_site_fract_y
_atom_site_fract_z
Si Si1 0.280895 0.076022 0.729128
Si Si2 0.393098 0.471099 0.422330
Si Si3 0.529497 0.921113 0.206126
Si Si4 0.923218 0.207828 0.114428
Si Si5 0.568440 0.852023 0.316993
Si Si6 0.664900 0.584002 0.070935
O O1 0.254129 0.127065 0.716616
O O2 0.293693 0.078203 0.807114
O O3 0.351507 0.104819 0.693185
O O4 0.231091 0.000000 0.710972
O O5 0.382844 0.467221 0.500000
O O6 0.454672 0.545329 0.407141
O O7 0.420499 0.420499 0.404744
O O8 0.327425 0.453549 0.382214
O O9 0.459062 0.918124 0.213585
O O10 0.538552 0.875148 0.258248
O O11 0.537278 0.899090 0.133737
O O12 0.586507 0.000000 0.214901
O O13 0.867685 0.132316 0.097592
O O14 0.904280 0.260008 0.083320
O O15 0.000000 0.231962 0.096360
O O16 0.549541 0.774771 0.315133
O O17 0.620163 0.620163 0.069217
O O18 0.659341 0.552854 0.000000
#
# Coordination Sequence:
#
# PCOD9587620 Si02
#       6
#    24  24  24  24  24  24
#     4   9  16  26  42  63  88 118 152 189 227 268
#     4   9  18  33  53  75  97 122 153 189 228 271
#     4  10  19  31  49  70  92 120 153 192 236 279
#     4   9  16  27  42  61  87 118 152 188 228 274
#     4  11  20  29  46  70  97 126 156 190 225 270
#     4   9  17  28  42  63  91 118 144 181 233 289
#
# _framework density 15.207203
#
# number of rings (size 3 to 8) (size 9 to 14) (size 15 to 20)
#    0.000    2.500    1.667    2.500    0.000    2.333 
#    0.000    1.667    0.000    3.000    0.000    2.333 
#    0.000    0.000    0.000    4.167    0.000    4.333 
#
# Total GULP energy -802462.251071 kJ/mol
# GULP energy per Si atom -5572.654521 kJ/mol
# Density = 1.517259 g / cm^3
# Si number density = 15.207203 Si / 1000 Ang^3
#
#
#
# Elastic Constant Matrix: (Units=GPa)
#
#
# Indices 1 2 3 4 5 6 
#
# 1 82.4440 42.1745 41.2164 0.0000 0.0000 0.0000
# 2 42.1745 82.4440 41.2164 0.0000 0.0000 0.0000
# 3 41.2164 41.2164 62.6836 0.0000 0.0000 0.0000
# 4 0.0000 0.0000 0.0000 7.0393 0.0000 0.0000
# 5 0.0000 0.0000 0.0000 0.0000 7.0393 0.0000
# 6 0.0000 0.0000 0.0000 0.0000 0.0000 20.1348
#
#
#
# Elastic Compliance Matrix: (Units=1/GPa)
#
#
# Indices 1 2 3 4 5 6 
#
# 1 0.019517 -0.005316 -0.009338 0.000000 0.000000 0.000000
# 2 -0.005316 0.019517 -0.009338 0.000000 0.000000 0.000000
# 3 -0.009338 -0.009338 0.028233 0.000000 0.000000 0.000000
# 4 0.000000 0.000000 0.000000 0.142059 0.000000 0.000000
# 5 0.000000 0.000000 0.000000 0.000000 0.142059 0.000000
# 6 0.000000 0.000000 0.000000 0.000000 0.000000 0.049665
#
#
# Mechanical properties :
#
#
# Convention : Reuss Voigt Hill
#
# Bulk Modulus (GPa) = 51.85556 52.97621 52.41588
# Shear Modulus (GPa) = 10.97790 13.70698 12.34244
#
# Velocity S-wave (km/s) = 2.68971 3.00550 2.85198
# Velocity P-wave (km/s) = 6.61962 6.85244 6.73704
#
# Compressibility (1/GPa) = 0.01928434
#
# Stress axis : x y z
#
# Youngs Moduli (GPa) = 51.23751 51.23751 35.41976
#
# Poissons Ratio (x) = 0.27236 0.33074
# Poissons Ratio (y) = 0.27236 0.33074
# Poissons Ratio (z) = 0.47844 0.47844
#
# Static dielectric constant tensor:
#      x y z
#    x 1.495760 0.000000 0.000000 
#    y 0.000000 1.495760 0.000000 
#    z 0.000000 0.000000 1.529790 
# 
# From -- ./inp_files/6595.got.cif
#   From: 2010.05.17/outbox.cif.g08.bks.cpg/sg191_4_cif.got.tgz:6595.got - 2010.05.20 12:20:32.
