data_PCOD9587045
_publ_section_title
;
Structure prediction by ZEFSAII (Michael W. Deem and Ramdas Pophale) SiO2 
 PCOD9587045
Probable space group: P 6/M M M
;
_chemical_formula_sum "Si O2"
_cell_formula_units_Z 192
_cell_length_a 23.545687
_cell_length_b 23.545687
_cell_length_c 24.705347
_cell_angle_alpha 90.000000
_cell_angle_beta 90.000000
_cell_angle_gamma 120.000000
_cell_volume 11861.628633
_symmetry_space_group_name_H-M "P 6/M M M"
_symmetry_group_IT_number 191
_symmetry_cell_setting 'hexagonal'
loop_
_space_group_symop_operation_xyz
x,y,z
x-y,x,z
-y,x-y,z
-x,-y,z
-x+y,-x,z
y,-x+y,z
x-y,-y,-z
-x,-x+y,-z
y,x,-z
-y,-x,-z
-x+y,y,-z
x,x-y,-z
-x,-y,-z
-x+y,-x,-z
y,-x+y,-z
x,y,-z
x-y,x,-z
-y,x-y,-z
-x+y,y,z
x,x-y,z
-y,-x,z
y,x,z
x-y,-y,z
-x,-x+y,z
loop_
_atom_site_type_symbol
_atom_site_label
_atom_site_fract_x
_atom_site_fract_y
_atom_site_fract_z
Si Si1 0.182666 0.494557 0.788165
Si Si2 0.799263 0.464658 0.908550
Si Si3 0.205758 0.282099 0.866116
Si Si4 0.799281 0.335524 0.334021
Si Si5 0.073196 0.794944 0.435941
Si Si6 0.679459 0.604322 0.936111
Si Si7 0.076420 0.357983 0.764706
Si Si8 0.391736 0.128484 0.355697
O O1 0.233944 0.467887 0.785601
O O2 0.198883 0.535140 0.842824
O O3 0.191876 0.530706 0.731416
O O4 0.112073 0.430485 0.790009
O O5 0.734099 0.468197 0.924234
O O6 0.796508 0.398254 0.928258
O O7 0.866099 0.530564 0.925104
O O8 0.131450 0.262899 0.878154
O O9 0.226522 0.226522 0.872553
O O10 0.256386 0.343398 0.903252
O O11 0.224051 0.310208 0.804956
O O12 0.802690 0.401345 0.353643
O O13 0.728072 0.271929 0.344746
O O14 0.855587 0.322167 0.357104
O O15 0.078512 0.785333 0.500000
O O16 0.131950 0.868051 0.422258
O O17 0.083867 0.743473 0.400846
O O18 0.000000 0.780915 0.425532
O O19 0.622538 0.622538 0.922328
O O20 0.692065 0.616165 0.000000
O O21 0.103669 0.364427 0.704380
O O22 0.000000 0.330646 0.761304
O O23 0.397690 0.198845 0.362386
#
# Coordination Sequence:
#
# PCOD9587045 Si02
#       8
#    24  24  24  24  24  24  24  24
#     4   9  17  29  44  63  90 123 157 193 233 278
#     4  11  22  35  52  72  97 127 160 196 235 283
#     4  10  19  32  52  76 100 125 155 192 234 281
#     4   9  16  26  42  64  91 122 158 200 245 290
#     4   9  17  30  49  72  97 126 160 195 229 268
#     4  10  22  39  57  75  93 119 157 200 245 285
#     4  10  17  26  45  70  96 122 152 193 241 286
#     4   9  17  28  44  67  95 127 161 197 237 280
#
# _framework density 16.186648000000002
#
# number of rings (size 3 to 8) (size 9 to 14) (size 15 to 20)
#    0.000    2.375    1.250    3.250    0.000    1.500 
#    0.000    1.875    0.000   13.750    0.000    1.750 
#    0.000    1.000    0.000    7.125    0.000    2.750 
#
# Total GULP energy -1069339.178458 kJ/mol
# GULP energy per Si atom -5569.474888 kJ/mol
# Density = 1.614981 g / cm^3
# Si number density = 16.186648 Si / 1000 Ang^3
#
#
#
# Elastic Constant Matrix: (Units=GPa)
#
#
# Indices 1 2 3 4 5 6 
#
# 1 93.7773 56.9266 23.0473 0.0000 0.0000 0.0000
# 2 56.9266 93.7773 23.0473 0.0000 0.0000 0.0000
# 3 23.0473 23.0473 42.3687 0.0000 0.0000 0.0000
# 4 0.0000 0.0000 0.0000 12.7752 0.0000 0.0000
# 5 0.0000 0.0000 0.0000 0.0000 12.7752 0.0000
# 6 0.0000 0.0000 0.0000 0.0000 0.0000 18.4254
#
#
#
# Elastic Compliance Matrix: (Units=1/GPa)
#
#
# Indices 1 2 3 4 5 6 
#
# 1 0.017548 -0.009588 -0.004330 0.000000 0.000000 0.000000
# 2 -0.009588 0.017548 -0.004330 0.000000 0.000000 0.000000
# 3 -0.004330 -0.004330 0.028313 0.000000 0.000000 0.000000
# 4 0.000000 0.000000 0.000000 0.078276 0.000000 0.000000
# 5 0.000000 0.000000 0.000000 0.000000 0.078276 0.000000
# 6 0.000000 0.000000 0.000000 0.000000 0.000000 0.054273
#
#
# Mechanical properties :
#
#
# Convention : Reuss Voigt Hill
#
# Bulk Modulus (GPa) = 37.15669 48.44065 42.79867
# Shear Modulus (GPa) = 15.63952 17.25530 16.44741
#
# Velocity S-wave (km/s) = 3.11175 3.26854 3.19111
# Velocity P-wave (km/s) = 5.99296 6.65100 6.33053
#
# Compressibility (1/GPa) = 0.02691306
#
# Stress axis : x y z
#
# Youngs Moduli (GPa) = 56.98591 56.98591 35.31936
#
# Poissons Ratio (x) = 0.54640 0.15293
# Poissons Ratio (y) = 0.54640 0.15293
# Poissons Ratio (z) = 0.24675 0.24675
#
# Static dielectric constant tensor:
#      x y z
#    x 1.548790 0.000000 0.000000 
#    y 0.000000 1.548790 0.000000 
#    z 0.000000 0.000000 1.562310 
# 
# From -- ./inp_files/9320.got.cif
#   From: 2010.05.17/outbox.cif.g08.bks.cpg/sg191_5_cif.got.tgz:9320.got - 2010.05.20 12:20:32.
