data_PCOD9587216
_publ_section_title
;
Structure prediction by ZEFSAII (Michael W. Deem and Ramdas Pophale) SiO2 
 PCOD9587216
Probable space group: P 6/M M M
;
_chemical_formula_sum "Si O2"
_cell_formula_units_Z 120
_cell_length_a 18.462372
_cell_length_b 18.462372
_cell_length_c 27.565802
_cell_angle_alpha 90.000000
_cell_angle_beta 90.000000
_cell_angle_gamma 120.000000
_cell_volume 8137.223765
_symmetry_space_group_name_H-M "P 6/M M M"
_symmetry_group_IT_number 191
_symmetry_cell_setting 'hexagonal'
loop_
_space_group_symop_operation_xyz
x,y,z
x-y,x,z
-y,x-y,z
-x,-y,z
-x+y,-x,z
y,-x+y,z
x-y,-y,-z
-x,-x+y,-z
y,x,-z
-y,-x,-z
-x+y,y,-z
x,x-y,-z
-x,-y,-z
-x+y,-x,-z
y,-x+y,-z
x,y,-z
x-y,x,-z
-y,x-y,-z
-x+y,y,z
x,x-y,z
-y,-x,z
y,x,z
x-y,-y,z
-x,-x+y,z
loop_
_atom_site_type_symbol
_atom_site_label
_atom_site_fract_x
_atom_site_fract_y
_atom_site_fract_z
Si Si1 0.504034 0.668517 0.614802
Si Si2 0.588023 0.000000 0.555816
Si Si3 0.904694 0.539948 0.000000
Si Si4 0.367853 0.467597 0.277463
Si Si5 0.331522 0.834428 0.895171
Si Si6 0.639046 0.902736 0.187614
O O1 0.505736 0.752868 0.600849
O O2 0.411884 0.588117 0.607431
O O3 0.568264 0.651799 0.584259
O O4 0.524207 0.669434 0.671866
O O5 0.500000 0.000000 0.556339
O O6 0.611687 0.000000 0.500000
O O7 0.859539 0.536858 0.949998
O O8 0.907344 0.453672 0.000000
O O9 0.000000 0.614436 0.000000
O O10 0.439361 0.560640 0.261436
O O11 0.417009 0.417009 0.287148
O O12 0.301742 0.417863 0.235701
O O13 0.424509 0.849017 0.888748
O O14 0.262441 0.737560 0.887580
O O15 0.310125 0.886889 0.857355
O O16 0.668436 0.834218 0.184246
O O17 0.710060 0.000000 0.188721
#
# Coordination Sequence:
#
# PCOD9587216 Si02
#       6
#    24  12  12  24  24  24
#     4  10  18  29  45  66  90 118 153 190 225 262
#     4   9  18  32  46  60  84 118 151 184 226 268
#     4   9  17  28  42  58  80 115 159 197 225 256
#     4   9  16  28  46  67  91 120 149 176 211 260
#     4  10  19  30  44  64  90 121 154 189 226 266
#     4  10  20  32  47  67  90 116 147 184 226 270
#
# _framework density 14.747043
#
# number of rings (size 3 to 8) (size 9 to 14) (size 15 to 20)
#    0.000    2.400    1.000    2.500    0.000    2.400 
#    0.000    1.000    0.000    7.800    0.000    0.000 
#    0.000    0.000    0.000    0.300    0.000   22.100 
#
# Total GULP energy -668862.418885 kJ/mol
# GULP energy per Si atom -5573.853491 kJ/mol
# Density = 1.471348 g / cm^3
# Si number density = 14.747043 Si / 1000 Ang^3
#
#
#
# Elastic Constant Matrix: (Units=GPa)
#
#
# Indices 1 2 3 4 5 6 
#
# 1 82.8648 48.1658 40.9805 0.0000 0.0000 0.0000
# 2 48.1658 82.8648 40.9805 0.0000 0.0000 0.0000
# 3 40.9805 40.9805 80.5869 0.0000 0.0000 0.0000
# 4 0.0000 0.0000 0.0000 9.6876 0.0000 0.0000
# 5 0.0000 0.0000 0.0000 0.0000 9.6876 0.0000
# 6 0.0000 0.0000 0.0000 0.0000 0.0000 17.3495
#
#
#
# Elastic Compliance Matrix: (Units=1/GPa)
#
#
# Indices 1 2 3 4 5 6 
#
# 1 0.020006 -0.008814 -0.005691 0.000000 0.000000 0.000000
# 2 -0.008814 0.020006 -0.005691 0.000000 0.000000 0.000000
# 3 -0.005691 -0.005691 0.018197 0.000000 0.000000 0.000000
# 4 0.000000 0.000000 0.000000 0.103225 0.000000 0.000000
# 5 0.000000 0.000000 0.000000 0.000000 0.103225 0.000000
# 6 0.000000 0.000000 0.000000 0.000000 0.000000 0.057638
#
#
# Mechanical properties :
#
#
# Convention : Reuss Voigt Hill
#
# Bulk Modulus (GPa) = 56.13045 56.28558 56.20801
# Shear Modulus (GPa) = 13.56380 15.09091 14.32736
#
# Velocity S-wave (km/s) = 3.03605 3.20240 3.12034
# Velocity P-wave (km/s) = 7.10176 7.20584 7.15399
#
# Compressibility (1/GPa) = 0.01781564
#
# Stress axis : x y z
#
# Youngs Moduli (GPa) = 49.98623 49.98623 54.95312
#
# Poissons Ratio (x) = 0.44056 0.31276
# Poissons Ratio (y) = 0.44056 0.31276
# Poissons Ratio (z) = 0.28449 0.28449
#
# Static dielectric constant tensor:
#      x y z
#    x 1.476750 0.000000 0.000000 
#    y 0.000000 1.476750 0.000000 
#    z 0.000000 0.000000 1.496200 
# 
# From -- ./inp_files/9568.got.cif
#   From: 2010.05.17/outbox.cif.g08.bks.cpg/sg191_5_cif.got.tgz:9568.got - 2010.05.20 12:20:32.
