data_PCOD9587204
_publ_section_title
;
Structure prediction by ZEFSAII (Michael W. Deem and Ramdas Pophale) SiO2 
 PCOD9587204
Probable space group: P 6/M M M
;
_chemical_formula_sum "Si O2"
_cell_formula_units_Z 132
_cell_length_a 18.910770
_cell_length_b 18.910770
_cell_length_c 29.374505
_cell_angle_alpha 90.000000
_cell_angle_beta 90.000000
_cell_angle_gamma 120.000000
_cell_volume 9097.448669
_symmetry_space_group_name_H-M "P 6/M M M"
_symmetry_group_IT_number 191
_symmetry_cell_setting 'hexagonal'
loop_
_space_group_symop_operation_xyz
x,y,z
x-y,x,z
-y,x-y,z
-x,-y,z
-x+y,-x,z
y,-x+y,z
x-y,-y,-z
-x,-x+y,-z
y,x,-z
-y,-x,-z
-x+y,y,-z
x,x-y,-z
-x,-y,-z
-x+y,-x,-z
y,-x+y,-z
x,y,-z
x-y,x,-z
-y,x-y,-z
-x+y,y,z
x,x-y,z
-y,-x,z
y,x,z
x-y,-y,z
-x,-x+y,z
loop_
_atom_site_type_symbol
_atom_site_label
_atom_site_fract_x
_atom_site_fract_y
_atom_site_fract_z
Si Si1 0.167032 0.500996 0.053229
Si Si2 0.092376 0.745127 0.116651
Si Si3 0.906430 0.653821 0.776667
Si Si4 0.501177 0.833208 0.603879
Si Si5 0.000000 0.585764 0.552669
Si Si6 0.902969 0.532209 0.296501
O O1 0.260427 0.520853 0.058239
O O2 0.160122 0.580061 0.064263
O O3 0.113265 0.424694 0.085435
O O4 0.144992 0.480293 0.000000
O O5 0.161688 0.838313 0.107299
O O6 0.099432 0.729309 0.170161
O O7 0.000000 0.723287 0.108539
O O8 0.841621 0.683242 0.768863
O O9 0.885832 0.578838 0.743359
O O10 0.000000 0.721664 0.768022
O O11 0.410359 0.820717 0.596191
O O12 0.504339 0.752170 0.591539
O O13 0.520745 0.853276 0.657414
O O14 0.564882 0.915534 0.577168
O O15 0.000000 0.500000 0.554644
O O16 0.000000 0.607376 0.500000
O O17 0.887157 0.443579 0.281815
O O18 0.000000 0.585351 0.307542
#
# Coordination Sequence:
#
# PCOD9587204 Si02
#       6
#    24  24  24  24  12  24
#     4   9  17  29  45  64  87 115 145 175 208 249
#     4   9  18  31  45  62  85 112 142 177 218 260
#     4   9  17  29  45  64  86 113 144 177 214 258
#     4  10  18  29  45  65  88 115 149 185 218 255
#     4   9  18  32  46  60  84 116 145 177 220 262
#     4   9  16  27  43  63  87 116 146 174 208 251
#
# _framework density 14.509563
#
# number of rings (size 3 to 8) (size 9 to 14) (size 15 to 20)
#    0.000    2.818    0.909    0.909    0.000    2.545 
#    0.000    2.727    0.000    1.818    0.000    2.545 
#    0.000    0.000    0.000    4.818    0.000    5.909 
#
# Total GULP energy -735009.057991 kJ/mol
# GULP energy per Si atom -5568.250439 kJ/mol
# Density = 1.447654 g / cm^3
# Si number density = 14.509563 Si / 1000 Ang^3
#
#
#
# Elastic Constant Matrix: (Units=GPa)
#
#
# Indices 1 2 3 4 5 6 
#
# 1 92.2681 59.4225 52.5738 0.0000 0.0000 0.0000
# 2 59.4225 92.2681 52.5738 0.0000 0.0000 0.0000
# 3 52.5738 52.5738 57.2196 0.0000 0.0000 0.0000
# 4 0.0000 0.0000 0.0000 14.6062 0.0000 0.0000
# 5 0.0000 0.0000 0.0000 0.0000 14.6062 0.0000
# 6 0.0000 0.0000 0.0000 0.0000 0.0000 16.4228
#
#
#
# Elastic Compliance Matrix: (Units=1/GPa)
#
#
# Indices 1 2 3 4 5 6 
#
# 1 0.024300 -0.006145 -0.016681 0.000000 0.000000 0.000000
# 2 -0.006145 0.024300 -0.016681 0.000000 0.000000 0.000000
# 3 -0.016681 -0.016681 0.048131 0.000000 0.000000 0.000000
# 4 0.000000 0.000000 0.000000 0.068464 0.000000 0.000000
# 5 0.000000 0.000000 0.000000 0.000000 0.068464 0.000000
# 6 0.000000 0.000000 0.000000 0.000000 0.000000 0.060891
#
#
# Mechanical properties :
#
#
# Convention : Reuss Voigt Hill
#
# Bulk Modulus (GPa) = 56.44647 63.43289 59.93968
# Shear Modulus (GPa) = 13.17622 14.27274 13.72448
#
# Velocity S-wave (km/s) = 3.01675 3.13977 3.07887
# Velocity P-wave (km/s) = 7.14995 7.54699 7.35115
#
# Compressibility (1/GPa) = 0.01771590
#
# Stress axis : x y z
#
# Youngs Moduli (GPa) = 41.15150 41.15150 20.77683
#
# Poissons Ratio (x) = 0.25288 0.34659
# Poissons Ratio (y) = 0.25288 0.34659
# Poissons Ratio (z) = 0.68646 0.68646
#
# Static dielectric constant tensor:
#      x y z
#    x 1.469030 0.000000 0.000000 
#    y 0.000000 1.469030 0.000000 
#    z 0.000000 0.000000 1.481270 
# 
# From -- ./inp_files/10458.got.cif
#   From: 2010.05.17/outbox.cif.g08.bks.cpg/sg191_6_cif.got.tgz:10458.got - 2010.05.20 12:20:32.
