data_PCOD9587073
_publ_section_title
;
Structure prediction by ZEFSAII (Michael W. Deem and Ramdas Pophale) SiO2 
 PCOD9587073
Probable space group: P 6/M M M
;
_chemical_formula_sum "Si O2"
_cell_formula_units_Z 108
_cell_length_a 20.756973
_cell_length_b 20.756973
_cell_length_c 23.865181
_cell_angle_alpha 90.000000
_cell_angle_beta 90.000000
_cell_angle_gamma 120.000000
_cell_volume 8904.784320
_symmetry_space_group_name_H-M "P 6/M M M"
_symmetry_group_IT_number 191
_symmetry_cell_setting 'hexagonal'
loop_
_space_group_symop_operation_xyz
x,y,z
x-y,x,z
-y,x-y,z
-x,-y,z
-x+y,-x,z
y,-x+y,z
x-y,-y,-z
-x,-x+y,-z
y,x,-z
-y,-x,-z
-x+y,y,-z
x,x-y,-z
-x,-y,-z
-x+y,-x,-z
y,-x+y,-z
x,y,-z
x-y,x,-z
-y,x-y,-z
-x+y,y,z
x,x-y,z
-y,-x,z
y,x,z
x-y,-y,z
-x,-x+y,z
loop_
_atom_site_type_symbol
_atom_site_label
_atom_site_fract_x
_atom_site_fract_y
_atom_site_fract_z
Si Si1 0.179831 0.666880 0.936254
Si Si2 0.914652 0.379214 0.610277
Si Si3 0.511716 0.332521 0.720237
Si Si4 0.821153 0.488528 0.500000
Si Si5 0.535870 0.915324 0.829552
O O1 0.192443 0.596222 0.930885
O O2 0.257751 0.742250 0.928703
O O3 0.122481 0.658230 0.888159
O O4 0.153357 0.665384 0.000000
O O5 0.917895 0.458948 0.610154
O O6 0.870621 0.339181 0.666492
O O7 0.868299 0.338022 0.555120
O O8 0.000000 0.398735 0.609419
O O9 0.517755 0.258878 0.717769
O O10 0.594154 0.405847 0.719939
O O11 0.471356 0.335785 0.776840
O O12 0.741488 0.482977 0.500000
O O13 0.811493 0.405747 0.500000
O O14 0.458970 0.917939 0.829114
O O15 0.601347 0.000000 0.824197
#
# Coordination Sequence:
#
# PCOD9587073 Si02
#       5
#    24  24  24  12  24
#     4   9  16  25  37  52  69  88 111 142 181 220
#     4   9  17  28  40  52  68  92 118 142 173 216
#     4  10  18  27  39  54  71  89 112 145 185 222
#     4  10  18  27  39  55  74  93 116 148 185 218
#     4   9  17  27  37  49  66  89 115 141 172 213
#
# _framework density 12.128311
#
# number of rings (size 3 to 8) (size 9 to 14) (size 15 to 20)
#    0.000    2.667    0.000    2.889    0.000    5.333 
#    0.000    6.667    0.000    0.000    0.000    0.000 
#    0.000    0.000    0.000    0.000    0.000    0.000 
#
# Total GULP energy -601542.521837 kJ/mol
# GULP energy per Si atom -5569.838165 kJ/mol
# Density = 1.210071 g / cm^3
# Si number density = 12.128311 Si / 1000 Ang^3
#
#
#
# Elastic Constant Matrix: (Units=GPa)
#
#
# Indices 1 2 3 4 5 6 
#
# 1 58.5773 32.4621 47.9722 0.0000 0.0000 0.0000
# 2 32.4621 58.5773 47.9722 0.0000 0.0000 0.0000
# 3 47.9722 47.9722 119.7717 0.0000 0.0000 0.0000
# 4 0.0000 0.0000 0.0000 14.3550 0.0000 0.0000
# 5 0.0000 0.0000 0.0000 0.0000 14.3550 0.0000
# 6 0.0000 0.0000 0.0000 0.0000 0.0000 13.0576
#
#
#
# Elastic Compliance Matrix: (Units=1/GPa)
#
#
# Indices 1 2 3 4 5 6 
#
# 1 0.028650 -0.009642 -0.007613 0.000000 0.000000 0.000000
# 2 -0.009642 0.028650 -0.007613 0.000000 0.000000 0.000000
# 3 -0.007613 -0.007613 0.014448 0.000000 0.000000 0.000000
# 4 0.000000 0.000000 0.000000 0.069662 0.000000 0.000000
# 5 0.000000 0.000000 0.000000 0.000000 0.069662 0.000000
# 6 0.000000 0.000000 0.000000 0.000000 0.000000 0.076584
#
#
# Mechanical properties :
#
#
# Convention : Reuss Voigt Hill
#
# Bulk Modulus (GPa) = 45.43299 54.85992 50.14646
# Shear Modulus (GPa) = 14.50417 15.58819 15.04618
#
# Velocity S-wave (km/s) = 3.46192 3.58896 3.52601
# Velocity P-wave (km/s) = 7.31584 7.90603 7.61665
#
# Compressibility (1/GPa) = 0.02201044
#
# Stress axis : x y z
#
# Youngs Moduli (GPa) = 34.90438 34.90438 69.21487
#
# Poissons Ratio (x) = 0.33655 0.52694
# Poissons Ratio (y) = 0.33655 0.52694
# Poissons Ratio (z) = 0.26573 0.26573
#
# Static dielectric constant tensor:
#      x y z
#    x 1.369440 0.000000 0.000000 
#    y 0.000000 1.369440 0.000000 
#    z 0.000000 0.000000 1.415720 
# 
# From -- ./inp_files/7454.got.cif
#   From: 2010.05.17/outbox.cif.g08.bks.cpg/sg191_4_cif.got.tgz:7454.got - 2010.05.20 12:20:32.
