data_PCOD9587791
_publ_section_title
;
Structure prediction by ZEFSAII (Michael W. Deem and Ramdas Pophale) SiO2 
 PCOD9587791
Probable space group: P 6/M M M
;
_chemical_formula_sum "Si O2"
_cell_formula_units_Z 120
_cell_length_a 17.809951
_cell_length_b 17.809951
_cell_length_c 26.258297
_cell_angle_alpha 90.000000
_cell_angle_beta 90.000000
_cell_angle_gamma 120.000000
_cell_volume 7213.111360
_symmetry_space_group_name_H-M "P 6/M M M"
_symmetry_group_IT_number 191
_symmetry_cell_setting 'hexagonal'
loop_
_space_group_symop_operation_xyz
x,y,z
x-y,x,z
-y,x-y,z
-x,-y,z
-x+y,-x,z
y,-x+y,z
x-y,-y,-z
-x,-x+y,-z
y,x,-z
-y,-x,-z
-x+y,y,-z
x,x-y,-z
-x,-y,-z
-x+y,-x,-z
y,-x+y,-z
x,y,-z
x-y,x,-z
-y,x-y,-z
-x+y,y,z
x,x-y,z
-y,-x,z
y,x,z
x-y,-y,z
-x,-x+y,z
loop_
_atom_site_type_symbol
_atom_site_label
_atom_site_fract_x
_atom_site_fract_y
_atom_site_fract_z
Si Si1 0.156604 0.489208 0.000000
Si Si2 0.333617 0.842607 0.439415
Si Si3 0.099380 0.372247 0.099828
Si Si4 0.000000 0.413086 0.720446
Si Si5 0.331115 0.000000 0.383983
Si Si6 0.332978 0.489926 0.799480
Si Si7 0.821036 0.000000 0.441841
O O1 0.115017 0.430971 0.049971
O O2 0.257901 0.515801 0.000000
O O3 0.146392 0.573196 0.000000
O O4 0.335210 0.859305 0.500000
O O5 0.421945 0.843890 0.426248
O O6 0.251230 0.748771 0.429387
O O7 0.326222 0.915618 0.409183
O O8 0.171125 0.342250 0.098234
O O9 0.120633 0.433094 0.149356
O O10 0.000000 0.297030 0.101521
O O11 0.084746 0.446170 0.755681
O O12 0.000000 0.500000 0.701052
O O13 0.000000 0.353824 0.674909
O O14 0.244519 0.000000 0.400384
O O15 0.247026 0.494052 0.786239
O O16 0.414316 0.585685 0.808306
O O17 0.828539 0.914270 0.437213
O O18 0.788703 0.000000 0.500000
#
# Coordination Sequence:
#
# PCOD9587791 Si02
#       7
#    12  24  24  12  12  24  12
#     4  10  20  31  48  77 114 150 183 218 266 325
#     4  10  20  34  52  75 105 139 172 207 252 308
#     4  10  20  34  53  78 107 142 178 220 270 324
#     4  10  22  38  53  71 102 140 176 220 266 309
#     4  12  22  34  54  80 104 134 174 220 264 301
#     4  10  20  35  55  76 101 135 177 220 262 309
#     4  10  21  38  60  85 112 140 168 204 256 319
#
# _framework density 16.636372000000001
#
# number of rings (size 3 to 8) (size 9 to 14) (size 15 to 20)
#    0.000    1.800    1.000    3.900    0.000    6.800 
#    0.000    2.000    0.000    2.600    0.000    0.000 
#    0.000    2.400    0.000    0.000    0.000    0.000 
#
# Total GULP energy -670138.226336 kJ/mol
# GULP energy per Si atom -5584.485219 kJ/mol
# Density = 1.659851 g / cm^3
# Si number density = 16.636372 Si / 1000 Ang^3
#
#
#
# Elastic Constant Matrix: (Units=GPa)
#
#
# Indices 1 2 3 4 5 6 
#
# 1 115.2472 67.4645 50.9129 0.0000 0.0000 0.0000
# 2 67.4645 115.2472 50.9129 0.0000 0.0000 0.0000
# 3 50.9129 50.9129 70.7168 0.0000 0.0000 0.0000
# 4 0.0000 0.0000 0.0000 67.0036 0.0000 0.0000
# 5 0.0000 0.0000 0.0000 0.0000 67.0036 0.0000
# 6 0.0000 0.0000 0.0000 0.0000 0.0000 23.8913
#
#
#
# Elastic Compliance Matrix: (Units=1/GPa)
#
#
# Indices 1 2 3 4 5 6 
#
# 1 0.015034 -0.005894 -0.006581 0.000000 0.000000 0.000000
# 2 -0.005894 0.015034 -0.006581 0.000000 0.000000 0.000000
# 3 -0.006581 -0.006581 0.023617 0.000000 0.000000 0.000000
# 4 0.000000 0.000000 0.000000 0.014925 0.000000 0.000000
# 5 0.000000 0.000000 0.000000 0.000000 0.014925 0.000000
# 6 0.000000 0.000000 0.000000 0.000000 0.000000 0.041856
#
#
# Mechanical properties :
#
#
# Convention : Reuss Voigt Hill
#
# Bulk Modulus (GPa) = 64.20704 71.08799 67.64751
# Shear Modulus (GPa) = 29.63961 40.37442 35.00701
#
# Velocity S-wave (km/s) = 4.22550 4.93168 4.59218
# Velocity P-wave (km/s) = 7.90472 8.67478 8.29869
#
# Compressibility (1/GPa) = 0.01557462
#
# Stress axis : x y z
#
# Youngs Moduli (GPa) = 66.51428 66.51428 42.34286
#
# Poissons Ratio (x) = 0.39202 0.27865
# Poissons Ratio (y) = 0.39202 0.27865
# Poissons Ratio (z) = 0.43772 0.43772
#
# Static dielectric constant tensor:
#      x y z
#    x 1.542300 0.000000 0.000000 
#    y 0.000000 1.542300 0.000000 
#    z 0.000000 0.000000 1.550270 
# 
# From -- ./inp_files/8648.got.cif
#   From: 2010.05.17/outbox.cif.g08.bks.cpg/sg191_5_cif.got.tgz:8648.got - 2010.05.20 12:20:32.
