data_PCOD9587032
_publ_section_title
;
Structure prediction by ZEFSAII (Michael W. Deem and Ramdas Pophale) SiO2 
 PCOD9587032
Probable space group: P 6/M M M
;
_chemical_formula_sum "Si O2"
_cell_formula_units_Z 168
_cell_length_a 23.306351
_cell_length_b 23.306351
_cell_length_c 21.085822
_cell_angle_alpha 90.000000
_cell_angle_beta 90.000000
_cell_angle_gamma 120.000000
_cell_volume 9919.042092
_symmetry_space_group_name_H-M "P 6/M M M"
_symmetry_group_IT_number 191
_symmetry_cell_setting 'hexagonal'
loop_
_space_group_symop_operation_xyz
x,y,z
x-y,x,z
-y,x-y,z
-x,-y,z
-x+y,-x,z
y,-x+y,z
x-y,-y,-z
-x,-x+y,-z
y,x,-z
-y,-x,-z
-x+y,y,-z
x,x-y,-z
-x,-y,-z
-x+y,-x,-z
y,-x+y,-z
x,y,-z
x-y,x,-z
-y,x-y,-z
-x+y,y,z
x,x-y,z
-y,-x,z
y,x,z
x-y,-y,z
-x,-x+y,z
loop_
_atom_site_type_symbol
_atom_site_label
_atom_site_fract_x
_atom_site_fract_y
_atom_site_fract_z
Si Si1 0.874061 0.265354 0.928702
Si Si2 0.116436 0.745981 0.291804
Si Si3 0.261893 0.876732 0.431849
Si Si4 0.797163 0.333906 0.597126
Si Si5 0.799182 0.333888 0.879913
Si Si6 0.793491 0.720818 0.827493
Si Si7 0.640528 0.486805 0.262358
O O1 0.803486 0.196515 0.928273
O O2 0.855153 0.320121 0.908072
O O3 0.917258 0.253071 0.877704
O O4 0.900833 0.276886 0.000000
O O5 0.194810 0.805191 0.291562
O O6 0.091205 0.736743 0.364151
O O7 0.081875 0.770022 0.241829
O O8 0.111583 0.677725 0.268636
O O9 0.271338 0.911050 0.500000
O O10 0.190124 0.809877 0.433503
O O11 0.314307 0.850642 0.426022
O O12 0.808954 0.404477 0.575777
O O13 0.725262 0.274739 0.578318
O O14 0.802368 0.336178 0.673876
O O15 0.805616 0.402808 0.900220
O O16 0.727764 0.272237 0.897378
O O17 0.806923 0.335611 0.803467
O O18 0.867850 0.735699 0.837269
O O19 0.782378 0.782378 0.834442
O O20 0.560364 0.439637 0.262247
#
# Coordination Sequence:
#
# PCOD9587032 Si02
#       7
#    24  24  24  24  24  24  24
#     4   9  18  32  49  69  96 131 168 205 244 283
#     4   9  15  27  46  65  90 125 164 204 244 283
#     4   8  14  23  35  53  78 111 153 198 241 283
#     4   9  15  20  27  42  70 108 152 201 255 311
#     4  10  17  25  39  61  92 129 172 220 269 313
#     4  10  20  35  58  84 106 127 153 185 219 263
#     4   9  15  22  36  57  83 118 161 212 261 303
#
# _framework density 16.937118999999999
#
# number of rings (size 3 to 8) (size 9 to 14) (size 15 to 20)
#    0.000    2.857    1.429    2.429    0.000    0.857 
#    0.000    1.429    0.000    4.286    0.000    1.000 
#    0.000    0.000    0.000   10.714    0.000    0.857 
#
# Total GULP energy -935287.080718 kJ/mol
# GULP energy per Si atom -5567.185004 kJ/mol
# Density = 1.689857 g / cm^3
# Si number density = 16.937119 Si / 1000 Ang^3
#
#
#
# Elastic Constant Matrix: (Units=GPa)
#
#
# Indices 1 2 3 4 5 6 
#
# 1 47.8840 31.6041 21.8323 0.0000 0.0000 0.0000
# 2 31.6041 47.8840 21.8323 0.0000 0.0000 0.0000
# 3 21.8323 21.8323 97.7677 0.0000 0.0000 0.0000
# 4 0.0000 0.0000 0.0000 0.5388 0.0000 0.0000
# 5 0.0000 0.0000 0.0000 0.0000 0.5388 0.0000
# 6 0.0000 0.0000 0.0000 0.0000 0.0000 8.1400
#
#
#
# Elastic Compliance Matrix: (Units=1/GPa)
#
#
# Indices 1 2 3 4 5 6 
#
# 1 0.037882 -0.023543 -0.003202 0.000000 0.000000 0.000000
# 2 -0.023543 0.037882 -0.003202 0.000000 0.000000 0.000000
# 3 -0.003202 -0.003202 0.011658 0.000000 0.000000 0.000000
# 4 0.000000 0.000000 0.000000 1.855991 0.000000 0.000000
# 5 0.000000 0.000000 0.000000 0.000000 1.855991 0.000000
# 6 0.000000 0.000000 0.000000 0.000000 0.000000 0.122850
#
#
# Mechanical properties :
#
#
# Convention : Reuss Voigt Hill
#
# Bulk Modulus (GPa) = 36.32540 38.23034 37.27787
# Shear Modulus (GPa) = 1.25272 9.72799 5.49035
#
# Velocity S-wave (km/s) = 0.86095 2.39918 1.80240
# Velocity P-wave (km/s) = 4.74153 5.50415 5.13701
#
# Compressibility (1/GPa) = 0.02752894
#
# Stress axis : x y z
#
# Youngs Moduli (GPa) = 26.39751 26.39751 85.77472
#
# Poissons Ratio (x) = 0.62147 0.27466
# Poissons Ratio (y) = 0.62147 0.27466
# Poissons Ratio (z) = 0.08453 0.08453
#
# Static dielectric constant tensor:
#      x y z
#    x 1.561870 0.000000 0.000000 
#    y 0.000000 1.561870 0.000000 
#    z 0.000000 0.000000 1.620650 
# 
# From -- ./inp_files/8015.got.cif
#   From: 2010.05.17/outbox.cif.g08.bks.cpg/sg191_5_cif.got.tgz:8015.got - 2010.05.20 12:20:32.
