data_PCOD9587326
_publ_section_title
;
Structure prediction by ZEFSAII (Michael W. Deem and Ramdas Pophale) SiO2 
 PCOD9587326
Probable space group: P 6/M M M
;
_chemical_formula_sum "Si O2"
_cell_formula_units_Z 168
_cell_length_a 28.690207
_cell_length_b 28.690207
_cell_length_c 13.612190
_cell_angle_alpha 90.000000
_cell_angle_beta 90.000000
_cell_angle_gamma 120.000000
_cell_volume 9703.446092
_symmetry_space_group_name_H-M "P 6/M M M"
_symmetry_group_IT_number 191
_symmetry_cell_setting 'hexagonal'
loop_
_space_group_symop_operation_xyz
x,y,z
x-y,x,z
-y,x-y,z
-x,-y,z
-x+y,-x,z
y,-x+y,z
x-y,-y,-z
-x,-x+y,-z
y,x,-z
-y,-x,-z
-x+y,y,-z
x,x-y,-z
-x,-y,-z
-x+y,-x,-z
y,-x+y,-z
x,y,-z
x-y,x,-z
-y,x-y,-z
-x+y,y,z
x,x-y,z
-y,-x,z
y,x,z
x-y,-y,z
-x,-x+y,z
loop_
_atom_site_type_symbol
_atom_site_label
_atom_site_fract_x
_atom_site_fract_y
_atom_site_fract_z
Si Si1 0.063202 0.231754 0.383126
Si Si2 0.913762 0.592825 0.111378
Si Si3 0.445326 0.445326 0.882687
Si Si4 0.512021 0.311756 0.108802
Si Si5 0.421318 0.062817 0.386714
Si Si6 0.328357 0.063962 0.710177
Si Si7 0.841170 0.474322 0.309638
Si Si8 0.332134 0.556398 0.500000
O O1 0.065200 0.244210 0.500000
O O2 0.105643 0.211285 0.366169
O O3 0.082926 0.286801 0.321494
O O4 0.000000 0.189993 0.360846
O O5 0.851248 0.547694 0.109518
O O6 0.920765 0.638129 0.188545
O O7 0.949214 0.564034 0.136429
O O8 0.929853 0.614188 0.000000
O O9 0.500000 0.500000 0.842992
O O10 0.451567 0.451567 0.000000
O O11 0.511900 0.255950 0.117697
O O12 0.536488 0.347058 0.206177
O O13 0.535200 0.335182 0.000000
O O14 0.438631 0.069406 0.500000
O O15 0.373237 0.075656 0.372248
O O16 0.469767 0.104079 0.319871
O O17 0.397145 0.000000 0.359964
O O18 0.291598 0.000000 0.713321
O O19 0.854202 0.427101 0.326444
O O20 0.805023 0.473793 0.400386
O O21 0.388074 0.611927 0.500000
O O22 0.283975 0.567949 0.500000
#
# Coordination Sequence:
#
# PCOD9587326 Si02
#       8
#    24  24  12  24  24  24  24  12
#     4   9  18  33  54  81 112 146 186 229 271 317
#     4  10  19  32  51  75 105 142 180 222 270 321
#     4   9  18  32  50  76 109 143 179 217 263 322
#     4  10  22  40  58  76 103 138 175 221 276 327
#     4  10  20  35  53  75 111 153 182 211 259 320
#     4  10  18  31  50  73 106 146 183 220 259 308
#     4  11  22  37  58  83 108 134 173 222 271 329
#     4  10  21  38  59  81 103 127 159 211 279 342
#
# _framework density 17.313437
#
# number of rings (size 3 to 8) (size 9 to 14) (size 15 to 20)
#    0.000    2.071    2.857    0.929    0.000    3.429 
#    0.000    2.143    0.000    0.429    0.000    1.000 
#    0.000    0.000    0.000    0.000    0.000    0.000 
#
# Total GULP energy -935456.243612 kJ/mol
# GULP energy per Si atom -5568.191926 kJ/mol
# Density = 1.727403 g / cm^3
# Si number density = 17.313437 Si / 1000 Ang^3
#
#
#
# Elastic Constant Matrix: (Units=GPa)
#
#
# Indices 1 2 3 4 5 6 
#
# 1 -69.1044 172.8993 28.8339 0.0000 0.0000 0.0000
# 2 172.8993 -69.1044 28.8339 0.0000 0.0000 0.0000
# 3 28.8339 28.8339 108.6880 0.0000 0.0000 0.0000
# 4 0.0000 0.0000 0.0000 22.0913 0.0000 0.0000
# 5 0.0000 0.0000 0.0000 0.0000 22.0913 0.0000
# 6 0.0000 0.0000 0.0000 0.0000 0.0000 -121.0018
#
#
#
# Elastic Compliance Matrix: (Units=1/GPa)
#
#
# Indices 1 2 3 4 5 6 
#
# 1 0.003584 0.007716 -0.002998 0.000000 0.000000 0.000000
# 2 0.007716 0.003584 -0.002998 0.000000 0.000000 0.000000
# 3 -0.002998 -0.002998 0.010791 0.000000 0.000000 0.000000
# 4 0.000000 0.000000 0.000000 0.045267 0.000000 0.000000
# 5 0.000000 0.000000 0.000000 0.000000 0.045267 0.000000
# 6 0.000000 0.000000 0.000000 0.000000 0.000000 -0.008264
#
#
# Mechanical properties :
#
#
# Convention : Reuss Voigt Hill
#
# Bulk Modulus (GPa) = 46.72899 47.95706 47.34302
# Shear Modulus (GPa) = 48.11378 -32.70305 7.70536
#
# Velocity S-wave (km/s) = 5.27733 -4.35084 2.11191
# Velocity P-wave (km/s) = 8.01138 1.58735 5.77503
#
# Compressibility (1/GPa) = 0.02139999
#
# Stress axis : x y z
#
# Youngs Moduli (GPa) = 279.02768 279.02768 92.66808
#
# Poissons Ratio (x) = -2.15299 0.27780
# Poissons Ratio (y) = -2.15299 0.27780
# Poissons Ratio (z) = 0.83646 0.83646
#
# Static dielectric constant tensor:
#      x y z
#    x 1.588250 0.000000 0.000000 
#    y 0.000000 1.588250 0.000000 
#    z 0.000000 0.000000 1.668140 
# 
# From -- ./inp_files/5320.got.cif
#   From: 2010.05.17/outbox.cif.g08.bks.cpg/sg191_3_cif.got.tgz:5320.got - 2010.05.20 12:20:32.
