data_PCOD9587924
_publ_section_title
;
Structure prediction by ZEFSAII (Michael W. Deem and Ramdas Pophale) SiO2 
 PCOD9587924
Probable space group: P 6/M M M
;
_chemical_formula_sum "Si O2"
_cell_formula_units_Z 120
_cell_length_a 17.781571
_cell_length_b 17.781571
_cell_length_c 26.254490
_cell_angle_alpha 90.000000
_cell_angle_beta 90.000000
_cell_angle_gamma 120.000000
_cell_volume 7189.099170
_symmetry_space_group_name_H-M "P 6/M M M"
_symmetry_group_IT_number 191
_symmetry_cell_setting 'hexagonal'
loop_
_space_group_symop_operation_xyz
x,y,z
x-y,x,z
-y,x-y,z
-x,-y,z
-x+y,-x,z
y,-x+y,z
x-y,-y,-z
-x,-x+y,-z
y,x,-z
-y,-x,-z
-x+y,y,-z
x,x-y,-z
-x,-y,-z
-x+y,-x,-z
y,-x+y,-z
x,y,-z
x-y,x,-z
-y,x-y,-z
-x+y,y,z
x,x-y,z
-y,-x,z
y,x,z
x-y,-y,z
-x,-x+y,z
loop_
_atom_site_type_symbol
_atom_site_label
_atom_site_fract_x
_atom_site_fract_y
_atom_site_fract_z
Si Si1 0.532500 0.895207 0.299905
Si Si2 0.270814 0.899149 0.599396
Si Si3 0.371705 0.273276 0.000000
Si Si4 0.100869 0.729245 0.800763
Si Si5 0.156089 0.667282 0.500000
Si Si6 0.511029 0.667371 0.099897
O O1 0.429842 0.859684 0.299938
O O2 0.567189 0.873555 0.350841
O O3 0.567076 0.873517 0.248935
O O4 0.579375 0.000000 0.299899
O O5 0.168560 0.831441 0.594969
O O6 0.316525 0.886078 0.549963
O O7 0.299099 0.000000 0.603700
O O8 0.430962 0.315902 0.049762
O O9 0.294243 0.294243 0.000000
O O10 0.344200 0.172100 0.000000
O O11 0.168471 0.831530 0.805056
O O12 0.114141 0.683828 0.850274
O O13 0.000000 0.700816 0.796447
O O14 0.257150 0.742851 0.500000
O O15 0.146124 0.573062 0.500000
O O16 0.484638 0.742319 0.100029
O O17 0.427006 0.572995 0.099924
#
# Coordination Sequence:
#
# PCOD9587924 Si02
#       6
#    24  24  12  24  12  24
#     4   9  17  30  49  72  96 122 154 191 231 280
#     4  10  20  33  50  72  97 127 163 202 242 283
#     4  10  21  35  51  72  97 127 162 200 241 283
#     4  10  20  33  50  72  97 127 163 203 245 286
#     4  10  20  33  50  73 100 128 157 192 236 285
#     4  10  20  33  50  73 101 131 161 194 234 281
#
# _framework density 16.691939000000001
#
# number of rings (size 3 to 8) (size 9 to 14) (size 15 to 20)
#    0.000    2.200    0.000    3.300    0.000    4.400 
#    0.000    1.000    0.000    6.100    0.000    0.000 
#    0.000   12.000    0.000    0.000    0.000    2.000 
#
# Total GULP energy -669503.345080 kJ/mol
# GULP energy per Si atom -5579.194542 kJ/mol
# Density = 1.665395 g / cm^3
# Si number density = 16.691939 Si / 1000 Ang^3
#
#
#
# Elastic Constant Matrix: (Units=GPa)
#
#
# Indices 1 2 3 4 5 6 
#
# 1 99.5424 79.5381 39.3919 0.0000 0.0000 0.0000
# 2 79.5381 99.5424 39.3919 0.0000 0.0000 0.0000
# 3 39.3919 39.3919 147.2475 0.0000 0.0000 0.0000
# 4 0.0000 0.0000 0.0000 15.9296 0.0000 0.0000
# 5 0.0000 0.0000 0.0000 0.0000 15.9296 0.0000
# 6 0.0000 0.0000 0.0000 0.0000 0.0000 10.0022
#
#
#
# Elastic Compliance Matrix: (Units=1/GPa)
#
#
# Indices 1 2 3 4 5 6 
#
# 1 0.028159 -0.021830 -0.001693 0.000000 0.000000 0.000000
# 2 -0.021830 0.028159 -0.001693 0.000000 0.000000 0.000000
# 3 -0.001693 -0.001693 0.007697 0.000000 0.000000 0.000000
# 4 0.000000 0.000000 0.000000 0.062776 0.000000 0.000000
# 5 0.000000 0.000000 0.000000 0.000000 0.062776 0.000000
# 6 0.000000 0.000000 0.000000 0.000000 0.000000 0.099978
#
#
# Mechanical properties :
#
#
# Convention : Reuss Voigt Hill
#
# Bulk Modulus (GPa) = 73.62382 73.66400 73.64391
# Shear Modulus (GPa) = 14.51350 20.90629 17.70990
#
# Velocity S-wave (km/s) = 2.95191 3.54288 3.26081
# Velocity P-wave (km/s) = 7.47138 7.80790 7.64149
#
# Compressibility (1/GPa) = 0.01358256
#
# Stress axis : x y z
#
# Youngs Moduli (GPa) = 35.51253 35.51253 129.91762
#
# Poissons Ratio (x) = 0.77524 0.21997
# Poissons Ratio (y) = 0.77524 0.21997
# Poissons Ratio (z) = 0.06013 0.06013
#
# Static dielectric constant tensor:
#      x y z
#    x 1.552110 0.000000 0.000000 
#    y 0.000000 1.552110 0.000000 
#    z 0.000000 0.000000 1.562270 
# 
# From -- ./inp_files/9624.got.cif
#   From: 2010.05.17/outbox.cif.g08.bks.cpg/sg191_5_cif.got.tgz:9624.got - 2010.05.20 12:20:32.
