data_PCOD9587224
_publ_section_title
;
Structure prediction by ZEFSAII (Michael W. Deem and Ramdas Pophale) SiO2 
 PCOD9587224
Probable space group: P 6/M M M
;
_chemical_formula_sum "Si O2"
_cell_formula_units_Z 144
_cell_length_a 23.321759
_cell_length_b 23.321759
_cell_length_c 20.367253
_cell_angle_alpha 90.000000
_cell_angle_beta 90.000000
_cell_angle_gamma 120.000000
_cell_volume 9593.690335
_symmetry_space_group_name_H-M "P 6/M M M"
_symmetry_group_IT_number 191
_symmetry_cell_setting 'hexagonal'
loop_
_space_group_symop_operation_xyz
x,y,z
x-y,x,z
-y,x-y,z
-x,-y,z
-x+y,-x,z
y,-x+y,z
x-y,-y,-z
-x,-x+y,-z
y,x,-z
-y,-x,-z
-x+y,y,-z
x,x-y,-z
-x,-y,-z
-x+y,-x,-z
y,-x+y,-z
x,y,-z
x-y,x,-z
-y,x-y,-z
-x+y,y,z
x,x-y,z
-y,-x,z
y,x,z
x-y,-y,z
-x,-x+y,z
loop_
_atom_site_type_symbol
_atom_site_label
_atom_site_fract_x
_atom_site_fract_y
_atom_site_fract_z
Si Si1 0.742694 0.076851 0.571939
Si Si2 0.837967 0.162034 0.073736
Si Si3 0.923654 0.847307 0.289892
Si Si4 0.604704 0.524605 0.801467
Si Si5 0.080585 0.711380 0.714627
Si Si6 0.853604 0.146397 0.218193
Si Si7 0.601658 0.922333 0.074562
Si Si8 0.108307 0.216614 0.426958
O O1 0.743857 0.106664 0.500000
O O2 0.730927 0.104295 0.639452
O O3 0.812946 0.079492 0.578768
O O4 0.686975 0.000000 0.569609
O O5 0.859387 0.140614 0.140017
O O6 0.874705 0.241825 0.078368
O O7 0.853269 0.146732 0.000000
O O8 0.886800 0.886800 0.271462
O O9 0.887849 0.775698 0.256873
O O10 0.917155 0.834309 0.368153
O O11 0.552811 0.447190 0.794427
O O12 0.561709 0.561709 0.799365
O O13 0.659713 0.560334 0.745460
O O14 0.642118 0.545567 0.871168
O O15 0.111175 0.777270 0.758666
O O16 0.000000 0.676651 0.715953
O O17 0.657090 0.000000 0.086390
O O18 0.577450 0.918723 0.000000
O O19 0.093691 0.187382 0.500000
#
# Coordination Sequence:
#
# PCOD9587224 Si02
#       8
#    24  12  12  24  24  12  24  12
#     4   9  16  26  41  62  88 118 152 191 235 283
#     4  10  20  32  49  73 100 127 156 198 250 298
#     4  12  25  38  50  66  92 128 172 222 276 326
#     4   9  17  28  43  64  92 123 149 177 218 271
#     4  10  18  29  45  68  95 120 155 197 237 280
#     4  12  20  31  52  72  91 123 162 204 250 300
#     4   9  17  29  45  67  97 128 157 192 235 287
#     4  10  18  29  47  69  92 122 164 208 256 316
#
# _framework density 15.009866000000001
#
# number of rings (size 3 to 8) (size 9 to 14) (size 15 to 20)
#    0.000    2.167    3.333    1.083    0.000    2.000 
#    0.000    1.667    0.000    1.000    0.000    3.500 
#    6.667    0.667    1.000    0.000    0.000    0.000 
#
# Total GULP energy -801905.991230 kJ/mol
# GULP energy per Si atom -5568.791606 kJ/mol
# Density = 1.497570 g / cm^3
# Si number density = 15.009866 Si / 1000 Ang^3
#
#
#
# Elastic Constant Matrix: (Units=GPa)
#
#
# Indices 1 2 3 4 5 6 
#
# 1 53.5845 27.5087 25.8397 0.0000 0.0000 0.0000
# 2 27.5087 53.5845 25.8397 0.0000 0.0000 0.0000
# 3 25.8397 25.8397 107.7809 0.0000 0.0000 0.0000
# 4 0.0000 0.0000 0.0000 15.1938 0.0000 0.0000
# 5 0.0000 0.0000 0.0000 0.0000 15.1938 0.0000
# 6 0.0000 0.0000 0.0000 0.0000 0.0000 13.0379
#
#
#
# Elastic Compliance Matrix: (Units=1/GPa)
#
#
# Indices 1 2 3 4 5 6 
#
# 1 0.026452 -0.011897 -0.003490 0.000000 0.000000 0.000000
# 2 -0.011897 0.026452 -0.003490 0.000000 0.000000 0.000000
# 3 -0.003490 -0.003490 0.010951 0.000000 0.000000 0.000000
# 4 0.000000 0.000000 0.000000 0.065816 0.000000 0.000000
# 5 0.000000 0.000000 0.000000 0.000000 0.065816 0.000000
# 6 0.000000 0.000000 0.000000 0.000000 0.000000 0.076699
#
#
# Mechanical properties :
#
#
# Convention : Reuss Voigt Hill
#
# Bulk Modulus (GPa) = 38.30866 41.48068 39.89467
# Shear Modulus (GPa) = 15.69161 17.73591 16.71376
#
# Velocity S-wave (km/s) = 3.23680 3.44119 3.34056
# Velocity P-wave (km/s) = 6.28863 6.59429 6.44328
#
# Compressibility (1/GPa) = 0.02610376
#
# Stress axis : x y z
#
# Youngs Moduli (GPa) = 37.80363 37.80363 91.31366
#
# Poissons Ratio (x) = 0.44976 0.31864
# Poissons Ratio (y) = 0.44976 0.31864
# Poissons Ratio (z) = 0.13192 0.13192
#
# Static dielectric constant tensor:
#      x y z
#    x 1.486690 0.000000 0.000000 
#    y 0.000000 1.486690 0.000000 
#    z 0.000000 0.000000 1.548510 
# 
# From -- ./inp_files/7704.got.cif
#   From: 2010.05.17/outbox.cif.g08.bks.cpg/sg191_4_cif.got.tgz:7704.got - 2010.05.20 12:20:32.
