data_PCOD9587360
_publ_section_title
;
Structure prediction by ZEFSAII (Michael W. Deem and Ramdas Pophale) SiO2 
 PCOD9587360
Probable space group: P 6/M M M
;
_chemical_formula_sum "Si O2"
_cell_formula_units_Z 180
_cell_length_a 21.835511
_cell_length_b 21.835511
_cell_length_c 31.707720
_cell_angle_alpha 90.000000
_cell_angle_beta 90.000000
_cell_angle_gamma 120.000000
_cell_volume 13092.493465
_symmetry_space_group_name_H-M "P 6/M M M"
_symmetry_group_IT_number 191
_symmetry_cell_setting 'hexagonal'
loop_
_space_group_symop_operation_xyz
x,y,z
x-y,x,z
-y,x-y,z
-x,-y,z
-x+y,-x,z
y,-x+y,z
x-y,-y,-z
-x,-x+y,-z
y,x,-z
-y,-x,-z
-x+y,y,-z
x,x-y,-z
-x,-y,-z
-x+y,-x,-z
y,-x+y,-z
x,y,-z
x-y,x,-z
-y,x-y,-z
-x+y,y,z
x,x-y,z
-y,-x,z
y,x,z
x-y,-y,z
-x,-x+y,z
loop_
_atom_site_type_symbol
_atom_site_label
_atom_site_fract_x
_atom_site_fract_y
_atom_site_fract_z
Si Si1 0.194201 0.666683 0.225637
Si Si2 0.861958 0.583319 0.151768
Si Si3 0.521461 0.333278 0.548094
Si Si4 0.918857 0.695329 0.226276
Si Si5 0.385986 0.916853 0.376137
Si Si6 0.081179 0.469254 0.077559
Si Si7 0.665866 0.187922 0.000000
Si Si8 0.917054 0.337170 0.286134
O O1 0.215697 0.607849 0.220156
O O2 0.259971 0.740030 0.240933
O O3 0.168552 0.683361 0.181963
O O4 0.131001 0.642152 0.258619
O O5 0.858114 0.716227 0.227628
O O6 0.905742 0.648837 0.183649
O O7 0.904249 0.571462 0.114835
O O8 0.497690 0.334423 0.500000
O O9 0.519378 0.259689 0.554768
O O10 0.601923 0.398078 0.551190
O O11 0.477970 0.347461 0.583474
O O12 0.794444 0.588887 0.136148
O O13 0.907203 0.641737 0.264958
O O14 0.000000 0.757209 0.227474
O O15 0.453227 0.906454 0.365827
O O16 0.336780 0.898835 0.335086
O O17 0.419530 0.000000 0.385446
O O18 0.089196 0.544598 0.091763
O O19 0.000000 0.422444 0.062538
O O20 0.137986 0.487252 0.040664
O O21 0.742869 0.257132 0.000000
O O22 0.604592 0.209183 0.000000
O O23 0.000000 0.394004 0.281635
#
# Coordination Sequence:
#
# PCOD9587360 Si02
#       8
#    24  24  24  24  24  24  12  24
#     4  10  19  29  40  56  80 108 136 165 198 235
#     4   9  17  29  44  61  81 106 136 166 194 229
#     4   9  17  28  41  56  74  97 125 157 193 233
#     4   9  17  29  45  64  85 108 133 161 193 229
#     4   9  17  28  41  57  76  98 126 161 199 235
#     4  10  19  30  44  62  83 104 129 164 204 240
#     4  10  20  33  47  61  78 103 134 166 199 236
#     4   9  17  29  43  58  77 101 131 166 200 234
#
# _framework density 13.748336
#
# number of rings (size 3 to 8) (size 9 to 14) (size 15 to 20)
#    0.000    2.667    0.000    3.333    0.000    4.000 
#    0.000    1.333    0.000    6.000    0.000    0.000 
#    0.000    0.000    0.000    0.000    0.000    0.000 
#
# Total GULP energy -1002597.522351 kJ/mol
# GULP energy per Si atom -5569.986235 kJ/mol
# Density = 1.371704 g / cm^3
# Si number density = 13.748336 Si / 1000 Ang^3
#
#
#
# Elastic Constant Matrix: (Units=GPa)
#
#
# Indices 1 2 3 4 5 6 
#
# 1 72.1405 38.3302 41.6947 0.0000 0.0000 0.0000
# 2 38.3302 72.1405 41.6947 0.0000 0.0000 0.0000
# 3 41.6947 41.6947 67.1796 0.0000 0.0000 0.0000
# 4 0.0000 0.0000 0.0000 16.8877 0.0000 0.0000
# 5 0.0000 0.0000 0.0000 0.0000 16.8877 0.0000
# 6 0.0000 0.0000 0.0000 0.0000 0.0000 16.9051
#
#
#
# Elastic Compliance Matrix: (Units=1/GPa)
#
#
# Indices 1 2 3 4 5 6 
#
# 1 0.023304 -0.006273 -0.010570 0.000000 0.000000 0.000000
# 2 -0.006273 0.023304 -0.010570 0.000000 0.000000 0.000000
# 3 -0.010570 -0.010570 0.028006 0.000000 0.000000 0.000000
# 4 0.000000 0.000000 0.000000 0.059215 0.000000 0.000000
# 5 0.000000 0.000000 0.000000 0.000000 0.059215 0.000000
# 6 0.000000 0.000000 0.000000 0.000000 0.000000 0.059154
#
#
# Mechanical properties :
#
#
# Convention : Reuss Voigt Hill
#
# Bulk Modulus (GPa) = 50.53718 50.54443 50.54080
# Shear Modulus (GPa) = 15.94285 16.11885 16.03085
#
# Velocity S-wave (km/s) = 3.40901 3.42778 3.41841
# Velocity P-wave (km/s) = 7.23421 7.24638 7.24030
#
# Compressibility (1/GPa) = 0.01978741
#
# Stress axis : x y z
#
# Youngs Moduli (GPa) = 42.91100 42.91100 35.70611
#
# Poissons Ratio (x) = 0.26917 0.37743
# Poissons Ratio (y) = 0.26917 0.37743
# Poissons Ratio (z) = 0.45359 0.45359
#
# Static dielectric constant tensor:
#      x y z
#    x 1.441290 0.000000 0.000000 
#    y 0.000000 1.441290 0.000000 
#    z 0.000000 0.000000 1.450320 
# 
# From -- ./inp_files/10903.got.cif
#   From: 2010.05.17/outbox.cif.g08.bks.cpg/sg191_6_cif.got.tgz:10903.got - 2010.05.20 12:20:32.
