data_PCOD9587316
_publ_section_title
;
Structure prediction by ZEFSAII (Michael W. Deem and Ramdas Pophale) SiO2 
 PCOD9587316
Probable space group: P 6/M M M
;
_chemical_formula_sum "Si O2"
_cell_formula_units_Z 108
_cell_length_a 21.579162
_cell_length_b 21.579162
_cell_length_c 16.269567
_cell_angle_alpha 90.000000
_cell_angle_beta 90.000000
_cell_angle_gamma 120.000000
_cell_volume 6561.086708
_symmetry_space_group_name_H-M "P 6/M M M"
_symmetry_group_IT_number 191
_symmetry_cell_setting 'hexagonal'
loop_
_space_group_symop_operation_xyz
x,y,z
x-y,x,z
-y,x-y,z
-x,-y,z
-x+y,-x,z
y,-x+y,z
x-y,-y,-z
-x,-x+y,-z
y,x,-z
-y,-x,-z
-x+y,y,-z
x,x-y,-z
-x,-y,-z
-x+y,-x,-z
y,-x+y,-z
x,y,-z
x-y,x,-z
-y,x-y,-z
-x+y,y,z
x,x-y,z
-y,-x,z
y,x,z
x-y,-y,z
-x,-x+y,z
loop_
_atom_site_type_symbol
_atom_site_label
_atom_site_fract_x
_atom_site_fract_y
_atom_site_fract_z
Si Si1 0.227097 0.922271 0.500000
Si Si2 0.265855 0.384365 0.333465
Si Si3 0.082666 0.642835 0.905546
Si Si4 0.921075 0.697060 0.162318
Si Si5 0.522437 0.336006 0.240442
O O1 0.146182 0.853818 0.500000
O O2 0.267788 0.917940 0.581021
O O3 0.233794 0.000000 0.500000
O O4 0.195835 0.391669 0.340887
O O5 0.250458 0.333222 0.254843
O O6 0.327554 0.463040 0.307326
O O7 0.088248 0.720197 0.894827
O O8 0.140738 0.644541 0.843626
O O9 0.000000 0.585233 0.883710
O O10 0.094649 0.631431 0.000000
O O11 0.855539 0.711078 0.151957
O O12 0.000000 0.763186 0.148559
O O13 0.519571 0.259786 0.231933
O O14 0.601237 0.398764 0.261119
#
# Coordination Sequence:
#
# PCOD9587316 Si02
#       5
#    12  24  24  24  24
#     4  10  18  30  51  76 101 127 159 199 240 282
#     4   8  16  30  47  67  90 119 153 189 226 263
#     4   9  18  32  49  68  90 118 153 194 236 274
#     4   9  16  27  44  65  89 117 150 187 228 273
#     4  10  20  34  51  70  95 126 158 191 232 285
#
# _framework density 16.460688000000001
#
# number of rings (size 3 to 8) (size 9 to 14) (size 15 to 20)
#    0.000    2.889    0.000    2.889    0.000    3.556 
#    0.000    1.667    0.000    2.333    0.000    1.556 
#    0.000    5.333    0.000    5.556    0.000    0.444 
#
# Total GULP energy -601272.398055 kJ/mol
# GULP energy per Si atom -5567.337019 kJ/mol
# Density = 1.642322 g / cm^3
# Si number density = 16.460688 Si / 1000 Ang^3
#
#
#
# Elastic Constant Matrix: (Units=GPa)
#
#
# Indices 1 2 3 4 5 6 
#
# 1 76.7445 48.3466 15.4285 0.0000 0.0000 0.0000
# 2 48.3466 76.7445 15.4285 0.0000 0.0000 0.0000
# 3 15.4285 15.4285 59.2848 0.0000 0.0000 0.0000
# 4 0.0000 0.0000 0.0000 7.1081 0.0000 0.0000
# 5 0.0000 0.0000 0.0000 0.0000 7.1081 0.0000
# 6 0.0000 0.0000 0.0000 0.0000 0.0000 14.1989
#
#
#
# Elastic Compliance Matrix: (Units=1/GPa)
#
#
# Indices 1 2 3 4 5 6 
#
# 1 0.021878 -0.013336 -0.002223 0.000000 0.000000 0.000000
# 2 -0.013336 0.021878 -0.002223 0.000000 0.000000 0.000000
# 3 -0.002223 -0.002223 0.018025 0.000000 0.000000 0.000000
# 4 0.000000 0.000000 0.000000 0.140685 0.000000 0.000000
# 5 0.000000 0.000000 0.000000 0.000000 0.140685 0.000000
# 6 0.000000 0.000000 0.000000 0.000000 0.000000 0.070428
#
#
# Mechanical properties :
#
#
# Convention : Reuss Voigt Hill
#
# Bulk Modulus (GPa) = 38.14260 41.24232 39.69246
# Shear Modulus (GPa) = 10.91982 14.58770 12.75376
#
# Velocity S-wave (km/s) = 2.57843 2.98016 2.78654
# Velocity P-wave (km/s) = 5.66450 6.07876 5.87528
#
# Compressibility (1/GPa) = 0.02621740
#
# Stress axis : x y z
#
# Youngs Moduli (GPa) = 45.70753 45.70753 55.47900
#
# Poissons Ratio (x) = 0.60954 0.12334
# Poissons Ratio (y) = 0.60954 0.12334
# Poissons Ratio (z) = 0.10161 0.10161
#
# Static dielectric constant tensor:
#      x y z
#    x 1.561990 0.000000 0.000000 
#    y 0.000000 1.561990 0.000000 
#    z 0.000000 0.000000 1.570000 
# 
# From -- ./inp_files/6132.got.cif
#   From: 2010.05.17/outbox.cif.g08.bks.cpg/sg191_4_cif.got.tgz:6132.got - 2010.05.20 12:20:32.
