data_PCOD9587483
_publ_section_title
;
Structure prediction by ZEFSAII (Michael W. Deem and Ramdas Pophale) SiO2 
 PCOD9587483
Probable space group: P 6/M M M
;
_chemical_formula_sum "Si O2"
_cell_formula_units_Z 108
_cell_length_a 18.285808
_cell_length_b 18.285808
_cell_length_c 23.388128
_cell_angle_alpha 90.000000
_cell_angle_beta 90.000000
_cell_angle_gamma 120.000000
_cell_volume 6772.584066
_symmetry_space_group_name_H-M "P 6/M M M"
_symmetry_group_IT_number 191
_symmetry_cell_setting 'hexagonal'
loop_
_space_group_symop_operation_xyz
x,y,z
x-y,x,z
-y,x-y,z
-x,-y,z
-x+y,-x,z
y,-x+y,z
x-y,-y,-z
-x,-x+y,-z
y,x,-z
-y,-x,-z
-x+y,y,-z
x,x-y,-z
-x,-y,-z
-x+y,-x,-z
y,-x+y,-z
x,y,-z
x-y,x,-z
-y,x-y,-z
-x+y,y,z
x,x-y,z
-y,-x,z
y,x,z
x-y,-y,z
-x,-x+y,z
loop_
_atom_site_type_symbol
_atom_site_label
_atom_site_fract_x
_atom_site_fract_y
_atom_site_fract_z
Si Si1 0.902704 0.633867 0.893984
Si Si2 0.898639 0.532973 0.667106
Si Si3 0.496356 0.331560 0.206836
Si Si4 0.839174 0.332331 0.000000
Si Si5 0.357162 0.259471 0.564734
O O1 0.830366 0.660731 0.896441
O O2 0.888140 0.581025 0.835734
O O3 0.880799 0.566368 0.944983
O O4 0.000000 0.707057 0.898501
O O5 0.874861 0.437431 0.654393
O O6 0.857375 0.532406 0.727474
O O7 0.877758 0.573437 0.613682
O O8 0.000000 0.586351 0.674726
O O9 0.525144 0.262572 0.196227
O O10 0.574206 0.425795 0.197460
O O11 0.740356 0.259645 0.000000
O O12 0.849236 0.424618 0.000000
O O13 0.392072 0.285359 0.500000
O O14 0.320299 0.160150 0.569062
O O15 0.288887 0.288887 0.572485
#
# Coordination Sequence:
#
# PCOD9587483 Si02
#       5
#    24  24  24  12  24
#     4  10  21  35  51  71  94 122 155 193 236 278
#     4   9  17  28  43  64  88 115 149 187 223 260
#     4  10  19  30  45  66  94 126 157 187 219 258
#     4  10  20  33  50  73 102 134 165 194 224 261
#     4   9  17  29  45  64  86 113 146 184 225 269
#
# _framework density 15.946645
#
# number of rings (size 3 to 8) (size 9 to 14) (size 15 to 20)
#    0.000    2.444    0.000    2.667    0.000    3.556 
#    0.000    4.444    0.000    0.889    0.000    1.556 
#    0.000    2.667    0.000    7.111    0.000    4.889 
#
# Total GULP energy -601844.554520 kJ/mol
# GULP energy per Si atom -5572.634764 kJ/mol
# Density = 1.591035 g / cm^3
# Si number density = 15.946645 Si / 1000 Ang^3
#
#
#
# Elastic Constant Matrix: (Units=GPa)
#
#
# Indices 1 2 3 4 5 6 
#
# 1 83.1213 56.7061 46.6473 0.0000 0.0000 0.0000
# 2 56.7061 83.1213 46.6473 0.0000 0.0000 0.0000
# 3 46.6473 46.6473 86.5533 0.0000 0.0000 0.0000
# 4 0.0000 0.0000 0.0000 21.3534 0.0000 0.0000
# 5 0.0000 0.0000 0.0000 0.0000 21.3534 0.0000
# 6 0.0000 0.0000 0.0000 0.0000 0.0000 13.2076
#
#
#
# Elastic Compliance Matrix: (Units=1/GPa)
#
#
# Indices 1 2 3 4 5 6 
#
# 1 0.024512 -0.013345 -0.006019 0.000000 0.000000 0.000000
# 2 -0.013345 0.024512 -0.006019 0.000000 0.000000 0.000000
# 3 -0.006019 -0.006019 0.018041 0.000000 0.000000 0.000000
# 4 0.000000 0.000000 0.000000 0.046831 0.000000 0.000000
# 5 0.000000 0.000000 0.000000 0.000000 0.046831 0.000000
# 6 0.000000 0.000000 0.000000 0.000000 0.000000 0.075714
#
#
# Mechanical properties :
#
#
# Convention : Reuss Voigt Hill
#
# Bulk Modulus (GPa) = 61.34468 61.42192 61.38330
# Shear Modulus (GPa) = 17.08591 18.03589 17.56090
#
# Velocity S-wave (km/s) = 3.27684 3.36670 3.32208
# Velocity P-wave (km/s) = 7.27112 7.32896 7.30010
#
# Compressibility (1/GPa) = 0.01630133
#
# Stress axis : x y z
#
# Youngs Moduli (GPa) = 40.79611 40.79611 55.42964
#
# Poissons Ratio (x) = 0.54442 0.33361
# Poissons Ratio (y) = 0.54442 0.33361
# Poissons Ratio (z) = 0.24553 0.24553
#
# Static dielectric constant tensor:
#      x y z
#    x 1.522690 0.000000 0.000000 
#    y 0.000000 1.522690 0.000000 
#    z 0.000000 0.000000 1.547340 
# 
# From -- ./inp_files/7297.got.cif
#   From: 2010.05.17/outbox.cif.g08.bks.cpg/sg191_4_cif.got.tgz:7297.got - 2010.05.20 12:20:32.
