data_PCOD9587616
_publ_section_title
;
Structure prediction by ZEFSAII (Michael W. Deem and Ramdas Pophale) SiO2 
 PCOD9587616
Probable space group: P 6/M M M
;
_chemical_formula_sum "Si O2"
_cell_formula_units_Z 108
_cell_length_a 17.892344
_cell_length_b 17.892344
_cell_length_c 25.351794
_cell_angle_alpha 90.000000
_cell_angle_beta 90.000000
_cell_angle_gamma 120.000000
_cell_volume 7028.680589
_symmetry_space_group_name_H-M "P 6/M M M"
_symmetry_group_IT_number 191
_symmetry_cell_setting 'hexagonal'
loop_
_space_group_symop_operation_xyz
x,y,z
x-y,x,z
-y,x-y,z
-x,-y,z
-x+y,-x,z
y,-x+y,z
x-y,-y,-z
-x,-x+y,-z
y,x,-z
-y,-x,-z
-x+y,y,-z
x,x-y,-z
-x,-y,-z
-x+y,-x,-z
y,-x+y,-z
x,y,-z
x-y,x,-z
-y,x-y,-z
-x+y,y,z
x,x-y,z
-y,-x,z
y,x,z
x-y,-y,z
-x,-x+y,z
loop_
_atom_site_type_symbol
_atom_site_label
_atom_site_fract_x
_atom_site_fract_y
_atom_site_fract_z
Si Si1 0.508713 0.666625 0.939300
Si Si2 0.096450 0.729895 0.842245
Si Si3 0.490787 0.158260 0.257077
Si Si4 0.588679 0.000000 0.562406
Si Si5 0.904369 0.270189 0.642469
O O1 0.483607 0.741804 0.935229
O O2 0.425594 0.574407 0.927938
O O3 0.583314 0.691343 0.897060
O O4 0.535333 0.666401 0.000000
O O5 0.170595 0.829406 0.839412
O O6 0.115976 0.681605 0.795113
O O7 0.000000 0.711062 0.837171
O O8 0.573127 0.146254 0.259580
O O9 0.518553 0.259277 0.255513
O O10 0.429273 0.118081 0.307723
O O11 0.588431 0.919516 0.591720
O O12 0.500000 0.000000 0.572302
O O13 0.601379 0.000000 0.500000
O O14 0.826735 0.173266 0.635882
O O15 0.000000 0.283616 0.651115
#
# Coordination Sequence:
#
# PCOD9587616 Si02
#       5
#    24  24  24  12  24
#     4   9  17  29  45  66  94 127 160 190 221 263
#     4  10  21  34  48  67  90 119 154 194 242 289
#     4  10  19  31  48  72 102 133 164 197 234 278
#     4   9  18  32  52  76 101 131 166 202 241 289
#     4   9  19  32  49  73  99 129 165 204 245 287
#
# _framework density 15.365614000000001
#
# number of rings (size 3 to 8) (size 9 to 14) (size 15 to 20)
#    0.667    1.889    0.000    2.444    0.000    4.444 
#    0.000    3.333    0.000    0.889    0.000    0.000 
#    0.000    6.222    0.000    5.556    0.000    0.000 
#
# Total GULP energy -601570.058343 kJ/mol
# GULP energy per Si atom -5570.093133 kJ/mol
# Density = 1.533064 g / cm^3
# Si number density = 15.365614 Si / 1000 Ang^3
#
#
#
# Elastic Constant Matrix: (Units=GPa)
#
#
# Indices 1 2 3 4 5 6 
#
# 1 93.5741 76.5891 44.9517 0.0000 0.0000 0.0000
# 2 76.5891 93.5741 44.9517 0.0000 0.0000 0.0000
# 3 44.9517 44.9517 82.5821 0.0000 0.0000 0.0000
# 4 0.0000 0.0000 0.0000 18.9450 0.0000 0.0000
# 5 0.0000 0.0000 0.0000 0.0000 18.9450 0.0000
# 6 0.0000 0.0000 0.0000 0.0000 0.0000 8.4925
#
#
#
# Elastic Compliance Matrix: (Units=1/GPa)
#
#
# Indices 1 2 3 4 5 6 
#
# 1 0.033562 -0.025313 -0.004490 0.000000 0.000000 0.000000
# 2 -0.025313 0.033562 -0.004490 0.000000 0.000000 0.000000
# 3 -0.004490 -0.004490 0.016997 0.000000 0.000000 0.000000
# 4 0.000000 0.000000 0.000000 0.052784 0.000000 0.000000
# 5 0.000000 0.000000 0.000000 0.000000 0.052784 0.000000
# 6 0.000000 0.000000 0.000000 0.000000 0.000000 0.117751
#
#
# Mechanical properties :
#
#
# Convention : Reuss Voigt Hill
#
# Bulk Modulus (GPa) = 64.37168 66.96835 65.67001
# Shear Modulus (GPa) = 13.11625 16.15903 14.63764
#
# Velocity S-wave (km/s) = 2.92483 3.24641 3.08981
# Velocity P-wave (km/s) = 7.30688 7.59803 7.45388
#
# Compressibility (1/GPa) = 0.01553478
#
# Stress axis : x y z
#
# Youngs Moduli (GPa) = 29.79544 29.79544 58.83249
#
# Poissons Ratio (x) = 0.75422 0.26417
# Poissons Ratio (y) = 0.75422 0.26417
# Poissons Ratio (z) = 0.13379 0.13379
#
# Static dielectric constant tensor:
#      x y z
#    x 1.497560 0.000000 0.000000 
#    y 0.000000 1.497560 0.000000 
#    z 0.000000 0.000000 1.513460 
# 
# From -- ./inp_files/9486.got.cif
#   From: 2010.05.17/outbox.cif.g08.bks.cpg/sg191_5_cif.got.tgz:9486.got - 2010.05.20 12:20:32.
