data_PCOD9587828
_publ_section_title
;
Structure prediction by ZEFSAII (Michael W. Deem and Ramdas Pophale) SiO2 
 PCOD9587828
Probable space group: P 6/M M M
;
_chemical_formula_sum "Si O2"
_cell_formula_units_Z 120
_cell_length_a 23.676010
_cell_length_b 23.676010
_cell_length_c 15.826270
_cell_angle_alpha 90.000000
_cell_angle_beta 90.000000
_cell_angle_gamma 120.000000
_cell_volume 7682.918598
_symmetry_space_group_name_H-M "P 6/M M M"
_symmetry_group_IT_number 191
_symmetry_cell_setting 'hexagonal'
loop_
_space_group_symop_operation_xyz
x,y,z
x-y,x,z
-y,x-y,z
-x,-y,z
-x+y,-x,z
y,-x+y,z
x-y,-y,-z
-x,-x+y,-z
y,x,-z
-y,-x,-z
-x+y,y,-z
x,x-y,-z
-x,-y,-z
-x+y,-x,-z
y,-x+y,-z
x,y,-z
x-y,x,-z
-y,x-y,-z
-x+y,y,z
x,x-y,z
-y,-x,z
y,x,z
x-y,-y,z
-x,-x+y,z
loop_
_atom_site_type_symbol
_atom_site_label
_atom_site_fract_x
_atom_site_fract_y
_atom_site_fract_z
Si Si1 0.399537 0.477356 0.352256
Si Si2 0.924476 0.203725 0.755130
Si Si3 0.077231 0.475421 0.851064
Si Si4 0.619860 0.876062 0.904811
Si Si5 0.643712 0.920791 0.407131
O O1 0.448006 0.551995 0.379388
O O2 0.439559 0.439559 0.369732
O O3 0.391988 0.476414 0.250762
O O4 0.328876 0.432560 0.392064
O O5 0.872437 0.127564 0.765887
O O6 0.915889 0.242052 0.833973
O O7 0.904998 0.229127 0.671211
O O8 0.000000 0.224220 0.748322
O O9 0.096614 0.548307 0.878428
O O10 0.114798 0.441994 0.890655
O O11 0.000000 0.430155 0.869208
O O12 0.602814 0.801407 0.895514
O O13 0.645040 0.897349 0.000000
O O14 0.653566 0.900437 0.500000
O O15 0.680508 0.000000 0.406569
#
# Coordination Sequence:
#
# PCOD9587828 Si02
#       5
#    24  24  24  24  24
#     4   8  13  22  37  59  89 122 152 182 217 255
#     4  10  20  34  50  68  92 120 150 187 233 286
#     4   9  16  27  45  67  91 120 153 189 227 265
#     4  10  20  32  47  68  94 124 156 191 232 277
#     4   9  16  26  42  64  90 121 153 182 217 264
#
# _framework density 15.619064
#
# number of rings (size 3 to 8) (size 9 to 14) (size 15 to 20)
#    0.000    2.800    2.000    1.800    0.000    2.800 
#    0.000    3.000    0.000    0.600    0.000    0.000 
#    0.000    0.000    0.000   10.000    0.000   18.200 
#
# Total GULP energy -668156.936469 kJ/mol
# GULP energy per Si atom -5567.974471 kJ/mol
# Density = 1.558351 g / cm^3
# Si number density = 15.619064 Si / 1000 Ang^3
#
#
#
# Elastic Constant Matrix: (Units=GPa)
#
#
# Indices 1 2 3 4 5 6 
#
# 1 65.8000 34.6499 29.3424 0.0000 0.0000 0.0000
# 2 34.6499 65.8000 29.3424 0.0000 0.0000 0.0000
# 3 29.3424 29.3424 79.5553 0.0000 0.0000 0.0000
# 4 0.0000 0.0000 0.0000 12.0469 0.0000 0.0000
# 5 0.0000 0.0000 0.0000 0.0000 12.0469 0.0000
# 6 0.0000 0.0000 0.0000 0.0000 0.0000 15.5750
#
#
#
# Elastic Compliance Matrix: (Units=1/GPa)
#
#
# Indices 1 2 3 4 5 6 
#
# 1 0.022396 -0.009707 -0.004680 0.000000 0.000000 0.000000
# 2 -0.009707 0.022396 -0.004680 0.000000 0.000000 0.000000
# 3 -0.004680 -0.004680 0.016022 0.000000 0.000000 0.000000
# 4 0.000000 0.000000 0.000000 0.083009 0.000000 0.000000
# 5 0.000000 0.000000 0.000000 0.000000 0.083009 0.000000
# 6 0.000000 0.000000 0.000000 0.000000 0.000000 0.064205
#
#
# Mechanical properties :
#
#
# Convention : Reuss Voigt Hill
#
# Bulk Modulus (GPa) = 44.09122 44.20275 44.14698
# Shear Modulus (GPa) = 14.84863 15.78848 15.31856
#
# Velocity S-wave (km/s) = 3.08664 3.18283 3.13511
# Velocity P-wave (km/s) = 6.40262 6.47064 6.43672
#
# Compressibility (1/GPa) = 0.02268025
#
# Stress axis : x y z
#
# Youngs Moduli (GPa) = 44.65063 44.65063 62.41289
#
# Poissons Ratio (x) = 0.43341 0.29211
# Poissons Ratio (y) = 0.43341 0.29211
# Poissons Ratio (z) = 0.20898 0.20898
#
# Static dielectric constant tensor:
#      x y z
#    x 1.514130 0.000000 0.000000 
#    y 0.000000 1.514130 0.000000 
#    z 0.000000 0.000000 1.558410 
# 
# From -- ./inp_files/4690.got.cif
#   From: 2010.05.17/outbox.cif.g08.bks.cpg/sg191_3_cif.got.tgz:4690.got - 2010.05.20 12:20:32.
