data_PCOD9587697
_publ_section_title
;
Structure prediction by ZEFSAII (Michael W. Deem and Ramdas Pophale) SiO2 
 PCOD9587697
Probable space group: P 6/M M M
;
_chemical_formula_sum "Si O2"
_cell_formula_units_Z 114
_cell_length_a 23.265508
_cell_length_b 23.265508
_cell_length_c 14.042468
_cell_angle_alpha 90.000000
_cell_angle_beta 90.000000
_cell_angle_gamma 120.000000
_cell_volume 6582.625595
_symmetry_space_group_name_H-M "P 6/M M M"
_symmetry_group_IT_number 191
_symmetry_cell_setting 'hexagonal'
loop_
_space_group_symop_operation_xyz
x,y,z
x-y,x,z
-y,x-y,z
-x,-y,z
-x+y,-x,z
y,-x+y,z
x-y,-y,-z
-x,-x+y,-z
y,x,-z
-y,-x,-z
-x+y,y,-z
x,x-y,-z
-x,-y,-z
-x+y,-x,-z
y,-x+y,-z
x,y,-z
x-y,x,-z
-y,x-y,-z
-x+y,y,z
x,x-y,z
-y,-x,z
y,x,z
x-y,-y,z
-x,-x+y,z
loop_
_atom_site_type_symbol
_atom_site_label
_atom_site_fract_x
_atom_site_fract_y
_atom_site_fract_z
Si Si1 0.795574 0.795574 0.397551
Si Si2 0.641167 0.562739 0.249821
Si Si3 0.888857 0.245142 0.605420
Si Si4 0.861963 0.000000 0.000000
Si Si5 0.460078 0.539923 0.393370
Si Si6 0.136006 0.000000 0.203227
Si Si7 0.666957 0.197463 0.114408
O O1 0.827301 0.827301 0.500000
O O2 0.722724 0.786993 0.396206
O O3 0.830206 0.830206 0.300996
O O4 0.595236 0.595236 0.223327
O O5 0.705529 0.616673 0.306234
O O6 0.603076 0.506620 0.329989
O O7 0.658212 0.526718 0.165875
O O8 0.898108 0.277922 0.500000
O O9 0.813102 0.186899 0.614065
O O10 0.869053 0.934527 0.000000
O O11 0.829866 0.000000 0.898131
O O12 0.500000 0.500000 0.401490
O O13 0.446102 0.553899 0.500000
O O14 0.064728 0.935273 0.202379
O O15 0.602343 0.204686 0.136813
O O16 0.735646 0.264355 0.141706
O O17 0.668142 0.190581 0.000000
#
# Coordination Sequence:
#
# PCOD9587697 Si02
#       7
#    12  24  24   6  12  12  24
#     4  10  20  35  53  76 106 141 180 224 276 331
#     4  11  20  34  55  83 114 145 181 227 280 332
#     4  10  20  34  54  78 106 144 188 229 269 324
#     4   8  15  28  48  72  96 126 168 215 262 310
#     4   9  18  30  49  79 113 143 172 212 265 321
#     4  10  19  32  52  76 103 134 173 223 274 329
#     4  10  21  38  60  85 113 148 192 237 281 334
#
# _framework density 17.318317
#
# number of rings (size 3 to 8) (size 9 to 14) (size 15 to 20)
#    0.000    2.000    2.105    2.263    0.000    4.211 
#    0.000    1.053    2.316    0.632    0.000    0.000 
#    0.000    0.000    0.000    0.000    0.000    0.000 
#
# Total GULP energy -634949.883259 kJ/mol
# GULP energy per Si atom -5569.735818 kJ/mol
# Density = 1.727890 g / cm^3
# Si number density = 17.318317 Si / 1000 Ang^3
#
#
#
# Elastic Constant Matrix: (Units=GPa)
#
#
# Indices 1 2 3 4 5 6 
#
# 1 75.6082 27.0680 50.5700 0.0000 0.0000 0.0000
# 2 27.0680 75.6082 50.5700 0.0000 0.0000 0.0000
# 3 50.5700 50.5700 125.1777 0.0000 0.0000 0.0000
# 4 0.0000 0.0000 0.0000 33.2839 0.0000 0.0000
# 5 0.0000 0.0000 0.0000 0.0000 33.2839 0.0000
# 6 0.0000 0.0000 0.0000 0.0000 0.0000 24.2701
#
#
#
# Elastic Compliance Matrix: (Units=1/GPa)
#
#
# Indices 1 2 3 4 5 6 
#
# 1 0.018389 -0.002212 -0.006535 0.000000 0.000000 0.000000
# 2 -0.002212 0.018389 -0.006535 0.000000 0.000000 0.000000
# 3 -0.006535 -0.006535 0.013269 0.000000 0.000000 0.000000
# 4 0.000000 0.000000 0.000000 0.030045 0.000000 0.000000
# 5 0.000000 0.000000 0.000000 0.000000 0.030045 0.000000
# 6 0.000000 0.000000 0.000000 0.000000 0.000000 0.041203
#
#
# Mechanical properties :
#
#
# Convention : Reuss Voigt Hill
#
# Bulk Modulus (GPa) = 51.33027 59.20114 55.26571
# Shear Modulus (GPa) = 26.53950 28.04667 27.29308
#
# Velocity S-wave (km/s) = 3.91890 4.02864 3.97415
# Velocity P-wave (km/s) = 7.08383 7.47651 7.28282
#
# Compressibility (1/GPa) = 0.01948168
#
# Stress axis : x y z
#
# Youngs Moduli (GPa) = 54.37998 54.37998 75.36429
#
# Poissons Ratio (x) = 0.12031 0.49252
# Poissons Ratio (y) = 0.12031 0.49252
# Poissons Ratio (z) = 0.35538 0.35538
#
# Static dielectric constant tensor:
#      x y z
#    x 1.597590 0.000000 0.000000 
#    y 0.000000 1.597590 0.000000 
#    z 0.000000 0.000000 1.624810 
# 
# From -- ./inp_files/4457.got.cif
#   From: 2010.05.17/outbox.cif.g08.bks.cpg/sg191_3_cif.got.tgz:4457.got - 2010.05.20 12:20:32.
