data_PCOD9587109
_publ_section_title
;
Structure prediction by ZEFSAII (Michael W. Deem and Ramdas Pophale) SiO2 
 PCOD9587109
Probable space group: P 6/M M M
;
_chemical_formula_sum "Si O2"
_cell_formula_units_Z 108
_cell_length_a 18.093667
_cell_length_b 18.093667
_cell_length_c 22.805210
_cell_angle_alpha 90.000000
_cell_angle_beta 90.000000
_cell_angle_gamma 120.000000
_cell_volume 6465.734894
_symmetry_space_group_name_H-M "P 6/M M M"
_symmetry_group_IT_number 191
_symmetry_cell_setting 'hexagonal'
loop_
_space_group_symop_operation_xyz
x,y,z
x-y,x,z
-y,x-y,z
-x,-y,z
-x+y,-x,z
y,-x+y,z
x-y,-y,-z
-x,-x+y,-z
y,x,-z
-y,-x,-z
-x+y,y,-z
x,x-y,-z
-x,-y,-z
-x+y,-x,-z
y,-x+y,-z
x,y,-z
x-y,x,-z
-y,x-y,-z
-x+y,y,z
x,x-y,z
-y,-x,z
y,x,z
x-y,-y,z
-x,-x+y,z
loop_
_atom_site_type_symbol
_atom_site_label
_atom_site_fract_x
_atom_site_fract_y
_atom_site_fract_z
Si Si1 0.101129 0.465021 0.145652
Si Si2 0.099024 0.900977 0.071435
Si Si3 0.167530 0.669293 0.500000
Si Si4 0.397478 0.198739 0.929943
Si Si5 0.533685 0.897840 0.624133
Si Si6 0.732828 0.100626 0.262369
O O1 0.127821 0.563911 0.149495
O O2 0.150139 0.443251 0.096686
O O3 0.113645 0.428822 0.207140
O O4 0.000000 0.412874 0.133194
O O5 0.148699 0.851302 0.088975
O O6 0.000000 0.850941 0.090484
O O7 0.098349 0.901652 0.000000
O O8 0.268403 0.731598 0.500000
O O9 0.141685 0.570843 0.500000
O O10 0.133090 0.682165 0.561571
O O11 0.399825 0.199913 0.000000
O O12 0.432602 0.865204 0.631732
O O13 0.574809 0.877351 0.679121
O O14 0.580345 0.000000 0.621829
O O15 0.833188 0.166813 0.257068
O O16 0.702732 0.000000 0.264023
#
# Coordination Sequence:
#
# PCOD9587109 Si02
#       6
#    24  12  12  12  24  24
#     4  10  21  38  58  78 102 134 173 215 258 305
#     4   9  17  30  51  80 112 142 171 206 251 307
#     4  10  18  27  39  61  98 137 171 205 247 296
#     4  11  22  37  56  79 106 137 174 213 260 319
#     4   9  17  29  47  70  97 132 172 212 253 298
#     4  10  19  34  56  79 102 131 170 213 256 304
#
# _framework density 16.703438999999999
#
# number of rings (size 3 to 8) (size 9 to 14) (size 15 to 20)
#    0.000    2.222    1.111    2.556    0.000    6.222 
#    0.667    1.111    0.000    2.000    0.000    0.000 
#    0.000    0.000    0.000    0.000    0.000   23.111 
#
# Total GULP energy -602017.759231 kJ/mol
# GULP energy per Si atom -5574.238511 kJ/mol
# Density = 1.666542 g / cm^3
# Si number density = 16.703439 Si / 1000 Ang^3
#
#
#
# Elastic Constant Matrix: (Units=GPa)
#
#
# Indices 1 2 3 4 5 6 
#
# 1 88.1347 57.5763 44.0241 0.0000 0.0000 0.0000
# 2 57.5763 88.1347 44.0241 0.0000 0.0000 0.0000
# 3 44.0241 44.0241 107.2198 0.0000 0.0000 0.0000
# 4 0.0000 0.0000 0.0000 17.5538 0.0000 0.0000
# 5 0.0000 0.0000 0.0000 0.0000 17.5538 0.0000
# 6 0.0000 0.0000 0.0000 0.0000 0.0000 15.2792
#
#
#
# Elastic Compliance Matrix: (Units=1/GPa)
#
#
# Indices 1 2 3 4 5 6 
#
# 1 0.020926 -0.011798 -0.003748 0.000000 0.000000 0.000000
# 2 -0.011798 0.020926 -0.003748 0.000000 0.000000 0.000000
# 3 -0.003748 -0.003748 0.012404 0.000000 0.000000 0.000000
# 4 0.000000 0.000000 0.000000 0.056968 0.000000 0.000000
# 5 0.000000 0.000000 0.000000 0.000000 0.056968 0.000000
# 6 0.000000 0.000000 0.000000 0.000000 0.000000 0.065448
#
#
# Mechanical properties :
#
#
# Convention : Reuss Voigt Hill
#
# Bulk Modulus (GPa) = 63.82286 63.85982 63.84134
# Shear Modulus (GPa) = 18.02125 19.26835 18.64480
#
# Velocity S-wave (km/s) = 3.28822 3.40009 3.34462
# Velocity P-wave (km/s) = 7.26009 7.32998 7.29512
#
# Compressibility (1/GPa) = 0.01566837
#
# Stress axis : x y z
#
# Youngs Moduli (GPa) = 47.78773 47.78773 80.61754
#
# Poissons Ratio (x) = 0.56382 0.30213
# Poissons Ratio (y) = 0.56382 0.30213
# Poissons Ratio (z) = 0.17910 0.17910
#
# Static dielectric constant tensor:
#      x y z
#    x 1.557260 0.000000 0.000000 
#    y 0.000000 1.557260 0.000000 
#    z 0.000000 0.000000 1.575280 
# 
# From -- ./inp_files/7350.got.cif
#   From: 2010.05.17/outbox.cif.g08.bks.cpg/sg191_4_cif.got.tgz:7350.got - 2010.05.20 12:20:32.
