data_PCOD9587555
_publ_section_title
;
Structure prediction by ZEFSAII (Michael W. Deem and Ramdas Pophale) SiO2 
 PCOD9587555
Probable space group: P 6/M M M
;
_chemical_formula_sum "Si O2"
_cell_formula_units_Z 132
_cell_length_a 18.141276
_cell_length_b 18.141276
_cell_length_c 27.571394
_cell_angle_alpha 90.000000
_cell_angle_beta 90.000000
_cell_angle_gamma 120.000000
_cell_volume 7858.235096
_symmetry_space_group_name_H-M "P 6/M M M"
_symmetry_group_IT_number 191
_symmetry_cell_setting 'hexagonal'
loop_
_space_group_symop_operation_xyz
x,y,z
x-y,x,z
-y,x-y,z
-x,-y,z
-x+y,-x,z
y,-x+y,z
x-y,-y,-z
-x,-x+y,-z
y,x,-z
-y,-x,-z
-x+y,y,-z
x,x-y,-z
-x,-y,-z
-x+y,-x,-z
y,-x+y,-z
x,y,-z
x-y,x,-z
-y,x-y,-z
-x+y,y,z
x,x-y,z
-y,-x,z
y,x,z
x-y,-y,z
-x,-x+y,z
loop_
_atom_site_type_symbol
_atom_site_label
_atom_site_fract_x
_atom_site_fract_y
_atom_site_fract_z
Si Si1 0.332438 0.492154 0.000000
Si Si2 0.829810 0.829810 0.440988
Si Si3 0.492725 0.330580 0.609769
Si Si4 0.902675 0.269544 0.908996
Si Si5 0.163433 0.668709 0.178724
Si Si6 0.000000 0.658053 0.441868
Si Si7 0.459275 0.096922 0.284607
O O1 0.314967 0.433102 0.953037
O O2 0.425243 0.574758 0.000000
O O3 0.259258 0.518516 0.000000
O O4 0.914663 0.829325 0.424947
O O5 0.831386 0.831386 0.500000
O O6 0.744155 0.744155 0.426940
O O7 0.499220 0.249610 0.593641
O O8 0.583361 0.416640 0.606375
O O9 0.423108 0.340071 0.579245
O O10 0.463485 0.318641 0.666106
O O11 0.829980 0.170021 0.910768
O O12 0.888167 0.308676 0.859774
O O13 0.000000 0.292406 0.912385
O O14 0.147313 0.573657 0.172385
O O15 0.262499 0.737502 0.170852
O O16 0.139031 0.678580 0.233570
O O17 0.000000 0.654561 0.500000
O O18 0.546939 0.093877 0.284691
O O19 0.383417 0.000000 0.286715
#
# Coordination Sequence:
#
# PCOD9587555 Si02
#       7
#    12  12  24  24  24  12  24
#     4  10  20  33  50  73 106 146 185 218 250 293
#     4   9  17  31  53  81 109 135 165 203 248 297
#     4  11  22  37  56  78 104 136 175 217 260 306
#     4  10  21  35  51  73 100 134 174 220 270 317
#     4  10  19  30  47  73 107 143 178 214 253 298
#     4  11  23  39  57  77 105 139 171 206 253 309
#     4   9  17  31  50  72  99 133 171 212 256 301
#
# _framework density 16.797664999999999
#
# number of rings (size 3 to 8) (size 9 to 14) (size 15 to 20)
#    0.000    2.000    0.909    3.273    0.000    4.727 
#    0.000    3.636    0.000    1.273    0.000    0.000 
#    0.000    2.182    0.000    0.000    0.000    0.000 
#
# Total GULP energy -736488.071014 kJ/mol
# GULP energy per Si atom -5579.455083 kJ/mol
# Density = 1.675943 g / cm^3
# Si number density = 16.797665 Si / 1000 Ang^3
#
#
#
# Elastic Constant Matrix: (Units=GPa)
#
#
# Indices 1 2 3 4 5 6 
#
# 1 119.2279 76.4807 40.4494 0.0000 0.0000 0.0000
# 2 76.4807 119.2279 40.4494 0.0000 0.0000 0.0000
# 3 40.4494 40.4494 88.6965 0.0000 0.0000 0.0000
# 4 0.0000 0.0000 0.0000 19.7323 0.0000 0.0000
# 5 0.0000 0.0000 0.0000 0.0000 19.7323 0.0000
# 6 0.0000 0.0000 0.0000 0.0000 0.0000 21.3736
#
#
#
# Elastic Compliance Matrix: (Units=1/GPa)
#
#
# Indices 1 2 3 4 5 6 
#
# 1 0.014845 -0.008548 -0.002872 0.000000 0.000000 0.000000
# 2 -0.008548 0.014845 -0.002872 0.000000 0.000000 0.000000
# 3 -0.002872 -0.002872 0.013893 0.000000 0.000000 0.000000
# 4 0.000000 0.000000 0.000000 0.050678 0.000000 0.000000
# 5 0.000000 0.000000 0.000000 0.000000 0.050678 0.000000
# 6 0.000000 0.000000 0.000000 0.000000 0.000000 0.046787
#
#
# Mechanical properties :
#
#
# Convention : Reuss Voigt Hill
#
# Bulk Modulus (GPa) = 66.66395 71.32347 68.99371
# Shear Modulus (GPa) = 22.19164 23.48581 22.83872
#
# Velocity S-wave (km/s) = 3.63866 3.74325 3.69133
# Velocity P-wave (km/s) = 7.57797 7.82529 7.70262
#
# Compressibility (1/GPa) = 0.01500061
#
# Stress axis : x y z
#
# Youngs Moduli (GPa) = 67.36275 67.36275 71.97620
#
# Poissons Ratio (x) = 0.57584 0.20668
# Poissons Ratio (y) = 0.57584 0.20668
# Poissons Ratio (z) = 0.19343 0.19343
#
# Static dielectric constant tensor:
#      x y z
#    x 1.555180 0.000000 0.000000 
#    y 0.000000 1.555180 0.000000 
#    z 0.000000 0.000000 1.574210 
# 
# From -- ./inp_files/8747.got.cif
#   From: 2010.05.17/outbox.cif.g08.bks.cpg/sg191_5_cif.got.tgz:8747.got - 2010.05.20 12:20:32.
