data_PCOD9587088
_publ_section_title
;
Structure prediction by ZEFSAII (Michael W. Deem and Ramdas Pophale) SiO2 
 PCOD9587088
Probable space group: P 6/M M M
;
_chemical_formula_sum "Si O2"
_cell_formula_units_Z 144
_cell_length_a 19.307685
_cell_length_b 19.307685
_cell_length_c 30.194035
_cell_angle_alpha 90.000000
_cell_angle_beta 90.000000
_cell_angle_gamma 120.000000
_cell_volume 9747.925367
_symmetry_space_group_name_H-M "P 6/M M M"
_symmetry_group_IT_number 191
_symmetry_cell_setting 'hexagonal'
loop_
_space_group_symop_operation_xyz
x,y,z
x-y,x,z
-y,x-y,z
-x,-y,z
-x+y,-x,z
y,-x+y,z
x-y,-y,-z
-x,-x+y,-z
y,x,-z
-y,-x,-z
-x+y,y,-z
x,x-y,-z
-x,-y,-z
-x+y,-x,-z
y,-x+y,-z
x,y,-z
x-y,x,-z
-y,x-y,-z
-x+y,y,z
x,x-y,z
-y,-x,z
y,x,z
x-y,-y,z
-x,-x+y,z
loop_
_atom_site_type_symbol
_atom_site_label
_atom_site_fract_x
_atom_site_fract_y
_atom_site_fract_z
Si Si1 0.658647 0.908764 0.053339
Si Si2 0.530901 0.903982 0.617159
Si Si3 0.827838 0.495864 0.895090
Si Si4 0.538809 0.628874 0.196735
Si Si5 0.830757 0.332196 0.712121
Si Si6 0.092755 0.342478 0.552627
O O1 0.679527 0.839764 0.066466
O O2 0.571516 0.881183 0.073708
O O3 0.720914 0.000000 0.066784
O O4 0.653363 0.907298 0.000000
O O5 0.438073 0.876145 0.607388
O O6 0.535928 0.871621 0.665325
O O7 0.577415 0.883538 0.580293
O O8 0.576615 0.000000 0.619530
O O9 0.735939 0.471877 0.901840
O O10 0.839942 0.419971 0.902249
O O11 0.853406 0.526364 0.844675
O O12 0.456401 0.543600 0.198871
O O13 0.608726 0.608726 0.188273
O O14 0.546988 0.668457 0.244432
O O15 0.826724 0.413362 0.714333
O O16 0.743315 0.256686 0.713365
O O17 0.096119 0.358630 0.500000
O O18 0.157594 0.315188 0.562137
O O19 0.000000 0.278638 0.563233
#
# Coordination Sequence:
#
# PCOD9587088 Si02
#       6
#    24  24  24  24  24  24
#     4   9  18  32  49  68  89 114 144 178 217 260
#     4   9  17  28  42  60  81 106 137 172 207 244
#     4  10  19  30  44  63  88 117 149 183 217 253
#     4   9  17  28  41  56  75 102 137 177 217 253
#     4  10  18  27  39  55  77 104 134 168 207 251
#     4   9  17  29  45  64  85 109 138 172 210 253
#
# _framework density 14.772373
#
# number of rings (size 3 to 8) (size 9 to 14) (size 15 to 20)
#    0.000    2.667    0.000    2.333    0.000    3.667 
#    0.000    4.167    0.000    1.667    0.000    2.333 
#    0.000    0.000    0.000    0.000    0.000    0.000 
#
# Total GULP energy -801694.570149 kJ/mol
# GULP energy per Si atom -5567.323404 kJ/mol
# Density = 1.473875 g / cm^3
# Si number density = 14.772373 Si / 1000 Ang^3
#
#
#
# Elastic Constant Matrix: (Units=GPa)
#
#
# Indices 1 2 3 4 5 6 
#
# 1 65.6460 43.0884 29.4173 0.0000 0.0000 0.0000
# 2 43.0884 65.6460 29.4173 0.0000 0.0000 0.0000
# 3 29.4173 29.4173 37.1699 0.0000 0.0000 0.0000
# 4 0.0000 0.0000 0.0000 19.1116 0.0000 0.0000
# 5 0.0000 0.0000 0.0000 0.0000 19.1116 0.0000
# 6 0.0000 0.0000 0.0000 0.0000 0.0000 11.2788
#
#
#
# Elastic Compliance Matrix: (Units=1/GPa)
#
#
# Indices 1 2 3 4 5 6 
#
# 1 0.030208 -0.014123 -0.012730 0.000000 0.000000 0.000000
# 2 -0.014123 0.030208 -0.012730 0.000000 0.000000 0.000000
# 3 -0.012730 -0.012730 0.047053 0.000000 0.000000 0.000000
# 4 0.000000 0.000000 0.000000 0.052324 0.000000 0.000000
# 5 0.000000 0.000000 0.000000 0.000000 0.052324 0.000000
# 6 0.000000 0.000000 0.000000 0.000000 0.000000 0.088662
#
#
# Mechanical properties :
#
#
# Convention : Reuss Voigt Hill
#
# Bulk Modulus (GPa) = 35.33201 41.36752 38.34977
# Shear Modulus (GPa) = 12.84096 14.33631 13.58864
#
# Velocity S-wave (km/s) = 2.95151 3.11863 3.03622
# Velocity P-wave (km/s) = 5.96530 6.40562 6.18937
#
# Compressibility (1/GPa) = 0.02830294
#
# Stress axis : x y z
#
# Youngs Moduli (GPa) = 33.10402 33.10402 21.25267
#
# Poissons Ratio (x) = 0.46753 0.27054
# Poissons Ratio (y) = 0.46753 0.27054
# Poissons Ratio (z) = 0.42141 0.42141
#
# Static dielectric constant tensor:
#      x y z
#    x 1.485280 0.000000 0.000000 
#    y 0.000000 1.485280 0.000000 
#    z 0.000000 0.000000 1.494660 
# 
# From -- ./inp_files/9948.got.cif
#   From: 2010.05.17/outbox.cif.g08.bks.cpg/sg191_5_cif.got.tgz:9948.got - 2010.05.20 12:20:32.
