data_PCOD9587433
_publ_section_title
;
Structure prediction by ZEFSAII (Michael W. Deem and Ramdas Pophale) SiO2 
 PCOD9587433
Probable space group: P 6/M M M
;
_chemical_formula_sum "Si O2"
_cell_formula_units_Z 108
_cell_length_a 18.627462
_cell_length_b 18.627462
_cell_length_c 23.286300
_cell_angle_alpha 90.000000
_cell_angle_beta 90.000000
_cell_angle_gamma 120.000000
_cell_volume 6997.428864
_symmetry_space_group_name_H-M "P 6/M M M"
_symmetry_group_IT_number 191
_symmetry_cell_setting 'hexagonal'
loop_
_space_group_symop_operation_xyz
x,y,z
x-y,x,z
-y,x-y,z
-x,-y,z
-x+y,-x,z
y,-x+y,z
x-y,-y,-z
-x,-x+y,-z
y,x,-z
-y,-x,-z
-x+y,y,-z
x,x-y,-z
-x,-y,-z
-x+y,-x,-z
y,-x+y,-z
x,y,-z
x-y,x,-z
-y,x-y,-z
-x+y,y,z
x,x-y,z
-y,-x,z
y,x,z
x-y,-y,z
-x,-x+y,z
loop_
_atom_site_type_symbol
_atom_site_label
_atom_site_fract_x
_atom_site_fract_y
_atom_site_fract_z
Si Si1 0.331888 0.498138 0.844015
Si Si2 0.832960 0.331473 0.402687
Si Si3 0.903932 0.265861 0.500000
Si Si4 0.634112 0.539580 0.720936
Si Si5 0.647945 0.906256 0.067305
O O1 0.262046 0.524091 0.850450
O O2 0.422702 0.577299 0.849490
O O3 0.323004 0.459524 0.780581
O O4 0.313864 0.429556 0.891904
O O5 0.847265 0.423633 0.411819
O O6 0.737034 0.262967 0.412446
O O7 0.885654 0.308266 0.445479
O O8 0.857117 0.324384 0.337291
O O9 0.831618 0.168383 0.500000
O O10 0.000000 0.289946 0.500000
O O11 0.546009 0.453992 0.722615
O O12 0.613094 0.613094 0.717973
O O13 0.673196 0.836598 0.078385
O O14 0.719154 0.000000 0.077778
O O15 0.624227 0.899486 0.000000
#
# Coordination Sequence:
#
# PCOD9587433 Si02
#       5
#    24  24  12  24  24
#     4  10  19  30  44  63  89 121 156 192 228 265
#     4  10  19  30  45  66  94 127 160 190 220 258
#     4  10  21  35  51  70  91 117 148 186 231 275
#     4   9  17  28  42  60  83 115 156 198 233 263
#     4   9  18  32  49  68  89 114 144 179 221 268
#
# _framework density 15.434240000000001
#
# number of rings (size 3 to 8) (size 9 to 14) (size 15 to 20)
#    0.000    2.444    0.000    2.778    0.000    3.556 
#    0.000    4.444    0.000    1.667    0.000    1.556 
#    0.000    0.000    0.000    0.000    0.000   46.222 
#
# Total GULP energy -601816.892276 kJ/mol
# GULP energy per Si atom -5572.378632 kJ/mol
# Density = 1.539911 g / cm^3
# Si number density = 15.434240 Si / 1000 Ang^3
#
#
#
# Elastic Constant Matrix: (Units=GPa)
#
#
# Indices 1 2 3 4 5 6 
#
# 1 73.9948 54.8742 41.8082 0.0000 0.0000 0.0000
# 2 54.8742 73.9948 41.8082 0.0000 0.0000 0.0000
# 3 41.8082 41.8082 82.5013 0.0000 0.0000 0.0000
# 4 0.0000 0.0000 0.0000 19.8001 0.0000 0.0000
# 5 0.0000 0.0000 0.0000 0.0000 19.8001 0.0000
# 6 0.0000 0.0000 0.0000 0.0000 0.0000 9.5603
#
#
#
# Elastic Compliance Matrix: (Units=1/GPa)
#
#
# Indices 1 2 3 4 5 6 
#
# 1 0.031930 -0.020369 -0.005859 0.000000 0.000000 0.000000
# 2 -0.020369 0.031930 -0.005859 0.000000 0.000000 0.000000
# 3 -0.005859 -0.005859 0.018059 0.000000 0.000000 0.000000
# 4 0.000000 0.000000 0.000000 0.050505 0.000000 0.000000
# 5 0.000000 0.000000 0.000000 0.000000 0.050505 0.000000
# 6 0.000000 0.000000 0.000000 0.000000 0.000000 0.104599
#
#
# Mechanical properties :
#
#
# Convention : Reuss Voigt Hill
#
# Bulk Modulus (GPa) = 56.34933 56.38581 56.36757
# Shear Modulus (GPa) = 13.98143 15.96544 14.97344
#
# Velocity S-wave (km/s) = 3.01303 3.21972 3.11809
# Velocity P-wave (km/s) = 6.97804 7.10172 7.04015
#
# Compressibility (1/GPa) = 0.01774644
#
# Stress axis : x y z
#
# Youngs Moduli (GPa) = 31.31814 31.31814 55.37406
#
# Poissons Ratio (x) = 0.63792 0.32442
# Poissons Ratio (y) = 0.63792 0.32442
# Poissons Ratio (z) = 0.18349 0.18349
#
# Static dielectric constant tensor:
#      x y z
#    x 1.505160 0.000000 0.000000 
#    y 0.000000 1.505160 0.000000 
#    z 0.000000 0.000000 1.524500 
# 
# From -- ./inp_files/6128.got.cif
#   From: 2010.05.17/outbox.cif.g08.bks.cpg/sg191_4_cif.got.tgz:6128.got - 2010.05.20 12:20:32.
