data_PCOD9587121
_publ_section_title
;
Structure prediction by ZEFSAII (Michael W. Deem and Ramdas Pophale) SiO2 
 PCOD9587121
Probable space group: P 6/M M M
;
_chemical_formula_sum "Si O2"
_cell_formula_units_Z 108
_cell_length_a 26.832536
_cell_length_b 26.832536
_cell_length_c 11.928409
_cell_angle_alpha 90.000000
_cell_angle_beta 90.000000
_cell_angle_gamma 120.000000
_cell_volume 7437.664682
_symmetry_space_group_name_H-M "P 6/M M M"
_symmetry_group_IT_number 191
_symmetry_cell_setting 'hexagonal'
loop_
_space_group_symop_operation_xyz
x,y,z
x-y,x,z
-y,x-y,z
-x,-y,z
-x+y,-x,z
y,-x+y,z
x-y,-y,-z
-x,-x+y,-z
y,x,-z
-y,-x,-z
-x+y,y,-z
x,x-y,-z
-x,-y,-z
-x+y,-x,-z
y,-x+y,-z
x,y,-z
x-y,x,-z
-y,x-y,-z
-x+y,y,z
x,x-y,z
-y,-x,z
y,x,z
x-y,-y,z
-x,-x+y,z
loop_
_atom_site_type_symbol
_atom_site_label
_atom_site_fract_x
_atom_site_fract_y
_atom_site_fract_z
Si Si1 0.070008 0.432894 0.748692
Si Si2 0.069731 0.534866 0.127910
Si Si3 0.306350 0.210750 0.500000
Si Si4 0.875956 0.239464 0.866128
Si Si5 0.659788 0.590780 0.500000
Si Si6 0.179439 0.244425 0.737718
O O1 0.085996 0.492384 0.808867
O O2 0.101758 0.402157 0.806118
O O3 0.086051 0.442378 0.617350
O O4 0.000000 0.391052 0.757751
O O5 0.000000 0.500000 0.125258
O O6 0.090506 0.545253 0.000000
O O7 0.324797 0.162399 0.500000
O O8 0.361499 0.273325 0.500000
O O9 0.269614 0.200450 0.387571
O O10 0.810027 0.189974 0.839695
O O11 0.914769 0.213379 0.820485
O O12 0.881226 0.246901 0.000000
O O13 0.625690 0.625690 0.500000
O O14 0.112421 0.224841 0.745454
O O15 0.196446 0.196446 0.760646
#
# Coordination Sequence:
#
# PCOD9587121 Si02
#       6
#    24  12  12  24  12  24
#     4  10  19  30  46  65  90 122 152 184 219 261
#     4   9  18  31  45  63  87 120 159 185 207 249
#     4  10  18  28  44  65  90 118 149 185 225 276
#     4  10  20  31  44  65  91 118 150 188 231 278
#     4  10  18  27  42  64  88 116 149 180 219 263
#     4  10  19  30  45  64  87 116 151 191 235 285
#
# _framework density 14.520687000000001
#
# number of rings (size 3 to 8) (size 9 to 14) (size 15 to 20)
#    0.000    2.111    2.222    2.333    0.000    3.111 
#    0.000    2.222    0.000    0.222    0.000    0.000 
#    1.111    2.667    1.333    5.556    1.556    0.000 
#
# Total GULP energy -602091.216513 kJ/mol
# GULP energy per Si atom -5574.918671 kJ/mol
# Density = 1.448764 g / cm^3
# Si number density = 14.520687 Si / 1000 Ang^3
#
#
#
# Elastic Constant Matrix: (Units=GPa)
#
#
# Indices 1 2 3 4 5 6 
#
# 1 84.3159 53.0515 54.5019 0.0000 0.0000 0.0000
# 2 53.0515 84.3159 54.5019 0.0000 0.0000 0.0000
# 3 54.5019 54.5019 112.9917 0.0000 0.0000 0.0000
# 4 0.0000 0.0000 0.0000 11.5387 0.0000 0.0000
# 5 0.0000 0.0000 0.0000 0.0000 11.5387 0.0000
# 6 0.0000 0.0000 0.0000 0.0000 0.0000 15.6322
#
#
#
# Elastic Compliance Matrix: (Units=1/GPa)
#
#
# Indices 1 2 3 4 5 6 
#
# 1 0.021890 -0.010096 -0.005689 0.000000 0.000000 0.000000
# 2 -0.010096 0.021890 -0.005689 0.000000 0.000000 0.000000
# 3 -0.005689 -0.005689 0.014338 0.000000 0.000000 0.000000
# 4 0.000000 0.000000 0.000000 0.086665 0.000000 0.000000
# 5 0.000000 0.000000 0.000000 0.000000 0.086665 0.000000
# 6 0.000000 0.000000 0.000000 0.000000 0.000000 0.063970
#
#
# Mechanical properties :
#
#
# Convention : Reuss Voigt Hill
#
# Bulk Modulus (GPa) = 65.91612 67.30377 66.60994
# Shear Modulus (GPa) = 14.55938 15.71315 15.13626
#
# Velocity S-wave (km/s) = 3.16992 3.29313 3.23211
# Velocity P-wave (km/s) = 7.67405 7.80452 7.73956
#
# Compressibility (1/GPa) = 0.01517080
#
# Stress axis : x y z
#
# Youngs Moduli (GPa) = 45.68380 45.68380 69.74345
#
# Poissons Ratio (x) = 0.46121 0.39676
# Poissons Ratio (y) = 0.46121 0.39676
# Poissons Ratio (z) = 0.25989 0.25989
#
# Static dielectric constant tensor:
#      x y z
#    x 1.460010 0.000000 0.000000 
#    y 0.000000 1.460010 0.000000 
#    z 0.000000 0.000000 1.505830 
# 
# From -- ./inp_files/3006.got.cif
#   From: 2010.05.17/outbox.cif.g08.bks.cpg/sg191_2_cif.got.tgz:3006.got - 2010.05.20 12:20:32.
