data_PCOD9587181
_publ_section_title
;
Structure prediction by ZEFSAII (Michael W. Deem and Ramdas Pophale) SiO2 
 PCOD9587181
Probable space group: P 6/M M M
;
_chemical_formula_sum "Si O2"
_cell_formula_units_Z 168
_cell_length_a 22.156328
_cell_length_b 22.156328
_cell_length_c 24.145682
_cell_angle_alpha 90.000000
_cell_angle_beta 90.000000
_cell_angle_gamma 120.000000
_cell_volume 10265.158982
_symmetry_space_group_name_H-M "P 6/M M M"
_symmetry_group_IT_number 191
_symmetry_cell_setting 'hexagonal'
loop_
_space_group_symop_operation_xyz
x,y,z
x-y,x,z
-y,x-y,z
-x,-y,z
-x+y,-x,z
y,-x+y,z
x-y,-y,-z
-x,-x+y,-z
y,x,-z
-y,-x,-z
-x+y,y,-z
x,x-y,-z
-x,-y,-z
-x+y,-x,-z
y,-x+y,-z
x,y,-z
x-y,x,-z
-y,x-y,-z
-x+y,y,z
x,x-y,z
-y,-x,z
y,x,z
x-y,-y,z
-x,-x+y,z
loop_
_atom_site_type_symbol
_atom_site_label
_atom_site_fract_x
_atom_site_fract_y
_atom_site_fract_z
Si Si1 0.476782 0.665838 0.630461
Si Si2 0.524057 0.333280 0.936878
Si Si3 0.850694 0.288524 0.828875
Si Si4 0.707790 0.920615 0.777215
Si Si5 0.920062 0.387920 0.727678
Si Si6 0.702927 0.920738 0.350086
Si Si7 0.327496 0.920995 0.436042
O O1 0.481061 0.740531 0.631678
O O2 0.397347 0.602654 0.633327
O O3 0.519763 0.655962 0.680544
O O4 0.516460 0.657131 0.577773
O O5 0.542261 0.271131 0.934107
O O6 0.593196 0.406805 0.926087
O O7 0.466779 0.315828 0.889835
O O8 0.500623 0.333785 0.000000
O O9 0.770701 0.229299 0.814595
O O10 0.894542 0.249496 0.820423
O O11 0.886127 0.350947 0.785349
O O12 0.738180 0.869090 0.780309
O O13 0.678015 0.912424 0.714222
O O14 0.762945 0.000000 0.785668
O O15 0.925325 0.462663 0.726078
O O16 0.000000 0.404243 0.720488
O O17 0.722454 0.861227 0.359715
O O18 0.645311 0.912169 0.394375
O O19 0.765342 0.000000 0.354874
O O20 0.306467 0.917079 0.500000
O O21 0.391602 0.000000 0.426593
#
# Coordination Sequence:
#
# PCOD9587181 Si02
#       7
#    24  24  24  24  24  24  24
#     4  11  23  38  54  72  96 124 153 187 231 284
#     4   9  17  29  45  65  91 126 168 209 243 274
#     4  10  18  28  45  69  96 124 155 193 237 282
#     4   9  17  29  47  70  94 120 149 184 226 273
#     4  10  20  33  50  70  92 121 157 197 237 276
#     4   9  17  30  49  73 100 128 159 196 238 282
#     4  10  21  36  54  74  94 119 154 197 239 276
#
# _framework density 16.366039000000001
#
# number of rings (size 3 to 8) (size 9 to 14) (size 15 to 20)
#    0.000    2.286    0.000    3.286    0.000    5.143 
#    0.000    0.714    0.000    7.429    0.000    7.000 
#    0.000    0.000    0.000    3.571    0.000    3.714 
#
# Total GULP energy -936289.847722 kJ/mol
# GULP energy per Si atom -5573.153855 kJ/mol
# Density = 1.632879 g / cm^3
# Si number density = 16.366039 Si / 1000 Ang^3
#
#
#
# Elastic Constant Matrix: (Units=GPa)
#
#
# Indices 1 2 3 4 5 6 
#
# 1 96.4562 61.6457 52.4714 0.0000 0.0000 0.0000
# 2 61.6457 96.4562 52.4714 0.0000 0.0000 0.0000
# 3 52.4714 52.4714 97.6906 0.0000 0.0000 0.0000
# 4 0.0000 0.0000 0.0000 18.3950 0.0000 0.0000
# 5 0.0000 0.0000 0.0000 0.0000 18.3950 0.0000
# 6 0.0000 0.0000 0.0000 0.0000 0.0000 17.4052
#
#
#
# Elastic Compliance Matrix: (Units=1/GPa)
#
#
# Indices 1 2 3 4 5 6 
#
# 1 0.019278 -0.009449 -0.005280 0.000000 0.000000 0.000000
# 2 -0.009449 0.019278 -0.005280 0.000000 0.000000 0.000000
# 3 -0.005280 -0.005280 0.015908 0.000000 0.000000 0.000000
# 4 0.000000 0.000000 0.000000 0.054363 0.000000 0.000000
# 5 0.000000 0.000000 0.000000 0.000000 0.054363 0.000000
# 6 0.000000 0.000000 0.000000 0.000000 0.000000 0.057454
#
#
# Mechanical properties :
#
#
# Convention : Reuss Voigt Hill
#
# Bulk Modulus (GPa) = 69.21134 69.30890 69.26012
# Shear Modulus (GPa) = 18.83412 19.10667 18.97039
#
# Velocity S-wave (km/s) = 3.39603 3.42052 3.40830
# Velocity P-wave (km/s) = 7.59992 7.61847 7.60920
#
# Compressibility (1/GPa) = 0.01444850
#
# Stress axis : x y z
#
# Youngs Moduli (GPa) = 51.87197 51.87197 62.86184
#
# Poissons Ratio (x) = 0.49013 0.33188
# Poissons Ratio (y) = 0.49013 0.33188
# Poissons Ratio (z) = 0.27386 0.27386
#
# Static dielectric constant tensor:
#      x y z
#    x 1.555650 0.000000 0.000000 
#    y 0.000000 1.555650 0.000000 
#    z 0.000000 0.000000 1.561000 
# 
# From -- ./inp_files/8971.got.cif
#   From: 2010.05.17/outbox.cif.g08.bks.cpg/sg191_5_cif.got.tgz:8971.got - 2010.05.20 12:20:32.
