data_PCOD9587243
_publ_section_title
;
Structure prediction by ZEFSAII (Michael W. Deem and Ramdas Pophale) SiO2 
 PCOD9587243
Probable space group: P 6/M M M
;
_chemical_formula_sum "Si O2"
_cell_formula_units_Z 108
_cell_length_a 21.324881
_cell_length_b 21.324881
_cell_length_c 17.818882
_cell_angle_alpha 90.000000
_cell_angle_beta 90.000000
_cell_angle_gamma 120.000000
_cell_volume 7017.530619
_symmetry_space_group_name_H-M "P 6/M M M"
_symmetry_group_IT_number 191
_symmetry_cell_setting 'hexagonal'
loop_
_space_group_symop_operation_xyz
x,y,z
x-y,x,z
-y,x-y,z
-x,-y,z
-x+y,-x,z
y,-x+y,z
x-y,-y,-z
-x,-x+y,-z
y,x,-z
-y,-x,-z
-x+y,y,-z
x,x-y,-z
-x,-y,-z
-x+y,-x,-z
y,-x+y,-z
x,y,-z
x-y,x,-z
-y,x-y,-z
-x+y,y,z
x,x-y,z
-y,-x,z
y,x,z
x-y,-y,z
-x,-x+y,z
loop_
_atom_site_type_symbol
_atom_site_label
_atom_site_fract_x
_atom_site_fract_y
_atom_site_fract_z
Si Si1 0.484857 0.666844 0.500000
Si Si2 0.382368 0.916650 0.644071
Si Si3 0.553190 0.917652 0.911854
Si Si4 0.294925 0.078004 0.090131
Si Si5 0.478200 0.664541 0.220577
O O1 0.402688 0.597313 0.500000
O O2 0.483259 0.741630 0.500000
O O3 0.525397 0.658238 0.572427
O O4 0.460525 0.921049 0.645436
O O5 0.341705 0.872477 0.718436
O O6 0.401144 0.000000 0.640996
O O7 0.626924 0.914734 0.901839
O O8 0.497011 0.856014 0.858112
O O9 0.574393 0.000000 0.892045
O O10 0.533805 0.906776 0.000000
O O11 0.292617 0.146309 0.121916
O O12 0.236041 0.000000 0.120579
O O13 0.284217 0.076765 0.000000
O O14 0.486522 0.743261 0.217862
O O15 0.396014 0.603987 0.241294
#
# Coordination Sequence:
#
# PCOD9587243 Si02
#       5
#    12  24  24  24  24
#     4  10  18  29  47  71  98 123 148 180 223 276
#     4   9  18  32  49  67  87 115 151 188 222 258
#     4   9  18  32  49  66  82 106 145 191 233 272
#     4   8  13  22  37  56  76  98 127 164 205 247
#     4  11  22  34  47  64  89 118 147 182 229 284
#
# _framework density 15.390029999999999
#
# number of rings (size 3 to 8) (size 9 to 14) (size 15 to 20)
#    0.000    2.667    0.000    4.000    0.000    4.444 
#    0.000    3.333    0.000    1.556    0.000    1.556 
#    0.000    0.000    0.000    0.000    0.000    0.000 
#
# Total GULP energy -601611.551997 kJ/mol
# GULP energy per Si atom -5570.477333 kJ/mol
# Density = 1.535500 g / cm^3
# Si number density = 15.390030 Si / 1000 Ang^3
#
#
#
# Elastic Constant Matrix: (Units=GPa)
#
#
# Indices 1 2 3 4 5 6 
#
# 1 54.2303 97.0539 35.7821 0.0000 0.0000 0.0000
# 2 97.0539 54.2303 35.7821 0.0000 0.0000 0.0000
# 3 35.7821 35.7821 65.0333 0.0000 0.0000 0.0000
# 4 0.0000 0.0000 0.0000 14.6271 0.0000 0.0000
# 5 0.0000 0.0000 0.0000 0.0000 14.6271 0.0000
# 6 0.0000 0.0000 0.0000 0.0000 0.0000 -21.4118
#
#
#
# Elastic Compliance Matrix: (Units=1/GPa)
#
#
# Indices 1 2 3 4 5 6 
#
# 1 -0.007208 0.016144 -0.004917 0.000000 0.000000 0.000000
# 2 0.016144 -0.007208 -0.004917 0.000000 0.000000 0.000000
# 3 -0.004917 -0.004917 0.020787 0.000000 0.000000 0.000000
# 4 0.000000 0.000000 0.000000 0.068366 0.000000 0.000000
# 5 0.000000 0.000000 0.000000 0.000000 0.068366 0.000000
# 6 0.000000 0.000000 0.000000 0.000000 0.000000 -0.046703
#
#
# Mechanical properties :
#
#
# Convention : Reuss Voigt Hill
#
# Bulk Modulus (GPa) = 52.65276 56.74778 54.70027
# Shear Modulus (GPa) = 55.48742 1.89352 28.69047
#
# Velocity S-wave (km/s) = 6.01102 1.11042 4.32235
# Velocity P-wave (km/s) = 9.08092 6.21266 7.78011
#
# Compressibility (1/GPa) = 0.01899236
#
# Stress axis : x y z
#
# Youngs Moduli (GPa) = -138.73737 -138.73737 48.10677
#
# Poissons Ratio (x) = 2.23974 0.23652
# Poissons Ratio (y) = 2.23974 0.23652
# Poissons Ratio (z) = -0.68212 -0.68212
#
# Static dielectric constant tensor:
#      x y z
#    x 1.522810 0.000000 0.000000 
#    y 0.000000 1.522810 0.000000 
#    z 0.000000 0.000000 1.528720 
# 
# From -- ./inp_files/6109.got.cif
#   From: 2010.05.17/outbox.cif.g08.bks.cpg/sg191_4_cif.got.tgz:6109.got - 2010.05.20 12:20:32.
