data_PCOD9587288
_publ_section_title
;
Structure prediction by ZEFSAII (Michael W. Deem and Ramdas Pophale) SiO2 
 PCOD9587288
Probable space group: P 6/M M M
;
_chemical_formula_sum "Si O2"
_cell_formula_units_Z 132
_cell_length_a 18.218451
_cell_length_b 18.218451
_cell_length_c 28.219878
_cell_angle_alpha 90.000000
_cell_angle_beta 90.000000
_cell_angle_gamma 120.000000
_cell_volume 8111.639873
_symmetry_space_group_name_H-M "P 6/M M M"
_symmetry_group_IT_number 191
_symmetry_cell_setting 'hexagonal'
loop_
_space_group_symop_operation_xyz
x,y,z
x-y,x,z
-y,x-y,z
-x,-y,z
-x+y,-x,z
y,-x+y,z
x-y,-y,-z
-x,-x+y,-z
y,x,-z
-y,-x,-z
-x+y,y,-z
x,x-y,-z
-x,-y,-z
-x+y,-x,-z
y,-x+y,-z
x,y,-z
x-y,x,-z
-y,x-y,-z
-x+y,y,z
x,x-y,z
-y,-x,z
y,x,z
x-y,-y,z
-x,-x+y,z
loop_
_atom_site_type_symbol
_atom_site_label
_atom_site_fract_x
_atom_site_fract_y
_atom_site_fract_z
Si Si1 0.635394 0.535811 0.383947
Si Si2 0.097790 0.902211 0.442397
Si Si3 0.331158 0.495158 0.282663
Si Si4 0.507921 0.667489 0.000000
Si Si5 0.196999 0.803002 0.556737
Si Si6 0.898569 0.365077 0.819022
Si Si7 0.900032 0.631547 0.089109
O O1 0.563179 0.436822 0.386642
O O2 0.589037 0.589037 0.393264
O O3 0.671394 0.554136 0.330196
O O4 0.710111 0.561352 0.420739
O O5 0.096423 0.903578 0.500000
O O6 0.147218 0.852783 0.429435
O O7 0.000000 0.852662 0.426475
O O8 0.261766 0.523532 0.288265
O O9 0.425095 0.574905 0.280798
O O10 0.319281 0.452642 0.231486
O O11 0.567067 0.684254 0.045772
O O12 0.424793 0.575208 0.000000
O O13 0.483307 0.741654 0.000000
O O14 0.199669 0.800332 0.500000
O O15 0.866606 0.433303 0.826347
O O16 0.879022 0.302936 0.862956
O O17 0.000000 0.420172 0.816126
O O18 0.831548 0.663096 0.084355
O O19 0.000000 0.702178 0.089598
#
# Coordination Sequence:
#
# PCOD9587288 Si02
#       7
#    24  12  24  12  12  24  24
#     4  10  21  37  55  74  99 133 170 206 248 296
#     4   9  17  30  51  78 106 132 158 193 241 298
#     4  10  18  30  48  71  98 129 164 203 247 291
#     4  10  20  33  50  73 104 142 177 208 244 291
#     4  11  22  37  54  77 102 130 165 207 248 291
#     4   9  17  29  47  72 101 131 164 203 247 298
#     4  10  20  33  49  71  99 133 174 218 261 304
#
# _framework density 16.272912000000002
#
# number of rings (size 3 to 8) (size 9 to 14) (size 15 to 20)
#    0.000    2.182    0.909    2.818    0.000    5.455 
#    0.545    0.909    0.000    6.000    0.000    0.000 
#    0.000    2.182    0.000    0.000    0.000    0.000 
#
# Total GULP energy -735672.030037 kJ/mol
# GULP energy per Si atom -5573.272955 kJ/mol
# Density = 1.623587 g / cm^3
# Si number density = 16.272912 Si / 1000 Ang^3
#
#
#
# Elastic Constant Matrix: (Units=GPa)
#
#
# Indices 1 2 3 4 5 6 
#
# 1 74.2806 40.8707 49.5106 0.0000 0.0000 0.0000
# 2 40.8707 74.2806 49.5106 0.0000 0.0000 0.0000
# 3 49.5106 49.5106 113.5755 0.0000 0.0000 0.0000
# 4 0.0000 0.0000 0.0000 -19.5972 0.0000 0.0000
# 5 0.0000 0.0000 0.0000 0.0000 -19.5972 0.0000
# 6 0.0000 0.0000 0.0000 0.0000 0.0000 16.7050
#
#
#
# Elastic Compliance Matrix: (Units=1/GPa)
#
#
# Indices 1 2 3 4 5 6 
#
# 1 0.021911 -0.008020 -0.006056 0.000000 0.000000 0.000000
# 2 -0.008020 0.021911 -0.006056 0.000000 0.000000 0.000000
# 3 -0.006056 -0.006056 0.014084 0.000000 0.000000 0.000000
# 4 0.000000 0.000000 0.000000 -0.051028 0.000000 0.000000
# 5 0.000000 0.000000 0.000000 0.000000 -0.051028 0.000000
# 6 0.000000 0.000000 0.000000 0.000000 0.000000 0.059862
#
#
# Mechanical properties :
#
#
# Convention : Reuss Voigt Hill
#
# Bulk Modulus (GPa) = 56.67386 60.21339 58.44363
# Shear Modulus (GPa) = 80.82915 3.65175 42.24045
#
# Velocity S-wave (km/s) = 7.05541 1.49965 5.10038
# Velocity P-wave (km/s) = 10.06352 6.33097 8.40701
#
# Compressibility (1/GPa) = 0.01764482
#
# Stress axis : x y z
#
# Youngs Moduli (GPa) = 45.63817 45.63817 71.00024
#
# Poissons Ratio (x) = 0.36601 0.42996
# Poissons Ratio (y) = 0.36601 0.42996
# Poissons Ratio (z) = 0.27637 0.27637
#
# Static dielectric constant tensor:
#      x y z
#    x 1.534450 0.000000 0.000000 
#    y 0.000000 1.534450 0.000000 
#    z 0.000000 0.000000 1.558170 
# 
# From -- ./inp_files/9873.got.cif
#   From: 2010.05.17/outbox.cif.g08.bks.cpg/sg191_5_cif.got.tgz:9873.got - 2010.05.20 12:20:32.
