data_PCOD9587719
_publ_section_title
;
Structure prediction by ZEFSAII (Michael W. Deem and Ramdas Pophale) SiO2 
 PCOD9587719
Probable space group: P 6/M M M
;
_chemical_formula_sum "Si O2"
_cell_formula_units_Z 120
_cell_length_a 24.471888
_cell_length_b 24.471888
_cell_length_c 13.033245
_cell_angle_alpha 90.000000
_cell_angle_beta 90.000000
_cell_angle_gamma 120.000000
_cell_volume 6759.555585
_symmetry_space_group_name_H-M "P 6/M M M"
_symmetry_group_IT_number 191
_symmetry_cell_setting 'hexagonal'
loop_
_space_group_symop_operation_xyz
x,y,z
x-y,x,z
-y,x-y,z
-x,-y,z
-x+y,-x,z
y,-x+y,z
x-y,-y,-z
-x,-x+y,-z
y,x,-z
-y,-x,-z
-x+y,y,-z
x,x-y,-z
-x,-y,-z
-x+y,-x,-z
y,-x+y,-z
x,y,-z
x-y,x,-z
-y,x-y,-z
-x+y,y,z
x,x-y,z
-y,-x,z
y,x,z
x-y,-y,z
-x,-x+y,z
loop_
_atom_site_type_symbol
_atom_site_label
_atom_site_fract_x
_atom_site_fract_y
_atom_site_fract_z
Si Si1 0.452732 0.666416 0.824821
Si Si2 0.000000 0.560411 0.877454
Si Si3 0.276481 0.200951 0.500000
Si Si4 0.075057 0.363478 0.678492
Si Si5 0.631603 0.140220 0.616615
Si Si6 0.414827 0.113756 0.884690
O O1 0.425131 0.712566 0.834632
O O2 0.403242 0.596759 0.862837
O O3 0.467691 0.660206 0.705771
O O4 0.519276 0.697074 0.881197
O O5 0.061412 0.626776 0.855849
O O6 0.000000 0.500000 0.830928
O O7 0.000000 0.554531 0.000000
O O8 0.224616 0.224616 0.500000
O O9 0.252891 0.126446 0.500000
O O10 0.322235 0.233930 0.597729
O O11 0.097013 0.433705 0.635065
O O12 0.108520 0.371769 0.788826
O O13 0.000000 0.327079 0.693419
O O14 0.647252 0.164597 0.500000
O O15 0.555365 0.110730 0.626623
O O16 0.388049 0.101637 0.000000
#
# Coordination Sequence:
#
# PCOD9587719 Si02
#       6
#    24  12  12  24  24  24
#     4  10  21  35  49  65  88 122 168 223 278 329
#     4   9  16  28  48  69  93 131 173 218 271 318
#     4  10  22  40  63  88 117 149 183 217 257 317
#     4  10  19  33  52  80 110 141 179 213 257 310
#     4   9  18  32  47  68  99 133 173 219 269 322
#     4  10  20  34  51  73 102 133 173 220 265 320
#
# _framework density 17.752647
#
# number of rings (size 3 to 8) (size 9 to 14) (size 15 to 20)
#    0.000    2.300    2.000    0.800    0.000    6.400 
#    0.000    1.000    0.000    2.500    0.000    0.000 
#    0.000    0.000    0.000    0.000    0.000    0.000 
#
# Total GULP energy -668652.017302 kJ/mol
# GULP energy per Si atom -5572.100144 kJ/mol
# Density = 1.771224 g / cm^3
# Si number density = 17.752647 Si / 1000 Ang^3
#
#
#
# Elastic Constant Matrix: (Units=GPa)
#
#
# Indices 1 2 3 4 5 6 
#
# 1 104.0403 -14.9191 15.2636 0.0000 0.0000 0.0000
# 2 -14.9191 104.0403 15.2636 0.0000 0.0000 0.0000
# 3 15.2636 15.2636 114.6161 0.0000 0.0000 0.0000
# 4 0.0000 0.0000 0.0000 3.3777 0.0000 0.0000
# 5 0.0000 0.0000 0.0000 0.0000 3.3777 0.0000
# 6 0.0000 0.0000 0.0000 0.0000 0.0000 59.4797
#
#
#
# Elastic Compliance Matrix: (Units=1/GPa)
#
#
# Indices 1 2 3 4 5 6 
#
# 1 0.010082 0.001675 -0.001566 0.000000 0.000000 0.000000
# 2 0.001675 0.010082 -0.001566 0.000000 0.000000 0.000000
# 3 -0.001566 -0.001566 0.009142 0.000000 0.000000 0.000000
# 4 0.000000 0.000000 0.000000 0.296060 0.000000 0.000000
# 5 0.000000 0.000000 0.000000 0.000000 0.296060 0.000000
# 6 0.000000 0.000000 0.000000 0.000000 0.000000 0.016812
#
#
# Mechanical properties :
#
#
# Convention : Reuss Voigt Hill
#
# Bulk Modulus (GPa) = 37.88886 39.32364 38.60625
# Shear Modulus (GPa) = 7.69292 33.71959 20.70626
#
# Velocity S-wave (km/s) = 2.08394 4.36295 3.41893
# Velocity P-wave (km/s) = 5.21339 6.89778 6.11387
#
# Compressibility (1/GPa) = 0.02639298
#
# Stress axis : x y z
#
# Youngs Moduli (GPa) = 99.19055 99.19055 109.38779
#
# Poissons Ratio (x) = -0.16618 0.17127
# Poissons Ratio (y) = -0.16618 0.17127
# Poissons Ratio (z) = 0.15530 0.15530
#
# Static dielectric constant tensor:
#      x y z
#    x 1.617210 0.000000 0.000000 
#    y 0.000000 1.617210 0.000000 
#    z 0.000000 0.000000 1.654830 
# 
# From -- ./inp_files/4824.got.cif
#   From: 2010.05.17/outbox.cif.g08.bks.cpg/sg191_3_cif.got.tgz:4824.got - 2010.05.20 12:20:32.
