data_PCOD9587366
_publ_section_title
;
Structure prediction by ZEFSAII (Michael W. Deem and Ramdas Pophale) SiO2 
 PCOD9587366
Probable space group: P 6/M M M
;
_chemical_formula_sum "Si O2"
_cell_formula_units_Z 180
_cell_length_a 21.626893
_cell_length_b 21.626893
_cell_length_c 31.701128
_cell_angle_alpha 90.000000
_cell_angle_beta 90.000000
_cell_angle_gamma 120.000000
_cell_volume 12840.845201
_symmetry_space_group_name_H-M "P 6/M M M"
_symmetry_group_IT_number 191
_symmetry_cell_setting 'hexagonal'
loop_
_space_group_symop_operation_xyz
x,y,z
x-y,x,z
-y,x-y,z
-x,-y,z
-x+y,-x,z
y,-x+y,z
x-y,-y,-z
-x,-x+y,-z
y,x,-z
-y,-x,-z
-x+y,y,-z
x,x-y,-z
-x,-y,-z
-x+y,-x,-z
y,-x+y,-z
x,y,-z
x-y,x,-z
-y,x-y,-z
-x+y,y,z
x,x-y,z
-y,-x,z
y,x,z
x-y,-y,z
-x,-x+y,z
loop_
_atom_site_type_symbol
_atom_site_label
_atom_site_fract_x
_atom_site_fract_y
_atom_site_fract_z
Si Si1 0.334680 0.522464 0.824369
Si Si2 0.566309 0.855805 0.258762
Si Si3 0.467590 0.082639 0.340890
Si Si4 0.080227 0.300589 0.199139
Si Si5 0.917834 0.695264 0.949962
Si Si6 0.184015 0.666552 0.579119
Si Si7 0.917753 0.602305 0.878117
Si Si8 0.383666 0.466706 0.500000
O O1 0.257498 0.514995 0.828388
O O2 0.396877 0.603124 0.825553
O O3 0.334294 0.487539 0.779176
O O4 0.342543 0.476465 0.861480
O O5 0.554169 0.777085 0.268806
O O6 0.556275 0.893273 0.299151
O O7 0.644337 0.900375 0.237820
O O8 0.542782 0.085564 0.332876
O O9 0.482827 0.138591 0.378402
O O10 0.411680 0.000000 0.352241
O O11 0.138194 0.276388 0.197616
O O12 0.088092 0.346710 0.157313
O O13 0.000000 0.238284 0.202044
O O14 0.859074 0.718148 0.940441
O O15 0.900020 0.626118 0.922227
O O16 0.000000 0.753579 0.939510
O O17 0.914662 0.681169 0.000000
O O18 0.198175 0.599088 0.576622
O O19 0.258548 0.741453 0.577784
O O20 0.130540 0.656804 0.540767
O O21 0.000000 0.622763 0.879013
O O22 0.403090 0.403090 0.500000
O O23 0.460725 0.539276 0.500000
#
# Coordination Sequence:
#
# PCOD9587366 Si02
#       8
#    24  24  24  24  24  24  24  12
#     4  10  19  30  44  62  85 111 137 166 203 249
#     4   9  17  29  43  59  80 105 135 170 204 239
#     4  10  19  29  41  58  81 108 137 168 204 244
#     4   9  16  26  41  59  79 103 130 162 198 235
#     4   9  16  26  42  63  85 108 134 166 204 244
#     4  10  19  30  44  61  81 106 136 170 206 243
#     4   9  17  29  44  62  82 103 132 169 204 236
#     4   9  17  30  46  62  80 101 128 164 206 246
#
# _framework density 14.017768999999999
#
# number of rings (size 3 to 8) (size 9 to 14) (size 15 to 20)
#    0.000    2.600    0.000    4.067    0.000    2.400 
#    0.000    0.667    0.000    4.933    0.000    2.800 
#    0.000    4.267    0.000    0.133    0.000    0.000 
#
# Total GULP energy -1002658.609048 kJ/mol
# GULP energy per Si atom -5570.325606 kJ/mol
# Density = 1.398586 g / cm^3
# Si number density = 14.017769 Si / 1000 Ang^3
#
#
#
# Elastic Constant Matrix: (Units=GPa)
#
#
# Indices 1 2 3 4 5 6 
#
# 1 46.3215 11.7316 13.5346 0.0000 0.0000 0.0000
# 2 11.7316 46.3215 13.5346 0.0000 0.0000 0.0000
# 3 13.5346 13.5346 45.1402 0.0000 0.0000 0.0000
# 4 0.0000 0.0000 0.0000 16.8638 0.0000 0.0000
# 5 0.0000 0.0000 0.0000 0.0000 16.8638 0.0000
# 6 0.0000 0.0000 0.0000 0.0000 0.0000 17.2949
#
#
#
# Elastic Compliance Matrix: (Units=1/GPa)
#
#
# Indices 1 2 3 4 5 6 
#
# 1 0.024468 -0.004442 -0.006004 0.000000 0.000000 0.000000
# 2 -0.004442 0.024468 -0.006004 0.000000 0.000000 0.000000
# 3 -0.006004 -0.006004 0.025754 0.000000 0.000000 0.000000
# 4 0.000000 0.000000 0.000000 0.059299 0.000000 0.000000
# 5 0.000000 0.000000 0.000000 0.000000 0.059299 0.000000
# 6 0.000000 0.000000 0.000000 0.000000 0.000000 0.057820
#
#
# Mechanical properties :
#
#
# Convention : Reuss Voigt Hill
#
# Bulk Modulus (GPa) = 23.93073 23.93165 23.93119
# Shear Modulus (GPa) = 16.78199 16.80330 16.79264
#
# Velocity S-wave (km/s) = 3.46380 3.46600 3.46490
# Velocity P-wave (km/s) = 5.75378 5.75560 5.75469
#
# Compressibility (1/GPa) = 0.04178727
#
# Stress axis : x y z
#
# Youngs Moduli (GPa) = 40.87008 40.87008 38.82920
#
# Poissons Ratio (x) = 0.18156 0.23314
# Poissons Ratio (y) = 0.18156 0.23314
# Poissons Ratio (z) = 0.24540 0.24540
#
# Static dielectric constant tensor:
#      x y z
#    x 1.452170 0.000000 0.000000 
#    y 0.000000 1.452170 0.000000 
#    z 0.000000 0.000000 1.466100 
# 
# From -- ./inp_files/10863.got.cif
#   From: 2010.05.17/outbox.cif.g08.bks.cpg/sg191_6_cif.got.tgz:10863.got - 2010.05.20 12:20:32.
