data_PCOD9587795
_publ_section_title
;
Structure prediction by ZEFSAII (Michael W. Deem and Ramdas Pophale) SiO2 
 PCOD9587795
Probable space group: P 6/M M M
;
_chemical_formula_sum "Si O2"
_cell_formula_units_Z 120
_cell_length_a 22.647209
_cell_length_b 22.647209
_cell_length_c 18.138704
_cell_angle_alpha 90.000000
_cell_angle_beta 90.000000
_cell_angle_gamma 120.000000
_cell_volume 8056.868241
_symmetry_space_group_name_H-M "P 6/M M M"
_symmetry_group_IT_number 191
_symmetry_cell_setting 'hexagonal'
loop_
_space_group_symop_operation_xyz
x,y,z
x-y,x,z
-y,x-y,z
-x,-y,z
-x+y,-x,z
y,-x+y,z
x-y,-y,-z
-x,-x+y,-z
y,x,-z
-y,-x,-z
-x+y,y,-z
x,x-y,-z
-x,-y,-z
-x+y,-x,-z
y,-x+y,-z
x,y,-z
x-y,x,-z
-y,x-y,-z
-x+y,y,z
x,x-y,z
-y,-x,z
y,x,z
x-y,-y,z
-x,-x+y,z
loop_
_atom_site_type_symbol
_atom_site_label
_atom_site_fract_x
_atom_site_fract_y
_atom_site_fract_z
Si Si1 0.418864 0.079697 0.692606
Si Si2 0.745105 0.116318 0.918349
Si Si3 0.666817 0.472509 0.588234
Si Si4 0.708537 0.785189 0.232367
Si Si5 0.606909 0.081672 0.852573
O O1 0.466139 0.132036 0.631081
O O2 0.354708 0.088570 0.715762
O O3 0.462843 0.093136 0.767283
O O4 0.387692 0.000000 0.672507
O O5 0.806232 0.193769 0.916008
O O6 0.760663 0.080085 0.850938
O O7 0.673807 0.112230 0.901930
O O8 0.744349 0.088757 0.000000
O O9 0.667322 0.482221 0.500000
O O10 0.734686 0.469372 0.607412
O O11 0.598897 0.401104 0.606112
O O12 0.724397 0.862199 0.241245
O O13 0.769342 0.769342 0.245766
O O14 0.553015 0.106030 0.867718
O O15 0.567772 0.000000 0.863597
#
# Coordination Sequence:
#
# PCOD9587795 Si02
#       5
#    24  24  24  24  24
#     4   9  17  30  47  65  85 108 137 175 216 255
#     4   9  17  28  41  58  81 108 138 172 208 246
#     4  10  20  32  45  61  84 115 148 180 213 251
#     4   9  17  29  46  66  87 112 139 168 204 246
#     4   9  17  28  42  60  81 104 130 165 209 252
#
# _framework density 14.894124
#
# number of rings (size 3 to 8) (size 9 to 14) (size 15 to 20)
#    0.000    2.800    0.000    3.200    0.000    5.200 
#    0.000    2.000    0.000    0.600    0.000    0.000 
#    0.000    0.000    0.000    5.000    0.000    0.000 
#
# Total GULP energy -668539.208614 kJ/mol
# GULP energy per Si atom -5571.160072 kJ/mol
# Density = 1.486022 g / cm^3
# Si number density = 14.894124 Si / 1000 Ang^3
#
#
#
# Elastic Constant Matrix: (Units=GPa)
#
#
# Indices 1 2 3 4 5 6 
#
# 1 90.9144 53.0085 37.6912 0.0000 0.0000 0.0000
# 2 53.0085 90.9144 37.6912 0.0000 0.0000 0.0000
# 3 37.6912 37.6912 50.6565 0.0000 0.0000 0.0000
# 4 0.0000 0.0000 0.0000 12.0269 0.0000 0.0000
# 5 0.0000 0.0000 0.0000 0.0000 12.0269 0.0000
# 6 0.0000 0.0000 0.0000 0.0000 0.0000 18.9529
#
#
#
# Elastic Compliance Matrix: (Units=1/GPa)
#
#
# Indices 1 2 3 4 5 6 
#
# 1 0.018883 -0.007498 -0.008471 0.000000 0.000000 0.000000
# 2 -0.007498 0.018883 -0.008471 0.000000 0.000000 0.000000
# 3 -0.008471 -0.008471 0.032347 0.000000 0.000000 0.000000
# 4 0.000000 0.000000 0.000000 0.083147 0.000000 0.000000
# 5 0.000000 0.000000 0.000000 0.000000 0.083147 0.000000
# 6 0.000000 0.000000 0.000000 0.000000 0.000000 0.052762
#
#
# Mechanical properties :
#
#
# Convention : Reuss Voigt Hill
#
# Bulk Modulus (GPa) = 47.09778 54.36301 50.73040
# Shear Modulus (GPa) = 14.48741 15.54096 15.01418
#
# Velocity S-wave (km/s) = 3.12219 3.23372 3.17844
# Velocity P-wave (km/s) = 6.68489 7.10785 6.89961
#
# Compressibility (1/GPa) = 0.02123242
#
# Stress axis : x y z
#
# Youngs Moduli (GPa) = 52.95735 52.95735 30.91497
#
# Poissons Ratio (x) = 0.39708 0.26189
# Poissons Ratio (y) = 0.39708 0.26189
# Poissons Ratio (z) = 0.44861 0.44861
#
# Static dielectric constant tensor:
#      x y z
#    x 1.485600 0.000000 0.000000 
#    y 0.000000 1.485600 0.000000 
#    z 0.000000 0.000000 1.498400 
# 
# From -- ./inp_files/4664.got.cif
#   From: 2010.05.17/outbox.cif.g08.bks.cpg/sg191_3_cif.got.tgz:4664.got - 2010.05.20 12:20:32.
