data_PCOD9587777
_publ_section_title
;
Structure prediction by ZEFSAII (Michael W. Deem and Ramdas Pophale) SiO2 
 PCOD9587777
Probable space group: P 6/M M M
;
_chemical_formula_sum "Si O2"
_cell_formula_units_Z 60
_cell_length_a 22.613490
_cell_length_b 22.613490
_cell_length_c 8.140434
_cell_angle_alpha 90.000000
_cell_angle_beta 90.000000
_cell_angle_gamma 120.000000
_cell_volume 3605.067311
_symmetry_space_group_name_H-M "P 6/M M M"
_symmetry_group_IT_number 191
_symmetry_cell_setting 'hexagonal'
loop_
_space_group_symop_operation_xyz
x,y,z
x-y,x,z
-y,x-y,z
-x,-y,z
-x+y,-x,z
y,-x+y,z
x-y,-y,-z
-x,-x+y,-z
y,x,-z
-y,-x,-z
-x+y,y,-z
x,x-y,-z
-x,-y,-z
-x+y,-x,-z
y,-x+y,-z
x,y,-z
x-y,x,-z
-y,x-y,-z
-x+y,y,z
x,x-y,z
-y,-x,z
y,x,z
x-y,-y,z
-x,-x+y,z
loop_
_atom_site_type_symbol
_atom_site_label
_atom_site_fract_x
_atom_site_fract_y
_atom_site_fract_z
Si Si1 0.922954 0.590729 0.196545
Si Si2 0.420479 0.710240 0.303014
Si Si3 0.575163 0.787582 0.195330
Si Si4 0.082968 0.541484 0.313791
O O1 0.863613 0.603411 0.263351
O O2 0.899721 0.511714 0.230105
O O3 0.000000 0.637531 0.262501
O O4 0.926433 0.599545 0.000000
O O5 0.370224 0.740448 0.262170
O O6 0.429993 0.714997 0.500000
O O7 0.493407 0.746704 0.220681
O O8 0.588044 0.794022 0.000000
O O9 0.108883 0.554442 0.500000
O O10 0.000000 0.500000 0.317193
#
# Coordination Sequence:
#
# PCOD9587777 Si02
#       4
#    24  12  12  12
#     4   9  18  32  46  61  83 107 134 171 210 248
#     4   8  18  33  43  56  80 108 133 167 212 246
#     4  10  20  30  45  65  80 105 141 169 207 254
#     4   9  17  28  43  62  82 106 137 169 201 243
#
# _framework density 16.643242000000001
#
# number of rings (size 3 to 8) (size 9 to 14) (size 15 to 20)
#    0.400    2.600    0.000    0.600    2.800    4.800 
#    0.000    0.000    0.000    0.000    0.000    0.000 
#    0.000    0.000    0.000    0.600    0.000   19.200 
#
# Total GULP energy -334201.688892 kJ/mol
# GULP energy per Si atom -5570.028148 kJ/mol
# Density = 1.660536 g / cm^3
# Si number density = 16.643242 Si / 1000 Ang^3
#
#
#
# Elastic Constant Matrix: (Units=GPa)
#
#
# Indices 1 2 3 4 5 6 
#
# 1 94.0528 57.3268 3.6036 0.0000 0.0000 0.0000
# 2 57.3268 94.0528 3.6036 0.0000 0.0000 0.0000
# 3 3.6036 3.6036 7.5433 0.0000 0.0000 0.0000
# 4 0.0000 0.0000 0.0000 1.2831 0.0000 0.0000
# 5 0.0000 0.0000 0.0000 0.0000 1.2831 0.0000
# 6 0.0000 0.0000 0.0000 0.0000 0.0000 18.3630
#
#
#
# Elastic Compliance Matrix: (Units=1/GPa)
#
#
# Indices 1 2 3 4 5 6 
#
# 1 0.016994 -0.010234 -0.003229 0.000000 0.000000 0.000000
# 2 -0.010234 0.016994 -0.003229 0.000000 0.000000 0.000000
# 3 -0.003229 -0.003229 0.135653 0.000000 0.000000 0.000000
# 4 0.000000 0.000000 0.000000 0.779387 0.000000 0.000000
# 5 0.000000 0.000000 0.000000 0.000000 0.779387 0.000000
# 6 0.000000 0.000000 0.000000 0.000000 0.000000 0.054457
#
#
# Mechanical properties :
#
#
# Convention : Reuss Voigt Hill
#
# Bulk Modulus (GPa) = 7.33916 36.07963 21.70939
# Shear Modulus (GPa) = 2.68575 12.92683 7.80629
#
# Velocity S-wave (km/s) = 1.27170 2.78996 2.16807
# Velocity P-wave (km/s) = 2.56429 5.66602 4.39769
#
# Compressibility (1/GPa) = 0.13625543
#
# Stress axis : x y z
#
# Youngs Moduli (GPa) = 58.84380 58.84380 7.37176
#
# Poissons Ratio (x) = 0.60224 0.02380
# Poissons Ratio (y) = 0.60224 0.02380
# Poissons Ratio (z) = 0.19002 0.19002
#
# Static dielectric constant tensor:
#      x y z
#    x 1.610040 0.000000 0.000000 
#    y 0.000000 1.610040 0.000000 
#    z 0.000000 0.000000 1.574380 
# 
# From -- ./inp_files/838.got.cif
#   From: 2010.05.17/outbox.cif.g08.bks.cpg/sg191_1_cif.got.tgz:838.got - 2010.05.20 12:20:32.
