data_PCOD9587052
_publ_section_title
;
Structure prediction by ZEFSAII (Michael W. Deem and Ramdas Pophale) SiO2 
 PCOD9587052
Probable space group: P 6/M M M
;
_chemical_formula_sum "Si O2"
_cell_formula_units_Z 120
_cell_length_a 29.110540
_cell_length_b 29.110540
_cell_length_c 12.081084
_cell_angle_alpha 90.000000
_cell_angle_beta 90.000000
_cell_angle_gamma 120.000000
_cell_volume 8866.190514
_symmetry_space_group_name_H-M "P 6/M M M"
_symmetry_group_IT_number 191
_symmetry_cell_setting 'hexagonal'
loop_
_space_group_symop_operation_xyz
x,y,z
x-y,x,z
-y,x-y,z
-x,-y,z
-x+y,-x,z
y,-x+y,z
x-y,-y,-z
-x,-x+y,-z
y,x,-z
-y,-x,-z
-x+y,y,-z
x,x-y,-z
-x,-y,-z
-x+y,-x,-z
y,-x+y,-z
x,y,-z
x-y,x,-z
-y,x-y,-z
-x+y,y,z
x,x-y,z
-y,-x,z
y,x,z
x-y,-y,z
-x,-x+y,z
loop_
_atom_site_type_symbol
_atom_site_label
_atom_site_fract_x
_atom_site_fract_y
_atom_site_fract_z
Si Si1 0.836091 0.059713 0.870831
Si Si2 0.886597 0.219100 0.746560
Si Si3 0.393618 0.063611 0.868928
Si Si4 0.367803 0.236803 0.500000
Si Si5 0.363721 0.427462 0.500000
Si Si6 0.480203 0.063743 0.270626
O O1 0.897124 0.102877 0.853601
O O2 0.801593 0.075759 0.794658
O O3 0.821195 0.000000 0.850519
O O4 0.823341 0.063810 0.000000
O O5 0.826606 0.173395 0.775831
O O6 0.904773 0.275397 0.802421
O O7 0.888922 0.224158 0.614024
O O8 0.451641 0.080089 0.822079
O O9 0.356064 0.000000 0.848283
O O10 0.393939 0.072055 0.000000
O O11 0.390849 0.195425 0.500000
O O12 0.404998 0.300650 0.500000
O O13 0.382233 0.382233 0.500000
O O14 0.389100 0.462558 0.390548
O O15 0.542697 0.085393 0.260795
O O16 0.451715 0.000000 0.261126
#
# Coordination Sequence:
#
# PCOD9587052 Si02
#       6
#    24  24  24  12  12  24
#     4   9  17  29  45  63  83 108 139 176 215 256
#     4  10  19  30  43  60  83 111 143 177 213 252
#     4  10  19  29  42  60  83 113 146 175 206 246
#     4  10  20  31  43  62  86 111 142 179 216 254
#     4  10  17  28  46  63  81 112 148 177 210 250
#     4   9  17  28  42  61  83 108 141 176 205 236
#
# _framework density 13.534561
#
# number of rings (size 3 to 8) (size 9 to 14) (size 15 to 20)
#    0.000    2.400    2.000    1.500    0.000    5.200 
#    0.000    2.000    0.000    0.200    0.000    1.400 
#    0.000    0.000    0.000    8.400    0.000   17.000 
#
# Total GULP energy -668030.343143 kJ/mol
# GULP energy per Si atom -5566.919526 kJ/mol
# Density = 1.350376 g / cm^3
# Si number density = 13.534561 Si / 1000 Ang^3
#
#
#
# Elastic Constant Matrix: (Units=GPa)
#
#
# Indices 1 2 3 4 5 6 
#
# 1 81.8976 48.8276 43.6976 0.0000 0.0000 0.0000
# 2 48.8276 81.8976 43.6976 0.0000 0.0000 0.0000
# 3 43.6976 43.6976 80.3056 0.0000 0.0000 0.0000
# 4 0.0000 0.0000 0.0000 14.1128 0.0000 0.0000
# 5 0.0000 0.0000 0.0000 0.0000 14.1128 0.0000
# 6 0.0000 0.0000 0.0000 0.0000 0.0000 16.5350
#
#
#
# Elastic Compliance Matrix: (Units=1/GPa)
#
#
# Indices 1 2 3 4 5 6 
#
# 1 0.021131 -0.009108 -0.006543 0.000000 0.000000 0.000000
# 2 -0.009108 0.021131 -0.006543 0.000000 0.000000 0.000000
# 3 -0.006543 -0.006543 0.019573 0.000000 0.000000 0.000000
# 4 0.000000 0.000000 0.000000 0.070858 0.000000 0.000000
# 5 0.000000 0.000000 0.000000 0.000000 0.070858 0.000000
# 6 0.000000 0.000000 0.000000 0.000000 0.000000 0.060478
#
#
# Mechanical properties :
#
#
# Convention : Reuss Voigt Hill
#
# Bulk Modulus (GPa) = 57.30792 57.39408 57.35100
# Shear Modulus (GPa) = 15.91190 16.14398 16.02794
#
# Velocity S-wave (km/s) = 3.43249 3.45744 3.44499
# Velocity P-wave (km/s) = 7.62517 7.64435 7.63477
#
# Compressibility (1/GPa) = 0.01744959
#
# Stress axis : x y z
#
# Youngs Moduli (GPa) = 47.32327 47.32327 51.09191
#
# Poissons Ratio (x) = 0.43100 0.33427
# Poissons Ratio (y) = 0.43100 0.33427
# Poissons Ratio (z) = 0.30961 0.30961
#
# Static dielectric constant tensor:
#      x y z
#    x 1.439290 0.000000 0.000000 
#    y 0.000000 1.439290 0.000000 
#    z 0.000000 0.000000 1.451240 
# 
# From -- ./inp_files/3218.got.cif
#   From: 2010.05.17/outbox.cif.g08.bks.cpg/sg191_2_cif.got.tgz:3218.got - 2010.05.20 12:20:32.
