data_PCOD9587233
_publ_section_title
;
Structure prediction by ZEFSAII (Michael W. Deem and Ramdas Pophale) SiO2 
 PCOD9587233
Probable space group: P 6/M M M
;
_chemical_formula_sum "Si O2"
_cell_formula_units_Z 144
_cell_length_a 22.666691
_cell_length_b 22.666691
_cell_length_c 20.505814
_cell_angle_alpha 90.000000
_cell_angle_beta 90.000000
_cell_angle_gamma 120.000000
_cell_volume 9123.970950
_symmetry_space_group_name_H-M "P 6/M M M"
_symmetry_group_IT_number 191
_symmetry_cell_setting 'hexagonal'
loop_
_space_group_symop_operation_xyz
x,y,z
x-y,x,z
-y,x-y,z
-x,-y,z
-x+y,-x,z
y,-x+y,z
x-y,-y,-z
-x,-x+y,-z
y,x,-z
-y,-x,-z
-x+y,y,-z
x,x-y,-z
-x,-y,-z
-x+y,-x,-z
y,-x+y,-z
x,y,-z
x-y,x,-z
-y,x-y,-z
-x+y,y,z
x,x-y,z
-y,-x,z
y,x,z
x-y,-y,z
-x,-x+y,z
loop_
_atom_site_type_symbol
_atom_site_label
_atom_site_fract_x
_atom_site_fract_y
_atom_site_fract_z
Si Si1 0.195742 0.665968 0.885580
Si Si2 0.666377 0.195461 0.272077
Si Si3 0.305643 0.920827 0.685467
Si Si4 0.289192 0.077463 0.422416
Si Si5 0.923778 0.214413 0.197188
Si Si6 0.380691 0.118881 0.928238
O O1 0.190526 0.595263 0.905200
O O2 0.270066 0.729935 0.902728
O O3 0.189590 0.666490 0.806869
O O4 0.138569 0.680234 0.914871
O O5 0.599218 0.198436 0.290061
O O6 0.734814 0.265187 0.289580
O O7 0.668347 0.131815 0.303133
O O8 0.264046 0.909133 0.618697
O O9 0.252581 0.910448 0.743188
O O10 0.364174 0.000000 0.688018
O O11 0.301588 0.080870 0.500000
O O12 0.270327 0.135164 0.405661
O O13 0.231475 0.000000 0.406520
O O14 0.863465 0.136536 0.195293
O O15 0.920325 0.251666 0.131306
O O16 0.000000 0.227985 0.204666
O O17 0.383365 0.191683 0.928284
O O18 0.358222 0.088042 0.000000
#
# Coordination Sequence:
#
# PCOD9587233 Si02
#       6
#    24  24  24  24  24  24
#     4   9  16  26  41  62  88 120 156 194 233 274
#     4  10  18  29  46  68  95 125 159 197 237 281
#     4  10  19  31  50  73  96 123 155 194 235 273
#     4   9  17  29  47  72 100 128 157 190 230 276
#     4  10  19  32  50  71  92 116 148 185 225 269
#     4   9  17  29  44  62  86 117 151 186 226 270
#
# _framework density 15.782601
#
# number of rings (size 3 to 8) (size 9 to 14) (size 15 to 20)
#    0.000    2.500    1.667    1.833    0.000    2.333 
#    0.000    0.000    0.000    2.333    0.000    4.667 
#    0.000    5.333    0.000    4.333    0.000    0.000 
#
# Total GULP energy -802578.764153 kJ/mol
# GULP energy per Si atom -5573.463640 kJ/mol
# Density = 1.574668 g / cm^3
# Si number density = 15.782601 Si / 1000 Ang^3
#
#
#
# Elastic Constant Matrix: (Units=GPa)
#
#
# Indices 1 2 3 4 5 6 
#
# 1 88.3742 57.7219 22.0769 0.0000 0.0000 0.0000
# 2 57.7219 88.3742 22.0769 0.0000 0.0000 0.0000
# 3 22.0769 22.0769 35.1054 0.0000 0.0000 0.0000
# 4 0.0000 0.0000 0.0000 13.0075 0.0000 0.0000
# 5 0.0000 0.0000 0.0000 0.0000 13.0075 0.0000
# 6 0.0000 0.0000 0.0000 0.0000 0.0000 15.3261
#
#
#
# Elastic Compliance Matrix: (Units=1/GPa)
#
#
# Indices 1 2 3 4 5 6 
#
# 1 0.020538 -0.012087 -0.005315 0.000000 0.000000 0.000000
# 2 -0.012087 0.020538 -0.005315 0.000000 0.000000 0.000000
# 3 -0.005315 -0.005315 0.035170 0.000000 0.000000 0.000000
# 4 0.000000 0.000000 0.000000 0.076879 0.000000 0.000000
# 5 0.000000 0.000000 0.000000 0.000000 0.076879 0.000000
# 6 0.000000 0.000000 0.000000 0.000000 0.000000 0.065248
#
#
# Mechanical properties :
#
#
# Convention : Reuss Voigt Hill
#
# Bulk Modulus (GPa) = 32.45319 46.17836 39.31578
# Shear Modulus (GPa) = 14.24692 15.60011 14.92352
#
# Velocity S-wave (km/s) = 3.00775 3.14735 3.07834
# Velocity P-wave (km/s) = 5.71571 6.52153 6.13187
#
# Compressibility (1/GPa) = 0.03081361
#
# Stress axis : x y z
#
# Youngs Moduli (GPa) = 48.69139 48.69139 28.43328
#
# Poissons Ratio (x) = 0.58851 0.15111
# Poissons Ratio (y) = 0.58851 0.15111
# Poissons Ratio (z) = 0.25878 0.25878
#
# Static dielectric constant tensor:
#      x y z
#    x 1.515870 0.000000 0.000000 
#    y 0.000000 1.515870 0.000000 
#    z 0.000000 0.000000 1.542880 
# 
# From -- ./inp_files/7596.got.cif
#   From: 2010.05.17/outbox.cif.g08.bks.cpg/sg191_4_cif.got.tgz:7596.got - 2010.05.20 12:20:32.
