data_PCOD9587407
_publ_section_title
;
Structure prediction by ZEFSAII (Michael W. Deem and Ramdas Pophale) SiO2 
 PCOD9587407
Probable space group: P 6/M M M
;
_chemical_formula_sum "Si O2"
_cell_formula_units_Z 108
_cell_length_a 18.331636
_cell_length_b 18.331636
_cell_length_c 22.765106
_cell_angle_alpha 90.000000
_cell_angle_beta 90.000000
_cell_angle_gamma 120.000000
_cell_volume 6625.257445
_symmetry_space_group_name_H-M "P 6/M M M"
_symmetry_group_IT_number 191
_symmetry_cell_setting 'hexagonal'
loop_
_space_group_symop_operation_xyz
x,y,z
x-y,x,z
-y,x-y,z
-x,-y,z
-x+y,-x,z
y,-x+y,z
x-y,-y,-z
-x,-x+y,-z
y,x,-z
-y,-x,-z
-x+y,y,-z
x,x-y,-z
-x,-y,-z
-x+y,-x,-z
y,-x+y,-z
x,y,-z
x-y,x,-z
-y,x-y,-z
-x+y,y,z
x,x-y,z
-y,-x,z
y,x,z
x-y,-y,z
-x,-x+y,z
loop_
_atom_site_type_symbol
_atom_site_label
_atom_site_fract_x
_atom_site_fract_y
_atom_site_fract_z
Si Si1 0.360697 0.265535 0.000000
Si Si2 0.097301 0.194601 0.571428
Si Si3 0.804224 0.608448 0.570408
Si Si4 0.898190 0.534891 0.643494
Si Si5 0.459799 0.363657 0.774468
Si Si6 0.166480 0.668890 0.099683
O O1 0.420828 0.308884 0.943781
O O2 0.285594 0.285594 0.000000
O O3 0.335827 0.167914 0.000000
O O4 0.146471 0.146471 0.590995
O O5 0.096160 0.192319 0.500000
O O6 0.146362 0.292723 0.587988
O O7 0.801941 0.603882 0.500000
O O8 0.853542 0.564269 0.597017
O O9 0.877314 0.438657 0.635653
O O10 0.872915 0.546333 0.709791
O O11 0.000000 0.591712 0.640008
O O12 0.546682 0.453319 0.771927
O O13 0.385847 0.385847 0.781697
O O14 0.467453 0.320310 0.832795
O O15 0.149071 0.574536 0.091520
O O16 0.263512 0.736489 0.086800
#
# Coordination Sequence:
#
# PCOD9587407 Si02
#       6
#    12  12  12  24  24  24
#     4  10  21  35  51  74 103 135 170 212 259 305
#     4   9  17  30  49  74 102 128 153 186 237 303
#     4  11  22  33  50  75 100 125 162 209 252 309
#     4   9  19  36  54  71  95 130 169 209 256 302
#     4   8  15  29  48  67  88 122 170 216 251 288
#     4  10  19  29  45  71 106 144 178 208 240 279
#
# _framework density 16.301252999999999
#
# number of rings (size 3 to 8) (size 9 to 14) (size 15 to 20)
#    0.000    2.667    0.000    3.333    1.556    4.000 
#    0.667    2.222    0.000    0.111    0.000    0.000 
#    0.000    0.000    0.000    0.000    0.000    0.000 
#
# Total GULP energy -601757.979043 kJ/mol
# GULP energy per Si atom -5571.833139 kJ/mol
# Density = 1.626415 g / cm^3
# Si number density = 16.301253 Si / 1000 Ang^3
#
#
#
# Elastic Constant Matrix: (Units=GPa)
#
#
# Indices 1 2 3 4 5 6 
#
# 1 85.2290 53.9235 40.9660 0.0000 0.0000 0.0000
# 2 53.9235 85.2290 40.9660 0.0000 0.0000 0.0000
# 3 40.9660 40.9660 91.4289 0.0000 0.0000 0.0000
# 4 0.0000 0.0000 0.0000 20.4908 0.0000 0.0000
# 5 0.0000 0.0000 0.0000 0.0000 20.4908 0.0000
# 6 0.0000 0.0000 0.0000 0.0000 0.0000 15.6527
#
#
#
# Elastic Compliance Matrix: (Units=1/GPa)
#
#
# Indices 1 2 3 4 5 6 
#
# 1 0.020852 -0.011091 -0.004374 0.000000 0.000000 0.000000
# 2 -0.011091 0.020852 -0.004374 0.000000 0.000000 0.000000
# 3 -0.004374 -0.004374 0.014857 0.000000 0.000000 0.000000
# 4 0.000000 0.000000 0.000000 0.048802 0.000000 0.000000
# 5 0.000000 0.000000 0.000000 0.000000 0.048802 0.000000
# 6 0.000000 0.000000 0.000000 0.000000 0.000000 0.063887
#
#
# Mechanical properties :
#
#
# Convention : Reuss Voigt Hill
#
# Bulk Modulus (GPa) = 59.22449 59.28865 59.25657
# Shear Modulus (GPa) = 18.98552 19.72897 19.35725
#
# Velocity S-wave (km/s) = 3.41642 3.48267 3.44971
# Velocity P-wave (km/s) = 7.20921 7.25407 7.23168
#
# Compressibility (1/GPa) = 0.01688491
#
# Stress axis : x y z
#
# Youngs Moduli (GPa) = 47.95589 47.95589 67.30846
#
# Poissons Ratio (x) = 0.53187 0.29440
# Poissons Ratio (y) = 0.53187 0.29440
# Poissons Ratio (z) = 0.20975 0.20975
#
# Static dielectric constant tensor:
#      x y z
#    x 1.539110 0.000000 0.000000 
#    y 0.000000 1.539110 0.000000 
#    z 0.000000 0.000000 1.563750 
# 
# From -- ./inp_files/8461.got.cif
#   From: 2010.05.17/outbox.cif.g08.bks.cpg/sg191_5_cif.got.tgz:8461.got - 2010.05.20 12:20:32.
