data_PCOD9587082
_publ_section_title
;
Structure prediction by ZEFSAII (Michael W. Deem and Ramdas Pophale) SiO2 
 PCOD9587082
Probable space group: P 6/M M M
;
_chemical_formula_sum "Si O2"
_cell_formula_units_Z 108
_cell_length_a 18.558783
_cell_length_b 18.558783
_cell_length_c 23.540303
_cell_angle_alpha 90.000000
_cell_angle_beta 90.000000
_cell_angle_gamma 120.000000
_cell_volume 7021.690257
_symmetry_space_group_name_H-M "P 6/M M M"
_symmetry_group_IT_number 191
_symmetry_cell_setting 'hexagonal'
loop_
_space_group_symop_operation_xyz
x,y,z
x-y,x,z
-y,x-y,z
-x,-y,z
-x+y,-x,z
y,-x+y,z
x-y,-y,-z
-x,-x+y,-z
y,x,-z
-y,-x,-z
-x+y,y,-z
x,x-y,-z
-x,-y,-z
-x+y,-x,-z
y,-x+y,-z
x,y,-z
x-y,x,-z
-y,x-y,-z
-x+y,y,z
x,x-y,z
-y,-x,z
y,x,z
x-y,-y,z
-x,-x+y,z
loop_
_atom_site_type_symbol
_atom_site_label
_atom_site_fract_x
_atom_site_fract_y
_atom_site_fract_z
Si Si1 0.501187 0.832582 0.759356
Si Si2 0.530798 0.899125 0.435357
Si Si3 0.359779 0.097572 0.665678
Si Si4 0.502207 0.669221 0.000000
Si Si5 0.094503 0.459891 0.880642
O O1 0.424359 0.848717 0.750846
O O2 0.473801 0.736901 0.747725
O O3 0.578332 0.887572 0.718266
O O4 0.530417 0.852827 0.824755
O O5 0.531989 0.871488 0.500000
O O6 0.435446 0.870892 0.419582
O O7 0.580832 0.878265 0.389739
O O8 0.578976 0.000000 0.436239
O O9 0.328534 0.164267 0.670913
O O10 0.290716 0.000000 0.662418
O O11 0.549926 0.677968 0.058733
O O12 0.422529 0.577472 0.000000
O O13 0.472869 0.736435 0.000000
O O14 0.094123 0.547062 0.883929
O O15 0.000000 0.388501 0.872222
#
# Coordination Sequence:
#
# PCOD9587082 Si02
#       5
#    24  24  24  12  24
#     4  10  19  30  45  66  92 119 146 177 215 261
#     4   8  14  26  45  68  92 117 145 176 211 255
#     4  10  20  32  47  67  90 117 150 189 230 271
#     4  10  18  27  39  55  76 101 132 174 223 268
#     4   9  17  28  41  56  76 106 143 178 210 250
#
# _framework density 15.380912
#
# number of rings (size 3 to 8) (size 9 to 14) (size 15 to 20)
#    0.000    2.667    0.000    3.333    0.000    4.000 
#    0.000    2.222    0.000    0.667    0.000    0.000 
#    0.000    0.000    0.000    5.556    0.000    0.000 
#
# Total GULP energy -601320.798693 kJ/mol
# GULP energy per Si atom -5567.785173 kJ/mol
# Density = 1.534590 g / cm^3
# Si number density = 15.380912 Si / 1000 Ang^3
#
#
#
# Elastic Constant Matrix: (Units=GPa)
#
#
# Indices 1 2 3 4 5 6 
#
# 1 57.0494 36.2097 28.1788 0.0000 0.0000 0.0000
# 2 36.2097 57.0494 28.1788 0.0000 0.0000 0.0000
# 3 28.1788 28.1788 76.8925 0.0000 0.0000 0.0000
# 4 0.0000 0.0000 0.0000 14.8866 0.0000 0.0000
# 5 0.0000 0.0000 0.0000 0.0000 14.8866 0.0000
# 6 0.0000 0.0000 0.0000 0.0000 0.0000 10.4199
#
#
#
# Elastic Compliance Matrix: (Units=1/GPa)
#
#
# Indices 1 2 3 4 5 6 
#
# 1 0.030879 -0.017106 -0.005047 0.000000 0.000000 0.000000
# 2 -0.017106 0.030879 -0.005047 0.000000 0.000000 0.000000
# 3 -0.005047 -0.005047 0.016705 0.000000 0.000000 0.000000
# 4 0.000000 0.000000 0.000000 0.067174 0.000000 0.000000
# 5 0.000000 0.000000 0.000000 0.000000 0.067174 0.000000
# 6 0.000000 0.000000 0.000000 0.000000 0.000000 0.095971
#
#
# Mechanical properties :
#
#
# Convention : Reuss Voigt Hill
#
# Bulk Modulus (GPa) = 41.56093 41.79175 41.67634
# Shear Modulus (GPa) = 13.46966 14.60022 14.03494
#
# Velocity S-wave (km/s) = 2.96250 3.08432 3.02402
# Velocity P-wave (km/s) = 6.22749 6.31777 6.27279
#
# Compressibility (1/GPa) = 0.02406106
#
# Stress axis : x y z
#
# Youngs Moduli (GPa) = 32.38429 32.38429 59.86372
#
# Poissons Ratio (x) = 0.55397 0.30216
# Poissons Ratio (y) = 0.55397 0.30216
# Poissons Ratio (z) = 0.16346 0.16346
#
# Static dielectric constant tensor:
#      x y z
#    x 1.504390 0.000000 0.000000 
#    y 0.000000 1.504390 0.000000 
#    z 0.000000 0.000000 1.545430 
# 
# From -- ./inp_files/8327.got.cif
#   From: 2010.05.17/outbox.cif.g08.bks.cpg/sg191_5_cif.got.tgz:8327.got - 2010.05.20 12:20:32.
