data_PCOD9587595
_publ_section_title
;
Structure prediction by ZEFSAII (Michael W. Deem and Ramdas Pophale) SiO2 
 PCOD9587595
Probable space group: P 6/M M M
;
_chemical_formula_sum "Si O2"
_cell_formula_units_Z 132
_cell_length_a 30.404014
_cell_length_b 30.404014
_cell_length_c 11.571095
_cell_angle_alpha 90.000000
_cell_angle_beta 90.000000
_cell_angle_gamma 120.000000
_cell_volume 9263.325794
_symmetry_space_group_name_H-M "P 6/M M M"
_symmetry_group_IT_number 191
_symmetry_cell_setting 'hexagonal'
loop_
_space_group_symop_operation_xyz
x,y,z
x-y,x,z
-y,x-y,z
-x,-y,z
-x+y,-x,z
y,-x+y,z
x-y,-y,-z
-x,-x+y,-z
y,x,-z
-y,-x,-z
-x+y,y,-z
x,x-y,-z
-x,-y,-z
-x+y,-x,-z
y,-x+y,-z
x,y,-z
x-y,x,-z
-y,x-y,-z
-x+y,y,z
x,x-y,z
-y,-x,z
y,x,z
x-y,-y,z
-x,-x+y,z
loop_
_atom_site_type_symbol
_atom_site_label
_atom_site_fract_x
_atom_site_fract_y
_atom_site_fract_z
Si Si1 0.360433 0.000000 0.869332
Si Si2 0.737796 0.158903 0.863320
Si Si3 0.745133 0.745133 0.132234
Si Si4 0.649652 0.062389 0.500000
Si Si5 0.544687 0.907625 0.250309
Si Si6 0.530532 0.061064 0.138388
Si Si7 0.648607 0.773059 0.500000
Si Si8 0.795813 0.691078 0.245432
O O1 0.308145 0.000000 0.869107
O O2 0.354406 0.951055 0.806649
O O3 0.377175 0.000000 0.000000
O O4 0.783091 0.216910 0.849326
O O5 0.687800 0.143631 0.787962
O O6 0.761542 0.124620 0.819054
O O7 0.725419 0.149124 0.000000
O O8 0.782847 0.732154 0.198777
O O9 0.760293 0.760293 0.000000
O O10 0.632109 0.079275 0.614579
O O11 0.711546 0.097305 0.500000
O O12 0.626119 0.000000 0.500000
O O13 0.500365 0.914467 0.195288
O O14 0.500000 0.000000 0.160149
O O15 0.534064 0.068128 0.000000
O O16 0.626657 0.813329 0.500000
O O17 0.680118 0.785629 0.618395
O O18 0.853219 0.706437 0.221061
#
# Coordination Sequence:
#
# PCOD9587595 Si02
#       8
#    12  24  12  12  24  12  12  24
#     4  11  18  28  45  65  88 115 158 194 225 279
#     4  10  19  31  48  69  93 117 146 193 241 278
#     4  11  20  29  46  67  89 125 160 200 247 284
#     4  12  22  33  48  66  95 131 161 197 231 279
#     4  12  22  34  48  68  93 125 161 192 236 283
#     4  11  22  35  51  69  91 122 160 202 240 282
#     4  10  20  32  47  67  94 126 159 196 237 278
#     4  10  20  31  44  67  93 121 161 200 235 281
#
# _framework density 14.249743
#
# number of rings (size 3 to 8) (size 9 to 14) (size 15 to 20)
#    0.000    1.182    5.455    2.182    1.273    1.455 
#    0.000    0.909    0.000    0.000    0.000    0.000 
#    0.909    0.000    1.091    0.273    1.273    1.182 
#
# Total GULP energy -736162.411747 kJ/mol
# GULP energy per Si atom -5576.987968 kJ/mol
# Density = 1.421731 g / cm^3
# Si number density = 14.249743 Si / 1000 Ang^3
#
#
#
# Elastic Constant Matrix: (Units=GPa)
#
#
# Indices 1 2 3 4 5 6 
#
# 1 72.0282 50.4421 40.7292 0.0000 0.0000 0.0000
# 2 50.4421 72.0282 40.7292 0.0000 0.0000 0.0000
# 3 40.7292 40.7292 117.9868 0.0000 0.0000 0.0000
# 4 0.0000 0.0000 0.0000 20.2158 0.0000 0.0000
# 5 0.0000 0.0000 0.0000 0.0000 20.2158 0.0000
# 6 0.0000 0.0000 0.0000 0.0000 0.0000 10.7931
#
#
#
# Elastic Compliance Matrix: (Units=1/GPa)
#
#
# Indices 1 2 3 4 5 6 
#
# 1 0.028462 -0.017864 -0.003659 0.000000 0.000000 0.000000
# 2 -0.017864 0.028462 -0.003659 0.000000 0.000000 0.000000
# 3 -0.003659 -0.003659 0.011002 0.000000 0.000000 0.000000
# 4 0.000000 0.000000 0.000000 0.049466 0.000000 0.000000
# 5 0.000000 0.000000 0.000000 0.000000 0.049466 0.000000
# 6 0.000000 0.000000 0.000000 0.000000 0.000000 0.092652
#
#
# Mechanical properties :
#
#
# Convention : Reuss Voigt Hill
#
# Bulk Modulus (GPa) = 56.93404 58.42715 57.68060
# Shear Modulus (GPa) = 15.83644 18.92113 17.37879
#
# Velocity S-wave (km/s) = 3.33731 3.64788 3.49605
# Velocity P-wave (km/s) = 7.40887 7.67033 7.54073
#
# Compressibility (1/GPa) = 0.01756419
#
# Stress axis : x y z
#
# Youngs Moduli (GPa) = 35.13408 35.13408 90.89662
#
# Poissons Ratio (x) = 0.62762 0.33256
# Poissons Ratio (y) = 0.62762 0.33256
# Poissons Ratio (z) = 0.12855 0.12855
#
# Static dielectric constant tensor:
#      x y z
#    x 1.474100 0.000000 0.000000 
#    y 0.000000 1.474100 0.000000 
#    z 0.000000 0.000000 1.496250 
# 
# From -- ./inp_files/3545.got.cif
#   From: 2010.05.17/outbox.cif.g08.bks.cpg/sg191_2_cif.got.tgz:3545.got - 2010.05.20 12:20:32.
