data_PCOD9587056
_publ_section_title
;
Structure prediction by ZEFSAII (Michael W. Deem and Ramdas Pophale) SiO2 
 PCOD9587056
Probable space group: P 6/M M M
;
_chemical_formula_sum "Si O2"
_cell_formula_units_Z 120
_cell_length_a 29.055511
_cell_length_b 29.055511
_cell_length_c 12.165819
_cell_angle_alpha 90.000000
_cell_angle_beta 90.000000
_cell_angle_gamma 120.000000
_cell_volume 8894.653167
_symmetry_space_group_name_H-M "P 6/M M M"
_symmetry_group_IT_number 191
_symmetry_cell_setting 'hexagonal'
loop_
_space_group_symop_operation_xyz
x,y,z
x-y,x,z
-y,x-y,z
-x,-y,z
-x+y,-x,z
y,-x+y,z
x-y,-y,-z
-x,-x+y,-z
y,x,-z
-y,-x,-z
-x+y,y,-z
x,x-y,-z
-x,-y,-z
-x+y,-x,-z
y,-x+y,-z
x,y,-z
x-y,x,-z
-y,x-y,-z
-x+y,y,z
x,x-y,z
-y,-x,z
y,x,z
x-y,-y,z
-x,-x+y,z
loop_
_atom_site_type_symbol
_atom_site_label
_atom_site_fract_x
_atom_site_fract_y
_atom_site_fract_z
Si Si1 0.749892 0.687427 0.716427
Si Si2 0.936064 0.360588 0.500000
Si Si3 0.223304 0.059292 0.872538
Si Si4 0.064093 0.479888 0.275071
Si Si5 0.125920 0.766608 0.500000
Si Si6 0.398003 0.064681 0.874655
O O1 0.712174 0.712174 0.685518
O O2 0.795974 0.729942 0.793821
O O3 0.773012 0.674327 0.609774
O O4 0.714437 0.635219 0.790121
O O5 0.926308 0.386025 0.608626
O O6 0.896404 0.297262 0.500000
O O7 0.000000 0.379550 0.500000
O O8 0.208876 0.104438 0.851534
O O9 0.175012 0.000000 0.857555
O O10 0.240952 0.063877 0.000000
O O11 0.084682 0.542341 0.271287
O O12 0.082353 0.455234 0.177781
O O13 0.000000 0.450428 0.265586
O O14 0.188660 0.811341 0.500000
O O15 0.365454 0.000000 0.877173
O O16 0.400083 0.082802 0.000000
#
# Coordination Sequence:
#
# PCOD9587056 Si02
#       6
#    24  12  24  24  12  24
#     4  10  18  30  44  58  80 110 142 172 208 253
#     4  10  17  30  44  57  79 112 146 175 210 250
#     4   9  17  29  45  63  82 105 136 175 215 257
#     4   9  16  25  40  61  83 109 142 174 199 229
#     4  12  22  29  41  60  80 105 140 181 218 252
#     4   9  16  25  39  59  83 111 141 170 202 238
#
# _framework density 13.491251
#
# number of rings (size 3 to 8) (size 9 to 14) (size 15 to 20)
#    0.000    2.400    2.000    2.400    0.000    4.000 
#    0.000    2.000    0.000    0.200    0.000    1.400 
#    0.000    0.000    0.000    2.400    0.000   20.800 
#
# Total GULP energy -668073.811961 kJ/mol
# GULP energy per Si atom -5567.281766 kJ/mol
# Density = 1.346054 g / cm^3
# Si number density = 13.491251 Si / 1000 Ang^3
#
#
#
# Elastic Constant Matrix: (Units=GPa)
#
#
# Indices 1 2 3 4 5 6 
#
# 1 61.9639 40.7509 35.8831 0.0000 0.0000 0.0000
# 2 40.7509 61.9639 35.8831 0.0000 0.0000 0.0000
# 3 35.8831 35.8831 83.1260 0.0000 0.0000 0.0000
# 4 0.0000 0.0000 0.0000 13.3458 0.0000 0.0000
# 5 0.0000 0.0000 0.0000 0.0000 13.3458 0.0000
# 6 0.0000 0.0000 0.0000 0.0000 0.0000 10.6065
#
#
#
# Elastic Compliance Matrix: (Units=1/GPa)
#
#
# Indices 1 2 3 4 5 6 
#
# 1 0.030541 -0.016600 -0.006018 0.000000 0.000000 0.000000
# 2 -0.016600 0.030541 -0.006018 0.000000 0.000000 0.000000
# 3 -0.006018 -0.006018 0.017225 0.000000 0.000000 0.000000
# 4 0.000000 0.000000 0.000000 0.074930 0.000000 0.000000
# 5 0.000000 0.000000 0.000000 0.000000 0.074930 0.000000
# 6 0.000000 0.000000 0.000000 0.000000 0.000000 0.094282
#
#
# Mechanical properties :
#
#
# Convention : Reuss Voigt Hill
#
# Bulk Modulus (GPa) = 47.53941 48.00978 47.77459
# Shear Modulus (GPa) = 12.92888 13.76205 13.34547
#
# Velocity S-wave (km/s) = 3.09903 3.19732 3.14856
# Velocity P-wave (km/s) = 6.93679 7.02094 6.97899
#
# Compressibility (1/GPa) = 0.02103518
#
# Stress axis : x y z
#
# Youngs Moduli (GPa) = 32.74340 32.74340 58.05472
#
# Poissons Ratio (x) = 0.54355 0.34935
# Poissons Ratio (y) = 0.54355 0.34935
# Poissons Ratio (z) = 0.19703 0.19703
#
# Static dielectric constant tensor:
#      x y z
#    x 1.434720 0.000000 0.000000 
#    y 0.000000 1.434720 0.000000 
#    z 0.000000 0.000000 1.456880 
# 
# From -- ./inp_files/3231.got.cif
#   From: 2010.05.17/outbox.cif.g08.bks.cpg/sg191_2_cif.got.tgz:3231.got - 2010.05.20 12:20:32.
