data_PCOD9587003
_publ_section_title
;
Structure prediction by ZEFSAII (Michael W. Deem and Ramdas Pophale) SiO2 
 PCOD9587003
Probable space group: P -6 2 C
;
_chemical_formula_sum "Si O2"
_cell_formula_units_Z 60
_cell_length_a 16.441996
_cell_length_b 16.441996
_cell_length_c 14.211537
_cell_angle_alpha 90.000000
_cell_angle_beta 90.000000
_cell_angle_gamma 120.000000
_cell_volume 3327.214180
_symmetry_space_group_name_H-M "P -6 2 C"
_symmetry_group_IT_number 190
_symmetry_cell_setting 'hexagonal'
loop_
_space_group_symop_operation_xyz
x,y,z
-x+y,-x,1/2-z
-y,x-y,z
x,y,1/2-z
-x+y,-x,z
-y,x-y,1/2-z
x-y,-y,-z
-x,-x+y,-z
y,x,-z
y,x,1/2+z
x-y,-y,1/2+z
-x,-x+y,1/2+z
loop_
_atom_site_type_symbol
_atom_site_label
_atom_site_fract_x
_atom_site_fract_y
_atom_site_fract_z
Si Si1 0.157063 0.615921 0.854611
Si Si2 0.892286 0.355015 0.860683
Si Si3 0.300312 0.903254 0.641171
Si Si4 0.200074 0.755665 0.496822
Si Si5 0.945948 0.569511 0.857831
O O1 0.197734 0.650527 0.750000
O O2 0.132923 0.509081 0.863049
O O3 0.213036 0.681354 0.940385
O O4 0.058391 0.616376 0.860407
O O5 0.875918 0.336304 0.750000
O O6 0.911677 0.459896 0.876511
O O7 0.987092 0.351922 0.884302
O O8 0.806596 0.281748 0.921174
O O9 0.270231 0.895596 0.750000
O O10 0.217205 0.837511 0.571008
O O11 0.104442 0.702717 0.436496
O O12 0.920153 0.578859 0.750000
#
# Coordination Sequence:
#
# PCOD9587003 Si02
#       5
#    12  12  12  12  12
#     4   9  19  35  49  62  89 127 159 189 234 288
#     4   9  19  35  49  62  89 127 159 189 234 288
#     4   9  19  35  49  62  89 127 159 189 234 288
#     4  12  18  26  48  72  84 106 156 206 230 262
#     4   9  19  35  49  62  89 127 159 189 234 288
#
# _framework density 18.033104000000002
#
# number of rings (size 3 to 8) (size 9 to 14) (size 15 to 20)
#    0.000    2.400    0.000    6.000    0.000    3.200 
#    9.600    0.000    0.000    0.000    0.000    0.000 
#    0.000    0.000    0.000   38.400    0.000  288.000 
#
# Total GULP energy -334759.172125 kJ/mol
# GULP energy per Si atom -5579.319535 kJ/mol
# Density = 1.799206 g / cm^3
# Si number density = 18.033104 Si / 1000 Ang^3
#
#
#
# Elastic Constant Matrix: (Units=GPa)
#
#
# Indices 1 2 3 4 5 6 
#
# 1 48.3692 10.5129 33.9117 0.0000 0.0000 0.0000
# 2 10.5129 48.3692 33.9117 0.0000 0.0000 0.0000
# 3 33.9117 33.9117 89.5899 0.0000 0.0000 0.0000
# 4 0.0000 0.0000 0.0000 30.4743 0.0000 0.0000
# 5 0.0000 0.0000 0.0000 0.0000 30.4743 0.0000
# 6 0.0000 0.0000 0.0000 0.0000 0.0000 18.9282
#
#
#
# Elastic Compliance Matrix: (Units=1/GPa)
#
#
# Indices 1 2 3 4 5 6 
#
# 1 0.028264 0.001848 -0.011398 0.000000 0.000000 0.000000
# 2 0.001848 0.028264 -0.011398 0.000000 0.000000 0.000000
# 3 -0.011398 -0.011398 0.019791 0.000000 0.000000 0.000000
# 4 0.000000 0.000000 0.000000 0.032815 0.000000 0.000000
# 5 0.000000 0.000000 0.000000 0.000000 0.032815 0.000000
# 6 0.000000 0.000000 0.000000 0.000000 0.000000 0.052831
#
#
# Mechanical properties :
#
#
# Convention : Reuss Voigt Hill
#
# Bulk Modulus (GPa) = 29.05075 38.11124 33.58099
# Shear Modulus (GPa) = 20.14921 23.17481 21.66201
#
# Velocity S-wave (km/s) = 3.34630 3.58875 3.46964
# Velocity P-wave (km/s) = 5.57449 6.19291 5.89182
#
# Compressibility (1/GPa) = 0.03442252
#
# Stress axis : x y z
#
# Youngs Moduli (GPa) = 35.38098 35.38098 50.52864
#
# Poissons Ratio (x) = -0.06539 0.57593
# Poissons Ratio (y) = -0.06539 0.57593
# Poissons Ratio (z) = 0.40327 0.40327
#
# Static dielectric constant tensor:
#      x y z
#    x 1.635100 0.000000 0.000000 
#    y 0.000000 1.635100 0.000000 
#    z 0.000000 0.000000 1.684950 
# 
# From -- ./inp_files/2795.got.cif
#   From: 2010.05.17/outbox.cif.g08.bks.cpg/sg190_2_cif.got.tgz:2795.got - 2010.05.20 12:16:56.
