data_PCOD9587816
_publ_section_title
;
Structure prediction by ZEFSAII (Michael W. Deem and Ramdas Pophale) SiO2 
 PCOD9587816
Probable space group: P 6/M M M
;
_chemical_formula_sum "Si O2"
_cell_formula_units_Z 192
_cell_length_a 30.026458
_cell_length_b 30.026458
_cell_length_c 14.425863
_cell_angle_alpha 90.000000
_cell_angle_beta 90.000000
_cell_angle_gamma 120.000000
_cell_volume 11263.688840
_symmetry_space_group_name_H-M "P 6/M M M"
_symmetry_group_IT_number 191
_symmetry_cell_setting 'hexagonal'
loop_
_space_group_symop_operation_xyz
x,y,z
x-y,x,z
-y,x-y,z
-x,-y,z
-x+y,-x,z
y,-x+y,z
x-y,-y,-z
-x,-x+y,-z
y,x,-z
-y,-x,-z
-x+y,y,-z
x,x-y,-z
-x,-y,-z
-x+y,-x,-z
y,-x+y,-z
x,y,-z
x-y,x,-z
-y,x-y,-z
-x+y,y,z
x,x-y,z
-y,-x,z
y,x,z
x-y,-y,z
-x,-x+y,z
loop_
_atom_site_type_symbol
_atom_site_label
_atom_site_fract_x
_atom_site_fract_y
_atom_site_fract_z
Si Si1 0.056617 0.703828 0.389170
Si Si2 0.595609 0.658095 0.107163
Si Si3 0.939956 0.419496 0.751534
Si Si4 0.561083 0.830830 0.387302
Si Si5 0.844522 0.786732 0.796252
Si Si6 0.180660 0.919355 0.604946
Si Si7 0.243414 0.937754 0.891993
Si Si8 0.849583 0.375755 0.389624
O O1 0.054625 0.693824 0.500000
O O2 0.110612 0.710677 0.355346
O O3 0.063089 0.760186 0.378365
O O4 0.000000 0.662423 0.349991
O O5 0.627040 0.627040 0.106347
O O6 0.548196 0.625935 0.174399
O O7 0.636544 0.716042 0.138389
O O8 0.581287 0.659827 0.000000
O O9 0.935736 0.467868 0.789511
O O10 0.904225 0.399637 0.661704
O O11 0.000000 0.442127 0.729133
O O12 0.566136 0.831971 0.500000
O O13 0.571552 0.785776 0.353929
O O14 0.503459 0.818990 0.365181
O O15 0.902296 0.804592 0.823405
O O16 0.822654 0.822654 0.829910
O O17 0.838681 0.780495 0.685312
O O18 0.807434 0.728961 0.834113
O O19 0.176358 0.934592 0.500000
O O20 0.142550 0.857451 0.609518
O O21 0.275045 0.000000 0.886476
O O22 0.231044 0.924043 0.000000
O O23 0.857221 0.378434 0.500000
O O24 0.827593 0.413797 0.365891
#
# Coordination Sequence:
#
# PCOD9587816 Si02
#       8
#    24  24  24  24  24  24  24  24
#     4   9  16  25  38  57  82 111 142 177 218 266
#     4   8  14  26  44  63  84 113 147 184 224 256
#     4   9  17  27  40  62  90 120 157 195 224 254
#     4   9  17  29  44  60  79 107 146 190 230 268
#     4  10  20  32  47  67  89 114 146 186 232 283
#     4   9  17  29  44  62  87 119 153 189 229 272
#     4   8  15  29  47  65  85 110 140 173 213 263
#     4   9  18  31  44  58  81 116 153 187 226 270
#
# _framework density 17.045925
#
# number of rings (size 3 to 8) (size 9 to 14) (size 15 to 20)
#    0.000    3.125    0.000    1.500    0.000    4.500 
#    0.000    5.000    0.000    0.375    0.000    1.750 
#    0.000    0.000    0.000    6.250    0.000    0.000 
#
# Total GULP energy -1069040.466784 kJ/mol
# GULP energy per Si atom -5567.919098 kJ/mol
# Density = 1.700713 g / cm^3
# Si number density = 17.045925 Si / 1000 Ang^3
#
#
#
# Elastic Constant Matrix: (Units=GPa)
#
#
# Indices 1 2 3 4 5 6 
#
# 1 82.4414 45.4188 11.5321 0.0000 0.0000 0.0000
# 2 45.4188 82.4414 11.5321 0.0000 0.0000 0.0000
# 3 11.5321 11.5321 21.3695 0.0000 0.0000 0.0000
# 4 0.0000 0.0000 0.0000 9.9667 0.0000 0.0000
# 5 0.0000 0.0000 0.0000 0.0000 9.9667 0.0000
# 6 0.0000 0.0000 0.0000 0.0000 0.0000 18.5113
#
#
#
# Elastic Compliance Matrix: (Units=1/GPa)
#
#
# Indices 1 2 3 4 5 6 
#
# 1 0.017838 -0.009173 -0.004676 0.000000 0.000000 0.000000
# 2 -0.009173 0.017838 -0.004676 0.000000 0.000000 0.000000
# 3 -0.004676 -0.004676 0.051842 0.000000 0.000000 0.000000
# 4 0.000000 0.000000 0.000000 0.100334 0.000000 0.000000
# 5 0.000000 0.000000 0.000000 0.000000 0.100334 0.000000
# 6 0.000000 0.000000 0.000000 0.000000 0.000000 0.054021
#
#
# Mechanical properties :
#
#
# Convention : Reuss Voigt Hill
#
# Bulk Modulus (GPa) = 19.81453 35.91315 27.86384
# Shear Modulus (GPa) = 12.62378 15.54023 14.08200
#
# Velocity S-wave (km/s) = 2.72430 3.02266 2.87735
# Velocity P-wave (km/s) = 4.64168 5.77028 5.23648
#
# Compressibility (1/GPa) = 0.05046800
#
# Stress axis : x y z
#
# Youngs Moduli (GPa) = 56.06160 56.06160 19.28927
#
# Poissons Ratio (x) = 0.51425 0.09019
# Poissons Ratio (y) = 0.51425 0.09019
# Poissons Ratio (z) = 0.26213 0.26213
#
# Static dielectric constant tensor:
#      x y z
#    x 1.605460 0.000000 0.000000 
#    y 0.000000 1.605460 0.000000 
#    z 0.000000 0.000000 1.596160 
# 
# From -- ./inp_files/5550.got.cif
#   From: 2010.05.17/outbox.cif.g08.bks.cpg/sg191_3_cif.got.tgz:5550.got - 2010.05.20 12:20:32.
