data_PCOD9587054
_publ_section_title
;
Structure prediction by ZEFSAII (Michael W. Deem and Ramdas Pophale) SiO2 
 PCOD9587054
Probable space group: P 6/M M M
;
_chemical_formula_sum "Si O2"
_cell_formula_units_Z 108
_cell_length_a 32.649782
_cell_length_b 32.649782
_cell_length_c 8.107665
_cell_angle_alpha 90.000000
_cell_angle_beta 90.000000
_cell_angle_gamma 120.000000
_cell_volume 7484.917180
_symmetry_space_group_name_H-M "P 6/M M M"
_symmetry_group_IT_number 191
_symmetry_cell_setting 'hexagonal'
loop_
_space_group_symop_operation_xyz
x,y,z
x-y,x,z
-y,x-y,z
-x,-y,z
-x+y,-x,z
y,-x+y,z
x-y,-y,-z
-x,-x+y,-z
y,x,-z
-y,-x,-z
-x+y,y,-z
x,x-y,-z
-x,-y,-z
-x+y,-x,-z
y,-x+y,-z
x,y,-z
x-y,x,-z
-y,x-y,-z
-x+y,y,z
x,x-y,z
-y,-x,z
y,x,z
x-y,-y,z
-x,-x+y,z
loop_
_atom_site_type_symbol
_atom_site_label
_atom_site_fract_x
_atom_site_fract_y
_atom_site_fract_z
Si Si1 0.424615 0.942686 0.000000
Si Si2 0.000000 0.258687 0.190608
Si Si3 0.839730 0.160271 0.202337
Si Si4 0.000000 0.830124 0.314255
Si Si5 0.894522 0.105479 0.805956
Si Si6 0.733581 0.640395 0.195991
Si Si7 0.056644 0.630538 0.687121
O O1 0.393640 0.929627 0.833512
O O2 0.462685 0.925370 0.000000
O O3 0.454671 0.000000 0.000000
O O4 0.000000 0.219170 0.303105
O O5 0.045619 0.309240 0.213806
O O6 0.000000 0.243532 0.000000
O O7 0.867253 0.132748 0.261561
O O8 0.866098 0.215015 0.252381
O O9 0.840519 0.159482 0.000000
O O10 0.949761 0.817749 0.238495
O O11 0.000000 0.844887 0.500000
O O12 0.891312 0.108689 0.000000
O O13 0.686852 0.601939 0.287212
O O14 0.727970 0.628864 0.000000
O O15 0.063370 0.618426 0.500000
O O16 0.000000 0.610756 0.706821
#
# Coordination Sequence:
#
# PCOD9587054 Si02
#       7
#    12  12  12  12  12  24  24
#     4   9  18  32  48  65  88 116 146 188 238 273
#     4  10  18  28  50  68  85 124 159 188 229 289
#     4   9  18  29  47  69  90 121 162 198 231 275
#     4  12  24  36  50  75 101 114 139 191 246 288
#     4  11  21  39  57  70  88 121 157 181 225 297
#     4  10  17  29  45  65  92 123 160 198 235 278
#     4  10  19  29  45  67  88 116 155 195 237 281
#
# _framework density 14.429016000000001
#
# number of rings (size 3 to 8) (size 9 to 14) (size 15 to 20)
#    0.000    1.889    4.444    1.333    0.000    1.333 
#    0.000    2.778    0.000    0.222    0.000    1.556 
#    0.000    0.000    0.000    0.000    0.000    0.000 
#
# Total GULP energy -602021.447204 kJ/mol
# GULP energy per Si atom -5574.272659 kJ/mol
# Density = 1.439618 g / cm^3
# Si number density = 14.429016 Si / 1000 Ang^3
#
#
#
# Elastic Constant Matrix: (Units=GPa)
#
#
# Indices 1 2 3 4 5 6 
#
# 1 70.1005 41.7486 39.0732 0.0000 0.0000 0.0000
# 2 41.7486 70.1005 39.0732 0.0000 0.0000 0.0000
# 3 39.0732 39.0732 71.7183 0.0000 0.0000 0.0000
# 4 0.0000 0.0000 0.0000 -2.7095 0.0000 0.0000
# 5 0.0000 0.0000 0.0000 0.0000 -2.7095 0.0000
# 6 0.0000 0.0000 0.0000 0.0000 0.0000 14.1760
#
#
#
# Elastic Compliance Matrix: (Units=1/GPa)
#
#
# Indices 1 2 3 4 5 6 
#
# 1 0.024853 -0.010418 -0.007865 0.000000 0.000000 0.000000
# 2 -0.010418 0.024853 -0.007865 0.000000 0.000000 0.000000
# 3 -0.007865 -0.007865 0.022513 0.000000 0.000000 0.000000
# 4 0.000000 0.000000 0.000000 -0.369074 0.000000 0.000000
# 5 0.000000 0.000000 0.000000 0.000000 -0.369074 0.000000
# 6 0.000000 0.000000 0.000000 0.000000 0.000000 0.070542
#
#
# Mechanical properties :
#
#
# Convention : Reuss Voigt Hill
#
# Bulk Modulus (GPa) = 50.18741 50.18992 50.18866
# Shear Modulus (GPa) = -9.32051 7.88636 -0.71708
#
# Velocity S-wave (km/s) = -2.54432 2.34040 -0.70573
# Velocity P-wave (km/s) = 5.12117 6.49329 5.84761
#
# Compressibility (1/GPa) = 0.01992532
#
# Stress axis : x y z
#
# Youngs Moduli (GPa) = 40.23623 40.23623 44.41881
#
# Poissons Ratio (x) = 0.41917 0.34934
# Poissons Ratio (y) = 0.41917 0.34934
# Poissons Ratio (z) = 0.31644 0.31644
#
# Static dielectric constant tensor:
#      x y z
#    x 1.454620 0.000000 0.000000 
#    y 0.000000 1.454620 0.000000 
#    z 0.000000 0.000000 1.520810 
# 
# From -- ./inp_files/1800.got.cif
#   From: 2010.05.17/outbox.cif.g08.bks.cpg/sg191_1_cif.got.tgz:1800.got - 2010.05.20 12:20:32.
