data_PCOD9587918
_publ_section_title
;
Structure prediction by ZEFSAII (Michael W. Deem and Ramdas Pophale) SiO2 
 PCOD9587918
Probable space group: P 6/M M M
;
_chemical_formula_sum "Si O2"
_cell_formula_units_Z 120
_cell_length_a 23.558664
_cell_length_b 23.558664
_cell_length_c 15.534101
_cell_angle_alpha 90.000000
_cell_angle_beta 90.000000
_cell_angle_gamma 120.000000
_cell_volume 7466.517247
_symmetry_space_group_name_H-M "P 6/M M M"
_symmetry_group_IT_number 191
_symmetry_cell_setting 'hexagonal'
loop_
_space_group_symop_operation_xyz
x,y,z
x-y,x,z
-y,x-y,z
-x,-y,z
-x+y,-x,z
y,-x+y,z
x-y,-y,-z
-x,-x+y,-z
y,x,-z
-y,-x,-z
-x+y,y,-z
x,x-y,-z
-x,-y,-z
-x+y,-x,-z
y,-x+y,-z
x,y,-z
x-y,x,-z
-y,x-y,-z
-x+y,y,z
x,x-y,z
-y,-x,z
y,x,z
x-y,-y,z
-x,-x+y,z
loop_
_atom_site_type_symbol
_atom_site_label
_atom_site_fract_x
_atom_site_fract_y
_atom_site_fract_z
Si Si1 0.798349 0.074706 0.351741
Si Si2 0.078076 0.606575 0.765590
Si Si3 0.593677 0.673044 0.594844
Si Si4 0.427216 0.279377 0.900395
Si Si5 0.074123 0.798690 0.857029
O O1 0.871305 0.128696 0.378018
O O2 0.746500 0.095024 0.385532
O O3 0.795115 0.074506 0.247423
O O4 0.772751 0.000000 0.379628
O O5 0.085723 0.542862 0.766721
O O6 0.099366 0.643486 0.673872
O O7 0.119365 0.658282 0.839062
O O8 0.000000 0.580270 0.777127
O O9 0.565240 0.668873 0.500000
O O10 0.630551 0.630551 0.593007
O O11 0.440730 0.220365 0.876152
O O12 0.348749 0.247880 0.890881
O O13 0.445319 0.296326 0.000000
O O14 0.127423 0.872577 0.882303
O O15 0.000000 0.772559 0.884927
#
# Coordination Sequence:
#
# PCOD9587918 Si02
#       5
#    24  24  24  24  24
#     4   9  16  27  44  66  94 128 166 208 251 293
#     4  10  20  33  50  74 103 131 157 190 237 290
#     4   9  17  29  45  67  96 128 160 193 232 282
#     4  10  20  33  50  71  96 128 164 203 244 284
#     4   9  16  27  44  65  91 124 162 204 249 295
#
# _framework density 16.071750000000002
#
# number of rings (size 3 to 8) (size 9 to 14) (size 15 to 20)
#    0.000    2.600    2.000    0.600    0.000    2.800 
#    0.000    3.000    0.000    0.800    0.000    2.800 
#    0.000    0.000    0.000   10.000    0.000   10.400 
#
# Total GULP energy -668900.554795 kJ/mol
# GULP energy per Si atom -5574.171290 kJ/mol
# Density = 1.603517 g / cm^3
# Si number density = 16.071750 Si / 1000 Ang^3
#
#
#
# Elastic Constant Matrix: (Units=GPa)
#
#
# Indices 1 2 3 4 5 6 
#
# 1 88.6293 49.3575 52.3645 0.0000 0.0000 0.0000
# 2 49.3575 88.6293 52.3645 0.0000 0.0000 0.0000
# 3 52.3645 52.3645 86.3756 0.0000 0.0000 0.0000
# 4 0.0000 0.0000 0.0000 1.4810 0.0000 0.0000
# 5 0.0000 0.0000 0.0000 0.0000 1.4810 0.0000
# 6 0.0000 0.0000 0.0000 0.0000 0.0000 19.6359
#
#
#
# Elastic Compliance Matrix: (Units=1/GPa)
#
#
# Indices 1 2 3 4 5 6 
#
# 1 0.019444 -0.006020 -0.008138 0.000000 0.000000 0.000000
# 2 -0.006020 0.019444 -0.008138 0.000000 0.000000 0.000000
# 3 -0.008138 -0.008138 0.021444 0.000000 0.000000 0.000000
# 4 0.000000 0.000000 0.000000 0.675239 0.000000 0.000000
# 5 0.000000 0.000000 0.000000 0.000000 0.675239 0.000000
# 6 0.000000 0.000000 0.000000 0.000000 0.000000 0.050927
#
#
# Mechanical properties :
#
#
# Convention : Reuss Voigt Hill
#
# Bulk Modulus (GPa) = 63.53290 63.53414 63.53352
# Shear Modulus (GPa) = 3.30781 11.82275 7.56528
#
# Velocity S-wave (km/s) = 1.43618 2.71518 2.17196
# Velocity P-wave (km/s) = 6.50898 7.03185 6.77546
#
# Compressibility (1/GPa) = 0.01573988
#
# Stress axis : x y z
#
# Youngs Moduli (GPa) = 51.43090 51.43090 46.63209
#
# Poissons Ratio (x) = 0.30961 0.37949
# Poissons Ratio (y) = 0.30961 0.37949
# Poissons Ratio (z) = 0.41854 0.41854
#
# Static dielectric constant tensor:
#      x y z
#    x 1.523270 0.000000 0.000000 
#    y 0.000000 1.523270 0.000000 
#    z 0.000000 0.000000 1.576060 
# 
# From -- ./inp_files/4654.got.cif
#   From: 2010.05.17/outbox.cif.g08.bks.cpg/sg191_3_cif.got.tgz:4654.got - 2010.05.20 12:20:32.
