data_PCOD9587857
_publ_section_title
;
Structure prediction by ZEFSAII (Michael W. Deem and Ramdas Pophale) SiO2 
 PCOD9587857
Probable space group: P 6/M M M
;
_chemical_formula_sum "Si O2"
_cell_formula_units_Z 160
_cell_length_a 21.939016
_cell_length_b 21.939016
_cell_length_c 23.078304
_cell_angle_alpha 90.000000
_cell_angle_beta 90.000000
_cell_angle_gamma 120.000000
_cell_volume 9619.861319
_symmetry_space_group_name_H-M "P 6/M M M"
_symmetry_group_IT_number 191
_symmetry_cell_setting 'hexagonal'
loop_
_space_group_symop_operation_xyz
x,y,z
x-y,x,z
-y,x-y,z
-x,-y,z
-x+y,-x,z
y,-x+y,z
x-y,-y,-z
-x,-x+y,-z
y,x,-z
-y,-x,-z
-x+y,y,-z
x,x-y,-z
-x,-y,-z
-x+y,-x,-z
y,-x+y,-z
x,y,-z
x-y,x,-z
-y,x-y,-z
-x+y,y,z
x,x-y,z
-y,-x,z
y,x,z
x-y,-y,z
-x,-x+y,z
loop_
_atom_site_type_symbol
_atom_site_label
_atom_site_fract_x
_atom_site_fract_y
_atom_site_fract_z
Si Si1 0.217957 0.919938 0.430165
Si Si2 0.431928 0.082453 0.377376
Si Si3 0.811510 0.335053 0.853004
Si Si4 0.666667 0.333334 0.570366
Si Si5 0.922134 0.701258 0.172960
Si Si6 0.272242 0.397517 0.935239
Si Si7 0.414520 0.829040 0.430430
Si Si8 0.918639 0.576025 0.240084
O O1 0.223843 0.918083 0.500000
O O2 0.139663 0.860338 0.413614
O O3 0.275076 0.903526 0.401998
O O4 0.241009 0.000000 0.413848
O O5 0.506276 0.131266 0.406840
O O6 0.437216 0.092181 0.308235
O O7 0.404389 0.000000 0.389403
O O8 0.796111 0.398056 0.861999
O O9 0.739503 0.260498 0.845848
O O10 0.854490 0.326486 0.906339
O O11 0.861866 0.350513 0.797546
O O12 0.666667 0.333334 0.500000
O O13 0.626119 0.252238 0.588867
O O14 0.858376 0.716752 0.174830
O O15 0.918194 0.662403 0.112021
O O16 0.911147 0.642990 0.220949
O O17 0.000000 0.766686 0.179878
O O18 0.199035 0.398070 0.938934
O O19 0.291566 0.387250 0.000000
O O20 0.415562 0.831123 0.500000
O O21 0.000000 0.599310 0.226432
#
# Coordination Sequence:
#
# PCOD9587857 Si02
#       8
#    24  24  24   4  24  24  12  24
#     4   9  18  32  51  76 103 130 161 199 246 295
#     4  10  21  35  55  80 100 126 167 215 262 307
#     4  10  20  33  48  68  98 134 165 203 250 301
#     4   9  24  45  54  69 102 144 180 201 241 314
#     4   9  17  31  51  75 103 135 167 206 254 301
#     4   8  15  29  48  69  93 124 165 208 247 288
#     4  11  23  40  57  74 104 138 171 212 258 313
#     4   9  19  35  53  72  95 124 162 207 254 296
#
# _framework density 16.632256000000002
#
# number of rings (size 3 to 8) (size 9 to 14) (size 15 to 20)
#    0.000    2.700    0.000    2.175    2.100    3.300 
#    0.000    0.000    0.000    1.200    0.000    5.250 
#    0.000    0.000    0.000   11.250    0.000    3.900 
#
# Total GULP energy -891886.239792 kJ/mol
# GULP energy per Si atom -5574.288999 kJ/mol
# Density = 1.659440 g / cm^3
# Si number density = 16.632256 Si / 1000 Ang^3
#
#
#
# Elastic Constant Matrix: (Units=GPa)
#
#
# Indices 1 2 3 4 5 6 
#
# 1 89.8525 49.5213 32.6070 0.0000 0.0000 0.0000
# 2 49.5213 89.8524 32.6070 0.0000 0.0000 0.0000
# 3 32.6070 32.6070 59.0765 0.0000 0.0000 0.0000
# 4 0.0000 0.0000 0.0000 11.6831 0.0000 0.0000
# 5 0.0000 0.0000 0.0000 0.0000 11.6831 0.0000
# 6 0.0000 0.0000 0.0000 0.0000 0.0000 20.1656
#
#
#
# Elastic Compliance Matrix: (Units=1/GPa)
#
#
# Indices 1 2 3 4 5 6 
#
# 1 0.017234 -0.007561 -0.005339 0.000000 0.000000 0.000000
# 2 -0.007561 0.017234 -0.005339 0.000000 0.000000 0.000000
# 3 -0.005339 -0.005339 0.022821 0.000000 0.000000 0.000000
# 4 0.000000 0.000000 0.000000 0.085594 0.000000 0.000000
# 5 0.000000 0.000000 0.000000 0.000000 0.085594 0.000000
# 6 0.000000 0.000000 0.000000 0.000000 0.000000 0.049589
#
#
# Mechanical properties :
#
#
# Convention : Reuss Voigt Hill
#
# Bulk Modulus (GPa) = 48.05143 52.02798 50.03970
# Shear Modulus (GPa) = 15.55305 16.97610 16.26457
#
# Velocity S-wave (km/s) = 3.06128 3.19826 3.13052
# Velocity P-wave (km/s) = 6.43805 6.70729 6.57405
#
# Compressibility (1/GPa) = 0.02081104
#
# Stress axis : x y z
#
# Youngs Moduli (GPa) = 58.02507 58.02496 43.81944
#
# Poissons Ratio (x) = 0.43872 0.23395
# Poissons Ratio (y) = 0.43872 0.23395
# Poissons Ratio (z) = 0.30980 0.30980
#
# Static dielectric constant tensor:
#      x y z
#    x 1.553290 0.000000 0.000000 
#    y 0.000000 1.553290 0.000000 
#    z 0.000000 0.000000 1.565800 
# 
# From -- ./inp_files/7766.got.cif
#   From: 2010.05.17/outbox.cif.g08.bks.cpg/sg191_4_cif.got.tgz:7766.got - 2010.05.20 12:20:32.
