data_PCOD9587371
_publ_section_title
;
Structure prediction by ZEFSAII (Michael W. Deem and Ramdas Pophale) SiO2 
 PCOD9587371
Probable space group: P 6/M M M
;
_chemical_formula_sum "Si O2"
_cell_formula_units_Z 120
_cell_length_a 17.998788
_cell_length_b 17.998788
_cell_length_c 26.569719
_cell_angle_alpha 90.000000
_cell_angle_beta 90.000000
_cell_angle_gamma 120.000000
_cell_volume 7454.252786
_symmetry_space_group_name_H-M "P 6/M M M"
_symmetry_group_IT_number 191
_symmetry_cell_setting 'hexagonal'
loop_
_space_group_symop_operation_xyz
x,y,z
x-y,x,z
-y,x-y,z
-x,-y,z
-x+y,-x,z
y,-x+y,z
x-y,-y,-z
-x,-x+y,-z
y,x,-z
-y,-x,-z
-x+y,y,-z
x,x-y,-z
-x,-y,-z
-x+y,-x,-z
y,-x+y,-z
x,y,-z
x-y,x,-z
-y,x-y,-z
-x+y,y,z
x,x-y,z
-y,-x,z
y,x,z
x-y,-y,z
-x,-x+y,z
loop_
_atom_site_type_symbol
_atom_site_label
_atom_site_fract_x
_atom_site_fract_y
_atom_site_fract_z
Si Si1 0.902943 0.269779 0.691746
Si Si2 0.104917 0.466124 0.000000
Si Si3 0.728305 0.629895 0.500000
Si Si4 0.504693 0.669114 0.781896
Si Si5 0.639823 0.540672 0.891189
Si Si6 0.491041 0.332514 0.596898
O O1 0.829923 0.170078 0.689181
O O2 0.889486 0.307866 0.743656
O O3 0.882308 0.316939 0.646761
O O4 0.000000 0.291107 0.687380
O O5 0.131451 0.447704 0.054294
O O6 0.132477 0.566239 0.000000
O O7 0.000000 0.413524 0.000000
O O8 0.705030 0.705030 0.500000
O O9 0.828937 0.657874 0.500000
O O10 0.686391 0.570106 0.451163
O O11 0.472590 0.736295 0.770472
O O12 0.427653 0.572348 0.775659
O O13 0.535270 0.681880 0.839745
O O14 0.550147 0.449854 0.894432
O O15 0.612813 0.612813 0.885732
O O16 0.517674 0.258837 0.596635
O O17 0.574066 0.425935 0.595422
#
# Coordination Sequence:
#
# PCOD9587371 Si02
#       6
#    24  12  12  24  24  24
#     4  10  21  35  51  71  93 118 148 185 228 271
#     4   7  10  18  33  52  70  90 126 179 231 269
#     4  10  21  35  51  72  97 127 162 202 247 289
#     4  10  19  29  41  59  86 119 153 187 222 260
#     4   8  13  22  37  54  71  96 135 183 229 269
#     4  10  20  33  50  73 102 134 165 195 227 264
#
# _framework density 16.098193999999999
#
# number of rings (size 3 to 8) (size 9 to 14) (size 15 to 20)
#    0.000    2.700    0.000    3.700    0.000    4.000 
#    0.000    3.500    0.000    0.300    0.000    1.400 
#    0.000    4.800    0.000    0.000    0.000    0.400 
#
# Total GULP energy -668482.486039 kJ/mol
# GULP energy per Si atom -5570.687384 kJ/mol
# Density = 1.606155 g / cm^3
# Si number density = 16.098194 Si / 1000 Ang^3
#
#
#
# Elastic Constant Matrix: (Units=GPa)
#
#
# Indices 1 2 3 4 5 6 
#
# 1 76.0572 60.1381 31.1007 0.0000 0.0000 0.0000
# 2 60.1381 76.0572 31.1007 0.0000 0.0000 0.0000
# 3 31.1007 31.1007 110.2013 0.0000 0.0000 0.0000
# 4 0.0000 0.0000 0.0000 17.0611 0.0000 0.0000
# 5 0.0000 0.0000 0.0000 0.0000 17.0611 0.0000
# 6 0.0000 0.0000 0.0000 0.0000 0.0000 7.9596
#
#
#
# Elastic Compliance Matrix: (Units=1/GPa)
#
#
# Indices 1 2 3 4 5 6 
#
# 1 0.035623 -0.027194 -0.002379 0.000000 0.000000 0.000000
# 2 -0.027194 0.035623 -0.002379 0.000000 0.000000 0.000000
# 3 -0.002379 -0.002379 0.010417 0.000000 0.000000 0.000000
# 4 0.000000 0.000000 0.000000 0.058613 0.000000 0.000000
# 5 0.000000 0.000000 0.000000 0.000000 0.058613 0.000000
# 6 0.000000 0.000000 0.000000 0.000000 0.000000 0.125635
#
#
# Mechanical properties :
#
#
# Convention : Reuss Voigt Hill
#
# Bulk Modulus (GPa) = 56.30779 56.33275 56.32027
# Shear Modulus (GPa) = 12.67917 17.74811 15.21364
#
# Velocity S-wave (km/s) = 2.80949 3.32398 3.07751
# Velocity P-wave (km/s) = 6.75115 7.05698 6.90576
#
# Compressibility (1/GPa) = 0.01775953
#
# Stress axis : x y z
#
# Youngs Moduli (GPa) = 28.07161 28.07161 95.99745
#
# Poissons Ratio (x) = 0.76339 0.22835
# Poissons Ratio (y) = 0.76339 0.22835
# Poissons Ratio (z) = 0.06678 0.06678
#
# Static dielectric constant tensor:
#      x y z
#    x 1.526480 0.000000 0.000000 
#    y 0.000000 1.526480 0.000000 
#    z 0.000000 0.000000 1.581240 
# 
# From -- ./inp_files/8603.got.cif
#   From: 2010.05.17/outbox.cif.g08.bks.cpg/sg191_5_cif.got.tgz:8603.got - 2010.05.20 12:20:32.
