data_PCOD9587562
_publ_section_title
;
Structure prediction by ZEFSAII (Michael W. Deem and Ramdas Pophale) SiO2 
 PCOD9587562
Probable space group: P 6/M M M
;
_chemical_formula_sum "Si O2"
_cell_formula_units_Z 108
_cell_length_a 21.451283
_cell_length_b 21.451283
_cell_length_c 19.550085
_cell_angle_alpha 90.000000
_cell_angle_beta 90.000000
_cell_angle_gamma 120.000000
_cell_volume 7790.867647
_symmetry_space_group_name_H-M "P 6/M M M"
_symmetry_group_IT_number 191
_symmetry_cell_setting 'hexagonal'
loop_
_space_group_symop_operation_xyz
x,y,z
x-y,x,z
-y,x-y,z
-x,-y,z
-x+y,-x,z
y,-x+y,z
x-y,-y,-z
-x,-x+y,-z
y,x,-z
-y,-x,-z
-x+y,y,-z
x,x-y,-z
-x,-y,-z
-x+y,-x,-z
y,-x+y,-z
x,y,-z
x-y,x,-z
-y,x-y,-z
-x+y,y,z
x,x-y,z
-y,-x,z
y,x,z
x-y,-y,z
-x,-x+y,z
loop_
_atom_site_type_symbol
_atom_site_label
_atom_site_fract_x
_atom_site_fract_y
_atom_site_fract_z
Si Si1 0.542164 0.457837 0.081841
Si Si2 0.482138 0.668094 0.700793
Si Si3 0.842430 0.301254 0.851951
Si Si4 0.917237 0.382917 0.577089
Si Si5 0.305302 0.222993 0.080394
O O1 0.500000 0.500000 0.104453
O O2 0.502727 0.376489 0.109144
O O3 0.542193 0.457808 0.000000
O O4 0.466335 0.733168 0.690836
O O5 0.407518 0.592483 0.706578
O O6 0.525605 0.682865 0.771547
O O7 0.526502 0.663075 0.636874
O O8 0.760136 0.239865 0.869790
O O9 0.891034 0.266958 0.873651
O O10 0.896939 0.352784 0.500000
O O11 0.916820 0.458410 0.576810
O O12 0.000000 0.405226 0.590018
O O13 0.278002 0.139001 0.090229
O O14 0.247785 0.247785 0.094375
O O15 0.326890 0.239459 0.000000
#
# Coordination Sequence:
#
# PCOD9587562 Si02
#       5
#    12  24  24  24  24
#     4  11  22  34  48  66  85 109 149 197 234 272
#     4  10  19  31  45  62  84 114 142 178 221 264
#     4  10  20  33  45  62  87 116 147 185 227 271
#     4   8  15  28  44  62  83 106 135 171 210 255
#     4   9  17  30  48  67  88 113 141 176 216 259
#
# _framework density 13.862385
#
# number of rings (size 3 to 8) (size 9 to 14) (size 15 to 20)
#    0.000    2.556    1.111    2.222    0.000    5.333 
#    0.667    0.000    0.000    1.556    0.000    1.556 
#    0.000    0.000    0.000    0.000    0.000    0.000 
#
# Total GULP energy -601517.058227 kJ/mol
# GULP energy per Si atom -5569.602391 kJ/mol
# Density = 1.383083 g / cm^3
# Si number density = 13.862385 Si / 1000 Ang^3
#
#
#
# Elastic Constant Matrix: (Units=GPa)
#
#
# Indices 1 2 3 4 5 6 
#
# 1 82.1478 61.8571 54.5043 0.0000 0.0000 0.0000
# 2 61.8571 82.1478 54.5043 0.0000 0.0000 0.0000
# 3 54.5043 54.5043 83.7745 0.0000 0.0000 0.0000
# 4 0.0000 0.0000 0.0000 19.5639 0.0000 0.0000
# 5 0.0000 0.0000 0.0000 0.0000 19.5639 0.0000
# 6 0.0000 0.0000 0.0000 0.0000 0.0000 10.1453
#
#
#
# Elastic Compliance Matrix: (Units=1/GPa)
#
#
# Indices 1 2 3 4 5 6 
#
# 1 0.031483 -0.017800 -0.008902 0.000000 0.000000 0.000000
# 2 -0.017800 0.031483 -0.008902 0.000000 0.000000 0.000000
# 3 -0.008902 -0.008902 0.023521 0.000000 0.000000 0.000000
# 4 0.000000 0.000000 0.000000 0.051114 0.000000 0.000000
# 5 0.000000 0.000000 0.000000 0.000000 0.051114 0.000000
# 6 0.000000 0.000000 0.000000 0.000000 0.000000 0.098568
#
#
# Mechanical properties :
#
#
# Convention : Reuss Voigt Hill
#
# Bulk Modulus (GPa) = 65.45562 65.53352 65.49457
# Shear Modulus (GPa) = 13.75188 15.00158 14.37673
#
# Velocity S-wave (km/s) = 3.15307 3.29322 3.22390
# Velocity P-wave (km/s) = 7.78309 7.86367 7.82348
#
# Compressibility (1/GPa) = 0.01527753
#
# Stress axis : x y z
#
# Youngs Moduli (GPa) = 31.76273 31.76273 42.51583
#
# Poissons Ratio (x) = 0.56539 0.37849
# Poissons Ratio (y) = 0.56539 0.37849
# Poissons Ratio (z) = 0.28276 0.28276
#
# Static dielectric constant tensor:
#      x y z
#    x 1.446700 0.000000 0.000000 
#    y 0.000000 1.446700 0.000000 
#    z 0.000000 0.000000 1.457000 
# 
# From -- ./inp_files/6070.got.cif
#   From: 2010.05.17/outbox.cif.g08.bks.cpg/sg191_4_cif.got.tgz:6070.got - 2010.05.20 12:20:32.
