data_PCOD9587847
_publ_section_title
;
Structure prediction by ZEFSAII (Michael W. Deem and Ramdas Pophale) SiO2 
 PCOD9587847
Probable space group: P 6/M M M
;
_chemical_formula_sum "Si O2"
_cell_formula_units_Z 120
_cell_length_a 18.681033
_cell_length_b 18.681033
_cell_length_c 26.959075
_cell_angle_alpha 90.000000
_cell_angle_beta 90.000000
_cell_angle_gamma 120.000000
_cell_volume 8147.744352
_symmetry_space_group_name_H-M "P 6/M M M"
_symmetry_group_IT_number 191
_symmetry_cell_setting 'hexagonal'
loop_
_space_group_symop_operation_xyz
x,y,z
x-y,x,z
-y,x-y,z
-x,-y,z
-x+y,-x,z
y,-x+y,z
x-y,-y,-z
-x,-x+y,-z
y,x,-z
-y,-x,-z
-x+y,y,-z
x,x-y,-z
-x,-y,-z
-x+y,-x,-z
y,-x+y,-z
x,y,-z
x-y,x,-z
-y,x-y,-z
-x+y,y,z
x,x-y,z
-y,-x,z
y,x,z
x-y,-y,z
-x,-x+y,z
loop_
_atom_site_type_symbol
_atom_site_label
_atom_site_fract_x
_atom_site_fract_y
_atom_site_fract_z
Si Si1 0.354586 0.259585 0.578497
Si Si2 0.834294 0.500401 0.233515
Si Si3 0.667197 0.502864 0.500000
Si Si4 0.744710 0.092072 0.695524
Si Si5 0.000000 0.413053 0.942902
Si Si6 0.332795 0.836109 0.116790
O O1 0.328739 0.164370 0.567226
O O2 0.287454 0.287454 0.566729
O O3 0.437251 0.315356 0.547127
O O4 0.371255 0.271722 0.637425
O O5 0.739796 0.479592 0.239828
O O6 0.842373 0.421187 0.245088
O O7 0.888978 0.576115 0.269411
O O8 0.854755 0.521333 0.175431
O O9 0.577719 0.422282 0.500000
O O10 0.739633 0.479267 0.500000
O O11 0.838052 0.161949 0.706118
O O12 0.725663 0.000000 0.703958
O O13 0.915933 0.349859 0.914732
O O14 0.000000 0.500000 0.942346
O O15 0.000000 0.389522 0.000000
O O16 0.410480 0.820959 0.108684
O O17 0.246886 0.753115 0.105278
#
# Coordination Sequence:
#
# PCOD9587847 Si02
#       6
#    24  24  12  24  12  24
#     4   9  18  32  48  66  88 115 146 181 221 265
#     4   9  17  28  43  63  87 115 146 180 215 254
#     4  10  20  33  48  65  88 118 153 188 222 257
#     4   9  18  31  46  65  89 116 146 179 219 265
#     4   9  18  30  42  60  86 112 141 180 222 256
#     4   9  17  29  45  63  85 115 150 183 216 257
#
# _framework density 14.728002
#
# number of rings (size 3 to 8) (size 9 to 14) (size 15 to 20)
#    0.000    2.900    0.000    0.800    1.400    4.000 
#    0.000    2.000    0.000    4.000    0.000    2.800 
#    0.000    2.400    0.000    0.500    0.000    1.300 
#
# Total GULP energy -668346.589059 kJ/mol
# GULP energy per Si atom -5569.554909 kJ/mol
# Density = 1.469448 g / cm^3
# Si number density = 14.728002 Si / 1000 Ang^3
#
#
#
# Elastic Constant Matrix: (Units=GPa)
#
#
# Indices 1 2 3 4 5 6 
#
# 1 93.9415 74.6523 53.1602 0.0000 0.0000 0.0000
# 2 74.6523 93.9415 53.1602 0.0000 0.0000 0.0000
# 3 53.1602 53.1602 56.9241 0.0000 0.0000 0.0000
# 4 0.0000 0.0000 0.0000 19.5796 0.0000 0.0000
# 5 0.0000 0.0000 0.0000 0.0000 19.5796 0.0000
# 6 0.0000 0.0000 0.0000 0.0000 0.0000 9.6446
#
#
#
# Elastic Compliance Matrix: (Units=1/GPa)
#
#
# Indices 1 2 3 4 5 6 
#
# 1 0.033136 -0.018707 -0.013475 0.000000 0.000000 0.000000
# 2 -0.018707 0.033136 -0.013475 0.000000 0.000000 0.000000
# 3 -0.013475 -0.013475 0.042736 0.000000 0.000000 0.000000
# 4 0.000000 0.000000 0.000000 0.051074 0.000000 0.000000
# 5 0.000000 0.000000 0.000000 0.000000 0.051074 0.000000
# 6 0.000000 0.000000 0.000000 0.000000 0.000000 0.103685
#
#
# Mechanical properties :
#
#
# Convention : Reuss Voigt Hill
#
# Bulk Modulus (GPa) = 56.51817 67.41695 61.96756
# Shear Modulus (GPa) = 12.13442 14.01640 13.07541
#
# Velocity S-wave (km/s) = 2.87348 3.08828 2.98282
# Velocity P-wave (km/s) = 7.03329 7.65446 7.35044
#
# Compressibility (1/GPa) = 0.01769342
#
# Stress axis : x y z
#
# Youngs Moduli (GPa) = 30.17878 30.17878 23.39963
#
# Poissons Ratio (x) = 0.56454 0.31532
# Poissons Ratio (y) = 0.56454 0.31532
# Poissons Ratio (z) = 0.40667 0.40667
#
# Static dielectric constant tensor:
#      x y z
#    x 1.471920 0.000000 0.000000 
#    y 0.000000 1.471920 0.000000 
#    z 0.000000 0.000000 1.496770 
# 
# From -- ./inp_files/9588.got.cif
#   From: 2010.05.17/outbox.cif.g08.bks.cpg/sg191_5_cif.got.tgz:9588.got - 2010.05.20 12:20:32.
