data_PCOD9587364
_publ_section_title
;
Structure prediction by ZEFSAII (Michael W. Deem and Ramdas Pophale) SiO2 
 PCOD9587364
Probable space group: P 6/M M M
;
_chemical_formula_sum "Si O2"
_cell_formula_units_Z 108
_cell_length_a 32.337653
_cell_length_b 32.337653
_cell_length_c 9.103638
_cell_angle_alpha 90.000000
_cell_angle_beta 90.000000
_cell_angle_gamma 120.000000
_cell_volume 8244.467393
_symmetry_space_group_name_H-M "P 6/M M M"
_symmetry_group_IT_number 191
_symmetry_cell_setting 'hexagonal'
loop_
_space_group_symop_operation_xyz
x,y,z
x-y,x,z
-y,x-y,z
-x,-y,z
-x+y,-x,z
y,-x+y,z
x-y,-y,-z
-x,-x+y,-z
y,x,-z
-y,-x,-z
-x+y,y,-z
x,x-y,-z
-x,-y,-z
-x+y,-x,-z
y,-x+y,-z
x,y,-z
x-y,x,-z
-y,x-y,-z
-x+y,y,z
x,x-y,z
-y,-x,z
y,x,z
x-y,-y,z
-x,-x+y,z
loop_
_atom_site_type_symbol
_atom_site_label
_atom_site_fract_x
_atom_site_fract_y
_atom_site_fract_z
Si Si1 0.470878 0.529122 0.330087
Si Si2 0.104411 0.304667 0.824662
Si Si3 0.943350 0.302154 0.675549
Si Si4 0.054351 0.202349 0.675048
Si Si5 0.387262 0.942017 0.831146
O O1 0.500000 0.500000 0.328097
O O2 0.463590 0.536411 0.500000
O O3 0.421341 0.495313 0.247902
O O4 0.158899 0.317798 0.792800
O O5 0.087512 0.338002 0.747416
O O6 0.071598 0.251213 0.762620
O O7 0.099010 0.305275 0.000000
O O8 0.938134 0.299837 0.500000
O O9 0.929494 0.339600 0.742939
O O10 0.000000 0.323561 0.707995
O O11 0.056727 0.212755 0.500000
O O12 0.092943 0.185885 0.705017
O O13 0.000000 0.164365 0.711068
O O14 0.417641 0.000000 0.832646
O O15 0.377362 0.925984 0.000000
#
# Coordination Sequence:
#
# PCOD9587364 Si02
#       5
#    12  24  24  24  24
#     4   9  15  23  35  51  73  99 127 159 191 221
#     4  10  20  31  42  57  76  97 122 154 191 230
#     4  10  19  29  41  57  76  98 125 157 193 231
#     4   9  17  29  44  60  77  97 120 146 180 225
#     4   9  16  25  37  53  73  98 127 158 191 223
#
# _framework density 13.099694
#
# number of rings (size 3 to 8) (size 9 to 14) (size 15 to 20)
#    0.000    2.556    0.000    3.000    0.000    9.778 
#    0.000    0.000    0.000    0.222    0.000    1.556 
#    0.000    0.000    0.000    5.556    0.000    5.778 
#
# Total GULP energy -601876.252147 kJ/mol
# GULP energy per Si atom -5572.928261 kJ/mol
# Density = 1.306988 g / cm^3
# Si number density = 13.099694 Si / 1000 Ang^3
#
#
#
# Elastic Constant Matrix: (Units=GPa)
#
#
# Indices 1 2 3 4 5 6 
#
# 1 95.3731 53.7858 55.3342 0.0000 0.0000 0.0000
# 2 53.7858 95.3731 55.3342 0.0000 0.0000 0.0000
# 3 55.3342 55.3342 81.9078 0.0000 0.0000 0.0000
# 4 0.0000 0.0000 0.0000 17.8588 0.0000 0.0000
# 5 0.0000 0.0000 0.0000 0.0000 17.8588 0.0000
# 6 0.0000 0.0000 0.0000 0.0000 0.0000 20.7936
#
#
#
# Elastic Compliance Matrix: (Units=1/GPa)
#
#
# Indices 1 2 3 4 5 6 
#
# 1 0.018744 -0.005302 -0.009081 0.000000 0.000000 0.000000
# 2 -0.005302 0.018744 -0.009081 0.000000 0.000000 0.000000
# 3 -0.009081 -0.009081 0.024478 0.000000 0.000000 0.000000
# 4 0.000000 0.000000 0.000000 0.055995 0.000000 0.000000
# 5 0.000000 0.000000 0.000000 0.000000 0.055995 0.000000
# 6 0.000000 0.000000 0.000000 0.000000 0.000000 0.048092
#
#
# Mechanical properties :
#
#
# Convention : Reuss Voigt Hill
#
# Bulk Modulus (GPa) = 66.49588 66.84027 66.66808
# Shear Modulus (GPa) = 18.24901 18.51555 18.38228
#
# Velocity S-wave (km/s) = 3.73646 3.76365 3.75008
# Velocity P-wave (km/s) = 8.33585 8.36790 8.35189
#
# Compressibility (1/GPa) = 0.01503853
#
# Stress axis : x y z
#
# Youngs Moduli (GPa) = 53.35103 53.35103 40.85262
#
# Poissons Ratio (x) = 0.28287 0.37097
# Poissons Ratio (y) = 0.28287 0.37097
# Poissons Ratio (z) = 0.48447 0.48447
#
# Static dielectric constant tensor:
#      x y z
#    x 1.410490 0.000000 0.000000 
#    y 0.000000 1.410490 0.000000 
#    z 0.000000 0.000000 1.438080 
# 
# From -- ./inp_files/1686.got.cif
#   From: 2010.05.17/outbox.cif.g08.bks.cpg/sg191_1_cif.got.tgz:1686.got - 2010.05.20 12:20:32.
