data_PCOD9587624
_publ_section_title
;
Structure prediction by ZEFSAII (Michael W. Deem and Ramdas Pophale) SiO2 
 PCOD9587624
Probable space group: P 6/M M M
;
_chemical_formula_sum "Si O2"
_cell_formula_units_Z 132
_cell_length_a 18.148570
_cell_length_b 18.148570
_cell_length_c 27.792656
_cell_angle_alpha 90.000000
_cell_angle_beta 90.000000
_cell_angle_gamma 120.000000
_cell_volume 7927.668936
_symmetry_space_group_name_H-M "P 6/M M M"
_symmetry_group_IT_number 191
_symmetry_cell_setting 'hexagonal'
loop_
_space_group_symop_operation_xyz
x,y,z
x-y,x,z
-y,x-y,z
-x,-y,z
-x+y,-x,z
y,-x+y,z
x-y,-y,-z
-x,-x+y,-z
y,x,-z
-y,-x,-z
-x+y,y,-z
x,x-y,-z
-x,-y,-z
-x+y,-x,-z
y,-x+y,-z
x,y,-z
x-y,x,-z
-y,x-y,-z
-x+y,y,z
x,x-y,z
-y,-x,z
y,x,z
x-y,-y,z
-x,-x+y,z
loop_
_atom_site_type_symbol
_atom_site_label
_atom_site_fract_x
_atom_site_fract_y
_atom_site_fract_z
Si Si1 0.370362 0.268164 0.000000
Si Si2 0.099011 0.365966 0.185641
Si Si3 0.161702 0.667440 0.272271
Si Si4 0.196708 0.803293 0.442413
Si Si5 0.102593 0.467561 0.905871
Si Si6 0.535424 0.898999 0.619163
Si Si7 0.097481 0.194962 0.441519
O O1 0.430223 0.307905 0.046723
O O2 0.302368 0.302368 0.000000
O O3 0.333465 0.166733 0.000000
O O4 0.166535 0.333069 0.186450
O O5 0.111341 0.419267 0.234237
O O6 0.124868 0.432977 0.141744
O O7 0.000000 0.295382 0.179809
O O8 0.148430 0.574215 0.262837
O O9 0.260430 0.739571 0.267880
O O10 0.132103 0.668466 0.326676
O O11 0.199858 0.800143 0.500000
O O12 0.289345 0.852797 0.419051
O O13 0.146868 0.853133 0.428531
O O14 0.136705 0.568353 0.906659
O O15 0.000000 0.422087 0.905236
O O16 0.440121 0.880241 0.610077
O O17 0.596653 0.000000 0.616741
O O18 0.146969 0.146969 0.424906
O O19 0.095804 0.191608 0.500000
#
# Coordination Sequence:
#
# PCOD9587624 Si02
#       7
#    12  24  24  12  24  24  12
#     4  10  19  31  49  72 101 141 186 228 269 315
#     4  10  20  33  52  78 106 137 176 221 265 309
#     4  10  19  33  54  80 107 135 165 204 252 306
#     4  11  22  37  54  77 104 136 173 211 254 303
#     4   9  17  30  49  73 100 132 171 213 259 313
#     4  10  21  37  56  77 103 136 173 212 255 305
#     4   9  17  30  51  78 106 134 164 203 251 304
#
# _framework density 16.650545000000001
#
# number of rings (size 3 to 8) (size 9 to 14) (size 15 to 20)
#    0.000    2.182    0.909    2.727    0.000    4.727 
#    0.545    0.909    0.000    6.455    0.000    0.000 
#    0.000    4.364    0.000    0.000    0.000    0.364 
#
# Total GULP energy -736175.360691 kJ/mol
# GULP energy per Si atom -5577.086066 kJ/mol
# Density = 1.661265 g / cm^3
# Si number density = 16.650545 Si / 1000 Ang^3
#
#
#
# Elastic Constant Matrix: (Units=GPa)
#
#
# Indices 1 2 3 4 5 6 
#
# 1 89.6448 63.6911 47.4974 0.0000 0.0000 0.0000
# 2 63.6911 89.6448 47.4974 0.0000 0.0000 0.0000
# 3 47.4974 47.4974 87.0064 0.0000 0.0000 0.0000
# 4 0.0000 0.0000 0.0000 19.0343 0.0000 0.0000
# 5 0.0000 0.0000 0.0000 0.0000 19.0343 0.0000
# 6 0.0000 0.0000 0.0000 0.0000 0.0000 12.9768
#
#
#
# Elastic Compliance Matrix: (Units=1/GPa)
#
#
# Indices 1 2 3 4 5 6 
#
# 1 0.024192 -0.014338 -0.005380 0.000000 0.000000 0.000000
# 2 -0.014338 0.024192 -0.005380 0.000000 0.000000 0.000000
# 3 -0.005380 -0.005380 0.017367 0.000000 0.000000 0.000000
# 4 0.000000 0.000000 0.000000 0.052537 0.000000 0.000000
# 5 0.000000 0.000000 0.000000 0.000000 0.052537 0.000000
# 6 0.000000 0.000000 0.000000 0.000000 0.000000 0.077060
#
#
# Mechanical properties :
#
#
# Convention : Reuss Voigt Hill
#
# Bulk Modulus (GPa) = 64.27822 64.85197 64.56509
# Shear Modulus (GPa) = 16.48721 17.38307 16.93514
#
# Velocity S-wave (km/s) = 3.15014 3.23460 3.19265
# Velocity P-wave (km/s) = 7.20550 7.27898 7.24234
#
# Compressibility (1/GPa) = 0.01555737
#
# Stress axis : x y z
#
# Youngs Moduli (GPa) = 41.33550 41.33550 57.58071
#
# Poissons Ratio (x) = 0.59266 0.30976
# Poissons Ratio (y) = 0.59266 0.30976
# Poissons Ratio (z) = 0.22237 0.22237
#
# Static dielectric constant tensor:
#      x y z
#    x 1.555440 0.000000 0.000000 
#    y 0.000000 1.555440 0.000000 
#    z 0.000000 0.000000 1.553010 
# 
# From -- ./inp_files/8728.got.cif
#   From: 2010.05.17/outbox.cif.g08.bks.cpg/sg191_5_cif.got.tgz:8728.got - 2010.05.20 12:20:32.
