data_PCOD9587533
_publ_section_title
;
Structure prediction by ZEFSAII (Michael W. Deem and Ramdas Pophale) SiO2 
 PCOD9587533
Probable space group: P 6/M M M
;
_chemical_formula_sum "Si O2"
_cell_formula_units_Z 168
_cell_length_a 17.927696
_cell_length_b 17.927696
_cell_length_c 36.893300
_cell_angle_alpha 90.000000
_cell_angle_beta 90.000000
_cell_angle_gamma 120.000000
_cell_volume 10268.974929
_symmetry_space_group_name_H-M "P 6/M M M"
_symmetry_group_IT_number 191
_symmetry_cell_setting 'hexagonal'
loop_
_space_group_symop_operation_xyz
x,y,z
x-y,x,z
-y,x-y,z
-x,-y,z
-x+y,-x,z
y,-x+y,z
x-y,-y,-z
-x,-x+y,-z
y,x,-z
-y,-x,-z
-x+y,y,-z
x,x-y,-z
-x,-y,-z
-x+y,-x,-z
y,-x+y,-z
x,y,-z
x-y,x,-z
-y,x-y,-z
-x+y,y,z
x,x-y,z
-y,-x,z
y,x,z
x-y,-y,z
-x,-x+y,z
loop_
_atom_site_type_symbol
_atom_site_label
_atom_site_fract_x
_atom_site_fract_y
_atom_site_fract_z
Si Si1 0.103936 0.636333 0.180155
Si Si2 0.367893 0.100232 0.610234
Si Si3 0.157238 0.489996 0.678839
Si Si4 0.467290 0.104366 0.459392
Si Si5 0.899464 0.269924 0.748751
Si Si6 0.632103 0.734685 0.110212
Si Si7 0.467185 0.362798 0.959434
O O1 0.138821 0.569411 0.180709
O O2 0.125307 0.693963 0.215893
O O3 0.125224 0.691820 0.143763
O O4 0.000000 0.578757 0.180185
O O5 0.333819 0.166910 0.615918
O O6 0.433155 0.115024 0.643042
O O7 0.422627 0.125280 0.573091
O O8 0.296239 0.000000 0.608788
O O9 0.257371 0.514742 0.678753
O O10 0.147888 0.573944 0.679753
O O11 0.114549 0.429678 0.713743
O O12 0.459490 0.132602 0.500000
O O13 0.567268 0.134535 0.452408
O O14 0.417809 0.000000 0.460087
O O15 0.831685 0.168316 0.745926
O O16 0.000000 0.298647 0.751418
O O17 0.673978 0.836989 0.112866
O O18 0.698144 0.698144 0.111114
O O19 0.577500 0.702389 0.073172
O O20 0.567010 0.432991 0.952468
O O21 0.417661 0.417661 0.960191
O O22 0.459327 0.326544 0.000000
#
# Coordination Sequence:
#
# PCOD9587533 Si02
#       7
#    24  24  24  24  24  24  24
#     4   9  17  30  49  71  92 115 146 184 227 278
#     4  10  20  32  47  68  93 122 157 197 238 278
#     4  10  20  33  50  73 100 127 153 184 226 277
#     4   8  14  26  45  68  92 117 146 181 222 271
#     4  10  20  33  50  72  97 127 163 201 237 272
#     4  10  19  30  46  68  93 122 158 199 238 275
#     4   8  14  26  45  67  88 111 142 181 226 277
#
# _framework density 16.359959
#
# number of rings (size 3 to 8) (size 9 to 14) (size 15 to 20)
#    0.000    2.714    0.000    3.143    0.000    4.571 
#    0.000    0.000    0.000    6.714    0.000    0.000 
#    0.000    6.857    0.000    7.143    0.000    0.571 
#
# Total GULP energy -935917.302292 kJ/mol
# GULP energy per Si atom -5570.936323 kJ/mol
# Density = 1.632272 g / cm^3
# Si number density = 16.359959 Si / 1000 Ang^3
#
#
#
# Elastic Constant Matrix: (Units=GPa)
#
#
# Indices 1 2 3 4 5 6 
#
# 1 83.1296 57.3690 39.5610 0.0000 0.0000 0.0000
# 2 57.3690 83.1296 39.5610 0.0000 0.0000 0.0000
# 3 39.5610 39.5610 114.6667 0.0000 0.0000 0.0000
# 4 0.0000 0.0000 0.0000 -35.0595 0.0000 0.0000
# 5 0.0000 0.0000 0.0000 0.0000 -35.0595 0.0000
# 6 0.0000 0.0000 0.0000 0.0000 0.0000 12.8803
#
#
#
# Elastic Compliance Matrix: (Units=1/GPa)
#
#
# Indices 1 2 3 4 5 6 
#
# 1 0.023826 -0.014993 -0.003048 0.000000 0.000000 0.000000
# 2 -0.014993 0.023826 -0.003048 0.000000 0.000000 0.000000
# 3 -0.003048 -0.003048 0.010824 0.000000 0.000000 0.000000
# 4 0.000000 0.000000 0.000000 -0.028523 0.000000 0.000000
# 5 0.000000 0.000000 0.000000 0.000000 -0.028523 0.000000
# 6 0.000000 0.000000 0.000000 0.000000 0.000000 0.077638
#
#
# Mechanical properties :
#
#
# Convention : Reuss Voigt Hill
#
# Bulk Modulus (GPa) = 61.34738 61.54534 61.44636
# Shear Modulus (GPa) = 39.47004 -1.81873 18.82566
#
# Velocity S-wave (km/s) = 4.91715 -1.05551 3.39590
# Velocity P-wave (km/s) = 8.35570 6.01795 7.28126
#
# Compressibility (1/GPa) = 0.01630062
#
# Stress axis : x y z
#
# Youngs Moduli (GPa) = 41.97025 41.97025 92.38782
#
# Poissons Ratio (x) = 0.62924 0.28158
# Poissons Ratio (y) = 0.62924 0.28158
# Poissons Ratio (z) = 0.12792 0.12792
#
# Static dielectric constant tensor:
#      x y z
#    x 1.540160 0.000000 0.000000 
#    y 0.000000 1.540160 0.000000 
#    z 0.000000 0.000000 1.564470 
# 
# From -- ./inp_files/10752.got.cif
#   From: 2010.05.17/outbox.cif.g08.bks.cpg/sg191_6_cif.got.tgz:10752.got - 2010.05.20 12:20:32.
