data_PCOD9587074
_publ_section_title
;
Structure prediction by ZEFSAII (Michael W. Deem and Ramdas Pophale) SiO2 
 PCOD9587074
Probable space group: P 6/M M M
;
_chemical_formula_sum "Si O2"
_cell_formula_units_Z 108
_cell_length_a 34.271794
_cell_length_b 34.271794
_cell_length_c 8.012612
_cell_angle_alpha 90.000000
_cell_angle_beta 90.000000
_cell_angle_gamma 120.000000
_cell_volume 8150.390597
_symmetry_space_group_name_H-M "P 6/M M M"
_symmetry_group_IT_number 191
_symmetry_cell_setting 'hexagonal'
loop_
_space_group_symop_operation_xyz
x,y,z
x-y,x,z
-y,x-y,z
-x,-y,z
-x+y,-x,z
y,-x+y,z
x-y,-y,-z
-x,-x+y,-z
y,x,-z
-y,-x,-z
-x+y,y,-z
x,x-y,-z
-x,-y,-z
-x+y,-x,-z
y,-x+y,-z
x,y,-z
x-y,x,-z
-y,x-y,-z
-x+y,y,z
x,x-y,z
-y,-x,z
y,x,z
x-y,-y,z
-x,-x+y,z
loop_
_atom_site_type_symbol
_atom_site_label
_atom_site_fract_x
_atom_site_fract_y
_atom_site_fract_z
Si Si1 0.482440 0.427436 0.500000
Si Si2 0.102433 0.293111 0.798302
Si Si3 0.948154 0.293200 0.697529
Si Si4 0.050758 0.188990 0.796238
Si Si5 0.376822 0.945244 0.815692
O O1 0.454479 0.454479 0.500000
O O2 0.534481 0.465520 0.500000
O O3 0.466724 0.396776 0.665123
O O4 0.152823 0.305645 0.745998
O O5 0.083366 0.324127 0.733361
O O6 0.069725 0.241001 0.747380
O O7 0.102007 0.294202 0.000000
O O8 0.949138 0.301498 0.500000
O O9 0.932982 0.325570 0.784701
O O10 0.000000 0.310332 0.750666
O O11 0.088082 0.176163 0.742852
O O12 0.000000 0.157173 0.737616
O O13 0.050232 0.188325 0.000000
O O14 0.404780 0.000000 0.811882
O O15 0.382333 0.930779 0.000000
#
# Coordination Sequence:
#
# PCOD9587074 Si02
#       5
#    12  24  24  24  24
#     4   9  16  26  38  54  77  98 122 158 192 226
#     4   9  17  27  38  53  70  89 118 153 188 232
#     4  10  18  27  39  54  73  96 123 155 190 232
#     4   8  13  21  33  48  65  84 108 140 178 224
#     4   9  16  26  39  54  73  98 127 157 190 227
#
# _framework density 13.250899
#
# number of rings (size 3 to 8) (size 9 to 14) (size 15 to 20)
#    0.000    3.000    1.111    2.667    0.000    3.111 
#    0.000    2.222    0.000    0.222    0.000    1.556 
#    0.000    0.000    0.000    0.000    0.000    0.000 
#
# Total GULP energy -601507.114949 kJ/mol
# GULP energy per Si atom -5569.510324 kJ/mol
# Density = 1.322074 g / cm^3
# Si number density = 13.250899 Si / 1000 Ang^3
#
#
#
# Elastic Constant Matrix: (Units=GPa)
#
#
# Indices 1 2 3 4 5 6 
#
# 1 71.1896 34.1358 30.0965 0.0000 0.0000 0.0000
# 2 34.1358 71.1896 30.0965 0.0000 0.0000 0.0000
# 3 30.0965 30.0965 60.4717 0.0000 0.0000 0.0000
# 4 0.0000 0.0000 0.0000 12.6464 0.0000 0.0000
# 5 0.0000 0.0000 0.0000 0.0000 12.6464 0.0000
# 6 0.0000 0.0000 0.0000 0.0000 0.0000 18.5269
#
#
#
# Elastic Compliance Matrix: (Units=1/GPa)
#
#
# Indices 1 2 3 4 5 6 
#
# 1 0.020128 -0.006860 -0.006604 0.000000 0.000000 0.000000
# 2 -0.006860 0.020128 -0.006604 0.000000 0.000000 0.000000
# 3 -0.006604 -0.006604 0.023110 0.000000 0.000000 0.000000
# 4 0.000000 0.000000 0.000000 0.079074 0.000000 0.000000
# 5 0.000000 0.000000 0.000000 0.000000 0.079074 0.000000
# 6 0.000000 0.000000 0.000000 0.000000 0.000000 0.053976
#
#
# Mechanical properties :
#
#
# Convention : Reuss Voigt Hill
#
# Bulk Modulus (GPa) = 43.04388 43.50093 43.27241
# Shear Modulus (GPa) = 15.46233 15.99876 15.73054
#
# Velocity S-wave (km/s) = 3.41968 3.47850 3.44921
# Velocity P-wave (km/s) = 6.93877 7.00237 6.97064
#
# Compressibility (1/GPa) = 0.02323211
#
# Stress axis : x y z
#
# Youngs Moduli (GPa) = 49.68193 49.68193 43.27168
#
# Poissons Ratio (x) = 0.34081 0.28575
# Poissons Ratio (y) = 0.34081 0.28575
# Poissons Ratio (z) = 0.32808 0.32808
#
# Static dielectric constant tensor:
#      x y z
#    x 1.414940 0.000000 0.000000 
#    y 0.000000 1.414940 0.000000 
#    z 0.000000 0.000000 1.480050 
# 
# From -- ./inp_files/1733.got.cif
#   From: 2010.05.17/outbox.cif.g08.bks.cpg/sg191_1_cif.got.tgz:1733.got - 2010.05.20 12:20:32.
