data_PCOD9587429
_publ_section_title
;
Structure prediction by ZEFSAII (Michael W. Deem and Ramdas Pophale) SiO2 
 PCOD9587429
Probable space group: P 6/M M M
;
_chemical_formula_sum "Si O2"
_cell_formula_units_Z 168
_cell_length_a 19.003809
_cell_length_b 19.003809
_cell_length_c 35.339360
_cell_angle_alpha 90.000000
_cell_angle_beta 90.000000
_cell_angle_gamma 120.000000
_cell_volume 11052.757090
_symmetry_space_group_name_H-M "P 6/M M M"
_symmetry_group_IT_number 191
_symmetry_cell_setting 'hexagonal'
loop_
_space_group_symop_operation_xyz
x,y,z
x-y,x,z
-y,x-y,z
-x,-y,z
-x+y,-x,z
y,-x+y,z
x-y,-y,-z
-x,-x+y,-z
y,x,-z
-y,-x,-z
-x+y,y,-z
x,x-y,-z
-x,-y,-z
-x+y,-x,-z
y,-x+y,-z
x,y,-z
x-y,x,-z
-y,x-y,-z
-x+y,y,z
x,x-y,z
-y,-x,z
y,x,z
x-y,-y,z
-x,-x+y,z
loop_
_atom_site_type_symbol
_atom_site_label
_atom_site_fract_x
_atom_site_fract_y
_atom_site_fract_z
Si Si1 0.092903 0.347801 0.188836
Si Si2 0.746314 0.092451 0.454763
Si Si3 0.168882 0.667956 0.596911
Si Si4 0.530234 0.901281 0.956981
Si Si5 0.368400 0.907121 0.677460
Si Si6 0.332052 0.831285 0.241922
Si Si7 0.906293 0.250068 0.099214
O O1 0.161956 0.323912 0.197534
O O2 0.117868 0.429718 0.211963
O O3 0.097391 0.363880 0.143759
O O4 0.000000 0.280847 0.197633
O O5 0.736806 0.096103 0.500000
O O6 0.838648 0.161353 0.445241
O O7 0.688394 0.118183 0.432995
O O8 0.719926 0.000000 0.445014
O O9 0.158167 0.579083 0.592058
O O10 0.262698 0.737303 0.593027
O O11 0.138487 0.673726 0.638906
O O12 0.436919 0.873838 0.948219
O O13 0.576726 0.878356 0.926358
O O14 0.578060 0.000000 0.957007
O O15 0.534990 0.875846 0.000000
O O16 0.454950 0.909899 0.677442
O O17 0.326421 0.861787 0.716079
O O18 0.389001 0.000000 0.677389
O O19 0.420907 0.841814 0.237108
O O20 0.262454 0.737547 0.238103
O O21 0.844552 0.155449 0.092616
O O22 0.000000 0.280499 0.090032
#
# Coordination Sequence:
#
# PCOD9587429 Si02
#       7
#    24  24  24  24  24  24  24
#     4   9  18  31  46  64  86 113 144 180 222 264
#     4   9  18  32  49  68  89 114 144 179 221 267
#     4  10  19  30  44  63  89 121 155 188 221 257
#     4   8  14  25  41  61  84 109 138 173 211 249
#     4   9  17  28  42  60  82 111 149 190 224 252
#     4  10  19  30  44  63  89 120 151 180 212 254
#     4   9  17  29  45  65  88 114 145 180 218 260
#
# _framework density 15.199828
#
# number of rings (size 3 to 8) (size 9 to 14) (size 15 to 20)
#    0.000    2.857    0.000    2.000    0.000    2.857 
#    0.000    3.571    0.000    1.571    0.000    3.000 
#    0.000    0.000    0.000    3.571    0.000   33.429 
#
# Total GULP energy -935299.094143 kJ/mol
# GULP energy per Si atom -5567.256513 kJ/mol
# Density = 1.516523 g / cm^3
# Si number density = 15.199828 Si / 1000 Ang^3
#
#
#
# Elastic Constant Matrix: (Units=GPa)
#
#
# Indices 1 2 3 4 5 6 
#
# 1 86.2870 60.2076 42.4873 0.0000 0.0000 0.0000
# 2 60.2076 86.2870 42.4873 0.0000 0.0000 0.0000
# 3 42.4873 42.4873 47.5131 0.0000 0.0000 0.0000
# 4 0.0000 0.0000 0.0000 20.1770 0.0000 0.0000
# 5 0.0000 0.0000 0.0000 0.0000 20.1770 0.0000
# 6 0.0000 0.0000 0.0000 0.0000 0.0000 13.0397
#
#
#
# Elastic Compliance Matrix: (Units=1/GPa)
#
#
# Indices 1 2 3 4 5 6 
#
# 1 0.026264 -0.012081 -0.012683 0.000000 0.000000 0.000000
# 2 -0.012081 0.026264 -0.012683 0.000000 0.000000 0.000000
# 3 -0.012683 -0.012683 0.043729 0.000000 0.000000 0.000000
# 4 0.000000 0.000000 0.000000 0.049561 0.000000 0.000000
# 5 0.000000 0.000000 0.000000 0.000000 0.049561 0.000000
# 6 0.000000 0.000000 0.000000 0.000000 0.000000 0.076689
#
#
# Mechanical properties :
#
#
# Convention : Reuss Voigt Hill
#
# Bulk Modulus (GPa) = 46.80730 56.71684 51.76207
# Shear Modulus (GPa) = 14.12107 15.67240 14.89673
#
# Velocity S-wave (km/s) = 3.05130 3.21454 3.13399
# Velocity P-wave (km/s) = 6.57840 7.15352 6.87198
#
# Compressibility (1/GPa) = 0.02136419
#
# Stress axis : x y z
#
# Youngs Moduli (GPa) = 38.07551 38.07551 22.86822
#
# Poissons Ratio (x) = 0.45999 0.29003
# Poissons Ratio (y) = 0.45999 0.29003
# Poissons Ratio (z) = 0.48289 0.48289
#
# Static dielectric constant tensor:
#      x y z
#    x 1.500900 0.000000 0.000000 
#    y 0.000000 1.500900 0.000000 
#    z 0.000000 0.000000 1.505630 
# 
# From -- ./inp_files/10758.got.cif
#   From: 2010.05.17/outbox.cif.g08.bks.cpg/sg191_6_cif.got.tgz:10758.got - 2010.05.20 12:20:32.
