data_PCOD9587397
_publ_section_title
;
Structure prediction by ZEFSAII (Michael W. Deem and Ramdas Pophale) SiO2 
 PCOD9587397
Probable space group: P 6/M M M
;
_chemical_formula_sum "Si O2"
_cell_formula_units_Z 132
_cell_length_a 22.719786
_cell_length_b 22.719786
_cell_length_c 18.663789
_cell_angle_alpha 90.000000
_cell_angle_beta 90.000000
_cell_angle_gamma 120.000000
_cell_volume 8343.320377
_symmetry_space_group_name_H-M "P 6/M M M"
_symmetry_group_IT_number 191
_symmetry_cell_setting 'hexagonal'
loop_
_space_group_symop_operation_xyz
x,y,z
x-y,x,z
-y,x-y,z
-x,-y,z
-x+y,-x,z
y,-x+y,z
x-y,-y,-z
-x,-x+y,-z
y,x,-z
-y,-x,-z
-x+y,y,-z
x,x-y,-z
-x,-y,-z
-x+y,-x,-z
y,-x+y,-z
x,y,-z
x-y,x,-z
-y,x-y,-z
-x+y,y,z
x,x-y,z
-y,-x,z
y,x,z
x-y,-y,z
-x,-x+y,z
loop_
_atom_site_type_symbol
_atom_site_label
_atom_site_fract_x
_atom_site_fract_y
_atom_site_fract_z
Si Si1 0.336025 0.918555 0.654257
Si Si2 0.806425 0.472688 0.919602
Si Si3 0.541460 0.082920 0.416209
Si Si4 0.787786 0.709420 0.586184
Si Si5 0.212389 0.923627 0.917900
Si Si6 0.411109 0.134982 0.809943
O O1 0.386075 0.893850 0.621747
O O2 0.268934 0.902060 0.608886
O O3 0.310782 0.894149 0.734447
O O4 0.380609 0.000000 0.654247
O O5 0.730975 0.461949 0.914438
O O6 0.803999 0.402000 0.911179
O O7 0.850792 0.525901 0.859826
O O8 0.831460 0.499136 0.000000
O O9 0.551158 0.102315 0.500000
O O10 0.500000 0.000000 0.414170
O O11 0.789920 0.712892 0.500000
O O12 0.862313 0.724626 0.611527
O O13 0.760143 0.760143 0.611139
O O14 0.134537 0.865464 0.908948
O O15 0.254949 0.910513 0.857732
O O16 0.227748 0.000000 0.911641
O O17 0.231761 0.915455 0.000000
O O18 0.412885 0.206443 0.798688
#
# Coordination Sequence:
#
# PCOD9587397 Si02
#       6
#    24  24  12  24  24  24
#     4  10  19  30  46  67  92 122 153 194 242 288
#     4   9  17  29  45  63  85 116 154 193 229 268
#     4   9  18  32  48  66  89 119 155 191 232 286
#     4   9  17  30  49  72  98 127 160 198 241 290
#     4   9  17  30  48  68  92 125 163 200 240 290
#     4  10  19  29  44  67  94 120 151 192 237 280
#
# _framework density 15.82104
#
# number of rings (size 3 to 8) (size 9 to 14) (size 15 to 20)
#    0.000    2.636    0.000    2.364    1.273    5.091 
#    0.000    0.000    0.000    0.364    0.000    6.364 
#    0.909    0.000    1.091    5.818    0.000    8.000 
#
# Total GULP energy -734949.267974 kJ/mol
# GULP energy per Si atom -5567.797485 kJ/mol
# Density = 1.578503 g / cm^3
# Si number density = 15.821040 Si / 1000 Ang^3
#
#
#
# Elastic Constant Matrix: (Units=GPa)
#
#
# Indices 1 2 3 4 5 6 
#
# 1 72.3721 40.8258 37.9460 0.0000 0.0000 0.0000
# 2 40.8258 72.3721 37.9460 0.0000 0.0000 0.0000
# 3 37.9460 37.9460 71.8616 0.0000 0.0000 0.0000
# 4 0.0000 0.0000 0.0000 18.5922 0.0000 0.0000
# 5 0.0000 0.0000 0.0000 0.0000 18.5922 0.0000
# 6 0.0000 0.0000 0.0000 0.0000 0.0000 15.7731
#
#
#
# Elastic Compliance Matrix: (Units=1/GPa)
#
#
# Indices 1 2 3 4 5 6 
#
# 1 0.022687 -0.009012 -0.007221 0.000000 0.000000 0.000000
# 2 -0.009012 0.022687 -0.007221 0.000000 0.000000 0.000000
# 3 -0.007221 -0.007221 0.021542 0.000000 0.000000 0.000000
# 4 0.000000 0.000000 0.000000 0.053786 0.000000 0.000000
# 5 0.000000 0.000000 0.000000 0.000000 0.053786 0.000000
# 6 0.000000 0.000000 0.000000 0.000000 0.000000 0.063399
#
#
# Mechanical properties :
#
#
# Convention : Reuss Voigt Hill
#
# Bulk Modulus (GPa) = 49.98029 50.00458 49.99243
# Shear Modulus (GPa) = 17.15467 17.25071 17.20269
#
# Velocity S-wave (km/s) = 3.29643 3.30565 3.30105
# Velocity P-wave (km/s) = 6.79325 6.80035 6.79680
#
# Compressibility (1/GPa) = 0.02000789
#
# Stress axis : x y z
#
# Youngs Moduli (GPa) = 44.07723 44.07723 46.42123
#
# Poissons Ratio (x) = 0.39722 0.33522
# Poissons Ratio (y) = 0.39722 0.33522
# Poissons Ratio (z) = 0.31829 0.31829
#
# Static dielectric constant tensor:
#      x y z
#    x 1.524310 0.000000 0.000000 
#    y 0.000000 1.524310 0.000000 
#    z 0.000000 0.000000 1.557110 
# 
# From -- ./inp_files/4975.got.cif
#   From: 2010.05.17/outbox.cif.g08.bks.cpg/sg191_3_cif.got.tgz:4975.got - 2010.05.20 12:20:32.
