data_PCOD9587127
_publ_section_title
;
Structure prediction by ZEFSAII (Michael W. Deem and Ramdas Pophale) SiO2 
 PCOD9587127
Probable space group: P 6/M M M
;
_chemical_formula_sum "Si O2"
_cell_formula_units_Z 168
_cell_length_a 23.451111
_cell_length_b 23.451111
_cell_length_c 23.155616
_cell_angle_alpha 90.000000
_cell_angle_beta 90.000000
_cell_angle_gamma 120.000000
_cell_volume 11028.433154
_symmetry_space_group_name_H-M "P 6/M M M"
_symmetry_group_IT_number 191
_symmetry_cell_setting 'hexagonal'
loop_
_space_group_symop_operation_xyz
x,y,z
x-y,x,z
-y,x-y,z
-x,-y,z
-x+y,-x,z
y,-x+y,z
x-y,-y,-z
-x,-x+y,-z
y,x,-z
-y,-x,-z
-x+y,y,-z
x,x-y,-z
-x,-y,-z
-x+y,-x,-z
y,-x+y,-z
x,y,-z
x-y,x,-z
-y,x-y,-z
-x+y,y,z
x,x-y,z
-y,-x,z
y,x,z
x-y,-y,z
-x,-x+y,z
loop_
_atom_site_type_symbol
_atom_site_label
_atom_site_fract_x
_atom_site_fract_y
_atom_site_fract_z
Si Si1 0.854826 0.279457 0.840348
Si Si2 0.265273 0.392054 0.435794
Si Si3 0.465259 0.666305 0.253771
Si Si4 0.721234 0.926506 0.652755
Si Si5 0.394515 0.473198 0.067964
Si Si6 0.665988 0.199250 0.608608
Si Si7 0.206049 0.281289 0.789638
O O1 0.784393 0.215608 0.854682
O O2 0.842607 0.313464 0.784624
O O3 0.882853 0.331925 0.891489
O O4 0.903064 0.251987 0.823218
O O5 0.273780 0.372083 0.500000
O O6 0.196909 0.393817 0.435131
O O7 0.255010 0.340134 0.386515
O O8 0.320538 0.466516 0.421939
O O9 0.446486 0.723243 0.244500
O O10 0.404346 0.595655 0.237695
O O11 0.477499 0.666271 0.322227
O O12 0.736887 0.868444 0.639035
O O13 0.704227 0.920511 0.720779
O O14 0.780512 0.000000 0.642741
O O15 0.452328 0.547673 0.081087
O O16 0.427497 0.427497 0.076549
O O17 0.378341 0.470298 0.000000
O O18 0.598037 0.196074 0.593025
O O19 0.728002 0.271999 0.596255
O O20 0.130383 0.260766 0.801769
O O21 0.227538 0.227538 0.802686
#
# Coordination Sequence:
#
# PCOD9587127 Si02
#       7
#    24  24  24  24  24  24  24
#     4  10  18  27  43  66  89 113 142 178 219 259
#     4   9  17  28  41  58  81 108 138 173 211 250
#     4   9  16  25  38  57  82 111 142 177 217 259
#     4   9  17  30  48  68  89 112 138 168 203 246
#     4   9  18  32  47  61  81 113 151 188 223 258
#     4   9  16  26  40  58  81 109 142 180 221 260
#     4   9  17  29  46  68  92 115 138 168 208 252
#
# _framework density 15.233352
#
# number of rings (size 3 to 8) (size 9 to 14) (size 15 to 20)
#    0.000    2.857    0.000    2.429    0.000    5.429 
#    0.000    0.000    0.000    1.857    0.000    7.000 
#    0.000    0.000    0.000    3.571    0.000    3.714 
#
# Total GULP energy -935779.715861 kJ/mol
# GULP energy per Si atom -5570.117356 kJ/mol
# Density = 1.519868 g / cm^3
# Si number density = 15.233352 Si / 1000 Ang^3
#
#
#
# Elastic Constant Matrix: (Units=GPa)
#
#
# Indices 1 2 3 4 5 6 
#
# 1 77.5813 44.2978 32.5143 0.0000 0.0000 0.0000
# 2 44.2978 77.5813 32.5143 0.0000 0.0000 0.0000
# 3 32.5143 32.5143 33.8665 0.0000 0.0000 0.0000
# 4 0.0000 0.0000 0.0000 16.2144 0.0000 0.0000
# 5 0.0000 0.0000 0.0000 0.0000 16.2144 0.0000
# 6 0.0000 0.0000 0.0000 0.0000 0.0000 16.6417
#
#
#
# Elastic Compliance Matrix: (Units=1/GPa)
#
#
# Indices 1 2 3 4 5 6 
#
# 1 0.023433 -0.006612 -0.016150 0.000000 0.000000 0.000000
# 2 -0.006612 0.023433 -0.016150 0.000000 0.000000 0.000000
# 3 -0.016150 -0.016150 0.060538 0.000000 0.000000 0.000000
# 4 0.000000 0.000000 0.000000 0.061674 0.000000 0.000000
# 5 0.000000 0.000000 0.000000 0.000000 0.061674 0.000000
# 6 0.000000 0.000000 0.000000 0.000000 0.000000 0.060090
#
#
# Mechanical properties :
#
#
# Convention : Reuss Voigt Hill
#
# Bulk Modulus (GPa) = 33.80511 45.29799 39.55155
# Shear Modulus (GPa) = 13.20914 15.12761 14.16838
#
# Velocity S-wave (km/s) = 2.94788 3.15470 3.05305
# Velocity P-wave (km/s) = 5.81605 6.56279 6.20067
#
# Compressibility (1/GPa) = 0.02958133
#
# Stress axis : x y z
#
# Youngs Moduli (GPa) = 42.67430 42.67430 16.51854
#
# Poissons Ratio (x) = 0.28215 0.26677
# Poissons Ratio (y) = 0.28215 0.26677
# Poissons Ratio (z) = 0.68919 0.68919
#
# Static dielectric constant tensor:
#      x y z
#    x 1.496030 0.000000 0.000000 
#    y 0.000000 1.496030 0.000000 
#    z 0.000000 0.000000 1.501350 
# 
# From -- ./inp_files/7890.got.cif
#   From: 2010.05.17/outbox.cif.g08.bks.cpg/sg191_4_cif.got.tgz:7890.got - 2010.05.20 12:20:32.
