data_PCOD9587009
_publ_section_title
;
Structure prediction by ZEFSAII (Michael W. Deem and Ramdas Pophale) SiO2 
 PCOD9587009
Probable space group: P -6 2 C
;
_chemical_formula_sum "Si O2"
_cell_formula_units_Z 36
_cell_length_a 8.860572
_cell_length_b 8.860572
_cell_length_c 27.980667
_cell_angle_alpha 90.000000
_cell_angle_beta 90.000000
_cell_angle_gamma 120.000000
_cell_volume 1902.445449
_symmetry_space_group_name_H-M "P -6 2 C"
_symmetry_group_IT_number 190
_symmetry_cell_setting 'hexagonal'
loop_
_space_group_symop_operation_xyz
x,y,z
-x+y,-x,1/2-z
-y,x-y,z
x,y,1/2-z
-x+y,-x,z
-y,x-y,1/2-z
x-y,-y,-z
-x,-x+y,-z
y,x,-z
y,x,1/2+z
x-y,-y,1/2+z
-x,-x+y,1/2+z
loop_
_atom_site_type_symbol
_atom_site_label
_atom_site_fract_x
_atom_site_fract_y
_atom_site_fract_z
Si Si1 0.336970 0.002515 0.095953
Si Si2 0.471833 0.129947 0.804032
Si Si3 0.331307 0.329978 0.557169
O O1 0.371644 0.187577 0.077935
O O2 0.345154 0.988204 0.153149
O O3 0.149590 0.853672 0.077639
O O4 0.479993 0.961496 0.073813
O O5 0.673525 0.174808 0.808916
O O6 0.413175 0.068696 0.750000
O O7 0.322243 0.322243 0.500000
#
# Coordination Sequence:
#
# PCOD9587009 Si02
#       3
#    12  12  12
#     4  12  23  42  61  93 122 164 207 253 308 361
#     4   8  15  35  66  91 116 157 197 246 314 368
#     4  12  24  39  61  87 126 166 209 252 302 362
#
# _framework density 18.923010999999999
#
# number of rings (size 3 to 8) (size 9 to 14) (size 15 to 20)
#    0.667    0.667    3.333    5.000    0.000    0.000 
#    0.000    3.333    0.000    0.000    0.000    0.000 
#    0.000    0.000    0.000    0.000    0.000    0.000 
#
# Total GULP energy -200964.485917 kJ/mol
# GULP energy per Si atom -5582.346831 kJ/mol
# Density = 1.887994 g / cm^3
# Si number density = 18.923011 Si / 1000 Ang^3
#
#
#
# Elastic Constant Matrix: (Units=GPa)
#
#
# Indices 1 2 3 4 5 6 
#
# 1 -20.4763 50.2777 26.9429 0.0000 0.0000 -0.0001
# 2 50.2777 -20.4763 26.9429 0.0000 0.0000 0.0001
# 3 26.9429 26.9429 210.9830 0.0000 0.0000 0.0000
# 4 0.0000 0.0000 0.0000 6.4625 0.0000 0.0000
# 5 0.0000 0.0000 0.0000 0.0000 6.4625 0.0000
# 6 -0.0001 0.0001 0.0000 0.0000 0.0000 -35.3769
#
#
#
# Elastic Compliance Matrix: (Units=1/GPa)
#
#
# Indices 1 2 3 4 5 6 
#
# 1 0.014748 0.028882 -0.005572 0.000000 0.000000 0.000000
# 2 0.028882 0.014748 -0.005572 0.000000 0.000000 0.000000
# 3 -0.005572 -0.005572 0.006163 0.000000 0.000000 0.000000
# 4 0.000000 0.000000 0.000000 0.154738 0.000000 0.000000
# 5 0.000000 0.000000 0.000000 0.000000 0.154738 0.000000
# 6 0.000000 0.000000 0.000000 0.000000 0.000000 -0.028267
#
#
# Mechanical properties :
#
#
# Convention : Reuss Voigt Hill
#
# Bulk Modulus (GPa) = 14.05757 42.03972 28.04865
# Shear Modulus (GPa) = 16.38789 -0.09925 8.14432
#
# Velocity S-wave (km/s) = 2.94603 -0.22926 2.07684
# Velocity P-wave (km/s) = 4.36086 4.71109 4.53935
#
# Compressibility (1/GPa) = 0.07113603
#
# Stress axis : x y z
#
# Youngs Moduli (GPa) = 67.80485 67.80486 162.26572
#
# Poissons Ratio (x) = -1.95832 0.90408
# Poissons Ratio (y) = -1.95832 0.90408
# Poissons Ratio (z) = 0.37778 0.37778
#
# Static dielectric constant tensor:
#      x y z
#    x 1.726040 0.000000 0.000000 
#    y 0.000000 1.726040 0.000000 
#    z 0.000000 0.000000 1.646950 
# 
# From -- ./inp_files/4794.got.cif
#   From: 2010.05.17/outbox.cif.g08.bks.cpg/sg190_3_cif.got.tgz:4794.got - 2010.05.20 12:16:56.
