data_PCOD9587611
_publ_section_title
;
Structure prediction by ZEFSAII (Michael W. Deem and Ramdas Pophale) SiO2 
 PCOD9587611
Probable space group: P 6/M M M
;
_chemical_formula_sum "Si O2"
_cell_formula_units_Z 120
_cell_length_a 17.732713
_cell_length_b 17.732713
_cell_length_c 28.181559
_cell_angle_alpha 90.000000
_cell_angle_beta 90.000000
_cell_angle_gamma 120.000000
_cell_volume 7674.428011
_symmetry_space_group_name_H-M "P 6/M M M"
_symmetry_group_IT_number 191
_symmetry_cell_setting 'hexagonal'
loop_
_space_group_symop_operation_xyz
x,y,z
x-y,x,z
-y,x-y,z
-x,-y,z
-x+y,-x,z
y,-x+y,z
x-y,-y,-z
-x,-x+y,-z
y,x,-z
-y,-x,-z
-x+y,y,-z
x,x-y,-z
-x,-y,-z
-x+y,-x,-z
y,-x+y,-z
x,y,-z
x-y,x,-z
-y,x-y,-z
-x+y,y,z
x,x-y,z
-y,-x,z
y,x,z
x-y,-y,z
-x,-x+y,z
loop_
_atom_site_type_symbol
_atom_site_label
_atom_site_fract_x
_atom_site_fract_y
_atom_site_fract_z
Si Si1 0.098371 0.726691 0.906812
Si Si2 0.273991 0.900531 0.280243
Si Si3 0.156181 0.488776 0.000000
Si Si4 0.154630 0.667931 0.624569
Si Si5 0.408613 0.000000 0.445965
Si Si6 0.843887 0.511297 0.813606
O O1 0.172040 0.827961 0.906750
O O2 0.114833 0.684171 0.953320
O O3 0.114972 0.683915 0.860456
O O4 0.000000 0.706164 0.906725
O O5 0.172046 0.827955 0.279823
O O6 0.315824 0.879930 0.325766
O O7 0.315661 0.885466 0.232934
O O8 0.297439 0.000000 0.282245
O O9 0.258011 0.516022 0.000000
O O10 0.145471 0.572736 0.000000
O O11 0.159433 0.579717 0.627225
O O12 0.249177 0.750824 0.615551
O O13 0.085734 0.655407 0.583786
O O14 0.500000 0.000000 0.447596
O O15 0.380748 0.000000 0.500000
O O16 0.742056 0.484112 0.813503
O O17 0.854526 0.427263 0.813392
#
# Coordination Sequence:
#
# PCOD9587611 Si02
#       6
#    24  24  12  24  12  24
#     4  10  21  35  50  70  94 124 160 201 247 290
#     4  10  20  33  50  72  97 127 160 198 242 288
#     4  10  20  33  50  71  98 130 163 196 232 277
#     4  10  19  31  48  70  97 128 163 200 240 284
#     4   9  18  32  48  66  92 126 161 198 238 278
#     4  10  20  32  48  71 101 133 164 196 233 278
#
# _framework density 15.636343999999999
#
# number of rings (size 3 to 8) (size 9 to 14) (size 15 to 20)
#    0.000    2.100    1.000    2.600    0.000    4.400 
#    0.000    4.000    0.000    1.600    0.000    0.000 
#    0.000    7.200    0.000    0.000    0.000    9.900 
#
# Total GULP energy -669641.838328 kJ/mol
# GULP energy per Si atom -5580.348653 kJ/mol
# Density = 1.560075 g / cm^3
# Si number density = 15.636344 Si / 1000 Ang^3
#
#
#
# Elastic Constant Matrix: (Units=GPa)
#
#
# Indices 1 2 3 4 5 6 
#
# 1 104.2079 87.3264 51.7654 0.0000 0.0000 0.0000
# 2 87.3264 104.2079 51.7654 0.0000 0.0000 0.0000
# 3 51.7654 51.7654 142.3378 0.0000 0.0000 0.0000
# 4 0.0000 0.0000 0.0000 15.2597 0.0000 0.0000
# 5 0.0000 0.0000 0.0000 0.0000 15.2597 0.0000
# 6 0.0000 0.0000 0.0000 0.0000 0.0000 8.4408
#
#
#
# Elastic Compliance Matrix: (Units=1/GPa)
#
#
# Indices 1 2 3 4 5 6 
#
# 1 0.032867 -0.026369 -0.002363 0.000000 0.000000 0.000000
# 2 -0.026369 0.032867 -0.002363 0.000000 0.000000 0.000000
# 3 -0.002363 -0.002363 0.008745 0.000000 0.000000 0.000000
# 4 0.000000 0.000000 0.000000 0.065532 0.000000 0.000000
# 5 0.000000 0.000000 0.000000 0.000000 0.065532 0.000000
# 6 0.000000 0.000000 0.000000 0.000000 0.000000 0.118473
#
#
# Mechanical properties :
#
#
# Convention : Reuss Voigt Hill
#
# Bulk Modulus (GPa) = 81.37989 81.38533 81.38261
# Shear Modulus (GPa) = 12.81053 18.45179 15.63116
#
# Velocity S-wave (km/s) = 2.86541 3.43892 3.16518
# Velocity P-wave (km/s) = 7.94391 8.24197 8.09431
#
# Compressibility (1/GPa) = 0.01228805
#
# Stress axis : x y z
#
# Youngs Moduli (GPa) = 30.42526 30.42526 114.35688
#
# Poissons Ratio (x) = 0.80228 0.27027
# Poissons Ratio (y) = 0.80228 0.27027
# Poissons Ratio (z) = 0.07191 0.07191
#
# Static dielectric constant tensor:
#      x y z
#    x 1.503470 0.000000 0.000000 
#    y 0.000000 1.503470 0.000000 
#    z 0.000000 0.000000 1.519650 
# 
# From -- ./inp_files/8551.got.cif
#   From: 2010.05.17/outbox.cif.g08.bks.cpg/sg191_5_cif.got.tgz:8551.got - 2010.05.20 12:20:32.
