data_PCOD9587016
_publ_section_title
;
Structure prediction by ZEFSAII (Michael W. Deem and Ramdas Pophale) SiO2 
 PCOD9587016
Probable space group: P -6 2 C
;
_chemical_formula_sum "Si O2"
_cell_formula_units_Z 64
_cell_length_a 15.000000
_cell_length_b 15.000000
_cell_length_c 18.000000
_cell_angle_alpha 90.000000
_cell_angle_beta 90.000000
_cell_angle_gamma 120.000000
_cell_volume 3507.402885
_symmetry_space_group_name_H-M "P -6 2 C"
_symmetry_group_IT_number 190
_symmetry_cell_setting 'hexagonal'
loop_
_space_group_symop_operation_xyz
x,y,z
-x+y,-x,1/2-z
-y,x-y,z
x,y,1/2-z
-x+y,-x,z
-y,x-y,1/2-z
x-y,-y,-z
-x,-x+y,-z
y,x,-z
y,x,1/2+z
x-y,-y,1/2+z
-x,-x+y,1/2+z
loop_
_atom_site_type_symbol
_atom_site_label
_atom_site_fract_x
_atom_site_fract_y
_atom_site_fract_z
Si Si1 0.428737 0.518981 0.340591
Si Si2 0.765624 0.873659 0.409758
Si Si3 0.752338 0.885913 0.585684
Si Si4 0.249746 0.798929 0.161570
Si Si5 0.333334 0.666668 0.840028
Si Si6 0.549954 0.870206 0.659622
O O1 0.430097 0.516620 0.250000
O O2 0.511480 0.634483 0.365986
O O3 0.319387 0.506680 0.364822
O O4 0.443618 0.422546 0.363214
O O5 0.734922 0.867173 0.496871
O O6 0.820459 0.807078 0.393874
O O7 0.666183 0.825773 0.358984
O O8 0.833699 0.995729 0.397887
O O9 0.646478 0.864038 0.624957
O O10 0.259086 0.793637 0.250000
O O11 0.333334 0.666668 0.750000
O O12 0.330123 0.559966 0.861877
O O13 0.557597 0.870733 0.750000
#
# Coordination Sequence:
#
# PCOD9587016 Si02
#       6
#    12  12  12  12   4  12
#     4   9  18  32  54  84 116 145 181 231 285 337
#     4  10  21  37  58  82 111 148 187 229 290 341
#     4  10  21  38  58  80 112 147 188 232 283 350
#     4  10  19  34  57  86 113 144 185 231 284 342
#     4   9  21  36  54  78 111 153 193 227 280 342
#     4  10  20  37  58  82 112 151 192 234 281 340
#
# _framework density 18.247119999999999
#
# number of rings (size 3 to 8) (size 9 to 14) (size 15 to 20)
#    0.000    2.250    1.875    0.750    2.625    3.750 
#    0.000    1.875    0.000    2.250    0.000    0.000 
#    0.000    0.000    0.000    0.000    0.000    0.000 
#
# Total GULP energy -356531.982980 kJ/mol
# GULP energy per Si atom -5570.812234 kJ/mol
# Density = 1.820559 g / cm^3
# Si number density = 18.247120 Si / 1000 Ang^3
#
#
#
# Elastic Constant Matrix: (Units=GPa)
#
#
# Indices 1 2 3 4 5 6 
#
# 1 111.1993 35.9344 15.2626 0.0001 0.0000 0.0000
# 2 35.9344 111.1997 15.2628 0.0000 0.0000 0.0002
# 3 15.2626 15.2628 -1.5511 0.0000 0.0000 0.0000
# 4 0.0001 0.0000 0.0000 19.4098 0.0000 0.0000
# 5 0.0000 0.0000 0.0000 0.0000 19.4096 0.0000
# 6 0.0000 0.0002 0.0000 0.0000 0.0000 37.6328
#
#
#
# Elastic Compliance Matrix: (Units=1/GPa)
#
#
# Indices 1 2 3 4 5 6 
#
# 1 0.007761 -0.005526 0.021988 0.000000 0.000000 0.000000
# 2 -0.005526 0.007760 0.021989 0.000000 0.000000 0.000000
# 3 0.021988 0.021989 -0.211970 0.000000 0.000000 0.000000
# 4 0.000000 0.000000 0.000000 0.051520 0.000000 0.000000
# 5 0.000000 0.000000 0.000000 0.000000 0.051521 0.000000
# 6 0.000000 0.000000 0.000000 0.000000 0.000000 0.026573
#
#
# Mechanical properties :
#
#
# Convention : Reuss Voigt Hill
#
# Bulk Modulus (GPa) = -8.36489 39.30749 15.47130
# Shear Modulus (GPa) = -27.23513 25.58298 -0.82608
#
# Velocity S-wave (km/s) = -3.86757 3.74843 -0.67357
# Velocity P-wave (km/s) = 4.95362 6.35002 2.80931
#
# Compressibility (1/GPa) = -0.11954734
#
# Stress axis : x y z
#
# Youngs Moduli (GPa) = 128.85643 128.85819 -4.71764
#
# Poissons Ratio (x) = 0.71205 0.10373
# Poissons Ratio (y) = 0.71204 0.10373
# Poissons Ratio (z) = -2.83332 -2.83341
#
# Static dielectric constant tensor:
#      x y z
#    x 1.627430 0.000000 0.000000 
#    y 0.000000 1.627430 0.000000 
#    z 0.000000 0.000000 1.623520 
# 
# From -- ./inp_files/3689.got.cif
#   From: 2010.05.17/outbox.ucp.g08.bks.cvg/sg190_2_cif.got.tgz:3689.got - 2010.06.11 15:22:26.
