data_PCOD9587732
_publ_section_title
;
Structure prediction by ZEFSAII (Michael W. Deem and Ramdas Pophale) SiO2 
 PCOD9587732
Probable space group: P 6/M M M
;
_chemical_formula_sum "Si O2"
_cell_formula_units_Z 100
_cell_length_a 27.346390
_cell_length_b 27.346390
_cell_length_c 7.432629
_cell_angle_alpha 90.000000
_cell_angle_beta 90.000000
_cell_angle_gamma 120.000000
_cell_volume 4813.634305
_symmetry_space_group_name_H-M "P 6/M M M"
_symmetry_group_IT_number 191
_symmetry_cell_setting 'hexagonal'
loop_
_space_group_symop_operation_xyz
x,y,z
x-y,x,z
-y,x-y,z
-x,-y,z
-x+y,-x,z
y,-x+y,z
x-y,-y,-z
-x,-x+y,-z
y,x,-z
-y,-x,-z
-x+y,y,-z
x,x-y,-z
-x,-y,-z
-x+y,-x,-z
y,-x+y,-z
x,y,-z
x-y,x,-z
-y,x-y,-z
-x+y,y,z
x,x-y,z
-y,-x,z
y,x,z
x-y,-y,z
-x,-x+y,z
loop_
_atom_site_type_symbol
_atom_site_label
_atom_site_fract_x
_atom_site_fract_y
_atom_site_fract_z
Si Si1 0.532438 0.064876 0.779179
Si Si2 0.340441 0.858750 0.791087
Si Si3 0.761164 0.127115 0.283037
Si Si4 0.063304 0.825984 0.719534
Si Si5 0.666667 0.333334 0.285524
Si Si6 0.732700 0.465399 0.789327
O O1 0.597533 0.099763 0.718071
O O2 0.500000 0.000000 0.719715
O O3 0.531523 0.063046 0.000000
O O4 0.299027 0.884343 0.780550
O O5 0.305251 0.795565 0.710911
O O6 0.350027 0.850856 0.000000
O O7 0.760365 0.127032 0.500000
O O8 0.810439 0.189562 0.225259
O O9 0.782201 0.084108 0.226485
O O10 0.063249 0.826355 0.500000
O O11 0.111974 0.888027 0.776762
O O12 0.000000 0.804829 0.780006
O O13 0.666667 0.333334 0.500000
O O14 0.601992 0.300996 0.223072
O O15 0.740980 0.481959 0.000000
#
# Coordination Sequence:
#
# PCOD9587732 Si02
#       6
#    12  24  24  24   4  12
#     4   9  19  34  49  68  95 125 157 191 231 281
#     4  10  19  33  54  72  90 123 162 197 234 283
#     4   9  17  29  46  69  97 122 148 193 247 289
#     4   8  14  25  42  65  93 127 163 197 238 288
#     4  12  25  35  49  75 100 122 157 204 253 302
#     4  10  20  35  53  72  95 126 162 201 246 297
#
# _framework density 20.774322999999999
#
# number of rings (size 3 to 8) (size 9 to 14) (size 15 to 20)
#    0.000    2.760    1.200    2.520    0.000    3.840 
#    0.000    0.600    0.000    0.960    0.000    1.680 
#    0.000    0.000    0.000    0.000    0.000    0.000 
#
# Total GULP energy -558159.670676 kJ/mol
# GULP energy per Si atom -5581.596707 kJ/mol
# Density = 2.072704 g / cm^3
# Si number density = 20.774323 Si / 1000 Ang^3
#
#
#
# Elastic Constant Matrix: (Units=GPa)
#
#
# Indices 1 2 3 4 5 6 
#
# 1 178.9367 124.3366 -0.3116 0.0000 0.0000 0.0000
# 2 124.3366 178.9366 -0.3114 0.0001 0.0000 0.0000
# 3 -0.3116 -0.3114 63.3696 -0.0001 0.0000 0.0000
# 4 0.0000 0.0001 -0.0001 6.2550 0.0000 0.0000
# 5 0.0000 0.0000 0.0000 0.0000 6.2551 0.0001
# 6 0.0000 0.0000 0.0000 0.0000 0.0001 27.3004
#
#
#
# Elastic Compliance Matrix: (Units=1/GPa)
#
#
# Indices 1 2 3 4 5 6 
#
# 1 0.010806 -0.007509 0.000016 0.000000 0.000000 0.000000
# 2 -0.007509 0.010806 0.000016 0.000000 0.000000 0.000000
# 3 0.000016 0.000016 0.015781 0.000000 0.000000 0.000000
# 4 0.000000 0.000000 0.000000 0.159871 -0.000001 0.000000
# 5 0.000000 0.000000 0.000000 -0.000001 0.159868 0.000000
# 6 0.000000 0.000000 0.000000 0.000000 0.000000 0.036630
#
#
# Mechanical properties :
#
#
# Convention : Reuss Voigt Hill
#
# Bulk Modulus (GPa) = 44.56288 74.29668 59.42978
# Shear Modulus (GPa) = 12.01361 27.79741 19.90551
#
# Velocity S-wave (km/s) = 2.40738 3.66193 3.09880
# Velocity P-wave (km/s) = 5.40600 7.32946 6.43994
#
# Compressibility (1/GPa) = 0.02244020
#
# Stress axis : x y z
#
# Youngs Moduli (GPa) = 92.53965 92.53960 63.36899
#
# Poissons Ratio (x) = 0.69486 -0.00103
# Poissons Ratio (y) = 0.69486 -0.00103
# Poissons Ratio (z) = -0.00150 -0.00150
#
# Static dielectric constant tensor:
#      x y z
#    x 1.721990 0.000000 0.000000 
#    y 0.000000 1.721990 0.000000 
#    z 0.000000 0.000000 1.783380 
# 
# From -- ./inp_files/1475.got.cif
#   From: 2010.05.17/outbox.cif.g08.bks.cpg/sg191_1_cif.got.tgz:1475.got - 2010.05.20 12:20:32.
