data_PCOD9587355
_publ_section_title
;
Structure prediction by ZEFSAII (Michael W. Deem and Ramdas Pophale) SiO2 
 PCOD9587355
Probable space group: P 6/M M M
;
_chemical_formula_sum "Si O2"
_cell_formula_units_Z 90
_cell_length_a 28.984124
_cell_length_b 28.984124
_cell_length_c 7.980239
_cell_angle_alpha 90.000000
_cell_angle_beta 90.000000
_cell_angle_gamma 120.000000
_cell_volume 5805.864395
_symmetry_space_group_name_H-M "P 6/M M M"
_symmetry_group_IT_number 191
_symmetry_cell_setting 'hexagonal'
loop_
_space_group_symop_operation_xyz
x,y,z
x-y,x,z
-y,x-y,z
-x,-y,z
-x+y,-x,z
y,-x+y,z
x-y,-y,-z
-x,-x+y,-z
y,x,-z
-y,-x,-z
-x+y,y,-z
x,x-y,-z
-x,-y,-z
-x+y,-x,-z
y,-x+y,-z
x,y,-z
x-y,x,-z
-y,x-y,-z
-x+y,y,z
x,x-y,z
-y,-x,z
y,x,z
x-y,-y,z
-x,-x+y,z
loop_
_atom_site_type_symbol
_atom_site_label
_atom_site_fract_x
_atom_site_fract_y
_atom_site_fract_z
Si Si1 0.813054 0.813054 0.704718
Si Si2 0.618070 0.939611 0.198614
Si Si3 0.697277 0.797198 0.299229
Si Si4 0.518713 0.937925 0.701363
Si Si5 0.111395 0.000000 0.000000
O O1 0.823342 0.823342 0.500000
O O2 0.806810 0.755597 0.744773
O O3 0.856387 0.856387 0.831589
O O4 0.649810 0.910238 0.249788
O O5 0.556215 0.914553 0.246803
O O6 0.650429 0.000000 0.271853
O O7 0.620456 0.943846 0.000000
O O8 0.697051 0.799219 0.500000
O O9 0.690635 0.845318 0.230441
O O10 0.518116 0.938145 0.500000
O O11 0.457749 0.915497 0.758805
O O12 0.550701 0.000000 0.758199
O O13 0.107164 0.053582 0.000000
#
# Coordination Sequence:
#
# PCOD9587355 Si02
#       5
#    12  24  24  24   6
#     4  10  22  41  61  81 101 127 163 201 246 307
#     4  10  19  28  41  64  92 120 151 189 232 278
#     4  10  20  33  50  70  92 121 157 199 246 296
#     4   8  14  25  41  59  82 117 156 188 217 251
#     4  12  27  44  64  84 104 126 151 196 256 320
#
# _framework density 15.501566
#
# number of rings (size 3 to 8) (size 9 to 14) (size 15 to 20)
#    0.000    2.400    1.333    2.467    1.867    3.733 
#    0.000    2.667    0.000    0.800    0.000    0.000 
#    0.000    0.000    0.000    0.800    0.000   15.467 
#
# Total GULP energy -501073.924481 kJ/mol
# GULP energy per Si atom -5567.488050 kJ/mol
# Density = 1.546628 g / cm^3
# Si number density = 15.501566 Si / 1000 Ang^3
#
#
#
# Elastic Constant Matrix: (Units=GPa)
#
#
# Indices 1 2 3 4 5 6 
#
# 1 113.4151 86.3949 28.6903 0.0000 0.0000 0.0000
# 2 86.3949 113.4151 28.6903 0.0000 0.0000 0.0000
# 3 28.6903 28.6903 33.8555 0.0000 0.0000 0.0000
# 4 0.0000 0.0000 0.0000 5.0031 0.0000 0.0000
# 5 0.0000 0.0000 0.0000 0.0000 5.0031 0.0000
# 6 0.0000 0.0000 0.0000 0.0000 0.0000 13.5101
#
#
#
# Elastic Compliance Matrix: (Units=1/GPa)
#
#
# Indices 1 2 3 4 5 6 
#
# 1 0.021812 -0.015197 -0.005605 0.000000 0.000000 0.000000
# 2 -0.015197 0.021812 -0.005605 0.000000 0.000000 0.000000
# 3 -0.005605 -0.005605 0.039038 0.000000 0.000000 0.000000
# 4 0.000000 0.000000 0.000000 0.199878 0.000000 0.000000
# 5 0.000000 0.000000 0.000000 0.000000 0.199878 0.000000
# 6 0.000000 0.000000 0.000000 0.000000 0.000000 0.074019
#
#
# Mechanical properties :
#
#
# Convention : Reuss Voigt Hill
#
# Bulk Modulus (GPa) = 33.50619 60.91518 47.21068
# Shear Modulus (GPa) = 8.07493 12.49726 10.28609
#
# Velocity S-wave (km/s) = 2.28482 2.84243 2.57874
# Velocity P-wave (km/s) = 5.34997 7.08195 6.27599
#
# Compressibility (1/GPa) = 0.02984524
#
# Stress axis : x y z
#
# Youngs Moduli (GPa) = 45.84650 45.84650 25.61635
#
# Poissons Ratio (x) = 0.69675 0.14359
# Poissons Ratio (y) = 0.69675 0.14359
# Poissons Ratio (z) = 0.25698 0.25698
#
# Static dielectric constant tensor:
#      x y z
#    x 1.539750 0.000000 0.000000 
#    y 0.000000 1.539750 0.000000 
#    z 0.000000 0.000000 1.544080 
# 
# From -- ./inp_files/1270.got.cif
#   From: 2010.05.17/outbox.cif.g08.bks.cpg/sg191_1_cif.got.tgz:1270.got - 2010.05.20 12:20:32.
