data_PCOD9587938
_publ_section_title
;
Structure prediction by ZEFSAII (Michael W. Deem and Ramdas Pophale) SiO2 
 PCOD9587938
Probable space group: P 6/M M M
;
_chemical_formula_sum "Si O2"
_cell_formula_units_Z 132
_cell_length_a 17.806164
_cell_length_b 17.806164
_cell_length_c 29.441427
_cell_angle_alpha 90.000000
_cell_angle_beta 90.000000
_cell_angle_gamma 120.000000
_cell_volume 8084.072986
_symmetry_space_group_name_H-M "P 6/M M M"
_symmetry_group_IT_number 191
_symmetry_cell_setting 'hexagonal'
loop_
_space_group_symop_operation_xyz
x,y,z
x-y,x,z
-y,x-y,z
-x,-y,z
-x+y,-x,z
y,-x+y,z
x-y,-y,-z
-x,-x+y,-z
y,x,-z
-y,-x,-z
-x+y,y,-z
x,x-y,-z
-x,-y,-z
-x+y,-x,-z
y,-x+y,-z
x,y,-z
x-y,x,-z
-y,x-y,-z
-x+y,y,z
x,x-y,z
-y,-x,z
y,x,z
x-y,-y,z
-x,-x+y,z
loop_
_atom_site_type_symbol
_atom_site_label
_atom_site_fract_x
_atom_site_fract_y
_atom_site_fract_z
Si Si1 0.728226 0.631215 0.735509
Si Si2 0.901754 0.629229 0.088518
Si Si3 0.513051 0.846522 0.548773
Si Si4 0.333330 0.487466 0.351684
Si Si5 0.332572 0.843196 0.000000
Si Si6 0.510459 0.843089 0.177035
O O1 0.828359 0.656718 0.736354
O O2 0.709666 0.709666 0.739020
O O3 0.686708 0.578429 0.689208
O O4 0.682509 0.566358 0.777653
O O5 0.828476 0.656952 0.088137
O O6 0.884586 0.568879 0.044564
O O7 0.885163 0.570910 0.133245
O O8 0.000000 0.706337 0.088121
O O9 0.553105 0.889942 0.500000
O O10 0.417159 0.834318 0.549509
O O11 0.506719 0.753360 0.547876
O O12 0.550591 0.884619 0.598310
O O13 0.254109 0.508217 0.351558
O O14 0.424446 0.575555 0.345100
O O15 0.258218 0.741782 0.000000
O O16 0.426872 0.853743 0.000000
O O17 0.426837 0.853673 0.175718
O O18 0.483444 0.741722 0.176890
#
# Coordination Sequence:
#
# PCOD9587938 Si02
#       6
#    24  24  24  24  12  24
#     4  10  21  35  50  68  89 115 147 185 230 275
#     4  10  21  35  51  72  97 127 162 202 247 288
#     4   8  12  18  30  50  78 113 152 189 219 246
#     4   9  16  25  39  61  90 123 156 187 217 251
#     4  10  20  33  50  73 102 134 165 196 232 277
#     4  10  20  33  50  73 102 134 164 191 219 255
#
# _framework density 16.328402000000001
#
# number of rings (size 3 to 8) (size 9 to 14) (size 15 to 20)
#    0.000    2.545    0.000    2.545    0.000    6.182 
#    0.000    3.636    0.000    0.909    0.000    2.545 
#    0.000    6.545    0.000    0.000    0.000    0.727 
#
# Total GULP energy -735764.827114 kJ/mol
# GULP energy per Si atom -5573.975963 kJ/mol
# Density = 1.629124 g / cm^3
# Si number density = 16.328402 Si / 1000 Ang^3
#
#
#
# Elastic Constant Matrix: (Units=GPa)
#
#
# Indices 1 2 3 4 5 6 
#
# 1 73.8529 73.6448 42.7544 0.0000 0.0000 0.0000
# 2 73.6448 73.8529 42.7544 0.0000 0.0000 0.0000
# 3 42.7544 42.7544 150.6022 0.0000 0.0000 0.0000
# 4 0.0000 0.0000 0.0000 -9.6163 0.0000 0.0000
# 5 0.0000 0.0000 0.0000 0.0000 -9.6163 0.0000
# 6 0.0000 0.0000 0.0000 0.0000 0.0000 0.1040
#
#
#
# Elastic Compliance Matrix: (Units=1/GPa)
#
#
# Indices 1 2 3 4 5 6 
#
# 1 2.407061 -2.398945 -0.002304 0.000000 0.000000 -0.000001
# 2 -2.398945 2.407061 -0.002304 0.000000 0.000000 0.000001
# 3 -0.002304 -0.002304 0.007948 0.000000 0.000000 0.000000
# 4 0.000000 0.000000 0.000000 -0.103990 0.000000 0.000000
# 5 0.000000 0.000000 0.000000 0.000000 -0.103990 0.000000
# 6 -0.000001 0.000001 0.000000 0.000000 0.000000 9.612013
#
#
# Mechanical properties :
#
#
# Convention : Reuss Voigt Hill
#
# Bulk Modulus (GPa) = 66.82983 68.51283 67.67133
# Shear Modulus (GPa) = 0.26263 5.45123 2.85693
#
# Velocity S-wave (km/s) = 0.40149 1.82914 1.32419
# Velocity P-wave (km/s) = 6.42124 6.81993 6.62358
#
# Compressibility (1/GPa) = 0.01496338
#
# Stress axis : x y z
#
# Youngs Moduli (GPa) = 0.41544 0.41544 125.81619
#
# Poissons Ratio (x) = 0.99663 0.28987
# Poissons Ratio (y) = 0.99663 0.28987
# Poissons Ratio (z) = 0.00096 0.00096
#
# Static dielectric constant tensor:
#      x y z
#    x 1.522170 0.000000 0.000000 
#    y 0.000000 1.522170 0.000000 
#    z 0.000000 0.000000 1.591680 
# 
# From -- ./inp_files/9703.got.cif
#   From: 2010.05.17/outbox.cif.g08.bks.cpg/sg191_5_cif.got.tgz:9703.got - 2010.05.20 12:20:32.
