data_PCOD9587331
_publ_section_title
;
Structure prediction by ZEFSAII (Michael W. Deem and Ramdas Pophale) SiO2 
 PCOD9587331
Probable space group: P 6/M M M
;
_chemical_formula_sum "Si O2"
_cell_formula_units_Z 144
_cell_length_a 24.301050
_cell_length_b 24.301050
_cell_length_c 18.668008
_cell_angle_alpha 90.000000
_cell_angle_beta 90.000000
_cell_angle_gamma 120.000000
_cell_volume 9547.258641
_symmetry_space_group_name_H-M "P 6/M M M"
_symmetry_group_IT_number 191
_symmetry_cell_setting 'hexagonal'
loop_
_space_group_symop_operation_xyz
x,y,z
x-y,x,z
-y,x-y,z
-x,-y,z
-x+y,-x,z
y,-x+y,z
x-y,-y,-z
-x,-x+y,-z
y,x,-z
-y,-x,-z
-x+y,y,-z
x,x-y,-z
-x,-y,-z
-x+y,-x,-z
y,-x+y,-z
x,y,-z
x-y,x,-z
-y,x-y,-z
-x+y,y,z
x,x-y,z
-y,-x,z
y,x,z
x-y,-y,z
-x,-x+y,z
loop_
_atom_site_type_symbol
_atom_site_label
_atom_site_fract_x
_atom_site_fract_y
_atom_site_fract_z
Si Si1 0.499117 0.126026 0.799936
Si Si2 0.794969 0.461342 0.339779
Si Si3 0.141073 0.727306 0.916496
Si Si4 0.348882 0.000000 0.414385
Si Si5 0.736204 0.595986 0.414097
Si Si6 0.267263 0.071408 0.087174
Si Si7 0.000000 0.564932 0.291397
O O1 0.560806 0.121612 0.822427
O O2 0.522831 0.183244 0.742846
O O3 0.461851 0.133702 0.865424
O O4 0.453508 0.062383 0.755217
O O5 0.722743 0.445486 0.348973
O O6 0.803525 0.401763 0.360839
O O7 0.838801 0.526270 0.383040
O O8 0.211737 0.788264 0.911596
O O9 0.094230 0.753847 0.894676
O O10 0.128998 0.708067 0.000000
O O11 0.353726 0.067193 0.396498
O O12 0.403033 0.000000 0.365733
O O13 0.359849 0.000000 0.500000
O O14 0.735141 0.590902 0.500000
O O15 0.806246 0.612491 0.388778
O O16 0.252653 0.126327 0.111438
O O17 0.220201 0.000000 0.112053
O O18 0.265299 0.071347 0.000000
O O19 0.000000 0.500000 0.305428
#
# Coordination Sequence:
#
# PCOD9587331 Si02
#       7
#    24  24  24  12  24  24  12
#     4  10  20  32  46  63  89 118 144 188 237 280
#     4  10  19  31  46  63  86 117 152 189 231 277
#     4   9  18  32  49  68  87 111 149 191 231 281
#     4  10  18  31  52  71  93 126 157 191 231 269
#     4   9  18  31  47  69  94 120 153 191 229 271
#     4   8  14  25  42  63  85 109 138 173 210 251
#     4  10  20  33  43  66  98 121 155 193 225 276
#
# _framework density 15.082863
#
# number of rings (size 3 to 8) (size 9 to 14) (size 15 to 20)
#    0.000    2.667    1.667    1.667    1.167    0.833 
#    0.000    1.667    0.000    3.000    0.000    1.167 
#    0.000    0.000    0.000    0.250    0.000    8.000 
#
# Total GULP energy -801786.882460 kJ/mol
# GULP energy per Si atom -5567.964462 kJ/mol
# Density = 1.504853 g / cm^3
# Si number density = 15.082863 Si / 1000 Ang^3
#
#
#
# Elastic Constant Matrix: (Units=GPa)
#
#
# Indices 1 2 3 4 5 6 
#
# 1 82.9298 54.8476 22.7493 0.0000 0.0000 0.0000
# 2 54.8476 82.9298 22.7493 0.0000 0.0000 0.0000
# 3 22.7493 22.7493 22.1582 0.0000 0.0000 0.0000
# 4 0.0000 0.0000 0.0000 11.3274 0.0000 0.0000
# 5 0.0000 0.0000 0.0000 0.0000 11.3274 0.0000
# 6 0.0000 0.0000 0.0000 0.0000 0.0000 14.0411
#
#
#
# Elastic Compliance Matrix: (Units=1/GPa)
#
#
# Indices 1 2 3 4 5 6 
#
# 1 0.023295 -0.012314 -0.011274 0.000000 0.000000 0.000000
# 2 -0.012314 0.023295 -0.011274 0.000000 0.000000 0.000000
# 3 -0.011274 -0.011274 0.068280 0.000000 0.000000 0.000000
# 4 0.000000 0.000000 0.000000 0.088282 0.000000 0.000000
# 5 0.000000 0.000000 0.000000 0.000000 0.088282 0.000000
# 6 0.000000 0.000000 0.000000 0.000000 0.000000 0.071219
#
#
# Mechanical properties :
#
#
# Convention : Reuss Voigt Hill
#
# Bulk Modulus (GPa) = 22.15052 43.19004 32.67028
# Shear Modulus (GPa) = 11.17501 13.18395 12.17948
#
# Velocity S-wave (km/s) = 2.72491 2.95973 2.84475
# Velocity P-wave (km/s) = 4.96165 6.35432 5.70067
#
# Compressibility (1/GPa) = 0.04514567
#
# Stress axis : x y z
#
# Youngs Moduli (GPa) = 42.92685 42.92685 14.64562
#
# Poissons Ratio (x) = 0.52861 0.16512
# Poissons Ratio (y) = 0.52861 0.16512
# Poissons Ratio (z) = 0.48396 0.48396
#
# Static dielectric constant tensor:
#      x y z
#    x 1.510520 0.000000 0.000000 
#    y 0.000000 1.510520 0.000000 
#    z 0.000000 0.000000 1.482390 
# 
# From -- ./inp_files/6688.got.cif
#   From: 2010.05.17/outbox.cif.g08.bks.cpg/sg191_4_cif.got.tgz:6688.got - 2010.05.20 12:20:32.
