data_PCOD9587625
_publ_section_title
;
Structure prediction by ZEFSAII (Michael W. Deem and Ramdas Pophale) SiO2 
 PCOD9587625
Probable space group: P 6/M M M
;
_chemical_formula_sum "Si O2"
_cell_formula_units_Z 168
_cell_length_a 22.105641
_cell_length_b 22.105641
_cell_length_c 24.372458
_cell_angle_alpha 90.000000
_cell_angle_beta 90.000000
_cell_angle_gamma 120.000000
_cell_volume 10314.215184
_symmetry_space_group_name_H-M "P 6/M M M"
_symmetry_group_IT_number 191
_symmetry_cell_setting 'hexagonal'
loop_
_space_group_symop_operation_xyz
x,y,z
x-y,x,z
-y,x-y,z
-x,-y,z
-x+y,-x,z
y,-x+y,z
x-y,-y,-z
-x,-x+y,-z
y,x,-z
-y,-x,-z
-x+y,y,-z
x,x-y,-z
-x,-y,-z
-x+y,-x,-z
y,-x+y,-z
x,y,-z
x-y,x,-z
-y,x-y,-z
-x+y,y,z
x,x-y,z
-y,-x,z
y,x,z
x-y,-y,z
-x,-x+y,z
loop_
_atom_site_type_symbol
_atom_site_label
_atom_site_fract_x
_atom_site_fract_y
_atom_site_fract_z
Si Si1 0.919046 0.579476 0.132846
Si Si2 0.780730 0.700302 0.063762
Si Si3 0.474283 0.665087 0.347858
Si Si4 0.468653 0.666667 0.063910
Si Si5 0.786385 0.709438 0.433531
Si Si6 0.355821 0.435188 0.434526
Si Si7 0.612416 0.080679 0.251874
O O1 0.906622 0.639061 0.105959
O O2 0.869511 0.509853 0.100273
O O3 0.906447 0.564582 0.197404
O O4 0.000000 0.605284 0.123439
O O5 0.861027 0.722053 0.071557
O O6 0.760727 0.760727 0.070536
O O7 0.762547 0.675327 0.000000
O O8 0.484325 0.742163 0.350729
O O9 0.393078 0.606922 0.340797
O O10 0.503261 0.644596 0.401300
O O11 0.516290 0.654231 0.298069
O O12 0.486694 0.743347 0.081493
O O13 0.386609 0.613392 0.068269
O O14 0.487583 0.669351 0.000000
O O15 0.791308 0.714521 0.500000
O O16 0.857541 0.715082 0.412623
O O17 0.767510 0.767510 0.414057
O O18 0.718788 0.634187 0.422518
O O19 0.360568 0.446997 0.500000
O O20 0.415173 0.415173 0.419538
O O21 0.542782 0.085564 0.238567
O O22 0.582559 0.000000 0.270120
#
# Coordination Sequence:
#
# PCOD9587625 Si02
#       7
#    24  24  24  24  24  24  24
#     4  10  19  31  49  72  94 116 148 193 245 294
#     4   9  17  29  46  69  97 127 157 191 234 284
#     4  11  23  37  52  71  97 127 156 187 227 277
#     4  10  20  32  45  62  88 123 160 196 234 279
#     4   8  13  22  38  61  88 116 146 181 220 259
#     4   9  18  33  54  77  96 118 153 194 232 270
#     4   9  19  36  54  69  88 118 157 199 237 273
#
# _framework density 16.288201000000001
#
# number of rings (size 3 to 8) (size 9 to 14) (size 15 to 20)
#    0.000    2.571    0.000    3.286    0.000    6.571 
#    0.000    1.429    0.000    2.857    0.000    2.000 
#    0.000    0.000    0.000    0.000    0.000    0.000 
#
# Total GULP energy -936138.298522 kJ/mol
# GULP energy per Si atom -5572.251777 kJ/mol
# Density = 1.625113 g / cm^3
# Si number density = 16.288201 Si / 1000 Ang^3
#
#
#
# Elastic Constant Matrix: (Units=GPa)
#
#
# Indices 1 2 3 4 5 6 
#
# 1 77.5538 45.6681 42.0716 0.0000 0.0000 0.0000
# 2 45.6681 77.5538 42.0716 0.0000 0.0000 0.0000
# 3 42.0716 42.0716 61.1718 0.0000 0.0000 0.0000
# 4 0.0000 0.0000 0.0000 2.0569 0.0000 0.0000
# 5 0.0000 0.0000 0.0000 0.0000 2.0569 0.0000
# 6 0.0000 0.0000 0.0000 0.0000 0.0000 15.9429
#
#
#
# Elastic Compliance Matrix: (Units=1/GPa)
#
#
# Indices 1 2 3 4 5 6 
#
# 1 0.023332 -0.008030 -0.010524 0.000000 0.000000 0.000000
# 2 -0.008030 0.023332 -0.010524 0.000000 0.000000 0.000000
# 3 -0.010524 -0.010524 0.030823 0.000000 0.000000 0.000000
# 4 0.000000 0.000000 0.000000 0.486177 0.000000 0.000000
# 5 0.000000 0.000000 0.000000 0.000000 0.486177 0.000000
# 6 0.000000 0.000000 0.000000 0.000000 0.000000 0.062724
#
#
# Mechanical properties :
#
#
# Convention : Reuss Voigt Hill
#
# Bulk Modulus (GPa) = 51.73025 52.87801 52.30413
# Shear Modulus (GPa) = 4.24749 9.77587 7.01168
#
# Velocity S-wave (km/s) = 1.61659 2.45252 2.07704
# Velocity P-wave (km/s) = 5.94246 6.36822 6.15902
#
# Compressibility (1/GPa) = 0.01933105
#
# Stress axis : x y z
#
# Youngs Moduli (GPa) = 42.85974 42.85974 32.44289
#
# Poissons Ratio (x) = 0.34417 0.34143
# Poissons Ratio (y) = 0.34417 0.34143
# Poissons Ratio (z) = 0.45106 0.45106
#
# Static dielectric constant tensor:
#      x y z
#    x 1.547920 0.000000 0.000000 
#    y 0.000000 1.547920 0.000000 
#    z 0.000000 0.000000 1.547320 
# 
# From -- ./inp_files/8996.got.cif
#   From: 2010.05.17/outbox.cif.g08.bks.cpg/sg191_5_cif.got.tgz:8996.got - 2010.05.20 12:20:32.
