data_PCOD9587264
_publ_section_title
;
Structure prediction by ZEFSAII (Michael W. Deem and Ramdas Pophale) SiO2 
 PCOD9587264
Probable space group: P 6/M M M
;
_chemical_formula_sum "Si O2"
_cell_formula_units_Z 114
_cell_length_a 20.852250
_cell_length_b 20.852250
_cell_length_c 14.573946
_cell_angle_alpha 90.000000
_cell_angle_beta 90.000000
_cell_angle_gamma 120.000000
_cell_volume 5487.994076
_symmetry_space_group_name_H-M "P 6/M M M"
_symmetry_group_IT_number 191
_symmetry_cell_setting 'hexagonal'
loop_
_space_group_symop_operation_xyz
x,y,z
x-y,x,z
-y,x-y,z
-x,-y,z
-x+y,-x,z
y,-x+y,z
x-y,-y,-z
-x,-x+y,-z
y,x,-z
-y,-x,-z
-x+y,y,-z
x,x-y,-z
-x,-y,-z
-x+y,-x,-z
y,-x+y,-z
x,y,-z
x-y,x,-z
-y,x-y,-z
-x+y,y,z
x,x-y,z
-y,-x,z
y,x,z
x-y,-y,z
-x,-x+y,z
loop_
_atom_site_type_symbol
_atom_site_label
_atom_site_fract_x
_atom_site_fract_y
_atom_site_fract_z
Si Si1 0.917577 0.278004 0.400377
Si Si2 0.916749 0.533652 0.833130
Si Si3 0.665885 0.185628 0.345729
Si Si4 0.088287 0.176573 0.500000
Si Si5 0.264499 0.132250 0.697347
Si Si6 0.819388 0.487967 0.000000
Si Si7 0.089128 0.910873 0.106458
O O1 0.916026 0.243066 0.500000
O O2 0.855844 0.301398 0.404277
O O3 0.902222 0.220061 0.320080
O O4 0.000000 0.347193 0.390733
O O5 0.925638 0.462819 0.855835
O O6 0.866122 0.509404 0.743809
O O7 0.866808 0.535721 0.913796
O O8 0.000000 0.601862 0.823514
O O9 0.592604 0.185207 0.380284
O O10 0.730856 0.269145 0.328040
O O11 0.128564 0.128564 0.500000
O O12 0.107051 0.214101 0.604069
O O13 0.227973 0.113987 0.798810
O O14 0.737880 0.475760 0.000000
O O15 0.813792 0.406896 0.000000
O O16 0.000000 0.871673 0.111759
O O17 0.105459 0.894542 0.000000
#
# Coordination Sequence:
#
# PCOD9587264 Si02
#       7
#    24  24  24   6  12  12  12
#     4  11  23  41  66  94 126 169 223 280 340 408
#     4   9  18  33  54  80 112 153 201 255 318 388
#     4  11  23  40  62  90 124 163 208 266 335 409
#     4  12  23  36  60 100 146 190 234 294 362 424
#     4  12  22  40  65  96 134 182 242 294 353 413
#     4  10  18  29  49  79 116 155 200 252 319 396
#     4  10  21  38  64 100 146 198 246 292 346 413
#
# _framework density 20.772617
#
# number of rings (size 3 to 8) (size 9 to 14) (size 15 to 20)
#    0.000    1.474    2.105    3.947    0.000    3.368 
#    0.000    4.211    2.316    1.263    0.000    0.000 
#    0.000    0.000    0.000    0.000    0.000    0.000 
#
# Total GULP energy -635039.851944 kJ/mol
# GULP energy per Si atom -5570.525017 kJ/mol
# Density = 2.072534 g / cm^3
# Si number density = 20.772617 Si / 1000 Ang^3
#
#
#
# Elastic Constant Matrix: (Units=GPa)
#
#
# Indices 1 2 3 4 5 6 
#
# 1 98.7066 65.8946 45.0436 0.0000 0.0000 0.0000
# 2 65.8946 98.7066 45.0436 0.0000 0.0000 0.0000
# 3 45.0436 45.0436 137.6678 0.0000 0.0000 0.0000
# 4 0.0000 0.0000 0.0000 -9.4940 0.0000 0.0000
# 5 0.0000 0.0000 0.0000 0.0000 -9.4940 0.0000
# 6 0.0000 0.0000 0.0000 0.0000 0.0000 16.4060
#
#
#
# Elastic Compliance Matrix: (Units=1/GPa)
#
#
# Indices 1 2 3 4 5 6 
#
# 1 0.018939 -0.011538 -0.002421 0.000000 0.000000 0.000000
# 2 -0.011538 0.018939 -0.002421 0.000000 0.000000 0.000000
# 3 -0.002421 -0.002421 0.008848 0.000000 0.000000 0.000000
# 4 0.000000 0.000000 0.000000 -0.105330 0.000000 0.000000
# 5 0.000000 0.000000 0.000000 0.000000 -0.105330 0.000000
# 6 0.000000 0.000000 0.000000 0.000000 0.000000 0.060953
#
#
# Mechanical properties :
#
#
# Convention : Reuss Voigt Hill
#
# Bulk Modulus (GPa) = 71.61327 71.89385 71.75356
# Shear Modulus (GPa) = -76.26108 11.42356 -32.41876
#
# Velocity S-wave (km/s) = -6.06564 2.34761 -3.95479
# Velocity P-wave (km/s) = 3.80872 6.48332 3.70992
#
# Compressibility (1/GPa) = 0.01396389
#
# Stress axis : x y z
#
# Youngs Moduli (GPa) = 52.80231 52.80231 113.01521
#
# Poissons Ratio (x) = 0.60924 0.27365
# Poissons Ratio (y) = 0.60924 0.27365
# Poissons Ratio (z) = 0.12785 0.12785
#
# Static dielectric constant tensor:
#      x y z
#    x 1.753970 0.000000 0.000000 
#    y 0.000000 1.753970 0.000000 
#    z 0.000000 0.000000 1.855330 
# 
# From -- ./inp_files/4442.got.cif
#   From: 2010.05.17/outbox.cif.g08.bks.cpg/sg191_3_cif.got.tgz:4442.got - 2010.05.20 12:20:32.
