data_PCOD9587496
_publ_section_title
;
Structure prediction by ZEFSAII (Michael W. Deem and Ramdas Pophale) SiO2 
 PCOD9587496
Probable space group: P 6/M M M
;
_chemical_formula_sum "Si O2"
_cell_formula_units_Z 120
_cell_length_a 17.933747
_cell_length_b 17.933747
_cell_length_c 26.154116
_cell_angle_alpha 90.000000
_cell_angle_beta 90.000000
_cell_angle_gamma 120.000000
_cell_volume 7284.718172
_symmetry_space_group_name_H-M "P 6/M M M"
_symmetry_group_IT_number 191
_symmetry_cell_setting 'hexagonal'
loop_
_space_group_symop_operation_xyz
x,y,z
x-y,x,z
-y,x-y,z
-x,-y,z
-x+y,-x,z
y,-x+y,z
x-y,-y,-z
-x,-x+y,-z
y,x,-z
-y,-x,-z
-x+y,y,-z
x,x-y,-z
-x,-y,-z
-x+y,-x,-z
y,-x+y,-z
x,y,-z
x-y,x,-z
-y,x-y,-z
-x+y,y,z
x,x-y,z
-y,-x,z
y,x,z
x-y,-y,z
-x,-x+y,z
loop_
_atom_site_type_symbol
_atom_site_label
_atom_site_fract_x
_atom_site_fract_y
_atom_site_fract_z
Si Si1 0.098495 0.727761 0.900900
Si Si2 0.270368 0.902830 0.295156
Si Si3 0.157838 0.490280 0.000000
Si Si4 0.162952 0.668987 0.611481
Si Si5 0.458726 0.098011 0.500000
Si Si6 0.842016 0.509461 0.801855
O O1 0.171394 0.828607 0.901378
O O2 0.115732 0.686522 0.850677
O O3 0.000000 0.704972 0.901422
O O4 0.116486 0.684889 0.950095
O O5 0.170462 0.829539 0.292642
O O6 0.308741 0.889365 0.347826
O O7 0.317476 0.882778 0.249058
O O8 0.291187 0.000000 0.291000
O O9 0.258657 0.517313 0.000000
O O10 0.147345 0.573673 0.000000
O O11 0.144396 0.572198 0.617375
O O12 0.263147 0.736853 0.621214
O O13 0.141728 0.681737 0.553393
O O14 0.548682 0.097363 0.500000
O O15 0.383069 0.000000 0.500000
O O16 0.741354 0.482708 0.802067
O O17 0.852474 0.426237 0.803629
#
# Coordination Sequence:
#
# PCOD9587496 Si02
#       6
#    24  24  12  24  12  24
#     4  10  21  35  51  72  97 127 162 202 247 289
#     4  10  21  35  51  71  94 122 155 194 239 283
#     4  10  20  33  50  73 102 134 165 196 232 277
#     4  10  19  30  45  66  94 127 161 195 231 273
#     4   9  17  28  42  60  84 119 163 205 237 266
#     4  10  20  33  50  73 102 134 165 195 228 269
#
# _framework density 16.472840000000001
#
# number of rings (size 3 to 8) (size 9 to 14) (size 15 to 20)
#    0.000    2.100    0.000    3.500    0.000    5.200 
#    0.000    5.000    0.000    0.400    0.000    0.000 
#    0.000    7.200    0.000    0.000    0.000   21.600 
#
# Total GULP energy -669649.057854 kJ/mol
# GULP energy per Si atom -5580.408815 kJ/mol
# Density = 1.643535 g / cm^3
# Si number density = 16.472840 Si / 1000 Ang^3
#
#
#
# Elastic Constant Matrix: (Units=GPa)
#
#
# Indices 1 2 3 4 5 6 
#
# 1 96.2027 80.7027 36.6231 0.0000 0.0000 0.0000
# 2 80.7027 96.2027 36.6231 0.0000 0.0000 0.0000
# 3 36.6231 36.6231 118.1561 0.0000 0.0000 0.0000
# 4 0.0000 0.0000 0.0000 0.9650 0.0000 0.0000
# 5 0.0000 0.0000 0.0000 0.0000 0.9650 0.0000
# 6 0.0000 0.0000 0.0000 0.0000 0.0000 7.7500
#
#
#
# Elastic Compliance Matrix: (Units=1/GPa)
#
#
# Indices 1 2 3 4 5 6 
#
# 1 0.035500 -0.029016 -0.002010 0.000000 0.000000 0.000000
# 2 -0.029016 0.035500 -0.002010 0.000000 0.000000 0.000000
# 3 -0.002010 -0.002010 0.009709 0.000000 0.000000 0.000000
# 4 0.000000 0.000000 0.000000 1.036297 0.000000 0.000000
# 5 0.000000 0.000000 0.000000 0.000000 1.036297 0.000000
# 6 0.000000 0.000000 0.000000 0.000000 0.000000 0.129032
#
#
# Mechanical properties :
#
#
# Convention : Reuss Voigt Hill
#
# Bulk Modulus (GPa) = 68.30980 68.71769 68.51374
# Shear Modulus (GPa) = 2.12469 12.37685 7.25077
#
# Velocity S-wave (km/s) = 1.13693 2.74405 2.10029
# Velocity P-wave (km/s) = 6.57888 7.20042 6.89665
#
# Compressibility (1/GPa) = 0.01463919
#
# Stress axis : x y z
#
# Youngs Moduli (GPa) = 28.16862 28.16862 102.99269
#
# Poissons Ratio (x) = 0.81733 0.20702
# Poissons Ratio (y) = 0.81733 0.20702
# Poissons Ratio (z) = 0.05662 0.05662
#
# Static dielectric constant tensor:
#      x y z
#    x 1.540690 0.000000 0.000000 
#    y 0.000000 1.540690 0.000000 
#    z 0.000000 0.000000 1.562600 
# 
# From -- ./inp_files/8553.got.cif
#   From: 2010.05.17/outbox.cif.g08.bks.cpg/sg191_5_cif.got.tgz:8553.got - 2010.05.20 12:20:32.
