data_PCOD9587988
_publ_section_title
;
Structure prediction by ZEFSAII (Michael W. Deem and Ramdas Pophale) SiO2 
 PCOD9587988
Probable space group: P 6/M M M
;
_chemical_formula_sum "Si O2"
_cell_formula_units_Z 144
_cell_length_a 32.617550
_cell_length_b 32.617550
_cell_length_c 7.990245
_cell_angle_alpha 90.000000
_cell_angle_beta 90.000000
_cell_angle_gamma 120.000000
_cell_volume 7361.959116
_symmetry_space_group_name_H-M "P 6/M M M"
_symmetry_group_IT_number 191
_symmetry_cell_setting 'hexagonal'
loop_
_space_group_symop_operation_xyz
x,y,z
x-y,x,z
-y,x-y,z
-x,-y,z
-x+y,-x,z
y,-x+y,z
x-y,-y,-z
-x,-x+y,-z
y,x,-z
-y,-x,-z
-x+y,y,-z
x,x-y,-z
-x,-y,-z
-x+y,-x,-z
y,-x+y,-z
x,y,-z
x-y,x,-z
-y,x-y,-z
-x+y,y,z
x,x-y,z
-y,-x,z
y,x,z
x-y,-y,z
-x,-x+y,z
loop_
_atom_site_type_symbol
_atom_site_label
_atom_site_fract_x
_atom_site_fract_y
_atom_site_fract_z
Si Si1 0.853988 0.615395 0.300672
Si Si2 0.706561 0.759388 0.704376
Si Si3 0.478086 0.331356 0.803509
Si Si4 0.239847 0.666662 0.298359
Si Si5 0.479054 0.053164 0.702347
Si Si6 0.198263 0.052911 0.295826
O O1 0.854917 0.623204 0.500000
O O2 0.808574 0.617147 0.232194
O O3 0.903884 0.657422 0.234057
O O4 0.849156 0.564724 0.275184
O O5 0.705332 0.757550 0.500000
O O6 0.720704 0.720704 0.760188
O O7 0.750236 0.810951 0.750048
O O8 0.528237 0.338741 0.743652
O O9 0.472984 0.376878 0.763700
O O10 0.475388 0.324083 0.000000
O O11 0.243190 0.666996 0.500000
O O12 0.243289 0.621645 0.236289
O O13 0.283783 0.716218 0.236843
O O14 0.478495 0.053794 0.500000
O O15 0.530053 0.060105 0.753578
O O16 0.439851 0.000000 0.755799
O O17 0.197347 0.053199 0.500000
O O18 0.191210 0.095605 0.236176
O O19 0.159832 0.000000 0.241475
#
# Coordination Sequence:
#
# PCOD9587988 Si02
#       6
#    24  24  24  24  24  24
#     4  10  20  34  52  72  96 131 175 218 258 303
#     4   8  14  25  43  67  90 112 146 199 260 311
#     4  12  25  37  52  78 112 146 176 207 250 307
#     4  10  21  39  63  87 109 135 172 218 264 308
#     4   9  19  38  63  86 106 133 173 218 260 301
#     4   8  12  18  30  50  77 108 143 187 240 293
#
# _framework density 19.560010999999999
#
# number of rings (size 3 to 8) (size 9 to 14) (size 15 to 20)
#    0.000    2.500    0.000    4.667    0.000    9.000 
#    0.000    2.500    0.000    1.167    0.000    1.167 
#    0.000    0.000    0.000    0.000    0.000    0.000 
#
# Total GULP energy -803631.885863 kJ/mol
# GULP energy per Si atom -5580.776985 kJ/mol
# Density = 1.951549 g / cm^3
# Si number density = 19.560011 Si / 1000 Ang^3
#
#
#
# Elastic Constant Matrix: (Units=GPa)
#
#
# Indices 1 2 3 4 5 6 
#
# 1 142.8117 63.9172 -0.3327 0.0000 0.0000 0.0000
# 2 63.9172 142.8117 -0.3327 0.0000 0.0000 0.0000
# 3 -0.3327 -0.3327 12.6812 0.0000 0.0000 0.0000
# 4 0.0000 0.0000 0.0000 -22.0879 0.0000 0.0000
# 5 0.0000 0.0000 0.0000 0.0000 -22.0879 0.0000
# 6 0.0000 0.0000 0.0000 0.0000 0.0000 39.4472
#
#
#
# Elastic Compliance Matrix: (Units=1/GPa)
#
#
# Indices 1 2 3 4 5 6 
#
# 1 0.008756 -0.003919 0.000127 0.000000 0.000000 0.000000
# 2 -0.003919 0.008756 0.000127 0.000000 0.000000 0.000000
# 3 0.000127 0.000127 0.078864 0.000000 0.000000 0.000000
# 4 0.000000 0.000000 0.000000 -0.045274 0.000000 0.000000
# 5 0.000000 0.000000 0.000000 0.000000 -0.045274 0.000000
# 6 0.000000 0.000000 0.000000 0.000000 0.000000 0.025350
#
#
# Mechanical properties :
#
#
# Convention : Reuss Voigt Hill
#
# Bulk Modulus (GPa) = 11.23007 47.20092 29.21549
# Shear Modulus (GPa) = 73.32269 14.72445 44.02357
#
# Velocity S-wave (km/s) = 6.12922 2.74667 4.74929
# Velocity P-wave (km/s) = 7.47286 5.85172 6.71142
#
# Compressibility (1/GPa) = 0.08904666
#
# Stress axis : x y z
#
# Youngs Moduli (GPa) = 114.20202 114.20202 12.68011
#
# Poissons Ratio (x) = 0.44753 -0.00161
# Poissons Ratio (y) = 0.44753 -0.00161
# Poissons Ratio (z) = -0.01449 -0.01449
#
# Static dielectric constant tensor:
#      x y z
#    x 1.682590 0.000000 0.000000 
#    y 0.000000 1.682590 0.000000 
#    z 0.000000 0.000000 1.710870 
# 
# From -- ./inp_files/1975.got.cif
#   From: 2010.05.17/outbox.cif.g08.bks.cpg/sg191_1_cif.got.tgz:1975.got - 2010.05.20 12:20:32.
