data_PCOD9587904
_publ_section_title
;
Structure prediction by ZEFSAII (Michael W. Deem and Ramdas Pophale) SiO2 
 PCOD9587904
Probable space group: P 6/M M M
;
_chemical_formula_sum "Si O2"
_cell_formula_units_Z 84
_cell_length_a 17.972338
_cell_length_b 17.972338
_cell_length_c 18.067930
_cell_angle_alpha 90.000000
_cell_angle_beta 90.000000
_cell_angle_gamma 120.000000
_cell_volume 5054.150690
_symmetry_space_group_name_H-M "P 6/M M M"
_symmetry_group_IT_number 191
_symmetry_cell_setting 'hexagonal'
loop_
_space_group_symop_operation_xyz
x,y,z
x-y,x,z
-y,x-y,z
-x,-y,z
-x+y,-x,z
y,-x+y,z
x-y,-y,-z
-x,-x+y,-z
y,x,-z
-y,-x,-z
-x+y,y,-z
x,x-y,-z
-x,-y,-z
-x+y,-x,-z
y,-x+y,-z
x,y,-z
x-y,x,-z
-y,x-y,-z
-x+y,y,z
x,x-y,z
-y,-x,z
y,x,z
x-y,-y,z
-x,-x+y,z
loop_
_atom_site_type_symbol
_atom_site_label
_atom_site_fract_x
_atom_site_fract_y
_atom_site_fract_z
Si Si1 0.368126 0.097709 0.358871
Si Si2 0.332533 0.841762 0.500000
Si Si3 0.158933 0.666888 0.780987
Si Si4 0.268079 0.902307 0.913535
O O1 0.340411 0.170206 0.361264
O O2 0.432134 0.116747 0.427861
O O3 0.423326 0.113534 0.284397
O O4 0.292472 0.000000 0.361895
O O5 0.258715 0.741286 0.500000
O O6 0.426015 0.852029 0.500000
O O7 0.148315 0.574158 0.771132
O O8 0.259037 0.740963 0.778852
O O9 0.120943 0.676659 0.858604
O O10 0.169037 0.830963 0.899333
O O11 0.292424 0.000000 0.900169
O O12 0.285870 0.895052 0.000000
#
# Coordination Sequence:
#
# PCOD9587904 Si02
#       4
#    24  12  24  24
#     4  10  21  35  51  72  97 126 159 197 241 284
#     4  10  20  33  50  73 102 134 165 196 232 275
#     4  10  20  33  49  70  97 128 160 193 230 273
#     4   9  18  32  49  69  93 122 156 194 237 282
#
# _framework density 16.620003000000001
#
# number of rings (size 3 to 8) (size 9 to 14) (size 15 to 20)
#    0.000    2.286    0.000    2.571    0.000    5.143 
#    0.000    4.286    0.000    2.286    0.000    2.000 
#    0.000   10.286    0.000    0.286    0.000    1.143 
#
# Total GULP energy -468629.431887 kJ/mol
# GULP energy per Si atom -5578.921808 kJ/mol
# Density = 1.658218 g / cm^3
# Si number density = 16.620003 Si / 1000 Ang^3
#
#
#
# Elastic Constant Matrix: (Units=GPa)
#
#
# Indices 1 2 3 4 5 6 
#
# 1 97.8551 86.5886 39.0087 0.0000 0.0000 0.0000
# 2 86.5886 97.8551 39.0087 0.0000 0.0000 0.0000
# 3 39.0087 39.0087 68.1329 0.0000 0.0000 0.0000
# 4 0.0000 0.0000 0.0000 13.6864 0.0000 0.0000
# 5 0.0000 0.0000 0.0000 0.0000 13.6864 0.0000
# 6 0.0000 0.0000 0.0000 0.0000 0.0000 5.6332
#
#
#
# Elastic Compliance Matrix: (Units=1/GPa)
#
#
# Indices 1 2 3 4 5 6 
#
# 1 0.047957 -0.040802 -0.004096 0.000000 0.000000 0.000000
# 2 -0.040802 0.047957 -0.004096 0.000000 0.000000 0.000000
# 3 -0.004096 -0.004096 0.019368 0.000000 0.000000 0.000000
# 4 0.000000 0.000000 0.000000 0.073065 0.000000 0.000000
# 5 0.000000 0.000000 0.000000 0.000000 0.073065 0.000000
# 6 0.000000 0.000000 0.000000 0.000000 0.000000 0.177518
#
#
# Mechanical properties :
#
#
# Convention : Reuss Voigt Hill
#
# Bulk Modulus (GPa) = 57.83119 65.89505 61.86312
# Shear Modulus (GPa) = 9.21350 13.21700 11.21525
#
# Velocity S-wave (km/s) = 2.35704 2.82307 2.60052
# Velocity P-wave (km/s) = 6.50225 7.09651 6.80587
#
# Compressibility (1/GPa) = 0.01729171
#
# Stress axis : x y z
#
# Youngs Moduli (GPa) = 20.85220 20.85220 51.63272
#
# Poissons Ratio (x) = 0.85082 0.21149
# Poissons Ratio (y) = 0.85082 0.21149
# Poissons Ratio (z) = 0.08541 0.08541
#
# Static dielectric constant tensor:
#      x y z
#    x 1.541650 0.000000 0.000000 
#    y 0.000000 1.541650 0.000000 
#    z 0.000000 0.000000 1.570600 
# 
# From -- ./inp_files/3973.got.cif
#   From: 2010.05.17/outbox.cif.g08.bks.cpg/sg191_2_cif.got.tgz:3973.got - 2010.05.20 12:20:32.
