data_PCOD9587476
_publ_section_title
;
Structure prediction by ZEFSAII (Michael W. Deem and Ramdas Pophale) SiO2 
 PCOD9587476
Probable space group: P 6/M M M
;
_chemical_formula_sum "Si O2"
_cell_formula_units_Z 132
_cell_length_a 18.108509
_cell_length_b 18.108509
_cell_length_c 28.891872
_cell_angle_alpha 90.000000
_cell_angle_beta 90.000000
_cell_angle_gamma 120.000000
_cell_volume 8204.869925
_symmetry_space_group_name_H-M "P 6/M M M"
_symmetry_group_IT_number 191
_symmetry_cell_setting 'hexagonal'
loop_
_space_group_symop_operation_xyz
x,y,z
x-y,x,z
-y,x-y,z
-x,-y,z
-x+y,-x,z
y,-x+y,z
x-y,-y,-z
-x,-x+y,-z
y,x,-z
-y,-x,-z
-x+y,y,-z
x,x-y,-z
-x,-y,-z
-x+y,-x,-z
y,-x+y,-z
x,y,-z
x-y,x,-z
-y,x-y,-z
-x+y,y,z
x,x-y,z
-y,-x,z
y,x,z
x-y,-y,z
-x,-x+y,z
loop_
_atom_site_type_symbol
_atom_site_label
_atom_site_fract_x
_atom_site_fract_y
_atom_site_fract_z
Si Si1 0.635674 0.532324 0.947957
Si Si2 0.467744 0.102912 0.228082
Si Si3 0.267162 0.366157 0.316384
Si Si4 0.836275 0.505043 0.399310
Si Si5 0.366445 0.101848 0.860385
Si Si6 0.459136 0.362124 0.500000
O O1 0.566180 0.433821 0.937824
O O2 0.581377 0.581377 0.948973
O O3 0.702523 0.578946 0.907524
O O4 0.669856 0.538048 0.000000
O O5 0.568574 0.137148 0.228054
O O6 0.432319 0.124798 0.273705
O O7 0.431823 0.123436 0.182180
O O8 0.421892 0.000000 0.228422
O O9 0.166695 0.333390 0.317783
O O10 0.295218 0.295218 0.310856
O O11 0.309268 0.420381 0.362804
O O12 0.737273 0.474545 0.391221
O O13 0.853717 0.426859 0.393554
O O14 0.858826 0.538906 0.451850
O O15 0.326636 0.163318 0.856914
O O16 0.300224 0.000000 0.859266
O O17 0.383703 0.383703 0.500000
O O18 0.547748 0.452253 0.500000
#
# Coordination Sequence:
#
# PCOD9587476 Si02
#       6
#    24  24  24  24  24  12
#     4   8  14  26  45  67  88 111 142 181 226 277
#     4   9  17  30  49  71  92 115 145 180 220 269
#     4  10  20  33  50  71  94 122 156 194 233 273
#     4  10  19  30  45  66  93 124 157 193 232 274
#     4  10  19  30  46  68  93 122 158 199 238 275
#     4   9  17  28  42  60  84 119 161 197 227 264
#
# _framework density 16.088007000000001
#
# number of rings (size 3 to 8) (size 9 to 14) (size 15 to 20)
#    0.000    2.636    0.000    3.182    0.000    4.364 
#    0.000    0.909    0.000    8.000    0.000    0.000 
#    0.000    4.364    0.000    4.545    0.000   18.909 
#
# Total GULP energy -735210.898300 kJ/mol
# GULP energy per Si atom -5569.779533 kJ/mol
# Density = 1.605139 g / cm^3
# Si number density = 16.088007 Si / 1000 Ang^3
#
#
#
# Elastic Constant Matrix: (Units=GPa)
#
#
# Indices 1 2 3 4 5 6 
#
# 1 75.3013 45.9024 33.2036 0.0000 0.0000 0.0000
# 2 45.9024 75.3013 33.2036 0.0000 0.0000 0.0000
# 3 33.2036 33.2036 104.8691 0.0000 0.0000 0.0000
# 4 0.0000 0.0000 0.0000 8.2277 0.0000 0.0000
# 5 0.0000 0.0000 0.0000 0.0000 8.2277 0.0000
# 6 0.0000 0.0000 0.0000 0.0000 0.0000 14.6995
#
#
#
# Elastic Compliance Matrix: (Units=1/GPa)
#
#
# Indices 1 2 3 4 5 6 
#
# 1 0.021999 -0.012016 -0.003161 0.000000 0.000000 0.000000
# 2 -0.012016 0.021999 -0.003161 0.000000 0.000000 0.000000
# 3 -0.003161 -0.003161 0.011537 0.000000 0.000000 0.000000
# 4 0.000000 0.000000 0.000000 0.121541 0.000000 0.000000
# 5 0.000000 0.000000 0.000000 0.000000 0.121541 0.000000
# 6 0.000000 0.000000 0.000000 0.000000 0.000000 0.068030
#
#
# Mechanical properties :
#
#
# Convention : Reuss Voigt Hill
#
# Bulk Modulus (GPa) = 53.02430 53.34346 53.18388
# Shear Modulus (GPa) = 12.20684 15.77512 13.99098
#
# Velocity S-wave (km/s) = 2.75754 3.13477 2.95219
# Velocity P-wave (km/s) = 6.57032 6.80674 6.68957
#
# Compressibility (1/GPa) = 0.01885928
#
# Stress axis : x y z
#
# Youngs Moduli (GPa) = 45.45754 45.45754 86.67694
#
# Poissons Ratio (x) = 0.54623 0.27395
# Poissons Ratio (y) = 0.54623 0.27395
# Poissons Ratio (z) = 0.14367 0.14367
#
# Static dielectric constant tensor:
#      x y z
#    x 1.534830 0.000000 0.000000 
#    y 0.000000 1.534830 0.000000 
#    z 0.000000 0.000000 1.555970 
# 
# From -- ./inp_files/9820.got.cif
#   From: 2010.05.17/outbox.cif.g08.bks.cpg/sg191_5_cif.got.tgz:9820.got - 2010.05.20 12:20:32.
