data_PCOD9587955
_publ_section_title
;
Structure prediction by ZEFSAII (Michael W. Deem and Ramdas Pophale) SiO2 
 PCOD9587955
Probable space group: P 6/M M M
;
_chemical_formula_sum "Si O2"
_cell_formula_units_Z 108
_cell_length_a 29.624853
_cell_length_b 29.624853
_cell_length_c 8.118295
_cell_angle_alpha 90.000000
_cell_angle_beta 90.000000
_cell_angle_gamma 120.000000
_cell_volume 6170.322567
_symmetry_space_group_name_H-M "P 6/M M M"
_symmetry_group_IT_number 191
_symmetry_cell_setting 'hexagonal'
loop_
_space_group_symop_operation_xyz
x,y,z
x-y,x,z
-y,x-y,z
-x,-y,z
-x+y,-x,z
y,-x+y,z
x-y,-y,-z
-x,-x+y,-z
y,x,-z
-y,-x,-z
-x+y,y,-z
x,x-y,-z
-x,-y,-z
-x+y,-x,-z
y,-x+y,-z
x,y,-z
x-y,x,-z
-y,x-y,-z
-x+y,y,z
x,x-y,z
-y,-x,z
y,x,z
x-y,-y,z
-x,-x+y,z
loop_
_atom_site_type_symbol
_atom_site_label
_atom_site_fract_x
_atom_site_fract_y
_atom_site_fract_z
Si Si1 0.912118 0.192133 0.681778
Si Si2 0.435388 0.666190 0.801432
Si Si3 0.362330 0.302568 0.194847
Si Si4 0.155956 0.945745 0.000000
Si Si5 0.828795 0.275017 0.305401
O O1 0.927699 0.183599 0.500000
O O2 0.850073 0.149928 0.696987
O O3 0.927987 0.251694 0.701043
O O4 0.938698 0.181683 0.836079
O O5 0.418477 0.709239 0.766255
O O6 0.390606 0.609395 0.746797
O O7 0.492156 0.688347 0.724125
O O8 0.440748 0.665098 0.000000
O O9 0.348822 0.348822 0.233692
O O10 0.416632 0.303210 0.226359
O O11 0.351214 0.292009 0.000000
O O12 0.098266 0.901734 0.000000
O O13 0.159721 0.000000 0.000000
O O14 0.834763 0.269616 0.500000
O O15 0.783461 0.216540 0.244596
#
# Coordination Sequence:
#
# PCOD9587955 Si02
#       5
#    24  24  24  12  24
#     4  10  20  33  51  75 102 133 168 209 258 310
#     4   9  17  31  53  80 107 135 167 206 255 311
#     4  11  22  34  50  73 101 135 176 218 258 303
#     4  10  20  34  50  71  98 128 163 203 251 305
#     4  10  21  35  51  74 104 138 174 210 254 309
#
# _framework density 17.503136000000001
#
# number of rings (size 3 to 8) (size 9 to 14) (size 15 to 20)
#    0.000    2.000    1.111    2.889    0.000    8.444 
#    0.000    0.000    0.000    2.111    0.000    4.667 
#    0.000    0.000    0.000    5.556    0.000    0.000 
#
# Total GULP energy -601369.161672 kJ/mol
# GULP energy per Si atom -5568.232978 kJ/mol
# Density = 1.746330 g / cm^3
# Si number density = 17.503136 Si / 1000 Ang^3
#
#
#
# Elastic Constant Matrix: (Units=GPa)
#
#
# Indices 1 2 3 4 5 6 
#
# 1 118.6732 19.1315 21.9524 0.0000 0.0000 0.0000
# 2 19.1315 118.6732 21.9524 0.0000 0.0000 0.0000
# 3 21.9524 21.9524 80.1647 0.0000 0.0000 0.0000
# 4 0.0000 0.0000 0.0000-4407.4536 0.0004 0.0000
# 5 0.0000 0.0000 0.0000 0.0004-4407.4540 0.0000
# 6 0.0000 0.0000 0.0000 0.0000 0.0000 49.7709
#
#
#
# Elastic Compliance Matrix: (Units=1/GPa)
#
#
# Indices 1 2 3 4 5 6 
#
# 1 0.008998 -0.001048 -0.002177 0.000000 0.000000 0.000000
# 2 -0.001048 0.008998 -0.002177 0.000000 0.000000 0.000000
# 3 -0.002177 -0.002177 0.013667 0.000000 0.000000 0.000000
# 4 0.000000 0.000000 0.000000 -0.000227 0.000000 0.000000
# 5 0.000000 0.000000 0.000000 0.000000 -0.000227 0.000000
# 6 0.000000 0.000000 0.000000 0.000000 0.000000 0.020092
#
#
# Mechanical properties :
#
#
# Convention : Reuss Voigt Hill
#
# Bulk Modulus (GPa) = 47.94141 49.28707 48.61424
# Shear Modulus (GPa) = 72.40246 -1736.06235 -831.82995
#
# Velocity S-wave (km/s) = 6.43857 -31.52794 -21.82379
# Velocity P-wave (km/s) = 9.09523 36.01566 24.64148
#
# Compressibility (1/GPa) = 0.02085879
#
# Stress axis : x y z
#
# Youngs Moduli (GPa) = 111.13388 111.13388 73.17064
#
# Poissons Ratio (x) = 0.11646 0.15930
# Poissons Ratio (y) = 0.11646 0.15930
# Poissons Ratio (z) = 0.24195 0.24195
#
# Static dielectric constant tensor:
#      x y z
#    x 1.614280 0.000000 0.000000 
#    y 0.000000 1.614280 0.000000 
#    z 0.000000 0.000000 1.604520 
# 
# From -- ./inp_files/1730.got.cif
#   From: 2010.05.17/outbox.cif.g08.bks.cpg/sg191_1_cif.got.tgz:1730.got - 2010.05.20 12:20:32.
