data_PCOD9587503
_publ_section_title
;
Structure prediction by ZEFSAII (Michael W. Deem and Ramdas Pophale) SiO2 
 PCOD9587503
Probable space group: P 6/M M M
;
_chemical_formula_sum "Si O2"
_cell_formula_units_Z 132
_cell_length_a 18.493538
_cell_length_b 18.493538
_cell_length_c 28.627381
_cell_angle_alpha 90.000000
_cell_angle_beta 90.000000
_cell_angle_gamma 120.000000
_cell_volume 8479.148820
_symmetry_space_group_name_H-M "P 6/M M M"
_symmetry_group_IT_number 191
_symmetry_cell_setting 'hexagonal'
loop_
_space_group_symop_operation_xyz
x,y,z
x-y,x,z
-y,x-y,z
-x,-y,z
-x+y,-x,z
y,-x+y,z
x-y,-y,-z
-x,-x+y,-z
y,x,-z
-y,-x,-z
-x+y,y,-z
x,x-y,-z
-x,-y,-z
-x+y,-x,-z
y,-x+y,-z
x,y,-z
x-y,x,-z
-y,x-y,-z
-x+y,y,z
x,x-y,z
-y,-x,z
y,x,z
x-y,-y,z
-x,-x+y,z
loop_
_atom_site_type_symbol
_atom_site_label
_atom_site_fract_x
_atom_site_fract_y
_atom_site_fract_z
Si Si1 0.902195 0.262478 0.734970
Si Si2 0.631833 0.532400 0.651251
Si Si3 0.467753 0.368223 0.084977
Si Si4 0.833624 0.332762 0.188422
Si Si5 0.359265 0.260424 0.000000
Si Si6 0.162210 0.494410 0.449446
O O1 0.836098 0.163903 0.738064
O O2 0.875650 0.299576 0.691080
O O3 0.888602 0.306991 0.779942
O O4 0.000000 0.291541 0.730697
O O5 0.566973 0.433028 0.657655
O O6 0.576454 0.576454 0.654909
O O7 0.668859 0.548810 0.599014
O O8 0.559790 0.440211 0.068972
O O9 0.415897 0.415897 0.093908
O O10 0.477787 0.332657 0.133924
O O11 0.418169 0.301201 0.045177
O O12 0.848978 0.424489 0.199861
O O13 0.737816 0.262184 0.196714
O O14 0.292149 0.292149 0.000000
O O15 0.323726 0.161863 0.000000
O O16 0.126116 0.452329 0.500000
O O17 0.256530 0.513059 0.447999
O O18 0.160014 0.580007 0.449544
#
# Coordination Sequence:
#
# PCOD9587503 Si02
#       6
#    24  24  24  24  12  24
#     4  10  20  33  49  67  87 112 143 180 221 265
#     4   9  17  28  42  61  84 110 140 172 208 253
#     4   9  17  29  46  67  90 118 151 185 221 261
#     4  10  19  30  45  67  96 127 156 183 211 245
#     4  10  19  31  47  66  89 117 152 192 231 271
#     4   9  16  25  37  53  75 105 141 178 211 241
#
# _framework density 15.567601
#
# number of rings (size 3 to 8) (size 9 to 14) (size 15 to 20)
#    0.000    2.545    0.000    2.818    0.000    4.000 
#    0.000    1.818    0.000    8.636    0.000    0.000 
#    0.000    0.000    0.000    5.818    0.000    0.000 
#
# Total GULP energy -735105.982064 kJ/mol
# GULP energy per Si atom -5568.984713 kJ/mol
# Density = 1.553217 g / cm^3
# Si number density = 15.567601 Si / 1000 Ang^3
#
#
#
# Elastic Constant Matrix: (Units=GPa)
#
#
# Indices 1 2 3 4 5 6 
#
# 1 57.4530 35.3805 30.1535 0.0000 0.0000 0.0000
# 2 35.3805 57.4530 30.1535 0.0000 0.0000 0.0000
# 3 30.1535 30.1535 63.6035 0.0000 0.0000 0.0000
# 4 0.0000 0.0000 0.0000 24.0651 0.0000 0.0000
# 5 0.0000 0.0000 0.0000 0.0000 24.0651 0.0000
# 6 0.0000 0.0000 0.0000 0.0000 0.0000 11.0362
#
#
#
# Elastic Compliance Matrix: (Units=1/GPa)
#
#
# Indices 1 2 3 4 5 6 
#
# 1 0.030436 -0.014870 -0.007380 0.000000 0.000000 0.000000
# 2 -0.014870 0.030436 -0.007380 0.000000 0.000000 0.000000
# 3 -0.007380 -0.007380 0.022720 0.000000 0.000000 0.000000
# 4 0.000000 0.000000 0.000000 0.041554 0.000000 0.000000
# 5 0.000000 0.000000 0.000000 0.000000 0.041554 0.000000
# 6 0.000000 0.000000 0.000000 0.000000 0.000000 0.090611
#
#
# Mechanical properties :
#
#
# Convention : Reuss Voigt Hill
#
# Bulk Modulus (GPa) = 41.09635 41.09826 41.09731
# Shear Modulus (GPa) = 15.39987 17.35474 16.37730
#
# Velocity S-wave (km/s) = 3.14861 3.34248 3.24699
# Velocity P-wave (km/s) = 6.29875 6.43066 6.36505
#
# Compressibility (1/GPa) = 0.02433306
#
# Stress axis : x y z
#
# Youngs Moduli (GPa) = 32.85625 32.85625 44.01503
#
# Poissons Ratio (x) = 0.48856 0.32481
# Poissons Ratio (y) = 0.48856 0.32481
# Poissons Ratio (z) = 0.24247 0.24247
#
# Static dielectric constant tensor:
#      x y z
#    x 1.512460 0.000000 0.000000 
#    y 0.000000 1.512460 0.000000 
#    z 0.000000 0.000000 1.550250 
# 
# From -- ./inp_files/9759.got.cif
#   From: 2010.05.17/outbox.cif.g08.bks.cpg/sg191_5_cif.got.tgz:9759.got - 2010.05.20 12:20:32.
