data_PCOD9587566
_publ_section_title
;
Structure prediction by ZEFSAII (Michael W. Deem and Ramdas Pophale) SiO2 
 PCOD9587566
Probable space group: P 6/M M M
;
_chemical_formula_sum "Si O2"
_cell_formula_units_Z 132
_cell_length_a 27.647011
_cell_length_b 27.647011
_cell_length_c 13.578608
_cell_angle_alpha 90.000000
_cell_angle_beta 90.000000
_cell_angle_gamma 120.000000
_cell_volume 8988.397147
_symmetry_space_group_name_H-M "P 6/M M M"
_symmetry_group_IT_number 191
_symmetry_cell_setting 'hexagonal'
loop_
_space_group_symop_operation_xyz
x,y,z
x-y,x,z
-y,x-y,z
-x,-y,z
-x+y,-x,z
y,-x+y,z
x-y,-y,-z
-x,-x+y,-z
y,x,-z
-y,-x,-z
-x+y,y,-z
x,x-y,-z
-x,-y,-z
-x+y,-x,-z
y,-x+y,-z
x,y,-z
x-y,x,-z
-y,x-y,-z
-x+y,y,z
x,x-y,z
-y,-x,z
y,x,z
x-y,-y,z
-x,-x+y,z
loop_
_atom_site_type_symbol
_atom_site_label
_atom_site_fract_x
_atom_site_fract_y
_atom_site_fract_z
Si Si1 0.063496 0.825825 0.117457
Si Si2 0.602914 0.933048 0.615041
Si Si3 0.496027 0.106830 0.755952
Si Si4 0.291109 0.468833 0.885776
Si Si5 0.000000 0.441585 0.889000
Si Si6 0.120517 0.353683 0.772251
O O1 0.110331 0.889670 0.139677
O O2 0.081582 0.786626 0.174910
O O3 0.000000 0.807941 0.141324
O O4 0.066533 0.817905 0.000000
O O5 0.603791 0.920919 0.500000
O O6 0.540032 0.904499 0.657562
O O7 0.634274 0.909459 0.682586
O O8 0.632600 0.000000 0.626798
O O9 0.553484 0.106967 0.740996
O O10 0.503878 0.160997 0.813550
O O11 0.456371 0.055108 0.828148
O O12 0.241558 0.483115 0.876605
O O13 0.264342 0.404674 0.849569
O O14 0.308148 0.474625 0.000000
O O15 0.000000 0.500000 0.895311
O O16 0.000000 0.421987 0.000000
O O17 0.177136 0.354271 0.740642
#
# Coordination Sequence:
#
# PCOD9587566 Si02
#       6
#    24  24  24  24  12  24
#     4   9  16  26  42  64  90 120 153 188 225 266
#     4  10  20  32  45  62  87 119 152 186 225 269
#     4  10  19  31  46  65  88 116 149 183 218 260
#     4   9  17  29  45  65  89 115 141 172 217 271
#     4   9  16  26  41  63  89 113 138 172 215 259
#     4   9  17  29  45  64  86 113 147 186 225 266
#
# _framework density 14.685599
#
# number of rings (size 3 to 8) (size 9 to 14) (size 15 to 20)
#    0.000    2.636    0.909    1.636    0.000    4.000 
#    0.000    0.909    0.000    0.545    0.000    1.273 
#    0.000    0.000    0.000    0.545    0.000    0.727 
#
# Total GULP energy -735423.606457 kJ/mol
# GULP energy per Si atom -5571.390958 kJ/mol
# Density = 1.465217 g / cm^3
# Si number density = 14.685599 Si / 1000 Ang^3
#
#
#
# Elastic Constant Matrix: (Units=GPa)
#
#
# Indices 1 2 3 4 5 6 
#
# 1 73.8936 42.4323 33.8179 0.0000 0.0000 0.0000
# 2 42.4323 73.8936 33.8179 0.0000 0.0000 0.0000
# 3 33.8179 33.8179 68.4832 0.0000 0.0000 0.0000
# 4 0.0000 0.0000 0.0000 18.5864 0.0000 0.0000
# 5 0.0000 0.0000 0.0000 0.0000 18.5864 0.0000
# 6 0.0000 0.0000 0.0000 0.0000 0.0000 15.7306
#
#
#
# Elastic Compliance Matrix: (Units=1/GPa)
#
#
# Indices 1 2 3 4 5 6 
#
# 1 0.021922 -0.009863 -0.005955 0.000000 0.000000 0.000000
# 2 -0.009863 0.021922 -0.005955 0.000000 0.000000 0.000000
# 3 -0.005955 -0.005955 0.020483 0.000000 0.000000 0.000000
# 4 0.000000 0.000000 0.000000 0.053803 0.000000 0.000000
# 5 0.000000 0.000000 0.000000 0.000000 0.053803 0.000000
# 6 0.000000 0.000000 0.000000 0.000000 0.000000 0.063570
#
#
# Mechanical properties :
#
#
# Convention : Reuss Voigt Hill
#
# Bulk Modulus (GPa) = 48.11925 48.48961 48.30443
# Shear Modulus (GPa) = 17.48398 17.66082 17.57240
#
# Velocity S-wave (km/s) = 3.45418 3.47161 3.46290
# Velocity P-wave (km/s) = 6.98183 7.01139 6.99662
#
# Compressibility (1/GPa) = 0.02078170
#
# Stress axis : x y z
#
# Youngs Moduli (GPa) = 45.61628 45.61628 48.82035
#
# Poissons Ratio (x) = 0.44992 0.29072
# Poissons Ratio (y) = 0.44992 0.29072
# Poissons Ratio (z) = 0.27164 0.27164
#
# Static dielectric constant tensor:
#      x y z
#    x 1.486430 0.000000 0.000000 
#    y 0.000000 1.486430 0.000000 
#    z 0.000000 0.000000 1.470550 
# 
# From -- ./inp_files/3357.got.cif
#   From: 2010.05.17/outbox.cif.g08.bks.cpg/sg191_2_cif.got.tgz:3357.got - 2010.05.20 12:20:32.
