data_PCOD9587391
_publ_section_title
;
Structure prediction by ZEFSAII (Michael W. Deem and Ramdas Pophale) SiO2 
 PCOD9587391
Probable space group: P 6/M M M
;
_chemical_formula_sum "Si O2"
_cell_formula_units_Z 192
_cell_length_a 31.950132
_cell_length_b 31.950132
_cell_length_c 14.514053
_cell_angle_alpha 90.000000
_cell_angle_beta 90.000000
_cell_angle_gamma 120.000000
_cell_volume 12831.122459
_symmetry_space_group_name_H-M "P 6/M M M"
_symmetry_group_IT_number 191
_symmetry_cell_setting 'hexagonal'
loop_
_space_group_symop_operation_xyz
x,y,z
x-y,x,z
-y,x-y,z
-x,-y,z
-x+y,-x,z
y,-x+y,z
x-y,-y,-z
-x,-x+y,-z
y,x,-z
-y,-x,-z
-x+y,y,-z
x,x-y,-z
-x,-y,-z
-x+y,-x,-z
y,-x+y,-z
x,y,-z
x-y,x,-z
-y,x-y,-z
-x+y,y,z
x,x-y,z
-y,-x,z
y,x,z
x-y,-y,z
-x,-x+y,z
loop_
_atom_site_type_symbol
_atom_site_label
_atom_site_fract_x
_atom_site_fract_y
_atom_site_fract_z
Si Si1 0.771685 0.639498 0.890504
Si Si2 0.809212 0.526434 0.888050
Si Si3 0.140740 0.377932 0.609587
Si Si4 0.944552 0.663992 0.748014
Si Si5 0.054843 0.618326 0.252469
Si Si6 0.487786 0.878453 0.110752
Si Si7 0.666748 0.237741 0.612448
Si Si8 0.664252 0.523956 0.390592
O O1 0.826758 0.653516 0.871032
O O2 0.739108 0.582786 0.862307
O O3 0.752158 0.669309 0.835862
O O4 0.766623 0.641841 0.000000
O O5 0.755476 0.510952 0.854816
O O6 0.833843 0.495462 0.860847
O O7 0.807618 0.525811 0.000000
O O8 0.134711 0.369317 0.500000
O O9 0.186438 0.372876 0.640015
O O10 0.091266 0.344093 0.663217
O O11 0.151642 0.432586 0.625218
O O12 0.944929 0.613683 0.760389
O O13 0.000000 0.705012 0.735889
O O14 0.075524 0.605413 0.162956
O O15 0.092673 0.628653 0.334191
O O16 0.000000 0.578237 0.273102
O O17 0.435617 0.871234 0.134233
O O18 0.493705 0.883982 0.000000
O O19 0.667406 0.238654 0.500000
O O20 0.621451 0.242902 0.642594
O O21 0.717210 0.282791 0.643561
O O22 0.660509 0.186449 0.638589
O O23 0.654988 0.522465 0.500000
#
# Coordination Sequence:
#
# PCOD9587391 Si02
#       8
#    24  24  24  24  24  24  24  24
#     4   9  16  27  45  67  90 116 146 180 217 262
#     4   8  14  27  47  68  87 106 133 170 210 252
#     4   9  17  30  47  65  87 116 152 192 225 258
#     4  10  19  29  43  65  92 119 146 181 227 273
#     4  10  21  34  47  65  88 114 143 175 211 254
#     4  10  20  34  51  69  89 112 139 171 209 255
#     4   9  16  27  45  68  91 111 131 160 203 254
#     4   9  18  32  49  68  88 113 144 176 210 250
#
# _framework density 14.963616999999999
#
# number of rings (size 3 to 8) (size 9 to 14) (size 15 to 20)
#    0.000    2.750    1.250    1.625    0.000    3.750 
#    0.000    5.000    0.000    0.250    0.000    4.375 
#    0.000    0.000    0.000    0.000    0.000    0.000 
#
# Total GULP energy -1070439.504810 kJ/mol
# GULP energy per Si atom -5575.205754 kJ/mol
# Density = 1.492956 g / cm^3
# Si number density = 14.963617 Si / 1000 Ang^3
#
#
#
# Elastic Constant Matrix: (Units=GPa)
#
#
# Indices 1 2 3 4 5 6 
#
# 1 88.5252 66.5259 28.6927 0.0000 0.0000 0.0000
# 2 66.5259 88.5252 28.6927 0.0000 0.0000 0.0000
# 3 28.6927 28.6927 41.2686 0.0000 0.0000 0.0000
# 4 0.0000 0.0000 0.0000 17.0643 0.0000 0.0000
# 5 0.0000 0.0000 0.0000 0.0000 17.0643 0.0000
# 6 0.0000 0.0000 0.0000 0.0000 0.0000 10.9997
#
#
#
# Elastic Compliance Matrix: (Units=1/GPa)
#
#
# Indices 1 2 3 4 5 6 
#
# 1 0.027070 -0.018386 -0.006038 0.000000 0.000000 0.000000
# 2 -0.018386 0.027070 -0.006038 0.000000 0.000000 0.000000
# 3 -0.006038 -0.006038 0.032627 0.000000 0.000000 0.000000
# 4 0.000000 0.000000 0.000000 0.058602 0.000000 0.000000
# 5 0.000000 0.000000 0.000000 0.000000 0.058602 0.000000
# 6 0.000000 0.000000 0.000000 0.000000 0.000000 0.090912
#
#
# Mechanical properties :
#
#
# Convention : Reuss Voigt Hill
#
# Bulk Modulus (GPa) = 38.69320 51.79354 45.24337
# Shear Modulus (GPa) = 13.72041 15.31950 14.51995
#
# Velocity S-wave (km/s) = 3.03135 3.20313 3.11842
# Velocity P-wave (km/s) = 6.17790 6.95473 6.57779
#
# Compressibility (1/GPa) = 0.02584434
#
# Stress axis : x y z
#
# Youngs Moduli (GPa) = 36.94121 36.94121 30.64925
#
# Poissons Ratio (x) = 0.67920 0.18505
# Poissons Ratio (y) = 0.67920 0.18505
# Poissons Ratio (z) = 0.22304 0.22304
#
# Static dielectric constant tensor:
#      x y z
#    x 1.483650 0.000000 0.000000 
#    y 0.000000 1.483650 0.000000 
#    z 0.000000 0.000000 1.536520 
# 
# From -- ./inp_files/5518.got.cif
#   From: 2010.05.17/outbox.cif.g08.bks.cpg/sg191_3_cif.got.tgz:5518.got - 2010.05.20 12:20:32.
