data_PCOD9587406
_publ_section_title
;
Structure prediction by ZEFSAII (Michael W. Deem and Ramdas Pophale) SiO2 
 PCOD9587406
Probable space group: P 6/M M M
;
_chemical_formula_sum "Si O2"
_cell_formula_units_Z 132
_cell_length_a 18.163505
_cell_length_b 18.163505
_cell_length_c 28.068640
_cell_angle_alpha 90.000000
_cell_angle_beta 90.000000
_cell_angle_gamma 120.000000
_cell_volume 8019.574343
_symmetry_space_group_name_H-M "P 6/M M M"
_symmetry_group_IT_number 191
_symmetry_cell_setting 'hexagonal'
loop_
_space_group_symop_operation_xyz
x,y,z
x-y,x,z
-y,x-y,z
-x,-y,z
-x+y,-x,z
y,-x+y,z
x-y,-y,-z
-x,-x+y,-z
y,x,-z
-y,-x,-z
-x+y,y,-z
x,x-y,-z
-x,-y,-z
-x+y,-x,-z
y,-x+y,-z
x,y,-z
x-y,x,-z
-y,x-y,-z
-x+y,y,z
x,x-y,z
-y,-x,z
y,x,z
x-y,-y,z
-x,-x+y,z
loop_
_atom_site_type_symbol
_atom_site_label
_atom_site_fract_x
_atom_site_fract_y
_atom_site_fract_z
Si Si1 0.492417 0.332447 0.500000
Si Si2 0.196984 0.393967 0.942945
Si Si3 0.834588 0.503636 0.672818
Si Si4 0.804620 0.902310 0.057913
Si Si5 0.102649 0.637741 0.118793
Si Si6 0.459461 0.362265 0.775541
Si Si7 0.366029 0.097061 0.588802
O O1 0.574856 0.425145 0.500000
O O2 0.518658 0.259329 0.500000
O O3 0.433234 0.314931 0.453941
O O4 0.147131 0.294262 0.929167
O O5 0.146894 0.437239 0.920395
O O6 0.199988 0.399976 0.000000
O O7 0.736391 0.472781 0.662068
O O8 0.853224 0.426612 0.666324
O O9 0.852944 0.533434 0.727672
O O10 0.888788 0.581108 0.637397
O O11 0.852734 0.852734 0.074170
O O12 0.807728 0.903864 0.000000
O O13 0.123765 0.561883 0.113101
O O14 0.128974 0.676231 0.172225
O O15 0.000000 0.592542 0.116422
O O16 0.547484 0.452517 0.777950
O O17 0.385211 0.385211 0.770070
O O18 0.339289 0.169645 0.586824
O O19 0.291709 0.000000 0.585009
#
# Coordination Sequence:
#
# PCOD9587406 Si02
#       7
#    12  12  24  12  24  24  24
#     4  10  20  33  50  73 106 148 187 218 248 287
#     4  11  22  33  50  75 100 126 163 207 242 289
#     4  10  19  29  45  71 104 137 169 204 243 287
#     4   9  17  30  49  74 102 128 154 189 239 296
#     4   9  19  36  54  71  95 130 167 203 249 296
#     4   8  15  29  48  67  88 120 163 207 247 289
#     4  10  21  35  51  73 100 133 173 218 265 310
#
# _framework density 16.459726
#
# number of rings (size 3 to 8) (size 9 to 14) (size 15 to 20)
#    0.000    2.545    0.000    3.364    1.273    4.364 
#    0.545    2.727    0.000    0.182    0.000    0.000 
#    0.000    2.182    0.000    0.000    0.000    0.000 
#
# Total GULP energy -735715.669404 kJ/mol
# GULP energy per Si atom -5573.603556 kJ/mol
# Density = 1.642226 g / cm^3
# Si number density = 16.459726 Si / 1000 Ang^3
#
#
#
# Elastic Constant Matrix: (Units=GPa)
#
#
# Indices 1 2 3 4 5 6 
#
# 1 89.5258 61.2050 40.3614 0.0000 0.0000 0.0000
# 2 61.2050 89.5258 40.3614 0.0000 0.0000 0.0000
# 3 40.3614 40.3614 95.5813 0.0000 0.0000 0.0000
# 4 0.0000 0.0000 0.0000 19.8915 0.0000 0.0000
# 5 0.0000 0.0000 0.0000 0.0000 19.8915 0.0000
# 6 0.0000 0.0000 0.0000 0.0000 0.0000 14.1604
#
#
#
# Elastic Compliance Matrix: (Units=1/GPa)
#
#
# Indices 1 2 3 4 5 6 
#
# 1 0.021941 -0.013368 -0.003620 0.000000 0.000000 0.000000
# 2 -0.013368 0.021941 -0.003620 0.000000 0.000000 0.000000
# 3 -0.003620 -0.003620 0.013520 0.000000 0.000000 0.000000
# 4 0.000000 0.000000 0.000000 0.050273 0.000000 0.000000
# 5 0.000000 0.000000 0.000000 0.000000 0.050273 0.000000
# 6 0.000000 0.000000 0.000000 0.000000 0.000000 0.070619
#
#
# Mechanical properties :
#
#
# Convention : Reuss Voigt Hill
#
# Bulk Modulus (GPa) = 61.78493 62.05425 61.91959
# Shear Modulus (GPa) = 18.16993 19.63569 18.90281
#
# Velocity S-wave (km/s) = 3.32611 3.45766 3.39252
# Velocity P-wave (km/s) = 7.23666 7.32960 7.28328
#
# Compressibility (1/GPa) = 0.01618518
#
# Stress axis : x y z
#
# Youngs Moduli (GPa) = 45.57593 45.57593 73.96606
#
# Poissons Ratio (x) = 0.60927 0.26777
# Poissons Ratio (y) = 0.60927 0.26777
# Poissons Ratio (z) = 0.16499 0.16499
#
# Static dielectric constant tensor:
#      x y z
#    x 1.545940 0.000000 0.000000 
#    y 0.000000 1.545940 0.000000 
#    z 0.000000 0.000000 1.569280 
# 
# From -- ./inp_files/9880.got.cif
#   From: 2010.05.17/outbox.cif.g08.bks.cpg/sg191_5_cif.got.tgz:9880.got - 2010.05.20 12:20:32.
