data_PCOD9587400
_publ_section_title
;
Structure prediction by ZEFSAII (Michael W. Deem and Ramdas Pophale) SiO2 
 PCOD9587400
Probable space group: P 6/M M M
;
_chemical_formula_sum "Si O2"
_cell_formula_units_Z 120
_cell_length_a 18.103931
_cell_length_b 18.103931
_cell_length_c 25.397497
_cell_angle_alpha 90.000000
_cell_angle_beta 90.000000
_cell_angle_gamma 120.000000
_cell_volume 7208.872108
_symmetry_space_group_name_H-M "P 6/M M M"
_symmetry_group_IT_number 191
_symmetry_cell_setting 'hexagonal'
loop_
_space_group_symop_operation_xyz
x,y,z
x-y,x,z
-y,x-y,z
-x,-y,z
-x+y,-x,z
y,-x+y,z
x-y,-y,-z
-x,-x+y,-z
y,x,-z
-y,-x,-z
-x+y,y,-z
x,x-y,-z
-x,-y,-z
-x+y,-x,-z
y,-x+y,-z
x,y,-z
x-y,x,-z
-y,x-y,-z
-x+y,y,z
x,x-y,z
-y,-x,z
y,x,z
x-y,-y,z
-x,-x+y,z
loop_
_atom_site_type_symbol
_atom_site_label
_atom_site_fract_x
_atom_site_fract_y
_atom_site_fract_z
Si Si1 0.504618 0.835482 0.828665
Si Si2 0.801454 0.602908 0.562898
Si Si3 0.731793 0.634141 0.265496
Si Si4 0.900128 0.360702 0.057291
Si Si5 0.198017 0.099009 0.564163
Si Si6 0.465181 0.363895 0.630571
O O1 0.427124 0.854247 0.822986
O O2 0.472941 0.736471 0.818212
O O3 0.579535 0.888452 0.787422
O O4 0.538730 0.855801 0.888523
O O5 0.800502 0.601004 0.500000
O O6 0.851395 0.702789 0.580218
O O7 0.850107 0.557048 0.586551
O O8 0.831059 0.662118 0.266641
O O9 0.708762 0.708762 0.269158
O O10 0.685194 0.570323 0.314278
O O11 0.895263 0.447632 0.056216
O O12 0.000000 0.391111 0.060600
O O13 0.867411 0.318452 0.000000
O O14 0.148951 0.148951 0.581131
O O15 0.197057 0.098529 0.500000
O O16 0.564076 0.435925 0.633638
O O17 0.412844 0.412844 0.619934
#
# Coordination Sequence:
#
# PCOD9587400 Si02
#       6
#    24  12  24  24  12  24
#     4  10  19  29  44  69 100 135 175 218 259 298
#     4  11  22  37  56  79 106 140 176 215 258 309
#     4  10  20  36  58  81 103 129 164 207 255 305
#     4   8  14  25  40  58  84 123 171 218 261 304
#     4   9  17  30  51  80 112 142 172 208 253 308
#     4  10  21  38  58  79 104 136 174 214 257 304
#
# _framework density 16.646155
#
# number of rings (size 3 to 8) (size 9 to 14) (size 15 to 20)
#    0.000    2.400    1.000    2.700    0.000    4.400 
#    0.600    1.000    0.000    1.400    0.000    0.000 
#    0.000    0.000    0.000    0.000    0.000    0.000 
#
# Total GULP energy -668895.921055 kJ/mol
# GULP energy per Si atom -5574.132675 kJ/mol
# Density = 1.660827 g / cm^3
# Si number density = 16.646155 Si / 1000 Ang^3
#
#
#
# Elastic Constant Matrix: (Units=GPa)
#
#
# Indices 1 2 3 4 5 6 
#
# 1 91.1170 62.5946 39.1065 0.0000 0.0000 0.0000
# 2 62.5946 91.1170 39.1065 0.0000 0.0000 0.0000
# 3 39.1065 39.1065 93.7743 0.0000 0.0000 0.0000
# 4 0.0000 0.0000 0.0000 20.5580 0.0000 0.0000
# 5 0.0000 0.0000 0.0000 0.0000 20.5580 0.0000
# 6 0.0000 0.0000 0.0000 0.0000 0.0000 14.2612
#
#
#
# Elastic Compliance Matrix: (Units=1/GPa)
#
#
# Indices 1 2 3 4 5 6 
#
# 1 0.021659 -0.013401 -0.003444 0.000000 0.000000 0.000000
# 2 -0.013401 0.021659 -0.003444 0.000000 0.000000 0.000000
# 3 -0.003444 -0.003444 0.013536 0.000000 0.000000 0.000000
# 4 0.000000 0.000000 0.000000 0.048643 0.000000 0.000000
# 5 0.000000 0.000000 0.000000 0.000000 0.048643 0.000000
# 6 0.000000 0.000000 0.000000 0.000000 0.000000 0.070120
#
#
# Mechanical properties :
#
#
# Convention : Reuss Voigt Hill
#
# Bulk Modulus (GPa) = 61.43646 61.95816 61.69731
# Shear Modulus (GPa) = 18.50051 20.08886 19.29468
#
# Velocity S-wave (km/s) = 3.33738 3.47770 3.40826
# Velocity P-wave (km/s) = 7.19988 7.30940 7.25485
#
# Compressibility (1/GPa) = 0.01627698
#
# Stress axis : x y z
#
# Youngs Moduli (GPa) = 46.17012 46.17012 73.87573
#
# Poissons Ratio (x) = 0.61873 0.25441
# Poissons Ratio (y) = 0.61873 0.25441
# Poissons Ratio (z) = 0.15900 0.15900
#
# Static dielectric constant tensor:
#      x y z
#    x 1.556780 0.000000 0.000000 
#    y 0.000000 1.556780 0.000000 
#    z 0.000000 0.000000 1.581100 
# 
# From -- ./inp_files/8577.got.cif
#   From: 2010.05.17/outbox.cif.g08.bks.cpg/sg191_5_cif.got.tgz:8577.got - 2010.05.20 12:20:32.
