data_PCOD9587092
_publ_section_title
;
Structure prediction by ZEFSAII (Michael W. Deem and Ramdas Pophale) SiO2 
 PCOD9587092
Probable space group: P 6/M M M
;
_chemical_formula_sum "Si O2"
_cell_formula_units_Z 120
_cell_length_a 18.384388
_cell_length_b 18.384388
_cell_length_c 27.903708
_cell_angle_alpha 90.000000
_cell_angle_beta 90.000000
_cell_angle_gamma 120.000000
_cell_volume 8167.533127
_symmetry_space_group_name_H-M "P 6/M M M"
_symmetry_group_IT_number 191
_symmetry_cell_setting 'hexagonal'
loop_
_space_group_symop_operation_xyz
x,y,z
x-y,x,z
-y,x-y,z
-x,-y,z
-x+y,-x,z
y,-x+y,z
x-y,-y,-z
-x,-x+y,-z
y,x,-z
-y,-x,-z
-x+y,y,-z
x,x-y,-z
-x,-y,-z
-x+y,-x,-z
y,-x+y,-z
x,y,-z
x-y,x,-z
-y,x-y,-z
-x+y,y,z
x,x-y,z
-y,-x,z
y,x,z
x-y,-y,z
-x,-x+y,z
loop_
_atom_site_type_symbol
_atom_site_label
_atom_site_fract_x
_atom_site_fract_y
_atom_site_fract_z
Si Si1 0.502934 0.836792 0.271611
Si Si2 0.333004 0.838318 0.616014
Si Si3 0.330929 0.499344 0.000000
Si Si4 0.097733 0.736190 0.809706
Si Si5 0.000000 0.588415 0.444950
Si Si6 0.533216 0.633853 0.101228
O O1 0.423882 0.847764 0.258707
O O2 0.478616 0.739308 0.267014
O O3 0.523555 0.859537 0.327533
O O4 0.581520 0.888723 0.237126
O O5 0.411205 0.822410 0.607934
O O6 0.245845 0.754156 0.606206
O O7 0.348042 0.916208 0.583480
O O8 0.320501 0.452981 0.949816
O O9 0.426754 0.573247 0.000000
O O10 0.267125 0.534250 0.000000
O O11 0.165053 0.834947 0.807616
O O12 0.121541 0.696434 0.854696
O O13 0.000000 0.708488 0.813909
O O14 0.000000 0.500000 0.444895
O O15 0.000000 0.612779 0.500000
O O16 0.434004 0.565997 0.108170
O O17 0.579789 0.579789 0.098972
#
# Coordination Sequence:
#
# PCOD9587092 Si02
#       6
#    24  24  12  24  12  24
#     4   9  17  28  44  66  91 118 146 177 211 251
#     4   9  17  29  45  64  87 117 152 186 220 258
#     4  10  18  27  39  55  80 113 149 181 209 242
#     4  10  20  32  46  65  88 113 143 179 221 266
#     4   9  18  30  42  60  86 114 147 186 224 258
#     4   9  17  29  44  62  83 110 143 179 218 260
#
# _framework density 14.692318999999999
#
# number of rings (size 3 to 8) (size 9 to 14) (size 15 to 20)
#    0.000    2.700    0.000    2.000    1.400    4.400 
#    0.000    0.000    0.000    7.800    0.000    0.000 
#    0.000    0.000    0.000    0.300    0.000   22.100 
#
# Total GULP energy -668461.482491 kJ/mol
# GULP energy per Si atom -5570.512354 kJ/mol
# Density = 1.465888 g / cm^3
# Si number density = 14.692319 Si / 1000 Ang^3
#
#
#
# Elastic Constant Matrix: (Units=GPa)
#
#
# Indices 1 2 3 4 5 6 
#
# 1 64.7286 39.5454 45.2495 0.0000 0.0000 0.0000
# 2 39.5454 64.7286 45.2495 0.0000 0.0000 0.0000
# 3 45.2495 45.2495 84.3333 0.0000 0.0000 0.0000
# 4 0.0000 0.0000 0.0000 15.4719 0.0000 0.0000
# 5 0.0000 0.0000 0.0000 0.0000 15.4719 0.0000
# 6 0.0000 0.0000 0.0000 0.0000 0.0000 12.5916
#
#
#
# Elastic Compliance Matrix: (Units=1/GPa)
#
#
# Indices 1 2 3 4 5 6 
#
# 1 0.028829 -0.010881 -0.009630 0.000000 0.000000 0.000000
# 2 -0.010881 0.028829 -0.009630 0.000000 0.000000 0.000000
# 3 -0.009630 -0.009630 0.022192 0.000000 0.000000 0.000000
# 4 0.000000 0.000000 0.000000 0.064633 0.000000 0.000000
# 5 0.000000 0.000000 0.000000 0.000000 0.064633 0.000000
# 6 0.000000 0.000000 0.000000 0.000000 0.000000 0.079418
#
#
# Mechanical properties :
#
#
# Convention : Reuss Voigt Hill
#
# Bulk Modulus (GPa) = 51.10511 52.65324 51.87917
# Shear Modulus (GPa) = 14.07111 14.29014 14.18063
#
# Velocity S-wave (km/s) = 3.09806 3.12208 3.11009
# Velocity P-wave (km/s) = 6.90336 6.99368 6.94867
#
# Compressibility (1/GPa) = 0.01956752
#
# Stress axis : x y z
#
# Youngs Moduli (GPa) = 34.68784 34.68784 45.06150
#
# Poissons Ratio (x) = 0.37742 0.43395
# Poissons Ratio (y) = 0.37742 0.43395
# Poissons Ratio (z) = 0.33405 0.33405
#
# Static dielectric constant tensor:
#      x y z
#    x 1.470450 0.000000 0.000000 
#    y 0.000000 1.470450 0.000000 
#    z 0.000000 0.000000 1.505750 
# 
# From -- ./inp_files/8612.got.cif
#   From: 2010.05.17/outbox.cif.g08.bks.cpg/sg191_5_cif.got.tgz:8612.got - 2010.05.20 12:20:32.
