data_PCOD9587175
_publ_section_title
;
Structure prediction by ZEFSAII (Michael W. Deem and Ramdas Pophale) SiO2 
 PCOD9587175
Probable space group: P 6/M M M
;
_chemical_formula_sum "Si O2"
_cell_formula_units_Z 96
_cell_length_a 28.926464
_cell_length_b 28.926464
_cell_length_c 7.780192
_cell_angle_alpha 90.000000
_cell_angle_beta 90.000000
_cell_angle_gamma 120.000000
_cell_volume 5637.825673
_symmetry_space_group_name_H-M "P 6/M M M"
_symmetry_group_IT_number 191
_symmetry_cell_setting 'hexagonal'
loop_
_space_group_symop_operation_xyz
x,y,z
x-y,x,z
-y,x-y,z
-x,-y,z
-x+y,-x,z
y,-x+y,z
x-y,-y,-z
-x,-x+y,-z
y,x,-z
-y,-x,-z
-x+y,y,-z
x,x-y,-z
-x,-y,-z
-x+y,-x,-z
y,-x+y,-z
x,y,-z
x-y,x,-z
-y,x-y,-z
-x+y,y,z
x,x-y,z
-y,-x,z
y,x,z
x-y,-y,z
-x,-x+y,z
loop_
_atom_site_type_symbol
_atom_site_label
_atom_site_fract_x
_atom_site_fract_y
_atom_site_fract_z
Si Si1 0.407326 0.106578 0.793891
Si Si2 0.880795 0.761590 0.291928
Si Si3 0.302939 0.000000 0.790917
Si Si4 0.060590 0.582281 0.293705
Si Si5 0.365429 0.182715 0.792009
Si Si6 0.803823 0.803823 0.701627
O O1 0.458854 0.101911 0.751479
O O2 0.396359 0.152643 0.729109
O O3 0.356357 0.051875 0.733098
O O4 0.404883 0.107464 0.000000
O O5 0.882081 0.764162 0.500000
O O6 0.849008 0.698016 0.250310
O O7 0.848649 0.790865 0.227855
O O8 0.251405 0.000000 0.721027
O O9 0.300275 0.000000 0.000000
O O10 0.057876 0.579460 0.500000
O O11 0.073706 0.536853 0.233311
O O12 0.000000 0.563145 0.230567
O O13 0.367123 0.183562 0.000000
O O14 0.816251 0.816251 0.500000
#
# Coordination Sequence:
#
# PCOD9587175 Si02
#       6
#    24  12  12  24  12  12
#     4  10  19  30  44  66  94 123 152 185 222 265
#     4  10  20  32  46  65  88 116 152 192 236 284
#     4  10  18  28  45  67  91 122 155 184 223 268
#     4   9  18  31  46  65  90 121 154 185 217 255
#     4  10  20  32  46  66  95 125 153 186 226 274
#     4  10  20  32  46  64  87 116 152 193 235 282
#
# _framework density 17.027840999999999
#
# number of rings (size 3 to 8) (size 9 to 14) (size 15 to 20)
#    0.000    2.250    3.750    0.750    0.000    2.500 
#    0.000    1.250    0.000    0.250    0.000    1.750 
#    1.250    0.000    0.750    2.250    1.000    2.500 
#
# Total GULP energy -535006.914723 kJ/mol
# GULP energy per Si atom -5572.988695 kJ/mol
# Density = 1.698909 g / cm^3
# Si number density = 17.027841 Si / 1000 Ang^3
#
#
#
# Elastic Constant Matrix: (Units=GPa)
#
#
# Indices 1 2 3 4 5 6 
#
# 1 139.3147 81.5709 5.2805 0.0000 0.0000 0.0000
# 2 81.5709 139.3147 5.2805 0.0000 0.0000 0.0000
# 3 5.2805 5.2805 20.8947 0.0000 0.0000 0.0000
# 4 0.0000 0.0000 0.0000 -15.1295 0.0000 0.0000
# 5 0.0000 0.0000 0.0000 0.0000 -15.1295 0.0000
# 6 0.0000 0.0000 0.0000 0.0000 0.0000 28.8719
#
#
#
# Elastic Compliance Matrix: (Units=1/GPa)
#
#
# Indices 1 2 3 4 5 6 
#
# 1 0.010950 -0.006368 -0.001158 0.000000 0.000000 0.000000
# 2 -0.006368 0.010950 -0.001158 0.000000 0.000000 0.000000
# 3 -0.001158 -0.001158 0.048444 0.000000 0.000000 0.000000
# 4 0.000000 0.000000 0.000000 -0.066096 0.000000 0.000000
# 5 0.000000 0.000000 0.000000 0.000000 -0.066096 0.000000
# 6 0.000000 0.000000 0.000000 0.000000 0.000000 0.034636
#
#
# Mechanical properties :
#
#
# Convention : Reuss Voigt Hill
#
# Bulk Modulus (GPa) = 18.87608 53.75421 36.31515
# Shear Modulus (GPa) = 639.76110 13.54872 326.65491
#
# Velocity S-wave (km/s) = 19.40439 2.82384 13.86551
# Velocity P-wave (km/s) = 22.65281 6.50147 16.66462
#
# Compressibility (1/GPa) = 0.05297710
#
# Stress axis : x y z
#
# Youngs Moduli (GPa) = 91.32222 91.32222 20.64224
#
# Poissons Ratio (x) = 0.58151 0.02391
# Poissons Ratio (y) = 0.58151 0.02391
# Poissons Ratio (z) = 0.10576 0.10576
#
# Static dielectric constant tensor:
#      x y z
#    x 1.589830 0.000000 0.000000 
#    y 0.000000 1.589830 0.000000 
#    z 0.000000 0.000000 1.621150 
# 
# From -- ./inp_files/1638.got.cif
#   From: 2010.05.17/outbox.cif.g08.bks.cpg/sg191_1_cif.got.tgz:1638.got - 2010.05.20 12:20:32.
