data_PCOD9587339
_publ_section_title
;
Structure prediction by ZEFSAII (Michael W. Deem and Ramdas Pophale) SiO2 
 PCOD9587339
Probable space group: P 6/M M M
;
_chemical_formula_sum "Si O2"
_cell_formula_units_Z 96
_cell_length_a 28.712088
_cell_length_b 28.712088
_cell_length_c 8.653568
_cell_angle_alpha 90.000000
_cell_angle_beta 90.000000
_cell_angle_gamma 120.000000
_cell_volume 6178.106567
_symmetry_space_group_name_H-M "P 6/M M M"
_symmetry_group_IT_number 191
_symmetry_cell_setting 'hexagonal'
loop_
_space_group_symop_operation_xyz
x,y,z
x-y,x,z
-y,x-y,z
-x,-y,z
-x+y,-x,z
y,-x+y,z
x-y,-y,-z
-x,-x+y,-z
y,x,-z
-y,-x,-z
-x+y,y,-z
x,x-y,-z
-x,-y,-z
-x+y,-x,-z
y,-x+y,-z
x,y,-z
x-y,x,-z
-y,x-y,-z
-x+y,y,z
x,x-y,z
-y,-x,z
y,x,z
x-y,-y,z
-x,-x+y,z
loop_
_atom_site_type_symbol
_atom_site_label
_atom_site_fract_x
_atom_site_fract_y
_atom_site_fract_z
Si Si1 0.408942 0.106036 0.815881
Si Si2 0.879525 0.759049 0.311169
Si Si3 0.309207 0.000000 0.682061
Si Si4 0.062156 0.584127 0.313915
Si Si5 0.363821 0.181911 0.812568
Si Si6 0.802114 0.802114 0.317169
O O1 0.458641 0.101823 0.748601
O O2 0.397107 0.152843 0.765017
O O3 0.356459 0.052046 0.760781
O O4 0.412842 0.107494 0.000000
O O5 0.878534 0.757068 0.500000
O O6 0.848487 0.696974 0.254322
O O7 0.848142 0.790009 0.257744
O O8 0.253688 0.000000 0.698214
O O9 0.320919 0.000000 0.500000
O O10 0.062623 0.585831 0.500000
O O11 0.074584 0.537292 0.266092
O O12 0.000000 0.563074 0.265474
O O13 0.358765 0.179383 0.000000
O O14 0.813279 0.813279 0.500000
#
# Coordination Sequence:
#
# PCOD9587339 Si02
#       6
#    24  12  12  24  12  12
#     4  11  21  32  46  68  98 130 159 191 232 278
#     4  10  18  32  48  67  88 118 160 198 238 290
#     4  11  19  29  46  68  92 125 161 195 236 277
#     4   9  18  32  49  69  95 126 158 192 227 264
#     4  10  22  34  44  66  99 129 153 190 238 280
#     4   9  18  29  47  67  88 116 155 201 239 284
#
# _framework density 15.538741
#
# number of rings (size 3 to 8) (size 9 to 14) (size 15 to 20)
#    0.000    2.000    3.750    1.875    0.000    1.500 
#    0.000    1.875    0.000    0.250    0.000    1.750 
#    1.250    0.000    0.750    1.125    1.000    1.250 
#
# Total GULP energy -535134.948487 kJ/mol
# GULP energy per Si atom -5574.322380 kJ/mol
# Density = 1.550337 g / cm^3
# Si number density = 15.538741 Si / 1000 Ang^3
#
#
#
# Elastic Constant Matrix: (Units=GPa)
#
#
# Indices 1 2 3 4 5 6 
#
# 1 117.6535 74.8076 23.1157 0.0000 0.0000 0.0000
# 2 74.8076 117.6535 23.1157 0.0000 0.0000 0.0000
# 3 23.1157 23.1157 12.3396 0.0000 0.0000 0.0000
# 4 0.0000 0.0000 0.0000 16.9066 0.0000 0.0000
# 5 0.0000 0.0000 0.0000 0.0000 16.9066 0.0000
# 6 0.0000 0.0000 0.0000 0.0000 0.0000 21.4229
#
#
#
# Elastic Compliance Matrix: (Units=1/GPa)
#
#
# Indices 1 2 3 4 5 6 
#
# 1 0.016393 -0.006946 -0.017697 0.000000 0.000000 0.000000
# 2 -0.006946 0.016393 -0.017697 0.000000 0.000000 0.000000
# 3 -0.017697 -0.017697 0.147341 0.000000 0.000000 0.000000
# 4 0.000000 0.000000 0.000000 0.059148 0.000000 0.000000
# 5 0.000000 0.000000 0.000000 0.000000 0.059148 0.000000
# 6 0.000000 0.000000 0.000000 0.000000 0.000000 0.046679
#
#
# Mechanical properties :
#
#
# Convention : Reuss Voigt Hill
#
# Bulk Modulus (GPa) = 10.47684 54.41386 32.44535
# Shear Modulus (GPa) = 10.83193 19.48775 15.15984
#
# Velocity S-wave (km/s) = 2.64311 3.54522 3.12687
# Velocity P-wave (km/s) = 4.00896 7.20086 5.82770
#
# Compressibility (1/GPa) = 0.09544866
#
# Stress axis : x y z
#
# Youngs Moduli (GPa) = 61.00120 61.00120 6.78696
#
# Poissons Ratio (x) = 0.42374 0.12011
# Poissons Ratio (y) = 0.42374 0.12011
# Poissons Ratio (z) = 1.07951 1.07951
#
# Static dielectric constant tensor:
#      x y z
#    x 1.522820 0.000000 0.000000 
#    y 0.000000 1.522820 0.000000 
#    z 0.000000 0.000000 1.531210 
# 
# From -- ./inp_files/1637.got.cif
#   From: 2010.05.17/outbox.cif.g08.bks.cpg/sg191_1_cif.got.tgz:1637.got - 2010.05.20 12:20:32.
