data_PCOD9587062
_publ_section_title
;
Structure prediction by ZEFSAII (Michael W. Deem and Ramdas Pophale) SiO2 
 PCOD9587062
Probable space group: P 6/M M M
;
_chemical_formula_sum "Si O2"
_cell_formula_units_Z 168
_cell_length_a 26.591833
_cell_length_b 26.591833
_cell_length_c 19.037780
_cell_angle_alpha 90.000000
_cell_angle_beta 90.000000
_cell_angle_gamma 120.000000
_cell_volume 11658.521687
_symmetry_space_group_name_H-M "P 6/M M M"
_symmetry_group_IT_number 191
_symmetry_cell_setting 'hexagonal'
loop_
_space_group_symop_operation_xyz
x,y,z
x-y,x,z
-y,x-y,z
-x,-y,z
-x+y,-x,z
y,-x+y,z
x-y,-y,-z
-x,-x+y,-z
y,x,-z
-y,-x,-z
-x+y,y,-z
x,x-y,-z
-x,-y,-z
-x+y,-x,-z
y,-x+y,-z
x,y,-z
x-y,x,-z
-y,x-y,-z
-x+y,y,z
x,x-y,z
-y,-x,z
y,x,z
x-y,-y,z
-x,-x+y,z
loop_
_atom_site_type_symbol
_atom_site_label
_atom_site_fract_x
_atom_site_fract_y
_atom_site_fract_z
Si Si1 0.156698 0.724444 0.806490
Si Si2 0.548799 0.334014 0.278132
Si Si3 0.181914 0.481420 0.419715
Si Si4 0.897276 0.678436 0.293256
Si Si5 0.063732 0.361834 0.579788
Si Si6 0.182612 0.934570 0.154788
Si Si7 0.356261 0.288689 0.082916
O O1 0.215455 0.784546 0.825340
O O2 0.176140 0.681694 0.772848
O O3 0.124859 0.742201 0.747214
O O4 0.112762 0.701750 0.871597
O O5 0.561267 0.280634 0.271643
O O6 0.605300 0.394701 0.262613
O O7 0.527144 0.331950 0.358146
O O8 0.187165 0.503128 0.500000
O O9 0.231303 0.462606 0.411610
O O10 0.118160 0.426112 0.410770
O O11 0.840179 0.680358 0.314894
O O12 0.931427 0.678277 0.361335
O O13 0.929517 0.727211 0.233994
O O14 0.068473 0.344434 0.500000
O O15 0.000000 0.354427 0.586376
O O16 0.117031 0.882970 0.144932
O O17 0.226032 0.923704 0.105783
O O18 0.196936 0.000000 0.142207
O O19 0.334307 0.334307 0.099773
O O20 0.366140 0.290003 0.000000
#
# Coordination Sequence:
#
# PCOD9587062 Si02
#       7
#    24  24  24  24  24  24  24
#     4   9  17  29  45  66  90 116 145 173 207 258
#     4  10  19  32  49  69  90 112 142 181 223 262
#     4   9  17  30  46  62  84 115 149 185 226 267
#     4   9  15  26  42  60  82 110 146 182 219 261
#     4  10  18  25  37  59  85 114 148 181 213 255
#     4   9  17  27  41  62  89 119 148 182 222 261
#     4   9  17  29  47  72  97 118 141 173 214 254
#
# _framework density 14.41006
#
# number of rings (size 3 to 8) (size 9 to 14) (size 15 to 20)
#    0.000    2.714    1.429    2.286    0.000    2.857 
#    0.000    0.000    0.000    3.143    0.000    3.000 
#    0.000    1.143    0.000    3.571    0.000    0.000 
#
# Total GULP energy -935409.719457 kJ/mol
# GULP energy per Si atom -5567.914997 kJ/mol
# Density = 1.437726 g / cm^3
# Si number density = 14.410060 Si / 1000 Ang^3
#
#
#
# Elastic Constant Matrix: (Units=GPa)
#
#
# Indices 1 2 3 4 5 6 
#
# 1 79.8482 44.9556 40.3906 0.0000 0.0000 0.0000
# 2 44.9556 79.8482 40.3906 0.0000 0.0000 0.0000
# 3 40.3906 40.3906 71.3777 0.0000 0.0000 0.0000
# 4 0.0000 0.0000 0.0000 15.8073 0.0000 0.0000
# 5 0.0000 0.0000 0.0000 0.0000 15.8073 0.0000
# 6 0.0000 0.0000 0.0000 0.0000 0.0000 17.4463
#
#
#
# Elastic Compliance Matrix: (Units=1/GPa)
#
#
# Indices 1 2 3 4 5 6 
#
# 1 0.020651 -0.008008 -0.007155 0.000000 0.000000 0.000000
# 2 -0.008008 0.020651 -0.007155 0.000000 0.000000 0.000000
# 3 -0.007155 -0.007155 0.022107 0.000000 0.000000 0.000000
# 4 0.000000 0.000000 0.000000 0.063262 0.000000 0.000000
# 5 0.000000 0.000000 0.000000 0.000000 0.063262 0.000000
# 6 0.000000 0.000000 0.000000 0.000000 0.000000 0.057319
#
#
# Mechanical properties :
#
#
# Convention : Reuss Voigt Hill
#
# Bulk Modulus (GPa) = 53.26016 53.61640 53.43828
# Shear Modulus (GPa) = 16.77033 16.83466 16.80249
#
# Velocity S-wave (km/s) = 3.41514 3.42169 3.41842
# Velocity P-wave (km/s) = 7.25200 7.27317 7.26259
#
# Compressibility (1/GPa) = 0.01877576
#
# Stress axis : x y z
#
# Youngs Moduli (GPa) = 48.42274 48.42274 45.23423
#
# Poissons Ratio (x) = 0.38777 0.32363
# Poissons Ratio (y) = 0.38777 0.32363
# Poissons Ratio (z) = 0.34645 0.34645
#
# Static dielectric constant tensor:
#      x y z
#    x 1.468530 0.000000 0.000000 
#    y 0.000000 1.468530 0.000000 
#    z 0.000000 0.000000 1.489170 
# 
# From -- ./inp_files/7999.got.cif
#   From: 2010.05.17/outbox.cif.g08.bks.cpg/sg191_4_cif.got.tgz:7999.got - 2010.05.20 12:20:32.
