data_PCOD9587508
_publ_section_title
;
Structure prediction by ZEFSAII (Michael W. Deem and Ramdas Pophale) SiO2 
 PCOD9587508
Probable space group: P 6/M M M
;
_chemical_formula_sum "Si O2"
_cell_formula_units_Z 108
_cell_length_a 18.435235
_cell_length_b 18.435235
_cell_length_c 22.740470
_cell_angle_alpha 90.000000
_cell_angle_beta 90.000000
_cell_angle_gamma 120.000000
_cell_volume 6693.101704
_symmetry_space_group_name_H-M "P 6/M M M"
_symmetry_group_IT_number 191
_symmetry_cell_setting 'hexagonal'
loop_
_space_group_symop_operation_xyz
x,y,z
x-y,x,z
-y,x-y,z
-x,-y,z
-x+y,-x,z
y,-x+y,z
x-y,-y,-z
-x,-x+y,-z
y,x,-z
-y,-x,-z
-x+y,y,-z
x,x-y,-z
-x,-y,-z
-x+y,-x,-z
y,-x+y,-z
x,y,-z
x-y,x,-z
-y,x-y,-z
-x+y,y,z
x,x-y,z
-y,-x,z
y,x,z
x-y,-y,z
-x,-x+y,z
loop_
_atom_site_type_symbol
_atom_site_label
_atom_site_fract_x
_atom_site_fract_y
_atom_site_fract_z
Si Si1 0.905490 0.263627 0.165657
Si Si2 0.367543 0.900119 0.607841
Si Si3 0.099052 0.739254 0.500000
Si Si4 0.498835 0.166355 0.262164
Si Si5 0.334026 0.498159 0.069205
O O1 0.833448 0.166553 0.165569
O O2 0.888027 0.306859 0.221506
O O3 0.889266 0.306964 0.109299
O O4 0.000000 0.283425 0.166289
O O5 0.439809 0.879618 0.588616
O O6 0.301364 0.882655 0.556966
O O7 0.330723 0.854567 0.669357
O O8 0.415437 0.000000 0.618958
O O9 0.161890 0.838111 0.500000
O O10 0.000000 0.707361 0.500000
O O11 0.575347 0.150693 0.248969
O O12 0.525211 0.262606 0.250926
O O13 0.260851 0.521702 0.076925
O O14 0.423284 0.576717 0.086042
O O15 0.336618 0.480897 0.000000
#
# Coordination Sequence:
#
# PCOD9587508 Si02
#       5
#    24  24  12  24  24
#     4  10  21  35  50  68  90 117 150 190 235 279
#     4   9  17  29  46  67  90 118 152 189 226 263
#     4  10  19  31  47  66  89 117 152 192 233 277
#     4  10  19  30  45  67  97 130 160 186 213 250
#     4   9  17  29  46  69  98 131 163 191 218 252
#
# _framework density 16.136016000000001
#
# number of rings (size 3 to 8) (size 9 to 14) (size 15 to 20)
#    0.000    2.444    0.000    2.778    0.000    5.333 
#    0.000    3.333    0.000    3.444    0.000    0.000 
#    0.000    0.000    0.000   12.667    0.000    0.000 
#
# Total GULP energy -602439.807058 kJ/mol
# GULP energy per Si atom -5578.146362 kJ/mol
# Density = 1.609929 g / cm^3
# Si number density = 16.136016 Si / 1000 Ang^3
#
#
#
# Elastic Constant Matrix: (Units=GPa)
#
#
# Indices 1 2 3 4 5 6 
#
# 1 84.1167 59.9168 34.8631 0.0000 0.0000 0.0000
# 2 59.9168 84.1167 34.8631 0.0000 0.0000 0.0000
# 3 34.8631 34.8631 56.0858 0.0000 0.0000 0.0000
# 4 0.0000 0.0000 0.0000 17.6027 0.0000 0.0000
# 5 0.0000 0.0000 0.0000 0.0000 17.6027 0.0000
# 6 0.0000 0.0000 0.0000 0.0000 0.0000 12.0999
#
#
#
# Elastic Compliance Matrix: (Units=1/GPa)
#
#
# Indices 1 2 3 4 5 6 
#
# 1 0.025627 -0.015696 -0.006173 0.000000 0.000000 0.000000
# 2 -0.015696 0.025627 -0.006173 0.000000 0.000000 0.000000
# 3 -0.006173 -0.006173 0.025505 0.000000 0.000000 0.000000
# 4 0.000000 0.000000 0.000000 0.056809 0.000000 0.000000
# 5 0.000000 0.000000 0.000000 0.000000 0.056809 0.000000
# 6 0.000000 0.000000 0.000000 0.000000 0.000000 0.082645
#
#
# Mechanical properties :
#
#
# Convention : Reuss Voigt Hill
#
# Bulk Modulus (GPa) = 48.37030 53.73392 51.05211
# Shear Modulus (GPa) = 14.88101 15.77279 15.32690
#
# Velocity S-wave (km/s) = 3.04011 3.12988 3.08532
# Velocity P-wave (km/s) = 6.50882 6.81428 6.66330
#
# Compressibility (1/GPa) = 0.02067384
#
# Stress axis : x y z
#
# Youngs Moduli (GPa) = 39.02139 39.02139 39.20862
#
# Poissons Ratio (x) = 0.61247 0.24205
# Poissons Ratio (y) = 0.61247 0.24205
# Poissons Ratio (z) = 0.24089 0.24089
#
# Static dielectric constant tensor:
#      x y z
#    x 1.526580 0.000000 0.000000 
#    y 0.000000 1.526580 0.000000 
#    z 0.000000 0.000000 1.549790 
# 
# From -- ./inp_files/7291.got.cif
#   From: 2010.05.17/outbox.cif.g08.bks.cpg/sg191_4_cif.got.tgz:7291.got - 2010.05.20 12:20:32.
