data_PCOD9587684
_publ_section_title
;
Structure prediction by ZEFSAII (Michael W. Deem and Ramdas Pophale) SiO2 
 PCOD9587684
Probable space group: P 6/M M M
;
_chemical_formula_sum "Si O2"
_cell_formula_units_Z 168
_cell_length_a 27.542936
_cell_length_b 27.542936
_cell_length_c 15.315371
_cell_angle_alpha 90.000000
_cell_angle_beta 90.000000
_cell_angle_gamma 120.000000
_cell_volume 10061.868085
_symmetry_space_group_name_H-M "P 6/M M M"
_symmetry_group_IT_number 191
_symmetry_cell_setting 'hexagonal'
loop_
_space_group_symop_operation_xyz
x,y,z
x-y,x,z
-y,x-y,z
-x,-y,z
-x+y,-x,z
y,-x+y,z
x-y,-y,-z
-x,-x+y,-z
y,x,-z
-y,-x,-z
-x+y,y,-z
x,x-y,-z
-x,-y,-z
-x+y,-x,-z
y,-x+y,-z
x,y,-z
x-y,x,-z
-y,x-y,-z
-x+y,y,z
x,x-y,z
-y,-x,z
y,x,z
x-y,-y,z
-x,-x+y,z
loop_
_atom_site_type_symbol
_atom_site_label
_atom_site_fract_x
_atom_site_fract_y
_atom_site_fract_z
Si Si1 0.655604 0.886708 0.600431
Si Si2 0.291768 0.467647 0.338398
Si Si3 0.219101 0.666366 0.000000
Si Si4 0.218087 0.322595 0.899079
Si Si5 0.936986 0.342319 0.895806
Si Si6 0.243888 0.064078 0.265124
Si Si7 0.629419 0.484317 0.826909
Si Si8 0.782443 0.333047 0.500000
O O1 0.662915 0.906846 0.500000
O O2 0.652795 0.826398 0.598195
O O3 0.595274 0.873186 0.637870
O O4 0.707840 0.924043 0.663426
O O5 0.231971 0.463941 0.327503
O O6 0.328070 0.494003 0.252812
O O7 0.322928 0.510890 0.417057
O O8 0.182504 0.656530 0.086600
O O9 0.273140 0.726861 0.000000
O O10 0.235667 0.617834 0.000000
O O11 0.168394 0.336788 0.895835
O O12 0.276709 0.376675 0.874335
O O13 0.201357 0.273305 0.829583
O O14 0.223001 0.307546 0.000000
O O15 0.915521 0.379958 0.851075
O O16 0.000000 0.361352 0.870843
O O17 0.934654 0.347893 0.000000
O O18 0.229704 0.114852 0.273801
O O19 0.193893 0.000000 0.274053
O O20 0.572797 0.427203 0.807163
O O21 0.717683 0.282318 0.500000
O O22 0.785598 0.392799 0.500000
#
# Coordination Sequence:
#
# PCOD9587684 Si02
#       8
#    24  24  12  24  24  24  24  12
#     4   9  17  32  53  77 103 130 164 208 264 325
#     4  10  19  33  53  75 100 131 167 213 267 319
#     4  10  21  36  51  69  97 133 172 215 264 318
#     4   9  18  32  51  79 111 140 171 211 264 318
#     4  10  20  34  51  72  99 133 170 207 250 302
#     4  10  20  33  52  79 112 147 180 216 256 302
#     4  11  22  35  49  72  99 131 175 217 259 311
#     4  10  19  32  50  74 101 133 170 215 266 316
#
# _framework density 16.696701000000001
#
# number of rings (size 3 to 8) (size 9 to 14) (size 15 to 20)
#    0.000    2.143    1.429    2.286    0.000    3.714 
#    0.000    0.714    0.000    4.714    0.000    0.000 
#    0.000    2.286    0.000    7.143    0.000    0.000 
#
# Total GULP energy -936784.097713 kJ/mol
# GULP energy per Si atom -5576.095820 kJ/mol
# Density = 1.665870 g / cm^3
# Si number density = 16.696701 Si / 1000 Ang^3
#
#
#
# Elastic Constant Matrix: (Units=GPa)
#
#
# Indices 1 2 3 4 5 6 
#
# 1 69.4679 42.1226 40.6356 0.0000 0.0000 0.0000
# 2 42.1226 69.4679 40.6356 0.0000 0.0000 0.0000
# 3 40.6356 40.6356 100.1535 0.0000 0.0000 0.0000
# 4 0.0000 0.0000 0.0000 9.5191 0.0000 0.0000
# 5 0.0000 0.0000 0.0000 0.0000 9.5191 0.0000
# 6 0.0000 0.0000 0.0000 0.0000 0.0000 13.6727
#
#
#
# Elastic Compliance Matrix: (Units=1/GPa)
#
#
# Indices 1 2 3 4 5 6 
#
# 1 0.024645 -0.011925 -0.005161 0.000000 0.000000 0.000000
# 2 -0.011925 0.024645 -0.005161 0.000000 0.000000 0.000000
# 3 -0.005161 -0.005161 0.014173 0.000000 0.000000 0.000000
# 4 0.000000 0.000000 0.000000 0.105052 0.000000 0.000000
# 5 0.000000 0.000000 0.000000 0.000000 0.105052 0.000000
# 6 0.000000 0.000000 0.000000 0.000000 0.000000 0.073139
#
#
# Mechanical properties :
#
#
# Convention : Reuss Voigt Hill
#
# Bulk Modulus (GPa) = 52.71782 53.98632 53.35207
# Shear Modulus (GPa) = 12.57793 14.25518 13.41656
#
# Velocity S-wave (km/s) = 2.74764 2.92511 2.83776
# Velocity P-wave (km/s) = 6.45820 6.61907 6.53913
#
# Compressibility (1/GPa) = 0.01896892
#
# Stress axis : x y z
#
# Youngs Moduli (GPa) = 40.57668 40.57668 70.55859
#
# Poissons Ratio (x) = 0.48386 0.36415
# Poissons Ratio (y) = 0.48386 0.36415
# Poissons Ratio (z) = 0.20941 0.20941
#
# Static dielectric constant tensor:
#      x y z
#    x 1.553770 0.000000 0.000000 
#    y 0.000000 1.553770 0.000000 
#    z 0.000000 0.000000 1.600290 
# 
# From -- ./inp_files/5365.got.cif
#   From: 2010.05.17/outbox.cif.g08.bks.cpg/sg191_3_cif.got.tgz:5365.got - 2010.05.20 12:20:32.
