data_PCOD9587148
_publ_section_title
;
Structure prediction by ZEFSAII (Michael W. Deem and Ramdas Pophale) SiO2 
 PCOD9587148
Probable space group: P 6/M M M
;
_chemical_formula_sum "Si O2"
_cell_formula_units_Z 180
_cell_length_a 22.674967
_cell_length_b 22.674967
_cell_length_c 30.932697
_cell_angle_alpha 90.000000
_cell_angle_beta 90.000000
_cell_angle_gamma 120.000000
_cell_volume 13773.418595
_symmetry_space_group_name_H-M "P 6/M M M"
_symmetry_group_IT_number 191
_symmetry_cell_setting 'hexagonal'
loop_
_space_group_symop_operation_xyz
x,y,z
x-y,x,z
-y,x-y,z
-x,-y,z
-x+y,-x,z
y,-x+y,z
x-y,-y,-z
-x,-x+y,-z
y,x,-z
-y,-x,-z
-x+y,y,-z
x,x-y,-z
-x,-y,-z
-x+y,-x,-z
y,-x+y,-z
x,y,-z
x-y,x,-z
-y,x-y,-z
-x+y,y,z
x,x-y,z
-y,-x,z
y,x,z
x-y,-y,z
-x,-x+y,z
loop_
_atom_site_type_symbol
_atom_site_label
_atom_site_fract_x
_atom_site_fract_y
_atom_site_fract_z
Si Si1 0.474670 0.081746 0.874012
Si Si2 0.532967 0.922657 0.549338
Si Si3 0.194658 0.667290 0.385424
Si Si4 0.213937 0.924450 0.000000
Si Si5 0.881563 0.626094 0.086651
Si Si6 0.077591 0.784830 0.823775
Si Si7 0.526462 0.193206 0.716867
Si Si8 0.660805 0.580836 0.780087
O O1 0.553109 0.106217 0.881881
O O2 0.439100 0.110713 0.905092
O O3 0.461884 0.095200 0.824581
O O4 0.432626 0.000000 0.878814
O O5 0.542125 0.905828 0.500000
O O6 0.461664 0.923328 0.549935
O O7 0.523876 0.867281 0.584348
O O8 0.590902 0.000000 0.559025
O O9 0.205857 0.602929 0.392683
O O10 0.263295 0.736706 0.395557
O O11 0.179827 0.667112 0.334461
O O12 0.248658 0.914478 0.957367
O O13 0.135742 0.864259 0.000000
O O14 0.225842 0.000000 0.000000
O O15 0.803193 0.606386 0.086045
O O16 0.914744 0.675803 0.127989
O O17 0.137746 0.862255 0.818023
O O18 0.088114 0.734008 0.792044
O O19 0.000000 0.767644 0.818482
O O20 0.599181 0.198362 0.725696
O O21 0.529827 0.264914 0.726470
O O22 0.467465 0.132194 0.744206
O O23 0.610766 0.610766 0.769274
#
# Coordination Sequence:
#
# PCOD9587148 Si02
#       8
#    24  24  24  12  24  24  24  24
#     4   9  16  27  42  58  77  98 120 151 191 227
#     4   8  14  25  39  53  69  89 114 146 185 225
#     4   9  17  27  38  52  71  96 124 154 187 223
#     4  10  18  28  43  62  83 103 125 153 183 217
#     4   9  17  28  42  59  79 103 128 155 186 221
#     4   9  16  27  43  61  80 102 128 156 188 225
#     4  10  19  29  39  52  74 102 128 153 186 228
#     4   9  17  28  42  59  76  96 126 162 194 224
#
# _framework density 13.06865
#
# number of rings (size 3 to 8) (size 9 to 14) (size 15 to 20)
#    0.000    2.933    0.000    3.467    0.000    3.200 
#    0.000    1.667    0.000    2.467    0.000    0.000 
#    0.000    3.200    0.000    0.000    0.000    0.267 
#
# Total GULP energy -1002251.653946 kJ/mol
# GULP energy per Si atom -5568.064744 kJ/mol
# Density = 1.303891 g / cm^3
# Si number density = 13.068650 Si / 1000 Ang^3
#
#
#
# Elastic Constant Matrix: (Units=GPa)
#
#
# Indices 1 2 3 4 5 6 
#
# 1 88.9116 54.3928 48.2086 0.0000 0.0000 0.0000
# 2 54.3928 88.9116 48.2086 0.0000 0.0000 0.0000
# 3 48.2086 48.2086 67.2597 0.0000 0.0000 0.0000
# 4 0.0000 0.0000 0.0000 17.4672 0.0000 0.0000
# 5 0.0000 0.0000 0.0000 0.0000 17.4672 0.0000
# 6 0.0000 0.0000 0.0000 0.0000 0.0000 17.2594
#
#
#
# Elastic Compliance Matrix: (Units=1/GPa)
#
#
# Indices 1 2 3 4 5 6 
#
# 1 0.021224 -0.007746 -0.009660 0.000000 0.000000 0.000000
# 2 -0.007746 0.021224 -0.009660 0.000000 0.000000 0.000000
# 3 -0.009660 -0.009660 0.028716 0.000000 0.000000 0.000000
# 4 0.000000 0.000000 0.000000 0.057250 0.000000 0.000000
# 5 0.000000 0.000000 0.000000 0.000000 0.057250 0.000000
# 6 0.000000 0.000000 0.000000 0.000000 0.000000 0.057939
#
#
# Mechanical properties :
#
#
# Convention : Reuss Voigt Hill
#
# Bulk Modulus (GPa) = 58.71877 60.74477 59.73177
# Shear Modulus (GPa) = 16.47926 16.72364 16.60145
#
# Velocity S-wave (km/s) = 3.55488 3.58114 3.56803
# Velocity P-wave (km/s) = 7.86626 7.98007 7.92337
#
# Compressibility (1/GPa) = 0.01703033
#
# Stress axis : x y z
#
# Youngs Moduli (GPa) = 47.11723 47.11723 34.82433
#
# Poissons Ratio (x) = 0.36497 0.33641
# Poissons Ratio (y) = 0.36497 0.33641
# Poissons Ratio (z) = 0.45516 0.45516
#
# Static dielectric constant tensor:
#      x y z
#    x 1.419190 0.000000 0.000000 
#    y 0.000000 1.419190 0.000000 
#    z 0.000000 0.000000 1.424190 
# 
# From -- ./inp_files/10860.got.cif
#   From: 2010.05.17/outbox.cif.g08.bks.cpg/sg191_6_cif.got.tgz:10860.got - 2010.05.20 12:20:32.
