data_PCOD9587299
_publ_section_title
;
Structure prediction by ZEFSAII (Michael W. Deem and Ramdas Pophale) SiO2 
 PCOD9587299
Probable space group: P 6/M M M
;
_chemical_formula_sum "Si O2"
_cell_formula_units_Z 144
_cell_length_a 22.306449
_cell_length_b 22.306449
_cell_length_c 21.419827
_cell_angle_alpha 90.000000
_cell_angle_beta 90.000000
_cell_angle_gamma 120.000000
_cell_volume 9230.122609
_symmetry_space_group_name_H-M "P 6/M M M"
_symmetry_group_IT_number 191
_symmetry_cell_setting 'hexagonal'
loop_
_space_group_symop_operation_xyz
x,y,z
x-y,x,z
-y,x-y,z
-x,-y,z
-x+y,-x,z
y,-x+y,z
x-y,-y,-z
-x,-x+y,-z
y,x,-z
-y,-x,-z
-x+y,y,-z
x,x-y,-z
-x,-y,-z
-x+y,-x,-z
y,-x+y,-z
x,y,-z
x-y,x,-z
-y,x-y,-z
-x+y,y,z
x,x-y,z
-y,-x,z
y,x,z
x-y,-y,z
-x,-x+y,z
loop_
_atom_site_type_symbol
_atom_site_label
_atom_site_fract_x
_atom_site_fract_y
_atom_site_fract_z
Si Si1 0.388931 0.309111 0.569567
Si Si2 0.920732 0.215682 0.317208
Si Si3 0.213489 0.921829 0.070027
Si Si4 0.523136 0.188940 0.628867
Si Si5 0.921063 0.530437 0.740894
Si Si6 0.739140 0.614730 0.809576
O O1 0.365135 0.279405 0.500000
O O2 0.371856 0.371856 0.575210
O O3 0.346435 0.256210 0.625187
O O4 0.468794 0.330136 0.577031
O O5 0.864505 0.135495 0.322434
O O6 0.906194 0.241881 0.251366
O O7 0.000000 0.235515 0.318701
O O8 0.132841 0.867160 0.075469
O O9 0.249448 0.904708 0.126230
O O10 0.231694 0.000000 0.076043
O O11 0.235500 0.913332 0.000000
O O12 0.600599 0.201197 0.620240
O O13 0.522882 0.261441 0.633422
O O14 0.490357 0.139025 0.689466
O O15 0.922670 0.461335 0.754724
O O16 0.898896 0.558925 0.799234
O O17 0.000000 0.587022 0.720455
O O18 0.793648 0.587295 0.808439
#
# Coordination Sequence:
#
# PCOD9587299 Si02
#       6
#    24  24  24  24  24  24
#     4  10  21  36  53  72  93 117 150 195 242 282
#     4  10  19  31  49  72  96 122 154 192 233 276
#     4   9  17  28  44  68  97 127 157 191 231 274
#     4  11  22  35  49  67  93 125 158 190 227 276
#     4  10  19  30  47  70  94 120 153 193 235 279
#     4  10  18  30  49  71  95 123 156 193 232 277
#
# _framework density 15.601094
#
# number of rings (size 3 to 8) (size 9 to 14) (size 15 to 20)
#    0.000    2.000    1.667    3.167    0.000    2.667 
#    0.000    0.833    0.000    2.167    0.000    3.500 
#    0.000    4.000    0.000    4.333    0.000    0.000 
#
# Total GULP energy -802070.345674 kJ/mol
# GULP energy per Si atom -5569.932956 kJ/mol
# Density = 1.556558 g / cm^3
# Si number density = 15.601094 Si / 1000 Ang^3
#
#
#
# Elastic Constant Matrix: (Units=GPa)
#
#
# Indices 1 2 3 4 5 6 
#
# 1 88.5788 49.7573 34.6587 0.0000 0.0000 0.0000
# 2 49.7573 88.5788 34.6587 0.0000 0.0000 0.0000
# 3 34.6587 34.6587 102.5046 0.0000 0.0000 0.0000
# 4 0.0000 0.0000 0.0000 16.5922 0.0000 0.0000
# 5 0.0000 0.0000 0.0000 0.0000 16.5922 0.0000
# 6 0.0000 0.0000 0.0000 0.0000 0.0000 19.4107
#
#
#
# Elastic Compliance Matrix: (Units=1/GPa)
#
#
# Indices 1 2 3 4 5 6 
#
# 1 0.017231 -0.008528 -0.002943 0.000000 0.000000 0.000000
# 2 -0.008528 0.017231 -0.002943 0.000000 0.000000 0.000000
# 3 -0.002943 -0.002943 0.011746 0.000000 0.000000 0.000000
# 4 0.000000 0.000000 0.000000 0.060269 0.000000 0.000000
# 5 0.000000 0.000000 0.000000 0.000000 0.060269 0.000000
# 6 0.000000 0.000000 0.000000 0.000000 0.000000 0.051518
#
#
# Mechanical properties :
#
#
# Convention : Reuss Voigt Hill
#
# Bulk Modulus (GPa) = 57.53310 57.53459 57.53385
# Shear Modulus (GPa) = 19.77183 21.22485 20.49834
#
# Velocity S-wave (km/s) = 3.56383 3.69246 3.62871
# Velocity P-wave (km/s) = 7.34113 7.42547 7.38342
#
# Compressibility (1/GPa) = 0.01738130
#
# Stress axis : x y z
#
# Youngs Moduli (GPa) = 58.03449 58.03449 85.13787
#
# Poissons Ratio (x) = 0.49491 0.25054
# Poissons Ratio (y) = 0.49491 0.25054
# Poissons Ratio (z) = 0.17078 0.17078
#
# Static dielectric constant tensor:
#      x y z
#    x 1.524960 0.000000 0.000000 
#    y 0.000000 1.524960 0.000000 
#    z 0.000000 0.000000 1.540520 
# 
# From -- ./inp_files/7634.got.cif
#   From: 2010.05.17/outbox.cif.g08.bks.cpg/sg191_4_cif.got.tgz:7634.got - 2010.05.20 12:20:32.
