data_PCOD9587474
_publ_section_title
;
Structure prediction by ZEFSAII (Michael W. Deem and Ramdas Pophale) SiO2 
 PCOD9587474
Probable space group: P 6/M M M
;
_chemical_formula_sum "Si O2"
_cell_formula_units_Z 120
_cell_length_a 18.420073
_cell_length_b 18.420073
_cell_length_c 25.610378
_cell_angle_alpha 90.000000
_cell_angle_beta 90.000000
_cell_angle_gamma 120.000000
_cell_volume 7525.395238
_symmetry_space_group_name_H-M "P 6/M M M"
_symmetry_group_IT_number 191
_symmetry_cell_setting 'hexagonal'
loop_
_space_group_symop_operation_xyz
x,y,z
x-y,x,z
-y,x-y,z
-x,-y,z
-x+y,-x,z
y,-x+y,z
x-y,-y,-z
-x,-x+y,-z
y,x,-z
-y,-x,-z
-x+y,y,-z
x,x-y,-z
-x,-y,-z
-x+y,-x,-z
y,-x+y,-z
x,y,-z
x-y,x,-z
-y,x-y,-z
-x+y,y,z
x,x-y,z
-y,-x,z
y,x,z
x-y,-y,z
-x,-x+y,z
loop_
_atom_site_type_symbol
_atom_site_label
_atom_site_fract_x
_atom_site_fract_y
_atom_site_fract_z
Si Si1 0.833844 0.501234 0.414182
Si Si2 0.165335 0.496841 0.887082
Si Si3 0.641587 0.736264 0.500000
Si Si4 0.360849 0.097372 0.797857
Si Si5 0.904475 0.540056 0.000000
Si Si6 0.100019 0.467757 0.298473
O O1 0.737534 0.475067 0.423870
O O2 0.849310 0.424655 0.426394
O O3 0.888270 0.581463 0.450158
O O4 0.854995 0.523427 0.353349
O O5 0.262407 0.524813 0.878733
O O6 0.150513 0.575257 0.880299
O O7 0.112721 0.422973 0.846317
O O8 0.140557 0.462850 0.946126
O O9 0.716193 0.716193 0.500000
O O10 0.667057 0.833529 0.500000
O O11 0.330734 0.165367 0.801937
O O12 0.418128 0.117450 0.746134
O O13 0.289922 0.000000 0.796150
O O14 0.906945 0.453473 0.000000
O O15 0.000000 0.614612 0.000000
O O16 0.121922 0.560961 0.280954
O O17 0.000000 0.416526 0.308023
#
# Coordination Sequence:
#
# PCOD9587474 Si02
#       6
#    24  24  12  24  12  24
#     4  10  19  30  45  67  97 131 164 194 222 254
#     4  10  19  30  45  66  93 124 156 189 224 264
#     4  10  21  35  51  70  91 117 150 190 235 281
#     4  10  20  33  49  68  90 117 150 189 232 277
#     4   9  17  28  42  60  84 119 161 197 225 254
#     4   9  17  29  46  68  93 122 156 191 225 263
#
# _framework density 15.946006000000001
#
# number of rings (size 3 to 8) (size 9 to 14) (size 15 to 20)
#    0.000    2.300    0.000    3.400    0.000    3.600 
#    0.000    2.000    0.000    6.700    0.000    0.000 
#    0.000    0.000    0.000    6.400    0.000   20.800 
#
# Total GULP energy -669249.460984 kJ/mol
# GULP energy per Si atom -5577.078842 kJ/mol
# Density = 1.590971 g / cm^3
# Si number density = 15.946006 Si / 1000 Ang^3
#
#
#
# Elastic Constant Matrix: (Units=GPa)
#
#
# Indices 1 2 3 4 5 6 
#
# 1 81.0649 54.1777 32.2569 0.0000 0.0000 0.0000
# 2 54.1777 81.0649 32.2569 0.0000 0.0000 0.0000
# 3 32.2569 32.2569 67.8534 0.0000 0.0000 0.0000
# 4 0.0000 0.0000 0.0000 19.8254 0.0000 0.0000
# 5 0.0000 0.0000 0.0000 0.0000 19.8254 0.0000
# 6 0.0000 0.0000 0.0000 0.0000 0.0000 13.4436
#
#
#
# Elastic Compliance Matrix: (Units=1/GPa)
#
#
# Indices 1 2 3 4 5 6 
#
# 1 0.023377 -0.013815 -0.004546 0.000000 0.000000 0.000000
# 2 -0.013815 0.023377 -0.004546 0.000000 0.000000 0.000000
# 3 -0.004546 -0.004546 0.019060 0.000000 0.000000 0.000000
# 4 0.000000 0.000000 0.000000 0.050440 0.000000 0.000000
# 5 0.000000 0.000000 0.000000 0.000000 0.050440 0.000000
# 6 0.000000 0.000000 0.000000 0.000000 0.000000 0.074385
#
#
# Mechanical properties :
#
#
# Convention : Reuss Voigt Hill
#
# Bulk Modulus (GPa) = 49.99694 51.92957 50.96326
# Shear Modulus (GPa) = 17.03224 18.03835 17.53530
#
# Velocity S-wave (km/s) = 3.27176 3.36700 3.31972
# Velocity P-wave (km/s) = 6.75977 6.91030 6.83545
#
# Compressibility (1/GPa) = 0.02000123
#
# Stress axis : x y z
#
# Youngs Moduli (GPa) = 42.77618 42.77618 52.46613
#
# Poissons Ratio (x) = 0.59095 0.23851
# Poissons Ratio (y) = 0.59095 0.23851
# Poissons Ratio (z) = 0.19446 0.19446
#
# Static dielectric constant tensor:
#      x y z
#    x 1.521960 0.000000 0.000000 
#    y 0.000000 1.521960 0.000000 
#    z 0.000000 0.000000 1.540390 
# 
# From -- ./inp_files/8543.got.cif
#   From: 2010.05.17/outbox.cif.g08.bks.cpg/sg191_5_cif.got.tgz:8543.got - 2010.05.20 12:20:32.
