data_PCOD9587897
_publ_section_title
;
Structure prediction by ZEFSAII (Michael W. Deem and Ramdas Pophale) SiO2 
 PCOD9587897
Probable space group: P 6/M M M
;
_chemical_formula_sum "Si O2"
_cell_formula_units_Z 132
_cell_length_a 18.325753
_cell_length_b 18.325753
_cell_length_c 28.113244
_cell_angle_alpha 90.000000
_cell_angle_beta 90.000000
_cell_angle_gamma 120.000000
_cell_volume 8176.458768
_symmetry_space_group_name_H-M "P 6/M M M"
_symmetry_group_IT_number 191
_symmetry_cell_setting 'hexagonal'
loop_
_space_group_symop_operation_xyz
x,y,z
x-y,x,z
-y,x-y,z
-x,-y,z
-x+y,-x,z
y,-x+y,z
x-y,-y,-z
-x,-x+y,-z
y,x,-z
-y,-x,-z
-x+y,y,-z
x,x-y,-z
-x,-y,-z
-x+y,-x,-z
y,-x+y,-z
x,y,-z
x-y,x,-z
-y,x-y,-z
-x+y,y,z
x,x-y,z
-y,-x,z
y,x,z
x-y,-y,z
-x,-x+y,z
loop_
_atom_site_type_symbol
_atom_site_label
_atom_site_fract_x
_atom_site_fract_y
_atom_site_fract_z
Si Si1 0.642405 0.902652 0.944739
Si Si2 0.494320 0.332789 0.412374
Si Si3 0.644047 0.740986 0.220190
Si Si4 0.268542 0.902401 0.500000
Si Si5 0.638971 0.903337 0.667924
Si Si6 0.367169 0.897979 0.861612
O O1 0.676632 0.838316 0.938038
O O2 0.565688 0.876242 0.908567
O O3 0.710024 0.000000 0.935093
O O4 0.616246 0.896980 0.000000
O O5 0.519587 0.259794 0.413932
O O6 0.575791 0.424210 0.417394
O O7 0.426492 0.310133 0.454358
O O8 0.443407 0.320638 0.363589
O O9 0.678598 0.839299 0.212631
O O10 0.710914 0.710914 0.209483
O O11 0.620335 0.722217 0.275736
O O12 0.565519 0.689804 0.185230
O O13 0.169282 0.830719 0.500000
O O14 0.293413 0.000000 0.500000
O O15 0.665518 0.832759 0.657342
O O16 0.708558 0.000000 0.657330
O O17 0.431963 0.863925 0.861645
O O18 0.422822 0.000000 0.861487
#
# Coordination Sequence:
#
# PCOD9587897 Si02
#       6
#    24  24  24  12  24  24
#     4   9  17  29  46  68  93 121 153 188 225 266
#     4  10  20  33  49  70  97 127 157 189 228 274
#     4   9  17  30  48  69  93 121 154 190 228 271
#     4  10  21  35  51  72  97 125 156 192 233 273
#     4   9  18  31  47  68  93 122 155 192 233 273
#     4   9  17  28  43  64  87 111 143 184 226 266
#
# _framework density 16.143908
#
# number of rings (size 3 to 8) (size 9 to 14) (size 15 to 20)
#    0.000    2.727    0.000    1.545    0.000    2.909 
#    0.000    4.545    0.000    3.545    0.000    3.818 
#    0.000    8.727    0.000    0.545    0.000    0.364 
#
# Total GULP energy -735046.044548 kJ/mol
# GULP energy per Si atom -5568.530641 kJ/mol
# Density = 1.610716 g / cm^3
# Si number density = 16.143908 Si / 1000 Ang^3
#
#
#
# Elastic Constant Matrix: (Units=GPa)
#
#
# Indices 1 2 3 4 5 6 
#
# 1 96.7389 66.4707 46.3948 0.0000 0.0000 0.0000
# 2 66.4707 96.7389 46.3948 0.0000 0.0000 0.0000
# 3 46.3948 46.3948 60.9101 0.0000 0.0000 0.0000
# 4 0.0000 0.0000 0.0000 19.2992 0.0000 0.0000
# 5 0.0000 0.0000 0.0000 0.0000 19.2992 0.0000
# 6 0.0000 0.0000 0.0000 0.0000 0.0000 15.1341
#
#
#
# Elastic Compliance Matrix: (Units=1/GPa)
#
#
# Indices 1 2 3 4 5 6 
#
# 1 0.021923 -0.011116 -0.008232 0.000000 0.000000 0.000000
# 2 -0.011116 0.021923 -0.008232 0.000000 0.000000 0.000000
# 3 -0.008232 -0.008232 0.028958 0.000000 0.000000 0.000000
# 4 0.000000 0.000000 0.000000 0.051816 0.000000 0.000000
# 5 0.000000 0.000000 0.000000 0.000000 0.051816 0.000000
# 6 0.000000 0.000000 0.000000 0.000000 0.000000 0.066076
#
#
# Mechanical properties :
#
#
# Convention : Reuss Voigt Hill
#
# Bulk Modulus (GPa) = 56.67295 63.65650 60.16473
# Shear Modulus (GPa) = 16.47178 17.08831 16.78005
#
# Velocity S-wave (km/s) = 3.19769 3.25699 3.22748
# Velocity P-wave (km/s) = 6.98675 7.32531 7.15804
#
# Compressibility (1/GPa) = 0.01764510
#
# Stress axis : x y z
#
# Youngs Moduli (GPa) = 45.61517 45.61517 34.53325
#
# Poissons Ratio (x) = 0.50704 0.28427
# Poissons Ratio (y) = 0.50704 0.28427
# Poissons Ratio (z) = 0.37549 0.37549
#
# Static dielectric constant tensor:
#      x y z
#    x 1.533140 0.000000 0.000000 
#    y 0.000000 1.533140 0.000000 
#    z 0.000000 0.000000 1.563580 
# 
# From -- ./inp_files/9742.got.cif
#   From: 2010.05.17/outbox.cif.g08.bks.cpg/sg191_5_cif.got.tgz:9742.got - 2010.05.20 12:20:32.
