data_PCOD9587077
_publ_section_title
;
Structure prediction by ZEFSAII (Michael W. Deem and Ramdas Pophale) SiO2 
 PCOD9587077
Probable space group: P 6/M M M
;
_chemical_formula_sum "Si O2"
_cell_formula_units_Z 132
_cell_length_a 19.485991
_cell_length_b 19.485991
_cell_length_c 28.170209
_cell_angle_alpha 90.000000
_cell_angle_beta 90.000000
_cell_angle_gamma 120.000000
_cell_volume 9263.299291
_symmetry_space_group_name_H-M "P 6/M M M"
_symmetry_group_IT_number 191
_symmetry_cell_setting 'hexagonal'
loop_
_space_group_symop_operation_xyz
x,y,z
x-y,x,z
-y,x-y,z
-x,-y,z
-x+y,-x,z
y,-x+y,z
x-y,-y,-z
-x,-x+y,-z
y,x,-z
-y,-x,-z
-x+y,y,-z
x,x-y,-z
-x,-y,-z
-x+y,-x,-z
y,-x+y,-z
x,y,-z
x-y,x,-z
-y,x-y,-z
-x+y,y,z
x,x-y,z
-y,-x,z
y,x,z
x-y,-y,z
-x,-x+y,z
loop_
_atom_site_type_symbol
_atom_site_label
_atom_site_fract_x
_atom_site_fract_y
_atom_site_fract_z
Si Si1 0.171609 0.503111 0.195751
Si Si2 0.538020 0.908803 0.902410
Si Si3 0.172374 0.668584 0.000000
Si Si4 0.372283 0.910554 0.707563
Si Si5 0.332084 0.827202 0.609225
Si Si6 0.659826 0.908965 0.557224
O O1 0.259997 0.519994 0.200000
O O2 0.171312 0.585656 0.195899
O O3 0.135020 0.461944 0.145572
O O4 0.122246 0.454587 0.241655
O O5 0.453452 0.906904 0.902654
O O6 0.541104 0.869134 0.951523
O O7 0.604562 0.000000 0.900915
O O8 0.262079 0.737921 0.000000
O O9 0.168595 0.584298 0.000000
O O10 0.456927 0.913854 0.710081
O O11 0.329126 0.854247 0.663160
O O12 0.392153 0.000000 0.698957
O O13 0.419068 0.838135 0.600903
O O14 0.263887 0.736114 0.602723
O O15 0.308780 0.880211 0.576535
O O16 0.658112 0.908556 0.500000
O O17 0.679587 0.839794 0.572017
O O18 0.719882 0.000000 0.572377
#
# Coordination Sequence:
#
# PCOD9587077 Si02
#       6
#    24  24  12  24  24  24
#     4  10  18  27  39  55  75  97 123 158 202 246
#     4   9  17  28  40  52  68  93 123 152 184 226
#     4  10  18  27  39  55  74  93 116 150 193 234
#     4   9  17  28  41  56  75 102 136 172 209 249
#     4  10  19  30  44  63  88 117 149 184 220 255
#     4   9  18  32  49  68  89 114 144 178 217 261
#
# _framework density 14.249783000000001
#
# number of rings (size 3 to 8) (size 9 to 14) (size 15 to 20)
#    0.000    2.545    0.000    2.909    0.000    4.727 
#    0.000    4.545    0.000    1.273    0.000    1.273 
#    0.000    0.000    0.000    0.000    0.000    0.000 
#
# Total GULP energy -734991.211352 kJ/mol
# GULP energy per Si atom -5568.115238 kJ/mol
# Density = 1.421735 g / cm^3
# Si number density = 14.249783 Si / 1000 Ang^3
#
#
#
# Elastic Constant Matrix: (Units=GPa)
#
#
# Indices 1 2 3 4 5 6 
#
# 1 50.7442 39.0630 20.0784 0.0000 0.0000 0.0000
# 2 39.0630 50.7442 20.0784 0.0000 0.0000 0.0000
# 3 20.0784 20.0784 39.3979 0.0000 0.0000 0.0000
# 4 0.0000 0.0000 0.0000 16.7053 0.0000 0.0000
# 5 0.0000 0.0000 0.0000 0.0000 16.7053 0.0000
# 6 0.0000 0.0000 0.0000 0.0000 0.0000 5.8406
#
#
#
# Elastic Compliance Matrix: (Units=1/GPa)
#
#
# Indices 1 2 3 4 5 6 
#
# 1 0.050015 -0.035593 -0.007350 0.000000 0.000000 0.000000
# 2 -0.035593 0.050015 -0.007350 0.000000 0.000000 0.000000
# 3 -0.007350 -0.007350 0.032873 0.000000 0.000000 0.000000
# 4 0.000000 0.000000 0.000000 0.059861 0.000000 0.000000
# 5 0.000000 0.000000 0.000000 0.000000 0.059861 0.000000
# 6 0.000000 0.000000 0.000000 0.000000 0.000000 0.171216
#
#
# Mechanical properties :
#
#
# Convention : Reuss Voigt Hill
#
# Bulk Modulus (GPa) = 30.94294 33.25846 32.10070
# Shear Modulus (GPa) = 9.34232 11.96134 10.65183
#
# Velocity S-wave (km/s) = 2.56327 2.90039 2.73703
# Velocity P-wave (km/s) = 5.52470 5.88274 5.70653
#
# Compressibility (1/GPa) = 0.03231755
#
# Stress axis : x y z
#
# Youngs Moduli (GPa) = 19.99410 19.99410 30.41993
#
# Poissons Ratio (x) = 0.71166 0.22357
# Poissons Ratio (y) = 0.71166 0.22357
# Poissons Ratio (z) = 0.14695 0.14695
#
# Static dielectric constant tensor:
#      x y z
#    x 1.457430 0.000000 0.000000 
#    y 0.000000 1.457430 0.000000 
#    z 0.000000 0.000000 1.493840 
# 
# From -- ./inp_files/10510.got.cif
#   From: 2010.05.17/outbox.cif.g08.bks.cpg/sg191_6_cif.got.tgz:10510.got - 2010.05.20 12:20:32.
