data_PCOD9587048
_publ_section_title
;
Structure prediction by ZEFSAII (Michael W. Deem and Ramdas Pophale) SiO2 
 PCOD9587048
Probable space group: P 6/M M M
;
_chemical_formula_sum "Si O2"
_cell_formula_units_Z 96
_cell_length_a 27.498197
_cell_length_b 27.498197
_cell_length_c 10.489265
_cell_angle_alpha 90.000000
_cell_angle_beta 90.000000
_cell_angle_gamma 120.000000
_cell_volume 6868.851498
_symmetry_space_group_name_H-M "P 6/M M M"
_symmetry_group_IT_number 191
_symmetry_cell_setting 'hexagonal'
loop_
_space_group_symop_operation_xyz
x,y,z
x-y,x,z
-y,x-y,z
-x,-y,z
-x+y,-x,z
y,-x+y,z
x-y,-y,-z
-x,-x+y,-z
y,x,-z
-y,-x,-z
-x+y,y,-z
x,x-y,-z
-x,-y,-z
-x+y,-x,-z
y,-x+y,-z
x,y,-z
x-y,x,-z
-y,x-y,-z
-x+y,y,z
x,x-y,z
-y,-x,z
y,x,z
x-y,-y,z
-x,-x+y,z
loop_
_atom_site_type_symbol
_atom_site_label
_atom_site_fract_x
_atom_site_fract_y
_atom_site_fract_z
Si Si1 0.773250 0.662143 0.154094
Si Si2 0.931755 0.348761 0.751698
Si Si3 0.067962 0.590126 0.500000
Si Si4 0.411420 0.479210 0.000000
Si Si5 0.778141 0.000000 0.845828
Si Si6 0.000000 0.888551 0.155719
O O1 0.830165 0.660329 0.179218
O O2 0.717922 0.616995 0.228162
O O3 0.779618 0.722237 0.188998
O O4 0.762900 0.654636 0.000000
O O5 0.917029 0.371590 0.625361
O O6 0.917645 0.374879 0.873448
O O7 0.000000 0.373943 0.752340
O O8 0.088307 0.544154 0.500000
O O9 0.000000 0.553233 0.500000
O O10 0.448359 0.448359 0.000000
O O11 0.454888 0.545113 0.000000
O O12 0.833262 0.000000 0.799428
O O13 0.779663 0.000000 0.000000
O O14 0.944409 0.888818 0.196036
O O15 0.000000 0.887919 0.000000
#
# Coordination Sequence:
#
# PCOD9587048 Si02
#       6
#    24  24  12  12  12  12
#     4  10  18  27  41  62  86 118 158 200 240 275
#     4  10  17  28  44  62  90 119 153 188 220 268
#     4   9  18  30  45  66  92 121 147 172 210 258
#     4   9  16  24  41  64  86 113 145 178 208 250
#     4   9  16  25  38  52  76 108 154 199 234 285
#     4   9  15  22  31  46  69 100 138 189 250 303
#
# _framework density 13.976134999999999
#
# number of rings (size 3 to 8) (size 9 to 14) (size 15 to 20)
#    0.000    2.500    2.500    1.625    0.000    6.500 
#    0.000    0.625    0.000    0.000    0.000    0.000 
#    0.000    0.000    0.000   15.000    0.000    0.375 
#
# Total GULP energy -534492.730662 kJ/mol
# GULP energy per Si atom -5567.632611 kJ/mol
# Density = 1.394432 g / cm^3
# Si number density = 13.976135 Si / 1000 Ang^3
#
#
#
# Elastic Constant Matrix: (Units=GPa)
#
#
# Indices 1 2 3 4 5 6 
#
# 1 104.6916 78.5006 46.2751 0.0000 0.0000 0.0000
# 2 78.5006 104.6916 46.2751 0.0000 0.0000 0.0000
# 3 46.2751 46.2751 81.5167 0.0000 0.0000 0.0000
# 4 0.0000 0.0000 0.0000 9.3856 0.0000 0.0000
# 5 0.0000 0.0000 0.0000 0.0000 9.3856 0.0000
# 6 0.0000 0.0000 0.0000 0.0000 0.0000 13.0955
#
#
#
# Elastic Compliance Matrix: (Units=1/GPa)
#
#
# Indices 1 2 3 4 5 6 
#
# 1 0.022917 -0.015264 -0.004345 0.000000 0.000000 0.000000
# 2 -0.015264 0.022917 -0.004345 0.000000 0.000000 0.000000
# 3 -0.004345 -0.004345 0.017200 0.000000 0.000000 0.000000
# 4 0.000000 0.000000 0.000000 0.106546 0.000000 0.000000
# 5 0.000000 0.000000 0.000000 0.000000 0.106546 0.000000
# 6 0.000000 0.000000 0.000000 0.000000 0.000000 0.076362
#
#
# Mechanical properties :
#
#
# Convention : Reuss Voigt Hill
#
# Bulk Modulus (GPa) = 66.10049 70.33350 68.21700
# Shear Modulus (GPa) = 12.33229 14.36327 13.34778
#
# Velocity S-wave (km/s) = 2.97371 3.20925 3.09373
# Velocity P-wave (km/s) = 7.69341 8.01035 7.85348
#
# Compressibility (1/GPa) = 0.01512848
#
# Stress axis : x y z
#
# Youngs Moduli (GPa) = 43.63488 43.63488 58.13812
#
# Poissons Ratio (x) = 0.66603 0.25260
# Poissons Ratio (y) = 0.66603 0.25260
# Poissons Ratio (z) = 0.18959 0.18959
#
# Static dielectric constant tensor:
#      x y z
#    x 1.454520 0.000000 0.000000 
#    y 0.000000 1.454520 0.000000 
#    z 0.000000 0.000000 1.459940 
# 
# From -- ./inp_files/1614.got.cif
#   From: 2010.05.17/outbox.cif.g08.bks.cpg/sg191_1_cif.got.tgz:1614.got - 2010.05.20 12:20:32.
