data_PCOD9587578
_publ_section_title
;
Structure prediction by ZEFSAII (Michael W. Deem and Ramdas Pophale) SiO2 
 PCOD9587578
Probable space group: P 6/M M M
;
_chemical_formula_sum "Si O2"
_cell_formula_units_Z 120
_cell_length_a 17.941748
_cell_length_b 17.941748
_cell_length_c 29.979608
_cell_angle_alpha 90.000000
_cell_angle_beta 90.000000
_cell_angle_gamma 120.000000
_cell_volume 8357.686694
_symmetry_space_group_name_H-M "P 6/M M M"
_symmetry_group_IT_number 191
_symmetry_cell_setting 'hexagonal'
loop_
_space_group_symop_operation_xyz
x,y,z
x-y,x,z
-y,x-y,z
-x,-y,z
-x+y,-x,z
y,-x+y,z
x-y,-y,-z
-x,-x+y,-z
y,x,-z
-y,-x,-z
-x+y,y,-z
x,x-y,-z
-x,-y,-z
-x+y,-x,-z
y,-x+y,-z
x,y,-z
x-y,x,-z
-y,x-y,-z
-x+y,y,z
x,x-y,z
-y,-x,z
y,x,z
x-y,-y,z
-x,-x+y,z
loop_
_atom_site_type_symbol
_atom_site_label
_atom_site_fract_x
_atom_site_fract_y
_atom_site_fract_z
Si Si1 0.841644 0.333374 0.551389
Si Si2 0.843465 0.511388 0.719555
Si Si3 0.000000 0.590752 0.113989
Si Si4 0.270147 0.902149 0.633528
Si Si5 0.000000 0.590208 0.784094
Si Si6 0.843414 0.333070 0.051378
O O1 0.868086 0.333588 0.500000
O O2 0.850802 0.425401 0.561034
O O3 0.741652 0.258348 0.554985
O O4 0.891711 0.308706 0.586926
O O5 0.750652 0.501304 0.728940
O O6 0.837531 0.418766 0.717211
O O7 0.876771 0.561676 0.672797
O O8 0.914413 0.568147 0.756694
O O9 0.915801 0.570796 0.086211
O O10 0.000000 0.500000 0.114464
O O11 0.000000 0.617005 0.164980
O O12 0.169571 0.830430 0.634617
O O13 0.294002 0.000000 0.639511
O O14 0.000000 0.500000 0.785468
O O15 0.828335 0.414168 0.056873
O O16 0.754853 0.245148 0.057689
O O17 0.872540 0.336736 0.000000
#
# Coordination Sequence:
#
# PCOD9587578 Si02
#       6
#    24  24  12  24  12  24
#     4   9  17  28  43  65  94 126 156 184 216 259
#     4  10  19  31  47  66  88 115 148 184 222 263
#     4   9  17  28  41  58  82 113 147 183 223 261
#     4  10  20  33  49  67  88 115 146 183 227 274
#     4   9  18  31  44  59  83 114 146 183 223 258
#     4   9  16  26  41  61  85 114 148 184 220 259
#
# _framework density 14.358040000000001
#
# number of rings (size 3 to 8) (size 9 to 14) (size 15 to 20)
#    0.000    2.600    1.000    1.500    0.000    5.200 
#    0.000    3.000    0.000    2.600    0.000    0.000 
#    0.000    0.000    0.000    5.300    0.000    6.900 
#
# Total GULP energy -668716.845516 kJ/mol
# GULP energy per Si atom -5572.640379 kJ/mol
# Density = 1.432536 g / cm^3
# Si number density = 14.358040 Si / 1000 Ang^3
#
#
#
# Elastic Constant Matrix: (Units=GPa)
#
#
# Indices 1 2 3 4 5 6 
#
# 1 77.1429 54.3427 50.1242 0.0000 0.0000 0.0000
# 2 54.3427 77.1429 50.1242 0.0000 0.0000 0.0000
# 3 50.1242 50.1242 95.0316 0.0000 0.0000 0.0000
# 4 0.0000 0.0000 0.0000 16.2375 0.0000 0.0000
# 5 0.0000 0.0000 0.0000 0.0000 16.2375 0.0000
# 6 0.0000 0.0000 0.0000 0.0000 0.0000 11.4001
#
#
#
# Elastic Compliance Matrix: (Units=1/GPa)
#
#
# Indices 1 2 3 4 5 6 
#
# 1 0.028290 -0.015569 -0.006710 0.000000 0.000000 0.000000
# 2 -0.015569 0.028290 -0.006710 0.000000 0.000000 0.000000
# 3 -0.006710 -0.006710 0.017601 0.000000 0.000000 0.000000
# 4 0.000000 0.000000 0.000000 0.061586 0.000000 0.000000
# 5 0.000000 0.000000 0.000000 0.000000 0.061586 0.000000
# 6 0.000000 0.000000 0.000000 0.000000 0.000000 0.087719
#
#
# Mechanical properties :
#
#
# Convention : Reuss Voigt Hill
#
# Bulk Modulus (GPa) = 61.71247 62.05553 61.88400
# Shear Modulus (GPa) = 14.34927 15.09010 14.71968
#
# Velocity S-wave (km/s) = 3.16474 3.24541 3.20533
# Velocity P-wave (km/s) = 7.51189 7.57347 7.54274
#
# Compressibility (1/GPa) = 0.01620418
#
# Stress axis : x y z
#
# Youngs Moduli (GPa) = 35.34798 35.34798 56.81550
#
# Poissons Ratio (x) = 0.55034 0.38121
# Poissons Ratio (y) = 0.55034 0.38121
# Poissons Ratio (z) = 0.23717 0.23717
#
# Static dielectric constant tensor:
#      x y z
#    x 1.455000 0.000000 0.000000 
#    y 0.000000 1.455000 0.000000 
#    z 0.000000 0.000000 1.486860 
# 
# From -- ./inp_files/9638.got.cif
#   From: 2010.05.17/outbox.cif.g08.bks.cpg/sg191_5_cif.got.tgz:9638.got - 2010.05.20 12:20:32.
