data_PCOD9587324
_publ_section_title
;
Structure prediction by ZEFSAII (Michael W. Deem and Ramdas Pophale) SiO2 
 PCOD9587324
Probable space group: P 6/M M M
;
_chemical_formula_sum "Si O2"
_cell_formula_units_Z 72
_cell_length_a 22.799208
_cell_length_b 22.799208
_cell_length_c 7.300803
_cell_angle_alpha 90.000000
_cell_angle_beta 90.000000
_cell_angle_gamma 120.000000
_cell_volume 3286.554080
_symmetry_space_group_name_H-M "P 6/M M M"
_symmetry_group_IT_number 191
_symmetry_cell_setting 'hexagonal'
loop_
_space_group_symop_operation_xyz
x,y,z
x-y,x,z
-y,x-y,z
-x,-y,z
-x+y,-x,z
y,-x+y,z
x-y,-y,-z
-x,-x+y,-z
y,x,-z
-y,-x,-z
-x+y,y,-z
x,x-y,-z
-x,-y,-z
-x+y,-x,-z
y,-x+y,-z
x,y,-z
x-y,x,-z
-y,x-y,-z
-x+y,y,z
x,x-y,z
-y,-x,z
y,x,z
x-y,-y,z
-x,-x+y,z
loop_
_atom_site_type_symbol
_atom_site_label
_atom_site_fract_x
_atom_site_fract_y
_atom_site_fract_z
Si Si1 0.666343 0.468148 0.723040
Si Si2 0.843091 0.156910 0.285902
Si Si3 0.611314 0.688844 0.723680
Si Si4 0.922630 0.077371 0.779271
O O1 0.666777 0.467707 0.500000
O O2 0.737013 0.474025 0.781039
O O3 0.601788 0.398213 0.782233
O O4 0.662419 0.534050 0.778345
O O5 0.833852 0.166149 0.500000
O O6 0.887715 0.233038 0.213596
O O7 0.883339 0.116662 0.269860
O O8 0.612794 0.688491 0.500000
O O9 0.644606 0.644606 0.784479
O O10 0.000000 0.117089 0.714462
O O11 0.924449 0.075552 0.000000
#
# Coordination Sequence:
#
# PCOD9587324 Si02
#       4
#    24  12  24  12
#     4   9  15  23  34  50  76 113 153 186 221 272
#     4  10  18  31  49  69  94 124 160 196 233 280
#     4   9  16  25  38  57  82 113 148 187 230 274
#     4  10  21  36  52  70  94 124 158 198 244 289
#
# _framework density 21.907444000000002
#
# number of rings (size 3 to 8) (size 9 to 14) (size 15 to 20)
#    0.000    2.667    1.667    1.500    0.000    4.667 
#    0.000    3.333    0.000    1.000    0.000    0.000 
#    0.000    1.333    0.000    7.000    0.000    6.667 
#
# Total GULP energy -402356.128107 kJ/mol
# GULP energy per Si atom -5588.279557 kJ/mol
# Density = 2.185758 g / cm^3
# Si number density = 21.907444 Si / 1000 Ang^3
#
#
#
# Elastic Constant Matrix: (Units=GPa)
#
#
# Indices 1 2 3 4 5 6 
#
# 1 208.6821 118.4537 1.6702 0.0000 0.0000 0.0000
# 2 118.4537 208.6821 1.6702 0.0000 0.0000 0.0000
# 3 1.6702 1.6702 88.8850 0.0000 0.0000 0.0000
# 4 0.0000 0.0000 0.0000 9.1761 0.0000 0.0000
# 5 0.0000 0.0000 0.0000 0.0000 9.1761 0.0000
# 6 0.0000 0.0000 0.0000 0.0000 0.0000 45.1142
#
#
#
# Elastic Compliance Matrix: (Units=1/GPa)
#
#
# Indices 1 2 3 4 5 6 
#
# 1 0.007070 -0.004013 -0.000057 0.000000 0.000000 0.000000
# 2 -0.004013 0.007070 -0.000057 0.000000 0.000000 0.000000
# 3 -0.000057 -0.000057 0.011253 0.000000 0.000000 0.000000
# 4 0.000000 0.000000 0.000000 0.108979 0.000000 0.000000
# 5 0.000000 0.000000 0.000000 0.000000 0.108979 0.000000
# 6 0.000000 0.000000 0.000000 0.000000 0.000000 0.022166
#
#
# Mechanical properties :
#
#
# Convention : Reuss Voigt Hill
#
# Bulk Modulus (GPa) = 58.35090 83.31525 70.83307
# Shear Modulus (GPa) = 17.89011 38.32364 28.10688
#
# Velocity S-wave (km/s) = 2.86076 4.18705 3.58576
# Velocity P-wave (km/s) = 6.13229 7.84145 7.03894
#
# Compressibility (1/GPa) = 0.01713770
#
# Stress axis : x y z
#
# Youngs Moduli (GPa) = 141.43873 141.43873 88.86793
#
# Poissons Ratio (x) = 0.56756 0.00511
# Poissons Ratio (y) = 0.56756 0.00511
# Poissons Ratio (z) = 0.00813 0.00813
#
# Static dielectric constant tensor:
#      x y z
#    x 1.741640 0.000000 0.000000 
#    y 0.000000 1.741640 0.000000 
#    z 0.000000 0.000000 1.839730 
# 
# From -- ./inp_files/2352.got.cif
#   From: 2010.05.17/outbox.cif.g08.bks.cpg/sg191_2_cif.got.tgz:2352.got - 2010.05.20 12:20:32.
