data_PCOD9587718
_publ_section_title
;
Structure prediction by ZEFSAII (Michael W. Deem and Ramdas Pophale) SiO2 
 PCOD9587718
Probable space group: P 6/M M M
;
_chemical_formula_sum "Si O2"
_cell_formula_units_Z 78
_cell_length_a 17.314692
_cell_length_b 17.314692
_cell_length_c 18.609995
_cell_angle_alpha 90.000000
_cell_angle_beta 90.000000
_cell_angle_gamma 120.000000
_cell_volume 4831.771961
_symmetry_space_group_name_H-M "P 6/M M M"
_symmetry_group_IT_number 191
_symmetry_cell_setting 'hexagonal'
loop_
_space_group_symop_operation_xyz
x,y,z
x-y,x,z
-y,x-y,z
-x,-y,z
-x+y,-x,z
y,-x+y,z
x-y,-y,-z
-x,-x+y,-z
y,x,-z
-y,-x,-z
-x+y,y,-z
x,x-y,-z
-x,-y,-z
-x+y,-x,-z
y,-x+y,-z
x,y,-z
x-y,x,-z
-y,x-y,-z
-x+y,y,z
x,x-y,z
-y,-x,z
y,x,z
x-y,-y,z
-x,-x+y,z
loop_
_atom_site_type_symbol
_atom_site_label
_atom_site_fract_x
_atom_site_fract_y
_atom_site_fract_z
Si Si1 0.670065 0.513893 0.840950
Si Si2 0.000000 0.694044 0.211886
Si Si3 0.000000 0.185956 0.658609
Si Si4 0.535815 0.642409 0.000000
Si Si5 0.815007 0.815007 0.918155
Si Si6 0.000000 0.816548 0.500000
O O1 0.743159 0.486318 0.822519
O O2 0.570217 0.429784 0.837109
O O3 0.682658 0.596277 0.793482
O O4 0.688627 0.549970 0.923480
O O5 0.000000 0.749805 0.142164
O O6 0.000000 0.749034 0.280683
O O7 0.088699 0.177397 0.665870
O O8 0.000000 0.222804 0.578154
O O9 0.590085 0.590085 0.000000
O O10 0.431107 0.568894 0.000000
O O11 0.911571 0.823142 0.910425
O O12 0.783081 0.783081 0.000000
O O13 0.913474 0.826948 0.500000
#
# Coordination Sequence:
#
# PCOD9587718 Si02
#       6
#    24  12  12  12  12   6
#     4  11  22  36  52  70  93 126 168 214 259 305
#     4  12  23  34  48  74 102 130 161 204 254 302
#     4  10  19  33  52  78 108 139 171 203 244 295
#     4   9  17  32  50  67  88 118 160 211 264 305
#     4  10  21  35  49  65  89 127 171 208 239 277
#     4   8  15  28  50  76 105 136 166 200 240 292
#
# _framework density 16.143145000000001
#
# number of rings (size 3 to 8) (size 9 to 14) (size 15 to 20)
#    0.000    1.692    1.538    4.385    2.154    1.846 
#    0.000    3.077    0.000    0.000    0.000    2.154 
#    0.000    0.000    0.000    3.077    0.000    0.000 
#
# Total GULP energy -435186.178407 kJ/mol
# GULP energy per Si atom -5579.309980 kJ/mol
# Density = 1.610640 g / cm^3
# Si number density = 16.143145 Si / 1000 Ang^3
#
#
#
# Elastic Constant Matrix: (Units=GPa)
#
#
# Indices 1 2 3 4 5 6 
#
# 1 83.9395 26.6006 56.1606 0.0000 0.0000 0.0000
# 2 26.6006 83.9395 56.1606 0.0000 0.0000 0.0000
# 3 56.1606 56.1606 108.4135 0.0000 0.0000 0.0000
# 4 0.0000 0.0000 0.0000 19.0369 0.0000 0.0000
# 5 0.0000 0.0000 0.0000 0.0000 19.0369 0.0000
# 6 0.0000 0.0000 0.0000 0.0000 0.0000 28.6695
#
#
#
# Elastic Compliance Matrix: (Units=1/GPa)
#
#
# Indices 1 2 3 4 5 6 
#
# 1 0.018270 0.000830 -0.009894 0.000000 0.000000 0.000000
# 2 0.000830 0.018270 -0.009894 0.000000 0.000000 0.000000
# 3 -0.009894 -0.009894 0.019475 0.000000 0.000000 0.000000
# 4 0.000000 0.000000 0.000000 0.052530 0.000000 0.000000
# 5 0.000000 0.000000 0.000000 0.000000 0.052530 0.000000
# 6 0.000000 0.000000 0.000000 0.000000 0.000000 0.034880
#
#
# Mechanical properties :
#
#
# Convention : Reuss Voigt Hill
#
# Bulk Modulus (GPa) = 55.25458 61.57068 58.41263
# Shear Modulus (GPa) = 20.84158 22.50669 21.67413
#
# Velocity S-wave (km/s) = 3.59701 3.73794 3.66816
# Velocity P-wave (km/s) = 7.18008 7.54008 7.36228
#
# Compressibility (1/GPa) = 0.01809805
#
# Stress axis : x y z
#
# Youngs Moduli (GPa) = 54.73383 54.73383 51.34800
#
# Poissons Ratio (x) = -0.04543 0.50806
# Poissons Ratio (y) = -0.04543 0.50806
# Poissons Ratio (z) = 0.54156 0.54156
#
# Static dielectric constant tensor:
#      x y z
#    x 1.552450 0.000000 0.000000 
#    y 0.000000 1.552450 0.000000 
#    z 0.000000 0.000000 1.548430 
# 
# From -- ./inp_files/5800.got.cif
#   From: 2010.05.17/outbox.cif.g08.bks.cpg/sg191_3_cif.got.tgz:5800.got - 2010.05.20 12:20:32.
