data_PCOD9587851
_publ_section_title
;
Structure prediction by ZEFSAII (Michael W. Deem and Ramdas Pophale) SiO2 
 PCOD9587851
Probable space group: P 6/M M M
;
_chemical_formula_sum "Si O2"
_cell_formula_units_Z 72
_cell_length_a 18.583392
_cell_length_b 18.583392
_cell_length_c 15.016827
_cell_angle_alpha 90.000000
_cell_angle_beta 90.000000
_cell_angle_gamma 120.000000
_cell_volume 4491.162668
_symmetry_space_group_name_H-M "P 6/M M M"
_symmetry_group_IT_number 191
_symmetry_cell_setting 'hexagonal'
loop_
_space_group_symop_operation_xyz
x,y,z
x-y,x,z
-y,x-y,z
-x,-y,z
-x+y,-x,z
y,-x+y,z
x-y,-y,-z
-x,-x+y,-z
y,x,-z
-y,-x,-z
-x+y,y,-z
x,x-y,-z
-x,-y,-z
-x+y,-x,-z
y,-x+y,-z
x,y,-z
x-y,x,-z
-y,x-y,-z
-x+y,y,z
x,x-y,z
-y,-x,z
y,x,z
x-y,-y,z
-x,-x+y,z
loop_
_atom_site_type_symbol
_atom_site_label
_atom_site_fract_x
_atom_site_fract_y
_atom_site_fract_z
Si Si1 0.496516 0.163572 0.500000
Si Si2 0.530685 0.899545 0.000000
Si Si3 0.094934 0.354621 0.642018
Si Si4 0.256845 0.352578 0.147186
O O1 0.577419 0.154838 0.500000
O O2 0.519733 0.259866 0.500000
O O3 0.436978 0.120880 0.415049
O O4 0.566781 0.878115 0.913234
O O5 0.432944 0.865887 0.000000
O O6 0.575827 0.000000 0.000000
O O7 0.164394 0.328789 0.621470
O O8 0.099695 0.371761 0.747754
O O9 0.000000 0.286486 0.621153
O O10 0.160657 0.321314 0.129530
O O11 0.286681 0.286681 0.125627
#
# Coordination Sequence:
#
# PCOD9587851 Si02
#       4
#    12  12  24  24
#     4  10  20  33  48  67  92 120 149 182 224 273
#     4   9  17  28  43  64  88 114 146 185 225 262
#     4   9  18  31  47  68  93 121 152 187 226 266
#     4   9  17  30  48  69  93 121 153 187 224 267
#
# _framework density 16.031483000000001
#
# number of rings (size 3 to 8) (size 9 to 14) (size 15 to 20)
#    0.000    2.833    0.000    1.167    0.000    2.667 
#    0.000    3.333    0.000    3.333    0.000    4.667 
#    0.000    8.000    0.000    0.667    0.000    0.000 
#
# Total GULP energy -400902.227893 kJ/mol
# GULP energy per Si atom -5568.086499 kJ/mol
# Density = 1.599499 g / cm^3
# Si number density = 16.031483 Si / 1000 Ang^3
#
#
#
# Elastic Constant Matrix: (Units=GPa)
#
#
# Indices 1 2 3 4 5 6 
#
# 1 114.2318 82.4667 48.9784 0.0000 0.0000 0.0000
# 2 82.4667 114.2318 48.9784 0.0000 0.0000 0.0000
# 3 48.9784 48.9784 60.2338 0.0000 0.0000 0.0000
# 4 0.0000 0.0000 0.0000 20.5969 0.0000 0.0000
# 5 0.0000 0.0000 0.0000 0.0000 20.5969 0.0000
# 6 0.0000 0.0000 0.0000 0.0000 0.0000 15.8826
#
#
#
# Elastic Compliance Matrix: (Units=1/GPa)
#
#
# Indices 1 2 3 4 5 6 
#
# 1 0.020012 -0.011469 -0.006947 0.000000 0.000000 0.000000
# 2 -0.011469 0.020012 -0.006947 0.000000 0.000000 0.000000
# 3 -0.006947 -0.006947 0.027900 0.000000 0.000000 0.000000
# 4 0.000000 0.000000 0.000000 0.048551 0.000000 0.000000
# 5 0.000000 0.000000 0.000000 0.000000 0.048551 0.000000
# 6 0.000000 0.000000 0.000000 0.000000 0.000000 0.062962
#
#
# Mechanical properties :
#
#
# Convention : Reuss Voigt Hill
#
# Bulk Modulus (GPa) = 58.14421 72.17161 65.15791
# Shear Modulus (GPa) = 17.57794 18.63355 18.10574
#
# Velocity S-wave (km/s) = 3.31488 3.41297 3.36428
# Velocity P-wave (km/s) = 7.14134 7.78765 7.47149
#
# Compressibility (1/GPa) = 0.01719862
#
# Stress axis : x y z
#
# Youngs Moduli (GPa) = 49.96919 49.96919 35.84230
#
# Poissons Ratio (x) = 0.57308 0.24900
# Poissons Ratio (y) = 0.57308 0.24900
# Poissons Ratio (z) = 0.34714 0.34714
#
# Static dielectric constant tensor:
#      x y z
#    x 1.528440 0.000000 0.000000 
#    y 0.000000 1.528440 0.000000 
#    z 0.000000 0.000000 1.557570 
# 
# From -- ./inp_files/3933.got.cif
#   From: 2010.05.17/outbox.cif.g08.bks.cpg/sg191_2_cif.got.tgz:3933.got - 2010.05.20 12:20:32.
