data_PCOD9587675
_publ_section_title
;
Structure prediction by ZEFSAII (Michael W. Deem and Ramdas Pophale) SiO2 
 PCOD9587675
Probable space group: P 6/M M M
;
_chemical_formula_sum "Si O2"
_cell_formula_units_Z 108
_cell_length_a 27.591024
_cell_length_b 27.591024
_cell_length_c 11.760937
_cell_angle_alpha 90.000000
_cell_angle_beta 90.000000
_cell_angle_gamma 120.000000
_cell_volume 7753.685710
_symmetry_space_group_name_H-M "P 6/M M M"
_symmetry_group_IT_number 191
_symmetry_cell_setting 'hexagonal'
loop_
_space_group_symop_operation_xyz
x,y,z
x-y,x,z
-y,x-y,z
-x,-y,z
-x+y,-x,z
y,-x+y,z
x-y,-y,-z
-x,-x+y,-z
y,x,-z
-y,-x,-z
-x+y,y,-z
x,x-y,-z
-x,-y,-z
-x+y,-x,-z
y,-x+y,-z
x,y,-z
x-y,x,-z
-y,x-y,-z
-x+y,y,z
x,x-y,z
-y,-x,z
y,x,z
x-y,-y,z
-x,-x+y,z
loop_
_atom_site_type_symbol
_atom_site_label
_atom_site_fract_x
_atom_site_fract_y
_atom_site_fract_z
Si Si1 0.932358 0.466179 0.372565
Si Si2 0.443166 0.777117 0.000000
Si Si3 0.555585 0.221395 0.746455
Si Si4 0.066980 0.477880 0.000000
Si Si5 0.436167 0.273142 0.634435
Si Si6 0.066709 0.433744 0.242429
O O1 0.909553 0.454777 0.500000
O O2 0.918609 0.508669 0.307809
O O3 0.000000 0.500000 0.378276
O O4 0.460945 0.803781 0.124959
O O5 0.376487 0.752973 0.000000
O O6 0.459689 0.729845 0.000000
O O7 0.607213 0.214426 0.707816
O O8 0.574291 0.287146 0.756513
O O9 0.502052 0.194353 0.666146
O O10 0.078325 0.452362 0.888203
O O11 0.090908 0.545454 0.000000
O O12 0.000000 0.451207 0.000000
O O13 0.428385 0.276722 0.500000
O O14 0.417150 0.208575 0.663166
O O15 0.411550 0.305714 0.705814
O O16 0.000000 0.391500 0.256946
#
# Coordination Sequence:
#
# PCOD9587675 Si02
#       6
#    12  12  24  12  24  24
#     4   9  16  25  41  67  89 104 131 169 201 235
#     4   8  13  23  39  56  70  85 115 156 193 226
#     4   9  17  28  41  55  71  95 125 157 192 235
#     4   9  16  29  46  68  95 114 130 165 218 259
#     4  10  22  36  45  58  82 107 131 164 207 247
#     4  10  19  32  50  68  85 107 136 168 205 253
#
# _framework density 13.928858999999999
#
# number of rings (size 3 to 8) (size 9 to 14) (size 15 to 20)
#    0.000    2.667    1.111    1.000    1.556    4.444 
#    0.000    2.778    0.000    1.333    0.000    0.000 
#    0.000    0.000    0.000    0.000    0.000    0.000 
#
# Total GULP energy -601730.901002 kJ/mol
# GULP energy per Si atom -5571.582417 kJ/mol
# Density = 1.389716 g / cm^3
# Si number density = 13.928859 Si / 1000 Ang^3
#
#
#
# Elastic Constant Matrix: (Units=GPa)
#
#
# Indices 1 2 3 4 5 6 
#
# 1 62.6676 25.2378 22.7811 0.0000 0.0000 0.0000
# 2 25.2378 62.6676 22.7811 0.0000 0.0000 0.0000
# 3 22.7811 22.7811 88.6650 0.0000 0.0000 0.0000
# 4 0.0000 0.0000 0.0000 -0.7786 0.0000 0.0000
# 5 0.0000 0.0000 0.0000 0.0000 -0.7786 0.0000
# 6 0.0000 0.0000 0.0000 0.0000 0.0000 18.7149
#
#
#
# Elastic Compliance Matrix: (Units=1/GPa)
#
#
# Indices 1 2 3 4 5 6 
#
# 1 0.019920 -0.006797 -0.003372 0.000000 0.000000 0.000000
# 2 -0.006797 0.019920 -0.003372 0.000000 0.000000 0.000000
# 3 -0.003372 -0.003372 0.013011 0.000000 0.000000 0.000000
# 4 0.000000 0.000000 0.000000 -1.284408 0.000000 0.000000
# 5 0.000000 0.000000 0.000000 0.000000 -1.284408 0.000000
# 6 0.000000 0.000000 0.000000 0.000000 0.000000 0.053433
#
#
# Mechanical properties :
#
#
# Convention : Reuss Voigt Hill
#
# Bulk Modulus (GPa) = 38.80384 39.51113 39.15748
# Shear Modulus (GPa) = -2.06028 12.97823 5.45898
#
# Velocity S-wave (km/s) = -1.21752 3.05577 1.98184
# Velocity P-wave (km/s) = 5.09339 6.39361 5.78018
#
# Compressibility (1/GPa) = 0.02577065
#
# Stress axis : x y z
#
# Youngs Moduli (GPa) = 50.20051 50.20051 76.85739
#
# Poissons Ratio (x) = 0.34119 0.25915
# Poissons Ratio (y) = 0.34119 0.25915
# Poissons Ratio (z) = 0.16927 0.16927
#
# Static dielectric constant tensor:
#      x y z
#    x 1.488370 0.000000 0.000000 
#    y 0.000000 1.488370 0.000000 
#    z 0.000000 0.000000 1.509720 
# 
# From -- ./inp_files/3158.got.cif
#   From: 2010.05.17/outbox.cif.g08.bks.cpg/sg191_2_cif.got.tgz:3158.got - 2010.05.20 12:20:32.
