data_PCOD9587633
_publ_section_title
;
Structure prediction by ZEFSAII (Michael W. Deem and Ramdas Pophale) SiO2 
 PCOD9587633
Probable space group: P 6/M M M
;
_chemical_formula_sum "Si O2"
_cell_formula_units_Z 132
_cell_length_a 17.937245
_cell_length_b 17.937245
_cell_length_c 28.690780
_cell_angle_alpha 90.000000
_cell_angle_beta 90.000000
_cell_angle_gamma 120.000000
_cell_volume 7994.374097
_symmetry_space_group_name_H-M "P 6/M M M"
_symmetry_group_IT_number 191
_symmetry_cell_setting 'hexagonal'
loop_
_space_group_symop_operation_xyz
x,y,z
x-y,x,z
-y,x-y,z
-x,-y,z
-x+y,-x,z
y,-x+y,z
x-y,-y,-z
-x,-x+y,-z
y,x,-z
-y,-x,-z
-x+y,y,-z
x,x-y,-z
-x,-y,-z
-x+y,-x,-z
y,-x+y,-z
x,y,-z
x-y,x,-z
-y,x-y,-z
-x+y,y,z
x,x-y,z
-y,-x,z
y,x,z
x-y,-y,z
-x,-x+y,z
loop_
_atom_site_type_symbol
_atom_site_label
_atom_site_fract_x
_atom_site_fract_y
_atom_site_fract_z
Si Si1 0.902248 0.633663 0.054327
Si Si2 0.636393 0.532595 0.500000
Si Si3 0.368108 0.268244 0.773760
Si Si4 0.636327 0.103858 0.683693
Si Si5 0.731589 0.628639 0.591784
Si Si6 0.508353 0.666770 0.138377
O O1 0.830613 0.661226 0.063060
O O2 0.879798 0.555939 0.089436
O O3 0.000000 0.707704 0.062388
O O4 0.894719 0.607674 0.000000
O O5 0.578512 0.578512 0.500000
O O6 0.569287 0.430714 0.500000
O O7 0.692848 0.568269 0.546399
O O8 0.333480 0.166740 0.775814
O O9 0.296866 0.296866 0.768524
O O10 0.433377 0.307095 0.730110
O O11 0.422977 0.310523 0.820381
O O12 0.569334 0.138668 0.683084
O O13 0.692907 0.124000 0.637381
O O14 0.578715 0.000000 0.684248
O O15 0.834175 0.668350 0.591769
O O16 0.696243 0.696243 0.591598
O O17 0.483173 0.741587 0.139534
O O18 0.426022 0.573979 0.144574
#
# Coordination Sequence:
#
# PCOD9587633 Si02
#       6
#    24  12  24  24  24  24
#     4   9  18  32  49  69  93 122 156 193 233 276
#     4   9  17  30  49  70  90 116 152 193 237 286
#     4  10  20  33  50  72  97 126 160 197 236 278
#     4   9  17  30  49  71  93 119 153 192 233 279
#     4  10  19  31  49  72  97 127 164 203 240 280
#     4  10  20  33  49  70  96 125 156 191 232 277
#
# _framework density 16.511612
#
# number of rings (size 3 to 8) (size 9 to 14) (size 15 to 20)
#    0.000    2.455    0.000    2.636    0.000    4.727 
#    0.000    0.909    0.000   11.455    0.000    1.273 
#    0.000   10.909    0.000    0.182    0.000    1.455 
#
# Total GULP energy -735653.203352 kJ/mol
# GULP energy per Si atom -5573.130328 kJ/mol
# Density = 1.647403 g / cm^3
# Si number density = 16.511612 Si / 1000 Ang^3
#
#
#
# Elastic Constant Matrix: (Units=GPa)
#
#
# Indices 1 2 3 4 5 6 
#
# 1 85.2391 60.9753 34.6390 0.0000 0.0000 0.0000
# 2 60.9753 85.2391 34.6390 0.0000 0.0000 0.0000
# 3 34.6390 34.6390 86.2925 0.0000 0.0000 0.0000
# 4 0.0000 0.0000 0.0000 10.8953 0.0000 0.0000
# 5 0.0000 0.0000 0.0000 0.0000 10.8953 0.0000
# 6 0.0000 0.0000 0.0000 0.0000 0.0000 12.1319
#
#
#
# Elastic Compliance Matrix: (Units=1/GPa)
#
#
# Indices 1 2 3 4 5 6 
#
# 1 0.024830 -0.016384 -0.003390 0.000000 0.000000 0.000000
# 2 -0.016384 0.024830 -0.003390 0.000000 0.000000 0.000000
# 3 -0.003390 -0.003390 0.014310 0.000000 0.000000 0.000000
# 4 0.000000 0.000000 0.000000 0.091783 0.000000 0.000000
# 5 0.000000 0.000000 0.000000 0.000000 0.091783 0.000000
# 6 0.000000 0.000000 0.000000 0.000000 0.000000 0.082427
#
#
# Mechanical properties :
#
#
# Convention : Reuss Voigt Hill
#
# Bulk Modulus (GPa) = 56.68718 57.47528 57.08123
# Shear Modulus (GPa) = 13.08313 15.21898 14.15106
#
# Velocity S-wave (km/s) = 2.81794 3.03927 2.93069
# Velocity P-wave (km/s) = 6.70775 6.87028 6.78950
#
# Compressibility (1/GPa) = 0.01764067
#
# Stress axis : x y z
#
# Youngs Moduli (GPa) = 40.27451 40.27451 69.88018
#
# Poissons Ratio (x) = 0.65986 0.23691
# Poissons Ratio (y) = 0.65986 0.23691
# Poissons Ratio (z) = 0.13654 0.13654
#
# Static dielectric constant tensor:
#      x y z
#    x 1.549490 0.000000 0.000000 
#    y 0.000000 1.549490 0.000000 
#    z 0.000000 0.000000 1.564930 
# 
# From -- ./inp_files/9762.got.cif
#   From: 2010.05.17/outbox.cif.g08.bks.cpg/sg191_5_cif.got.tgz:9762.got - 2010.05.20 12:20:32.
