data_PCOD9587682
_publ_section_title
;
Structure prediction by ZEFSAII (Michael W. Deem and Ramdas Pophale) SiO2 
 PCOD9587682
Probable space group: P 6/M M M
;
_chemical_formula_sum "Si O2"
_cell_formula_units_Z 120
_cell_length_a 22.380828
_cell_length_b 22.380828
_cell_length_c 16.106468
_cell_angle_alpha 90.000000
_cell_angle_beta 90.000000
_cell_angle_gamma 120.000000
_cell_volume 6986.879368
_symmetry_space_group_name_H-M "P 6/M M M"
_symmetry_group_IT_number 191
_symmetry_cell_setting 'hexagonal'
loop_
_space_group_symop_operation_xyz
x,y,z
x-y,x,z
-y,x-y,z
-x,-y,z
-x+y,-x,z
y,-x+y,z
x-y,-y,-z
-x,-x+y,-z
y,x,-z
-y,-x,-z
-x+y,y,-z
x,x-y,-z
-x,-y,-z
-x+y,-x,-z
y,-x+y,-z
x,y,-z
x-y,x,-z
-y,x-y,-z
-x+y,y,z
x,x-y,z
-y,-x,z
y,x,z
x-y,-y,z
-x,-x+y,z
loop_
_atom_site_type_symbol
_atom_site_label
_atom_site_fract_x
_atom_site_fract_y
_atom_site_fract_z
Si Si1 0.075028 0.785422 0.236184
Si Si2 0.125645 0.395225 0.908737
Si Si3 0.808079 0.334588 0.808610
Si Si4 0.884720 0.631958 0.409243
Si Si5 0.392660 0.472511 0.661002
O O1 0.137624 0.862377 0.224550
O O2 0.083407 0.737401 0.167496
O O3 0.082706 0.761769 0.328379
O O4 0.000000 0.775590 0.226930
O O5 0.194447 0.388894 0.911927
O O6 0.153356 0.474381 0.884342
O O7 0.092888 0.377496 0.000000
O O8 0.792113 0.396057 0.823675
O O9 0.737817 0.262184 0.790997
O O10 0.863253 0.358704 0.733634
O O11 0.907790 0.665860 0.500000
O O12 0.803131 0.606262 0.403251
O O13 0.902385 0.571369 0.401694
O O14 0.457527 0.542474 0.627212
O O15 0.424835 0.424835 0.689867
#
# Coordination Sequence:
#
# PCOD9587682 Si02
#       5
#    24  24  24  24  24
#     4  10  20  35  55  79 107 137 170 209 254 304
#     4   9  18  32  50  73 101 133 170 211 254 298
#     4  10  19  32  50  72 101 137 178 220 264 314
#     4  10  20  34  53  76 102 134 171 210 255 307
#     4  10  20  32  48  71  99 132 171 216 264 314
#
# _framework density 17.175049000000001
#
# number of rings (size 3 to 8) (size 9 to 14) (size 15 to 20)
#    0.000    2.200    2.000    1.400    0.000    2.800 
#    0.000    1.000    0.000    1.800    0.000    4.200 
#    0.000    0.000    0.000   10.000    0.000    0.000 
#
# Total GULP energy -668374.684835 kJ/mol
# GULP energy per Si atom -5569.789040 kJ/mol
# Density = 1.713596 g / cm^3
# Si number density = 17.175049 Si / 1000 Ang^3
#
#
#
# Elastic Constant Matrix: (Units=GPa)
#
#
# Indices 1 2 3 4 5 6 
#
# 1 89.5760 51.5627 31.6647 0.0000 0.0000 0.0000
# 2 51.5627 89.5760 31.6647 0.0000 0.0000 0.0000
# 3 31.6647 31.6647 103.8484 0.0000 0.0000 0.0000
# 4 0.0000 0.0000 0.0000 -15.7841 0.0000 0.0000
# 5 0.0000 0.0000 0.0000 0.0000 -15.7841 0.0000
# 6 0.0000 0.0000 0.0000 0.0000 0.0000 19.0067
#
#
#
# Elastic Compliance Matrix: (Units=1/GPa)
#
#
# Indices 1 2 3 4 5 6 
#
# 1 0.017257 -0.009049 -0.002503 0.000000 0.000000 0.000000
# 2 -0.009049 0.017257 -0.002503 0.000000 0.000000 0.000000
# 3 -0.002503 -0.002503 0.011156 0.000000 0.000000 0.000000
# 4 0.000000 0.000000 0.000000 -0.063355 0.000000 0.000000
# 5 0.000000 0.000000 0.000000 0.000000 -0.063355 0.000000
# 6 0.000000 0.000000 0.000000 0.000000 0.000000 0.052613
#
#
# Mechanical properties :
#
#
# Convention : Reuss Voigt Hill
#
# Bulk Modulus (GPa) = 56.94443 56.97608 56.96026
# Shear Modulus (GPa) = 902.98368 8.69490 455.83929
#
# Velocity S-wave (km/s) = 22.95418 2.25245 16.30902
# Velocity P-wave (km/s) = 27.12477 6.32538 19.69472
#
# Compressibility (1/GPa) = 0.01756098
#
# Stress axis : x y z
#
# Youngs Moduli (GPa) = 57.94613 57.94613 89.64031
#
# Poissons Ratio (x) = 0.52436 0.22435
# Poissons Ratio (y) = 0.52436 0.22435
# Poissons Ratio (z) = 0.14503 0.14503
#
# Static dielectric constant tensor:
#      x y z
#    x 1.580510 0.000000 0.000000 
#    y 0.000000 1.580510 0.000000 
#    z 0.000000 0.000000 1.615700 
# 
# From -- ./inp_files/4678.got.cif
#   From: 2010.05.17/outbox.cif.g08.bks.cpg/sg191_3_cif.got.tgz:4678.got - 2010.05.20 12:20:32.
