data_PCOD9587096
_publ_section_title
;
Structure prediction by ZEFSAII (Michael W. Deem and Ramdas Pophale) SiO2 
 PCOD9587096
Probable space group: P 6/M M M
;
_chemical_formula_sum "Si O2"
_cell_formula_units_Z 132
_cell_length_a 19.112508
_cell_length_b 19.112508
_cell_length_c 28.158002
_cell_angle_alpha 90.000000
_cell_angle_beta 90.000000
_cell_angle_gamma 120.000000
_cell_volume 8907.746055
_symmetry_space_group_name_H-M "P 6/M M M"
_symmetry_group_IT_number 191
_symmetry_cell_setting 'hexagonal'
loop_
_space_group_symop_operation_xyz
x,y,z
x-y,x,z
-y,x-y,z
-x,-y,z
-x+y,-x,z
y,-x+y,z
x-y,-y,-z
-x,-x+y,-z
y,x,-z
-y,-x,-z
-x+y,y,-z
x,x-y,-z
-x,-y,-z
-x+y,-x,-z
y,-x+y,-z
x,y,-z
x-y,x,-z
-y,x-y,-z
-x+y,y,z
x,x-y,z
-y,-x,z
y,x,z
x-y,-y,z
-x,-x+y,z
loop_
_atom_site_type_symbol
_atom_site_label
_atom_site_fract_x
_atom_site_fract_y
_atom_site_fract_z
Si Si1 0.908330 0.656530 0.556970
Si Si2 0.909113 0.369772 0.284671
Si Si3 0.096712 0.628202 0.916585
Si Si4 0.171338 0.668171 0.383337
Si Si5 0.901304 0.640279 0.000000
Si Si6 0.832189 0.499898 0.186224
O O1 0.905351 0.646065 0.500000
O O2 0.839402 0.678803 0.569807
O O3 0.882347 0.571652 0.582301
O O4 0.000000 0.721634 0.570004
O O5 0.911243 0.455622 0.282532
O O6 0.852733 0.324822 0.329214
O O7 0.878922 0.330392 0.233231
O O8 0.000000 0.390508 0.294025
O O9 0.126172 0.563086 0.927890
O O10 0.116657 0.697420 0.954949
O O11 0.126264 0.662690 0.864036
O O12 0.000000 0.575762 0.915956
O O13 0.158070 0.579035 0.390223
O O14 0.264145 0.735856 0.391331
O O15 0.835401 0.670802 0.000000
O O16 0.000000 0.705956 0.000000
O O17 0.743993 0.487986 0.186687
O O18 0.827744 0.413872 0.189245
#
# Coordination Sequence:
#
# PCOD9587096 Si02
#       6
#    24  24  24  24  12  24
#     4   9  18  32  49  68  89 114 144 178 217 260
#     4   9  17  28  41  56  75 103 141 183 221 255
#     4   9  17  29  45  63  83 109 140 173 208 249
#     4  10  19  30  44  63  88 117 149 184 221 259
#     4  10  19  31  47  66  87 111 142 178 217 261
#     4  10  18  27  39  56  80 108 138 171 209 252
#
# _framework density 14.818562999999999
#
# number of rings (size 3 to 8) (size 9 to 14) (size 15 to 20)
#    0.000    2.545    0.000    2.818    0.000    4.727 
#    0.000    2.727    0.000    3.909    0.000    1.273 
#    0.000    0.000    0.000    0.000    0.000    0.000 
#
# Total GULP energy -734906.547430 kJ/mol
# GULP energy per Si atom -5567.473844 kJ/mol
# Density = 1.478484 g / cm^3
# Si number density = 14.818563 Si / 1000 Ang^3
#
#
#
# Elastic Constant Matrix: (Units=GPa)
#
#
# Indices 1 2 3 4 5 6 
#
# 1 61.4301 42.3114 35.4309 0.0000 0.0000 0.0000
# 2 42.3114 61.4301 35.4309 0.0000 0.0000 0.0000
# 3 35.4309 35.4309 41.6742 0.0000 0.0000 0.0000
# 4 0.0000 0.0000 0.0000 18.4101 0.0000 0.0000
# 5 0.0000 0.0000 0.0000 0.0000 18.4101 0.0000
# 6 0.0000 0.0000 0.0000 0.0000 0.0000 9.5594
#
#
#
# Elastic Compliance Matrix: (Units=1/GPa)
#
#
# Indices 1 2 3 4 5 6 
#
# 1 0.037648 -0.014657 -0.019546 0.000000 0.000000 0.000000
# 2 -0.014657 0.037648 -0.019546 0.000000 0.000000 0.000000
# 3 -0.019546 -0.019546 0.057232 0.000000 0.000000 0.000000
# 4 0.000000 0.000000 0.000000 0.054318 0.000000 0.000000
# 5 0.000000 0.000000 0.000000 0.000000 0.054318 0.000000
# 6 0.000000 0.000000 0.000000 0.000000 0.000000 0.104609
#
#
# Mechanical properties :
#
#
# Convention : Reuss Voigt Hill
#
# Bulk Modulus (GPa) = 39.95582 43.43120 41.69351
# Shear Modulus (GPa) = 10.83153 12.70001 11.76577
#
# Velocity S-wave (km/s) = 2.70653 2.93069 2.82084
# Velocity P-wave (km/s) = 6.06539 6.38938 6.22949
#
# Compressibility (1/GPa) = 0.02502764
#
# Stress axis : x y z
#
# Youngs Moduli (GPa) = 26.56202 26.56202 17.47275
#
# Poissons Ratio (x) = 0.38932 0.34153
# Poissons Ratio (y) = 0.38932 0.34153
# Poissons Ratio (z) = 0.51919 0.51919
#
# Static dielectric constant tensor:
#      x y z
#    x 1.484500 0.000000 0.000000 
#    y 0.000000 1.484500 0.000000 
#    z 0.000000 0.000000 1.516780 
# 
# From -- ./inp_files/9745.got.cif
#   From: 2010.05.17/outbox.cif.g08.bks.cpg/sg191_5_cif.got.tgz:9745.got - 2010.05.20 12:20:32.
