data_PCOD9587596
_publ_section_title
;
Structure prediction by ZEFSAII (Michael W. Deem and Ramdas Pophale) SiO2 
 PCOD9587596
Probable space group: P 6/M M M
;
_chemical_formula_sum "Si O2"
_cell_formula_units_Z 120
_cell_length_a 20.864533
_cell_length_b 20.864533
_cell_length_c 20.810627
_cell_angle_alpha 90.000000
_cell_angle_beta 90.000000
_cell_angle_gamma 120.000000
_cell_volume 7845.725947
_symmetry_space_group_name_H-M "P 6/M M M"
_symmetry_group_IT_number 191
_symmetry_cell_setting 'hexagonal'
loop_
_space_group_symop_operation_xyz
x,y,z
x-y,x,z
-y,x-y,z
-x,-y,z
-x+y,-x,z
y,-x+y,z
x-y,-y,-z
-x,-x+y,-z
y,x,-z
-y,-x,-z
-x+y,y,-z
x,x-y,-z
-x,-y,-z
-x+y,-x,-z
y,-x+y,-z
x,y,-z
x-y,x,-z
-y,x-y,-z
-x+y,y,z
x,x-y,z
-y,-x,z
y,x,z
x-y,-y,z
-x,-x+y,z
loop_
_atom_site_type_symbol
_atom_site_label
_atom_site_fract_x
_atom_site_fract_y
_atom_site_fract_z
Si Si1 0.592901 0.682209 0.310251
Si Si2 0.910509 0.455255 0.268937
Si Si3 0.567547 0.858268 0.073610
Si Si4 0.088965 0.544483 0.884125
Si Si5 0.768842 0.683007 0.812481
Si Si6 0.085814 0.771002 0.574701
O O1 0.632753 0.632753 0.310934
O O2 0.506638 0.625182 0.299425
O O3 0.629002 0.735448 0.249188
O O4 0.617738 0.727472 0.376160
O O5 0.897867 0.448934 0.192564
O O6 0.000000 0.500000 0.276651
O O7 0.543770 0.771885 0.081673
O O8 0.502598 0.876217 0.087228
O O9 0.632657 0.902177 0.124900
O O10 0.592839 0.878720 0.000000
O O11 0.000000 0.500000 0.894827
O O12 0.855758 0.711515 0.815785
O O13 0.744586 0.744586 0.806999
O O14 0.090763 0.753394 0.500000
O O15 0.142166 0.857835 0.583776
O O16 0.000000 0.744376 0.587868
#
# Coordination Sequence:
#
# PCOD9587596 Si02
#       6
#    24  12  24  12  24  24
#     4   9  16  28  45  66  93 122 149 184 230 278
#     4   9  16  27  45  69  95 119 147 189 233 271
#     4  10  21  34  47  69  99 127 156 193 239 286
#     4  11  19  32  53  73  92 122 165 203 234 278
#     4  10  19  31  48  69  94 124 158 197 241 286
#     4   9  17  29  46  69  97 128 161 198 241 286
#
# _framework density 15.294950999999999
#
# number of rings (size 3 to 8) (size 9 to 14) (size 15 to 20)
#    0.000    2.400    2.000    1.500    0.000    2.000 
#    0.600    0.500    0.000    3.400    0.000    1.400 
#    1.000    4.800    0.000    5.200    0.000    0.000 
#
# Total GULP energy -668371.549736 kJ/mol
# GULP energy per Si atom -5569.762914 kJ/mol
# Density = 1.526014 g / cm^3
# Si number density = 15.294951 Si / 1000 Ang^3
#
#
#
# Elastic Constant Matrix: (Units=GPa)
#
#
# Indices 1 2 3 4 5 6 
#
# 1 80.0630 46.7104 41.8077 0.0000 0.0000 0.0000
# 2 46.7104 80.0630 41.8077 0.0000 0.0000 0.0000
# 3 41.8077 41.8077 91.1715 0.0000 0.0000 0.0000
# 4 0.0000 0.0000 0.0000 20.9295 0.0000 0.0000
# 5 0.0000 0.0000 0.0000 0.0000 20.9295 0.0000
# 6 0.0000 0.0000 0.0000 0.0000 0.0000 16.6763
#
#
#
# Elastic Compliance Matrix: (Units=1/GPa)
#
#
# Indices 1 2 3 4 5 6 
#
# 1 0.020645 -0.009337 -0.005186 0.000000 0.000000 0.000000
# 2 -0.009337 0.020645 -0.005186 0.000000 0.000000 0.000000
# 3 -0.005186 -0.005186 0.015724 0.000000 0.000000 0.000000
# 4 0.000000 0.000000 0.000000 0.047779 0.000000 0.000000
# 5 0.000000 0.000000 0.000000 0.000000 0.047779 0.000000
# 6 0.000000 0.000000 0.000000 0.000000 0.000000 0.059965
#
#
# Mechanical properties :
#
#
# Convention : Reuss Voigt Hill
#
# Bulk Modulus (GPa) = 56.82293 56.88325 56.85309
# Shear Modulus (GPa) = 19.39324 19.77186 19.58255
#
# Velocity S-wave (km/s) = 3.56469 3.59932 3.58205
# Velocity P-wave (km/s) = 7.36035 7.38546 7.37292
#
# Compressibility (1/GPa) = 0.01759853
#
# Stress axis : x y z
#
# Youngs Moduli (GPa) = 48.43678 48.43678 63.59663
#
# Poissons Ratio (x) = 0.45226 0.32978
# Poissons Ratio (y) = 0.45226 0.32978
# Poissons Ratio (z) = 0.25117 0.25117
#
# Static dielectric constant tensor:
#      x y z
#    x 1.503860 0.000000 0.000000 
#    y 0.000000 1.503860 0.000000 
#    z 0.000000 0.000000 1.521620 
# 
# From -- ./inp_files/6286.got.cif
#   From: 2010.05.17/outbox.cif.g08.bks.cpg/sg191_4_cif.got.tgz:6286.got - 2010.05.20 12:20:32.
