data_PCOD9587120
_publ_section_title
;
Structure prediction by ZEFSAII (Michael W. Deem and Ramdas Pophale) SiO2 
 PCOD9587120
Probable space group: P 6/M M M
;
_chemical_formula_sum "Si O2"
_cell_formula_units_Z 168
_cell_length_a 23.125435
_cell_length_b 23.125435
_cell_length_c 25.889913
_cell_angle_alpha 90.000000
_cell_angle_beta 90.000000
_cell_angle_gamma 120.000000
_cell_volume 11990.603558
_symmetry_space_group_name_H-M "P 6/M M M"
_symmetry_group_IT_number 191
_symmetry_cell_setting 'hexagonal'
loop_
_space_group_symop_operation_xyz
x,y,z
x-y,x,z
-y,x-y,z
-x,-y,z
-x+y,-x,z
y,-x+y,z
x-y,-y,-z
-x,-x+y,-z
y,x,-z
-y,-x,-z
-x+y,y,-z
x,x-y,-z
-x,-y,-z
-x+y,-x,-z
y,-x+y,-z
x,y,-z
x-y,x,-z
-y,x-y,-z
-x+y,y,z
x,x-y,z
-y,-x,z
y,x,z
x-y,-y,z
-x,-x+y,z
loop_
_atom_site_type_symbol
_atom_site_label
_atom_site_fract_x
_atom_site_fract_y
_atom_site_fract_z
Si Si1 0.529574 0.608520 0.233906
Si Si2 0.923270 0.717600 0.300815
Si Si3 0.919151 0.328548 0.659741
Si Si4 0.718711 0.794768 0.823065
Si Si5 0.918739 0.391948 0.557732
Si Si6 0.432934 0.284299 0.145026
Si Si7 0.077339 0.470569 0.938383
O O1 0.457644 0.542356 0.230175
O O2 0.583997 0.583997 0.225087
O O3 0.542352 0.639841 0.291145
O O4 0.538803 0.663549 0.192369
O O5 0.870903 0.741806 0.312366
O O6 0.900258 0.646921 0.327885
O O7 0.921920 0.706449 0.238884
O O8 0.000000 0.768607 0.314863
O O9 0.894386 0.341630 0.605587
O O10 0.000000 0.369044 0.657478
O O11 0.744679 0.872340 0.833389
O O12 0.768374 0.768374 0.837595
O O13 0.647325 0.752335 0.850053
O O14 0.897298 0.363330 0.500000
O O15 0.900981 0.450491 0.565306
O O16 0.000000 0.430458 0.558040
O O17 0.451246 0.225623 0.147281
O O18 0.456502 0.328892 0.093680
O O19 0.087612 0.543806 0.926922
O O20 0.000000 0.418473 0.924075
O O21 0.083694 0.466219 0.000000
#
# Coordination Sequence:
#
# PCOD9587120 Si02
#       7
#    24  24  24  24  24  24  24
#     4  10  18  27  42  63  85 108 138 180 220 249
#     4   9  16  26  40  58  81 108 138 173 213 259
#     4   9  15  23  37  58  82 107 137 171 209 253
#     4   9  16  26  40  59  83 109 137 169 209 255
#     4   8  13  21  33  51  78 110 139 165 196 240
#     4  11  20  28  42  63  88 115 141 170 209 256
#     4   9  18  33  52  70  86 107 138 176 213 245
#
# _framework density 14.01097
#
# number of rings (size 3 to 8) (size 9 to 14) (size 15 to 20)
#    0.000    2.714    1.429    3.000    0.000    3.143 
#    0.000    0.000    0.000    3.000    0.000    2.000 
#    0.000    0.000    0.000    0.000    0.000    1.429 
#
# Total GULP energy -935401.024950 kJ/mol
# GULP energy per Si atom -5567.863244 kJ/mol
# Density = 1.397908 g / cm^3
# Si number density = 14.010970 Si / 1000 Ang^3
#
#
#
# Elastic Constant Matrix: (Units=GPa)
#
#
# Indices 1 2 3 4 5 6 
#
# 1 80.1509 42.5417 40.1011 0.0000 0.0000 0.0000
# 2 42.5417 80.1509 40.1011 0.0000 0.0000 0.0000
# 3 40.1011 40.1011 63.1580 0.0000 0.0000 0.0000
# 4 0.0000 0.0000 0.0000 11.8945 0.0000 0.0000
# 5 0.0000 0.0000 0.0000 0.0000 11.8945 0.0000
# 6 0.0000 0.0000 0.0000 0.0000 0.0000 18.8046
#
#
#
# Elastic Compliance Matrix: (Units=1/GPa)
#
#
# Indices 1 2 3 4 5 6 
#
# 1 0.020261 -0.006328 -0.008847 0.000000 0.000000 0.000000
# 2 -0.006328 0.020261 -0.008847 0.000000 0.000000 0.000000
# 3 -0.008847 -0.008847 0.027068 0.000000 0.000000 0.000000
# 4 0.000000 0.000000 0.000000 0.084073 0.000000 0.000000
# 5 0.000000 0.000000 0.000000 0.000000 0.084073 0.000000
# 6 0.000000 0.000000 0.000000 0.000000 0.000000 0.053179
#
#
# Mechanical properties :
#
#
# Convention : Reuss Voigt Hill
#
# Bulk Modulus (GPa) = 51.15813 52.10532 51.63172
# Shear Modulus (GPa) = 14.55719 15.23309 14.89514
#
# Velocity S-wave (km/s) = 3.22683 3.30089 3.26407
# Velocity P-wave (km/s) = 7.10460 7.19705 7.15097
#
# Compressibility (1/GPa) = 0.01954724
#
# Stress axis : x y z
#
# Youngs Moduli (GPa) = 49.35496 49.35496 36.94448
#
# Poissons Ratio (x) = 0.31231 0.32684
# Poissons Ratio (y) = 0.31231 0.32684
# Poissons Ratio (z) = 0.43664 0.43664
#
# Static dielectric constant tensor:
#      x y z
#    x 1.454810 0.000000 0.000000 
#    y 0.000000 1.454810 0.000000 
#    z 0.000000 0.000000 1.472140 
# 
# From -- ./inp_files/9163.got.cif
#   From: 2010.05.17/outbox.cif.g08.bks.cpg/sg191_5_cif.got.tgz:9163.got - 2010.05.20 12:20:32.
