data_PCOD9587965
_publ_section_title
;
Structure prediction by ZEFSAII (Michael W. Deem and Ramdas Pophale) SiO2 
 PCOD9587965
Probable space group: P 6/M M M
;
_chemical_formula_sum "Si O2"
_cell_formula_units_Z 72
_cell_length_a 21.979591
_cell_length_b 21.979591
_cell_length_c 10.264741
_cell_angle_alpha 90.000000
_cell_angle_beta 90.000000
_cell_angle_gamma 120.000000
_cell_volume 4294.551755
_symmetry_space_group_name_H-M "P 6/M M M"
_symmetry_group_IT_number 191
_symmetry_cell_setting 'hexagonal'
loop_
_space_group_symop_operation_xyz
x,y,z
x-y,x,z
-y,x-y,z
-x,-y,z
-x+y,-x,z
y,-x+y,z
x-y,-y,-z
-x,-x+y,-z
y,x,-z
-y,-x,-z
-x+y,y,-z
x,x-y,-z
-x,-y,-z
-x+y,-x,-z
y,-x+y,-z
x,y,-z
x-y,x,-z
-y,x-y,-z
-x+y,y,z
x,x-y,z
-y,-x,z
y,x,z
x-y,-y,z
-x,-x+y,z
loop_
_atom_site_type_symbol
_atom_site_label
_atom_site_fract_x
_atom_site_fract_y
_atom_site_fract_z
Si Si1 0.849986 0.699971 0.339955
Si Si2 0.528607 0.614272 0.000000
Si Si3 0.084779 0.689555 0.254177
Si Si4 0.168148 0.084074 0.850723
Si Si5 0.610986 0.525585 0.500000
O O1 0.852669 0.705338 0.500000
O O2 0.770339 0.656773 0.287326
O O3 0.886991 0.773981 0.263292
O O4 0.557806 0.665113 0.875417
O O5 0.569096 0.569096 0.000000
O O6 0.445897 0.554104 0.000000
O O7 0.106646 0.657794 0.373099
O O8 0.000000 0.651482 0.250084
O O9 0.120804 0.120804 0.839988
O O10 0.198678 0.099339 0.000000
O O11 0.566349 0.566349 0.500000
O O12 0.555810 0.444191 0.500000
#
# Coordination Sequence:
#
# PCOD9587965 Si02
#       5
#    12  12  24  12  12
#     4  12  24  37  53  81 122 158 190 230 292 358
#     4   9  18  33  54  80 109 136 169 214 268 324
#     4  10  20  33  51  77 112 147 181 224 272 329
#     4  10  23  42  64  84 106 146 206 266 314 360
#     4   9  16  29  50  74 103 138 175 212 258 314
#
# _framework density 16.765428
#
# number of rings (size 3 to 8) (size 9 to 14) (size 15 to 20)
#    0.000    2.000    1.667    2.167    2.333    6.667 
#    0.000    0.000    0.000    1.000    0.000    0.000 
#   33.333    0.000    0.000    0.000    0.000    0.000 
#
# Total GULP energy -401157.550431 kJ/mol
# GULP energy per Si atom -5571.632645 kJ/mol
# Density = 1.672727 g / cm^3
# Si number density = 16.765428 Si / 1000 Ang^3
#
#
#
# Elastic Constant Matrix: (Units=GPa)
#
#
# Indices 1 2 3 4 5 6 
#
# 1 89.0191 39.2892 66.1101 0.0000 0.0000 0.0000
# 2 39.2892 89.0191 66.1101 0.0000 0.0000 0.0000
# 3 66.1101 66.1101 190.4271 0.0000 0.0000 0.0000
# 4 0.0000 0.0000 0.0000 37.4748 0.0000 0.0000
# 5 0.0000 0.0000 0.0000 0.0000 37.4748 0.0000
# 6 0.0000 0.0000 0.0000 0.0000 0.0000 24.8649
#
#
#
# Elastic Compliance Matrix: (Units=1/GPa)
#
#
# Indices 1 2 3 4 5 6 
#
# 1 0.016122 -0.003987 -0.004213 0.000000 0.000000 0.000000
# 2 -0.003987 0.016122 -0.004213 0.000000 0.000000 0.000000
# 3 -0.004213 -0.004213 0.008177 0.000000 0.000000 0.000000
# 4 0.000000 0.000000 0.000000 0.026685 0.000000 0.000000
# 5 0.000000 0.000000 0.000000 0.000000 0.026685 0.000000
# 6 0.000000 0.000000 0.000000 0.000000 0.000000 0.040217
#
#
# Mechanical properties :
#
#
# Convention : Reuss Voigt Hill
#
# Bulk Modulus (GPa) = 64.12288 79.05378 71.58833
# Shear Modulus (GPa) = 30.48218 33.09329 31.78773
#
# Velocity S-wave (km/s) = 4.26861 4.44768 4.35907
# Velocity P-wave (km/s) = 7.91359 8.58085 8.25396
#
# Compressibility (1/GPa) = 0.01559506
#
# Stress axis : x y z
#
# Youngs Moduli (GPa) = 62.02760 62.02760 122.30138
#
# Poissons Ratio (x) = 0.24729 0.51524
# Poissons Ratio (y) = 0.24729 0.51524
# Poissons Ratio (z) = 0.26132 0.26132
#
# Static dielectric constant tensor:
#      x y z
#    x 1.557090 0.000000 0.000000 
#    y 0.000000 1.557090 0.000000 
#    z 0.000000 0.000000 1.567580 
# 
# From -- ./inp_files/1000.got.cif
#   From: 2010.05.17/outbox.cif.g08.bks.cpg/sg191_1_cif.got.tgz:1000.got - 2010.05.20 12:20:32.
