data_PCOD9587552
_publ_section_title
;
Structure prediction by ZEFSAII (Michael W. Deem and Ramdas Pophale) SiO2 
 PCOD9587552
Probable space group: P 6/M M M
;
_chemical_formula_sum "Si O2"
_cell_formula_units_Z 192
_cell_length_a 24.239057
_cell_length_b 24.239057
_cell_length_c 20.915491
_cell_angle_alpha 90.000000
_cell_angle_beta 90.000000
_cell_angle_gamma 120.000000
_cell_volume 10642.168622
_symmetry_space_group_name_H-M "P 6/M M M"
_symmetry_group_IT_number 191
_symmetry_cell_setting 'hexagonal'
loop_
_space_group_symop_operation_xyz
x,y,z
x-y,x,z
-y,x-y,z
-x,-y,z
-x+y,-x,z
y,-x+y,z
x-y,-y,-z
-x,-x+y,-z
y,x,-z
-y,-x,-z
-x+y,y,-z
x,x-y,-z
-x,-y,-z
-x+y,-x,-z
y,-x+y,-z
x,y,-z
x-y,x,-z
-y,x-y,-z
-x+y,y,z
x,x-y,z
-y,-x,z
y,x,z
x-y,-y,z
-x,-x+y,z
loop_
_atom_site_type_symbol
_atom_site_label
_atom_site_fract_x
_atom_site_fract_y
_atom_site_fract_z
Si Si1 0.307982 0.490133 0.070038
Si Si2 0.927377 0.527205 0.397283
Si Si3 0.334759 0.788813 0.203688
Si Si4 0.107579 0.338972 0.789906
Si Si5 0.268345 0.071430 0.661560
Si Si6 0.075108 0.351522 0.927487
Si Si7 0.257847 0.869261 0.572091
Si Si8 0.071064 0.626130 0.246877
O O1 0.232136 0.464271 0.069584
O O2 0.333823 0.539274 0.127039
O O3 0.313643 0.427864 0.081698
O O4 0.333148 0.516661 0.000000
O O5 0.907858 0.453929 0.408664
O O6 0.883160 0.553606 0.423367
O O7 0.930542 0.540616 0.321484
O O8 0.000000 0.570056 0.421765
O O9 0.382298 0.764595 0.224137
O O10 0.262489 0.737512 0.223857
O O11 0.365622 0.862128 0.224073
O O12 0.183804 0.367607 0.783420
O O13 0.077343 0.283340 0.737471
O O14 0.091460 0.323680 0.864837
O O15 0.082063 0.385968 0.768852
O O16 0.251934 0.125967 0.644091
O O17 0.333925 0.090142 0.623825
O O18 0.216525 0.000000 0.645445
O O19 0.000000 0.323853 0.926292
O O20 0.091493 0.339673 0.000000
O O21 0.247904 0.886010 0.500000
O O22 0.204220 0.795781 0.583375
O O23 0.000000 0.574980 0.221335
#
# Coordination Sequence:
#
# PCOD9587552 Si02
#       8
#    24  24  24  24  24  24  24  24
#     4   9  18  32  48  65  87 117 156 204 256 309
#     4  10  21  36  55  80 109 141 178 222 271 322
#     4  11  23  37  53  72  96 128 167 214 266 320
#     4  11  20  31  52  80 107 140 180 221 271 326
#     4  10  20  34  54  81 112 145 182 224 269 321
#     4  10  19  30  47  73 105 138 173 216 265 322
#     4  10  21  36  56  83 114 148 184 224 270 321
#     4  11  21  35  55  78 104 134 173 218 266 320
#
# _framework density 18.041436000000001
#
# number of rings (size 3 to 8) (size 9 to 14) (size 15 to 20)
#    0.000    1.750    2.500    2.750    0.000    3.500 
#    0.000    0.625    0.000    1.125    0.000    2.625 
#    0.000    0.000    0.000    3.125    0.000    0.000 
#
# Total GULP energy -1069463.663819 kJ/mol
# GULP energy per Si atom -5570.123249 kJ/mol
# Density = 1.800037 g / cm^3
# Si number density = 18.041436 Si / 1000 Ang^3
#
#
#
# Elastic Constant Matrix: (Units=GPa)
#
#
# Indices 1 2 3 4 5 6 
#
# 1 91.9742 54.3486 20.9719 0.0000 0.0000 0.0000
# 2 54.3486 91.9742 20.9719 0.0000 0.0000 0.0000
# 3 20.9719 20.9719 74.5807 0.0000 0.0000 0.0000
# 4 0.0000 0.0000 0.0000 -4.1188 0.0000 0.0000
# 5 0.0000 0.0000 0.0000 0.0000 -4.1188 0.0000
# 6 0.0000 0.0000 0.0000 0.0000 0.0000 18.8128
#
#
#
# Elastic Compliance Matrix: (Units=1/GPa)
#
#
# Indices 1 2 3 4 5 6 
#
# 1 0.017005 -0.009572 -0.002090 0.000000 0.000000 0.000000
# 2 -0.009572 0.017005 -0.002090 0.000000 0.000000 0.000000
# 3 -0.002090 -0.002090 0.014584 0.000000 0.000000 0.000000
# 4 0.000000 0.000000 0.000000 -0.242788 0.000000 0.000000
# 5 0.000000 0.000000 0.000000 0.000000 -0.242788 0.000000
# 6 0.000000 0.000000 0.000000 0.000000 0.000000 0.053155
#
#
# Mechanical properties :
#
#
# Convention : Reuss Voigt Hill
#
# Bulk Modulus (GPa) = 47.41668 50.12374 48.77021
# Shear Modulus (GPa) = -14.31475 12.93083 -0.69196
#
# Velocity S-wave (km/s) = -2.81986 2.68008 -0.61998
# Velocity P-wave (km/s) = 3.96699 6.11719 5.15544
#
# Compressibility (1/GPa) = 0.02108962
#
# Stress axis : x y z
#
# Youngs Moduli (GPa) = 58.80457 58.80457 68.56903
#
# Poissons Ratio (x) = 0.56288 0.14333
# Poissons Ratio (y) = 0.56288 0.14333
# Poissons Ratio (z) = 0.12292 0.12292
#
# Static dielectric constant tensor:
#      x y z
#    x 1.628630 0.000000 0.000000 
#    y 0.000000 1.628630 0.000000 
#    z 0.000000 0.000000 1.667800 
# 
# From -- ./inp_files/8077.got.cif
#   From: 2010.05.17/outbox.cif.g08.bks.cpg/sg191_5_cif.got.tgz:8077.got - 2010.05.20 12:20:32.
