data_PCOD9587178
_publ_section_title
;
Structure prediction by ZEFSAII (Michael W. Deem and Ramdas Pophale) SiO2 
 PCOD9587178
Probable space group: P 6/M M M
;
_chemical_formula_sum "Si O2"
_cell_formula_units_Z 168
_cell_length_a 22.382588
_cell_length_b 22.382588
_cell_length_c 24.206694
_cell_angle_alpha 90.000000
_cell_angle_beta 90.000000
_cell_angle_gamma 120.000000
_cell_volume 10502.355461
_symmetry_space_group_name_H-M "P 6/M M M"
_symmetry_group_IT_number 191
_symmetry_cell_setting 'hexagonal'
loop_
_space_group_symop_operation_xyz
x,y,z
x-y,x,z
-y,x-y,z
-x,-y,z
-x+y,-x,z
y,-x+y,z
x-y,-y,-z
-x,-x+y,-z
y,x,-z
-y,-x,-z
-x+y,y,-z
x,x-y,-z
-x,-y,-z
-x+y,-x,-z
y,-x+y,-z
x,y,-z
x-y,x,-z
-y,x-y,-z
-x+y,y,z
x,x-y,z
-y,-x,z
y,x,z
x-y,-y,z
-x,-x+y,z
loop_
_atom_site_type_symbol
_atom_site_label
_atom_site_fract_x
_atom_site_fract_y
_atom_site_fract_z
Si Si1 0.713222 0.564524 0.831280
Si Si2 0.524141 0.333735 0.363846
Si Si3 0.666640 0.192524 0.063366
Si Si4 0.078731 0.290674 0.782052
Si Si5 0.922740 0.216619 0.344602
Si Si6 0.597601 0.726736 0.438827
Si Si7 0.079379 0.468094 0.268443
O O1 0.772756 0.545511 0.816214
O O2 0.685382 0.532916 0.891298
O O3 0.751206 0.646872 0.824845
O O4 0.651648 0.538125 0.787749
O O5 0.524864 0.262432 0.354690
O O6 0.600927 0.399074 0.365680
O O7 0.480125 0.324804 0.419027
O O8 0.481550 0.347160 0.316458
O O9 0.593638 0.187275 0.075315
O O10 0.727752 0.272249 0.066589
O O11 0.665629 0.169930 0.000000
O O12 0.130839 0.261677 0.785015
O O13 0.086286 0.319906 0.719072
O O14 0.000000 0.235550 0.790486
O O15 0.861573 0.138428 0.354013
O O16 0.914535 0.263989 0.390352
O O17 0.000000 0.230045 0.348295
O O18 0.612762 0.710499 0.500000
O O19 0.602772 0.801386 0.441129
O O20 0.075201 0.537601 0.266785
O O21 0.000000 0.406113 0.275991
#
# Coordination Sequence:
#
# PCOD9587178 Si02
#       7
#    24  24  24  24  24  24  24
#     4  10  18  28  45  68  92 118 152 192 231 271
#     4  10  20  34  51  70  92 117 148 189 239 292
#     4   9  17  29  45  65  91 125 164 203 240 277
#     4   9  17  29  47  70  93 117 146 183 226 272
#     4   9  17  30  49  72  97 125 158 196 237 280
#     4   9  18  31  45  63  88 117 150 186 222 265
#     4  10  20  32  46  64  88 119 152 187 229 278
#
# _framework density 15.996411999999999
#
# number of rings (size 3 to 8) (size 9 to 14) (size 15 to 20)
#    0.000    2.571    0.000    2.429    0.000    5.143 
#    0.000    0.000    0.000    7.429    0.000   10.000 
#    0.000    0.000    0.000    3.571    0.000    3.714 
#
# Total GULP energy -935527.333796 kJ/mol
# GULP energy per Si atom -5568.615082 kJ/mol
# Density = 1.596000 g / cm^3
# Si number density = 15.996412 Si / 1000 Ang^3
#
#
#
# Elastic Constant Matrix: (Units=GPa)
#
#
# Indices 1 2 3 4 5 6 
#
# 1 85.7157 51.0622 52.3886 0.0000 0.0000 0.0000
# 2 51.0622 85.7157 52.3886 0.0000 0.0000 0.0000
# 3 52.3886 52.3886 88.6981 0.0000 0.0000 0.0000
# 4 0.0000 0.0000 0.0000 14.4479 0.0000 0.0000
# 5 0.0000 0.0000 0.0000 0.0000 14.4479 0.0000
# 6 0.0000 0.0000 0.0000 0.0000 0.0000 17.3267
#
#
#
# Elastic Compliance Matrix: (Units=1/GPa)
#
#
# Indices 1 2 3 4 5 6 
#
# 1 0.021105 -0.007752 -0.007887 0.000000 0.000000 0.000000
# 2 -0.007752 0.021105 -0.007887 0.000000 0.000000 0.000000
# 3 -0.007887 -0.007887 0.020590 0.000000 0.000000 0.000000
# 4 0.000000 0.000000 0.000000 0.069214 0.000000 0.000000
# 5 0.000000 0.000000 0.000000 0.000000 0.069214 0.000000
# 6 0.000000 0.000000 0.000000 0.000000 0.000000 0.057714
#
#
# Mechanical properties :
#
#
# Convention : Reuss Voigt Hill
#
# Bulk Modulus (GPa) = 63.49484 63.53428 63.51456
# Shear Modulus (GPa) = 16.06460 16.19717 16.13088
#
# Velocity S-wave (km/s) = 3.17245 3.18551 3.17899
# Velocity P-wave (km/s) = 7.29374 7.30302 7.29838
#
# Compressibility (1/GPa) = 0.01574931
#
# Stress axis : x y z
#
# Youngs Moduli (GPa) = 47.38252 47.38252 48.56631
#
# Poissons Ratio (x) = 0.36732 0.38302
# Poissons Ratio (y) = 0.36732 0.38302
# Poissons Ratio (z) = 0.37368 0.37368
#
# Static dielectric constant tensor:
#      x y z
#    x 1.537370 0.000000 0.000000 
#    y 0.000000 1.537370 0.000000 
#    z 0.000000 0.000000 1.543560 
# 
# From -- ./inp_files/7918.got.cif
#   From: 2010.05.17/outbox.cif.g08.bks.cpg/sg191_4_cif.got.tgz:7918.got - 2010.05.20 12:20:32.
