data_PCOD9587748
_publ_section_title
;
Structure prediction by ZEFSAII (Michael W. Deem and Ramdas Pophale) SiO2 
 PCOD9587748
Probable space group: P 6/M M M
;
_chemical_formula_sum "Si O2"
_cell_formula_units_Z 132
_cell_length_a 17.570855
_cell_length_b 17.570855
_cell_length_c 26.948995
_cell_angle_alpha 90.000000
_cell_angle_beta 90.000000
_cell_angle_gamma 120.000000
_cell_volume 7205.414932
_symmetry_space_group_name_H-M "P 6/M M M"
_symmetry_group_IT_number 191
_symmetry_cell_setting 'hexagonal'
loop_
_space_group_symop_operation_xyz
x,y,z
x-y,x,z
-y,x-y,z
-x,-y,z
-x+y,-x,z
y,-x+y,z
x-y,-y,-z
-x,-x+y,-z
y,x,-z
-y,-x,-z
-x+y,y,-z
x,x-y,-z
-x,-y,-z
-x+y,-x,-z
y,-x+y,-z
x,y,-z
x-y,x,-z
-y,x-y,-z
-x+y,y,z
x,x-y,z
-y,-x,z
y,x,z
x-y,-y,z
-x,-x+y,z
loop_
_atom_site_type_symbol
_atom_site_label
_atom_site_fract_x
_atom_site_fract_y
_atom_site_fract_z
Si Si1 0.495962 0.333771 0.809208
Si Si2 0.000000 0.316153 0.225949
Si Si3 0.000000 0.183199 0.149523
Si Si4 0.333467 0.844253 0.401057
Si Si5 0.412078 0.000000 0.322231
Si Si6 0.159949 0.493536 0.071359
Si Si7 0.725548 0.626055 0.500000
Si Si8 0.298227 0.000000 0.945120
O O1 0.512766 0.256383 0.791937
O O2 0.572465 0.427536 0.790892
O O3 0.400758 0.314121 0.794389
O O4 0.497870 0.335149 0.868828
O O5 0.000000 0.233049 0.200598
O O6 0.000000 0.342563 0.283275
O O7 0.000000 0.240999 0.101858
O O8 0.088377 0.176754 0.147415
O O9 0.412746 0.825492 0.409858
O O10 0.244571 0.755430 0.388573
O O11 0.316478 0.883257 0.451199
O O12 0.363119 0.914974 0.357242
O O13 0.500000 0.000000 0.301497
O O14 0.254633 0.509265 0.055249
O O15 0.142812 0.571406 0.054732
O O16 0.084544 0.395932 0.057810
O O17 0.703594 0.703594 0.500000
O O18 0.827913 0.655826 0.500000
O O19 0.260711 0.000000 0.000000
#
# Coordination Sequence:
#
# PCOD9587748 Si02
#       8
#    24  12  12  24  12  24  12  12
#     4  10  19  33  55  84 116 150 189 235 284 334
#     4  12  22  38  63  88 113 151 200 244 286 345
#     4  12  27  49  73  96 117 144 182 233 297 359
#     4  10  20  34  54  82 119 162 208 254 304 356
#     4  10  22  37  55  83 122 165 203 245 294 348
#     4  10  20  36  58  87 121 157 194 232 276 329
#     4  10  19  33  57  86 117 158 206 262 313 365
#     4  12  25  42  66  93 122 153 190 234 280 342
#
# _framework density 18.319555999999999
#
# number of rings (size 3 to 8) (size 9 to 14) (size 15 to 20)
#    0.000    1.455    2.727    3.091    0.000    6.909 
#    0.000    0.909    0.000    3.909    0.000    0.000 
#    0.000    0.000    0.000    0.000    0.000    0.000 
#
# Total GULP energy -736989.170129 kJ/mol
# GULP energy per Si atom -5583.251289 kJ/mol
# Density = 1.827786 g / cm^3
# Si number density = 18.319556 Si / 1000 Ang^3
#
#
#
# Elastic Constant Matrix: (Units=GPa)
#
#
# Indices 1 2 3 4 5 6 
#
# 1 125.2423 58.1254 43.5383 0.0000 0.0000 0.0000
# 2 58.1254 125.2423 43.5383 0.0000 0.0000 0.0000
# 3 43.5383 43.5383 84.2505 0.0000 0.0000 0.0000
# 4 0.0000 0.0000 0.0000 18.1024 0.0000 0.0000
# 5 0.0000 0.0000 0.0000 0.0000 18.1024 0.0000
# 6 0.0000 0.0000 0.0000 0.0000 0.0000 33.5585
#
#
#
# Elastic Compliance Matrix: (Units=1/GPa)
#
#
# Indices 1 2 3 4 5 6 
#
# 1 0.011063 -0.003836 -0.003735 0.000000 0.000000 0.000000
# 2 -0.003836 0.011063 -0.003735 0.000000 0.000000 0.000000
# 3 -0.003735 -0.003735 0.015729 0.000000 0.000000 0.000000
# 4 0.000000 0.000000 0.000000 0.055241 0.000000 0.000000
# 5 0.000000 0.000000 0.000000 0.000000 0.055241 0.000000
# 6 0.000000 0.000000 0.000000 0.000000 0.000000 0.029799
#
#
# Mechanical properties :
#
#
# Convention : Reuss Voigt Hill
#
# Bulk Modulus (GPa) = 65.59729 69.45991 67.52860
# Shear Modulus (GPa) = 24.29190 26.58820 25.44005
#
# Velocity S-wave (km/s) = 3.64539 3.81380 3.73055
# Velocity P-wave (km/s) = 7.32144 7.57571 7.44966
#
# Compressibility (1/GPa) = 0.01524453
#
# Stress axis : x y z
#
# Youngs Moduli (GPa) = 90.38967 90.38967 63.57535
#
# Poissons Ratio (x) = 0.34675 0.23744
# Poissons Ratio (y) = 0.34675 0.23744
# Poissons Ratio (z) = 0.33758 0.33758
#
# Static dielectric constant tensor:
#      x y z
#    x 1.614110 0.000000 0.000000 
#    y 0.000000 1.614110 0.000000 
#    z 0.000000 0.000000 1.655810 
# 
# From -- ./inp_files/8761.got.cif
#   From: 2010.05.17/outbox.cif.g08.bks.cpg/sg191_5_cif.got.tgz:8761.got - 2010.05.20 12:20:32.
