data_PCOD9587351
_publ_section_title
;
Structure prediction by ZEFSAII (Michael W. Deem and Ramdas Pophale) SiO2 
 PCOD9587351
Probable space group: P 6/M M M
;
_chemical_formula_sum "Si O2"
_cell_formula_units_Z 168
_cell_length_a 21.639776
_cell_length_b 21.639776
_cell_length_c 28.996081
_cell_angle_alpha 90.000000
_cell_angle_beta 90.000000
_cell_angle_gamma 120.000000
_cell_volume 11759.137209
_symmetry_space_group_name_H-M "P 6/M M M"
_symmetry_group_IT_number 191
_symmetry_cell_setting 'hexagonal'
loop_
_space_group_symop_operation_xyz
x,y,z
x-y,x,z
-y,x-y,z
-x,-y,z
-x+y,-x,z
y,-x+y,z
x-y,-y,-z
-x,-x+y,-z
y,x,-z
-y,-x,-z
-x+y,y,-z
x,x-y,-z
-x,-y,-z
-x+y,-x,-z
y,-x+y,-z
x,y,-z
x-y,x,-z
-y,x-y,-z
-x+y,y,z
x,x-y,z
-y,-x,z
y,x,z
x-y,-y,z
-x,-x+y,z
loop_
_atom_site_type_symbol
_atom_site_label
_atom_site_fract_x
_atom_site_fract_y
_atom_site_fract_z
Si Si1 0.082941 0.469596 0.136472
Si Si2 0.718129 0.578122 0.220771
Si Si3 0.333550 0.806273 0.302697
Si Si4 0.666680 0.478761 0.555077
Si Si5 0.916240 0.578874 0.629277
Si Si6 0.333398 0.813032 0.947794
Si Si7 0.692569 0.918516 0.302022
O O1 0.097993 0.548997 0.149715
O O2 0.099307 0.431973 0.178535
O O3 0.130859 0.478346 0.092186
O O4 0.000000 0.424476 0.124314
O O5 0.792872 0.585744 0.204816
O O6 0.678896 0.507312 0.252345
O O7 0.737894 0.642479 0.256862
O O8 0.390024 0.780047 0.302413
O O9 0.256263 0.743738 0.319293
O O10 0.361009 0.875143 0.334814
O O11 0.665254 0.487913 0.500000
O O12 0.734486 0.468972 0.565495
O O13 0.593024 0.406977 0.568008
O O14 0.674167 0.546595 0.582477
O O15 0.909785 0.642777 0.653736
O O16 0.000000 0.606977 0.624349
O O17 0.398218 0.796436 0.945065
O O18 0.258921 0.741080 0.941138
O O19 0.335011 0.839863 0.000000
O O20 0.712136 0.856068 0.302715
O O21 0.756072 0.000000 0.301288
#
# Coordination Sequence:
#
# PCOD9587351 Si02
#       7
#    24  24  24  24  24  24  24
#     4  10  19  28  39  57  81 106 131 162 202 245
#     4   9  17  29  43  59  81 108 138 169 198 232
#     4  10  19  30  44  61  82 107 136 171 209 247
#     4  10  20  33  48  64  83 108 139 175 213 251
#     4  10  20  32  45  62  84 110 140 171 203 241
#     4   9  17  29  44  59  74  96 129 167 204 241
#     4   9  17  30  48  67  87 111 138 167 198 236
#
# _framework density 14.286762
#
# number of rings (size 3 to 8) (size 9 to 14) (size 15 to 20)
#    0.000    2.429    0.000    4.286    0.000    3.429 
#    0.000    3.571    0.000    4.714    0.000    0.000 
#    0.000    0.000    0.000    0.000    0.000    0.000 
#
# Total GULP energy -936154.357118 kJ/mol
# GULP energy per Si atom -5572.347364 kJ/mol
# Density = 1.425425 g / cm^3
# Si number density = 14.286762 Si / 1000 Ang^3
#
#
#
# Elastic Constant Matrix: (Units=GPa)
#
#
# Indices 1 2 3 4 5 6 
#
# 1 82.0035 46.7589 44.7691 0.0000 0.0000 0.0000
# 2 46.7589 82.0035 44.7691 0.0000 0.0000 0.0000
# 3 44.7691 44.7691 74.8159 0.0000 0.0000 0.0000
# 4 0.0000 0.0000 0.0000 17.8447 0.0000 0.0000
# 5 0.0000 0.0000 0.0000 0.0000 17.8447 0.0000
# 6 0.0000 0.0000 0.0000 0.0000 0.0000 17.6223
#
#
#
# Elastic Compliance Matrix: (Units=1/GPa)
#
#
# Indices 1 2 3 4 5 6 
#
# 1 0.020837 -0.007536 -0.007959 0.000000 0.000000 0.000000
# 2 -0.007536 0.020837 -0.007959 0.000000 0.000000 0.000000
# 3 -0.007959 -0.007959 0.022891 0.000000 0.000000 0.000000
# 4 0.000000 0.000000 0.000000 0.056039 0.000000 0.000000
# 5 0.000000 0.000000 0.000000 0.000000 0.056039 0.000000
# 6 0.000000 0.000000 0.000000 0.000000 0.000000 0.056746
#
#
# Mechanical properties :
#
#
# Convention : Reuss Voigt Hill
#
# Bulk Modulus (GPa) = 56.63569 56.82414 56.72991
# Shear Modulus (GPa) = 17.47128 17.49738 17.48433
#
# Velocity S-wave (km/s) = 3.50079 3.50341 3.50210
# Velocity P-wave (km/s) = 7.48791 7.49836 7.49314
#
# Compressibility (1/GPa) = 0.01765671
#
# Stress axis : x y z
#
# Youngs Moduli (GPa) = 47.99164 47.99164 43.68450
#
# Poissons Ratio (x) = 0.36167 0.34769
# Poissons Ratio (y) = 0.36167 0.34769
# Poissons Ratio (z) = 0.38197 0.38197
#
# Static dielectric constant tensor:
#      x y z
#    x 1.458050 0.000000 0.000000 
#    y 0.000000 1.458050 0.000000 
#    z 0.000000 0.000000 1.480940 
# 
# From -- ./inp_files/10012.got.cif
#   From: 2010.05.17/outbox.cif.g08.bks.cpg/sg191_6_cif.got.tgz:10012.got - 2010.05.20 12:20:32.
