data_PCOD9587234
_publ_section_title
;
Structure prediction by ZEFSAII (Michael W. Deem and Ramdas Pophale) SiO2 
 PCOD9587234
Probable space group: P 6/M M M
;
_chemical_formula_sum "Si O2"
_cell_formula_units_Z 84
_cell_length_a 17.010495
_cell_length_b 17.010495
_cell_length_c 22.542257
_cell_angle_alpha 90.000000
_cell_angle_beta 90.000000
_cell_angle_gamma 120.000000
_cell_volume 5648.874572
_symmetry_space_group_name_H-M "P 6/M M M"
_symmetry_group_IT_number 191
_symmetry_cell_setting 'hexagonal'
loop_
_space_group_symop_operation_xyz
x,y,z
x-y,x,z
-y,x-y,z
-x,-y,z
-x+y,-x,z
y,-x+y,z
x-y,-y,-z
-x,-x+y,-z
y,x,-z
-y,-x,-z
-x+y,y,-z
x,x-y,-z
-x,-y,-z
-x+y,-x,-z
y,-x+y,-z
x,y,-z
x-y,x,-z
-y,x-y,-z
-x+y,y,z
x,x-y,z
-y,-x,z
y,x,z
x-y,-y,z
-x,-x+y,z
loop_
_atom_site_type_symbol
_atom_site_label
_atom_site_fract_x
_atom_site_fract_y
_atom_site_fract_z
Si Si1 0.393060 0.606941 0.566092
Si Si2 0.484630 0.151681 0.123010
Si Si3 0.445787 0.554214 0.312515
Si Si4 0.382551 0.282326 0.000000
Si Si5 0.895078 0.609606 0.753850
O O1 0.430966 0.715483 0.569808
O O2 0.413639 0.586362 0.500000
O O3 0.425508 0.574493 0.621744
O O4 0.567403 0.134805 0.134187
O O5 0.517536 0.258768 0.122913
O O6 0.441056 0.114250 0.059053
O O7 0.412751 0.109357 0.176133
O O8 0.500000 0.500000 0.314832
O O9 0.352669 0.486557 0.278419
O O10 0.298455 0.298455 0.000000
O O11 0.356593 0.178297 0.000000
O O12 0.818478 0.636956 0.741070
O O13 0.000000 0.680751 0.737941
#
# Coordination Sequence:
#
# PCOD9587234 Si02
#       5
#    12  24  12  12  24
#     4   8  16  29  44  62  89 123 158 188 212 253
#     4  10  19  31  45  65  91 118 150 181 219 268
#     4  10  18  29  46  69  94 120 153 191 230 273
#     4  10  21  33  47  62  81 113 144 182 229 275
#     4  10  20  32  47  67  93 121 153 196 236 279
#
# _framework density 14.87022
#
# number of rings (size 3 to 8) (size 9 to 14) (size 15 to 20)
#    0.286    2.000    1.429    2.429    0.000    2.571 
#    0.857    1.429    0.000    0.429    0.000    0.000 
#    0.000    6.857    0.000    0.000    0.000    0.571 
#
# Total GULP energy -467911.792257 kJ/mol
# GULP energy per Si atom -5570.378479 kJ/mol
# Density = 1.483637 g / cm^3
# Si number density = 14.870220 Si / 1000 Ang^3
#
#
#
# Elastic Constant Matrix: (Units=GPa)
#
#
# Indices 1 2 3 4 5 6 
#
# 1 58.5939 45.1912 6.4096 0.0000 0.0000 0.0000
# 2 45.1912 58.5939 6.4096 0.0000 0.0000 0.0000
# 3 6.4096 6.4096 79.0518 0.0000 0.0000 0.0000
# 4 0.0000 0.0000 0.0000 17.7805 0.0000 0.0000
# 5 0.0000 0.0000 0.0000 0.0000 17.7805 0.0000
# 6 0.0000 0.0000 0.0000 0.0000 0.0000 6.7013
#
#
#
# Elastic Compliance Matrix: (Units=1/GPa)
#
#
# Indices 1 2 3 4 5 6 
#
# 1 0.042172 -0.032440 -0.000789 0.000000 0.000000 0.000000
# 2 -0.032440 0.042172 -0.000789 0.000000 0.000000 0.000000
# 3 -0.000789 -0.000789 0.012778 0.000000 0.000000 0.000000
# 4 0.000000 0.000000 0.000000 0.056241 0.000000 0.000000
# 5 0.000000 0.000000 0.000000 0.000000 0.056241 0.000000
# 6 0.000000 0.000000 0.000000 0.000000 0.000000 0.149224
#
#
# Mechanical properties :
#
#
# Convention : Reuss Voigt Hill
#
# Bulk Modulus (GPa) = 34.37979 34.69562 34.53771
# Shear Modulus (GPa) = 11.45318 17.66776 14.56047
#
# Velocity S-wave (km/s) = 2.77827 3.45067 3.13256
# Velocity P-wave (km/s) = 5.78462 6.26571 6.02996
#
# Compressibility (1/GPa) = 0.02908685
#
# Stress axis : x y z
#
# Youngs Moduli (GPa) = 23.71224 23.71224 78.26008
#
# Poissons Ratio (x) = 0.76921 0.06176
# Poissons Ratio (y) = 0.76921 0.06176
# Poissons Ratio (z) = 0.01871 0.01871
#
# Static dielectric constant tensor:
#      x y z
#    x 1.494900 0.000000 0.000000 
#    y 0.000000 1.494900 0.000000 
#    z 0.000000 0.000000 1.493730 
# 
# From -- ./inp_files/7066.got.cif
#   From: 2010.05.17/outbox.cif.g08.bks.cpg/sg191_4_cif.got.tgz:7066.got - 2010.05.20 12:20:32.
