data_PCOD9587957
_publ_section_title
;
Structure prediction by ZEFSAII (Michael W. Deem and Ramdas Pophale) SiO2 
 PCOD9587957
Probable space group: P 6/M M M
;
_chemical_formula_sum "Si O2"
_cell_formula_units_Z 78
_cell_length_a 26.119337
_cell_length_b 26.119337
_cell_length_c 7.296870
_cell_angle_alpha 90.000000
_cell_angle_beta 90.000000
_cell_angle_gamma 120.000000
_cell_volume 4311.134163
_symmetry_space_group_name_H-M "P 6/M M M"
_symmetry_group_IT_number 191
_symmetry_cell_setting 'hexagonal'
loop_
_space_group_symop_operation_xyz
x,y,z
x-y,x,z
-y,x-y,z
-x,-y,z
-x+y,-x,z
y,-x+y,z
x-y,-y,-z
-x,-x+y,-z
y,x,-z
-y,-x,-z
-x+y,y,-z
x,x-y,-z
-x,-y,-z
-x+y,-x,-z
y,-x+y,-z
x,y,-z
x-y,x,-z
-y,x-y,-z
-x+y,y,z
x,x-y,z
-y,-x,z
y,x,z
x-y,-y,z
-x,-x+y,z
loop_
_atom_site_type_symbol
_atom_site_label
_atom_site_fract_x
_atom_site_fract_y
_atom_site_fract_z
Si Si1 0.561843 0.629905 0.722357
Si Si2 0.627745 0.255489 0.000000
Si Si3 0.249140 0.066644 0.000000
Si Si4 0.850345 0.425173 0.721376
Si Si5 0.353296 0.118388 0.281527
O O1 0.562230 0.628377 0.500000
O O2 0.590986 0.590986 0.784504
O O3 0.494054 0.604499 0.774383
O O4 0.601517 0.698290 0.776190
O O5 0.698513 0.301488 0.000000
O O6 0.605929 0.211857 0.173837
O O7 0.292414 0.080925 0.173722
O O8 0.227516 0.113758 0.000000
O O9 0.198625 0.000000 0.000000
O O10 0.842334 0.421167 0.500000
O O11 0.344693 0.110000 0.500000
O O12 0.374280 0.187140 0.242258
#
# Coordination Sequence:
#
# PCOD9587957 Si02
#       5
#    24   6  12  12  24
#     4   9  17  31  53  81 112 142 173 213 259 310
#     4  10  26  46  59  78 102 126 172 234 282 322
#     4  10  20  33  51  75 102 134 172 208 248 298
#     4  10  21  38  60  80 102 138 176 214 268 328
#     4   9  18  32  50  75 106 139 173 209 252 301
#
# _framework density 18.092686
#
# number of rings (size 3 to 8) (size 9 to 14) (size 15 to 20)
#    0.154    2.462    0.000    1.385    0.000    6.769 
#    0.000    7.692    0.000    0.154    0.000    0.000 
#    0.000    0.000    0.000    7.692    0.000    0.000 
#
# Total GULP energy -435235.271750 kJ/mol
# GULP energy per Si atom -5579.939381 kJ/mol
# Density = 1.805151 g / cm^3
# Si number density = 18.092686 Si / 1000 Ang^3
#
#
#
# Elastic Constant Matrix: (Units=GPa)
#
#
# Indices 1 2 3 4 5 6 
#
# 1 155.7559 111.7358 38.3755 0.0000 0.0000 0.0000
# 2 111.7358 155.7559 38.3755 0.0000 0.0000 0.0000
# 3 38.3755 38.3755 82.1782 0.0000 0.0000 0.0000
# 4 0.0000 0.0000 0.0000 11.3678 0.0000 0.0000
# 5 0.0000 0.0000 0.0000 0.0000 11.3678 0.0000
# 6 0.0000 0.0000 0.0000 0.0000 0.0000 22.0101
#
#
#
# Elastic Compliance Matrix: (Units=1/GPa)
#
#
# Indices 1 2 3 4 5 6 
#
# 1 0.013517 -0.009200 -0.002016 0.000000 0.000000 0.000000
# 2 -0.009200 0.013517 -0.002016 0.000000 0.000000 0.000000
# 3 -0.002016 -0.002016 0.014051 0.000000 0.000000 0.000000
# 4 0.000000 0.000000 0.000000 0.087968 0.000000 0.000000
# 5 0.000000 0.000000 0.000000 0.000000 0.087968 0.000000
# 6 0.000000 0.000000 0.000000 0.000000 0.000000 0.045434
#
#
# Mechanical properties :
#
#
# Convention : Reuss Voigt Hill
#
# Bulk Modulus (GPa) = 68.39192 85.62928 77.01060
# Shear Modulus (GPa) = 17.01884 22.62934 19.82409
#
# Velocity S-wave (km/s) = 3.07033 3.54042 3.31372
# Velocity P-wave (km/s) = 7.10297 8.00897 7.56954
#
# Compressibility (1/GPa) = 0.01462161
#
# Stress axis : x y z
#
# Youngs Moduli (GPa) = 73.98163 73.98163 71.16712
#
# Poissons Ratio (x) = 0.68063 0.14346
# Poissons Ratio (y) = 0.68063 0.14346
# Poissons Ratio (z) = 0.14914 0.14914
#
# Static dielectric constant tensor:
#      x y z
#    x 1.596550 0.000000 0.000000 
#    y 0.000000 1.596550 0.000000 
#    z 0.000000 0.000000 1.670190 
# 
# From -- ./inp_files/1099.got.cif
#   From: 2010.05.17/outbox.cif.g08.bks.cpg/sg191_1_cif.got.tgz:1099.got - 2010.05.20 12:20:32.
