data_PCOD9587484
_publ_section_title
;
Structure prediction by ZEFSAII (Michael W. Deem and Ramdas Pophale) SiO2 
 PCOD9587484
Probable space group: P 6/M M M
;
_chemical_formula_sum "Si O2"
_cell_formula_units_Z 132
_cell_length_a 18.120382
_cell_length_b 18.120382
_cell_length_c 28.773992
_cell_angle_alpha 90.000000
_cell_angle_beta 90.000000
_cell_angle_gamma 120.000000
_cell_volume 8182.112528
_symmetry_space_group_name_H-M "P 6/M M M"
_symmetry_group_IT_number 191
_symmetry_cell_setting 'hexagonal'
loop_
_space_group_symop_operation_xyz
x,y,z
x-y,x,z
-y,x-y,z
-x,-y,z
-x+y,-x,z
y,-x+y,z
x-y,-y,-z
-x,-x+y,-z
y,x,-z
-y,-x,-z
-x+y,y,-z
x,x-y,-z
-x,-y,-z
-x+y,-x,-z
y,-x+y,-z
x,y,-z
x-y,x,-z
-y,x-y,-z
-x+y,y,z
x,x-y,z
-y,-x,z
y,x,z
x-y,-y,z
-x,-x+y,z
loop_
_atom_site_type_symbol
_atom_site_label
_atom_site_fract_x
_atom_site_fract_y
_atom_site_fract_z
Si Si1 0.331302 0.836402 0.260351
Si Si2 0.840593 0.332374 0.089185
Si Si3 0.902612 0.269785 0.176548
Si Si4 0.897518 0.364466 0.362677
Si Si5 0.629472 0.728180 0.000000
Si Si6 0.738745 0.098675 0.552350
O O1 0.426809 0.853618 0.254183
O O2 0.262566 0.737435 0.251927
O O3 0.308001 0.888625 0.224200
O O4 0.322148 0.859070 0.313335
O O5 0.850840 0.425420 0.088068
O O6 0.740823 0.259177 0.088873
O O7 0.881339 0.316047 0.134944
O O8 0.882825 0.313398 0.044930
O O9 0.829861 0.170140 0.174418
O O10 0.000000 0.292641 0.172752
O O11 0.870740 0.435370 0.371072
O O12 0.876031 0.304511 0.407009
O O13 0.000000 0.414412 0.357873
O O14 0.703445 0.703445 0.000000
O O15 0.657409 0.828705 0.000000
O O16 0.711777 0.108320 0.500000
O O17 0.839154 0.160847 0.555241
O O18 0.708489 0.000000 0.558326
#
# Coordination Sequence:
#
# PCOD9587484 Si02
#       6
#    24  24  24  24  12  24
#     4  10  19  30  45  66  94 126 157 187 219 258
#     4  10  20  33  50  73 102 134 165 195 228 269
#     4  10  21  35  51  71  94 122 155 193 236 278
#     4   9  17  28  43  64  88 115 149 187 223 260
#     4  10  21  35  51  72  97 127 162 202 247 289
#     4   9  17  29  45  64  86 113 146 184 225 269
#
# _framework density 16.132752
#
# number of rings (size 3 to 8) (size 9 to 14) (size 15 to 20)
#    0.000    2.364    0.000    2.818    0.000    4.000 
#    0.000    4.545    0.000    0.818    0.000    1.273 
#    0.000    4.364    0.000    5.818    0.000    4.364 
#
# Total GULP energy -735791.375565 kJ/mol
# GULP energy per Si atom -5574.177088 kJ/mol
# Density = 1.609603 g / cm^3
# Si number density = 16.132752 Si / 1000 Ang^3
#
#
#
# Elastic Constant Matrix: (Units=GPa)
#
#
# Indices 1 2 3 4 5 6 
#
# 1 86.1325 61.9716 47.6325 0.0000 0.0000 0.0000
# 2 61.9716 86.1325 47.6325 0.0000 0.0000 0.0000
# 3 47.6325 47.6325 106.0899 0.0000 0.0000 0.0000
# 4 0.0000 0.0000 0.0000 19.4236 0.0000 0.0000
# 5 0.0000 0.0000 0.0000 0.0000 19.4236 0.0000
# 6 0.0000 0.0000 0.0000 0.0000 0.0000 12.0804
#
#
#
# Elastic Compliance Matrix: (Units=1/GPa)
#
#
# Indices 1 2 3 4 5 6 
#
# 1 0.025441 -0.015948 -0.004263 0.000000 0.000000 0.000000
# 2 -0.015948 0.025441 -0.004263 0.000000 0.000000 0.000000
# 3 -0.004263 -0.004263 0.013254 0.000000 0.000000 0.000000
# 4 0.000000 0.000000 0.000000 0.051484 0.000000 0.000000
# 5 0.000000 0.000000 0.000000 0.000000 0.051484 0.000000
# 6 0.000000 0.000000 0.000000 0.000000 0.000000 0.082778
#
#
# Mechanical properties :
#
#
# Convention : Reuss Voigt Hill
#
# Bulk Modulus (GPa) = 65.82850 65.86982 65.84916
# Shear Modulus (GPa) = 16.45322 18.26007 17.35665
#
# Velocity S-wave (km/s) = 3.19700 3.36797 3.28360
# Velocity P-wave (km/s) = 7.38380 7.48617 7.43516
#
# Compressibility (1/GPa) = 0.01519099
#
# Stress axis : x y z
#
# Youngs Moduli (GPa) = 39.30586 39.30586 75.45116
#
# Poissons Ratio (x) = 0.62684 0.32162
# Poissons Ratio (y) = 0.62684 0.32162
# Poissons Ratio (z) = 0.16754 0.16754
#
# Static dielectric constant tensor:
#      x y z
#    x 1.529690 0.000000 0.000000 
#    y 0.000000 1.529690 0.000000 
#    z 0.000000 0.000000 1.554410 
# 
# From -- ./inp_files/8689.got.cif
#   From: 2010.05.17/outbox.cif.g08.bks.cpg/sg191_5_cif.got.tgz:8689.got - 2010.05.20 12:20:32.
