data_PCOD9587640
_publ_section_title
;
Structure prediction by ZEFSAII (Michael W. Deem and Ramdas Pophale) SiO2 
 PCOD9587640
Probable space group: P 6/M M M
;
_chemical_formula_sum "Si O2"
_cell_formula_units_Z 84
_cell_length_a 17.713729
_cell_length_b 17.713729
_cell_length_c 19.667172
_cell_angle_alpha 90.000000
_cell_angle_beta 90.000000
_cell_angle_gamma 120.000000
_cell_volume 5344.321054
_symmetry_space_group_name_H-M "P 6/M M M"
_symmetry_group_IT_number 191
_symmetry_cell_setting 'hexagonal'
loop_
_space_group_symop_operation_xyz
x,y,z
x-y,x,z
-y,x-y,z
-x,-y,z
-x+y,-x,z
y,-x+y,z
x-y,-y,-z
-x,-x+y,-z
y,x,-z
-y,-x,-z
-x+y,y,-z
x,x-y,-z
-x,-y,-z
-x+y,-x,-z
y,-x+y,-z
x,y,-z
x-y,x,-z
-y,x-y,-z
-x+y,y,z
x,x-y,z
-y,-x,z
y,x,z
x-y,-y,z
-x,-x+y,z
loop_
_atom_site_type_symbol
_atom_site_label
_atom_site_fract_x
_atom_site_fract_y
_atom_site_fract_z
Si Si1 0.353348 0.353348 0.102409
Si Si2 0.489257 0.159756 0.350652
Si Si3 0.483188 0.149084 0.000000
Si Si4 0.899988 0.541647 0.500000
Si Si5 0.408788 0.000000 0.256161
Si Si6 0.000000 0.825934 0.917804
O O1 0.341540 0.427873 0.063377
O O2 0.378852 0.378852 0.180109
O O3 0.262541 0.262541 0.099042
O O4 0.581036 0.162071 0.350636
O O5 0.501819 0.250910 0.327928
O O6 0.456151 0.141460 0.428550
O O7 0.426878 0.083626 0.300047
O O8 0.581267 0.162534 0.000000
O O9 0.483558 0.241779 0.000000
O O10 0.898646 0.449323 0.500000
O O11 0.000000 0.615783 0.500000
O O12 0.500000 0.000000 0.253439
O O13 0.912330 0.824659 0.894084
O O14 0.000000 0.829915 0.000000
#
# Coordination Sequence:
#
# PCOD9587640 Si02
#       6
#    12  24  12  12  12  12
#     4  11  21  36  57  76 101 134 175 210 248 312
#     4  10  19  31  49  72  99 131 169 209 249 293
#     4  11  22  37  56  78 102 131 170 217 264 306
#     4   9  15  28  48  69  96 128 165 204 247 293
#     4  10  21  36  50  69  99 136 169 205 252 296
#     4  10  19  33  54  81 106 126 152 195 250 305
#
# _framework density 15.717618999999999
#
# number of rings (size 3 to 8) (size 9 to 14) (size 15 to 20)
#    0.000    1.857    2.857    3.571    0.000    2.857 
#    0.000    1.429    0.000    3.429    0.000    0.000 
#    0.000    0.000    0.000    0.000    0.000    1.857 
#
# Total GULP energy -468124.578122 kJ/mol
# GULP energy per Si atom -5572.911644 kJ/mol
# Density = 1.568185 g / cm^3
# Si number density = 15.717619 Si / 1000 Ang^3
#
#
#
# Elastic Constant Matrix: (Units=GPa)
#
#
# Indices 1 2 3 4 5 6 
#
# 1 124.1014 31.9588 48.0419 0.0000 0.0000 0.0000
# 2 31.9588 124.1014 48.0419 0.0000 0.0000 0.0000
# 3 48.0419 48.0419 125.8576 0.0000 0.0000 0.0000
# 4 0.0000 0.0000 0.0000 367.2942 0.0000 0.0000
# 5 0.0000 0.0000 0.0000 0.0000 367.2942 0.0000
# 6 0.0000 0.0000 0.0000 0.0000 0.0000 46.0713
#
#
#
# Elastic Compliance Matrix: (Units=1/GPa)
#
#
# Indices 1 2 3 4 5 6 
#
# 1 0.009615 -0.001238 -0.003197 0.000000 0.000000 0.000000
# 2 -0.001238 0.009615 -0.003197 0.000000 0.000000 0.000000
# 3 -0.003197 -0.003197 0.010386 0.000000 0.000000 0.000000
# 4 0.000000 0.000000 0.000000 0.002723 0.000000 0.000000
# 5 0.000000 0.000000 0.000000 0.000000 0.002723 0.000000
# 6 0.000000 0.000000 0.000000 0.000000 0.000000 0.021705
#
#
# Mechanical properties :
#
#
# Convention : Reuss Voigt Hill
#
# Bulk Modulus (GPa) = 69.68817 70.01618 69.85218
# Shear Modulus (GPa) = 65.09101 172.53313 118.81207
#
# Velocity S-wave (km/s) = 6.44226 10.48851 8.70378
# Velocity P-wave (km/s) = 9.98853 13.83190 12.06425
#
# Compressibility (1/GPa) = 0.01434964
#
# Stress axis : x y z
#
# Youngs Moduli (GPa) = 104.00890 104.00890 96.27891
#
# Poissons Ratio (x) = 0.12878 0.30784
# Poissons Ratio (y) = 0.12878 0.30784
# Poissons Ratio (z) = 0.33256 0.33256
#
# Static dielectric constant tensor:
#      x y z
#    x 1.517350 0.000000 0.000000 
#    y 0.000000 1.517350 0.000000 
#    z 0.000000 0.000000 1.519990 
# 
# From -- ./inp_files/4045.got.cif
#   From: 2010.05.17/outbox.cif.g08.bks.cpg/sg191_3_cif.got.tgz:4045.got - 2010.05.20 12:20:32.
