data_PCOD9587182
_publ_section_title
;
Structure prediction by ZEFSAII (Michael W. Deem and Ramdas Pophale) SiO2 
 PCOD9587182
Probable space group: P 6/M M M
;
_chemical_formula_sum "Si O2"
_cell_formula_units_Z 132
_cell_length_a 26.004687
_cell_length_b 26.004687
_cell_length_c 14.402708
_cell_angle_alpha 90.000000
_cell_angle_beta 90.000000
_cell_angle_gamma 120.000000
_cell_volume 8434.863314
_symmetry_space_group_name_H-M "P 6/M M M"
_symmetry_group_IT_number 191
_symmetry_cell_setting 'hexagonal'
loop_
_space_group_symop_operation_xyz
x,y,z
x-y,x,z
-y,x-y,z
-x,-y,z
-x+y,-x,z
y,-x+y,z
x-y,-y,-z
-x,-x+y,-z
y,x,-z
-y,-x,-z
-x+y,y,-z
x,x-y,-z
-x,-y,-z
-x+y,-x,-z
y,-x+y,-z
x,y,-z
x-y,x,-z
-y,x-y,-z
-x+y,y,z
x,x-y,z
-y,-x,z
y,x,z
x-y,-y,z
-x,-x+y,z
loop_
_atom_site_type_symbol
_atom_site_label
_atom_site_fract_x
_atom_site_fract_y
_atom_site_fract_z
Si Si1 0.622066 0.000000 0.893436
Si Si2 0.119719 0.669518 0.610992
Si Si3 0.874113 0.125888 0.613018
Si Si4 0.665704 0.454040 0.269197
Si Si5 0.500816 0.377113 0.106118
Si Si6 0.229543 0.229543 0.387375
Si Si7 0.000000 0.346081 0.307201
Si Si8 0.807024 0.614047 0.611757
O O1 0.618619 0.060147 0.882974
O O2 0.658988 0.000000 0.804291
O O3 0.642505 0.000000 0.000000
O O4 0.112397 0.662724 0.500000
O O5 0.161795 0.645926 0.650193
O O6 0.158313 0.738939 0.637179
O O7 0.056748 0.649394 0.658310
O O8 0.874565 0.125435 0.500000
O O9 0.941843 0.168467 0.641316
O O10 0.840271 0.159730 0.646757
O O11 0.729216 0.458432 0.284622
O O12 0.614342 0.385658 0.258653
O O13 0.664552 0.490122 0.178263
O O14 0.557265 0.442736 0.119974
O O15 0.502225 0.358981 0.000000
O O16 0.234140 0.234140 0.500000
O O17 0.288593 0.288593 0.351165
O O18 0.808687 0.617373 0.500000
#
# Coordination Sequence:
#
# PCOD9587182 Si02
#       8
#    12  24  12  24  24  12  12  12
#     4  10  19  32  52  79 105 127 155 188 235 310
#     4  11  21  34  51  75 103 133 169 207 249 299
#     4   9  16  26  42  69 102 135 172 216 254 286
#     4  11  23  38  55  74  97 130 172 216 260 306
#     4   9  18  34  55  76  98 124 156 199 251 303
#     4  10  18  28  45  72 106 139 175 215 250 291
#     4  12  20  31  52  80 104 133 160 200 254 302
#     4   9  16  28  48  70  97 132 167 206 249 288
#
# _framework density 15.649335000000001
#
# number of rings (size 3 to 8) (size 9 to 14) (size 15 to 20)
#    0.000    1.818    4.545    1.273    0.000    1.818 
#    0.000    0.455    0.000    3.455    0.000    1.273 
#    0.000    0.000    0.000    0.000    0.000    0.000 
#
# Total GULP energy -734963.551081 kJ/mol
# GULP energy per Si atom -5567.905690 kJ/mol
# Density = 1.561372 g / cm^3
# Si number density = 15.649335 Si / 1000 Ang^3
#
#
#
# Elastic Constant Matrix: (Units=GPa)
#
#
# Indices 1 2 3 4 5 6 
#
# 1 69.7153 39.6086 25.7694 0.0000 0.0000 0.0000
# 2 39.6086 69.7153 25.7694 0.0000 0.0000 0.0000
# 3 25.7694 25.7694 78.1779 0.0000 0.0000 0.0000
# 4 0.0000 0.0000 0.0000 16.8786 0.0000 0.0000
# 5 0.0000 0.0000 0.0000 0.0000 16.8786 0.0000
# 6 0.0000 0.0000 0.0000 0.0000 0.0000 15.0533
#
#
#
# Elastic Compliance Matrix: (Units=1/GPa)
#
#
# Indices 1 2 3 4 5 6 
#
# 1 0.022023 -0.011193 -0.003570 0.000000 0.000000 0.000000
# 2 -0.011193 0.022023 -0.003570 0.000000 0.000000 0.000000
# 3 -0.003570 -0.003570 0.015145 0.000000 0.000000 0.000000
# 4 0.000000 0.000000 0.000000 0.059247 0.000000 0.000000
# 5 0.000000 0.000000 0.000000 0.000000 0.059247 0.000000
# 6 0.000000 0.000000 0.000000 0.000000 0.000000 0.066430
#
#
# Mechanical properties :
#
#
# Convention : Reuss Voigt Hill
#
# Bulk Modulus (GPa) = 44.39417 44.43368 44.41392
# Shear Modulus (GPa) = 17.34384 18.19285 17.76834
#
# Velocity S-wave (km/s) = 3.33269 3.41329 3.37323
# Velocity P-wave (km/s) = 6.57562 6.63242 6.60408
#
# Compressibility (1/GPa) = 0.02252548
#
# Stress axis : x y z
#
# Youngs Moduli (GPa) = 45.40782 45.40782 66.02939
#
# Poissons Ratio (x) = 0.50823 0.23572
# Poissons Ratio (y) = 0.50823 0.23572
# Poissons Ratio (z) = 0.16210 0.16210
#
# Static dielectric constant tensor:
#      x y z
#    x 1.532660 0.000000 0.000000 
#    y 0.000000 1.532660 0.000000 
#    z 0.000000 0.000000 1.543160 
# 
# From -- ./inp_files/5048.got.cif
#   From: 2010.05.17/outbox.cif.g08.bks.cpg/sg191_3_cif.got.tgz:5048.got - 2010.05.20 12:20:32.
