data_PCOD9587103
_publ_section_title
;
Structure prediction by ZEFSAII (Michael W. Deem and Ramdas Pophale) SiO2 
 PCOD9587103
Probable space group: P 6/M M M
;
_chemical_formula_sum "Si O2"
_cell_formula_units_Z 132
_cell_length_a 18.016824
_cell_length_b 18.016824
_cell_length_c 29.086200
_cell_angle_alpha 90.000000
_cell_angle_beta 90.000000
_cell_angle_gamma 120.000000
_cell_volume 8176.625180
_symmetry_space_group_name_H-M "P 6/M M M"
_symmetry_group_IT_number 191
_symmetry_cell_setting 'hexagonal'
loop_
_space_group_symop_operation_xyz
x,y,z
x-y,x,z
-y,x-y,z
-x,-y,z
-x+y,-x,z
y,-x+y,z
x-y,-y,-z
-x,-x+y,-z
y,x,-z
-y,-x,-z
-x+y,y,-z
x,x-y,-z
-x,-y,-z
-x+y,-x,-z
y,-x+y,-z
x,y,-z
x-y,x,-z
-y,x-y,-z
-x+y,y,z
x,x-y,z
-y,-x,z
y,x,z
x-y,-y,z
-x,-x+y,z
loop_
_atom_site_type_symbol
_atom_site_label
_atom_site_fract_x
_atom_site_fract_y
_atom_site_fract_z
Si Si1 0.363789 0.466325 0.402635
Si Si2 0.368868 0.268670 0.313061
Si Si3 0.899994 0.632935 0.860756
Si Si4 0.103853 0.467530 0.948373
Si Si5 0.497891 0.330646 0.500000
Si Si6 0.332741 0.490718 0.225601
O O1 0.432012 0.567989 0.396950
O O2 0.419580 0.419580 0.404406
O O3 0.302518 0.425931 0.359256
O O4 0.317180 0.450351 0.451696
O O5 0.335793 0.167897 0.308028
O O6 0.297483 0.297483 0.314809
O O7 0.431813 0.316189 0.270267
O O8 0.833363 0.666725 0.853902
O O9 0.875342 0.578074 0.907757
O O10 0.884697 0.567683 0.819184
O O11 0.000000 0.704072 0.862373
O O12 0.133717 0.566859 0.938908
O O13 0.000000 0.418264 0.949288
O O14 0.132136 0.460794 0.000000
O O15 0.570246 0.429755 0.500000
O O16 0.537348 0.268674 0.500000
O O17 0.257600 0.515199 0.225453
O O18 0.425571 0.574430 0.225895
#
# Coordination Sequence:
#
# PCOD9587103 Si02
#       6
#    24  24  24  24  12  24
#     4   9  17  29  45  64  86 114 148 185 225 269
#     4  10  20  33  49  69  92 119 152 190 230 270
#     4  10  20  32  47  68  93 122 157 197 238 277
#     4   8  14  26  45  68  92 117 146 181 222 271
#     4  10  18  27  39  57  84 117 151 183 215 254
#     4  10  20  33  50  73 100 127 152 180 217 263
#
# _framework density 16.143578999999999
#
# number of rings (size 3 to 8) (size 9 to 14) (size 15 to 20)
#    0.000    2.545    0.000    3.273    0.000    4.364 
#    0.000    0.000    0.000    6.545    0.000    0.000 
#    0.000    4.364    0.000    4.545    0.000   18.909 
#
# Total GULP energy -735411.012144 kJ/mol
# GULP energy per Si atom -5571.295547 kJ/mol
# Density = 1.610684 g / cm^3
# Si number density = 16.143579 Si / 1000 Ang^3
#
#
#
# Elastic Constant Matrix: (Units=GPa)
#
#
# Indices 1 2 3 4 5 6 
#
# 1 74.8311 53.5723 38.6521 0.0000 0.0000 0.0000
# 2 53.5723 74.8311 38.6521 0.0000 0.0000 0.0000
# 3 38.6521 38.6521 120.2278 0.0000 0.0000 0.0000
# 4 0.0000 0.0000 0.0000 4.9773 0.0000 0.0000
# 5 0.0000 0.0000 0.0000 0.0000 4.9773 0.0000
# 6 0.0000 0.0000 0.0000 0.0000 0.0000 10.6294
#
#
#
# Elastic Compliance Matrix: (Units=1/GPa)
#
#
# Indices 1 2 3 4 5 6 
#
# 1 0.028348 -0.018691 -0.003105 0.000000 0.000000 0.000000
# 2 -0.018691 0.028348 -0.003105 0.000000 0.000000 0.000000
# 3 -0.003105 -0.003105 0.010314 0.000000 0.000000 0.000000
# 4 0.000000 0.000000 0.000000 0.200911 0.000000 0.000000
# 5 0.000000 0.000000 0.000000 0.000000 0.200911 0.000000
# 6 0.000000 0.000000 0.000000 0.000000 0.000000 0.094078
#
#
# Mechanical properties :
#
#
# Convention : Reuss Voigt Hill
#
# Bulk Modulus (GPa) = 58.10807 59.07144 58.58976
# Shear Modulus (GPa) = 8.08476 13.38439 10.73458
#
# Velocity S-wave (km/s) = 2.24029 2.88251 2.58145
# Velocity P-wave (km/s) = 6.53946 6.91008 6.72732
#
# Compressibility (1/GPa) = 0.01720931
#
# Stress axis : x y z
#
# Youngs Moduli (GPa) = 35.27566 35.27566 96.95765
#
# Poissons Ratio (x) = 0.65934 0.30102
# Poissons Ratio (y) = 0.65934 0.30102
# Poissons Ratio (z) = 0.10952 0.10952
#
# Static dielectric constant tensor:
#      x y z
#    x 1.529320 0.000000 0.000000 
#    y 0.000000 1.529320 0.000000 
#    z 0.000000 0.000000 1.564610 
# 
# From -- ./inp_files/9718.got.cif
#   From: 2010.05.17/outbox.cif.g08.bks.cpg/sg191_5_cif.got.tgz:9718.got - 2010.05.20 12:20:32.
