data_PCOD9587689
_publ_section_title
;
Structure prediction by ZEFSAII (Michael W. Deem and Ramdas Pophale) SiO2 
 PCOD9587689
Probable space group: P 6/M M M
;
_chemical_formula_sum "Si O2"
_cell_formula_units_Z 192
_cell_length_a 30.747340
_cell_length_b 30.747340
_cell_length_c 15.567627
_cell_angle_alpha 90.000000
_cell_angle_beta 90.000000
_cell_angle_gamma 120.000000
_cell_volume 12745.830818
_symmetry_space_group_name_H-M "P 6/M M M"
_symmetry_group_IT_number 191
_symmetry_cell_setting 'hexagonal'
loop_
_space_group_symop_operation_xyz
x,y,z
x-y,x,z
-y,x-y,z
-x,-y,z
-x+y,-x,z
y,-x+y,z
x-y,-y,-z
-x,-x+y,-z
y,x,-z
-y,-x,-z
-x+y,y,-z
x,x-y,-z
-x,-y,-z
-x+y,-x,-z
y,-x+y,-z
x,y,-z
x-y,x,-z
-y,x-y,-z
-x+y,y,z
x,x-y,z
-y,-x,z
y,x,z
x-y,-y,z
-x,-x+y,z
loop_
_atom_site_type_symbol
_atom_site_label
_atom_site_fract_x
_atom_site_fract_y
_atom_site_fract_z
Si Si1 0.130006 0.470861 0.097249
Si Si2 0.866825 0.235918 0.100397
Si Si3 0.233395 0.566525 0.145844
Si Si4 0.766605 0.433475 0.354124
Si Si5 0.130007 0.659141 0.597253
Si Si6 0.436324 0.379262 0.250000
Si Si7 0.330759 0.057378 0.749998
Si Si8 0.133178 0.764081 0.600397
O O1 0.141071 0.424977 0.111527
O O2 0.181472 0.522354 0.110111
O O3 0.088871 0.464800 0.166301
O O4 0.111633 0.466633 0.000000
O O5 0.815254 0.184747 0.119240
O O6 0.910757 0.244759 0.165816
O O7 0.879639 0.235135 0.000000
O O8 0.280535 0.561069 0.117971
O O9 0.241071 0.620536 0.121790
O O10 0.230792 0.563141 0.249984
O O11 0.719467 0.438934 0.381997
O O12 0.758926 0.379463 0.378177
O O13 0.818528 0.477643 0.389865
O O14 0.111643 0.644997 0.500000
O O15 0.088867 0.624068 0.666297
O O16 0.141071 0.716091 0.611526
O O17 0.423812 0.423812 0.249995
O O18 0.382492 0.327323 0.250000
O O19 0.334005 0.089246 0.665814
O O20 0.286271 0.000000 0.749995
O O21 0.120367 0.764866 0.500000
O O22 0.184750 0.815251 0.619245
#
# Coordination Sequence:
#
# PCOD9587689 Si02
#       8
#    24  24  24  24  24  24  24  24
#     4  10  19  32  51  73  95 119 147 180 218 261
#     4   9  17  28  43  64  88 114 145 180 218 260
#     4  10  20  34  52  73  97 123 149 178 215 262
#     4  10  20  34  52  73  97 123 149 178 215 262
#     4  10  19  32  51  73  95 119 147 180 218 261
#     4   9  18  33  50  71  95 118 146 178 217 261
#     4   9  17  27  41  62  87 115 144 176 218 264
#     4   9  17  28  43  64  88 114 145 180 218 260
#
# _framework density 15.063749
#
# number of rings (size 3 to 8) (size 9 to 14) (size 15 to 20)
#    0.000    2.500    1.250    1.375    0.000    4.000 
#    0.000    5.000    0.000    3.000    0.000    1.750 
#    0.000    0.000    0.000    0.000    0.000    0.000 
#
# Total GULP energy -1070883.038261 kJ/mol
# GULP energy per Si atom -5577.515824 kJ/mol
# Density = 1.502946 g / cm^3
# Si number density = 15.063749 Si / 1000 Ang^3
#
#
#
# Elastic Constant Matrix: (Units=GPa)
#
#
# Indices 1 2 3 4 5 6 
#
# 1 50.0573 45.6354 40.1238 0.0000 0.0000 0.0000
# 2 45.6354 50.0573 40.1238 0.0000 0.0000 0.0000
# 3 40.1238 40.1238 75.2357 0.0000 0.0000 0.0000
# 4 0.0000 0.0000 0.0000 9.0954 0.0000 0.0000
# 5 0.0000 0.0000 0.0000 0.0000 9.0954 0.0000
# 6 0.0000 0.0000 0.0000 0.0000 0.0000 2.2110
#
#
#
# Elastic Compliance Matrix: (Units=1/GPa)
#
#
# Indices 1 2 3 4 5 6 
#
# 1 0.122525 -0.103620 -0.010082 0.000000 0.000000 0.000000
# 2 -0.103620 0.122525 -0.010082 0.000000 0.000000 0.000000
# 3 -0.010082 -0.010082 0.024045 0.000000 0.000000 0.000000
# 4 0.000000 0.000000 0.000000 0.109946 0.000000 0.000000
# 5 0.000000 0.000000 0.000000 0.000000 0.109946 0.000000
# 6 0.000000 0.000000 0.000000 0.000000 0.000000 0.452290
#
#
# Mechanical properties :
#
#
# Convention : Reuss Voigt Hill
#
# Bulk Modulus (GPa) = 46.45406 47.45737 46.95571
# Shear Modulus (GPa) = 4.18052 7.37817 5.77935
#
# Velocity S-wave (km/s) = 1.66771 2.21553 1.96085
# Velocity P-wave (km/s) = 5.88333 6.17394 6.03039
#
# Compressibility (1/GPa) = 0.02152664
#
# Stress axis : x y z
#
# Youngs Moduli (GPa) = 8.16160 8.16160 41.58800
#
# Poissons Ratio (x) = 0.84570 0.41930
# Poissons Ratio (y) = 0.84570 0.41930
# Poissons Ratio (z) = 0.08229 0.08229
#
# Static dielectric constant tensor:
#      x y z
#    x 1.474990 0.000000 0.000000 
#    y 0.000000 1.474990 0.000000 
#    z 0.000000 0.000000 1.535060 
# 
# From -- ./inp_files/5547.got.cif
#   From: 2010.05.17/outbox.cif.g08.bks.cpg/sg191_3_cif.got.tgz:5547.got - 2010.05.20 12:20:32.
