data_PCOD9587708
_publ_section_title
;
Structure prediction by ZEFSAII (Michael W. Deem and Ramdas Pophale) SiO2 
 PCOD9587708
Probable space group: P 6/M M M
;
_chemical_formula_sum "Si O2"
_cell_formula_units_Z 150
_cell_length_a 27.705985
_cell_length_b 27.705985
_cell_length_c 14.136731
_cell_angle_alpha 90.000000
_cell_angle_beta 90.000000
_cell_angle_gamma 120.000000
_cell_volume 9397.813352
_symmetry_space_group_name_H-M "P 6/M M M"
_symmetry_group_IT_number 191
_symmetry_cell_setting 'hexagonal'
loop_
_space_group_symop_operation_xyz
x,y,z
x-y,x,z
-y,x-y,z
-x,-y,z
-x+y,-x,z
y,-x+y,z
x-y,-y,-z
-x,-x+y,-z
y,x,-z
-y,-x,-z
-x+y,y,-z
x,x-y,-z
-x,-y,-z
-x+y,-x,-z
y,-x+y,-z
x,y,-z
x-y,x,-z
-y,x-y,-z
-x+y,y,z
x,x-y,z
-y,-x,z
y,x,z
x-y,-y,z
-x,-x+y,z
loop_
_atom_site_type_symbol
_atom_site_label
_atom_site_fract_x
_atom_site_fract_y
_atom_site_fract_z
Si Si1 0.067196 0.304316 0.895545
Si Si2 0.067921 0.479161 0.283015
Si Si3 0.680319 0.067264 0.393891
Si Si4 0.116019 0.000000 0.000000
Si Si5 0.000000 0.116500 0.211883
Si Si6 0.349572 0.417186 0.104160
Si Si7 0.190466 0.190466 0.610382
Si Si8 0.696526 0.902276 0.690736
O O1 0.084595 0.369577 0.887981
O O2 0.087797 0.288303 0.801926
O O3 0.000000 0.270044 0.892570
O O4 0.084326 0.295040 0.000000
O O5 0.087571 0.543786 0.293465
O O6 0.084137 0.449026 0.363353
O O7 0.086197 0.462239 0.186183
O O8 0.000000 0.446950 0.282167
O O9 0.700130 0.084907 0.500000
O O10 0.732990 0.087981 0.326672
O O11 0.648243 0.000000 0.389306
O O12 0.110508 0.055254 0.000000
O O13 0.140813 0.000000 0.105145
O O14 0.055879 0.111757 0.216173
O O15 0.000000 0.150999 0.304501
O O16 0.382416 0.382416 0.108654
O O17 0.358938 0.442648 0.000000
O O18 0.173635 0.173635 0.500000
O O19 0.197556 0.250980 0.630044
O O20 0.682084 0.841042 0.663811
#
# Coordination Sequence:
#
# PCOD9587708 Si02
#       8
#    24  24  24   6  12  24  12  24
#     4   9  16  31  53  72  94 126 161 201 250 301
#     4   9  16  25  41  66  94 123 156 190 224 265
#     4  10  19  33  50  65  90 125 160 201 242 282
#     4   8  15  32  60  88 108 124 146 176 227 302
#     4  10  21  40  64  86 106 127 150 187 243 312
#     4   8  13  22  40  63  89 122 156 187 222 267
#     4  12  26  43  57  73 101 130 161 210 258 304
#     4  12  23  36  55  75  94 125 169 208 253 308
#
# _framework density 15.961159
#
# number of rings (size 3 to 8) (size 9 to 14) (size 15 to 20)
#    0.000    2.240    3.200    2.040    0.000    3.840 
#    1.440    3.200    0.000    0.480    0.000    0.000 
#    0.000    0.000    0.000    0.480    0.000    2.080 
#
# Total GULP energy -835542.409997 kJ/mol
# GULP energy per Si atom -5570.282733 kJ/mol
# Density = 1.592483 g / cm^3
# Si number density = 15.961159 Si / 1000 Ang^3
#
#
#
# Elastic Constant Matrix: (Units=GPa)
#
#
# Indices 1 2 3 4 5 6 
#
# 1 18.4786 22.1927 18.1742 0.0000 0.0000 0.0000
# 2 22.1927 18.4786 18.1742 0.0000 0.0000 0.0000
# 3 18.1742 18.1742 112.2990 0.0000 0.0000 0.0000
# 4 0.0000 0.0000 0.0000 7.7303 0.0000 0.0000
# 5 0.0000 0.0000 0.0000 0.0000 7.7303 0.0000
# 6 0.0000 0.0000 0.0000 0.0000 0.0000 -1.8570
#
#
#
# Elastic Compliance Matrix: (Units=1/GPa)
#
#
# Indices 1 2 3 4 5 6 
#
# 1 -0.120252 0.148997 -0.004652 0.000000 0.000000 0.000000
# 2 0.148997 -0.120252 -0.004652 0.000000 0.000000 0.000000
# 3 -0.004652 -0.004652 0.010411 0.000000 0.000000 0.000000
# 4 0.000000 0.000000 0.000000 0.129362 0.000000 0.000000
# 5 0.000000 0.000000 0.000000 0.000000 0.129362 0.000000
# 6 0.000000 0.000000 0.000000 0.000000 0.000000 -0.538497
#
#
# Mechanical properties :
#
#
# Convention : Reuss Voigt Hill
#
# Bulk Modulus (GPa) = 20.28714 29.59317 24.94016
# Shear Modulus (GPa) = -6.46981 8.76838 1.14928
#
# Velocity S-wave (km/s) = -2.01551 2.34638 0.84948
# Velocity P-wave (km/s) = 2.70584 5.09133 4.07696
#
# Compressibility (1/GPa) = 0.04929231
#
# Stress axis : x y z
#
# Youngs Moduli (GPa) = -8.31589 -8.31589 96.05643
#
# Poissons Ratio (x) = 1.23904 0.44686
# Poissons Ratio (y) = 1.23904 0.44686
# Poissons Ratio (z) = -0.03869 -0.03869
#
# Static dielectric constant tensor:
#      x y z
#    x 1.524940 0.000000 0.000000 
#    y 0.000000 1.524940 0.000000 
#    z 0.000000 0.000000 1.599250 
# 
# From -- ./inp_files/5299.got.cif
#   From: 2010.05.17/outbox.cif.g08.bks.cpg/sg191_3_cif.got.tgz:5299.got - 2010.05.20 12:20:32.
