data_PCOD9587486
_publ_section_title
;
Structure prediction by ZEFSAII (Michael W. Deem and Ramdas Pophale) SiO2 
 PCOD9587486
Probable space group: P 6/M M M
;
_chemical_formula_sum "Si O2"
_cell_formula_units_Z 108
_cell_length_a 18.176844
_cell_length_b 18.176844
_cell_length_c 24.139420
_cell_angle_alpha 90.000000
_cell_angle_beta 90.000000
_cell_angle_gamma 120.000000
_cell_volume 6907.078990
_symmetry_space_group_name_H-M "P 6/M M M"
_symmetry_group_IT_number 191
_symmetry_cell_setting 'hexagonal'
loop_
_space_group_symop_operation_xyz
x,y,z
x-y,x,z
-y,x-y,z
-x,-y,z
-x+y,-x,z
y,-x+y,z
x-y,-y,-z
-x,-x+y,-z
y,x,-z
-y,-x,-z
-x+y,y,-z
x,x-y,-z
-x,-y,-z
-x+y,-x,-z
y,-x+y,-z
x,y,-z
x-y,x,-z
-y,x-y,-z
-x+y,y,z
x,x-y,z
-y,-x,z
y,x,z
x-y,-y,z
-x,-x+y,z
loop_
_atom_site_type_symbol
_atom_site_label
_atom_site_fract_x
_atom_site_fract_y
_atom_site_fract_z
Si Si1 0.164243 0.495471 0.379752
Si Si2 0.157409 0.666196 0.059434
Si Si3 0.903193 0.540655 0.500000
Si Si4 0.666434 0.508882 0.181196
Si Si5 0.637131 0.732661 0.282071
O O1 0.262875 0.525750 0.369786
O O2 0.147798 0.573899 0.372971
O O3 0.141328 0.461470 0.442537
O O4 0.111790 0.421505 0.336020
O O5 0.173755 0.586878 0.060440
O O6 0.246551 0.753449 0.058192
O O7 0.119348 0.663560 0.119887
O O8 0.113513 0.660228 0.000000
O O9 0.904732 0.452366 0.500000
O O10 0.000000 0.615665 0.500000
O O11 0.744656 0.489312 0.181170
O O12 0.577628 0.422373 0.190786
O O13 0.687706 0.576825 0.229152
O O14 0.661641 0.830821 0.281204
O O15 0.713707 0.713707 0.281980
#
# Coordination Sequence:
#
# PCOD9587486 Si02
#       5
#    24  24  12  24  24
#     4  10  19  30  45  66  94 127 160 190 218 251
#     4   8  12  18  30  50  78 113 152 189 218 241
#     4   9  17  28  42  60  84 119 163 205 235 254
#     4   9  16  25  39  61  90 123 156 186 213 243
#     4  10  21  35  50  67  86 110 140 177 222 269
#
# _framework density 15.636132
#
# number of rings (size 3 to 8) (size 9 to 14) (size 15 to 20)
#    0.000    2.778    0.000    2.333    0.000    5.333 
#    0.000    3.333    0.000    0.889    0.000    3.111 
#    0.000    0.000    0.000    0.000    0.000   23.111 
#
# Total GULP energy -601251.464303 kJ/mol
# GULP energy per Si atom -5567.143188 kJ/mol
# Density = 1.560054 g / cm^3
# Si number density = 15.636132 Si / 1000 Ang^3
#
#
#
# Elastic Constant Matrix: (Units=GPa)
#
#
# Indices 1 2 3 4 5 6 
#
# 1 52.2563 42.2453 33.0724 0.0000 0.0000 0.0000
# 2 42.2453 52.2563 33.0724 0.0000 0.0000 0.0000
# 3 33.0724 33.0724 127.2141 0.0000 0.0000 0.0000
# 4 0.0000 0.0000 0.0000 3.6728 0.0000 0.0000
# 5 0.0000 0.0000 0.0000 0.0000 3.6728 0.0000
# 6 0.0000 0.0000 0.0000 0.0000 0.0000 5.0055
#
#
#
# Elastic Compliance Matrix: (Units=1/GPa)
#
#
# Indices 1 2 3 4 5 6 
#
# 1 0.056413 -0.043478 -0.003363 0.000000 0.000000 0.000000
# 2 -0.043478 0.056413 -0.003363 0.000000 0.000000 0.000000
# 3 -0.003363 -0.003363 0.009609 0.000000 0.000000 0.000000
# 4 0.000000 0.000000 0.000000 0.272275 0.000000 0.000000
# 5 0.000000 0.000000 0.000000 0.000000 0.272275 0.000000
# 6 0.000000 0.000000 0.000000 0.000000 0.000000 0.199781
#
#
# Mechanical properties :
#
#
# Convention : Reuss Voigt Hill
#
# Bulk Modulus (GPa) = 45.39494 49.83410 47.61452
# Shear Modulus (GPa) = 5.13075 10.69263 7.91169
#
# Velocity S-wave (km/s) = 1.81341 2.61787 2.25186
# Velocity P-wave (km/s) = 5.78617 6.40921 6.10564
#
# Compressibility (1/GPa) = 0.02202889
#
# Stress axis : x y z
#
# Youngs Moduli (GPa) = 17.72636 17.72636 104.06561
#
# Poissons Ratio (x) = 0.77070 0.34997
# Poissons Ratio (y) = 0.77070 0.34997
# Poissons Ratio (z) = 0.05961 0.05961
#
# Static dielectric constant tensor:
#      x y z
#    x 1.503700 0.000000 0.000000 
#    y 0.000000 1.503700 0.000000 
#    z 0.000000 0.000000 1.583630 
# 
# From -- ./inp_files/8356.got.cif
#   From: 2010.05.17/outbox.cif.g08.bks.cpg/sg191_5_cif.got.tgz:8356.got - 2010.05.20 12:20:32.
