data_PCOD9587515
_publ_section_title
;
Structure prediction by ZEFSAII (Michael W. Deem and Ramdas Pophale) SiO2 
 PCOD9587515
Probable space group: P 6/M M M
;
_chemical_formula_sum "Si O2"
_cell_formula_units_Z 132
_cell_length_a 18.243292
_cell_length_b 18.243292
_cell_length_c 28.113502
_cell_angle_alpha 90.000000
_cell_angle_beta 90.000000
_cell_angle_gamma 120.000000
_cell_volume 8103.114918
_symmetry_space_group_name_H-M "P 6/M M M"
_symmetry_group_IT_number 191
_symmetry_cell_setting 'hexagonal'
loop_
_space_group_symop_operation_xyz
x,y,z
x-y,x,z
-y,x-y,z
-x,-y,z
-x+y,-x,z
y,-x+y,z
x-y,-y,-z
-x,-x+y,-z
y,x,-z
-y,-x,-z
-x+y,y,-z
x,x-y,-z
-x,-y,-z
-x+y,-x,-z
y,-x+y,-z
x,y,-z
x-y,x,-z
-y,x-y,-z
-x+y,y,z
x,x-y,z
-y,-x,z
y,x,z
x-y,-y,z
-x,-x+y,z
loop_
_atom_site_type_symbol
_atom_site_label
_atom_site_fract_x
_atom_site_fract_y
_atom_site_fract_z
Si Si1 0.094141 0.358477 0.363971
Si Si2 0.492543 0.332595 0.000000
Si Si3 0.838309 0.333920 0.555508
Si Si4 0.733037 0.099238 0.911983
Si Si5 0.497257 0.165025 0.284318
Si Si6 0.633807 0.100999 0.178855
O O1 0.167074 0.334147 0.364295
O O2 0.109045 0.417728 0.409698
O O3 0.110441 0.418232 0.318312
O O4 0.000000 0.281514 0.363525
O O5 0.433272 0.315710 0.045866
O O6 0.575341 0.424660 0.000000
O O7 0.517107 0.258554 0.000000
O O8 0.861297 0.336038 0.500000
O O9 0.847357 0.423679 0.567950
O O10 0.740586 0.259415 0.560545
O O11 0.832424 0.167577 0.917484
O O12 0.699722 0.117848 0.862758
O O13 0.704654 0.000000 0.912938
O O14 0.574286 0.148572 0.293916
O O15 0.524754 0.262377 0.293806
O O16 0.473038 0.144779 0.229022
O O17 0.562493 0.124986 0.164254
O O18 0.583531 0.000000 0.187051
#
# Coordination Sequence:
#
# PCOD9587515 Si02
#       6
#    24  12  24  24  24  24
#     4  10  21  35  50  68  90 117 150 190 236 282
#     4  10  20  33  50  73 100 128 155 184 220 265
#     4   9  17  29  46  69  98 131 163 191 218 252
#     4  10  20  33  49  69  93 122 157 196 237 279
#     4  10  19  30  45  67  97 131 163 191 219 256
#     4   9  17  29  46  68  93 122 157 195 231 268
#
# _framework density 16.290032
#
# number of rings (size 3 to 8) (size 9 to 14) (size 15 to 20)
#    0.000    2.364    0.000    2.909    0.000    4.727 
#    0.000    2.727    0.000    6.182    0.000    0.000 
#    0.000    2.182    0.000   10.364    0.000    0.000 
#
# Total GULP energy -736381.180898 kJ/mol
# GULP energy per Si atom -5578.645310 kJ/mol
# Density = 1.625296 g / cm^3
# Si number density = 16.290032 Si / 1000 Ang^3
#
#
#
# Elastic Constant Matrix: (Units=GPa)
#
#
# Indices 1 2 3 4 5 6 
#
# 1 86.1029 68.0388 38.3669 0.0000 0.0000 0.0000
# 2 68.0388 86.1029 38.3669 0.0000 0.0000 0.0000
# 3 38.3669 38.3669 60.2768 0.0000 0.0000 0.0000
# 4 0.0000 0.0000 0.0000 17.3995 0.0000 0.0000
# 5 0.0000 0.0000 0.0000 0.0000 17.3995 0.0000
# 6 0.0000 0.0000 0.0000 0.0000 0.0000 9.0320
#
#
#
# Elastic Compliance Matrix: (Units=1/GPa)
#
#
# Indices 1 2 3 4 5 6 
#
# 1 0.032428 -0.022931 -0.006045 0.000000 0.000000 0.000000
# 2 -0.022931 0.032428 -0.006045 0.000000 0.000000 0.000000
# 3 -0.006045 -0.006045 0.024285 0.000000 0.000000 0.000000
# 4 0.000000 0.000000 0.000000 0.057473 0.000000 0.000000
# 5 0.000000 0.000000 0.000000 0.000000 0.057473 0.000000
# 6 0.000000 0.000000 0.000000 0.000000 0.000000 0.110717
#
#
# Mechanical properties :
#
#
# Convention : Reuss Voigt Hill
#
# Bulk Modulus (GPa) = 52.35706 58.00305 55.18006
# Shear Modulus (GPa) = 12.78085 14.61356 13.69721
#
# Velocity S-wave (km/s) = 2.80408 2.99839 2.90286
# Velocity P-wave (km/s) = 6.53407 6.90441 6.72179
#
# Compressibility (1/GPa) = 0.01909962
#
# Stress axis : x y z
#
# Youngs Moduli (GPa) = 30.83796 30.83796 41.17724
#
# Poissons Ratio (x) = 0.70714 0.24891
# Poissons Ratio (y) = 0.70714 0.24891
# Poissons Ratio (z) = 0.18641 0.18641
#
# Static dielectric constant tensor:
#      x y z
#    x 1.532370 0.000000 0.000000 
#    y 0.000000 1.532370 0.000000 
#    z 0.000000 0.000000 1.556500 
# 
# From -- ./inp_files/8687.got.cif
#   From: 2010.05.17/outbox.cif.g08.bks.cpg/sg191_5_cif.got.tgz:8687.got - 2010.05.20 12:20:32.
