data_PCOD9587454
_publ_section_title
;
Structure prediction by ZEFSAII (Michael W. Deem and Ramdas Pophale) SiO2 
 PCOD9587454
Probable space group: P 6/M M M
;
_chemical_formula_sum "Si O2"
_cell_formula_units_Z 96
_cell_length_a 20.881739
_cell_length_b 20.881739
_cell_length_c 18.315292
_cell_angle_alpha 90.000000
_cell_angle_beta 90.000000
_cell_angle_gamma 120.000000
_cell_volume 6916.363420
_symmetry_space_group_name_H-M "P 6/M M M"
_symmetry_group_IT_number 191
_symmetry_cell_setting 'hexagonal'
loop_
_space_group_symop_operation_xyz
x,y,z
x-y,x,z
-y,x-y,z
-x,-y,z
-x+y,-x,z
y,-x+y,z
x-y,-y,-z
-x,-x+y,-z
y,x,-z
-y,-x,-z
-x+y,y,-z
x,x-y,-z
-x,-y,-z
-x+y,-x,-z
y,-x+y,-z
x,y,-z
x-y,x,-z
-y,x-y,-z
-x+y,y,z
x,x-y,z
-y,-x,z
y,x,z
x-y,-y,z
-x,-x+y,z
loop_
_atom_site_type_symbol
_atom_site_label
_atom_site_fract_x
_atom_site_fract_y
_atom_site_fract_z
Si Si1 0.319612 0.234473 0.500000
Si Si2 0.706267 0.563260 0.368885
Si Si3 0.380951 0.912091 0.225221
Si Si4 0.542132 0.457869 0.585554
Si Si5 0.818407 0.484739 0.082008
O O1 0.255950 0.255950 0.500000
O O2 0.296229 0.148115 0.500000
O O3 0.370006 0.269788 0.572952
O O4 0.773173 0.546345 0.368824
O O5 0.683014 0.569254 0.286181
O O6 0.627955 0.498443 0.396555
O O7 0.446324 0.892648 0.244654
O O8 0.348544 0.874366 0.147627
O O9 0.422225 0.000000 0.219334
O O10 0.500000 0.500000 0.618556
O O11 0.536825 0.463176 0.500000
O O12 0.744181 0.488362 0.091303
O O13 0.799663 0.399832 0.085481
O O14 0.848111 0.511770 0.000000
#
# Coordination Sequence:
#
# PCOD9587454 Si02
#       5
#    12  24  24  12  24
#     4  10  20  33  51  70  91 115 145 183 217 261
#     4  11  21  32  46  67  90 117 154 189 227 266
#     4  10  19  30  45  62  82 111 147 185 224 268
#     4  11  20  32  52  66  85 123 161 189 228 280
#     4   9  17  29  44  61  82 108 138 175 223 274
#
# _framework density 13.880126000000001
#
# number of rings (size 3 to 8) (size 9 to 14) (size 15 to 20)
#    0.000    1.875    2.500    3.250    0.000    1.500 
#    0.750    2.500    0.000    0.125    0.000    0.000 
#    0.000    0.000    0.000    0.000    0.000    0.000 
#
# Total GULP energy -534538.571445 kJ/mol
# GULP energy per Si atom -5568.110119 kJ/mol
# Density = 1.384853 g / cm^3
# Si number density = 13.880126 Si / 1000 Ang^3
#
#
#
# Elastic Constant Matrix: (Units=GPa)
#
#
# Indices 1 2 3 4 5 6 
#
# 1 84.5494 44.3221 46.3959 0.0000 0.0000 0.0000
# 2 44.3221 84.5494 46.3959 0.0000 0.0000 0.0000
# 3 46.3959 46.3959 120.8938 0.0000 0.0000 0.0000
# 4 0.0000 0.0000 0.0000 14.9681 0.0000 0.0000
# 5 0.0000 0.0000 0.0000 0.0000 14.9681 0.0000
# 6 0.0000 0.0000 0.0000 0.0000 0.0000 20.1137
#
#
#
# Elastic Compliance Matrix: (Units=1/GPa)
#
#
# Indices 1 2 3 4 5 6 
#
# 1 0.017791 -0.007068 -0.004115 0.000000 0.000000 0.000000
# 2 -0.007068 0.017791 -0.004115 0.000000 0.000000 0.000000
# 3 -0.004115 -0.004115 0.011430 0.000000 0.000000 0.000000
# 4 0.000000 0.000000 0.000000 0.066809 0.000000 0.000000
# 5 0.000000 0.000000 0.000000 0.000000 0.066809 0.000000
# 6 0.000000 0.000000 0.000000 0.000000 0.000000 0.049717
#
#
# Mechanical properties :
#
#
# Convention : Reuss Voigt Hill
#
# Bulk Modulus (GPa) = 60.91894 62.69113 61.80503
# Shear Modulus (GPa) = 18.76776 20.20191 19.48484
#
# Velocity S-wave (km/s) = 3.68112 3.81918 3.75079
# Velocity P-wave (km/s) = 7.87732 8.04440 7.96130
#
# Compressibility (1/GPa) = 0.01641526
#
# Stress axis : x y z
#
# Youngs Moduli (GPa) = 56.20923 56.20923 87.48725
#
# Poissons Ratio (x) = 0.39729 0.36002
# Poissons Ratio (y) = 0.39729 0.36002
# Poissons Ratio (z) = 0.23131 0.23131
#
# Static dielectric constant tensor:
#      x y z
#    x 1.348040 0.000000 0.000000 
#    y 0.000000 1.348040 0.000000 
#    z 0.000000 0.000000 1.512690 
# 
# From -- ./inp_files/5972.got.cif
#   From: 2010.05.17/outbox.cif.g08.bks.cpg/sg191_3_cif.got.tgz:5972.got - 2010.05.20 12:20:32.
