data_PCOD9587877
_publ_section_title
;
Structure prediction by ZEFSAII (Michael W. Deem and Ramdas Pophale) SiO2 
 PCOD9587877
Probable space group: P 6/M M M
;
_chemical_formula_sum "Si O2"
_cell_formula_units_Z 144
_cell_length_a 21.270044
_cell_length_b 21.270044
_cell_length_c 22.378428
_cell_angle_alpha 90.000000
_cell_angle_beta 90.000000
_cell_angle_gamma 120.000000
_cell_volume 8767.928185
_symmetry_space_group_name_H-M "P 6/M M M"
_symmetry_group_IT_number 191
_symmetry_cell_setting 'hexagonal'
loop_
_space_group_symop_operation_xyz
x,y,z
x-y,x,z
-y,x-y,z
-x,-y,z
-x+y,-x,z
y,-x+y,z
x-y,-y,-z
-x,-x+y,-z
y,x,-z
-y,-x,-z
-x+y,y,-z
x,x-y,-z
-x,-y,-z
-x+y,-x,-z
y,-x+y,-z
x,y,-z
x-y,x,-z
-y,x-y,-z
-x+y,y,z
x,x-y,z
-y,-x,z
y,x,z
x-y,-y,z
-x,-x+y,z
loop_
_atom_site_type_symbol
_atom_site_label
_atom_site_fract_x
_atom_site_fract_y
_atom_site_fract_z
Si Si1 0.542998 0.085995 0.928016
Si Si2 0.594715 0.721856 0.759006
Si Si3 0.302893 0.224509 0.649299
Si Si4 0.566896 0.859002 0.107195
Si Si5 0.344099 0.428258 0.430310
Si Si6 0.811323 0.475294 0.332078
Si Si7 0.914751 0.232599 0.000000
O O1 0.627180 0.126178 0.907131
O O2 0.500000 0.000000 0.909742
O O3 0.543419 0.086838 0.000000
O O4 0.592674 0.796337 0.761157
O O5 0.658437 0.739159 0.712360
O O6 0.597137 0.703532 0.827535
O O7 0.521616 0.664443 0.725026
O O8 0.287770 0.143885 0.648108
O O9 0.234012 0.234012 0.641397
O O10 0.361075 0.271907 0.598306
O O11 0.547110 0.773555 0.107710
O O12 0.629390 0.897234 0.057291
O O13 0.335295 0.438260 0.500000
O O14 0.406051 0.406051 0.424105
O O15 0.357935 0.495262 0.389631
O O16 0.744995 0.489989 0.340712
O O17 0.783260 0.391630 0.322813
O O18 0.853579 0.146422 0.000000
O O19 0.000000 0.256725 0.000000
#
# Coordination Sequence:
#
# PCOD9587877 Si02
#       7
#    12  24  24  24  24  24  12
#     4  11  22  34  50  72 104 136 167 207 263 313
#     4   8  17  33  51  69  92 122 162 207 242 278
#     4   9  17  30  49  73  98 124 154 193 237 284
#     4  10  20  35  54  74  99 133 174 215 255 298
#     4   9  18  33  52  70  89 118 156 201 248 285
#     4  10  20  33  49  68  95 127 161 196 238 292
#     4  10  20  35  57  80 105 135 169 209 251 303
#
# _framework density 16.423492
#
# number of rings (size 3 to 8) (size 9 to 14) (size 15 to 20)
#    0.000    2.583    0.833    2.167    1.167    3.333 
#    0.500    0.833    0.000    1.250    0.000    0.000 
#    0.000    0.000    0.000   12.500    0.000    0.000 
#
# Total GULP energy -801879.643385 kJ/mol
# GULP energy per Si atom -5568.608635 kJ/mol
# Density = 1.638611 g / cm^3
# Si number density = 16.423492 Si / 1000 Ang^3
#
#
#
# Elastic Constant Matrix: (Units=GPa)
#
#
# Indices 1 2 3 4 5 6 
#
# 1 67.4945 32.1620 14.3680 0.0000 0.0000 0.0000
# 2 32.1620 67.4945 14.3680 0.0000 0.0000 0.0000
# 3 14.3680 14.3680 108.1547 0.0000 0.0000 0.0000
# 4 0.0000 0.0000 0.0000 9.2859 0.0000 0.0000
# 5 0.0000 0.0000 0.0000 0.0000 9.2859 0.0000
# 6 0.0000 0.0000 0.0000 0.0000 0.0000 17.6663
#
#
#
# Elastic Compliance Matrix: (Units=1/GPa)
#
#
# Indices 1 2 3 4 5 6 
#
# 1 0.019368 -0.008934 -0.001386 0.000000 0.000000 0.000000
# 2 -0.008934 0.019368 -0.001386 0.000000 0.000000 0.000000
# 3 -0.001386 -0.001386 0.009614 0.000000 0.000000 0.000000
# 4 0.000000 0.000000 0.000000 0.107690 0.000000 0.000000
# 5 0.000000 0.000000 0.000000 0.000000 0.107690 0.000000
# 6 0.000000 0.000000 0.000000 0.000000 0.000000 0.056605
#
#
# Mechanical properties :
#
#
# Convention : Reuss Voigt Hill
#
# Bulk Modulus (GPa) = 40.09937 40.54887 40.32412
# Shear Modulus (GPa) = 14.20207 19.39734 16.79970
#
# Velocity S-wave (km/s) = 2.94384 3.44040 3.20176
# Velocity P-wave (km/s) = 6.00198 6.36592 6.18663
#
# Compressibility (1/GPa) = 0.02493805
#
# Stress axis : x y z
#
# Youngs Moduli (GPa) = 51.63066 51.63066 104.01166
#
# Poissons Ratio (x) = 0.46128 0.14418
# Poissons Ratio (y) = 0.46128 0.14418
# Poissons Ratio (z) = 0.07157 0.07157
#
# Static dielectric constant tensor:
#      x y z
#    x 1.554210 0.000000 0.000000 
#    y 0.000000 1.554210 0.000000 
#    z 0.000000 0.000000 1.559880 
# 
# From -- ./inp_files/7638.got.cif
#   From: 2010.05.17/outbox.cif.g08.bks.cpg/sg191_4_cif.got.tgz:7638.got - 2010.05.20 12:20:32.
