data_PCOD9587959
_publ_section_title
;
Structure prediction by ZEFSAII (Michael W. Deem and Ramdas Pophale) SiO2 
 PCOD9587959
Probable space group: P 6/M M M
;
_chemical_formula_sum "Si O2"
_cell_formula_units_Z 60
_cell_length_a 21.077976
_cell_length_b 21.077976
_cell_length_c 9.552948
_cell_angle_alpha 90.000000
_cell_angle_beta 90.000000
_cell_angle_gamma 120.000000
_cell_volume 3675.579806
_symmetry_space_group_name_H-M "P 6/M M M"
_symmetry_group_IT_number 191
_symmetry_cell_setting 'hexagonal'
loop_
_space_group_symop_operation_xyz
x,y,z
x-y,x,z
-y,x-y,z
-x,-y,z
-x+y,-x,z
y,-x+y,z
x-y,-y,-z
-x,-x+y,-z
y,x,-z
-y,-x,-z
-x+y,y,-z
x,x-y,-z
-x,-y,-z
-x+y,-x,-z
y,-x+y,-z
x,y,-z
x-y,x,-z
-y,x-y,-z
-x+y,y,z
x,x-y,z
-y,-x,z
y,x,z
x-y,-y,z
-x,-x+y,z
loop_
_atom_site_type_symbol
_atom_site_label
_atom_site_fract_x
_atom_site_fract_y
_atom_site_fract_z
Si Si1 0.912188 0.333559 0.663800
Si Si2 0.455361 0.910721 0.161085
Si Si3 0.162543 0.837458 0.667841
Si Si4 0.827229 0.913615 0.832536
O O1 0.896756 0.339077 0.500000
O O2 0.887602 0.380300 0.757836
O O3 0.875421 0.248569 0.701528
O O4 0.000000 0.370926 0.677963
O O5 0.500000 0.000000 0.163561
O O6 0.443703 0.887406 0.000000
O O7 0.155677 0.844324 0.500000
O O8 0.124427 0.875574 0.749616
O O9 0.873800 0.873800 0.799534
O O10 0.813494 0.906747 0.000000
#
# Coordination Sequence:
#
# PCOD9587959 Si02
#       4
#    24  12  12  12
#     4   9  17  30  48  70  97 127 157 193 240 290
#     4   9  17  29  47  70  93 118 151 189 226 272
#     4  10  20  33  51  76 103 130 164 209 257 303
#     4  10  21  36  52  70  97 137 182 225 269 316
#
# _framework density 16.323954000000001
#
# number of rings (size 3 to 8) (size 9 to 14) (size 15 to 20)
#    0.000    2.600    0.000    2.000    0.000    7.200 
#    0.000    4.000    0.000    2.000    0.000    2.800 
#    0.000    0.000    0.000    0.000    0.000    0.000 
#
# Total GULP energy -334577.829654 kJ/mol
# GULP energy per Si atom -5576.297161 kJ/mol
# Density = 1.628680 g / cm^3
# Si number density = 16.323954 Si / 1000 Ang^3
#
#
#
# Elastic Constant Matrix: (Units=GPa)
#
#
# Indices 1 2 3 4 5 6 
#
# 1 120.7590 85.3732 80.7192 0.0000 0.0000 0.0000
# 2 85.3732 120.7590 80.7192 0.0000 0.0000 0.0000
# 3 80.7192 80.7192 84.4575 0.0000 0.0000 0.0000
# 4 0.0000 0.0000 0.0000 26.0208 0.0000 0.0000
# 5 0.0000 0.0000 0.0000 0.0000 26.0208 0.0000
# 6 0.0000 0.0000 0.0000 0.0000 0.0000 17.6929
#
#
#
# Elastic Compliance Matrix: (Units=1/GPa)
#
#
# Indices 1 2 3 4 5 6 
#
# 1 0.023775 -0.004485 -0.018437 0.000000 0.000000 0.000000
# 2 -0.004485 0.023775 -0.018437 0.000000 0.000000 0.000000
# 3 -0.018437 -0.018437 0.047081 0.000000 0.000000 0.000000
# 4 0.000000 0.000000 0.000000 0.038431 0.000000 0.000000
# 5 0.000000 0.000000 0.000000 0.000000 0.038431 0.000000
# 6 0.000000 0.000000 0.000000 0.000000 0.000000 0.056520
#
#
# Mechanical properties :
#
#
# Convention : Reuss Voigt Hill
#
# Bulk Modulus (GPa) = 83.92173 91.06652 87.49412
# Shear Modulus (GPa) = 15.88811 19.22448 17.55629
#
# Velocity S-wave (km/s) = 3.12316 3.43546 3.28303
# Velocity P-wave (km/s) = 8.03289 8.46432 8.25142
#
# Compressibility (1/GPa) = 0.01191586
#
# Stress axis : x y z
#
# Youngs Moduli (GPa) = 42.06072 42.06072 21.23985
#
# Poissons Ratio (x) = 0.18863 0.39159
# Poissons Ratio (y) = 0.18863 0.39159
# Poissons Ratio (z) = 0.77545 0.77545
#
# Static dielectric constant tensor:
#      x y z
#    x 1.523990 0.000000 0.000000 
#    y 0.000000 1.523990 0.000000 
#    z 0.000000 0.000000 1.547460 
# 
# From -- ./inp_files/581.got.cif
#   From: 2010.05.17/outbox.cif.g08.bks.cpg/sg191_1_cif.got.tgz:581.got - 2010.05.20 12:20:32.
