data_PCOD9587509
_publ_section_title
;
Structure prediction by ZEFSAII (Michael W. Deem and Ramdas Pophale) SiO2 
 PCOD9587509
Probable space group: P 6/M M M
;
_chemical_formula_sum "Si O2"
_cell_formula_units_Z 132
_cell_length_a 18.310040
_cell_length_b 18.310040
_cell_length_c 28.061795
_cell_angle_alpha 90.000000
_cell_angle_beta 90.000000
_cell_angle_gamma 120.000000
_cell_volume 8147.505559
_symmetry_space_group_name_H-M "P 6/M M M"
_symmetry_group_IT_number 191
_symmetry_cell_setting 'hexagonal'
loop_
_space_group_symop_operation_xyz
x,y,z
x-y,x,z
-y,x-y,z
-x,-y,z
-x+y,-x,z
y,-x+y,z
x-y,-y,-z
-x,-x+y,-z
y,x,-z
-y,-x,-z
-x+y,y,-z
x,x-y,-z
-x,-y,-z
-x+y,-x,-z
y,-x+y,-z
x,y,-z
x-y,x,-z
-y,x-y,-z
-x+y,y,z
x,x-y,z
-y,-x,z
y,x,z
x-y,-y,z
-x,-x+y,z
loop_
_atom_site_type_symbol
_atom_site_label
_atom_site_fract_x
_atom_site_fract_y
_atom_site_fract_z
Si Si1 0.263947 0.358159 0.364502
Si Si2 0.498088 0.165740 0.714309
Si Si3 0.634832 0.899452 0.089952
Si Si4 0.467081 0.100339 0.819686
Si Si5 0.532222 0.898245 0.000000
Si Si6 0.333973 0.837444 0.444219
O O1 0.166776 0.333552 0.364778
O O2 0.281960 0.281960 0.364117
O O3 0.307247 0.418091 0.318865
O O4 0.308043 0.417696 0.410187
O O5 0.574611 0.149222 0.704041
O O6 0.525154 0.262577 0.704543
O O7 0.475385 0.146132 0.769900
O O8 0.670608 0.835304 0.087432
O O9 0.582590 0.883547 0.138799
O O10 0.702321 0.000000 0.087043
O O11 0.568611 0.877465 0.046803
O O12 0.560837 0.121674 0.835316
O O13 0.415707 0.000000 0.810273
O O14 0.432380 0.864759 0.000000
O O15 0.577298 0.000000 0.000000
O O16 0.336316 0.859384 0.500000
O O17 0.423541 0.847081 0.431298
O O18 0.259938 0.740062 0.438796
#
# Coordination Sequence:
#
# PCOD9587509 Si02
#       6
#    24  24  24  24  12  24
#     4  10  21  35  50  68  90 117 150 190 235 279
#     4  10  19  30  45  67  97 130 160 187 217 258
#     4  10  19  31  48  69  93 122 158 197 235 276
#     4   9  17  29  46  67  90 119 156 196 234 271
#     4   9  17  30  49  70  90 114 144 179 221 270
#     4   9  17  29  46  69  98 131 163 191 218 252
#
# _framework density 16.201277999999999
#
# number of rings (size 3 to 8) (size 9 to 14) (size 15 to 20)
#    0.000    2.455    0.000    2.818    0.000    5.455 
#    0.000    2.727    0.000    6.545    0.000    0.000 
#    0.000    2.182    0.000   10.364    0.000    0.000 
#
# Total GULP energy -736065.469015 kJ/mol
# GULP energy per Si atom -5576.253553 kJ/mol
# Density = 1.616440 g / cm^3
# Si number density = 16.201278 Si / 1000 Ang^3
#
#
#
# Elastic Constant Matrix: (Units=GPa)
#
#
# Indices 1 2 3 4 5 6 
#
# 1 82.4123 58.6197 35.1114 0.0000 0.0000 0.0000
# 2 58.6197 82.4123 35.1114 0.0000 0.0000 0.0000
# 3 35.1114 35.1114 57.8984 0.0000 0.0000 0.0000
# 4 0.0000 0.0000 0.0000 16.0244 0.0000 0.0000
# 5 0.0000 0.0000 0.0000 0.0000 16.0244 0.0000
# 6 0.0000 0.0000 0.0000 0.0000 0.0000 11.8963
#
#
#
# Elastic Compliance Matrix: (Units=1/GPa)
#
#
# Indices 1 2 3 4 5 6 
#
# 1 0.026094 -0.015936 -0.006160 0.000000 0.000000 0.000000
# 2 -0.015936 0.026094 -0.006160 0.000000 0.000000 0.000000
# 3 -0.006160 -0.006160 0.024743 0.000000 0.000000 0.000000
# 4 0.000000 0.000000 0.000000 0.062405 0.000000 0.000000
# 5 0.000000 0.000000 0.000000 0.000000 0.062405 0.000000
# 6 0.000000 0.000000 0.000000 0.000000 0.000000 0.084060
#
#
# Mechanical properties :
#
#
# Convention : Reuss Voigt Hill
#
# Bulk Modulus (GPa) = 48.97531 53.37866 51.17698
# Shear Modulus (GPa) = 14.32182 15.04774 14.68478
#
# Velocity S-wave (km/s) = 2.97643 3.05093 3.01391
# Velocity P-wave (km/s) = 6.48900 6.74015 6.61576
#
# Compressibility (1/GPa) = 0.02041845
#
# Stress axis : x y z
#
# Youngs Moduli (GPa) = 38.32326 38.32326 40.41569
#
# Poissons Ratio (x) = 0.61072 0.24896
# Poissons Ratio (y) = 0.61072 0.24896
# Poissons Ratio (z) = 0.23607 0.23607
#
# Static dielectric constant tensor:
#      x y z
#    x 1.534930 0.000000 0.000000 
#    y 0.000000 1.534930 0.000000 
#    z 0.000000 0.000000 1.553070 
# 
# From -- ./inp_files/9721.got.cif
#   From: 2010.05.17/outbox.cif.g08.bks.cpg/sg191_5_cif.got.tgz:9721.got - 2010.05.20 12:20:32.
