data_PCOD9587831
_publ_section_title
;
Structure prediction by ZEFSAII (Michael W. Deem and Ramdas Pophale) SiO2 
 PCOD9587831
Probable space group: P 6/M M M
;
_chemical_formula_sum "Si O2"
_cell_formula_units_Z 144
_cell_length_a 32.909210
_cell_length_b 32.909210
_cell_length_c 9.139039
_cell_angle_alpha 90.000000
_cell_angle_beta 90.000000
_cell_angle_gamma 120.000000
_cell_volume 8571.682503
_symmetry_space_group_name_H-M "P 6/M M M"
_symmetry_group_IT_number 191
_symmetry_cell_setting 'hexagonal'
loop_
_space_group_symop_operation_xyz
x,y,z
x-y,x,z
-y,x-y,z
-x,-y,z
-x+y,-x,z
y,-x+y,z
x-y,-y,-z
-x,-x+y,-z
y,x,-z
-y,-x,-z
-x+y,y,-z
x,x-y,-z
-x,-y,-z
-x+y,-x,-z
y,-x+y,-z
x,y,-z
x-y,x,-z
-y,x-y,-z
-x+y,y,z
x,x-y,z
-y,-x,z
y,x,z
x-y,-y,z
-x,-x+y,z
loop_
_atom_site_type_symbol
_atom_site_label
_atom_site_fract_x
_atom_site_fract_y
_atom_site_fract_z
Si Si1 0.139282 0.764627 0.174307
Si Si2 0.946683 0.146273 0.825517
Si Si3 0.476766 0.424605 0.668491
Si Si4 0.945556 0.712785 0.325388
Si Si5 0.525965 0.715153 0.671799
Si Si6 0.621186 0.146601 0.826782
O O1 0.182067 0.817934 0.201057
O O2 0.092067 0.757306 0.247830
O O3 0.156132 0.730856 0.244975
O O4 0.133894 0.757810 0.000000
O O5 0.906177 0.093824 0.789899
O O6 0.938758 0.183988 0.738167
O O7 0.000000 0.158945 0.795879
O O8 0.943516 0.153463 0.000000
O O9 0.468712 0.407760 0.500000
O O10 0.525417 0.474584 0.668883
O O11 0.436574 0.436574 0.711608
O O12 0.486503 0.391783 0.772308
O O13 0.938572 0.709119 0.500000
O O14 0.000000 0.728747 0.295681
O O15 0.531294 0.708972 0.500000
O O16 0.516311 0.758156 0.688820
O O17 0.485507 0.667656 0.741431
O O18 0.576198 0.152395 0.793003
O O19 0.628539 0.150748 0.000000
#
# Coordination Sequence:
#
# PCOD9587831 Si02
#       6
#    24  24  24  24  24  24
#     4  10  20  34  53  75  99 129 164 202 245 294
#     4   9  17  29  45  65  90 122 161 205 254 308
#     4   8  14  26  45  69  98 132 167 201 236 275
#     4  10  20  32  47  70 100 131 163 202 247 294
#     4  10  21  37  57  79 102 131 168 209 250 291
#     4  10  20  33  52  79 108 137 168 204 248 295
#
# _framework density 16.799503000000001
#
# number of rings (size 3 to 8) (size 9 to 14) (size 15 to 20)
#    0.000    2.500    0.000    3.000    0.000    6.667 
#    0.000    2.500    0.000    5.500    0.000    1.167 
#    0.000    0.000    0.000    4.167    0.000    4.333 
#
# Total GULP energy -803068.866748 kJ/mol
# GULP energy per Si atom -5576.867130 kJ/mol
# Density = 1.676127 g / cm^3
# Si number density = 16.799503 Si / 1000 Ang^3
#
#
#
# Elastic Constant Matrix: (Units=GPa)
#
#
# Indices 1 2 3 4 5 6 
#
# 1 83.3009 51.8264 60.7548 0.0000 0.0000 0.0000
# 2 51.8264 83.3009 60.7548 0.0000 0.0000 0.0000
# 3 60.7548 60.7548 85.3703 0.0000 0.0000 0.0000
# 4 0.0000 0.0000 0.0000 22.5501 0.0000 0.0000
# 5 0.0000 0.0000 0.0000 0.0000 22.5501 0.0000
# 6 0.0000 0.0000 0.0000 0.0000 0.0000 15.7372
#
#
#
# Elastic Compliance Matrix: (Units=1/GPa)
#
#
# Indices 1 2 3 4 5 6 
#
# 1 0.026163 -0.005609 -0.014627 0.000000 0.000000 0.000000
# 2 -0.005609 0.026163 -0.014627 0.000000 0.000000 0.000000
# 3 -0.014627 -0.014627 0.032533 0.000000 0.000000 0.000000
# 4 0.000000 0.000000 0.000000 0.044346 0.000000 0.000000
# 5 0.000000 0.000000 0.000000 0.000000 0.044346 0.000000
# 6 0.000000 0.000000 0.000000 0.000000 0.000000 0.063544
#
#
# Mechanical properties :
#
#
# Convention : Reuss Voigt Hill
#
# Bulk Modulus (GPa) = 66.08836 66.51603 66.30219
# Shear Modulus (GPa) = 16.03263 17.40987 16.72125
#
# Velocity S-wave (km/s) = 3.09261 3.22270 3.15833
# Velocity P-wave (km/s) = 7.22338 7.31627 7.26997
#
# Compressibility (1/GPa) = 0.01513126
#
# Stress axis : x y z
#
# Youngs Moduli (GPa) = 38.22241 38.22241 30.73809
#
# Poissons Ratio (x) = 0.21439 0.44961
# Poissons Ratio (y) = 0.21439 0.44961
# Poissons Ratio (z) = 0.55909 0.55909
#
# Static dielectric constant tensor:
#      x y z
#    x 1.564200 0.000000 0.000000 
#    y 0.000000 1.564200 0.000000 
#    z 0.000000 0.000000 1.556900 
# 
# From -- ./inp_files/1955.got.cif
#   From: 2010.05.17/outbox.cif.g08.bks.cpg/sg191_1_cif.got.tgz:1955.got - 2010.05.20 12:20:32.
