data_PCOD9587225
_publ_section_title
;
Structure prediction by ZEFSAII (Michael W. Deem and Ramdas Pophale) SiO2 
 PCOD9587225
Probable space group: P 6/M M M
;
_chemical_formula_sum "Si O2"
_cell_formula_units_Z 132
_cell_length_a 18.205458
_cell_length_b 18.205458
_cell_length_c 29.375328
_cell_angle_alpha 90.000000
_cell_angle_beta 90.000000
_cell_angle_gamma 120.000000
_cell_volume 8431.727734
_symmetry_space_group_name_H-M "P 6/M M M"
_symmetry_group_IT_number 191
_symmetry_cell_setting 'hexagonal'
loop_
_space_group_symop_operation_xyz
x,y,z
x-y,x,z
-y,x-y,z
-x,-y,z
-x+y,-x,z
y,-x+y,z
x-y,-y,-z
-x,-x+y,-z
y,x,-z
-y,-x,-z
-x+y,y,-z
x,x-y,-z
-x,-y,-z
-x+y,-x,-z
y,-x+y,-z
x,y,-z
x-y,x,-z
-y,x-y,-z
-x+y,y,z
x,x-y,z
-y,-x,z
y,x,z
x-y,-y,z
-x,-x+y,z
loop_
_atom_site_type_symbol
_atom_site_label
_atom_site_fract_x
_atom_site_fract_y
_atom_site_fract_z
Si Si1 0.000000 0.589350 0.447723
Si Si2 0.534974 0.899502 0.888382
Si Si3 0.101435 0.634544 0.711811
Si Si4 0.733811 0.634317 0.799003
Si Si5 0.493498 0.162716 0.610476
Si Si6 0.901344 0.098657 0.055469
Si Si7 0.197822 0.802179 0.945609
O O1 0.083362 0.653554 0.420067
O O2 0.000000 0.500000 0.447775
O O3 0.000000 0.613837 0.500000
O O4 0.436548 0.873096 0.886208
O O5 0.570472 0.887539 0.840318
O O6 0.558225 0.850334 0.925426
O O7 0.586960 0.000000 0.898330
O O8 0.125845 0.562923 0.724653
O O9 0.118017 0.699132 0.752374
O O10 0.143593 0.673949 0.663706
O O11 0.000000 0.583347 0.704279
O O12 0.832898 0.665795 0.804003
O O13 0.705902 0.705902 0.799308
O O14 0.586001 0.172002 0.605802
O O15 0.495601 0.247801 0.596544
O O16 0.851921 0.148080 0.069261
O O17 0.000000 0.148442 0.070098
O O18 0.901866 0.098135 0.000000
O O19 0.198662 0.801339 0.000000
#
# Coordination Sequence:
#
# PCOD9587225 Si02
#       7
#    12  24  24  24  24  12  12
#     4   9  18  32  46  60  88 132 173 207 248 294
#     4  10  21  38  57  76 100 131 167 206 249 298
#     4   9  16  28  48  73 100 131 164 199 243 296
#     4  10  19  33  54  78 103 132 165 201 246 301
#     4  10  18  29  45  68  97 128 166 210 253 296
#     4   9  17  30  51  80 110 136 162 199 248 300
#     4  11  22  37  56  77 102 134 173 212 250 297
#
# _framework density 15.655155000000001
#
# number of rings (size 3 to 8) (size 9 to 14) (size 15 to 20)
#    0.000    2.273    1.818    1.909    0.000    4.364 
#    0.545    0.909    0.000    2.727    0.000    0.000 
#    0.000    0.000    0.000    0.273    0.000    1.182 
#
# Total GULP energy -736037.620163 kJ/mol
# GULP energy per Si atom -5576.042577 kJ/mol
# Density = 1.561952 g / cm^3
# Si number density = 15.655155 Si / 1000 Ang^3
#
#
#
# Elastic Constant Matrix: (Units=GPa)
#
#
# Indices 1 2 3 4 5 6 
#
# 1 102.9734 60.4936 50.4212 0.0000 0.0000 0.0000
# 2 60.4936 102.9734 50.4212 0.0000 0.0000 0.0000
# 3 50.4212 50.4212 84.4535 0.0000 0.0000 0.0000
# 4 0.0000 0.0000 0.0000 11.0774 0.0000 0.0000
# 5 0.0000 0.0000 0.0000 0.0000 11.0774 0.0000
# 6 0.0000 0.0000 0.0000 0.0000 0.0000 21.2399
#
#
#
# Elastic Compliance Matrix: (Units=1/GPa)
#
#
# Indices 1 2 3 4 5 6 
#
# 1 0.016612 -0.006928 -0.005782 0.000000 0.000000 0.000000
# 2 -0.006928 0.016612 -0.005782 0.000000 0.000000 0.000000
# 3 -0.005782 -0.005782 0.018745 0.000000 0.000000 0.000000
# 4 0.000000 0.000000 0.000000 0.090274 0.000000 0.000000
# 5 0.000000 0.000000 0.000000 0.000000 0.090274 0.000000
# 6 0.000000 0.000000 0.000000 0.000000 0.000000 0.047081
#
#
# Mechanical properties :
#
#
# Convention : Reuss Voigt Hill
#
# Bulk Modulus (GPa) = 66.72906 68.11916 67.42411
# Shear Modulus (GPa) = 15.54836 17.28322 16.41579
#
# Velocity S-wave (km/s) = 3.15489 3.32625 3.24170
# Velocity P-wave (km/s) = 7.48251 7.63928 7.56130
#
# Compressibility (1/GPa) = 0.01498597
#
# Stress axis : x y z
#
# Youngs Moduli (GPa) = 60.19607 60.19607 53.34871
#
# Poissons Ratio (x) = 0.41705 0.30845
# Poissons Ratio (y) = 0.41705 0.30845
# Poissons Ratio (z) = 0.34804 0.34804
#
# Static dielectric constant tensor:
#      x y z
#    x 1.512000 0.000000 0.000000 
#    y 0.000000 1.512000 0.000000 
#    z 0.000000 0.000000 1.523550 
# 
# From -- ./inp_files/9884.got.cif
#   From: 2010.05.17/outbox.cif.g08.bks.cpg/sg191_5_cif.got.tgz:9884.got - 2010.05.20 12:20:32.
