data_PCOD9587138
_publ_section_title
;
Structure prediction by ZEFSAII (Michael W. Deem and Ramdas Pophale) SiO2 
 PCOD9587138
Probable space group: P 6/M M M
;
_chemical_formula_sum "Si O2"
_cell_formula_units_Z 192
_cell_length_a 22.527253
_cell_length_b 22.527253
_cell_length_c 31.206563
_cell_angle_alpha 90.000000
_cell_angle_beta 90.000000
_cell_angle_gamma 120.000000
_cell_volume 13714.912595
_symmetry_space_group_name_H-M "P 6/M M M"
_symmetry_group_IT_number 191
_symmetry_cell_setting 'hexagonal'
loop_
_space_group_symop_operation_xyz
x,y,z
x-y,x,z
-y,x-y,z
-x,-y,z
-x+y,-x,z
y,-x+y,z
x-y,-y,-z
-x,-x+y,-z
y,x,-z
-y,-x,-z
-x+y,y,-z
x,x-y,-z
-x,-y,-z
-x+y,-x,-z
y,-x+y,-z
x,y,-z
x-y,x,-z
-y,x-y,-z
-x+y,y,z
x,x-y,z
-y,-x,z
y,x,z
x-y,-y,z
-x,-x+y,z
loop_
_atom_site_type_symbol
_atom_site_label
_atom_site_fract_x
_atom_site_fract_y
_atom_site_fract_z
Si Si1 0.711845 0.147146 0.372528
Si Si2 0.475998 0.809498 0.881016
Si Si3 0.150163 0.706245 0.794435
Si Si4 0.610807 0.533284 0.950677
Si Si5 0.334315 0.525314 0.290129
Si Si6 0.077389 0.292400 0.226222
Si Si7 0.471172 0.082208 0.451099
Si Si8 0.922599 0.710548 0.328933
O O1 0.778820 0.221181 0.379904
O O2 0.669293 0.156131 0.334099
O O3 0.667674 0.118702 0.415066
O O4 0.739667 0.098584 0.354480
O O5 0.399699 0.799398 0.882271
O O6 0.473021 0.736511 0.884650
O O7 0.512376 0.844226 0.836101
O O8 0.520767 0.862047 0.918635
O O9 0.221517 0.778484 0.792682
O O10 0.148592 0.667866 0.750806
O O11 0.093250 0.729123 0.794851
O O12 0.538487 0.461514 0.950270
O O13 0.591037 0.591037 0.938332
O O14 0.635197 0.545473 0.000000
O O15 0.265332 0.530664 0.288367
O O16 0.400556 0.599445 0.288302
O O17 0.138613 0.277226 0.214826
O O18 0.082368 0.304196 0.277805
O O19 0.000000 0.233637 0.216582
O O20 0.464333 0.101130 0.500000
O O21 0.548921 0.097842 0.445367
O O22 0.423615 0.000000 0.447241
O O23 0.865897 0.731794 0.338750
O O24 0.000000 0.767045 0.338602
#
# Coordination Sequence:
#
# PCOD9587138 Si02
#       8
#    24  24  24  24  24  24  24  24
#     4  10  18  28  44  64  84 107 136 171 208 248
#     4  10  19  29  43  63  88 116 145 181 225 271
#     4   9  17  29  41  57  83 114 146 175 205 245
#     4   8  15  29  46  60  76 104 142 180 220 268
#     4  10  18  28  41  57  79 108 142 177 211 249
#     4   9  16  28  45  63  85 112 142 175 210 251
#     4   9  18  32  47  61  79 105 136 170 211 257
#     4   9  16  27  44  64  85 109 136 166 202 243
#
# _framework density 13.999359
#
# number of rings (size 3 to 8) (size 9 to 14) (size 15 to 20)
#    0.000    2.750    1.250    2.125    0.000    1.000 
#    0.000    1.250    0.000    3.125    0.000    1.750 
#    0.000    0.000    0.000    0.000    0.000    0.000 
#
# Total GULP energy -1069071.402007 kJ/mol
# GULP energy per Si atom -5568.080219 kJ/mol
# Density = 1.396750 g / cm^3
# Si number density = 13.999359 Si / 1000 Ang^3
#
#
#
# Elastic Constant Matrix: (Units=GPa)
#
#
# Indices 1 2 3 4 5 6 
#
# 1 68.6197 40.6345 39.8007 0.0000 0.0000 0.0000
# 2 40.6345 68.6197 39.8007 0.0000 0.0000 0.0000
# 3 39.8007 39.8007 75.3454 0.0000 0.0000 0.0000
# 4 0.0000 0.0000 0.0000 20.3992 0.0000 0.0000
# 5 0.0000 0.0000 0.0000 0.0000 20.3992 0.0000
# 6 0.0000 0.0000 0.0000 0.0000 0.0000 13.9926
#
#
#
# Elastic Compliance Matrix: (Units=1/GPa)
#
#
# Indices 1 2 3 4 5 6 
#
# 1 0.025306 -0.010427 -0.007860 0.000000 0.000000 0.000000
# 2 -0.010427 0.025306 -0.007860 0.000000 0.000000 0.000000
# 3 -0.007860 -0.007860 0.021576 0.000000 0.000000 0.000000
# 4 0.000000 0.000000 0.000000 0.049022 0.000000 0.000000
# 5 0.000000 0.000000 0.000000 0.000000 0.049022 0.000000
# 6 0.000000 0.000000 0.000000 0.000000 0.000000 0.071466
#
#
# Mechanical properties :
#
#
# Convention : Reuss Voigt Hill
#
# Bulk Modulus (GPa) = 50.26306 50.33964 50.30135
# Shear Modulus (GPa) = 16.63206 17.11480 16.87343
#
# Velocity S-wave (km/s) = 3.45056 3.50028 3.47551
# Velocity P-wave (km/s) = 7.20118 7.23689 7.21905
#
# Compressibility (1/GPa) = 0.01989533
#
# Stress axis : x y z
#
# Youngs Moduli (GPa) = 39.51561 39.51561 46.34702
#
# Poissons Ratio (x) = 0.41202 0.36429
# Poissons Ratio (y) = 0.41202 0.36429
# Poissons Ratio (z) = 0.31060 0.31060
#
# Static dielectric constant tensor:
#      x y z
#    x 1.453390 0.000000 0.000000 
#    y 0.000000 1.453390 0.000000 
#    z 0.000000 0.000000 1.456190 
# 
# From -- ./inp_files/10139.got.cif
#   From: 2010.05.17/outbox.cif.g08.bks.cpg/sg191_6_cif.got.tgz:10139.got - 2010.05.20 12:20:32.
