data_PCOD9587841
_publ_section_title
;
Structure prediction by ZEFSAII (Michael W. Deem and Ramdas Pophale) SiO2 
 PCOD9587841
Probable space group: P 6/M M M
;
_chemical_formula_sum "Si O2"
_cell_formula_units_Z 132
_cell_length_a 27.337674
_cell_length_b 27.337674
_cell_length_c 11.804794
_cell_angle_alpha 90.000000
_cell_angle_beta 90.000000
_cell_angle_gamma 120.000000
_cell_volume 7640.330846
_symmetry_space_group_name_H-M "P 6/M M M"
_symmetry_group_IT_number 191
_symmetry_cell_setting 'hexagonal'
loop_
_space_group_symop_operation_xyz
x,y,z
x-y,x,z
-y,x-y,z
-x,-y,z
-x+y,-x,z
y,-x+y,z
x-y,-y,-z
-x,-x+y,-z
y,x,-z
-y,-x,-z
-x+y,y,-z
x,x-y,-z
-x,-y,-z
-x+y,-x,-z
y,-x+y,-z
x,y,-z
x-y,x,-z
-y,x-y,-z
-x+y,y,z
x,x-y,z
-y,-x,z
y,x,z
x-y,-y,z
-x,-x+y,z
loop_
_atom_site_type_symbol
_atom_site_label
_atom_site_fract_x
_atom_site_fract_y
_atom_site_fract_z
Si Si1 0.698214 0.906311 0.000000
Si Si2 0.725271 0.066634 0.633951
Si Si3 0.936678 0.177092 0.237302
Si Si4 0.895005 0.548716 0.237095
Si Si5 0.396914 0.331749 0.000000
Si Si6 0.549920 0.333277 0.134230
Si Si7 0.557975 0.557975 0.627487
O O1 0.733052 0.934687 0.113586
O O2 0.687461 0.843731 0.000000
O O3 0.638596 0.903138 0.000000
O O4 0.724952 0.075466 0.500000
O O5 0.785016 0.075428 0.675115
O O6 0.707361 0.105269 0.704645
O O7 0.680423 0.000000 0.659131
O O8 0.887498 0.112503 0.242350
O O9 0.000000 0.189956 0.257395
O O10 0.920745 0.566949 0.112271
O O11 0.833904 0.494311 0.215113
O O12 0.942101 0.544201 0.310544
O O13 0.350403 0.350403 0.000000
O O14 0.550361 0.275181 0.155610
O O15 0.612072 0.387929 0.148300
O O16 0.534399 0.332153 0.000000
O O17 0.500000 0.500000 0.621238
O O18 0.578989 0.578989 0.500000
#
# Coordination Sequence:
#
# PCOD9587841 Si02
#       7
#    12  24  24  24  12  24  12
#     4  10  20  32  51  78 111 151 193 228 272 340
#     4  10  20  35  55  79 114 154 188 221 265 331
#     4  10  20  34  53  78 109 147 191 237 284 339
#     4  12  21  35  57  88 117 149 189 227 281 337
#     4  12  20  32  52  82 121 158 176 218 283 350
#     4  10  22  40  61  84 112 147 188 236 291 347
#     4  11  24  41  59  81 115 160 203 237 274 329
#
# _framework density 17.276738999999999
#
# number of rings (size 3 to 8) (size 9 to 14) (size 15 to 20)
#    0.000    1.364    4.545    2.091    0.000    2.545 
#    0.000    0.455    0.000    1.818    0.000    0.000 
#    0.000    8.000    0.000    4.545    0.000    0.000 
#
# Total GULP energy -736627.925473 kJ/mol
# GULP energy per Si atom -5580.514587 kJ/mol
# Density = 1.723742 g / cm^3
# Si number density = 17.276739 Si / 1000 Ang^3
#
#
#
# Elastic Constant Matrix: (Units=GPa)
#
#
# Indices 1 2 3 4 5 6 
#
# 1 69.6349 63.7812 47.5518 0.0000 0.0000 0.0000
# 2 63.7812 69.6349 47.5518 0.0000 0.0000 0.0000
# 3 47.5518 47.5518 103.0766 0.0000 0.0000 0.0000
# 4 0.0000 0.0000 0.0000 -532.8613 0.0001 0.0000
# 5 0.0000 0.0000 0.0000 0.0001 -532.8614 0.0000
# 6 0.0000 0.0000 0.0000 0.0000 0.0000 2.9268
#
#
#
# Elastic Compliance Matrix: (Units=1/GPa)
#
#
# Indices 1 2 3 4 5 6 
#
# 1 0.091000 -0.079833 -0.005152 0.000000 0.000000 0.000000
# 2 -0.079833 0.091000 -0.005152 0.000000 0.000000 0.000000
# 3 -0.005152 -0.005152 0.014455 0.000000 0.000000 0.000000
# 4 0.000000 0.000000 0.000000 -0.001877 0.000000 0.000000
# 5 0.000000 0.000000 0.000000 0.000000 -0.001877 0.000000
# 6 0.000000 0.000000 0.000000 0.000000 0.000000 0.341666
#
#
# Mechanical properties :
#
#
# Convention : Reuss Voigt Hill
#
# Bulk Modulus (GPa) = 61.79434 62.23512 62.01473
# Shear Modulus (GPa) = 6.94410 -206.99509 -100.02549
#
# Velocity S-wave (km/s) = 2.00700 -10.95772 -7.61720
# Velocity P-wave (km/s) = 6.41995 11.13529 6.43346
#
# Compressibility (1/GPa) = 0.01618271
#
# Stress axis : x y z
#
# Youngs Moduli (GPa) = 10.98896 10.98896 69.17996
#
# Poissons Ratio (x) = 0.87728 0.35642
# Poissons Ratio (y) = 0.87728 0.35642
# Poissons Ratio (z) = 0.05662 0.05662
#
# Static dielectric constant tensor:
#      x y z
#    x 1.588810 0.000000 0.000000 
#    y 0.000000 1.588810 0.000000 
#    z 0.000000 0.000000 1.590010 
# 
# From -- ./inp_files/3390.got.cif
#   From: 2010.05.17/outbox.cif.g08.bks.cpg/sg191_2_cif.got.tgz:3390.got - 2010.05.20 12:20:32.
