data_PCOD9587335
_publ_section_title
;
Structure prediction by ZEFSAII (Michael W. Deem and Ramdas Pophale) SiO2 
 PCOD9587335
Probable space group: P 6/M M M
;
_chemical_formula_sum "Si O2"
_cell_formula_units_Z 108
_cell_length_a 17.320050
_cell_length_b 17.320050
_cell_length_c 24.381448
_cell_angle_alpha 90.000000
_cell_angle_beta 90.000000
_cell_angle_gamma 120.000000
_cell_volume 6334.150953
_symmetry_space_group_name_H-M "P 6/M M M"
_symmetry_group_IT_number 191
_symmetry_cell_setting 'hexagonal'
loop_
_space_group_symop_operation_xyz
x,y,z
x-y,x,z
-y,x-y,z
-x,-y,z
-x+y,-x,z
y,-x+y,z
x-y,-y,-z
-x,-x+y,-z
y,x,-z
-y,-x,-z
-x+y,y,-z
x,x-y,-z
-x,-y,-z
-x+y,-x,-z
y,-x+y,-z
x,y,-z
x-y,x,-z
-y,x-y,-z
-x+y,y,z
x,x-y,z
-y,-x,z
y,x,z
x-y,-y,z
-x,-x+y,z
loop_
_atom_site_type_symbol
_atom_site_label
_atom_site_fract_x
_atom_site_fract_y
_atom_site_fract_z
Si Si1 0.900112 0.357810 0.853090
Si Si2 0.413195 0.206598 0.065232
Si Si3 0.898241 0.101760 0.066546
Si Si4 0.841801 0.510980 0.730731
Si Si5 0.446075 0.553926 0.437308
Si Si6 0.285199 0.389608 0.379181
O O1 0.900637 0.450319 0.853978
O O2 0.844835 0.299993 0.904079
O O3 0.864440 0.318659 0.792873
O O4 0.000000 0.377851 0.858321
O O5 0.307880 0.153940 0.078898
O O6 0.424413 0.212207 0.000000
O O7 0.000000 0.154119 0.086227
O O8 0.901213 0.098788 0.000000
O O9 0.736820 0.473639 0.722392
O O10 0.865147 0.432574 0.723486
O O11 0.890764 0.586830 0.685384
O O12 0.500000 0.500000 0.437459
O O13 0.430077 0.569924 0.500000
O O14 0.353141 0.484792 0.408163
O O15 0.182563 0.365126 0.390620
O O16 0.318946 0.318946 0.393489
#
# Coordination Sequence:
#
# PCOD9587335 Si02
#       6
#    24  12  12  24  12  24
#     4  10  21  36  54  75  99 130 167 212 261 310
#     4  11  22  37  52  72  99 133 169 207 257 320
#     4   9  17  30  51  76  99 123 155 200 252 311
#     4  10  18  31  53  80 108 136 172 219 266 316
#     4   9  18  34  54  79 116 156 189 225 273 329
#     4  10  20  34  55  82 113 152 194 236 280 328
#
# _framework density 17.050431
#
# number of rings (size 3 to 8) (size 9 to 14) (size 15 to 20)
#    0.000    2.111    2.222    1.667    0.000    3.556 
#    1.333    1.111    0.000    0.222    0.000    0.000 
#    0.000    0.000    0.000    5.556    0.000    0.000 
#
# Total GULP energy -601599.365246 kJ/mol
# GULP energy per Si atom -5570.364493 kJ/mol
# Density = 1.701162 g / cm^3
# Si number density = 17.050431 Si / 1000 Ang^3
#
#
#
# Elastic Constant Matrix: (Units=GPa)
#
#
# Indices 1 2 3 4 5 6 
#
# 1 75.0674 26.4663 23.4168 0.0000 0.0000 0.0000
# 2 26.4663 75.0674 23.4168 0.0000 0.0000 0.0000
# 3 23.4168 23.4168 81.0860 0.0000 0.0000 0.0000
# 4 0.0000 0.0000 0.0000 12.8149 0.0000 0.0000
# 5 0.0000 0.0000 0.0000 0.0000 12.8149 0.0000
# 6 0.0000 0.0000 0.0000 0.0000 0.0000 24.3006
#
#
#
# Elastic Compliance Matrix: (Units=1/GPa)
#
#
# Indices 1 2 3 4 5 6 
#
# 1 0.015969 -0.004607 -0.003281 0.000000 0.000000 0.000000
# 2 -0.004607 0.015969 -0.003281 0.000000 0.000000 0.000000
# 3 -0.003281 -0.003281 0.014228 0.000000 0.000000 0.000000
# 4 0.000000 0.000000 0.000000 0.078034 0.000000 0.000000
# 5 0.000000 0.000000 0.000000 0.000000 0.078034 0.000000
# 6 0.000000 0.000000 0.000000 0.000000 0.000000 0.041151
#
#
# Mechanical properties :
#
#
# Convention : Reuss Voigt Hill
#
# Bulk Modulus (GPa) = 41.96859 41.98011 41.97435
# Shear Modulus (GPa) = 18.27042 20.51414 19.39228
#
# Velocity S-wave (km/s) = 3.27701 3.47240 3.37612
# Velocity P-wave (km/s) = 6.24389 6.38368 6.31417
#
# Compressibility (1/GPa) = 0.02382735
#
# Stress axis : x y z
#
# Youngs Moduli (GPa) = 62.62099 62.62099 70.28474
#
# Poissons Ratio (x) = 0.28847 0.23063
# Poissons Ratio (y) = 0.28847 0.23063
# Poissons Ratio (z) = 0.20548 0.20548
#
# Static dielectric constant tensor:
#      x y z
#    x 1.595750 0.000000 0.000000 
#    y 0.000000 1.595750 0.000000 
#    z 0.000000 0.000000 1.577510 
# 
# From -- ./inp_files/8434.got.cif
#   From: 2010.05.17/outbox.cif.g08.bks.cpg/sg191_5_cif.got.tgz:8434.got - 2010.05.20 12:20:32.
