data_PCOD9587846
_publ_section_title
;
Structure prediction by ZEFSAII (Michael W. Deem and Ramdas Pophale) SiO2 
 PCOD9587846
Probable space group: P 6/M M M
;
_chemical_formula_sum "Si O2"
_cell_formula_units_Z 108
_cell_length_a 22.098861
_cell_length_b 22.098861
_cell_length_c 16.509933
_cell_angle_alpha 90.000000
_cell_angle_beta 90.000000
_cell_angle_gamma 120.000000
_cell_volume 6982.576830
_symmetry_space_group_name_H-M "P 6/M M M"
_symmetry_group_IT_number 191
_symmetry_cell_setting 'hexagonal'
loop_
_space_group_symop_operation_xyz
x,y,z
x-y,x,z
-y,x-y,z
-x,-y,z
-x+y,-x,z
y,-x+y,z
x-y,-y,-z
-x,-x+y,-z
y,x,-z
-y,-x,-z
-x+y,y,-z
x,x-y,-z
-x,-y,-z
-x+y,-x,-z
y,-x+y,-z
x,y,-z
x-y,x,-z
-y,x-y,-z
-x+y,y,z
x,x-y,z
-y,-x,z
y,x,z
x-y,-y,z
-x,-x+y,z
loop_
_atom_site_type_symbol
_atom_site_label
_atom_site_fract_x
_atom_site_fract_y
_atom_site_fract_z
Si Si1 0.148927 0.439665 0.155747
Si Si2 0.666202 0.476880 0.679369
Si Si3 0.529432 0.613022 0.000000
Si Si4 0.701244 0.781736 0.255431
Si Si5 0.385023 0.081167 0.592996
O O1 0.222888 0.445776 0.134104
O O2 0.163570 0.492685 0.230110
O O3 0.100651 0.362064 0.192312
O O4 0.114880 0.455029 0.079725
O O5 0.735500 0.470999 0.668106
O O6 0.596609 0.403392 0.668860
O O7 0.670180 0.536061 0.619406
O O8 0.577632 0.577632 0.000000
O O9 0.449708 0.550293 0.000000
O O10 0.725529 0.862765 0.245821
O O11 0.759330 0.759330 0.246609
O O12 0.664706 0.755506 0.343418
O O13 0.373153 0.092997 0.500000
O O14 0.364101 0.000000 0.601151
#
# Coordination Sequence:
#
# PCOD9587846 Si02
#       5
#    24  24  12  24  24
#     4   9  18  33  50  65  85 117 155 191 222 256
#     4  10  20  33  48  65  88 118 151 186 225 271
#     4  11  21  30  44  68  96 119 141 177 226 276
#     4   9  17  30  49  71  94 120 150 185 225 268
#     4   9  18  32  49  68  89 115 150 191 229 264
#
# _framework density 15.46707
#
# number of rings (size 3 to 8) (size 9 to 14) (size 15 to 20)
#    0.000    2.556    0.000    3.889    0.000    3.556 
#    0.000    1.111    0.000    4.667    0.000    0.000 
#    0.000    0.000    0.000    5.556    0.000   23.111 
#
# Total GULP energy -602254.753954 kJ/mol
# GULP energy per Si atom -5576.432907 kJ/mol
# Density = 1.543187 g / cm^3
# Si number density = 15.467070 Si / 1000 Ang^3
#
#
#
# Elastic Constant Matrix: (Units=GPa)
#
#
# Indices 1 2 3 4 5 6 
#
# 1 91.4722 57.0928 38.9861 0.0000 0.0000 0.0000
# 2 57.0928 91.4722 38.9861 0.0000 0.0000 0.0000
# 3 38.9861 38.9861 90.6163 0.0000 0.0000 0.0000
# 4 0.0000 0.0000 0.0000 12.4072 0.0000 0.0000
# 5 0.0000 0.0000 0.0000 0.0000 12.4072 0.0000
# 6 0.0000 0.0000 0.0000 0.0000 0.0000 17.1897
#
#
#
# Elastic Compliance Matrix: (Units=1/GPa)
#
#
# Indices 1 2 3 4 5 6 
#
# 1 0.018891 -0.010196 -0.003741 0.000000 0.000000 0.000000
# 2 -0.010196 0.018891 -0.003741 0.000000 0.000000 0.000000
# 3 -0.003741 -0.003741 0.014254 0.000000 0.000000 0.000000
# 4 0.000000 0.000000 0.000000 0.080598 0.000000 0.000000
# 5 0.000000 0.000000 0.000000 0.000000 0.080598 0.000000
# 6 0.000000 0.000000 0.000000 0.000000 0.000000 0.058174
#
#
# Mechanical properties :
#
#
# Convention : Reuss Voigt Hill
#
# Bulk Modulus (GPa) = 59.95046 60.41008 60.18027
# Shear Modulus (GPa) = 16.00914 17.63388 16.82151
#
# Velocity S-wave (km/s) = 3.22070 3.38019 3.30141
# Velocity P-wave (km/s) = 7.25774 7.37402 7.31611
#
# Compressibility (1/GPa) = 0.01668044
#
# Stress axis : x y z
#
# Youngs Moduli (GPa) = 52.93615 52.93615 70.15497
#
# Poissons Ratio (x) = 0.53976 0.26242
# Poissons Ratio (y) = 0.53976 0.26242
# Poissons Ratio (z) = 0.19801 0.19801
#
# Static dielectric constant tensor:
#      x y z
#    x 1.498700 0.000000 0.000000 
#    y 0.000000 1.498700 0.000000 
#    z 0.000000 0.000000 1.509520 
# 
# From -- ./inp_files/6055.got.cif
#   From: 2010.05.17/outbox.cif.g08.bks.cpg/sg191_4_cif.got.tgz:6055.got - 2010.05.20 12:20:32.
