data_PCOD9587014
_publ_section_title
;
Structure prediction by ZEFSAII (Michael W. Deem and Ramdas Pophale) SiO2 
 PCOD9587014
Probable space group: P -6 2 C
;
_chemical_formula_sum "Si O2"
_cell_formula_units_Z 72
_cell_length_a 24.000000
_cell_length_b 24.000000
_cell_length_c 9.000000
_cell_angle_alpha 90.000000
_cell_angle_beta 90.000000
_cell_angle_gamma 120.000000
_cell_volume 4489.475693
_symmetry_space_group_name_H-M "P -6 2 C"
_symmetry_group_IT_number 190
_symmetry_cell_setting 'hexagonal'
loop_
_space_group_symop_operation_xyz
x,y,z
-x+y,-x,1/2-z
-y,x-y,z
x,y,1/2-z
-x+y,-x,z
-y,x-y,1/2-z
x-y,-y,-z
-x,-x+y,-z
y,x,-z
y,x,1/2+z
x-y,-y,1/2+z
-x,-x+y,1/2+z
loop_
_atom_site_type_symbol
_atom_site_label
_atom_site_fract_x
_atom_site_fract_y
_atom_site_fract_z
Si Si1 0.814769 0.747460 0.427898
Si Si2 0.391086 0.259392 0.070018
Si Si3 0.069148 0.596498 0.572412
Si Si4 0.261375 0.862065 0.571435
Si Si5 0.255901 0.189529 0.572367
Si Si6 0.596840 0.526864 0.070125
O O1 0.823244 0.754754 0.250000
O O2 0.795723 0.795723 0.500000
O O3 0.758491 0.674241 0.458958
O O4 0.877222 0.753816 0.506273
O O5 0.380055 0.253809 0.250000
O O6 0.446820 0.330221 0.033481
O O7 0.407748 0.205290 0.020513
O O8 0.325537 0.243352 0.988797
O O9 0.060771 0.593153 0.750000
O O10 0.091848 0.546222 0.530287
O O11 0.000000 0.571719 0.500000
O O12 0.262980 0.857022 0.750000
O O13 0.331567 0.883077 0.514807
O O14 0.254148 0.189477 0.750000
O O15 0.204212 0.204212 0.500000
O O16 0.597550 0.532808 0.250000
O O17 0.570260 0.570260 0.000000
#
# Coordination Sequence:
#
# PCOD9587014 Si02
#       6
#    12  12  12  12  12  12
#     4  10  19  32  49  71  96 124 154 188 228 272
#     4   9  17  30  45  64  89 119 151 188 231 276
#     4   9  17  27  42  62  86 114 146 181 222 267
#     4   8  15  27  44  63  88 118 149 184 225 268
#     4  11  21  33  49  70  94 122 153 189 229 274
#     4   9  16  27  42  62  85 113 144 178 218 263
#
# _framework density 16.037507000000002
#
# number of rings (size 3 to 8) (size 9 to 14) (size 15 to 20)
#    0.000    2.667    0.000    4.000    0.000    2.000 
#    0.000    3.333    0.000    1.000    0.000    7.000 
#    0.000    0.000    0.000   10.667    0.000   13.333 
#
# Total GULP energy -400982.235654 kJ/mol
# GULP energy per Si atom -5569.197717 kJ/mol
# Density = 1.600101 g / cm^3
# Si number density = 16.037507 Si / 1000 Ang^3
#
#
#
# Elastic Constant Matrix: (Units=GPa)
#
#
# Indices 1 2 3 4 5 6 
#
# 1 69.5033 63.4117 33.1897 0.0000 0.0000 0.0000
# 2 63.4117 69.5033 33.1897 0.0000 0.0000 0.0000
# 3 33.1897 33.1897 48.3358 0.0000 0.0000 0.0000
# 4 0.0000 0.0000 0.0000 32.1384 0.0000 0.0000
# 5 0.0000 0.0000 0.0000 0.0000 32.1384 0.0000
# 6 0.0000 0.0000 0.0000 0.0000 0.0000 3.0458
#
#
#
# Elastic Compliance Matrix: (Units=1/GPa)
#
#
# Indices 1 2 3 4 5 6 
#
# 1 0.087806 -0.076356 -0.007862 0.000000 0.000000 0.000000
# 2 -0.076356 0.087806 -0.007862 0.000000 0.000000 0.000000
# 3 -0.007862 -0.007862 0.031486 0.000000 0.000000 0.000000
# 4 0.000000 0.000000 0.000000 0.031115 0.000000 0.000000
# 5 0.000000 0.000000 0.000000 0.000000 0.031115 0.000000
# 6 0.000000 0.000000 0.000000 0.000000 0.000000 0.328325
#
#
# Mechanical properties :
#
#
# Convention : Reuss Voigt Hill
#
# Bulk Modulus (GPa) = 43.59740 49.65830 46.62785
# Shear Modulus (GPa) = 6.33344 17.30125 11.81734
#
# Velocity S-wave (km/s) = 1.98940 3.28807 2.71746
# Velocity P-wave (km/s) = 5.70269 6.74139 6.24367
#
# Compressibility (1/GPa) = 0.02293715
#
# Stress axis : x y z
#
# Youngs Moduli (GPa) = 11.38871 11.38871 31.76043
#
# Poissons Ratio (x) = 0.86960 0.24971
# Poissons Ratio (y) = 0.86960 0.24971
# Poissons Ratio (z) = 0.08954 0.08954
#
# Static dielectric constant tensor:
#      x y z
#    x 1.564170 0.000000 0.000000 
#    y 0.000000 1.564170 0.000000 
#    z 0.000000 0.000000 1.531010 
# 
# From -- ./inp_files/1176.got.cif
#   From: 2010.05.17/outbox.ucp.g08.bks.cvg/sg190_1_cif.got.tgz:1176.got - 2010.06.11 15:22:26.
