data_PCOD9587705
_publ_section_title
;
Structure prediction by ZEFSAII (Michael W. Deem and Ramdas Pophale) SiO2 
 PCOD9587705
Probable space group: P 6/M M M
;
_chemical_formula_sum "Si O2"
_cell_formula_units_Z 132
_cell_length_a 27.158799
_cell_length_b 27.158799
_cell_length_c 12.430468
_cell_angle_alpha 90.000000
_cell_angle_beta 90.000000
_cell_angle_gamma 120.000000
_cell_volume 7940.342457
_symmetry_space_group_name_H-M "P 6/M M M"
_symmetry_group_IT_number 191
_symmetry_cell_setting 'hexagonal'
loop_
_space_group_symop_operation_xyz
x,y,z
x-y,x,z
-y,x-y,z
-x,-y,z
-x+y,-x,z
y,-x+y,z
x-y,-y,-z
-x,-x+y,-z
y,x,-z
-y,-x,-z
-x+y,y,-z
x,x-y,-z
-x,-y,-z
-x+y,-x,-z
y,-x+y,-z
x,y,-z
x-y,x,-z
-y,x-y,-z
-x+y,y,z
x,x-y,z
-y,-x,z
y,x,z
x-y,-y,z
-x,-x+y,z
loop_
_atom_site_type_symbol
_atom_site_label
_atom_site_fract_x
_atom_site_fract_y
_atom_site_fract_z
Si Si1 0.635094 0.763034 0.000000
Si Si2 0.234849 0.879960 0.240042
Si Si3 0.931811 0.465906 0.626335
Si Si4 0.889809 0.355616 0.228713
Si Si5 0.563162 0.933821 0.000000
Si Si6 0.240726 0.176252 0.370754
Si Si7 0.667678 0.219593 0.124738
O O1 0.665493 0.773655 0.114849
O O2 0.590734 0.696992 0.000000
O O3 0.607635 0.803818 0.000000
O O4 0.187347 0.812654 0.257317
O O5 0.301141 0.897542 0.252564
O O6 0.217038 0.915339 0.317017
O O7 0.917503 0.458752 0.500000
O O8 0.908396 0.503842 0.682998
O O9 0.000000 0.500000 0.637511
O O10 0.823254 0.326765 0.202853
O O11 0.920026 0.387313 0.115830
O O12 0.609797 0.000000 0.000000
O O13 0.246719 0.180750 0.500000
O O14 0.224042 0.112021 0.340783
O O15 0.196349 0.196349 0.339124
O O16 0.606493 0.212986 0.139325
O O17 0.716377 0.283624 0.142398
O O18 0.671904 0.205504 0.000000
#
# Coordination Sequence:
#
# PCOD9587705 Si02
#       7
#    12  24  12  24  12  24  24
#     4   8  16  30  47  71 107 137 162 199 247 308
#     4   9  18  31  51  79 106 136 170 205 254 309
#     4  11  26  43  55  69  95 136 183 227 269 315
#     4  11  20  36  54  75 103 135 173 213 264 318
#     4  10  20  31  50  78 103 130 165 207 259 314
#     4   9  18  33  53  77 105 137 176 220 262 304
#     4  10  19  32  53  83 111 132 161 206 266 326
#
# _framework density 16.623968000000001
#
# number of rings (size 3 to 8) (size 9 to 14) (size 15 to 20)
#    0.000    2.273    1.818    1.273    0.000    6.182 
#    0.000    2.727    0.000    1.818    0.000    1.273 
#    0.000    0.000    0.000    0.000    0.000   10.727 
#
# Total GULP energy -734980.584646 kJ/mol
# GULP energy per Si atom -5568.034732 kJ/mol
# Density = 1.658613 g / cm^3
# Si number density = 16.623968 Si / 1000 Ang^3
#
#
#
# Elastic Constant Matrix: (Units=GPa)
#
#
# Indices 1 2 3 4 5 6 
#
# 1 75.8948 38.6421 32.8779 0.0000 0.0000 0.0000
# 2 38.6421 75.8948 32.8779 0.0000 0.0000 0.0000
# 3 32.8779 32.8779 63.8161 0.0000 0.0000 0.0000
# 4 0.0000 0.0000 0.0000 21.2919 0.0000 0.0000
# 5 0.0000 0.0000 0.0000 0.0000 21.2919 0.0000
# 6 0.0000 0.0000 0.0000 0.0000 0.0000 18.6264
#
#
#
# Elastic Compliance Matrix: (Units=1/GPa)
#
#
# Indices 1 2 3 4 5 6 
#
# 1 0.019621 -0.007223 -0.006387 0.000000 0.000000 0.000000
# 2 -0.007223 0.019621 -0.006387 0.000000 0.000000 0.000000
# 3 -0.006387 -0.006387 0.022251 0.000000 0.000000 0.000000
# 4 0.000000 0.000000 0.000000 0.046966 0.000000 0.000000
# 5 0.000000 0.000000 0.000000 0.000000 0.046966 0.000000
# 6 0.000000 0.000000 0.000000 0.000000 0.000000 0.053687
#
#
# Mechanical properties :
#
#
# Convention : Reuss Voigt Hill
#
# Bulk Modulus (GPa) = 46.51636 47.15570 46.83603
# Shear Modulus (GPa) = 19.51039 19.65590 19.58315
#
# Velocity S-wave (km/s) = 3.42955 3.44231 3.43593
# Velocity P-wave (km/s) = 6.61246 6.65034 6.63143
#
# Compressibility (1/GPa) = 0.02149782
#
# Stress axis : x y z
#
# Youngs Moduli (GPa) = 50.96650 50.96650 44.94080
#
# Poissons Ratio (x) = 0.36813 0.28705
# Poissons Ratio (y) = 0.36813 0.28705
# Poissons Ratio (z) = 0.32554 0.32554
#
# Static dielectric constant tensor:
#      x y z
#    x 1.570670 0.000000 0.000000 
#    y 0.000000 1.570670 0.000000 
#    z 0.000000 0.000000 1.585360 
# 
# From -- ./inp_files/3400.got.cif
#   From: 2010.05.17/outbox.cif.g08.bks.cpg/sg191_2_cif.got.tgz:3400.got - 2010.05.20 12:20:32.
