data_PCOD9587812
_publ_section_title
;
Structure prediction by ZEFSAII (Michael W. Deem and Ramdas Pophale) SiO2 
 PCOD9587812
Probable space group: P 6/M M M
;
_chemical_formula_sum "Si O2"
_cell_formula_units_Z 168
_cell_length_a 21.265647
_cell_length_b 21.265647
_cell_length_c 29.265507
_cell_angle_alpha 90.000000
_cell_angle_beta 90.000000
_cell_angle_gamma 120.000000
_cell_volume 11461.564032
_symmetry_space_group_name_H-M "P 6/M M M"
_symmetry_group_IT_number 191
_symmetry_cell_setting 'hexagonal'
loop_
_space_group_symop_operation_xyz
x,y,z
x-y,x,z
-y,x-y,z
-x,-y,z
-x+y,-x,z
y,-x+y,z
x-y,-y,-z
-x,-x+y,-z
y,x,-z
-y,-x,-z
-x+y,y,-z
x,x-y,-z
-x,-y,-z
-x+y,-x,-z
y,-x+y,-z
x,y,-z
x-y,x,-z
-y,x-y,-z
-x+y,y,z
x,x-y,z
-y,-x,z
y,x,z
x-y,-y,z
-x,-x+y,z
loop_
_atom_site_type_symbol
_atom_site_label
_atom_site_fract_x
_atom_site_fract_y
_atom_site_fract_z
Si Si1 0.188064 0.523442 0.694527
Si Si2 0.774154 0.081113 0.275275
Si Si3 0.774170 0.082649 0.446849
Si Si4 0.183051 0.516143 0.864022
Si Si5 0.082684 0.617668 0.052187
Si Si6 0.315093 0.916674 0.636665
Si Si7 0.563359 0.914850 0.223138
O O1 0.254514 0.509028 0.702917
O O2 0.215885 0.607943 0.690491
O O3 0.142802 0.479151 0.650273
O O4 0.130393 0.491003 0.735904
O O5 0.855627 0.144374 0.271000
O O6 0.740655 0.089255 0.323343
O O7 0.723606 0.087757 0.236566
O O8 0.759957 0.000000 0.273790
O O9 0.757690 0.088453 0.500000
O O10 0.857202 0.142799 0.438592
O O11 0.724222 0.095828 0.411682
O O12 0.754742 0.000000 0.439025
O O13 0.258490 0.516980 0.857864
O O14 0.196165 0.598083 0.864867
O O15 0.142392 0.476245 0.910820
O O16 0.127186 0.473321 0.823102
O O17 0.082022 0.541011 0.052413
O O18 0.000000 0.596188 0.064066
O O19 0.098112 0.645130 0.000000
O O20 0.380447 0.000000 0.638773
O O21 0.587480 0.000000 0.222131
#
# Coordination Sequence:
#
# PCOD9587812 Si02
#       7
#    24  24  24  24  24  24  24
#     4  11  21  32  46  64  89 115 138 166 205 259
#     4   9  16  27  43  62  84 108 136 169 205 245
#     4   9  16  26  42  64  88 112 140 176 217 257
#     4  11  21  31  43  60  86 115 141 171 210 258
#     4   8  15  29  47  63  78 101 137 178 213 244
#     4   9  17  29  46  65  83 107 140 178 213 242
#     4  10  20  32  47  64  81 107 143 181 214 243
#
# _framework density 14.657686
#
# number of rings (size 3 to 8) (size 9 to 14) (size 15 to 20)
#    0.000    2.429    0.000    6.286    0.000    2.857 
#    0.000    1.429    0.000    1.571    0.000    3.000 
#    0.000    4.571    0.000    0.143    0.000    0.000 
#
# Total GULP energy -936009.825341 kJ/mol
# GULP energy per Si atom -5571.487056 kJ/mol
# Density = 1.462432 g / cm^3
# Si number density = 14.657686 Si / 1000 Ang^3
#
#
#
# Elastic Constant Matrix: (Units=GPa)
#
#
# Indices 1 2 3 4 5 6 
#
# 1 67.3339 38.9952 27.7474 0.0000 0.0000 0.0000
# 2 38.9952 67.3339 27.7474 0.0000 0.0000 0.0000
# 3 27.7474 27.7474 66.8904 0.0000 0.0000 0.0000
# 4 0.0000 0.0000 0.0000 15.9281 0.0000 0.0000
# 5 0.0000 0.0000 0.0000 0.0000 15.9281 0.0000
# 6 0.0000 0.0000 0.0000 0.0000 0.0000 14.1694
#
#
#
# Elastic Compliance Matrix: (Units=1/GPa)
#
#
# Indices 1 2 3 4 5 6 
#
# 1 0.023645 -0.011642 -0.004979 0.000000 0.000000 0.000000
# 2 -0.011642 0.023645 -0.004979 0.000000 0.000000 0.000000
# 3 -0.004979 -0.004979 0.019081 0.000000 0.000000 0.000000
# 4 0.000000 0.000000 0.000000 0.062782 0.000000 0.000000
# 5 0.000000 0.000000 0.000000 0.000000 0.062782 0.000000
# 6 0.000000 0.000000 0.000000 0.000000 0.000000 0.070575
#
#
# Mechanical properties :
#
#
# Convention : Reuss Voigt Hill
#
# Bulk Modulus (GPa) = 43.15788 43.39313 43.27550
# Shear Modulus (GPa) = 15.95226 16.34301 16.14763
#
# Velocity S-wave (km/s) = 3.30255 3.34275 3.32271
# Velocity P-wave (km/s) = 6.63703 6.67587 6.65648
#
# Compressibility (1/GPa) = 0.02317074
#
# Stress axis : x y z
#
# Youngs Moduli (GPa) = 42.29143 42.29143 52.40868
#
# Poissons Ratio (x) = 0.49235 0.26096
# Poissons Ratio (y) = 0.49235 0.26096
# Poissons Ratio (z) = 0.21058 0.21058
#
# Static dielectric constant tensor:
#      x y z
#    x 1.483020 0.000000 0.000000 
#    y 0.000000 1.483020 0.000000 
#    z 0.000000 0.000000 1.495700 
# 
# From -- ./inp_files/10075.got.cif
#   From: 2010.05.17/outbox.cif.g08.bks.cpg/sg191_6_cif.got.tgz:10075.got - 2010.05.20 12:20:32.
