data_PCOD9587307
_publ_section_title
;
Structure prediction by ZEFSAII (Michael W. Deem and Ramdas Pophale) SiO2 
 PCOD9587307
Probable space group: P 6/M M M
;
_chemical_formula_sum "Si O2"
_cell_formula_units_Z 120
_cell_length_a 21.942124
_cell_length_b 21.942124
_cell_length_c 18.896824
_cell_angle_alpha 90.000000
_cell_angle_beta 90.000000
_cell_angle_gamma 120.000000
_cell_volume 7879.103038
_symmetry_space_group_name_H-M "P 6/M M M"
_symmetry_group_IT_number 191
_symmetry_cell_setting 'hexagonal'
loop_
_space_group_symop_operation_xyz
x,y,z
x-y,x,z
-y,x-y,z
-x,-y,z
-x+y,-x,z
y,-x+y,z
x-y,-y,-z
-x,-x+y,-z
y,x,-z
-y,-x,-z
-x+y,y,-z
x,x-y,-z
-x,-y,-z
-x+y,-x,-z
y,-x+y,-z
x,y,-z
x-y,x,-z
-y,x-y,-z
-x+y,y,z
x,x-y,z
-y,-x,z
y,x,z
x-y,-y,z
-x,-x+y,z
loop_
_atom_site_type_symbol
_atom_site_label
_atom_site_fract_x
_atom_site_fract_y
_atom_site_fract_z
Si Si1 0.554712 0.705797 0.137908
Si Si2 0.334065 0.812089 0.285808
Si Si3 0.919588 0.218862 0.215949
Si Si4 0.613829 0.082009 0.000000
Si Si5 0.298249 0.918742 0.356747
Si Si6 0.777710 0.695328 0.500000
O O1 0.544393 0.772197 0.122318
O O2 0.506994 0.666913 0.206448
O O3 0.635395 0.737909 0.162898
O O4 0.538451 0.657520 0.070203
O O5 0.404983 0.809965 0.297766
O O6 0.264944 0.735057 0.291400
O O7 0.324592 0.864404 0.338710
O O8 0.862705 0.137296 0.208522
O O9 0.911567 0.245321 0.293578
O O10 0.000000 0.240733 0.205837
O O11 0.543014 0.086028 0.000000
O O12 0.590759 0.000000 0.000000
O O13 0.258151 0.906127 0.430656
O O14 0.360651 0.000000 0.355365
O O15 0.756074 0.756074 0.500000
O O16 0.860166 0.720332 0.500000
#
# Coordination Sequence:
#
# PCOD9587307 Si02
#       6
#    24  24  24  12  24  12
#     4   9  18  32  48  63  84 115 150 187 220 255
#     4  10  19  32  49  68  90 117 151 188 228 274
#     4   9  16  28  46  67  89 114 146 182 220 261
#     4  11  21  30  42  64  92 117 141 173 218 268
#     4   9  18  31  48  69  91 117 151 190 227 263
#     4  10  18  30  49  72  97 123 153 189 228 268
#
# _framework density 15.23016
#
# number of rings (size 3 to 8) (size 9 to 14) (size 15 to 20)
#    0.000    2.500    0.000    4.700    0.000    1.200 
#    0.000    0.500    0.000    4.900    0.000    1.400 
#    0.000    4.800    0.000    0.000    0.000   21.200 
#
# Total GULP energy -669072.575337 kJ/mol
# GULP energy per Si atom -5575.604794 kJ/mol
# Density = 1.519550 g / cm^3
# Si number density = 15.230160 Si / 1000 Ang^3
#
#
#
# Elastic Constant Matrix: (Units=GPa)
#
#
# Indices 1 2 3 4 5 6 
#
# 1 109.6731 75.7011 42.2224 0.0000 0.0000 0.0000
# 2 75.7011 109.6731 42.2224 0.0000 0.0000 0.0000
# 3 42.2224 42.2224 86.1245 0.0000 0.0000 0.0000
# 4 0.0000 0.0000 0.0000 16.1170 0.0000 0.0000
# 5 0.0000 0.0000 0.0000 0.0000 16.1170 0.0000
# 6 0.0000 0.0000 0.0000 0.0000 0.0000 16.9860
#
#
#
# Elastic Compliance Matrix: (Units=1/GPa)
#
#
# Indices 1 2 3 4 5 6 
#
# 1 0.018191 -0.011245 -0.003405 0.000000 0.000000 0.000000
# 2 -0.011245 0.018191 -0.003405 0.000000 0.000000 0.000000
# 3 -0.003405 -0.003405 0.014950 0.000000 0.000000 0.000000
# 4 0.000000 0.000000 0.000000 0.062046 0.000000 0.000000
# 5 0.000000 0.000000 0.000000 0.000000 0.062046 0.000000
# 6 0.000000 0.000000 0.000000 0.000000 0.000000 0.058872
#
#
# Mechanical properties :
#
#
# Convention : Reuss Voigt Hill
#
# Bulk Modulus (GPa) = 65.70000 69.52917 67.61458
# Shear Modulus (GPa) = 18.15014 19.53234 18.84124
#
# Velocity S-wave (km/s) = 3.45588 3.58505 3.52106
# Velocity P-wave (km/s) = 7.69129 7.93021 7.81166
#
# Compressibility (1/GPa) = 0.01522070
#
# Stress axis : x y z
#
# Youngs Moduli (GPa) = 54.97283 54.97283 66.89067
#
# Poissons Ratio (x) = 0.61818 0.22777
# Poissons Ratio (y) = 0.61818 0.22777
# Poissons Ratio (z) = 0.18719 0.18719
#
# Static dielectric constant tensor:
#      x y z
#    x 1.493790 0.000000 0.000000 
#    y 0.000000 1.493790 0.000000 
#    z 0.000000 0.000000 1.495000 
# 
# From -- ./inp_files/6267.got.cif
#   From: 2010.05.17/outbox.cif.g08.bks.cpg/sg191_4_cif.got.tgz:6267.got - 2010.05.20 12:20:32.
