data_PCOD9587980
_publ_section_title
;
Structure prediction by ZEFSAII (Michael W. Deem and Ramdas Pophale) SiO2 
 PCOD9587980
Probable space group: P 6/M M M
;
_chemical_formula_sum "Si O2"
_cell_formula_units_Z 120
_cell_length_a 18.376690
_cell_length_b 18.376690
_cell_length_c 28.133306
_cell_angle_alpha 90.000000
_cell_angle_beta 90.000000
_cell_angle_gamma 120.000000
_cell_volume 8227.842696
_symmetry_space_group_name_H-M "P 6/M M M"
_symmetry_group_IT_number 191
_symmetry_cell_setting 'hexagonal'
loop_
_space_group_symop_operation_xyz
x,y,z
x-y,x,z
-y,x-y,z
-x,-y,z
-x+y,-x,z
y,-x+y,z
x-y,-y,-z
-x,-x+y,-z
y,x,-z
-y,-x,-z
-x+y,y,-z
x,x-y,-z
-x,-y,-z
-x+y,-x,-z
y,-x+y,-z
x,y,-z
x-y,x,-z
-y,x-y,-z
-x+y,y,z
x,x-y,z
-y,-x,z
y,x,z
x-y,-y,z
-x,-x+y,z
loop_
_atom_site_type_symbol
_atom_site_label
_atom_site_fract_x
_atom_site_fract_y
_atom_site_fract_z
Si Si1 0.000000 0.411476 0.774372
Si Si2 0.168451 0.000000 0.557836
Si Si3 0.494904 0.161520 0.602466
Si Si4 0.000000 0.662108 0.557043
Si Si5 0.667385 0.163370 0.284032
Si Si6 0.411518 0.411518 0.883606
Si Si7 0.332840 0.494605 0.943978
O O1 0.083144 0.431006 0.745886
O O2 0.000000 0.387332 0.828979
O O3 0.000000 0.500000 0.774255
O O4 0.084373 0.915628 0.573311
O O5 0.167407 0.000000 0.500000
O O6 0.252978 0.000000 0.572100
O O7 0.583860 0.167719 0.591208
O O8 0.497259 0.248630 0.591039
O O9 0.419123 0.082989 0.576389
O O10 0.481752 0.147835 0.659406
O O11 0.000000 0.659727 0.500000
O O12 0.589082 0.178164 0.274499
O O13 0.753892 0.246109 0.272074
O O14 0.500000 0.500000 0.883733
O O15 0.347885 0.431571 0.911858
O O16 0.246264 0.492528 0.933807
O O17 0.411627 0.588374 0.936068
O O18 0.334575 0.475913 0.000000
#
# Coordination Sequence:
#
# PCOD9587980 Si02
#       7
#    12  12  24  12  24  12  24
#     4   9  17  28  41  60  86 112 138 171 213 260
#     4   9  17  30  48  68  89 113 141 173 209 250
#     4  10  20  34  51  69  89 115 148 184 221 262
#     4  11  22  34  48  68  94 121 147 177 216 263
#     4   9  17  30  48  67  86 110 142 179 217 257
#     4   9  17  27  38  55  82 113 141 173 217 263
#     4   9  16  26  40  57  78 108 148 189 223 256
#
# _framework density 14.584626
#
# number of rings (size 3 to 8) (size 9 to 14) (size 15 to 20)
#    0.000    2.600    0.000    2.500    0.000    8.400 
#    0.000    0.000    0.000    3.600    0.000    0.000 
#    0.000    0.000    0.000    0.600    0.000    7.100 
#
# Total GULP energy -668957.640128 kJ/mol
# GULP energy per Si atom -5574.647001 kJ/mol
# Density = 1.455143 g / cm^3
# Si number density = 14.584626 Si / 1000 Ang^3
#
#
#
# Elastic Constant Matrix: (Units=GPa)
#
#
# Indices 1 2 3 4 5 6 
#
# 1 128.0067 74.3259 62.2600 0.0000 0.0000 0.0000
# 2 74.3259 128.0067 62.2600 0.0000 0.0000 0.0000
# 3 62.2600 62.2600 54.5567 0.0000 0.0000 0.0000
# 4 0.0000 0.0000 0.0000 15.4926 0.0000 0.0000
# 5 0.0000 0.0000 0.0000 0.0000 15.4926 0.0000
# 6 0.0000 0.0000 0.0000 0.0000 0.0000 26.8404
#
#
#
# Elastic Compliance Matrix: (Units=1/GPa)
#
#
# Indices 1 2 3 4 5 6 
#
# 1 0.017616 -0.001013 -0.018947 0.000000 0.000000 0.000000
# 2 -0.001013 0.017616 -0.018947 0.000000 0.000000 0.000000
# 3 -0.018947 -0.018947 0.061575 0.000000 0.000000 0.000000
# 4 0.000000 0.000000 0.000000 0.064547 0.000000 0.000000
# 5 0.000000 0.000000 0.000000 0.000000 0.064547 0.000000
# 6 0.000000 0.000000 0.000000 0.000000 0.000000 0.037257
#
#
# Mechanical properties :
#
#
# Convention : Reuss Voigt Hill
#
# Bulk Modulus (GPa) = 52.65489 78.69577 65.67533
# Shear Modulus (GPa) = 14.39667 19.01339 16.70503
#
# Velocity S-wave (km/s) = 3.14524 3.61454 3.38803
# Velocity P-wave (km/s) = 7.02648 8.45547 7.77388
#
# Compressibility (1/GPa) = 0.01899159
#
# Stress axis : x y z
#
# Youngs Moduli (GPa) = 56.76729 56.76729 16.24044
#
# Poissons Ratio (x) = 0.05750 0.30771
# Poissons Ratio (y) = 0.05750 0.30771
# Poissons Ratio (z) = 1.07558 1.07558
#
# Static dielectric constant tensor:
#      x y z
#    x 1.464630 0.000000 0.000000 
#    y 0.000000 1.464630 0.000000 
#    z 0.000000 0.000000 1.480700 
# 
# From -- ./inp_files/8657.got.cif
#   From: 2010.05.17/outbox.cif.g08.bks.cpg/sg191_5_cif.got.tgz:8657.got - 2010.05.20 12:20:32.
