data_PCOD9587018
_publ_section_title
;
Structure prediction by ZEFSAII (Michael W. Deem and Ramdas Pophale) SiO2 
 PCOD9587018
Probable space group: P -6 2 C
;
_chemical_formula_sum "Si O2"
_cell_formula_units_Z 78
_cell_length_a 24.000000
_cell_length_b 24.000000
_cell_length_c 9.000000
_cell_angle_alpha 90.000000
_cell_angle_beta 90.000000
_cell_angle_gamma 120.000000
_cell_volume 4489.475693
_symmetry_space_group_name_H-M "P -6 2 C"
_symmetry_group_IT_number 190
_symmetry_cell_setting 'hexagonal'
loop_
_space_group_symop_operation_xyz
x,y,z
-x+y,-x,1/2-z
-y,x-y,z
x,y,1/2-z
-x+y,-x,z
-y,x-y,1/2-z
x-y,-y,-z
-x,-x+y,-z
y,x,-z
y,x,1/2+z
x-y,-y,1/2+z
-x,-x+y,1/2+z
loop_
_atom_site_type_symbol
_atom_site_label
_atom_site_fract_x
_atom_site_fract_y
_atom_site_fract_z
Si Si1 0.466582 0.609284 0.077472
Si Si2 0.591823 0.069073 0.073362
Si Si3 0.685163 0.271559 0.250000
Si Si4 0.377730 0.179487 0.922430
Si Si5 0.606370 0.676876 0.928118
Si Si6 0.532091 0.271378 0.921945
Si Si7 0.068614 0.724575 0.926227
O O1 0.479904 0.602528 0.250000
O O2 0.445207 0.663088 0.073992
O O3 0.417611 0.540094 0.010499
O O4 0.532594 0.636526 0.984983
O O5 0.580033 0.068988 0.250000
O O6 0.662707 0.078511 0.053112
O O7 0.542984 0.000000 0.000000
O O8 0.615424 0.266279 0.250000
O O9 0.695520 0.248095 0.412534
O O10 0.359320 0.163296 0.750000
O O11 0.454520 0.230571 0.924047
O O12 0.368547 0.117529 0.011691
O O13 0.343305 0.215016 0.996735
O O14 0.608437 0.675476 0.750000
O O15 0.645816 0.645816 0.000000
O O16 0.549919 0.301250 0.750000
O O17 0.067068 0.734251 0.750000
O O18 0.000000 0.704005 0.000000
#
# Coordination Sequence:
#
# PCOD9587018 Si02
#       7
#    12  12   6  12  12  12  12
#     4  10  20  33  50  73  99 131 166 211 267 320
#     4  10  20  32  47  70  98 128 162 207 256 310
#     4  10  24  38  52  74  92 130 168 226 262 326
#     4  10  21  37  57  80 104 137 173 217 265 321
#     4  11  21  34  54  79 108 140 173 213 257 316
#     4   9  21  38  55  74 100 129 172 216 268 329
#     4  10  21  36  54  78 105 137 174 217 262 317
#
# _framework density 17.373965999999999
#
# number of rings (size 3 to 8) (size 9 to 14) (size 15 to 20)
#    0.154    1.846    0.000    4.615    6.462    3.692 
#    0.000    3.077    0.000    0.000    0.000    0.000 
#    0.000    0.000    0.000    0.462    0.000    6.462 
#
# Total GULP energy -435654.083647 kJ/mol
# GULP energy per Si atom -5585.308765 kJ/mol
# Density = 1.733442 g / cm^3
# Si number density = 17.373966 Si / 1000 Ang^3
#
#
#
# Elastic Constant Matrix: (Units=GPa)
#
#
# Indices 1 2 3 4 5 6 
#
# 1 59.6206 10.0108 46.5535 0.0000 0.0000 0.0000
# 2 10.0108 59.6206 46.5535 0.0000 0.0000 0.0000
# 3 46.5535 46.5535 186.7286 0.0000 0.0000 0.0000
# 4 0.0000 0.0000 0.0000 27.7091 0.0000 0.0000
# 5 0.0000 0.0000 0.0000 0.0000 27.7091 0.0000
# 6 0.0000 0.0000 0.0000 0.0000 0.0000 24.8049
#
#
#
# Elastic Compliance Matrix: (Units=1/GPa)
#
#
# Indices 1 2 3 4 5 6 
#
# 1 0.020850 0.000693 -0.005371 0.000000 0.000000 0.000000
# 2 0.000693 0.020850 -0.005371 0.000000 0.000000 0.000000
# 3 -0.005371 -0.005371 0.008033 0.000000 0.000000 0.000000
# 4 0.000000 0.000000 0.000000 0.036089 0.000000 0.000000
# 5 0.000000 0.000000 0.000000 0.000000 0.036089 0.000000
# 6 0.000000 0.000000 0.000000 0.000000 0.000000 0.040315
#
#
# Mechanical properties :
#
#
# Convention : Reuss Voigt Hill
#
# Bulk Modulus (GPa) = 33.74301 56.91171 45.32736
# Shear Modulus (GPa) = 26.01412 29.56809 27.79110
#
# Velocity S-wave (km/s) = 3.87370 4.12984 4.00382
# Velocity P-wave (km/s) = 6.28261 7.45445 6.89347
#
# Compressibility (1/GPa) = 0.02963576
#
# Stress axis : x y z
#
# Youngs Moduli (GPa) = 47.96131 47.96131 124.48009
#
# Poissons Ratio (x) = -0.03323 0.66857
# Poissons Ratio (y) = -0.03323 0.66857
# Poissons Ratio (z) = 0.25760 0.25760
#
# Static dielectric constant tensor:
#      x y z
#    x 1.599790 0.000000 0.000000 
#    y 0.000000 1.599790 0.000000 
#    z 0.000000 0.000000 1.604240 
# 
# From -- ./inp_files/1346.got.cif
#   From: 2010.05.17/outbox.ucp.g08.bks.cvg/sg190_1_cif.got.tgz:1346.got - 2010.06.11 15:22:26.
