data_PCOD9587393
_publ_section_title
;
Structure prediction by ZEFSAII (Michael W. Deem and Ramdas Pophale) SiO2 
 PCOD9587393
Probable space group: P 6/M M M
;
_chemical_formula_sum "Si O2"
_cell_formula_units_Z 120
_cell_length_a 18.028569
_cell_length_b 18.028569
_cell_length_c 27.826786
_cell_angle_alpha 90.000000
_cell_angle_beta 90.000000
_cell_angle_gamma 120.000000
_cell_volume 7832.784761
_symmetry_space_group_name_H-M "P 6/M M M"
_symmetry_group_IT_number 191
_symmetry_cell_setting 'hexagonal'
loop_
_space_group_symop_operation_xyz
x,y,z
x-y,x,z
-y,x-y,z
-x,-y,z
-x+y,-x,z
y,-x+y,z
x-y,-y,-z
-x,-x+y,-z
y,x,-z
-y,-x,-z
-x+y,y,-z
x,x-y,-z
-x,-y,-z
-x+y,-x,-z
y,-x+y,-z
x,y,-z
x-y,x,-z
-y,x-y,-z
-x+y,y,z
x,x-y,z
-y,-x,z
y,x,z
x-y,-y,z
-x,-x+y,z
loop_
_atom_site_type_symbol
_atom_site_label
_atom_site_fract_x
_atom_site_fract_y
_atom_site_fract_z
Si Si1 0.505102 0.836768 0.197504
Si Si2 0.364132 0.897230 0.909302
Si Si3 0.000000 0.410239 0.554704
Si Si4 0.632188 0.901865 0.716044
Si Si5 0.362912 0.101071 0.000000
Si Si6 0.332084 0.489200 0.376240
O O1 0.427339 0.854677 0.205330
O O2 0.475057 0.737529 0.206658
O O3 0.533148 0.857807 0.142114
O O4 0.582471 0.889792 0.233891
O O5 0.435398 0.870796 0.921186
O O6 0.300018 0.877715 0.952989
O O7 0.415507 0.000000 0.903593
O O8 0.085641 0.432830 0.584021
O O9 0.000000 0.500000 0.553074
O O10 0.000000 0.382564 0.500000
O O11 0.661703 0.830852 0.714531
O O12 0.561792 0.876177 0.673887
O O13 0.704995 0.000000 0.710101
O O14 0.320940 0.160470 0.000000
O O15 0.297276 0.000000 0.000000
O O16 0.249489 0.498978 0.386579
O O17 0.418352 0.581649 0.373400
#
# Coordination Sequence:
#
# PCOD9587393 Si02
#       6
#    24  24  12  24  12  24
#     4  10  19  29  43  65  96 129 160 190 222 261
#     4   9  17  29  45  65  87 115 150 188 228 271
#     4   9  18  32  48  66  92 126 161 198 238 276
#     4  10  20  33  50  71  94 122 154 192 235 281
#     4  10  19  31  47  64  85 113 150 192 233 277
#     4  10  19  31  48  70  97 128 163 199 237 279
#
# _framework density 15.320221999999999
#
# number of rings (size 3 to 8) (size 9 to 14) (size 15 to 20)
#    0.000    2.300    1.000    2.500    0.000    3.600 
#    0.000    2.000    0.000    4.300    0.000    0.000 
#    0.000    0.000    0.000    6.400    0.000    9.100 
#
# Total GULP energy -668942.146999 kJ/mol
# GULP energy per Si atom -5574.517892 kJ/mol
# Density = 1.528535 g / cm^3
# Si number density = 15.320222 Si / 1000 Ang^3
#
#
#
# Elastic Constant Matrix: (Units=GPa)
#
#
# Indices 1 2 3 4 5 6 
#
# 1 89.6153 56.3397 43.4636 0.0000 0.0000 0.0000
# 2 56.3397 89.6153 43.4636 0.0000 0.0000 0.0000
# 3 43.4636 43.4636 79.2744 0.0000 0.0000 0.0000
# 4 0.0000 0.0000 0.0000 15.5784 0.0000 0.0000
# 5 0.0000 0.0000 0.0000 0.0000 15.5784 0.0000
# 6 0.0000 0.0000 0.0000 0.0000 0.0000 16.6378
#
#
#
# Elastic Compliance Matrix: (Units=1/GPa)
#
#
# Indices 1 2 3 4 5 6 
#
# 1 0.020113 -0.009939 -0.005578 0.000000 0.000000 0.000000
# 2 -0.009939 0.020113 -0.005578 0.000000 0.000000 0.000000
# 3 -0.005578 -0.005578 0.018731 0.000000 0.000000 0.000000
# 4 0.000000 0.000000 0.000000 0.064191 0.000000 0.000000
# 5 0.000000 0.000000 0.000000 0.000000 0.064191 0.000000
# 6 0.000000 0.000000 0.000000 0.000000 0.000000 0.060104
#
#
# Mechanical properties :
#
#
# Convention : Reuss Voigt Hill
#
# Bulk Modulus (GPa) = 59.64301 60.55985 60.10143
# Shear Modulus (GPa) = 16.93643 17.24146 17.08894
#
# Velocity S-wave (km/s) = 3.32851 3.35835 3.34346
# Velocity P-wave (km/s) = 7.33399 7.39278 7.36344
#
# Compressibility (1/GPa) = 0.01676642
#
# Stress axis : x y z
#
# Youngs Moduli (GPa) = 49.71970 49.71970 53.38862
#
# Poissons Ratio (x) = 0.49418 0.29779
# Poissons Ratio (y) = 0.49418 0.29779
# Poissons Ratio (z) = 0.27732 0.27732
#
# Static dielectric constant tensor:
#      x y z
#    x 1.498810 0.000000 0.000000 
#    y 0.000000 1.498810 0.000000 
#    z 0.000000 0.000000 1.513100 
# 
# From -- ./inp_files/8626.got.cif
#   From: 2010.05.17/outbox.cif.g08.bks.cpg/sg191_5_cif.got.tgz:8626.got - 2010.05.20 12:20:32.
