data_PCOD9587418
_publ_section_title
;
Structure prediction by ZEFSAII (Michael W. Deem and Ramdas Pophale) SiO2 
 PCOD9587418
Probable space group: P 6/M M M
;
_chemical_formula_sum "Si O2"
_cell_formula_units_Z 96
_cell_length_a 29.671628
_cell_length_b 29.671628
_cell_length_c 7.418766
_cell_angle_alpha 90.000000
_cell_angle_beta 90.000000
_cell_angle_gamma 120.000000
_cell_volume 5656.464367
_symmetry_space_group_name_H-M "P 6/M M M"
_symmetry_group_IT_number 191
_symmetry_cell_setting 'hexagonal'
loop_
_space_group_symop_operation_xyz
x,y,z
x-y,x,z
-y,x-y,z
-x,-y,z
-x+y,-x,z
y,-x+y,z
x-y,-y,-z
-x,-x+y,-z
y,x,-z
-y,-x,-z
-x+y,y,-z
x,x-y,-z
-x,-y,-z
-x+y,-x,-z
y,-x+y,-z
x,y,-z
x-y,x,-z
-y,x-y,-z
-x+y,y,z
x,x-y,z
-y,-x,z
y,x,z
x-y,-y,z
-x,-x+y,z
loop_
_atom_site_type_symbol
_atom_site_label
_atom_site_fract_x
_atom_site_fract_y
_atom_site_fract_z
Si Si1 0.937886 0.517414 0.782615
Si Si2 0.894319 0.686858 0.787133
Si Si3 0.896346 0.896346 0.720306
Si Si4 0.206477 0.206477 0.715075
Si Si5 0.060910 0.383477 0.779489
O O1 0.917316 0.458658 0.715979
O O2 0.919437 0.557303 0.720035
O O3 0.000000 0.548649 0.747411
O O4 0.932011 0.514120 0.000000
O O5 0.844299 0.688598 0.713049
O O6 0.906341 0.642899 0.715058
O O7 0.947464 0.741733 0.769111
O O8 0.885443 0.676901 0.000000
O O9 0.896451 0.948226 0.777296
O O10 0.896054 0.896054 0.500000
O O11 0.844796 0.844796 0.781911
O O12 0.204989 0.204989 0.500000
O O13 0.000000 0.347554 0.727872
O O14 0.061095 0.383487 0.000000
#
# Coordination Sequence:
#
# PCOD9587418 Si02
#       5
#    24  24  12  12  24
#     4   7   9  13  24  45  71  96 118 142 175 209
#     4  10  19  30  44  60  78 102 131 160 196 243
#     4   9  17  29  44  59  72  85 103 134 182 235
#     4  11  21  32  45  60  79  99 124 161 196 235
#     4   8  12  20  34  50  72  98 123 152 185 223
#
# _framework density 16.971731999999999
#
# number of rings (size 3 to 8) (size 9 to 14) (size 15 to 20)
#    0.000    3.250    1.250    3.500    0.000    2.000 
#    0.000    0.000    0.000    0.000    0.000    0.000 
#    0.000    8.000    0.000    0.750    0.000   24.000 
#
# Total GULP energy -534714.409956 kJ/mol
# GULP energy per Si atom -5569.941770 kJ/mol
# Density = 1.693310 g / cm^3
# Si number density = 16.971732 Si / 1000 Ang^3
#
#
#
# Elastic Constant Matrix: (Units=GPa)
#
#
# Indices 1 2 3 4 5 6 
#
# 1 186.8677 49.5370 2.9175 0.0000 0.0000 0.0000
# 2 49.5370 186.8677 2.9175 0.0000 0.0000 0.0000
# 3 2.9175 2.9175 53.0238 0.0000 0.0000 0.0000
# 4 0.0000 0.0000 0.0000 5.1836 0.0000 0.0000
# 5 0.0000 0.0000 0.0000 0.0000 5.1836 0.0000
# 6 0.0000 0.0000 0.0000 0.0000 0.0000 68.6653
#
#
#
# Elastic Compliance Matrix: (Units=1/GPa)
#
#
# Indices 1 2 3 4 5 6 
#
# 1 0.005759 -0.001523 -0.000233 0.000000 0.000000 0.000000
# 2 -0.001523 0.005759 -0.000233 0.000000 0.000000 0.000000
# 3 -0.000233 -0.000233 0.018885 0.000000 0.000000 0.000000
# 4 0.000000 0.000000 0.000000 0.192915 0.000000 0.000000
# 5 0.000000 0.000000 0.000000 0.000000 0.192915 0.000000
# 6 0.000000 0.000000 0.000000 0.000000 0.000000 0.014563
#
#
# Mechanical properties :
#
#
# Convention : Reuss Voigt Hill
#
# Bulk Modulus (GPa) = 37.84378 59.72256 48.78317
# Shear Modulus (GPa) = 11.27188 40.56567 25.91878
#
# Velocity S-wave (km/s) = 2.57992 4.89426 3.91215
# Velocity P-wave (km/s) = 5.58759 8.19782 7.01518
#
# Compressibility (1/GPa) = 0.02642442
#
# Stress axis : x y z
#
# Youngs Moduli (GPa) = 173.64907 173.64907 52.95183
#
# Poissons Ratio (x) = 0.26446 0.01234
# Poissons Ratio (y) = 0.26446 0.01234
# Poissons Ratio (z) = 0.04047 0.04047
#
# Static dielectric constant tensor:
#      x y z
#    x 1.583650 0.000000 0.000000 
#    y 0.000000 1.583650 0.000000 
#    z 0.000000 0.000000 1.655810 
# 
# From -- ./inp_files/1609.got.cif
#   From: 2010.05.17/outbox.cif.g08.bks.cpg/sg191_1_cif.got.tgz:1609.got - 2010.05.20 12:20:32.
