data_PCOD9587152
_publ_section_title
;
Structure prediction by ZEFSAII (Michael W. Deem and Ramdas Pophale) SiO2 
 PCOD9587152
Probable space group: P 6/M M M
;
_chemical_formula_sum "Si O2"
_cell_formula_units_Z 108
_cell_length_a 31.885938
_cell_length_b 31.885938
_cell_length_c 7.986628
_cell_angle_alpha 90.000000
_cell_angle_beta 90.000000
_cell_angle_gamma 120.000000
_cell_volume 7032.220546
_symmetry_space_group_name_H-M "P 6/M M M"
_symmetry_group_IT_number 191
_symmetry_cell_setting 'hexagonal'
loop_
_space_group_symop_operation_xyz
x,y,z
x-y,x,z
-y,x-y,z
-x,-y,z
-x+y,-x,z
y,-x+y,z
x-y,-y,-z
-x,-x+y,-z
y,x,-z
-y,-x,-z
-x+y,y,-z
x,x-y,-z
-x,-y,-z
-x+y,-x,-z
y,-x+y,-z
x,y,-z
x-y,x,-z
-y,x-y,-z
-x+y,y,z
x,x-y,z
-y,-x,z
y,x,z
x-y,-y,z
-x,-x+y,z
loop_
_atom_site_type_symbol
_atom_site_label
_atom_site_fract_x
_atom_site_fract_y
_atom_site_fract_z
Si Si1 0.800120 0.498412 0.315399
Si Si2 0.796983 0.851250 0.704438
Si Si3 0.149832 0.396196 0.198157
Si Si4 0.665898 0.433478 0.000000
Si Si5 0.699860 0.945280 0.702348
O O1 0.805615 0.482324 0.500000
O O2 0.749297 0.498594 0.311831
O O3 0.840064 0.554270 0.284631
O O4 0.795818 0.463807 0.164273
O O5 0.797448 0.851975 0.500000
O O6 0.804955 0.902478 0.763243
O O7 0.836097 0.836097 0.757926
O O8 0.744231 0.807189 0.753613
O O9 0.192799 0.385598 0.252471
O O10 0.097778 0.350504 0.233408
O O11 0.155754 0.405775 0.000000
O O12 0.619040 0.380961 0.000000
O O13 0.714801 0.429602 0.000000
O O14 0.698392 0.944227 0.500000
O O15 0.715471 0.000000 0.755182
#
# Coordination Sequence:
#
# PCOD9587152 Si02
#       5
#    24  24  24  12  24
#     4   9  17  30  47  66  91 123 158 196 232 268
#     4   8  13  21  33  49  70  98 134 176 220 267
#     4  10  18  28  43  63  87 117 152 186 223 271
#     4  10  19  32  48  70  99 129 161 195 230 269
#     4   9  17  27  39  58  83 110 143 181 220 270
#
# _framework density 15.35788
#
# number of rings (size 3 to 8) (size 9 to 14) (size 15 to 20)
#    0.000    2.889    1.111    2.778    0.000    3.111 
#    0.000    0.000    0.000    1.556    0.000    1.556 
#    0.000    1.778    0.000    4.667    0.000    0.000 
#
# Total GULP energy -601713.415913 kJ/mol
# GULP energy per Si atom -5571.420518 kJ/mol
# Density = 1.532292 g / cm^3
# Si number density = 15.357880 Si / 1000 Ang^3
#
#
#
# Elastic Constant Matrix: (Units=GPa)
#
#
# Indices 1 2 3 4 5 6 
#
# 1 83.0996 36.8887 32.8372 0.0000 0.0000 0.0000
# 2 36.8887 83.0996 32.8372 0.0000 0.0000 0.0000
# 3 32.8372 32.8372 69.2102 0.0000 0.0000 0.0000
# 4 0.0000 0.0000 0.0000 13.9322 0.0000 0.0000
# 5 0.0000 0.0000 0.0000 0.0000 13.9322 0.0000
# 6 0.0000 0.0000 0.0000 0.0000 0.0000 23.1054
#
#
#
# Elastic Compliance Matrix: (Units=1/GPa)
#
#
# Indices 1 2 3 4 5 6 
#
# 1 0.016449 -0.005191 -0.005341 0.000000 0.000000 0.000000
# 2 -0.005191 0.016449 -0.005341 0.000000 0.000000 0.000000
# 3 -0.005341 -0.005341 0.019517 0.000000 0.000000 0.000000
# 4 0.000000 0.000000 0.000000 0.071776 0.000000 0.000000
# 5 0.000000 0.000000 0.000000 0.000000 0.071776 0.000000
# 6 0.000000 0.000000 0.000000 0.000000 0.000000 0.043280
#
#
# Mechanical properties :
#
#
# Convention : Reuss Voigt Hill
#
# Bulk Modulus (GPa) = 48.38545 48.94841 48.66693
# Shear Modulus (GPa) = 17.99313 19.05036 18.52175
#
# Velocity S-wave (km/s) = 3.42656 3.52579 3.47653
# Velocity P-wave (km/s) = 6.87232 6.96534 6.91899
#
# Compressibility (1/GPa) = 0.02066737
#
# Stress axis : x y z
#
# Youngs Moduli (GPa) = 60.79479 60.79479 51.23706
#
# Poissons Ratio (x) = 0.31560 0.27367
# Poissons Ratio (y) = 0.31560 0.27367
# Poissons Ratio (z) = 0.32472 0.32472
#
# Static dielectric constant tensor:
#      x y z
#    x 1.491460 0.000000 0.000000 
#    y 0.000000 1.491460 0.000000 
#    z 0.000000 0.000000 1.557770 
# 
# From -- ./inp_files/1717.got.cif
#   From: 2010.05.17/outbox.cif.g08.bks.cpg/sg191_1_cif.got.tgz:1717.got - 2010.05.20 12:20:32.
