data_PCOD9587662
_publ_section_title
;
Structure prediction by ZEFSAII (Michael W. Deem and Ramdas Pophale) SiO2 
 PCOD9587662
Probable space group: P 6/M M M
;
_chemical_formula_sum "Si O2"
_cell_formula_units_Z 108
_cell_length_a 22.200238
_cell_length_b 22.200238
_cell_length_c 18.039833
_cell_angle_alpha 90.000000
_cell_angle_beta 90.000000
_cell_angle_gamma 120.000000
_cell_volume 7699.781573
_symmetry_space_group_name_H-M "P 6/M M M"
_symmetry_group_IT_number 191
_symmetry_cell_setting 'hexagonal'
loop_
_space_group_symop_operation_xyz
x,y,z
x-y,x,z
-y,x-y,z
-x,-y,z
-x+y,-x,z
y,-x+y,z
x-y,-y,-z
-x,-x+y,-z
y,x,-z
-y,-x,-z
-x+y,y,-z
x,x-y,-z
-x,-y,-z
-x+y,-x,-z
y,-x+y,-z
x,y,-z
x-y,x,-z
-y,x-y,-z
-x+y,y,z
x,x-y,z
-y,-x,z
y,x,z
x-y,-y,z
-x,-x+y,z
loop_
_atom_site_type_symbol
_atom_site_label
_atom_site_fract_x
_atom_site_fract_y
_atom_site_fract_z
Si Si1 0.078520 0.611861 0.793670
Si Si2 0.190123 0.667065 0.914968
Si Si3 0.918896 0.568497 0.625054
Si Si4 0.664651 0.475094 0.500000
Si Si5 0.288895 0.212286 0.410263
O O1 0.077898 0.538949 0.795516
O O2 0.133837 0.659477 0.854785
O O3 0.095296 0.639096 0.709780
O O4 0.000000 0.593722 0.810245
O O5 0.200629 0.600315 0.906788
O O6 0.262877 0.737124 0.904286
O O7 0.166735 0.665660 0.000000
O O8 0.861434 0.512568 0.570076
O O9 0.915139 0.638575 0.616189
O O10 0.000000 0.591318 0.607542
O O11 0.605990 0.394011 0.500000
O O12 0.742589 0.485178 0.500000
O O13 0.292208 0.213351 0.500000
O O14 0.279046 0.139523 0.384196
O O15 0.228732 0.228732 0.388370
#
# Coordination Sequence:
#
# PCOD9587662 Si02
#       5
#    24  24  24  12  24
#     4   9  18  31  45  63  85 106 133 171 214 257
#     4   9  17  29  45  64  85 110 139 169 202 243
#     4  10  19  32  49  66  82 105 140 182 221 253
#     4  12  24  35  45  59  84 115 145 175 211 258
#     4   9  16  27  43  63  84 106 135 169 205 243
#
# _framework density 14.026372
#
# number of rings (size 3 to 8) (size 9 to 14) (size 15 to 20)
#    0.000    2.444    1.111    2.000    0.000    4.889 
#    0.000    2.222    0.000    2.889    0.000    1.556 
#    0.000    0.000    0.000    0.000    0.000    0.000 
#
# Total GULP energy -601660.245033 kJ/mol
# GULP energy per Si atom -5570.928195 kJ/mol
# Density = 1.399445 g / cm^3
# Si number density = 14.026372 Si / 1000 Ang^3
#
#
#
# Elastic Constant Matrix: (Units=GPa)
#
#
# Indices 1 2 3 4 5 6 
#
# 1 69.7424 33.6892 48.7940 0.0000 0.0000 0.0000
# 2 33.6892 69.7424 48.7940 0.0000 0.0000 0.0000
# 3 48.7940 48.7940 90.1701 0.0000 0.0000 0.0000
# 4 0.0000 0.0000 0.0000 -60.2281 0.0000 0.0000
# 5 0.0000 0.0000 0.0000 0.0000 -60.2281 0.0000
# 6 0.0000 0.0000 0.0000 0.0000 0.0000 18.0266
#
#
#
# Elastic Compliance Matrix: (Units=1/GPa)
#
#
# Indices 1 2 3 4 5 6 
#
# 1 0.023745 -0.003992 -0.010689 0.000000 0.000000 0.000000
# 2 -0.003992 0.023745 -0.010689 0.000000 0.000000 0.000000
# 3 -0.010689 -0.010689 0.022659 0.000000 0.000000 0.000000
# 4 0.000000 0.000000 0.000000 -0.016604 0.000000 0.000000
# 5 0.000000 0.000000 0.000000 0.000000 -0.016604 0.000000
# 6 0.000000 0.000000 0.000000 0.000000 0.000000 0.055473
#
#
# Mechanical properties :
#
#
# Convention : Reuss Voigt Hill
#
# Bulk Modulus (GPa) = 51.52306 54.68990 53.10648
# Shear Modulus (GPa) = 33.41675 -13.92738 9.74468
#
# Velocity S-wave (km/s) = 4.88630 -3.15452 2.63865
# Velocity P-wave (km/s) = 8.28537 5.08010 6.87222
#
# Compressibility (1/GPa) = 0.01940878
#
# Stress axis : x y z
#
# Youngs Moduli (GPa) = 42.11380 42.11380 44.13292
#
# Poissons Ratio (x) = 0.16810 0.47175
# Poissons Ratio (y) = 0.16810 0.47175
# Poissons Ratio (z) = 0.45017 0.45017
#
# Static dielectric constant tensor:
#      x y z
#    x 1.462060 0.000000 0.000000 
#    y 0.000000 1.462060 0.000000 
#    z 0.000000 0.000000 1.455430 
# 
# From -- ./inp_files/6071.got.cif
#   From: 2010.05.17/outbox.cif.g08.bks.cpg/sg191_4_cif.got.tgz:6071.got - 2010.05.20 12:20:32.
