data_PCOD9587899
_publ_section_title
;
Structure prediction by ZEFSAII (Michael W. Deem and Ramdas Pophale) SiO2 
 PCOD9587899
Probable space group: P 6/M M M
;
_chemical_formula_sum "Si O2"
_cell_formula_units_Z 108
_cell_length_a 18.094333
_cell_length_b 18.094333
_cell_length_c 23.535260
_cell_angle_alpha 90.000000
_cell_angle_beta 90.000000
_cell_angle_gamma 120.000000
_cell_volume 6673.209960
_symmetry_space_group_name_H-M "P 6/M M M"
_symmetry_group_IT_number 191
_symmetry_cell_setting 'hexagonal'
loop_
_space_group_symop_operation_xyz
x,y,z
x-y,x,z
-y,x-y,z
-x,-y,z
-x+y,-x,z
y,-x+y,z
x-y,-y,-z
-x,-x+y,-z
y,x,-z
-y,-x,-z
-x+y,y,-z
x,x-y,-z
-x,-y,-z
-x+y,-x,-z
y,-x+y,-z
x,y,-z
x-y,x,-z
-y,x-y,-z
-x+y,y,z
x,x-y,z
-y,-x,z
y,x,z
x-y,-y,z
-x,-x+y,z
loop_
_atom_site_type_symbol
_atom_site_label
_atom_site_fract_x
_atom_site_fract_y
_atom_site_fract_z
Si Si1 0.903844 0.268089 0.270854
Si Si2 0.490831 0.334099 0.375203
Si Si3 0.665876 0.158653 0.500000
Si Si4 0.492981 0.159936 0.166006
Si Si5 0.266019 0.902951 0.933249
O O1 0.830799 0.169202 0.271064
O O2 0.890142 0.311387 0.326781
O O3 0.885091 0.311131 0.216900
O O4 0.000000 0.287879 0.268431
O O5 0.509123 0.254562 0.376234
O O6 0.578139 0.421862 0.363135
O O7 0.459347 0.342021 0.438363
O O8 0.757296 0.242705 0.500000
O O9 0.591748 0.183495 0.500000
O O10 0.574854 0.149707 0.172222
O O11 0.518562 0.259281 0.167555
O O12 0.443104 0.121276 0.107237
O O13 0.167847 0.832154 0.921492
O O14 0.291045 0.000000 0.921915
O O15 0.282032 0.896428 0.000000
#
# Coordination Sequence:
#
# PCOD9587899 Si02
#       5
#    24  24  12  24  24
#     4  10  21  35  50  68  90 117 148 185 230 276
#     4   9  16  26  42  65  94 127 160 190 219 254
#     4   8  13  22  37  59  88 123 160 192 219 250
#     4  10  20  33  49  70  97 128 159 188 218 255
#     4   9  18  32  49  69  93 122 156 194 237 281
#
# _framework density 16.184114999999998
#
# number of rings (size 3 to 8) (size 9 to 14) (size 15 to 20)
#    0.000    2.667    0.000    1.889    0.000    5.333 
#    0.000    3.889    0.000    3.778    0.000    1.556 
#    0.000    5.333    0.000    0.222    0.000   13.111 
#
# Total GULP energy -601792.859484 kJ/mol
# GULP energy per Si atom -5572.156106 kJ/mol
# Density = 1.614728 g / cm^3
# Si number density = 16.184115 Si / 1000 Ang^3
#
#
#
# Elastic Constant Matrix: (Units=GPa)
#
#
# Indices 1 2 3 4 5 6 
#
# 1 76.6988 67.8868 42.1591 0.0000 0.0000 0.0000
# 2 67.8868 76.6988 42.1591 0.0000 0.0000 0.0000
# 3 42.1591 42.1591 70.7045 0.0000 0.0000 0.0000
# 4 0.0000 0.0000 0.0000 10.6185 0.0000 0.0000
# 5 0.0000 0.0000 0.0000 0.0000 10.6185 0.0000
# 6 0.0000 0.0000 0.0000 0.0000 0.0000 4.4060
#
#
#
# Elastic Compliance Matrix: (Units=1/GPa)
#
#
# Indices 1 2 3 4 5 6 
#
# 1 0.062043 -0.051439 -0.006323 0.000000 0.000000 0.000000
# 2 -0.051439 0.062043 -0.006323 0.000000 0.000000 0.000000
# 3 -0.006323 -0.006323 0.021683 0.000000 0.000000 0.000000
# 4 0.000000 0.000000 0.000000 0.094175 0.000000 0.000000
# 5 0.000000 0.000000 0.000000 0.000000 0.094175 0.000000
# 6 0.000000 0.000000 0.000000 0.000000 0.000000 0.226964
#
#
# Mechanical properties :
#
#
# Convention : Reuss Voigt Hill
#
# Bulk Modulus (GPa) = 56.81814 58.72358 57.77086
# Shear Modulus (GPa) = 7.19301 9.92174 8.55737
#
# Velocity S-wave (km/s) = 2.11048 2.47868 2.30195
# Velocity P-wave (km/s) = 6.41268 6.67497 6.54514
#
# Compressibility (1/GPa) = 0.01760001
#
# Stress axis : x y z
#
# Youngs Moduli (GPa) = 16.11790 16.11790 46.11851
#
# Poissons Ratio (x) = 0.82909 0.29159
# Poissons Ratio (y) = 0.82909 0.29159
# Poissons Ratio (z) = 0.10191 0.10191
#
# Static dielectric constant tensor:
#      x y z
#    x 1.521940 0.000000 0.000000 
#    y 0.000000 1.521940 0.000000 
#    z 0.000000 0.000000 1.582780 
# 
# From -- ./inp_files/7321.got.cif
#   From: 2010.05.17/outbox.cif.g08.bks.cpg/sg191_4_cif.got.tgz:7321.got - 2010.05.20 12:20:32.
