data_PCOD9587010
_publ_section_title
;
Structure prediction by ZEFSAII (Michael W. Deem and Ramdas Pophale) SiO2 
 PCOD9587010
Probable space group: P -6 2 C
;
_chemical_formula_sum "Si O2"
_cell_formula_units_Z 60
_cell_length_a 15.173207
_cell_length_b 15.173207
_cell_length_c 11.488938
_cell_angle_alpha 90.000000
_cell_angle_beta 90.000000
_cell_angle_gamma 120.000000
_cell_volume 2290.684530
_symmetry_space_group_name_H-M "P -6 2 C"
_symmetry_group_IT_number 190
_symmetry_cell_setting 'hexagonal'
loop_
_space_group_symop_operation_xyz
x,y,z
-x+y,-x,1/2-z
-y,x-y,z
x,y,1/2-z
-x+y,-x,z
-y,x-y,1/2-z
x-y,-y,-z
-x,-x+y,-z
y,x,-z
y,x,1/2+z
x-y,-y,1/2+z
-x,-x+y,1/2+z
loop_
_atom_site_type_symbol
_atom_site_label
_atom_site_fract_x
_atom_site_fract_y
_atom_site_fract_z
Si Si1 0.008500 0.744345 0.624593
Si Si2 0.479886 0.428375 0.877149
Si Si3 0.759150 0.551127 0.374941
Si Si4 0.505424 0.711891 0.377174
Si Si5 0.273051 0.007918 0.624077
O O1 0.989047 0.778560 0.750000
O O2 0.938081 0.621322 0.619497
O O3 0.122774 0.762840 0.627566
O O4 0.000000 0.787298 0.500000
O O5 0.470244 0.470836 0.750000
O O6 0.589885 0.440684 0.876375
O O7 0.475601 0.475601 0.000000
O O8 0.735628 0.497187 0.250000
O O9 0.741990 0.490174 0.493213
O O10 0.701874 0.617502 0.379913
O O11 0.487055 0.744262 0.250000
O O12 0.623679 0.738924 0.375216
O O13 0.221018 0.995381 0.750000
O O14 0.220049 0.000000 0.500000
#
# Coordination Sequence:
#
# PCOD9587010 Si02
#       5
#    12  12  12  12  12
#     4   9  18  30  42  58  85 120 154 187 227 284
#     4   9  16  26  40  59  85 114 147 187 232 283
#     4   9  16  26  40  58  83 114 145 178 223 278
#     4   9  16  25  40  63  88 111 140 183 234 283
#     4   8  13  21  34  54  79 103 129 165 211 262
#
# _framework density 26.193045000000001
#
# number of rings (size 3 to 8) (size 9 to 14) (size 15 to 20)
#    0.000    3.200    0.000    1.800    0.000    3.200 
#    0.000    0.000    0.000    0.000    0.000    0.000 
#   54.000    0.000   68.400   16.200   19.200  218.400 
#
# Total GULP energy -334681.900455 kJ/mol
# GULP energy per Si atom -5578.031674 kJ/mol
# Density = 2.613343 g / cm^3
# Si number density = 26.193045 Si / 1000 Ang^3
#
#
#
# Elastic Constant Matrix: (Units=GPa)
#
#
# Indices 1 2 3 4 5 6 
#
# 1 61.2960 23.7397 32.2006 0.0000 0.0000 0.0000
# 2 23.7397 61.2960 32.2006 0.0000 0.0000 0.0000
# 3 32.2006 32.2006 414.7379 0.0000 0.0000 0.0000
# 4 0.0000 0.0000 0.0000 24.1466 0.0000 0.0000
# 5 0.0000 0.0000 0.0000 0.0000 24.1466 0.0000
# 6 0.0000 0.0000 0.0000 0.0000 0.0000 18.7781
#
#
#
# Elastic Compliance Matrix: (Units=1/GPa)
#
#
# Indices 1 2 3 4 5 6 
#
# 1 0.019561 -0.007066 -0.000970 0.000000 0.000000 0.000000
# 2 -0.007066 0.019561 -0.000970 0.000000 0.000000 0.000000
# 3 -0.000970 -0.000970 0.002562 0.000000 0.000000 0.000000
# 4 0.000000 0.000000 0.000000 0.041414 0.000000 0.000000
# 5 0.000000 0.000000 0.000000 0.000000 0.041414 0.000000
# 6 0.000000 0.000000 0.000000 0.000000 0.000000 0.053253
#
#
# Mechanical properties :
#
#
# Convention : Reuss Voigt Hill
#
# Bulk Modulus (GPa) = 42.24689 79.29019 60.76854
# Shear Modulus (GPa) = 24.54997 43.36023 33.95510
#
# Velocity S-wave (km/s) = 3.06481 4.07309 3.60438
# Velocity P-wave (km/s) = 5.35613 7.24274 6.36967
#
# Compressibility (1/GPa) = 0.02367038
#
# Stress axis : x y z
#
# Youngs Moduli (GPa) = 51.12325 51.12325 390.35107
#
# Poissons Ratio (x) = 0.36124 0.37867
# Poissons Ratio (y) = 0.36124 0.37867
# Poissons Ratio (z) = 0.04959 0.04959
#
# Static dielectric constant tensor:
#      x y z
#    x 2.093340 0.000000 0.000000 
#    y 0.000000 2.093340 0.000000 
#    z 0.000000 0.000000 2.122930 
# 
# From -- ./inp_files/1989.got.cif
#   From: 2010.05.17/outbox.cif.g08.bks.cpg/sg190_1_cif.got.tgz:1989.got - 2010.05.20 12:16:56.
