data_PCOD9587961
_publ_section_title
;
Structure prediction by ZEFSAII (Michael W. Deem and Ramdas Pophale) SiO2 
 PCOD9587961
Probable space group: P 6/M M M
;
_chemical_formula_sum "Si O2"
_cell_formula_units_Z 108
_cell_length_a 18.143962
_cell_length_b 18.143962
_cell_length_c 22.107915
_cell_angle_alpha 90.000000
_cell_angle_beta 90.000000
_cell_angle_gamma 120.000000
_cell_volume 6302.932746
_symmetry_space_group_name_H-M "P 6/M M M"
_symmetry_group_IT_number 191
_symmetry_cell_setting 'hexagonal'
loop_
_space_group_symop_operation_xyz
x,y,z
x-y,x,z
-y,x-y,z
-x,-y,z
-x+y,-x,z
y,-x+y,z
x-y,-y,-z
-x,-x+y,-z
y,x,-z
-y,-x,-z
-x+y,y,-z
x,x-y,-z
-x,-y,-z
-x+y,-x,-z
y,-x+y,-z
x,y,-z
x-y,x,-z
-y,x-y,-z
-x+y,y,z
x,x-y,z
-y,-x,z
y,x,z
x-y,-y,z
-x,-x+y,z
loop_
_atom_site_type_symbol
_atom_site_label
_atom_site_fract_x
_atom_site_fract_y
_atom_site_fract_z
Si Si1 0.666173 0.504798 0.780180
Si Si2 0.507313 0.666430 0.638249
Si Si3 0.634911 0.102812 0.000000
Si Si4 0.830321 0.000000 0.573581
Si Si5 0.000000 0.658832 0.427461
Si Si6 0.265811 0.901632 0.886007
O O1 0.739669 0.479338 0.785858
O O2 0.574747 0.425254 0.796408
O O3 0.664365 0.526062 0.709729
O O4 0.693521 0.583727 0.824430
O O5 0.506766 0.753383 0.626451
O O6 0.414875 0.585126 0.626781
O O7 0.578081 0.661266 0.598986
O O8 0.692139 0.124571 0.059628
O O9 0.568459 0.136918 0.000000
O O10 0.578252 0.000000 0.000000
O O11 0.829808 0.914904 0.593848
O O12 0.744868 0.000000 0.591084
O O13 0.832150 0.000000 0.500000
O O14 0.000000 0.655177 0.500000
O O15 0.165688 0.834313 0.885354
O O16 0.293541 0.000000 0.894301
#
# Coordination Sequence:
#
# PCOD9587961 Si02
#       6
#    24  24  12  12  12  24
#     4   9  18  32  52  77 104 134 169 210 255 303
#     4  10  21  37  56  77 103 136 176 218 263 314
#     4   9  17  30  49  76 108 140 172 209 255 310
#     4   9  17  31  53  79 105 133 164 199 243 298
#     4  11  23  37  53  77 107 136 167 211 263 315
#     4  10  20  33  51  76 106 141 181 223 267 311
#
# _framework density 17.134882000000001
#
# number of rings (size 3 to 8) (size 9 to 14) (size 15 to 20)
#    0.000    2.333    0.000    2.556    1.556    5.778 
#    0.000    0.000    0.000    4.667    0.000    0.000 
#    0.000    2.667    0.000    0.000    0.000    0.000 
#
# Total GULP energy -602582.299449 kJ/mol
# GULP energy per Si atom -5579.465736 kJ/mol
# Density = 1.709588 g / cm^3
# Si number density = 17.134882 Si / 1000 Ang^3
#
#
#
# Elastic Constant Matrix: (Units=GPa)
#
#
# Indices 1 2 3 4 5 6 
#
# 1 120.5567 70.4383 55.1718 0.0000 0.0000 0.0000
# 2 70.4383 120.5567 55.1718 0.0000 0.0000 0.0000
# 3 55.1718 55.1718 56.9901 0.0000 0.0000 0.0000
# 4 0.0000 0.0000 0.0000 21.6977 0.0000 0.0000
# 5 0.0000 0.0000 0.0000 0.0000 21.6977 0.0000
# 6 0.0000 0.0000 0.0000 0.0000 0.0000 25.0592
#
#
#
# Elastic Compliance Matrix: (Units=1/GPa)
#
#
# Indices 1 2 3 4 5 6 
#
# 1 0.015917 -0.004036 -0.011501 0.000000 0.000000 0.000000
# 2 -0.004036 0.015917 -0.011501 0.000000 0.000000 0.000000
# 3 -0.011501 -0.011501 0.039816 0.000000 0.000000 0.000000
# 4 0.000000 0.000000 0.000000 0.046088 0.000000 0.000000
# 5 0.000000 0.000000 0.000000 0.000000 0.046088 0.000000
# 6 0.000000 0.000000 0.000000 0.000000 0.000000 0.039906
#
#
# Mechanical properties :
#
#
# Convention : Reuss Voigt Hill
#
# Bulk Modulus (GPa) = 56.91166 73.29634 65.10400
# Shear Modulus (GPa) = 18.96348 21.51237 20.23793
#
# Velocity S-wave (km/s) = 3.33035 3.54711 3.44043
# Velocity P-wave (km/s) = 6.93356 7.72301 7.33891
#
# Compressibility (1/GPa) = 0.01757109
#
# Stress axis : x y z
#
# Youngs Moduli (GPa) = 62.82753 62.82753 25.11574
#
# Poissons Ratio (x) = 0.25358 0.28887
# Poissons Ratio (y) = 0.25358 0.28887
# Poissons Ratio (z) = 0.72260 0.72260
#
# Static dielectric constant tensor:
#      x y z
#    x 1.567300 0.000000 0.000000 
#    y 0.000000 1.567300 0.000000 
#    z 0.000000 0.000000 1.580920 
# 
# From -- ./inp_files/7389.got.cif
#   From: 2010.05.17/outbox.cif.g08.bks.cpg/sg191_4_cif.got.tgz:7389.got - 2010.05.20 12:20:32.
