data_PCOD9587494
_publ_section_title
;
Structure prediction by ZEFSAII (Michael W. Deem and Ramdas Pophale) SiO2 
 PCOD9587494
Probable space group: P 6/M M M
;
_chemical_formula_sum "Si O2"
_cell_formula_units_Z 120
_cell_length_a 17.952149
_cell_length_b 17.952149
_cell_length_c 26.180515
_cell_angle_alpha 90.000000
_cell_angle_beta 90.000000
_cell_angle_gamma 120.000000
_cell_volume 7307.043712
_symmetry_space_group_name_H-M "P 6/M M M"
_symmetry_group_IT_number 191
_symmetry_cell_setting 'hexagonal'
loop_
_space_group_symop_operation_xyz
x,y,z
x-y,x,z
-y,x-y,z
-x,-y,z
-x+y,-x,z
y,-x+y,z
x-y,-y,-z
-x,-x+y,-z
y,x,-z
-y,-x,-z
-x+y,y,-z
x,x-y,-z
-x,-y,-z
-x+y,-x,-z
y,-x+y,-z
x,y,-z
x-y,x,-z
-y,x-y,-z
-x+y,y,z
x,x-y,z
-y,-x,z
y,x,z
x-y,-y,z
-x,-x+y,z
loop_
_atom_site_type_symbol
_atom_site_label
_atom_site_fract_x
_atom_site_fract_y
_atom_site_fract_z
Si Si1 0.629372 0.899445 0.600250
Si Si2 0.632524 0.729680 0.204492
Si Si3 0.490503 0.157873 0.301370
Si Si4 0.532532 0.896263 0.500000
Si Si5 0.097902 0.458770 0.000000
Si Si6 0.163044 0.668977 0.111343
O O1 0.663088 0.831544 0.603642
O O2 0.570813 0.885181 0.649912
O O3 0.567763 0.874819 0.550783
O O4 0.701012 0.000000 0.596432
O O5 0.659048 0.829524 0.207021
O O6 0.708816 0.708816 0.208573
O O7 0.565465 0.682519 0.250545
O O8 0.580584 0.691302 0.151919
O O9 0.573892 0.147783 0.302909
O O10 0.516333 0.258166 0.301667
O O11 0.430676 0.861351 0.500000
O O12 0.578762 0.000000 0.500000
O O13 0.141714 0.460157 0.946690
O O14 0.097110 0.548555 0.000000
O O15 0.000000 0.383108 0.000000
O O16 0.144633 0.572317 0.117300
O O17 0.263125 0.736875 0.121032
#
# Coordination Sequence:
#
# PCOD9587494 Si02
#       6
#    24  24  24  12  12  24
#     4  10  20  33  50  72  97 127 163 203 245 286
#     4  10  21  35  51  71  94 122 155 193 236 280
#     4  10  20  33  50  73 101 131 161 193 230 273
#     4   9  17  30  49  72  96 122 154 191 231 280
#     4   9  17  28  42  60  84 119 163 205 237 266
#     4  10  19  30  45  66  94 127 161 195 231 273
#
# _framework density 16.422511
#
# number of rings (size 3 to 8) (size 9 to 14) (size 15 to 20)
#    0.000    2.200    0.000    3.400    0.000    4.400 
#    0.000    3.000    0.000    3.200    0.000    0.000 
#    0.000    7.200    0.000    0.000    0.000   21.600 
#
# Total GULP energy -669322.598242 kJ/mol
# GULP energy per Si atom -5577.688319 kJ/mol
# Density = 1.638513 g / cm^3
# Si number density = 16.422511 Si / 1000 Ang^3
#
#
#
# Elastic Constant Matrix: (Units=GPa)
#
#
# Indices 1 2 3 4 5 6 
#
# 1 89.3331 69.1832 32.6425 0.0000 0.0000 0.0000
# 2 69.1832 89.3331 32.6425 0.0000 0.0000 0.0000
# 3 32.6425 32.6425 116.9181 0.0000 0.0000 0.0000
# 4 0.0000 0.0000 0.0000 19.0867 0.0000 0.0000
# 5 0.0000 0.0000 0.0000 0.0000 19.0867 0.0000
# 6 0.0000 0.0000 0.0000 0.0000 0.0000 10.0749
#
#
#
# Elastic Compliance Matrix: (Units=1/GPa)
#
#
# Indices 1 2 3 4 5 6 
#
# 1 0.028378 -0.021250 -0.001990 0.000000 0.000000 0.000000
# 2 -0.021250 0.028378 -0.001990 0.000000 0.000000 0.000000
# 3 -0.001990 -0.001990 0.009664 0.000000 0.000000 0.000000
# 4 0.000000 0.000000 0.000000 0.052392 0.000000 0.000000
# 5 0.000000 0.000000 0.000000 0.000000 0.052392 0.000000
# 6 0.000000 0.000000 0.000000 0.000000 0.000000 0.099256
#
#
# Mechanical properties :
#
#
# Convention : Reuss Voigt Hill
#
# Bulk Modulus (GPa) = 62.65643 62.72452 62.69047
# Shear Modulus (GPa) = 15.32605 20.39075 17.85840
#
# Velocity S-wave (km/s) = 3.05820 3.52751 3.30120
# Velocity P-wave (km/s) = 7.12080 7.40731 7.26546
#
# Compressibility (1/GPa) = 0.01596005
#
# Stress axis : x y z
#
# Youngs Moduli (GPa) = 35.23843 35.23843 103.47436
#
# Poissons Ratio (x) = 0.74882 0.20592
# Poissons Ratio (y) = 0.74882 0.20592
# Poissons Ratio (z) = 0.07013 0.07013
#
# Static dielectric constant tensor:
#      x y z
#    x 1.542550 0.000000 0.000000 
#    y 0.000000 1.542550 0.000000 
#    z 0.000000 0.000000 1.562370 
# 
# From -- ./inp_files/8555.got.cif
#   From: 2010.05.17/outbox.cif.g08.bks.cpg/sg191_5_cif.got.tgz:8555.got - 2010.05.20 12:20:32.
