data_PCOD9587781
_publ_section_title
;
Structure prediction by ZEFSAII (Michael W. Deem and Ramdas Pophale) SiO2 
 PCOD9587781
Probable space group: P 6/M M M
;
_chemical_formula_sum "Si O2"
_cell_formula_units_Z 168
_cell_length_a 30.384626
_cell_length_b 30.384626
_cell_length_c 13.263312
_cell_angle_alpha 90.000000
_cell_angle_beta 90.000000
_cell_angle_gamma 120.000000
_cell_volume 10604.505158
_symmetry_space_group_name_H-M "P 6/M M M"
_symmetry_group_IT_number 191
_symmetry_cell_setting 'hexagonal'
loop_
_space_group_symop_operation_xyz
x,y,z
x-y,x,z
-y,x-y,z
-x,-y,z
-x+y,-x,z
y,-x+y,z
x-y,-y,-z
-x,-x+y,-z
y,x,-z
-y,-x,-z
-x+y,y,-z
x,x-y,-z
-x,-y,-z
-x+y,-x,-z
y,-x+y,-z
x,y,-z
x-y,x,-z
-y,x-y,-z
-x+y,y,z
x,x-y,z
-y,-x,z
y,x,z
x-y,-y,z
-x,-x+y,z
loop_
_atom_site_type_symbol
_atom_site_label
_atom_site_fract_x
_atom_site_fract_y
_atom_site_fract_z
Si Si1 0.230237 0.666637 0.379058
Si Si2 0.418049 0.475906 0.115693
Si Si3 0.058701 0.687001 0.383738
Si Si4 0.745059 0.154262 0.112226
Si Si5 0.255415 0.313711 0.191099
Si Si6 0.215773 0.157923 0.120661
Si Si7 0.664107 0.528167 0.729430
O O1 0.223516 0.667546 0.500000
O O2 0.239641 0.619821 0.357260
O O3 0.279618 0.720383 0.350994
O O4 0.179274 0.657432 0.324007
O O5 0.471012 0.528989 0.117266
O O6 0.432248 0.432248 0.139574
O O7 0.380481 0.478857 0.195138
O O8 0.398762 0.467741 0.000000
O O9 0.066512 0.703293 0.500000
O O10 0.064108 0.730003 0.305351
O O11 0.099301 0.670856 0.349515
O O12 0.000000 0.641826 0.373471
O O13 0.804211 0.195790 0.122552
O O14 0.737046 0.098368 0.126754
O O15 0.713707 0.162161 0.199504
O O16 0.728984 0.159831 0.000000
O O17 0.292919 0.292919 0.159845
O O18 0.199062 0.266901 0.176170
O O19 0.202195 0.101098 0.145633
O O20 0.172785 0.172785 0.142690
O O21 0.225880 0.165138 0.000000
#
# Coordination Sequence:
#
# PCOD9587781 Si02
#       7
#    24  24  24  24  24  24  24
#     4  10  21  37  56  75  93 114 145 190 243 292
#     4   9  18  32  49  71 100 130 157 187 224 264
#     4   9  18  31  45  64  94 128 156 183 217 258
#     4  10  20  31  43  63  93 123 147 177 219 263
#     4   9  17  28  44  64  86 118 158 193 223 259
#     4   9  16  26  42  64  89 117 151 192 235 276
#     4  11  19  31  50  73  94 120 155 189 220 265
#
# _framework density 15.842324
#
# number of rings (size 3 to 8) (size 9 to 14) (size 15 to 20)
#    0.000    2.429    0.000    3.571    0.000    3.143 
#    0.000    0.000    0.000    8.714    0.000    7.000 
#    0.000    6.857    0.000    0.000    0.000    0.000 
#
# Total GULP energy -936402.814800 kJ/mol
# GULP energy per Si atom -5573.826279 kJ/mol
# Density = 1.580627 g / cm^3
# Si number density = 15.842324 Si / 1000 Ang^3
#
#
#
# Elastic Constant Matrix: (Units=GPa)
#
#
# Indices 1 2 3 4 5 6 
#
# 1 85.3236 42.3893 35.9045 0.0000 0.0000 0.0000
# 2 42.3893 85.3236 35.9045 0.0000 0.0000 0.0000
# 3 35.9045 35.9045 66.9685 0.0000 0.0000 0.0000
# 4 0.0000 0.0000 0.0000 23.1762 0.0000 0.0000
# 5 0.0000 0.0000 0.0000 0.0000 23.1762 0.0000
# 6 0.0000 0.0000 0.0000 0.0000 0.0000 21.4671
#
#
#
# Elastic Compliance Matrix: (Units=1/GPa)
#
#
# Indices 1 2 3 4 5 6 
#
# 1 0.017250 -0.006041 -0.006010 0.000000 0.000000 0.000000
# 2 -0.006041 0.017250 -0.006010 0.000000 0.000000 0.000000
# 3 -0.006010 -0.006010 0.021376 0.000000 0.000000 0.000000
# 4 0.000000 0.000000 0.000000 0.043148 0.000000 0.000000
# 5 0.000000 0.000000 0.000000 0.000000 0.043148 0.000000
# 6 0.000000 0.000000 0.000000 0.000000 0.000000 0.046583
#
#
# Mechanical properties :
#
#
# Convention : Reuss Voigt Hill
#
# Bulk Modulus (GPa) = 50.61746 51.77913 51.19830
# Shear Modulus (GPa) = 21.60187 21.79173 21.69680
#
# Velocity S-wave (km/s) = 3.69664 3.71285 3.70475
# Velocity P-wave (km/s) = 7.08804 7.15090 7.11954
#
# Compressibility (1/GPa) = 0.01975603
#
# Stress axis : x y z
#
# Youngs Moduli (GPa) = 57.97015 57.97015 46.78052
#
# Poissons Ratio (x) = 0.35021 0.28113
# Poissons Ratio (y) = 0.35021 0.28113
# Poissons Ratio (z) = 0.34838 0.34838
#
# Static dielectric constant tensor:
#      x y z
#    x 1.529440 0.000000 0.000000 
#    y 0.000000 1.529440 0.000000 
#    z 0.000000 0.000000 1.519410 
# 
# From -- ./inp_files/3630.got.cif
#   From: 2010.05.17/outbox.cif.g08.bks.cpg/sg191_2_cif.got.tgz:3630.got - 2010.05.20 12:20:32.
