data_PCOD9587967
_publ_section_title
;
Structure prediction by ZEFSAII (Michael W. Deem and Ramdas Pophale) SiO2 
 PCOD9587967
Probable space group: P 6/M M M
;
_chemical_formula_sum "Si O2"
_cell_formula_units_Z 108
_cell_length_a 17.729810
_cell_length_b 17.729810
_cell_length_c 22.503342
_cell_angle_alpha 90.000000
_cell_angle_beta 90.000000
_cell_angle_gamma 120.000000
_cell_volume 6126.124453
_symmetry_space_group_name_H-M "P 6/M M M"
_symmetry_group_IT_number 191
_symmetry_cell_setting 'hexagonal'
loop_
_space_group_symop_operation_xyz
x,y,z
x-y,x,z
-y,x-y,z
-x,-y,z
-x+y,-x,z
y,-x+y,z
x-y,-y,-z
-x,-x+y,-z
y,x,-z
-y,-x,-z
-x+y,y,-z
x,x-y,-z
-x,-y,-z
-x+y,-x,-z
y,-x+y,-z
x,y,-z
x-y,x,-z
-y,x-y,-z
-x+y,y,z
x,x-y,z
-y,-x,z
y,x,z
x-y,-y,z
-x,-x+y,z
loop_
_atom_site_type_symbol
_atom_site_label
_atom_site_fract_x
_atom_site_fract_y
_atom_site_fract_z
Si Si1 0.727169 0.627995 0.765789
Si Si2 0.000000 0.825891 0.427594
Si Si3 0.511756 0.844593 0.647741
Si Si4 0.000000 0.349821 0.571003
Si Si5 0.332549 0.843938 0.117302
Si Si6 0.901263 0.273939 0.000000
O O1 0.829072 0.658143 0.766255
O O2 0.703928 0.703928 0.762486
O O3 0.685319 0.564790 0.709277
O O4 0.685427 0.571506 0.825129
O O5 0.000000 0.738373 0.410088
O O6 0.912574 0.825147 0.407971
O O7 0.000000 0.827366 0.500000
O O8 0.418098 0.836195 0.653152
O O9 0.503868 0.751934 0.634818
O O10 0.568548 0.914884 0.597965
O O11 0.000000 0.353155 0.500000
O O12 0.427375 0.854750 0.118396
O O13 0.257988 0.742013 0.117741
O O14 0.316481 0.884476 0.058126
O O15 0.827560 0.172441 0.000000
O O16 0.000000 0.295124 0.000000
#
# Coordination Sequence:
#
# PCOD9587967 Si02
#       6
#    24  12  24  12  24  12
#     4  10  21  37  58  83 110 144 185 230 276 323
#     4   9  17  31  53  81 111 141 174 213 259 312
#     4  11  23  39  59  83 111 143 182 227 275 325
#     4  11  23  39  59  81 109 144 181 221 269 331
#     4  10  20  33  52  79 114 152 189 227 270 320
#     4  10  21  35  51  76 109 147 186 228 279 331
#
# _framework density 17.629415999999999
#
# number of rings (size 3 to 8) (size 9 to 14) (size 15 to 20)
#    0.000    1.778    1.111    3.222    0.000    5.778 
#    0.000    3.333    0.000    1.667    0.000    0.000 
#    0.000    5.333    0.000    0.000    0.000    0.444 
#
# Total GULP energy -603380.878959 kJ/mol
# GULP energy per Si atom -5586.859990 kJ/mol
# Density = 1.758929 g / cm^3
# Si number density = 17.629416 Si / 1000 Ang^3
#
#
#
# Elastic Constant Matrix: (Units=GPa)
#
#
# Indices 1 2 3 4 5 6 
#
# 1 131.4793 105.9670 47.5167 0.0000 0.0000 0.0000
# 2 105.9670 131.4793 47.5167 0.0000 0.0000 0.0000
# 3 47.5167 47.5167 104.5019 0.0000 0.0000 0.0000
# 4 0.0000 0.0000 0.0000 12.5812 0.0000 0.0000
# 5 0.0000 0.0000 0.0000 0.0000 12.5812 0.0000
# 6 0.0000 0.0000 0.0000 0.0000 0.0000 12.7562
#
#
#
# Elastic Compliance Matrix: (Units=1/GPa)
#
#
# Indices 1 2 3 4 5 6 
#
# 1 0.022173 -0.017024 -0.002341 0.000000 0.000000 0.000000
# 2 -0.017024 0.022173 -0.002341 0.000000 0.000000 0.000000
# 3 -0.002341 -0.002341 0.011698 0.000000 0.000000 0.000000
# 4 0.000000 0.000000 0.000000 0.079484 0.000000 0.000000
# 5 0.000000 0.000000 0.000000 0.000000 0.079484 0.000000
# 6 0.000000 0.000000 0.000000 0.000000 0.000000 0.078393
#
#
# Mechanical properties :
#
#
# Convention : Reuss Voigt Hill
#
# Bulk Modulus (GPa) = 79.17019 85.49569 82.33294
# Shear Modulus (GPa) = 14.66161 18.68105 16.67133
#
# Velocity S-wave (km/s) = 2.88697 3.25876 3.07849
# Velocity P-wave (km/s) = 7.49122 7.92216 7.70970
#
# Compressibility (1/GPa) = 0.01263102
#
# Stress axis : x y z
#
# Youngs Moduli (GPa) = 45.10077 45.10077 85.48426
#
# Poissons Ratio (x) = 0.76780 0.20012
# Poissons Ratio (y) = 0.76780 0.20012
# Poissons Ratio (z) = 0.10558 0.10558
#
# Static dielectric constant tensor:
#      x y z
#    x 1.580520 0.000000 0.000000 
#    y 0.000000 1.580520 0.000000 
#    z 0.000000 0.000000 1.593690 
# 
# From -- ./inp_files/7366.got.cif
#   From: 2010.05.17/outbox.cif.g08.bks.cpg/sg191_4_cif.got.tgz:7366.got - 2010.05.20 12:20:32.
