data_PCOD9587695
_publ_section_title
;
Structure prediction by ZEFSAII (Michael W. Deem and Ramdas Pophale) SiO2 
 PCOD9587695
Probable space group: P 6/M M M
;
_chemical_formula_sum "Si O2"
_cell_formula_units_Z 150
_cell_length_a 17.853228
_cell_length_b 17.853228
_cell_length_c 32.933492
_cell_angle_alpha 90.000000
_cell_angle_beta 90.000000
_cell_angle_gamma 120.000000
_cell_volume 9090.796091
_symmetry_space_group_name_H-M "P 6/M M M"
_symmetry_group_IT_number 191
_symmetry_cell_setting 'hexagonal'
loop_
_space_group_symop_operation_xyz
x,y,z
x-y,x,z
-y,x-y,z
-x,-y,z
-x+y,-x,z
y,-x+y,z
x-y,-y,-z
-x,-x+y,-z
y,x,-z
-y,-x,-z
-x+y,y,-z
x,x-y,-z
-x,-y,-z
-x+y,-x,-z
y,-x+y,-z
x,y,-z
x-y,x,-z
-y,x-y,-z
-x+y,y,z
x,x-y,z
-y,-x,z
y,x,z
x-y,-y,z
-x,-x+y,z
loop_
_atom_site_type_symbol
_atom_site_label
_atom_site_fract_x
_atom_site_fract_y
_atom_site_fract_z
Si Si1 0.633534 0.903285 0.734145
Si Si2 0.510259 0.667452 0.500000
Si Si3 0.493272 0.333001 0.192013
Si Si4 0.210317 0.105159 0.000000
Si Si5 0.332711 0.842629 0.342451
Si Si6 0.192082 0.807919 0.954113
Si Si7 0.896631 0.533407 0.900762
Si Si8 0.901776 0.272098 0.421212
O O1 0.660066 0.830033 0.731238
O O2 0.584374 0.890681 0.776726
O O3 0.564603 0.883381 0.698317
O O4 0.710713 0.000000 0.730142
O O5 0.426636 0.573365 0.500000
O O6 0.483287 0.741644 0.500000
O O7 0.568630 0.684416 0.539765
O O8 0.521499 0.260750 0.196595
O O9 0.572676 0.427325 0.201574
O O10 0.467191 0.333723 0.145419
O O11 0.152250 0.152250 0.000000
O O12 0.279815 0.139908 0.037731
O O13 0.426518 0.853035 0.344449
O O14 0.258372 0.741629 0.342515
O O15 0.313213 0.885038 0.381090
O O16 0.281460 0.861435 0.930110
O O17 0.209930 0.790071 0.000000
O O18 0.867416 0.433708 0.911539
O O19 0.000000 0.585686 0.901730
O O20 0.828767 0.171234 0.421777
O O21 0.000000 0.293736 0.421743
#
# Coordination Sequence:
#
# PCOD9587695 Si02
#       8
#    24  12  24   6  24  12  24  24
#     4  10  21  35  52  75 102 133 170 212 259 307
#     4  10  20  33  50  73 102 136 173 210 248 297
#     4  10  19  32  51  77 106 139 171 207 244 291
#     4  10  21  38  62  86 110 138 174 224 277 334
#     4  10  20  33  50  74 106 141 173 206 246 296
#     4  10  22  37  54  80 106 140 172 215 260 307
#     4  10  20  35  55  77 104 139 176 213 252 299
#     4  10  21  35  51  72  98 131 170 214 264 310
#
# _framework density 16.500205000000001
#
# number of rings (size 3 to 8) (size 9 to 14) (size 15 to 20)
#    0.240    1.760    0.800    3.080    0.000    4.480 
#    0.480    4.000    0.000    0.320    0.000    0.000 
#    0.000    5.760    0.000    0.000    0.000    0.640 
#
# Total GULP energy -836844.811006 kJ/mol
# GULP energy per Si atom -5578.965407 kJ/mol
# Density = 1.646265 g / cm^3
# Si number density = 16.500205 Si / 1000 Ang^3
#
#
#
# Elastic Constant Matrix: (Units=GPa)
#
#
# Indices 1 2 3 4 5 6 
#
# 1 101.4273 81.2553 41.4695 0.0000 0.0000 0.0000
# 2 81.2553 101.4273 41.4695 0.0000 0.0000 0.0000
# 3 41.4695 41.4695 81.5469 0.0000 0.0000 0.0000
# 4 0.0000 0.0000 0.0000 1.2555 0.0000 0.0000
# 5 0.0000 0.0000 0.0000 0.0000 1.2555 0.0000
# 6 0.0000 0.0000 0.0000 0.0000 0.0000 10.0860
#
#
#
# Elastic Compliance Matrix: (Units=1/GPa)
#
#
# Indices 1 2 3 4 5 6 
#
# 1 0.028346 -0.021228 -0.003619 0.000000 0.000000 0.000000
# 2 -0.021228 0.028346 -0.003619 0.000000 0.000000 0.000000
# 3 -0.003619 -0.003619 0.015944 0.000000 0.000000 0.000000
# 4 0.000000 0.000000 0.000000 0.796474 0.000000 0.000000
# 5 0.000000 0.000000 0.000000 0.000000 0.796474 0.000000
# 6 0.000000 0.000000 0.000000 0.000000 0.000000 0.099148
#
#
# Mechanical properties :
#
#
# Convention : Reuss Voigt Hill
#
# Bulk Modulus (GPa) = 63.69019 68.08780 65.88899
# Shear Modulus (GPa) = 2.73688 10.53321 6.63504
#
# Velocity S-wave (km/s) = 1.28930 2.52934 2.00747
# Velocity P-wave (km/s) = 6.39530 7.06289 6.73737
#
# Compressibility (1/GPa) = 0.01570101
#
# Stress axis : x y z
#
# Youngs Moduli (GPa) = 35.27897 35.27897 62.71947
#
# Poissons Ratio (x) = 0.74891 0.22700
# Poissons Ratio (y) = 0.74891 0.22700
# Poissons Ratio (z) = 0.12769 0.12769
#
# Static dielectric constant tensor:
#      x y z
#    x 1.544050 0.000000 0.000000 
#    y 0.000000 1.544050 0.000000 
#    z 0.000000 0.000000 1.548720 
# 
# From -- ./inp_files/10724.got.cif
#   From: 2010.05.17/outbox.cif.g08.bks.cpg/sg191_6_cif.got.tgz:10724.got - 2010.05.20 12:20:32.
