data_PCOD9587945
_publ_section_title
;
Structure prediction by ZEFSAII (Michael W. Deem and Ramdas Pophale) SiO2 
 PCOD9587945
Probable space group: P 6/M M M
;
_chemical_formula_sum "Si O2"
_cell_formula_units_Z 120
_cell_length_a 23.081540
_cell_length_b 23.081540
_cell_length_c 15.613673
_cell_angle_alpha 90.000000
_cell_angle_beta 90.000000
_cell_angle_gamma 120.000000
_cell_volume 7203.860171
_symmetry_space_group_name_H-M "P 6/M M M"
_symmetry_group_IT_number 191
_symmetry_cell_setting 'hexagonal'
loop_
_space_group_symop_operation_xyz
x,y,z
x-y,x,z
-y,x-y,z
-x,-y,z
-x+y,-x,z
y,-x+y,z
x-y,-y,-z
-x,-x+y,-z
y,x,-z
-y,-x,-z
-x+y,y,-z
x,x-y,-z
-x,-y,-z
-x+y,-x,-z
y,-x+y,-z
x,y,-z
x-y,x,-z
-y,x-y,-z
-x+y,y,z
x,x-y,z
-y,-x,z
y,x,z
x-y,-y,z
-x,-x+y,z
loop_
_atom_site_type_symbol
_atom_site_label
_atom_site_fract_x
_atom_site_fract_y
_atom_site_fract_z
Si Si1 0.393200 0.474532 0.250000
Si Si2 0.922795 0.845590 0.354677
Si Si3 0.690666 0.079784 0.097627
Si Si4 0.077206 0.154411 0.854683
Si Si5 0.079784 0.389116 0.597627
Si Si6 0.690869 0.845435 0.646640
Si Si7 0.690868 0.845434 0.146634
O O1 0.447332 0.552669 0.250000
O O2 0.435909 0.435909 0.250000
O O3 0.346678 0.447940 0.166372
O O4 0.346678 0.447940 0.333629
O O5 0.884117 0.884117 0.382369
O O6 0.922969 0.845937 0.249997
O O7 0.884132 0.768264 0.381604
O O8 0.769414 0.116696 0.114920
O O9 0.660091 0.000000 0.108722
O O10 0.677731 0.091423 0.000000
O O11 0.115884 0.115884 0.882375
O O12 0.115869 0.231737 0.881609
O O13 0.091425 0.413690 0.500000
O O14 0.116695 0.347281 0.614925
O O15 0.000000 0.339909 0.608721
O O16 0.690063 0.845032 0.750003
#
# Coordination Sequence:
#
# PCOD9587945 Si02
#       7
#    24  12  24  12  24  12  12
#     4   9  18  33  52  74 101 130 159 194 240 302
#     4   9  17  27  42  65  95 136 190 250 304 346
#     4  10  20  33  50  74 105 139 174 213 259 311
#     4   9  17  27  42  65  95 136 190 250 304 346
#     4  10  20  33  50  74 105 139 174 213 259 311
#     4  11  19  30  49  71 102 142 183 229 276 325
#     4  11  19  30  49  71 102 142 183 229 276 325
#
# _framework density 16.657736
#
# number of rings (size 3 to 8) (size 9 to 14) (size 15 to 20)
#    0.000    2.200    2.000    2.000    0.000    3.200 
#    0.000    4.000    0.000    0.000    0.000    0.000 
#    8.000    9.600    2.400    0.000    0.000    0.000 
#
# Total GULP energy -669655.785784 kJ/mol
# GULP energy per Si atom -5580.464882 kJ/mol
# Density = 1.661982 g / cm^3
# Si number density = 16.657736 Si / 1000 Ang^3
#
#
#
# Elastic Constant Matrix: (Units=GPa)
#
#
# Indices 1 2 3 4 5 6 
#
# 1 115.0473 68.8825 59.0467 0.0000 0.0000 0.0000
# 2 68.8825 115.0473 59.0467 0.0000 0.0000 0.0000
# 3 59.0467 59.0467 113.7490 0.0000 0.0000 0.0000
# 4 0.0000 0.0000 0.0000 8.0718 0.0000 0.0000
# 5 0.0000 0.0000 0.0000 0.0000 8.0718 0.0000
# 6 0.0000 0.0000 0.0000 0.0000 0.0000 23.0824
#
#
#
# Elastic Compliance Matrix: (Units=1/GPa)
#
#
# Indices 1 2 3 4 5 6 
#
# 1 0.014908 -0.006753 -0.004233 0.000000 0.000000 0.000000
# 2 -0.006753 0.014908 -0.004233 0.000000 0.000000 0.000000
# 3 -0.004233 -0.004233 0.013186 0.000000 0.000000 0.000000
# 4 0.000000 0.000000 0.000000 0.123889 0.000000 0.000000
# 5 0.000000 0.000000 0.000000 0.000000 0.123889 0.000000
# 6 0.000000 0.000000 0.000000 0.000000 0.000000 0.043323
#
#
# Mechanical properties :
#
#
# Convention : Reuss Voigt Hill
#
# Bulk Modulus (GPa) = 79.59784 79.75504 79.67644
# Shear Modulus (GPa) = 13.56008 18.30305 15.93157
#
# Velocity S-wave (km/s) = 2.85624 3.31837 3.09594
# Velocity P-wave (km/s) = 7.66587 7.91610 7.79199
#
# Compressibility (1/GPa) = 0.01256316
#
# Stress axis : x y z
#
# Youngs Moduli (GPa) = 67.07750 67.07750 75.83775
#
# Poissons Ratio (x) = 0.45300 0.32103
# Poissons Ratio (y) = 0.45300 0.32103
# Poissons Ratio (z) = 0.28395 0.28395
#
# Static dielectric constant tensor:
#      x y z
#    x 1.528340 0.000000 0.000000 
#    y 0.000000 1.528340 0.000000 
#    z 0.000000 0.000000 1.597150 
# 
# From -- ./inp_files/4847.got.cif
#   From: 2010.05.17/outbox.cif.g08.bks.cpg/sg191_3_cif.got.tgz:4847.got - 2010.05.20 12:20:32.
