data_PCOD9587395
_publ_section_title
;
Structure prediction by ZEFSAII (Michael W. Deem and Ramdas Pophale) SiO2 
 PCOD9587395
Probable space group: P 6/M M M
;
_chemical_formula_sum "Si O2"
_cell_formula_units_Z 168
_cell_length_a 29.974557
_cell_length_b 29.974557
_cell_length_c 14.252592
_cell_angle_alpha 90.000000
_cell_angle_beta 90.000000
_cell_angle_gamma 120.000000
_cell_volume 11089.961318
_symmetry_space_group_name_H-M "P 6/M M M"
_symmetry_group_IT_number 191
_symmetry_cell_setting 'hexagonal'
loop_
_space_group_symop_operation_xyz
x,y,z
x-y,x,z
-y,x-y,z
-x,-y,z
-x+y,-x,z
y,-x+y,z
x-y,-y,-z
-x,-x+y,-z
y,x,-z
-y,-x,-z
-x+y,y,-z
x,x-y,-z
-x,-y,-z
-x+y,-x,-z
y,-x+y,-z
x,y,-z
x-y,x,-z
-y,x-y,-z
-x+y,y,z
x,x-y,z
-y,-x,z
y,x,z
x-y,-y,z
-x,-x+y,z
loop_
_atom_site_type_symbol
_atom_site_label
_atom_site_fract_x
_atom_site_fract_y
_atom_site_fract_z
Si Si1 0.636123 0.168561 0.106577
Si Si2 0.345505 0.286773 0.110107
Si Si3 0.388374 0.330625 0.612664
Si Si4 0.391565 0.506647 0.613413
Si Si5 0.500436 0.298961 0.277495
Si Si6 0.239458 0.862581 0.269478
Si Si7 0.451340 0.395618 0.887807
O O1 0.590387 0.180773 0.104125
O O2 0.679819 0.205436 0.176939
O O3 0.611861 0.109855 0.145352
O O4 0.654395 0.169490 0.000000
O O5 0.301176 0.301176 0.131204
O O6 0.349617 0.246579 0.177908
O O7 0.399458 0.340567 0.123035
O O8 0.341925 0.273338 0.000000
O O9 0.387650 0.329533 0.500000
O O10 0.351563 0.351563 0.647390
O O11 0.447311 0.371656 0.641492
O O12 0.370416 0.273932 0.650976
O O13 0.390137 0.507278 0.500000
O O14 0.448505 0.551496 0.642233
O O15 0.347564 0.516722 0.655427
O O16 0.512732 0.256366 0.316291
O O17 0.438995 0.269968 0.258983
O O18 0.180490 0.819511 0.289452
O O19 0.438698 0.438698 0.849843
O O20 0.460348 0.405711 0.000000
#
# Coordination Sequence:
#
# PCOD9587395 Si02
#       7
#    24  24  24  24  24  24  24
#     4  10  19  30  44  62  85 109 135 168 202 247
#     4   9  16  27  43  61  86 119 148 178 218 260
#     4   9  18  32  49  69  94 122 147 172 211 267
#     4   9  18  33  52  72  91 107 129 168 214 265
#     4  10  20  32  46  62  81 106 134 166 208 256
#     4  10  19  29  44  65  87 114 148 184 216 248
#     4   8  14  25  40  58  82 111 138 164 199 245
#
# _framework density 15.148835999999999
#
# number of rings (size 3 to 8) (size 9 to 14) (size 15 to 20)
#    0.000    2.714    1.429    1.714    0.000    1.714 
#    0.000    7.143    0.000    4.000    0.000    0.000 
#    0.000    0.000    0.000    0.000    0.000    0.000 
#
# Total GULP energy -935965.822102 kJ/mol
# GULP energy per Si atom -5571.225132 kJ/mol
# Density = 1.511436 g / cm^3
# Si number density = 15.148836 Si / 1000 Ang^3
#
#
#
# Elastic Constant Matrix: (Units=GPa)
#
#
# Indices 1 2 3 4 5 6 
#
# 1 64.1304 36.6395 21.6269 0.0000 0.0000 0.0000
# 2 36.6395 64.1304 21.6269 0.0000 0.0000 0.0000
# 3 21.6269 21.6269 37.1563 0.0000 0.0000 0.0000
# 4 0.0000 0.0000 0.0000 17.0671 0.0000 0.0000
# 5 0.0000 0.0000 0.0000 0.0000 17.0671 0.0000
# 6 0.0000 0.0000 0.0000 0.0000 0.0000 13.7454
#
#
#
# Elastic Compliance Matrix: (Units=1/GPa)
#
#
# Indices 1 2 3 4 5 6 
#
# 1 0.024802 -0.011574 -0.007700 0.000000 0.000000 0.000000
# 2 -0.011574 0.024802 -0.007700 0.000000 0.000000 0.000000
# 3 -0.007700 -0.007700 0.035877 0.000000 0.000000 0.000000
# 4 0.000000 0.000000 0.000000 0.058592 0.000000 0.000000
# 5 0.000000 0.000000 0.000000 0.000000 0.058592 0.000000
# 6 0.000000 0.000000 0.000000 0.000000 0.000000 0.072751
#
#
# Mechanical properties :
#
#
# Convention : Reuss Voigt Hill
#
# Bulk Modulus (GPa) = 31.71090 36.13372 33.92231
# Shear Modulus (GPa) = 14.71133 15.27753 14.99443
#
# Velocity S-wave (km/s) = 3.11966 3.17913 3.14953
# Velocity P-wave (km/s) = 5.82707 6.11392 5.97222
#
# Compressibility (1/GPa) = 0.03153490
#
# Stress axis : x y z
#
# Youngs Moduli (GPa) = 40.31911 40.31911 27.87331
#
# Poissons Ratio (x) = 0.46664 0.21462
# Poissons Ratio (y) = 0.46664 0.21462
# Poissons Ratio (z) = 0.31045 0.31045
#
# Static dielectric constant tensor:
#      x y z
#    x 1.502820 0.000000 0.000000 
#    y 0.000000 1.502820 0.000000 
#    z 0.000000 0.000000 1.556000 
# 
# From -- ./inp_files/5382.got.cif
#   From: 2010.05.17/outbox.cif.g08.bks.cpg/sg191_3_cif.got.tgz:5382.got - 2010.05.20 12:20:32.
