data_PCOD9587136
_publ_section_title
;
Structure prediction by ZEFSAII (Michael W. Deem and Ramdas Pophale) SiO2 
 PCOD9587136
Probable space group: P 6/M M M
;
_chemical_formula_sum "Si O2"
_cell_formula_units_Z 180
_cell_length_a 22.793943
_cell_length_b 22.793943
_cell_length_c 29.054483
_cell_angle_alpha 90.000000
_cell_angle_beta 90.000000
_cell_angle_gamma 120.000000
_cell_volume 13073.223907
_symmetry_space_group_name_H-M "P 6/M M M"
_symmetry_group_IT_number 191
_symmetry_cell_setting 'hexagonal'
loop_
_space_group_symop_operation_xyz
x,y,z
x-y,x,z
-y,x-y,z
-x,-y,z
-x+y,-x,z
y,-x+y,z
x-y,-y,-z
-x,-x+y,-z
y,x,-z
-y,-x,-z
-x+y,y,-z
x,x-y,-z
-x,-y,-z
-x+y,-x,-z
y,-x+y,-z
x,y,-z
x-y,x,-z
-y,x-y,-z
-x+y,y,z
x,x-y,z
-y,-x,z
y,x,z
x-y,-y,z
-x,-x+y,z
loop_
_atom_site_type_symbol
_atom_site_label
_atom_site_fract_x
_atom_site_fract_y
_atom_site_fract_z
Si Si1 0.560908 0.711944 0.083771
Si Si2 0.529503 0.918533 0.450522
Si Si3 0.081203 0.470216 0.650808
Si Si4 0.922906 0.209053 0.882525
Si Si5 0.470084 0.080540 0.000000
Si Si6 0.076774 0.286471 0.228366
Si Si7 0.527161 0.193972 0.175549
Si Si8 0.562620 0.711949 0.734702
O O1 0.549783 0.774892 0.070599
O O2 0.640340 0.744860 0.095233
O O3 0.518518 0.679745 0.130340
O O4 0.539895 0.656571 0.044338
O O5 0.539775 0.892666 0.500000
O O6 0.453569 0.907138 0.450712
O O7 0.538777 0.895363 0.400281
O O8 0.578019 0.000000 0.450623
O O9 0.091529 0.545765 0.653808
O O10 0.119679 0.456812 0.691416
O O11 0.000000 0.419926 0.654527
O O12 0.868575 0.131426 0.894002
O O13 0.920750 0.215970 0.827087
O O14 0.000000 0.235084 0.895911
O O15 0.544257 0.088514 0.000000
O O16 0.416762 0.000000 0.000000
O O17 0.132814 0.265628 0.240287
O O18 0.101094 0.359282 0.250915
O O19 0.000000 0.233449 0.241316
O O20 0.595312 0.190623 0.173735
O O21 0.542972 0.271486 0.177033
O O22 0.483805 0.158107 0.221096
O O23 0.553958 0.776979 0.725122
#
# Coordination Sequence:
#
# PCOD9587136 Si02
#       8
#    24  24  24  24  12  24  24  24
#     4  10  19  34  52  67  83 109 142 175 209 245
#     4   7  10  18  33  52  73  97 126 163 208 253
#     4   9  16  25  38  58  81 102 130 172 217 251
#     4   9  16  28  47  68  88 110 139 170 199 236
#     4  11  23  36  48  66  92 115 135 165 210 256
#     4   9  16  27  43  62  83 108 137 166 196 235
#     4  10  19  31  46  62  81 106 140 177 211 246
#     4  10  18  28  40  57  83 114 140 164 200 246
#
# _framework density 13.768599999999999
#
# number of rings (size 3 to 8) (size 9 to 14) (size 15 to 20)
#    0.000    2.733    1.333    3.133    0.000    0.000 
#    0.000    0.000    0.000    6.000    0.000    1.867 
#    0.000    0.000    0.000    0.000    0.000   13.867 
#
# Total GULP energy -1002045.756687 kJ/mol
# GULP energy per Si atom -5566.920870 kJ/mol
# Density = 1.373726 g / cm^3
# Si number density = 13.768600 Si / 1000 Ang^3
#
#
#
# Elastic Constant Matrix: (Units=GPa)
#
#
# Indices 1 2 3 4 5 6 
#
# 1 83.4601 53.4087 55.5961 0.0000 0.0000 0.0000
# 2 53.4087 83.4601 55.5961 0.0000 0.0000 0.0000
# 3 55.5961 55.5961 107.9904 0.0000 0.0000 0.0000
# 4 0.0000 0.0000 0.0000 16.1285 0.0000 0.0000
# 5 0.0000 0.0000 0.0000 0.0000 16.1285 0.0000
# 6 0.0000 0.0000 0.0000 0.0000 0.0000 15.0257
#
#
#
# Elastic Compliance Matrix: (Units=1/GPa)
#
#
# Indices 1 2 3 4 5 6 
#
# 1 0.022918 -0.010359 -0.006466 0.000000 0.000000 0.000000
# 2 -0.010359 0.022918 -0.006466 0.000000 0.000000 0.000000
# 3 -0.006466 -0.006466 0.015917 0.000000 0.000000 0.000000
# 4 0.000000 0.000000 0.000000 0.062002 0.000000 0.000000
# 5 0.000000 0.000000 0.000000 0.000000 0.062002 0.000000
# 6 0.000000 0.000000 0.000000 0.000000 0.000000 0.066553
#
#
# Mechanical properties :
#
#
# Convention : Reuss Voigt Hill
#
# Bulk Modulus (GPa) = 65.90771 67.12360 66.51565
# Shear Modulus (GPa) = 16.45026 16.81055 16.63041
#
# Velocity S-wave (km/s) = 3.46029 3.49798 3.47918
# Velocity P-wave (km/s) = 7.99605 8.07289 8.03456
#
# Compressibility (1/GPa) = 0.01517273
#
# Stress axis : x y z
#
# Youngs Moduli (GPa) = 43.63455 43.63455 62.82422
#
# Poissons Ratio (x) = 0.45200 0.40620
# Poissons Ratio (y) = 0.45200 0.40620
# Poissons Ratio (z) = 0.28213 0.28213
#
# Static dielectric constant tensor:
#      x y z
#    x 1.438320 0.000000 0.000000 
#    y 0.000000 1.438320 0.000000 
#    z 0.000000 0.000000 1.463350 
# 
# From -- ./inp_files/10856.got.cif
#   From: 2010.05.17/outbox.cif.g08.bks.cpg/sg191_6_cif.got.tgz:10856.got - 2010.05.20 12:20:32.
