data_PCOD9587342
_publ_section_title
;
Structure prediction by ZEFSAII (Michael W. Deem and Ramdas Pophale) SiO2 
 PCOD9587342
Probable space group: P 6/M M M
;
_chemical_formula_sum "Si O2"
_cell_formula_units_Z 144
_cell_length_a 22.325022
_cell_length_b 22.325022
_cell_length_c 19.794542
_cell_angle_alpha 90.000000
_cell_angle_beta 90.000000
_cell_angle_gamma 120.000000
_cell_volume 8543.973258
_symmetry_space_group_name_H-M "P 6/M M M"
_symmetry_group_IT_number 191
_symmetry_cell_setting 'hexagonal'
loop_
_space_group_symop_operation_xyz
x,y,z
x-y,x,z
-y,x-y,z
-x,-y,z
-x+y,-x,z
y,-x+y,z
x-y,-y,-z
-x,-x+y,-z
y,x,-z
-y,-x,-z
-x+y,y,-z
x,x-y,-z
-x,-y,-z
-x+y,-x,-z
y,-x+y,-z
x,y,-z
x-y,x,-z
-y,x-y,-z
-x+y,y,z
x,x-y,z
-y,-x,z
y,x,z
x-y,-y,z
-x,-x+y,z
loop_
_atom_site_type_symbol
_atom_site_label
_atom_site_fract_x
_atom_site_fract_y
_atom_site_fract_z
Si Si1 0.920139 0.840278 0.582429
Si Si2 0.620419 0.737706 0.074700
Si Si3 0.298432 0.918724 0.335918
Si Si4 0.807603 0.473829 0.290822
Si Si5 0.075484 0.291272 0.793675
Si Si6 0.319934 0.159967 0.580672
Si Si7 0.665864 0.472619 0.872001
O O1 0.879930 0.879930 0.604220
O O2 0.920322 0.840643 0.500000
O O3 0.880203 0.760406 0.603731
O O4 0.617388 0.808694 0.073539
O O5 0.671647 0.749648 0.135761
O O6 0.542789 0.679138 0.093086
O O7 0.640796 0.727288 0.000000
O O8 0.334935 0.873176 0.325165
O O9 0.258328 0.913759 0.266060
O O10 0.237473 0.881792 0.390595
O O11 0.349214 0.000000 0.350097
O O12 0.737728 0.475455 0.308061
O O13 0.800851 0.400426 0.307930
O O14 0.815398 0.481739 0.209263
O O15 0.138000 0.275999 0.792152
O O16 0.000000 0.225666 0.784557
O O17 0.321428 0.160714 0.500000
O O18 0.730951 0.461901 0.887770
O O19 0.594621 0.405380 0.891269
#
# Coordination Sequence:
#
# PCOD9587342 Si02
#       7
#    12  24  24  24  24  12  24
#     4   9  17  30  49  76 112 151 185 213 244 294
#     4   9  17  29  46  69  99 135 174 216 262 310
#     4  11  21  35  57  83 112 145 181 222 267 320
#     4  10  18  32  54  82 111 141 185 234 278 320
#     4  10  19  34  55  77 102 135 175 216 260 310
#     4  11  22  37  58  83 113 145 179 221 272 329
#     4   9  16  26  43  68 102 140 180 223 263 308
#
# _framework density 16.853985000000002
#
# number of rings (size 3 to 8) (size 9 to 14) (size 15 to 20)
#    0.000    2.167    3.333    0.917    0.000    3.667 
#    0.000    0.000    0.000    2.167    0.000    2.333 
#    0.000    0.000    0.000    4.167    0.000    0.000 
#
# Total GULP energy -803083.879448 kJ/mol
# GULP energy per Si atom -5576.971385 kJ/mol
# Density = 1.681562 g / cm^3
# Si number density = 16.853985 Si / 1000 Ang^3
#
#
#
# Elastic Constant Matrix: (Units=GPa)
#
#
# Indices 1 2 3 4 5 6 
#
# 1 88.9686 40.8824 20.9253 0.0000 0.0000 0.0000
# 2 40.8824 88.9686 20.9253 0.0000 0.0000 0.0000
# 3 20.9253 20.9253 54.3707 0.0000 0.0000 0.0000
# 4 0.0000 0.0000 0.0000 9.9990 0.0000 0.0000
# 5 0.0000 0.0000 0.0000 0.0000 9.9990 0.0000
# 6 0.0000 0.0000 0.0000 0.0000 0.0000 24.0431
#
#
#
# Elastic Compliance Matrix: (Units=1/GPa)
#
#
# Indices 1 2 3 4 5 6 
#
# 1 0.014794 -0.006002 -0.003384 0.000000 0.000000 0.000000
# 2 -0.006002 0.014794 -0.003384 0.000000 0.000000 0.000000
# 3 -0.003384 -0.003384 0.020997 0.000000 0.000000 0.000000
# 4 0.000000 0.000000 0.000000 0.100010 0.000000 0.000000
# 5 0.000000 0.000000 0.000000 0.000000 0.100010 0.000000
# 6 0.000000 0.000000 0.000000 0.000000 0.000000 0.041592
#
#
# Mechanical properties :
#
#
# Convention : Reuss Voigt Hill
#
# Bulk Modulus (GPa) = 39.92708 44.19710 42.06209
# Shear Modulus (GPa) = 15.33348 18.77988 17.05668
#
# Velocity S-wave (km/s) = 3.01953 3.34169 3.18469
# Velocity P-wave (km/s) = 5.99151 6.41636 6.20757
#
# Compressibility (1/GPa) = 0.02504566
#
# Stress axis : x y z
#
# Youngs Moduli (GPa) = 67.59581 67.59581 47.62654
#
# Poissons Ratio (x) = 0.40572 0.16115
# Poissons Ratio (y) = 0.40572 0.16115
# Poissons Ratio (z) = 0.22872 0.22872
#
# Static dielectric constant tensor:
#      x y z
#    x 1.558290 0.000000 0.000000 
#    y 0.000000 1.558290 0.000000 
#    z 0.000000 0.000000 1.574930 
# 
# From -- ./inp_files/7661.got.cif
#   From: 2010.05.17/outbox.cif.g08.bks.cpg/sg191_4_cif.got.tgz:7661.got - 2010.05.20 12:20:32.
