data_PCOD9587105
_publ_section_title
;
Structure prediction by ZEFSAII (Michael W. Deem and Ramdas Pophale) SiO2 
 PCOD9587105
Probable space group: P 6/M M M
;
_chemical_formula_sum "Si O2"
_cell_formula_units_Z 120
_cell_length_a 17.914071
_cell_length_b 17.914071
_cell_length_c 26.476090
_cell_angle_alpha 90.000000
_cell_angle_beta 90.000000
_cell_angle_gamma 120.000000
_cell_volume 7358.224985
_symmetry_space_group_name_H-M "P 6/M M M"
_symmetry_group_IT_number 191
_symmetry_cell_setting 'hexagonal'
loop_
_space_group_symop_operation_xyz
x,y,z
x-y,x,z
-y,x-y,z
-x,-y,z
-x+y,-x,z
y,-x+y,z
x-y,-y,-z
-x,-x+y,-z
y,x,-z
-y,-x,-z
-x+y,y,-z
x,x-y,-z
-x,-y,-z
-x+y,-x,-z
y,-x+y,-z
x,y,-z
x-y,x,-z
-y,x-y,-z
-x+y,y,z
x,x-y,z
-y,-x,z
y,x,z
x-y,-y,z
-x,-x+y,z
loop_
_atom_site_type_symbol
_atom_site_label
_atom_site_fract_x
_atom_site_fract_y
_atom_site_fract_z
Si Si1 0.100476 0.730697 0.706029
Si Si2 0.532535 0.896037 0.000000
Si Si3 0.166714 0.669419 0.500000
Si Si4 0.896888 0.363165 0.392917
Si Si5 0.270361 0.371012 0.099374
Si Si6 0.332687 0.842805 0.802882
O O1 0.168130 0.831871 0.712178
O O2 0.124365 0.697774 0.655060
O O3 0.115292 0.682375 0.752986
O O4 0.000000 0.702128 0.703811
O O5 0.567659 0.874566 0.050286
O O6 0.430491 0.860981 0.000000
O O7 0.578888 0.000000 0.000000
O O8 0.268839 0.731162 0.500000
O O9 0.138992 0.569496 0.500000
O O10 0.132994 0.683579 0.446904
O O11 0.862769 0.431385 0.387155
O O12 0.000000 0.419426 0.394481
O O13 0.168600 0.337199 0.103037
O O14 0.299086 0.299086 0.095552
O O15 0.315179 0.429752 0.148391
O O16 0.426233 0.852466 0.803926
O O17 0.257519 0.742482 0.802884
#
# Coordination Sequence:
#
# PCOD9587105 Si02
#       6
#    24  12  12  24  24  24
#     4  10  20  33  49  69  92 119 152 190 231 274
#     4   9  17  30  49  72  96 122 154 191 231 280
#     4  10  18  27  39  57  84 117 151 183 215 254
#     4   9  17  29  45  64  86 114 148 185 225 269
#     4  10  20  33  50  72  97 127 163 202 242 282
#     4  10  20  33  50  73 100 128 156 188 227 271
#
# _framework density 16.30828
#
# number of rings (size 3 to 8) (size 9 to 14) (size 15 to 20)
#    0.000    2.300    0.000    3.300    0.000    4.400 
#    0.000    0.000    0.000    9.600    0.000    0.000 
#    0.000    7.200    0.000    0.000    0.000   21.600 
#
# Total GULP energy -668837.952320 kJ/mol
# GULP energy per Si atom -5573.649603 kJ/mol
# Density = 1.627116 g / cm^3
# Si number density = 16.308280 Si / 1000 Ang^3
#
#
#
# Elastic Constant Matrix: (Units=GPa)
#
#
# Indices 1 2 3 4 5 6 
#
# 1 79.9232 57.7304 36.3373 0.0000 0.0000 0.0000
# 2 57.7304 79.9232 36.3373 0.0000 0.0000 0.0000
# 3 36.3373 36.3373 143.9748 0.0000 0.0000 0.0000
# 4 0.0000 0.0000 0.0000 27.2548 0.0000 0.0000
# 5 0.0000 0.0000 0.0000 0.0000 27.2548 0.0000
# 6 0.0000 0.0000 0.0000 0.0000 0.0000 11.0964
#
#
#
# Elastic Compliance Matrix: (Units=1/GPa)
#
#
# Indices 1 2 3 4 5 6 
#
# 1 0.026721 -0.018339 -0.002115 0.000000 0.000000 0.000000
# 2 -0.018339 0.026721 -0.002115 0.000000 0.000000 0.000000
# 3 -0.002115 -0.002115 0.008013 0.000000 0.000000 0.000000
# 4 0.000000 0.000000 0.000000 0.036691 0.000000 0.000000
# 5 0.000000 0.000000 0.000000 0.000000 0.036691 0.000000
# 6 0.000000 0.000000 0.000000 0.000000 0.000000 0.090120
#
#
# Mechanical properties :
#
#
# Convention : Reuss Voigt Hill
#
# Bulk Modulus (GPa) = 61.29387 62.73681 62.01534
# Shear Modulus (GPa) = 18.14660 24.68228 21.41444
#
# Velocity S-wave (km/s) = 3.33937 3.89457 3.62761
# Velocity P-wave (km/s) = 7.24808 7.66657 7.46026
#
# Compressibility (1/GPa) = 0.01631485
#
# Stress axis : x y z
#
# Youngs Moduli (GPa) = 37.42431 37.42431 124.79045
#
# Poissons Ratio (x) = 0.68633 0.26398
# Poissons Ratio (y) = 0.68633 0.26398
# Poissons Ratio (z) = 0.07917 0.07917
#
# Static dielectric constant tensor:
#      x y z
#    x 1.538090 0.000000 0.000000 
#    y 0.000000 1.538090 0.000000 
#    z 0.000000 0.000000 1.564350 
# 
# From -- ./inp_files/8590.got.cif
#   From: 2010.05.17/outbox.cif.g08.bks.cpg/sg191_5_cif.got.tgz:8590.got - 2010.05.20 12:20:32.
