data_PCOD9587122
_publ_section_title
;
Structure prediction by ZEFSAII (Michael W. Deem and Ramdas Pophale) SiO2 
 PCOD9587122
Probable space group: P 6/M M M
;
_chemical_formula_sum "Si O2"
_cell_formula_units_Z 144
_cell_length_a 23.791867
_cell_length_b 23.791867
_cell_length_c 15.094716
_cell_angle_alpha 90.000000
_cell_angle_beta 90.000000
_cell_angle_gamma 120.000000
_cell_volume 7399.674648
_symmetry_space_group_name_H-M "P 6/M M M"
_symmetry_group_IT_number 191
_symmetry_cell_setting 'hexagonal'
loop_
_space_group_symop_operation_xyz
x,y,z
x-y,x,z
-y,x-y,z
-x,-y,z
-x+y,-x,z
y,-x+y,z
x-y,-y,-z
-x,-x+y,-z
y,x,-z
-y,-x,-z
-x+y,y,-z
x,x-y,-z
-x,-y,-z
-x+y,-x,-z
y,-x+y,-z
x,y,-z
x-y,x,-z
-y,x-y,-z
-x+y,y,z
x,x-y,z
-y,-x,z
y,x,z
x-y,-y,z
-x,-x+y,z
loop_
_atom_site_type_symbol
_atom_site_label
_atom_site_fract_x
_atom_site_fract_y
_atom_site_fract_z
Si Si1 0.334269 0.542077 0.144689
Si Si2 0.729748 0.927862 0.604257
Si Si3 0.202159 0.666213 0.638672
Si Si4 0.190986 0.929376 0.894632
Si Si5 0.924592 0.597375 0.644900
Si Si6 0.595917 0.863038 0.826701
O O1 0.281059 0.562118 0.120860
O O2 0.404763 0.595238 0.114503
O O3 0.334724 0.538479 0.252958
O O4 0.307471 0.468539 0.115960
O O5 0.744333 0.930732 0.500000
O O6 0.732901 0.866451 0.642647
O O7 0.657045 0.916516 0.610444
O O8 0.777175 0.000000 0.641722
O O9 0.206337 0.603169 0.609540
O O10 0.265656 0.734345 0.611819
O O11 0.133810 0.661456 0.612417
O O12 0.121006 0.878995 0.857745
O O13 0.237035 0.899565 0.878266
O O14 0.222218 0.000000 0.855068
O O15 0.184957 0.933291 0.000000
O O16 0.909340 0.597062 0.749210
O O17 0.000000 0.617851 0.628687
O O18 0.591162 0.795581 0.790858
#
# Coordination Sequence:
#
# PCOD9587122 Si02
#       6
#    24  24  24  24  24  24
#     4   8  13  21  35  56  81 108 137 170 207 243
#     4   9  17  29  45  64  86 113 143 172 204 245
#     4   9  16  26  40  58  81 109 141 175 210 248
#     4   9  17  29  45  63  82 105 132 161 194 235
#     4  10  18  27  42  64  89 112 134 168 212 252
#     4   9  16  26  41  62  86 109 136 170 204 238
#
# _framework density 19.460315000000001
#
# number of rings (size 3 to 8) (size 9 to 14) (size 15 to 20)
#    0.000    3.000    0.000    3.333    0.000    1.667 
#    0.000    0.000    0.000    2.833    0.000    5.833 
#    0.000    2.667    0.000    5.333    0.000    7.333 
#
# Total GULP energy -802173.160294 kJ/mol
# GULP energy per Si atom -5570.646946 kJ/mol
# Density = 1.941602 g / cm^3
# Si number density = 19.460315 Si / 1000 Ang^3
#
#
#
# Elastic Constant Matrix: (Units=GPa)
#
#
# Indices 1 2 3 4 5 6 
#
# 1 161.9211 110.8250 4.9764 0.0000 0.0000 0.0000
# 2 110.8250 161.9211 4.9764 0.0000 0.0000 0.0000
# 3 4.9764 4.9764 33.4152 0.0000 0.0000 0.0000
# 4 0.0000 0.0000 0.0000 14.9201 0.0000 0.0000
# 5 0.0000 0.0000 0.0000 0.0000 14.9201 0.0000
# 6 0.0000 0.0000 0.0000 0.0000 0.0000 25.5481
#
#
#
# Elastic Compliance Matrix: (Units=1/GPa)
#
#
# Indices 1 2 3 4 5 6 
#
# 1 0.011629 -0.007942 -0.000549 0.000000 0.000000 0.000000
# 2 -0.007942 0.011629 -0.000549 0.000000 0.000000 0.000000
# 3 -0.000549 -0.000549 0.030090 0.000000 0.000000 0.000000
# 4 0.000000 0.000000 0.000000 0.067024 0.000000 0.000000
# 5 0.000000 0.000000 0.000000 0.000000 0.067024 0.000000
# 6 0.000000 0.000000 0.000000 0.000000 0.000000 0.039142
#
#
# Mechanical properties :
#
#
# Convention : Reuss Voigt Hill
#
# Bulk Modulus (GPa) = 28.35525 66.53478 47.44502
# Shear Modulus (GPa) = 19.50283 26.84295 23.17289
#
# Velocity S-wave (km/s) = 3.16916 3.71801 3.45451
# Velocity P-wave (km/s) = 5.29093 7.25918 6.35176
#
# Compressibility (1/GPa) = 0.03526684
#
# Stress axis : x y z
#
# Youngs Moduli (GPa) = 85.99411 85.99411 33.23365
#
# Poissons Ratio (x) = 0.68299 0.01825
# Poissons Ratio (y) = 0.68299 0.01825
# Poissons Ratio (z) = 0.04721 0.04721
#
# Static dielectric constant tensor:
#      x y z
#    x 1.696180 0.000000 0.000000 
#    y 0.000000 1.696180 0.000000 
#    z 0.000000 0.000000 1.752710 
# 
# From -- ./inp_files/6561.got.cif
#   From: 2010.05.17/outbox.cif.g08.bks.cpg/sg191_4_cif.got.tgz:6561.got - 2010.05.20 12:20:32.
