data_PCOD9587986
_publ_section_title
;
Structure prediction by ZEFSAII (Michael W. Deem and Ramdas Pophale) SiO2 
 PCOD9587986
Probable space group: P 6/M M M
;
_chemical_formula_sum "Si O2"
_cell_formula_units_Z 156
_cell_length_a 21.524448
_cell_length_b 21.524448
_cell_length_c 23.167246
_cell_angle_alpha 90.000000
_cell_angle_beta 90.000000
_cell_angle_gamma 120.000000
_cell_volume 9295.421493
_symmetry_space_group_name_H-M "P 6/M M M"
_symmetry_group_IT_number 191
_symmetry_cell_setting 'hexagonal'
loop_
_space_group_symop_operation_xyz
x,y,z
x-y,x,z
-y,x-y,z
-x,-y,z
-x+y,-x,z
y,-x+y,z
x-y,-y,-z
-x,-x+y,-z
y,x,-z
-y,-x,-z
-x+y,y,-z
x,x-y,-z
-x,-y,-z
-x+y,-x,-z
y,-x+y,-z
x,y,-z
x-y,x,-z
-y,x-y,-z
-x+y,y,z
x,x-y,z
-y,-x,z
y,x,z
x-y,-y,z
-x,-x+y,z
loop_
_atom_site_type_symbol
_atom_site_label
_atom_site_fract_x
_atom_site_fract_y
_atom_site_fract_z
Si Si1 0.461340 0.159676 0.378316
Si Si2 0.197099 0.530637 0.068549
Si Si3 0.517928 0.331788 0.247749
Si Si4 0.693414 0.776153 0.568097
Si Si5 0.424925 0.083496 0.145855
Si Si6 0.082673 0.541337 0.431342
Si Si7 0.223675 0.304853 0.065742
O O1 0.480211 0.240106 0.396520
O O2 0.483191 0.164741 0.311406
O O3 0.377266 0.109906 0.392948
O O4 0.502562 0.125796 0.410904
O O5 0.253197 0.506393 0.088796
O O6 0.228029 0.614015 0.081527
O O7 0.120981 0.486931 0.098371
O O8 0.190582 0.521871 0.000000
O O9 0.533332 0.266666 0.236165
O O10 0.591511 0.408490 0.244846
O O11 0.460127 0.328870 0.202253
O O12 0.672412 0.760208 0.500000
O O13 0.720403 0.860202 0.576408
O O14 0.750330 0.750330 0.579769
O O15 0.360783 0.089656 0.115119
O O16 0.396130 0.000000 0.156171
O O17 0.079065 0.539533 0.500000
O O18 0.000000 0.500000 0.409109
O O19 0.141946 0.283891 0.072262
O O20 0.240257 0.240257 0.068965
O O21 0.246088 0.336063 0.000000
#
# Coordination Sequence:
#
# PCOD9587986 Si02
#       7
#    24  24  24  24  24  12  24
#     4  10  21  37  54  77 105 136 175 221 264 313
#     4  10  20  34  52  72  95 124 161 207 254 303
#     4  11  23  40  58  74  96 134 173 216 257 307
#     4   9  17  31  53  79 107 138 173 213 255 302
#     4  11  23  35  49  73 100 128 166 208 254 308
#     4  11  22  36  56  82 110 142 179 217 265 323
#     4   9  17  31  52  76 102 132 166 206 251 303
#
# _framework density 16.782456
#
# number of rings (size 3 to 8) (size 9 to 14) (size 15 to 20)
#    0.000    1.923    0.769    3.538    0.000    7.385 
#    0.462    2.308    0.000    0.308    0.000    2.154 
#    0.000    0.000    0.000    0.000    0.000   20.000 
#
# Total GULP energy -869785.749451 kJ/mol
# GULP energy per Si atom -5575.549676 kJ/mol
# Density = 1.674426 g / cm^3
# Si number density = 16.782456 Si / 1000 Ang^3
#
#
#
# Elastic Constant Matrix: (Units=GPa)
#
#
# Indices 1 2 3 4 5 6 
#
# 1 119.4400 84.9972 52.3522 0.0000 0.0000 0.0000
# 2 84.9972 119.4400 52.3522 0.0000 0.0000 0.0000
# 3 52.3522 52.3522 70.3773 0.0000 0.0000 0.0000
# 4 0.0000 0.0000 0.0000 20.1407 0.0000 0.0000
# 5 0.0000 0.0000 0.0000 0.0000 20.1407 0.0000
# 6 0.0000 0.0000 0.0000 0.0000 0.0000 17.2214
#
#
#
# Elastic Compliance Matrix: (Units=1/GPa)
#
#
# Indices 1 2 3 4 5 6 
#
# 1 0.018468 -0.010566 -0.005878 0.000000 0.000000 0.000000
# 2 -0.010566 0.018468 -0.005878 0.000000 0.000000 0.000000
# 3 -0.005878 -0.005878 0.022954 0.000000 0.000000 0.000000
# 4 0.000000 0.000000 0.000000 0.049651 0.000000 0.000000
# 5 0.000000 0.000000 0.000000 0.000000 0.049651 0.000000
# 6 0.000000 0.000000 0.000000 0.000000 0.000000 0.058067
#
#
# Mechanical properties :
#
#
# Convention : Reuss Voigt Hill
#
# Bulk Modulus (GPa) = 65.59169 76.51784 71.05476
# Shear Modulus (GPa) = 18.72762 19.47091 19.09926
#
# Velocity S-wave (km/s) = 3.34414 3.40986 3.37716
# Velocity P-wave (km/s) = 7.35387 7.82277 7.59194
#
# Compressibility (1/GPa) = 0.01524583
#
# Stress axis : x y z
#
# Youngs Moduli (GPa) = 54.14811 54.14811 43.56465
#
# Poissons Ratio (x) = 0.57212 0.25608
# Poissons Ratio (y) = 0.57212 0.25608
# Poissons Ratio (z) = 0.31829 0.31829
#
# Static dielectric constant tensor:
#      x y z
#    x 1.565070 0.000000 0.000000 
#    y 0.000000 1.565070 0.000000 
#    z 0.000000 0.000000 1.575840 
# 
# From -- ./inp_files/7717.got.cif
#   From: 2010.05.17/outbox.cif.g08.bks.cpg/sg191_4_cif.got.tgz:7717.got - 2010.05.20 12:20:32.
