data_PCOD9587019
_publ_section_title
;
Structure prediction by ZEFSAII (Michael W. Deem and Ramdas Pophale) SiO2 
 PCOD9587019
Probable space group: P -6 2 C
;
_chemical_formula_sum "Si O2"
_cell_formula_units_Z 60
_cell_length_a 21.000000
_cell_length_b 21.000000
_cell_length_c 9.000000
_cell_angle_alpha 90.000000
_cell_angle_beta 90.000000
_cell_angle_gamma 120.000000
_cell_volume 3437.254828
_symmetry_space_group_name_H-M "P -6 2 C"
_symmetry_group_IT_number 190
_symmetry_cell_setting 'hexagonal'
loop_
_space_group_symop_operation_xyz
x,y,z
-x+y,-x,1/2-z
-y,x-y,z
x,y,1/2-z
-x+y,-x,z
-y,x-y,1/2-z
x-y,-y,-z
-x,-x+y,-z
y,x,-z
y,x,1/2+z
x-y,-y,1/2+z
-x,-x+y,1/2+z
loop_
_atom_site_type_symbol
_atom_site_label
_atom_site_fract_x
_atom_site_fract_y
_atom_site_fract_z
Si Si1 0.503907 0.422836 0.572735
Si Si2 0.081773 0.435304 0.071335
Si Si3 0.000000 0.180618 0.500000
Si Si4 0.022274 0.092536 0.750000
Si Si5 0.870411 0.202876 0.427881
Si Si6 0.079787 0.703239 0.574200
O O1 0.492974 0.417054 0.750000
O O2 0.465451 0.465451 0.500000
O O3 0.590202 0.477873 0.544937
O O4 0.457582 0.343052 0.499111
O O5 0.077145 0.423490 0.250000
O O6 0.126907 0.402496 0.991207
O O7 0.000000 0.391250 0.000000
O O8 0.029239 0.144450 0.617490
O O9 0.068897 0.262146 0.479868
O O10 0.075316 0.057825 0.750000
O O11 0.889138 0.211375 0.250000
O O12 0.789811 0.133097 0.446242
O O13 0.069922 0.687694 0.750000
O O14 0.000000 0.674115 0.500000
#
# Coordination Sequence:
#
# PCOD9587019 Si02
#       6
#    12  12   6   6  12  12
#     4   9  17  32  54  82 107 135 172 213 261 328
#     4  10  20  33  56  82 111 143 178 220 276 338
#     4  12  22  42  58  82 114 144 198 264 306 352
#     4  10  24  42  62  76 100 148 208 254 306 368
#     4  11  24  38  54  84 117 150 191 243 297 348
#     4  10  21  37  55  81 113 148 190 234 287 346
#
# _framework density 17.45579
#
# number of rings (size 3 to 8) (size 9 to 14) (size 15 to 20)
#    0.200    1.600    2.000    3.600    1.400    5.600 
#    0.000    0.000    0.000    0.800    0.000    0.000 
#    0.000    0.000    0.000    0.000    0.000    0.000 
#
# Total GULP energy -334052.390953 kJ/mol
# GULP energy per Si atom -5567.539849 kJ/mol
# Density = 1.741606 g / cm^3
# Si number density = 17.455790 Si / 1000 Ang^3
#
#
#
# Elastic Constant Matrix: (Units=GPa)
#
#
# Indices 1 2 3 4 5 6 
#
# 1 86.3867 39.1537 16.4856 0.0000 0.0000 0.0000
# 2 39.1537 86.3867 16.4856 0.0000 0.0000 0.0000
# 3 16.4856 16.4856 41.0269 0.0000 0.0000 0.0000
# 4 0.0000 0.0000 0.0000 44.0466 0.0000 0.0000
# 5 0.0000 0.0000 0.0000 0.0000 44.0466 0.0000
# 6 0.0000 0.0000 0.0000 0.0000 0.0000 23.6165
#
#
#
# Elastic Compliance Matrix: (Units=1/GPa)
#
#
# Indices 1 2 3 4 5 6 
#
# 1 0.015038 -0.006133 -0.003578 0.000000 0.000000 0.000000
# 2 -0.006133 0.015038 -0.003578 0.000000 0.000000 0.000000
# 3 -0.003578 -0.003578 0.027250 0.000000 0.000000 0.000000
# 4 0.000000 0.000000 0.000000 0.022703 0.000000 0.000000
# 5 0.000000 0.000000 0.000000 0.000000 0.022703 0.000000
# 6 0.000000 0.000000 0.000000 0.000000 0.000000 0.042343
#
#
# Mechanical properties :
#
#
# Convention : Reuss Voigt Hill
#
# Bulk Modulus (GPa) = 32.52330 39.78336 36.15333
# Shear Modulus (GPa) = 27.48678 31.78698 29.63688
#
# Velocity S-wave (km/s) = 3.97249 4.27195 4.12494
# Velocity P-wave (km/s) = 6.30184 6.86827 6.59114
#
# Compressibility (1/GPa) = 0.03074719
#
# Stress axis : x y z
#
# Youngs Moduli (GPa) = 66.49602 66.49602 36.69716
#
# Poissons Ratio (x) = 0.40783 0.13132
# Poissons Ratio (y) = 0.40783 0.13132
# Poissons Ratio (z) = 0.23795 0.23795
#
# Static dielectric constant tensor:
#      x y z
#    x 1.591380 0.000000 0.000000 
#    y 0.000000 1.591380 0.000000 
#    z 0.000000 0.000000 1.601060 
# 
# From -- ./inp_files/976.got.cif
#   From: 2010.05.17/outbox.ucp.g08.bks.cvg/sg190_1_cif.got.tgz:976.got - 2010.06.11 15:22:26.
