data_PCOD9587761
_publ_section_title
;
Structure prediction by ZEFSAII (Michael W. Deem and Ramdas Pophale) SiO2 
 PCOD9587761
Probable space group: P 6/M M M
;
_chemical_formula_sum "Si O2"
_cell_formula_units_Z 120
_cell_length_a 17.831872
_cell_length_b 17.831872
_cell_length_c 24.559832
_cell_angle_alpha 90.000000
_cell_angle_beta 90.000000
_cell_angle_gamma 120.000000
_cell_volume 6763.163700
_symmetry_space_group_name_H-M "P 6/M M M"
_symmetry_group_IT_number 191
_symmetry_cell_setting 'hexagonal'
loop_
_space_group_symop_operation_xyz
x,y,z
x-y,x,z
-y,x-y,z
-x,-y,z
-x+y,-x,z
y,-x+y,z
x-y,-y,-z
-x,-x+y,-z
y,x,-z
-y,-x,-z
-x+y,y,-z
x,x-y,-z
-x,-y,-z
-x+y,-x,-z
y,-x+y,-z
x,y,-z
x-y,x,-z
-y,x-y,-z
-x+y,y,z
x,x-y,z
-y,-x,z
y,x,z
x-y,-y,z
-x,-x+y,z
loop_
_atom_site_type_symbol
_atom_site_label
_atom_site_fract_x
_atom_site_fract_y
_atom_site_fract_z
Si Si1 0.598068 0.799034 0.578752
Si Si2 0.897280 0.534916 0.783288
Si Si3 0.199177 0.099589 0.419166
Si Si4 0.101966 0.731796 0.106770
Si Si5 0.467453 0.362860 0.000000
Si Si6 0.358890 0.462359 0.500000
Si Si7 0.201617 0.798384 0.291168
Si Si8 0.899951 0.799901 0.286860
O O1 0.700494 0.850247 0.564984
O O2 0.556197 0.851683 0.551414
O O3 0.590905 0.795453 0.643768
O O4 0.870439 0.435220 0.789376
O O5 0.883102 0.573052 0.839203
O O6 0.848410 0.552265 0.735046
O O7 0.000000 0.587984 0.772590
O O8 0.149921 0.149921 0.437011
O O9 0.196707 0.098354 0.352950
O O10 0.165767 0.834234 0.108368
O O11 0.125978 0.693572 0.054342
O O12 0.000000 0.699441 0.103759
O O13 0.420734 0.420734 0.000000
O O14 0.569699 0.430302 0.000000
O O15 0.397646 0.397646 0.500000
O O16 0.440797 0.559204 0.500000
O O17 0.150895 0.849106 0.273447
O O18 0.848743 0.848743 0.268263
#
# Coordination Sequence:
#
# PCOD9587761 Si02
#       8
#    12  24  12  24  12  12  12  12
#     4  10  22  38  60  88 113 145 182 235 280 327
#     4  10  21  37  56  78 109 150 193 237 288 347
#     4   9  16  28  50  83 122 156 182 210 254 317
#     4  10  19  34  56  82 113 152 198 246 297 353
#     4   9  17  30  53  82 110 144 192 249 299 346
#     4  10  22  42  65  85 107 139 180 226 280 337
#     4  11  21  37  57  82 115 147 189 229 279 341
#     4   9  17  29  49  79 114 150 186 225 266 312
#
# _framework density 17.743174
#
# number of rings (size 3 to 8) (size 9 to 14) (size 15 to 20)
#    0.000    2.200    1.000    2.300    0.000    6.400 
#    3.000    2.000    0.000    3.000    0.000    3.500 
#    0.000    2.400    0.000    0.000    0.000    0.000 
#
# Total GULP energy -669655.249239 kJ/mol
# GULP energy per Si atom -5580.460410 kJ/mol
# Density = 1.770279 g / cm^3
# Si number density = 17.743174 Si / 1000 Ang^3
#
#
#
# Elastic Constant Matrix: (Units=GPa)
#
#
# Indices 1 2 3 4 5 6 
#
# 1 117.5694 80.6297 45.4947 0.0000 0.0000 0.0000
# 2 80.6297 117.5694 45.4947 0.0000 0.0000 0.0000
# 3 45.4947 45.4947 110.2677 0.0000 0.0000 0.0000
# 4 0.0000 0.0000 0.0000 8.4727 0.0000 0.0000
# 5 0.0000 0.0000 0.0000 0.0000 8.4727 0.0000
# 6 0.0000 0.0000 0.0000 0.0000 0.0000 18.4699
#
#
#
# Elastic Compliance Matrix: (Units=1/GPa)
#
#
# Indices 1 2 3 4 5 6 
#
# 1 0.016648 -0.010423 -0.002568 0.000000 0.000000 0.000000
# 2 -0.010423 0.016648 -0.002568 0.000000 0.000000 0.000000
# 3 -0.002568 -0.002568 0.011188 0.000000 0.000000 0.000000
# 4 0.000000 0.000000 0.000000 0.118026 0.000000 0.000000
# 5 0.000000 0.000000 0.000000 0.000000 0.118026 0.000000
# 6 0.000000 0.000000 0.000000 0.000000 0.000000 0.054142
#
#
# Mechanical properties :
#
#
# Convention : Reuss Voigt Hill
#
# Bulk Modulus (GPa) = 74.82574 76.51607 75.67091
# Shear Modulus (GPa) = 13.50433 18.66890 16.08661
#
# Velocity S-wave (km/s) = 2.76180 3.24724 3.01431
# Velocity P-wave (km/s) = 7.24107 7.56818 7.40643
#
# Compressibility (1/GPa) = 0.01336438
#
# Stress axis : x y z
#
# Youngs Moduli (GPa) = 60.06819 60.06819 89.38202
#
# Poissons Ratio (x) = 0.62611 0.22954
# Poissons Ratio (y) = 0.62611 0.22954
# Poissons Ratio (z) = 0.15426 0.15426
#
# Static dielectric constant tensor:
#      x y z
#    x 1.594530 0.000000 0.000000 
#    y 0.000000 1.594530 0.000000 
#    z 0.000000 0.000000 1.606610 
# 
# From -- ./inp_files/8669.got.cif
#   From: 2010.05.17/outbox.cif.g08.bks.cpg/sg191_5_cif.got.tgz:8669.got - 2010.05.20 12:20:32.
