data_PCOD9587932
_publ_section_title
;
Structure prediction by ZEFSAII (Michael W. Deem and Ramdas Pophale) SiO2 
 PCOD9587932
Probable space group: P 6/M M M
;
_chemical_formula_sum "Si O2"
_cell_formula_units_Z 144
_cell_length_a 32.735129
_cell_length_b 32.735129
_cell_length_c 7.566574
_cell_angle_alpha 90.000000
_cell_angle_beta 90.000000
_cell_angle_gamma 120.000000
_cell_volume 7021.954788
_symmetry_space_group_name_H-M "P 6/M M M"
_symmetry_group_IT_number 191
_symmetry_cell_setting 'hexagonal'
loop_
_space_group_symop_operation_xyz
x,y,z
x-y,x,z
-y,x-y,z
-x,-y,z
-x+y,-x,z
y,-x+y,z
x-y,-y,-z
-x,-x+y,-z
y,x,-z
-y,-x,-z
-x+y,y,-z
x,x-y,-z
-x,-y,-z
-x+y,-x,-z
y,-x+y,-z
x,y,-z
x-y,x,-z
-y,x-y,-z
-x+y,y,z
x,x-y,z
-y,-x,z
y,x,z
x-y,-y,z
-x,-x+y,z
loop_
_atom_site_type_symbol
_atom_site_label
_atom_site_fract_x
_atom_site_fract_y
_atom_site_fract_z
Si Si1 0.573172 0.052663 0.712858
Si Si2 0.144645 0.197379 0.715813
Si Si3 0.668953 0.521744 0.789577
Si Si4 0.052361 0.290977 0.712545
Si Si5 0.853059 0.613957 0.210861
Si Si6 0.572521 0.333500 0.216221
O O1 0.571754 0.051455 0.500000
O O2 0.530244 0.060487 0.773376
O O3 0.623231 0.096224 0.762877
O O4 0.559700 0.000000 0.772866
O O5 0.144199 0.197520 0.500000
O O6 0.094842 0.189684 0.777094
O O7 0.158892 0.158892 0.770528
O O8 0.187671 0.248349 0.771202
O O9 0.716048 0.566700 0.717728
O O10 0.662533 0.472364 0.722633
O O11 0.675128 0.520852 0.000000
O O12 0.050662 0.289204 0.500000
O O13 0.095832 0.340964 0.760882
O O14 0.000000 0.277612 0.774797
O O15 0.810592 0.621184 0.280174
O O16 0.846904 0.608314 0.000000
O O17 0.568841 0.284421 0.270451
O O18 0.621361 0.378640 0.273015
O O19 0.572709 0.333867 0.000000
#
# Coordination Sequence:
#
# PCOD9587932 Si02
#       6
#    24  24  24  24  24  24
#     4   9  19  36  55  74  98 128 161 199 244 289
#     4   8  13  22  38  60  84 110 143 185 230 272
#     4  10  20  33  50  73 100 129 162 198 234 278
#     4   9  18  32  50  71  92 118 159 208 249 286
#     4  10  21  35  49  68  99 136 166 195 240 295
#     4   9  16  27  46  72  99 124 152 189 232 275
#
# _framework density 20.507110999999998
#
# number of rings (size 3 to 8) (size 9 to 14) (size 15 to 20)
#    0.000    2.833    0.000    3.167    0.000    6.667 
#    0.000    4.167    0.000    1.667    0.000    1.167 
#    0.000    1.333    0.000    0.000    0.000    0.000 
#
# Total GULP energy -803644.127166 kJ/mol
# GULP energy per Si atom -5580.861994 kJ/mol
# Density = 2.046044 g / cm^3
# Si number density = 20.507111 Si / 1000 Ang^3
#
#
#
# Elastic Constant Matrix: (Units=GPa)
#
#
# Indices 1 2 3 4 5 6 
#
# 1 176.8512 117.6563 3.0456 0.0000 0.0000 0.0000
# 2 117.6563 176.8512 3.0456 0.0000 0.0000 0.0000
# 3 3.0456 3.0456 44.7314 0.0000 0.0000 0.0000
# 4 0.0000 0.0000 0.0000 41.2201 0.0000 0.0000
# 5 0.0000 0.0000 0.0000 0.0000 41.2201 0.0000
# 6 0.0000 0.0000 0.0000 0.0000 0.0000 29.5974
#
#
#
# Elastic Compliance Matrix: (Units=1/GPa)
#
#
# Indices 1 2 3 4 5 6 
#
# 1 0.010147 -0.006747 -0.000232 0.000000 0.000000 0.000000
# 2 -0.006747 0.010147 -0.000232 0.000000 0.000000 0.000000
# 3 -0.000232 -0.000232 0.022387 0.000000 0.000000 0.000000
# 4 0.000000 0.000000 0.000000 0.024260 0.000000 0.000000
# 5 0.000000 0.000000 0.000000 0.000000 0.024260 0.000000
# 6 0.000000 0.000000 0.000000 0.000000 0.000000 0.033787
#
#
# Mechanical properties :
#
#
# Convention : Reuss Voigt Hill
#
# Bulk Modulus (GPa) = 35.38357 71.76986 53.57672
# Shear Modulus (GPa) = 33.59602 40.71997 37.15800
#
# Velocity S-wave (km/s) = 4.05194 4.46090 4.26133
# Velocity P-wave (km/s) = 6.25961 7.84897 7.09891
#
# Compressibility (1/GPa) = 0.02826170
#
# Stress axis : x y z
#
# Youngs Moduli (GPa) = 98.55307 98.55307 44.66844
#
# Poissons Ratio (x) = 0.66489 0.01034
# Poissons Ratio (y) = 0.66489 0.01034
# Poissons Ratio (z) = 0.02282 0.02282
#
# Static dielectric constant tensor:
#      x y z
#    x 1.708940 0.000000 0.000000 
#    y 0.000000 1.708940 0.000000 
#    z 0.000000 0.000000 1.826350 
# 
# From -- ./inp_files/1995.got.cif
#   From: 2010.05.17/outbox.cif.g08.bks.cpg/sg191_1_cif.got.tgz:1995.got - 2010.05.20 12:20:32.
