data_PCOD9587129
_publ_section_title
;
Structure prediction by ZEFSAII (Michael W. Deem and Ramdas Pophale) SiO2 
 PCOD9587129
Probable space group: P 6/M M M
;
_chemical_formula_sum "Si O2"
_cell_formula_units_Z 108
_cell_length_a 17.325654
_cell_length_b 17.325654
_cell_length_c 21.202691
_cell_angle_alpha 90.000000
_cell_angle_beta 90.000000
_cell_angle_gamma 120.000000
_cell_volume 5511.894420
_symmetry_space_group_name_H-M "P 6/M M M"
_symmetry_group_IT_number 191
_symmetry_cell_setting 'hexagonal'
loop_
_space_group_symop_operation_xyz
x,y,z
x-y,x,z
-y,x-y,z
-x,-y,z
-x+y,-x,z
y,-x+y,z
x-y,-y,-z
-x,-x+y,-z
y,x,-z
-y,-x,-z
-x+y,y,-z
x,x-y,-z
-x,-y,-z
-x+y,-x,-z
y,-x+y,-z
x,y,-z
x-y,x,-z
-y,x-y,-z
-x+y,y,z
x,x-y,z
-y,-x,z
y,x,z
x-y,-y,z
-x,-x+y,z
loop_
_atom_site_type_symbol
_atom_site_label
_atom_site_fract_x
_atom_site_fract_y
_atom_site_fract_z
Si Si1 0.161747 0.491736 0.000000
Si Si2 0.486816 0.156958 0.271844
Si Si3 0.181568 0.000000 0.574982
Si Si4 0.000000 0.186048 0.206777
Si Si5 0.641181 0.535532 0.866937
Si Si6 0.308311 0.308311 0.320704
Si Si7 0.814199 0.814199 0.931983
O O1 0.129359 0.439397 0.065834
O O2 0.267979 0.535957 0.000000
O O3 0.130326 0.565163 0.000000
O O4 0.570591 0.141181 0.274560
O O5 0.514169 0.257085 0.289055
O O6 0.451788 0.140695 0.199283
O O7 0.405110 0.086445 0.313321
O O8 0.087958 0.912043 0.590115
O O9 0.196706 0.000000 0.500000
O O10 0.258407 0.000000 0.616194
O O11 0.088961 0.177921 0.211370
O O12 0.000000 0.247943 0.262416
O O13 0.000000 0.225516 0.136793
O O14 0.571011 0.428990 0.870404
O O15 0.584369 0.584369 0.862150
O O16 0.823700 0.911850 0.931721
O O17 0.771885 0.771885 0.000000
#
# Coordination Sequence:
#
# PCOD9587129 Si02
#       7
#    12  24  12  12  24  12  12
#     4  10  18  27  43  67  98 133 180 241 308 377
#     4  11  22  38  60  85 115 153 200 251 303 361
#     4  10  21  39  65  99 137 174 210 247 291 349
#     4  10  19  31  50  78 112 149 191 237 289 351
#     4   9  17  31  49  71  99 136 182 239 305 368
#     4  12  23  38  59  88 123 160 193 240 303 356
#     4   8  13  22  39  63  94 134 181 231 277 325
#
# _framework density 19.593990000000002
#
# number of rings (size 3 to 8) (size 9 to 14) (size 15 to 20)
#    0.000    2.000    1.111    4.000    0.000    3.111 
#    0.000    3.333    2.444    1.333    0.000    0.000 
#    0.000    1.778    0.000    0.000    0.000    0.000 
#
# Total GULP energy -602842.690634 kJ/mol
# GULP energy per Si atom -5581.876765 kJ/mol
# Density = 1.954939 g / cm^3
# Si number density = 19.593990 Si / 1000 Ang^3
#
#
#
# Elastic Constant Matrix: (Units=GPa)
#
#
# Indices 1 2 3 4 5 6 
#
# 1 89.0560 35.9568 42.3245 0.0000 0.0000 0.0000
# 2 35.9568 89.0560 42.3245 0.0000 0.0000 0.0000
# 3 42.3245 42.3245 60.8948 0.0000 0.0000 0.0000
# 4 0.0000 0.0000 0.0000 197.0220 0.0000 0.0000
# 5 0.0000 0.0000 0.0000 0.0000 197.0220 0.0000
# 6 0.0000 0.0000 0.0000 0.0000 0.0000 26.5496
#
#
#
# Elastic Compliance Matrix: (Units=1/GPa)
#
#
# Indices 1 2 3 4 5 6 
#
# 1 0.016972 -0.001861 -0.010503 0.000000 0.000000 0.000000
# 2 -0.001861 0.016972 -0.010503 0.000000 0.000000 0.000000
# 3 -0.010503 -0.010503 0.031021 0.000000 0.000000 0.000000
# 4 0.000000 0.000000 0.000000 0.005076 0.000000 0.000000
# 5 0.000000 0.000000 0.000000 0.000000 0.005076 0.000000
# 6 0.000000 0.000000 0.000000 0.000000 0.000000 0.037665
#
#
# Mechanical properties :
#
#
# Convention : Reuss Voigt Hill
#
# Bulk Modulus (GPa) = 51.99583 53.35763 52.67673
# Shear Modulus (GPa) = 30.31690 92.01213 61.16451
#
# Velocity S-wave (km/s) = 3.93778 6.86012 5.59319
# Velocity P-wave (km/s) = 6.87525 9.48890 8.28578
#
# Compressibility (1/GPa) = 0.01923231
#
# Stress axis : x y z
#
# Youngs Moduli (GPa) = 58.92154 58.92154 32.23588
#
# Poissons Ratio (x) = 0.10965 0.33856
# Poissons Ratio (y) = 0.10965 0.33856
# Poissons Ratio (z) = 0.61883 0.61883
#
# Static dielectric constant tensor:
#      x y z
#    x 1.705820 0.000000 0.000000 
#    y 0.000000 1.705820 0.000000 
#    z 0.000000 0.000000 1.698390 
# 
# From -- ./inp_files/7409.got.cif
#   From: 2010.05.17/outbox.cif.g08.bks.cpg/sg191_4_cif.got.tgz:7409.got - 2010.05.20 12:20:32.
