data_PCOD9587874
_publ_section_title
;
Structure prediction by ZEFSAII (Michael W. Deem and Ramdas Pophale) SiO2 
 PCOD9587874
Probable space group: P 6/M M M
;
_chemical_formula_sum "Si O2"
_cell_formula_units_Z 96
_cell_length_a 21.761224
_cell_length_b 21.761224
_cell_length_c 14.262030
_cell_angle_alpha 90.000000
_cell_angle_beta 90.000000
_cell_angle_gamma 120.000000
_cell_volume 5848.959526
_symmetry_space_group_name_H-M "P 6/M M M"
_symmetry_group_IT_number 191
_symmetry_cell_setting 'hexagonal'
loop_
_space_group_symop_operation_xyz
x,y,z
x-y,x,z
-y,x-y,z
-x,-y,z
-x+y,-x,z
y,-x+y,z
x-y,-y,-z
-x,-x+y,-z
y,x,-z
-y,-x,-z
-x+y,y,-z
x,x-y,-z
-x,-y,-z
-x+y,-x,-z
y,-x+y,-z
x,y,-z
x-y,x,-z
-y,x-y,-z
-x+y,y,z
x,x-y,z
-y,-x,z
y,x,z
x-y,-y,z
-x,-x+y,z
loop_
_atom_site_type_symbol
_atom_site_label
_atom_site_fract_x
_atom_site_fract_y
_atom_site_fract_z
Si Si1 0.302630 0.222022 0.892487
Si Si2 0.083031 0.660315 0.763704
Si Si3 0.803058 0.469649 0.889115
Si Si4 0.188258 0.666672 0.611597
O O1 0.282266 0.141133 0.880710
O O2 0.238898 0.238898 0.885648
O O3 0.359802 0.270261 0.814644
O O4 0.331781 0.243043 0.000000
O O5 0.122947 0.636454 0.837220
O O6 0.128624 0.673228 0.669821
O O7 0.000000 0.605686 0.750262
O O8 0.745527 0.491053 0.856595
O O9 0.773567 0.386784 0.872962
O O10 0.812213 0.481876 0.000000
O O11 0.175979 0.665224 0.500000
O O12 0.186979 0.593490 0.636509
O O13 0.265591 0.734410 0.630930
#
# Coordination Sequence:
#
# PCOD9587874 Si02
#       4
#    24  24  24  24
#     4   9  17  30  49  72  98 128 161 195 230 271
#     4  11  22  33  47  69  96 126 157 187 226 277
#     4  10  20  33  49  68  91 120 155 196 239 279
#     4  10  21  37  56  74  91 115 151 195 239 281
#
# _framework density 16.413176
#
# number of rings (size 3 to 8) (size 9 to 14) (size 15 to 20)
#    0.000    2.000    0.000    4.250    0.000    8.000 
#    0.000    5.000    0.000    0.250    0.000    1.750 
#    0.000    0.000    0.000    0.000    0.000    0.000 
#
# Total GULP energy -535357.452625 kJ/mol
# GULP energy per Si atom -5576.640132 kJ/mol
# Density = 1.637582 g / cm^3
# Si number density = 16.413176 Si / 1000 Ang^3
#
#
#
# Elastic Constant Matrix: (Units=GPa)
#
#
# Indices 1 2 3 4 5 6 
#
# 1 105.2186 64.7831 46.8493 0.0000 0.0000 0.0000
# 2 64.7831 105.2186 46.8493 0.0000 0.0000 0.0000
# 3 46.8493 46.8493 90.6311 0.0000 0.0000 0.0000
# 4 0.0000 0.0000 0.0000 -12.9864 0.0000 0.0000
# 5 0.0000 0.0000 0.0000 0.0000 -12.9864 0.0000
# 6 0.0000 0.0000 0.0000 0.0000 0.0000 20.2177
#
#
#
# Elastic Compliance Matrix: (Units=1/GPa)
#
#
# Indices 1 2 3 4 5 6 
#
# 1 0.016478 -0.008252 -0.004252 0.000000 0.000000 0.000000
# 2 -0.008252 0.016478 -0.004252 0.000000 0.000000 0.000000
# 3 -0.004252 -0.004252 0.015430 0.000000 0.000000 0.000000
# 4 0.000000 0.000000 0.000000 -0.077003 0.000000 0.000000
# 5 0.000000 0.000000 0.000000 0.000000 -0.077003 0.000000
# 6 0.000000 0.000000 0.000000 0.000000 0.000000 0.049461
#
#
# Mechanical properties :
#
#
# Convention : Reuss Voigt Hill
#
# Bulk Modulus (GPa) = 67.23593 68.67021 67.95307
# Shear Modulus (GPa) = -282.68132 8.35475 -137.16328
#
# Velocity S-wave (km/s) = -13.13781 2.25861 -9.15153
# Velocity P-wave (km/s) = 13.75073 6.98076 8.37710
#
# Compressibility (1/GPa) = 0.01487300
#
# Stress axis : x y z
#
# Youngs Moduli (GPa) = 60.68573 60.68573 64.80954
#
# Poissons Ratio (x) = 0.50080 0.27558
# Poissons Ratio (y) = 0.50080 0.27558
# Poissons Ratio (z) = 0.25805 0.25805
#
# Static dielectric constant tensor:
#      x y z
#    x 1.543320 0.000000 0.000000 
#    y 0.000000 1.543320 0.000000 
#    z 0.000000 0.000000 1.578120 
# 
# From -- ./inp_files/4174.got.cif
#   From: 2010.05.17/outbox.cif.g08.bks.cpg/sg191_3_cif.got.tgz:4174.got - 2010.05.20 12:20:32.
