data_PCOD9587201
_publ_section_title
;
Structure prediction by ZEFSAII (Michael W. Deem and Ramdas Pophale) SiO2 
 PCOD9587201
Probable space group: P 6/M M M
;
_chemical_formula_sum "Si O2"
_cell_formula_units_Z 108
_cell_length_a 21.306911
_cell_length_b 21.306911
_cell_length_c 19.812394
_cell_angle_alpha 90.000000
_cell_angle_beta 90.000000
_cell_angle_gamma 120.000000
_cell_volume 7789.481879
_symmetry_space_group_name_H-M "P 6/M M M"
_symmetry_group_IT_number 191
_symmetry_cell_setting 'hexagonal'
loop_
_space_group_symop_operation_xyz
x,y,z
x-y,x,z
-y,x-y,z
-x,-y,z
-x+y,-x,z
y,-x+y,z
x-y,-y,-z
-x,-x+y,-z
y,x,-z
-y,-x,-z
-x+y,y,-z
x,x-y,-z
-x,-y,-z
-x+y,-x,-z
y,-x+y,-z
x,y,-z
x-y,x,-z
-y,x-y,-z
-x+y,y,z
x,x-y,z
-y,-x,z
y,x,z
x-y,-y,z
-x,-x+y,z
loop_
_atom_site_type_symbol
_atom_site_label
_atom_site_fract_x
_atom_site_fract_y
_atom_site_fract_z
Si Si1 0.617413 0.082625 0.576741
Si Si2 0.342299 0.913803 0.828105
Si Si3 0.225470 0.917436 0.077094
Si Si4 0.087652 0.543826 0.924187
Si Si5 0.667682 0.183021 0.298268
O O1 0.646080 0.098965 0.500000
O O2 0.540860 0.081719 0.576058
O O3 0.664466 0.141220 0.632556
O O4 0.595958 0.000000 0.593773
O O5 0.272240 0.904394 0.867253
O O6 0.385371 0.892676 0.881640
O O7 0.328487 0.864978 0.762724
O O8 0.392731 0.000000 0.812105
O O9 0.142094 0.857907 0.083957
O O10 0.244607 0.000000 0.084078
O O11 0.248289 0.910770 0.000000
O O12 0.000000 0.500000 0.928490
O O13 0.116618 0.558309 0.000000
O O14 0.592440 0.184880 0.292914
O O15 0.736789 0.263212 0.297035
#
# Coordination Sequence:
#
# PCOD9587201 Si02
#       5
#    24  24  24  12  24
#     4   8  15  29  48  65  79  98 129 169 208 247
#     4  10  18  29  45  64  83 106 139 182 222 256
#     4   9  17  29  45  65  88 112 139 173 215 260
#     4   9  16  26  42  64  83  99 129 177 228 266
#     4  11  21  31  42  59  84 115 143 171 208 254
#
# _framework density 13.864849
#
# number of rings (size 3 to 8) (size 9 to 14) (size 15 to 20)
#    0.000    2.556    1.111    2.889    0.000    4.000 
#    0.000    0.000    0.000    1.556    0.000    1.556 
#    0.000    0.000    0.000    0.000    0.000    0.000 
#
# Total GULP energy -601371.524533 kJ/mol
# GULP energy per Si atom -5568.254857 kJ/mol
# Density = 1.383329 g / cm^3
# Si number density = 13.864849 Si / 1000 Ang^3
#
#
#
# Elastic Constant Matrix: (Units=GPa)
#
#
# Indices 1 2 3 4 5 6 
#
# 1 73.3164 43.5172 50.4536 0.0000 0.0000 0.0000
# 2 43.5172 73.3164 50.4536 0.0000 0.0000 0.0000
# 3 50.4536 50.4536 102.9580 0.0000 0.0000 0.0000
# 4 0.0000 0.0000 0.0000 14.8522 0.0000 0.0000
# 5 0.0000 0.0000 0.0000 0.0000 14.8522 0.0000
# 6 0.0000 0.0000 0.0000 0.0000 0.0000 14.8996
#
#
#
# Elastic Compliance Matrix: (Units=1/GPa)
#
#
# Indices 1 2 3 4 5 6 
#
# 1 0.024199 -0.009359 -0.007272 0.000000 0.000000 0.000000
# 2 -0.009359 0.024199 -0.007272 0.000000 0.000000 0.000000
# 3 -0.007272 -0.007272 0.016840 0.000000 0.000000 0.000000
# 4 0.000000 0.000000 0.000000 0.067330 0.000000 0.000000
# 5 0.000000 0.000000 0.000000 0.000000 0.067330 0.000000
# 6 0.000000 0.000000 0.000000 0.000000 0.000000 0.067116
#
#
# Mechanical properties :
#
#
# Convention : Reuss Voigt Hill
#
# Bulk Modulus (GPa) = 57.36809 59.82662 58.59736
# Shear Modulus (GPa) = 15.59419 15.93186 15.76302
#
# Velocity S-wave (km/s) = 3.35734 3.39349 3.37546
# Velocity P-wave (km/s) = 7.51634 7.65493 7.58595
#
# Compressibility (1/GPa) = 0.01743129
#
# Stress axis : x y z
#
# Youngs Moduli (GPa) = 41.32391 41.32391 59.38197
#
# Poissons Ratio (x) = 0.38675 0.43184
# Poissons Ratio (y) = 0.38675 0.43184
# Poissons Ratio (z) = 0.30052 0.30052
#
# Static dielectric constant tensor:
#      x y z
#    x 1.442080 0.000000 0.000000 
#    y 0.000000 1.442080 0.000000 
#    z 0.000000 0.000000 1.467320 
# 
# From -- ./inp_files/6085.got.cif
#   From: 2010.05.17/outbox.cif.g08.bks.cpg/sg191_4_cif.got.tgz:6085.got - 2010.05.20 12:20:32.
