data_PCOD9587126
_publ_section_title
;
Structure prediction by ZEFSAII (Michael W. Deem and Ramdas Pophale) SiO2 
 PCOD9587126
Probable space group: P 6/M M M
;
_chemical_formula_sum "Si O2"
_cell_formula_units_Z 168
_cell_length_a 23.917831
_cell_length_b 23.917831
_cell_length_c 22.272625
_cell_angle_alpha 90.000000
_cell_angle_beta 90.000000
_cell_angle_gamma 120.000000
_cell_volume 11034.321218
_symmetry_space_group_name_H-M "P 6/M M M"
_symmetry_group_IT_number 191
_symmetry_cell_setting 'hexagonal'
loop_
_space_group_symop_operation_xyz
x,y,z
x-y,x,z
-y,x-y,z
-x,-y,z
-x+y,-x,z
y,-x+y,z
x-y,-y,-z
-x,-x+y,-z
y,x,-z
-y,-x,-z
-x+y,y,-z
x,x-y,-z
-x,-y,-z
-x+y,-x,-z
y,-x+y,-z
x,y,-z
x-y,x,-z
-y,x-y,-z
-x+y,y,z
x,x-y,z
-y,-x,z
y,x,z
x-y,-y,z
-x,-x+y,z
loop_
_atom_site_type_symbol
_atom_site_label
_atom_site_fract_x
_atom_site_fract_y
_atom_site_fract_z
Si Si1 0.273562 0.073487 0.402632
Si Si2 0.602375 0.525458 0.796363
Si Si3 0.800249 0.073170 0.258130
Si Si4 0.527907 0.603218 0.653574
Si Si5 0.386356 0.258175 0.166367
Si Si6 0.073706 0.274747 0.071230
Si Si7 0.145852 0.723664 0.568510
O O1 0.253381 0.126691 0.418794
O O2 0.280617 0.075019 0.329999
O O3 0.344845 0.098917 0.428080
O O4 0.224639 0.000000 0.420439
O O5 0.547106 0.452895 0.812001
O O6 0.570632 0.570632 0.806531
O O7 0.614821 0.527474 0.724780
O O8 0.669677 0.555130 0.830511
O O9 0.873298 0.126703 0.241622
O O10 0.755163 0.095264 0.224312
O O11 0.777656 0.000000 0.240847
O O12 0.458406 0.541595 0.638549
O O13 0.580537 0.580537 0.642910
O O14 0.544600 0.665150 0.614497
O O15 0.406128 0.203064 0.166707
O O16 0.338937 0.243762 0.109931
O O17 0.126809 0.253617 0.084758
O O18 0.000000 0.222617 0.085703
O O19 0.077215 0.288028 0.000000
O O20 0.146181 0.702965 0.500000
O O21 0.216947 0.783054 0.583344
#
# Coordination Sequence:
#
# PCOD9587126 Si02
#       7
#    24  24  24  24  24  24  24
#     4   9  17  28  41  58  81 107 134 168 212 257
#     4   9  17  29  45  65  89 113 135 164 205 252
#     4   9  16  25  39  59  81 105 135 173 213 252
#     4   9  18  31  46  65  87 110 136 166 202 245
#     4  10  18  27  43  66  87 110 143 178 212 253
#     4   9  17  28  42  62  90 123 156 190 226 260
#     4  10  20  31  43  61  84 109 137 169 205 245
#
# _framework density 15.225223
#
# number of rings (size 3 to 8) (size 9 to 14) (size 15 to 20)
#    0.000    2.714    0.000    3.429    0.000    5.429 
#    0.000    0.714    0.000    1.429    0.000    5.000 
#    0.000    3.429    0.000    3.857    0.000    3.714 
#
# Total GULP energy -936418.636137 kJ/mol
# GULP energy per Si atom -5573.920453 kJ/mol
# Density = 1.519057 g / cm^3
# Si number density = 15.225223 Si / 1000 Ang^3
#
#
#
# Elastic Constant Matrix: (Units=GPa)
#
#
# Indices 1 2 3 4 5 6 
#
# 1 99.5908 56.3283 33.9740 0.0000 0.0000 0.0000
# 2 56.3283 99.5908 33.9740 0.0000 0.0000 0.0000
# 3 33.9740 33.9740 39.3479 0.0000 0.0000 0.0000
# 4 0.0000 0.0000 0.0000 11.3974 0.0000 0.0000
# 5 0.0000 0.0000 0.0000 0.0000 11.3974 0.0000
# 6 0.0000 0.0000 0.0000 0.0000 0.0000 21.6312
#
#
#
# Elastic Compliance Matrix: (Units=1/GPa)
#
#
# Indices 1 2 3 4 5 6 
#
# 1 0.016699 -0.006416 -0.008878 0.000000 0.000000 0.000000
# 2 -0.006416 0.016699 -0.008878 0.000000 0.000000 0.000000
# 3 -0.008878 -0.008878 0.040746 0.000000 0.000000 0.000000
# 4 0.000000 0.000000 0.000000 0.087740 0.000000 0.000000
# 5 0.000000 0.000000 0.000000 0.000000 0.087740 0.000000
# 6 0.000000 0.000000 0.000000 0.000000 0.000000 0.046230
#
#
# Mechanical properties :
#
#
# Convention : Reuss Voigt Hill
#
# Bulk Modulus (GPa) = 38.76285 54.12024 46.44155
# Shear Modulus (GPa) = 14.17247 16.50206 15.33726
#
# Velocity S-wave (km/s) = 3.05430 3.29578 3.17733
# Velocity P-wave (km/s) = 6.16062 7.07859 6.63550
#
# Compressibility (1/GPa) = 0.02579790
#
# Stress axis : x y z
#
# Youngs Moduli (GPa) = 59.88486 59.88486 24.54238
#
# Poissons Ratio (x) = 0.38422 0.21790
# Poissons Ratio (y) = 0.38422 0.21790
# Poissons Ratio (z) = 0.53168 0.53168
#
# Static dielectric constant tensor:
#      x y z
#    x 1.497330 0.000000 0.000000 
#    y 0.000000 1.497330 0.000000 
#    z 0.000000 0.000000 1.523760 
# 
# From -- ./inp_files/7938.got.cif
#   From: 2010.05.17/outbox.cif.g08.bks.cpg/sg191_4_cif.got.tgz:7938.got - 2010.05.20 12:20:32.
