data_PCOD9587789
_publ_section_title
;
Structure prediction by ZEFSAII (Michael W. Deem and Ramdas Pophale) SiO2 
 PCOD9587789
Probable space group: P 6/M M M
;
_chemical_formula_sum "Si O2"
_cell_formula_units_Z 120
_cell_length_a 23.980117
_cell_length_b 23.980117
_cell_length_c 14.758082
_cell_angle_alpha 90.000000
_cell_angle_beta 90.000000
_cell_angle_gamma 120.000000
_cell_volume 7349.590571
_symmetry_space_group_name_H-M "P 6/M M M"
_symmetry_group_IT_number 191
_symmetry_cell_setting 'hexagonal'
loop_
_space_group_symop_operation_xyz
x,y,z
x-y,x,z
-y,x-y,z
-x,-y,z
-x+y,-x,z
y,-x+y,z
x-y,-y,-z
-x,-x+y,-z
y,x,-z
-y,-x,-z
-x+y,y,-z
x,x-y,-z
-x,-y,-z
-x+y,-x,-z
y,-x+y,-z
x,y,-z
x-y,x,-z
-y,x-y,-z
-x+y,y,z
x,x-y,z
-y,-x,z
y,x,z
x-y,-y,z
-x,-x+y,z
loop_
_atom_site_type_symbol
_atom_site_label
_atom_site_fract_x
_atom_site_fract_y
_atom_site_fract_z
Si Si1 0.922074 0.320102 0.102487
Si Si2 0.854328 0.273325 0.608882
Si Si3 0.730729 0.927610 0.610232
Si Si4 0.395517 0.472532 0.270469
Si Si5 0.926621 0.729228 0.110418
O O1 0.905048 0.358769 0.174129
O O2 0.904584 0.249068 0.134958
O O3 0.000000 0.358029 0.097460
O O4 0.897959 0.317138 0.000000
O O5 0.856318 0.279396 0.500000
O O6 0.781885 0.218116 0.633992
O O7 0.900537 0.244337 0.634417
O O8 0.881750 0.341748 0.655705
O O9 0.732662 0.928622 0.500000
O O10 0.749151 0.874576 0.639742
O O11 0.775541 0.000000 0.642631
O O12 0.456065 0.543936 0.271344
O O13 0.424559 0.424559 0.284953
O O14 0.873499 0.746997 0.140133
O O15 0.000000 0.775632 0.140491
O O16 0.927942 0.730013 0.000000
#
# Coordination Sequence:
#
# PCOD9587789 Si02
#       5
#    24  24  24  24  24
#     4   8  15  28  43  61  90 125 156 185 220 269
#     4   9  18  32  48  65  88 121 157 190 226 269
#     4   8  13  22  38  59  82 111 148 188 228 269
#     4  10  20  31  46  72 100 122 146 181 230 281
#     4   8  13  22  38  60  86 118 156 196 235 272
#
# _framework density 16.327439999999999
#
# number of rings (size 3 to 8) (size 9 to 14) (size 15 to 20)
#    0.000    3.400    0.000    3.000    0.000    2.800 
#    0.000    3.000    0.000    0.800    0.000    2.800 
#    0.000    0.000    0.000    0.000    0.000   26.000 
#
# Total GULP energy -668507.260785 kJ/mol
# GULP energy per Si atom -5570.893840 kJ/mol
# Density = 1.629028 g / cm^3
# Si number density = 16.327440 Si / 1000 Ang^3
#
#
#
# Elastic Constant Matrix: (Units=GPa)
#
#
# Indices 1 2 3 4 5 6 
#
# 1 109.3121 73.2494 36.7281 0.0000 0.0000 0.0000
# 2 73.2494 109.3121 36.7281 0.0000 0.0000 0.0000
# 3 36.7281 36.7281 62.4589 0.0000 0.0000 0.0000
# 4 0.0000 0.0000 0.0000 -0.1185 0.0000 0.0000
# 5 0.0000 0.0000 0.0000 0.0000 -0.1185 0.0000
# 6 0.0000 0.0000 0.0000 0.0000 0.0000 18.0313
#
#
#
# Elastic Compliance Matrix: (Units=1/GPa)
#
#
# Indices 1 2 3 4 5 6 
#
# 1 0.017452 -0.010277 -0.004219 0.000000 0.000000 0.000000
# 2 -0.010277 0.017452 -0.004219 0.000000 0.000000 0.000000
# 3 -0.004219 -0.004219 0.020973 0.000000 0.000000 0.000000
# 4 0.000000 0.000000 0.000000 -8.439514 0.000007 0.000000
# 5 0.000000 0.000000 0.000000 0.000007 -8.439522 0.000000
# 6 0.000000 0.000000 0.000000 0.000000 0.000000 0.055459
#
#
# Mechanical properties :
#
#
# Convention : Reuss Voigt Hill
#
# Bulk Modulus (GPa) = 54.21221 63.83272 59.02246
# Shear Modulus (GPa) = -0.29897 12.51735 6.10919
#
# Velocity S-wave (km/s) = -0.42838 2.77184 1.93644
# Velocity P-wave (km/s) = 5.74722 7.03025 6.42086
#
# Compressibility (1/GPa) = 0.01844603
#
# Stress axis : x y z
#
# Youngs Moduli (GPa) = 57.29859 57.29859 47.68080
#
# Poissons Ratio (x) = 0.58886 0.20118
# Poissons Ratio (y) = 0.58886 0.20118
# Poissons Ratio (z) = 0.24176 0.24176
#
# Static dielectric constant tensor:
#      x y z
#    x 1.534140 0.000000 0.000000 
#    y 0.000000 1.534140 0.000000 
#    z 0.000000 0.000000 1.608300 
# 
# From -- ./inp_files/4674.got.cif
#   From: 2010.05.17/outbox.cif.g08.bks.cpg/sg191_3_cif.got.tgz:4674.got - 2010.05.20 12:20:32.
