data_PCOD9587198
_publ_section_title
;
Structure prediction by ZEFSAII (Michael W. Deem and Ramdas Pophale) SiO2 
 PCOD9587198
Probable space group: P 6/M M M
;
_chemical_formula_sum "Si O2"
_cell_formula_units_Z 192
_cell_length_a 31.364001
_cell_length_b 31.364001
_cell_length_c 14.338444
_cell_angle_alpha 90.000000
_cell_angle_beta 90.000000
_cell_angle_gamma 120.000000
_cell_volume 12215.059148
_symmetry_space_group_name_H-M "P 6/M M M"
_symmetry_group_IT_number 191
_symmetry_cell_setting 'hexagonal'
loop_
_space_group_symop_operation_xyz
x,y,z
x-y,x,z
-y,x-y,z
-x,-y,z
-x+y,-x,z
y,-x+y,z
x-y,-y,-z
-x,-x+y,-z
y,x,-z
-y,-x,-z
-x+y,y,-z
x,x-y,-z
-x,-y,-z
-x+y,-x,-z
y,-x+y,-z
x,y,-z
x-y,x,-z
-y,x-y,-z
-x+y,y,z
x,x-y,z
-y,-x,z
y,x,z
x-y,-y,z
-x,-x+y,z
loop_
_atom_site_type_symbol
_atom_site_label
_atom_site_fract_x
_atom_site_fract_y
_atom_site_fract_z
Si Si1 0.708684 0.518222 0.252661
Si Si2 0.237419 0.296548 0.606415
Si Si3 0.719714 0.624246 0.767950
Si Si4 0.624744 0.152974 0.110082
Si Si5 0.707980 0.905042 0.893750
Si Si6 0.766177 0.432251 0.611428
Si Si7 0.785375 0.942661 0.733328
Si Si8 0.428619 0.373807 0.892293
O O1 0.760382 0.520764 0.248036
O O2 0.718614 0.573467 0.253471
O O3 0.675107 0.489993 0.164209
O O4 0.679056 0.483258 0.339478
O O5 0.231022 0.308467 0.500000
O O6 0.269688 0.269688 0.604848
O O7 0.265739 0.343321 0.674219
O O8 0.186028 0.256405 0.654041
O O9 0.760305 0.660141 0.842653
O O10 0.667633 0.606359 0.818726
O O11 0.580025 0.160049 0.143126
O O12 0.612241 0.096795 0.124458
O O13 0.630992 0.162746 0.000000
O O14 0.702677 0.851339 0.895647
O O15 0.755593 0.937441 0.829269
O O16 0.712862 0.923021 0.000000
O O17 0.771833 0.436735 0.500000
O O18 0.711280 0.422560 0.633185
O O19 0.771278 0.385639 0.641226
O O20 0.800637 0.900319 0.732831
O O21 0.827527 0.000000 0.722005
O O22 0.418998 0.418998 0.885496
O O23 0.416551 0.354833 0.000000
#
# Coordination Sequence:
#
# PCOD9587198 Si02
#       8
#    24  24  24  24  24  24  24  24
#     4  10  20  31  44  65  92 119 146 177 219 274
#     4   9  18  32  49  68  91 123 162 197 225 256
#     4  10  18  29  44  65  94 125 153 182 220 266
#     4   9  18  32  48  64  83 111 147 183 218 258
#     4   9  17  29  45  65  90 121 156 189 218 254
#     4   9  17  30  48  67  85 107 140 185 235 283
#     4   9  18  32  49  70  95 122 154 192 232 271
#     4   9  17  28  43  65  90 114 143 181 224 266
#
# _framework density 15.718304
#
# number of rings (size 3 to 8) (size 9 to 14) (size 15 to 20)
#    0.000    2.750    0.000    1.625    0.000    3.500 
#    0.000    1.250    0.000    0.375    0.000    0.000 
#    0.000    0.000    0.000   29.500    0.000    0.250 
#
# Total GULP energy -1069032.411175 kJ/mol
# GULP energy per Si atom -5567.877142 kJ/mol
# Density = 1.568253 g / cm^3
# Si number density = 15.718304 Si / 1000 Ang^3
#
#
#
# Elastic Constant Matrix: (Units=GPa)
#
#
# Indices 1 2 3 4 5 6 
#
# 1 52.3885 25.4449 19.4606 0.0000 0.0000 0.0000
# 2 25.4449 52.3885 19.4606 0.0000 0.0000 0.0000
# 3 19.4606 19.4606 82.0034 0.0000 0.0000 0.0000
# 4 0.0000 0.0000 0.0000 19.2161 0.0000 0.0000
# 5 0.0000 0.0000 0.0000 0.0000 19.2161 0.0000
# 6 0.0000 0.0000 0.0000 0.0000 0.0000 13.4718
#
#
#
# Elastic Compliance Matrix: (Units=1/GPa)
#
#
# Indices 1 2 3 4 5 6 
#
# 1 0.025846 -0.011268 -0.003460 0.000000 0.000000 0.000000
# 2 -0.011268 0.025846 -0.003460 0.000000 0.000000 0.000000
# 3 -0.003460 -0.003460 0.013837 0.000000 0.000000 0.000000
# 4 0.000000 0.000000 0.000000 0.052040 0.000000 0.000000
# 5 0.000000 0.000000 0.000000 0.000000 0.052040 0.000000
# 6 0.000000 0.000000 0.000000 0.000000 0.000000 0.074229
#
#
# Mechanical properties :
#
#
# Convention : Reuss Voigt Hill
#
# Bulk Modulus (GPa) = 34.30030 35.05697 34.67863
# Shear Modulus (GPa) = 17.24551 18.54175 17.89363
#
# Velocity S-wave (km/s) = 3.31594 3.43830 3.37767
# Velocity P-wave (km/s) = 6.04399 6.17367 6.10918
#
# Compressibility (1/GPa) = 0.02915426
#
# Stress axis : x y z
#
# Youngs Moduli (GPa) = 38.69036 38.69036 72.27194
#
# Poissons Ratio (x) = 0.43597 0.25003
# Poissons Ratio (y) = 0.43597 0.25003
# Poissons Ratio (z) = 0.13385 0.13385
#
# Static dielectric constant tensor:
#      x y z
#    x 1.518270 0.000000 0.000000 
#    y 0.000000 1.518270 0.000000 
#    z 0.000000 0.000000 1.539220 
# 
# From -- ./inp_files/5502.got.cif
#   From: 2010.05.17/outbox.cif.g08.bks.cpg/sg191_3_cif.got.tgz:5502.got - 2010.05.20 12:20:32.
