data_PCOD9587884
_publ_section_title
;
Structure prediction by ZEFSAII (Michael W. Deem and Ramdas Pophale) SiO2 
 PCOD9587884
Probable space group: P 6/M M M
;
_chemical_formula_sum "Si O2"
_cell_formula_units_Z 120
_cell_length_a 17.884481
_cell_length_b 17.884481
_cell_length_c 26.392525
_cell_angle_alpha 90.000000
_cell_angle_beta 90.000000
_cell_angle_gamma 120.000000
_cell_volume 7310.789115
_symmetry_space_group_name_H-M "P 6/M M M"
_symmetry_group_IT_number 191
_symmetry_cell_setting 'hexagonal'
loop_
_space_group_symop_operation_xyz
x,y,z
x-y,x,z
-y,x-y,z
-x,-y,z
-x+y,-x,z
y,-x+y,z
x-y,-y,-z
-x,-x+y,-z
y,x,-z
-y,-x,-z
-x+y,y,-z
x,x-y,-z
-x,-y,-z
-x+y,-x,-z
y,-x+y,-z
x,y,-z
x-y,x,-z
-y,x-y,-z
-x+y,y,z
x,x-y,z
-y,-x,z
y,x,z
x-y,-y,z
-x,-x+y,z
loop_
_atom_site_type_symbol
_atom_site_label
_atom_site_fract_x
_atom_site_fract_y
_atom_site_fract_z
Si Si1 0.900291 0.273973 0.888153
Si Si2 0.363415 0.266048 0.000000
Si Si3 0.098327 0.370491 0.500000
Si Si4 0.902341 0.270982 0.695432
Si Si5 0.666846 0.508763 0.208149
Si Si6 0.842501 0.332566 0.401708
O O1 0.827020 0.172981 0.882113
O O2 0.890247 0.299823 0.945859
O O3 0.879608 0.324147 0.845339
O O4 0.000000 0.298878 0.882630
O O5 0.286520 0.286520 0.000000
O O6 0.330826 0.165413 0.000000
O O7 0.171305 0.342610 0.500000
O O8 0.115638 0.430024 0.549345
O O9 0.000000 0.294223 0.500000
O O10 0.829438 0.170563 0.693484
O O11 0.887369 0.309981 0.746903
O O12 0.883530 0.316756 0.648436
O O13 0.000000 0.292005 0.692933
O O14 0.741385 0.482770 0.209604
O O15 0.573767 0.426234 0.215114
O O16 0.852929 0.426465 0.402772
O O17 0.741538 0.258463 0.401787
#
# Coordination Sequence:
#
# PCOD9587884 Si02
#       6
#    24  12  12  24  24  24
#     4   9  17  29  46  67  90 118 151 188 229 272
#     4   8  14  26  43  62  85 113 147 185 226 272
#     4  10  21  35  51  72  97 127 162 202 247 289
#     4  10  21  35  51  72  97 126 158 194 236 278
#     4  10  20  33  49  69  94 123 154 188 227 271
#     4  10  20  33  50  73 102 134 165 196 232 276
#
# _framework density 16.414096000000001
#
# number of rings (size 3 to 8) (size 9 to 14) (size 15 to 20)
#    0.000    2.400    0.000    2.500    0.000    4.400 
#    0.000    3.500    0.000    2.400    0.000    4.200 
#    0.000    9.600    0.000    0.200    0.000    2.000 
#
# Total GULP energy -668728.151909 kJ/mol
# GULP energy per Si atom -5572.734599 kJ/mol
# Density = 1.637674 g / cm^3
# Si number density = 16.414096 Si / 1000 Ang^3
#
#
#
# Elastic Constant Matrix: (Units=GPa)
#
#
# Indices 1 2 3 4 5 6 
#
# 1 84.0147 75.6946 37.5310 0.0000 0.0000 0.0000
# 2 75.6946 84.0147 37.5310 0.0000 0.0000 0.0000
# 3 37.5310 37.5310 118.7570 0.0000 0.0000 0.0000
# 4 0.0000 0.0000 0.0000 10.6235 0.0000 0.0000
# 5 0.0000 0.0000 0.0000 0.0000 10.6235 0.0000
# 6 0.0000 0.0000 0.0000 0.0000 0.0000 4.1601
#
#
#
# Elastic Compliance Matrix: (Units=1/GPa)
#
#
# Indices 1 2 3 4 5 6 
#
# 1 0.063772 -0.056418 -0.002324 0.000000 0.000000 0.000000
# 2 -0.056418 0.063772 -0.002324 0.000000 0.000000 0.000000
# 3 -0.002324 -0.002324 0.009889 0.000000 0.000000 0.000000
# 4 0.000000 0.000000 0.000000 0.094131 0.000000 0.000000
# 5 0.000000 0.000000 0.000000 0.000000 0.094131 0.000000
# 6 0.000000 0.000000 0.000000 0.000000 0.000000 0.240381
#
#
# Mechanical properties :
#
#
# Convention : Reuss Voigt Hill
#
# Bulk Modulus (GPa) = 65.35609 65.36662 65.36136
# Shear Modulus (GPa) = 7.21179 14.15007 10.68093
#
# Velocity S-wave (km/s) = 2.09838 2.93929 2.55368
# Velocity P-wave (km/s) = 6.76568 7.17141 6.97150
#
# Compressibility (1/GPa) = 0.01530079
#
# Stress axis : x y z
#
# Youngs Moduli (GPa) = 15.68086 15.68086 101.11779
#
# Poissons Ratio (x) = 0.88469 0.23500
# Poissons Ratio (y) = 0.88469 0.23500
# Poissons Ratio (z) = 0.03644 0.03644
#
# Static dielectric constant tensor:
#      x y z
#    x 1.531890 0.000000 0.000000 
#    y 0.000000 1.531890 0.000000 
#    z 0.000000 0.000000 1.580110 
# 
# From -- ./inp_files/8523.got.cif
#   From: 2010.05.17/outbox.cif.g08.bks.cpg/sg191_5_cif.got.tgz:8523.got - 2010.05.20 12:20:32.
