data_PCOD9587279
_publ_section_title
;
Structure prediction by ZEFSAII (Michael W. Deem and Ramdas Pophale) SiO2 
 PCOD9587279
Probable space group: P 6/M M M
;
_chemical_formula_sum "Si O2"
_cell_formula_units_Z 120
_cell_length_a 27.919459
_cell_length_b 27.919459
_cell_length_c 11.992739
_cell_angle_alpha 90.000000
_cell_angle_beta 90.000000
_cell_angle_gamma 120.000000
_cell_volume 8095.860405
_symmetry_space_group_name_H-M "P 6/M M M"
_symmetry_group_IT_number 191
_symmetry_cell_setting 'hexagonal'
loop_
_space_group_symop_operation_xyz
x,y,z
x-y,x,z
-y,x-y,z
-x,-y,z
-x+y,-x,z
y,-x+y,z
x-y,-y,-z
-x,-x+y,-z
y,x,-z
-y,-x,-z
-x+y,y,-z
x,x-y,-z
-x,-y,-z
-x+y,-x,-z
y,-x+y,-z
x,y,-z
x-y,x,-z
-y,x-y,-z
-x+y,y,z
x,x-y,z
-y,-x,z
y,x,z
x-y,-y,z
-x,-x+y,z
loop_
_atom_site_type_symbol
_atom_site_label
_atom_site_fract_x
_atom_site_fract_y
_atom_site_fract_z
Si Si1 0.334541 0.064367 0.367043
Si Si2 0.912994 0.201325 0.000000
Si Si3 0.555792 0.333868 0.366662
Si Si4 0.735219 0.586575 0.000000
Si Si5 0.938802 0.173326 0.239062
Si Si6 0.440161 0.162328 0.247548
O O1 0.340117 0.072148 0.500000
O O2 0.284588 0.072325 0.321316
O O3 0.390197 0.109399 0.306788
O O4 0.315215 0.000000 0.342701
O O5 0.902025 0.252429 0.000000
O O6 0.939055 0.196030 0.114465
O O7 0.852611 0.147390 0.000000
O O8 0.548016 0.334645 0.500000
O O9 0.568988 0.284494 0.344600
O O10 0.607446 0.392555 0.333478
O O11 0.498645 0.316896 0.305504
O O12 0.708333 0.558900 0.116925
O O13 0.794175 0.588349 0.000000
O O14 0.889281 0.110720 0.245846
O O15 0.000000 0.184299 0.262476
O O16 0.429620 0.214810 0.256548
#
# Coordination Sequence:
#
# PCOD9587279 Si02
#       6
#    24  12  24  12  24  24
#     4  10  20  31  44  66  95 121 147 185 229 276
#     4   9  15  27  44  63  87 115 144 181 225 266
#     4   9  17  29  47  71  97 125 158 196 233 267
#     4   9  16  27  44  67  93 117 148 189 226 266
#     4  10  19  30  45  65  90 119 151 188 230 276
#     4  10  18  30  48  68  91 122 156 189 229 276
#
# _framework density 14.82239
#
# number of rings (size 3 to 8) (size 9 to 14) (size 15 to 20)
#    0.000    2.400    2.000    1.700    0.000    3.200 
#    0.000    1.000    0.000    0.800    0.000    4.200 
#    0.000    4.000    0.000    5.000    0.000    0.000 
#
# Total GULP energy -668478.112148 kJ/mol
# GULP energy per Si atom -5570.650935 kJ/mol
# Density = 1.478865 g / cm^3
# Si number density = 14.822390 Si / 1000 Ang^3
#
#
#
# Elastic Constant Matrix: (Units=GPa)
#
#
# Indices 1 2 3 4 5 6 
#
# 1 102.3989 60.9353 50.1803 0.0000 0.0000 0.0000
# 2 60.9353 102.3989 50.1803 0.0000 0.0000 0.0000
# 3 50.1803 50.1803 85.2848 0.0000 0.0000 0.0000
# 4 0.0000 0.0000 0.0000 11.6084 0.0000 0.0000
# 5 0.0000 0.0000 0.0000 0.0000 11.6084 0.0000
# 6 0.0000 0.0000 0.0000 0.0000 0.0000 20.7318
#
#
#
# Elastic Compliance Matrix: (Units=1/GPa)
#
#
# Indices 1 2 3 4 5 6 
#
# 1 0.016853 -0.007264 -0.005642 0.000000 0.000000 0.000000
# 2 -0.007264 0.016853 -0.005642 0.000000 0.000000 0.000000
# 3 -0.005642 -0.005642 0.018365 0.000000 0.000000 0.000000
# 4 0.000000 0.000000 0.000000 0.086144 0.000000 0.000000
# 5 0.000000 0.000000 0.000000 0.000000 0.086144 0.000000
# 6 0.000000 0.000000 0.000000 0.000000 0.000000 0.048235
#
#
# Mechanical properties :
#
#
# Convention : Reuss Voigt Hill
#
# Bulk Modulus (GPa) = 66.77900 68.07494 67.42697
# Shear Modulus (GPa) = 15.88897 17.37552 16.63224
#
# Velocity S-wave (km/s) = 3.27763 3.42753 3.35341
# Velocity P-wave (km/s) = 7.71196 7.85434 7.78348
#
# Compressibility (1/GPa) = 0.01497477
#
# Stress axis : x y z
#
# Youngs Moduli (GPa) = 59.33527 59.33527 54.45146
#
# Poissons Ratio (x) = 0.43102 0.30722
# Poissons Ratio (y) = 0.43102 0.30722
# Poissons Ratio (z) = 0.33478 0.33478
#
# Static dielectric constant tensor:
#      x y z
#    x 1.478970 0.000000 0.000000 
#    y 0.000000 1.478970 0.000000 
#    z 0.000000 0.000000 1.500790 
# 
# From -- ./inp_files/3225.got.cif
#   From: 2010.05.17/outbox.cif.g08.bks.cpg/sg191_2_cif.got.tgz:3225.got - 2010.05.20 12:20:32.
