data_PCOD9587066
_publ_section_title
;
Structure prediction by ZEFSAII (Michael W. Deem and Ramdas Pophale) SiO2 
 PCOD9587066
Probable space group: P 6/M M M
;
_chemical_formula_sum "Si O2"
_cell_formula_units_Z 132
_cell_length_a 25.327803
_cell_length_b 25.327803
_cell_length_c 15.350417
_cell_angle_alpha 90.000000
_cell_angle_beta 90.000000
_cell_angle_gamma 120.000000
_cell_volume 8527.973627
_symmetry_space_group_name_H-M "P 6/M M M"
_symmetry_group_IT_number 191
_symmetry_cell_setting 'hexagonal'
loop_
_space_group_symop_operation_xyz
x,y,z
x-y,x,z
-y,x-y,z
-x,-y,z
-x+y,-x,z
y,-x+y,z
x-y,-y,-z
-x,-x+y,-z
y,x,-z
-y,-x,-z
-x+y,y,-z
x,x-y,-z
-x,-y,-z
-x+y,-x,-z
y,-x+y,-z
x,y,-z
x-y,x,-z
-y,x-y,-z
-x+y,y,z
x,x-y,z
-y,-x,z
y,x,z
x-y,-y,z
-x,-x+y,z
loop_
_atom_site_type_symbol
_atom_site_label
_atom_site_fract_x
_atom_site_fract_y
_atom_site_fract_z
Si Si1 0.069659 0.309775 0.820618
Si Si2 0.251475 0.069406 0.000000
Si Si3 0.385029 0.313601 0.599848
Si Si4 0.540690 0.207292 0.098768
Si Si5 0.190218 0.930528 0.637838
Si Si6 0.556815 0.840576 0.247504
O O1 0.081768 0.291222 0.913910
O O2 0.072083 0.268379 0.742732
O O3 0.118980 0.378437 0.799861
O O4 0.000000 0.296088 0.819174
O O5 0.221846 0.110923 0.000000
O O6 0.201863 0.000000 0.000000
O O7 0.405921 0.325016 0.500000
O O8 0.358898 0.358898 0.622939
O O9 0.325174 0.245537 0.605473
O O10 0.434723 0.315552 0.666640
O O11 0.603907 0.207814 0.107761
O O12 0.551542 0.275771 0.103329
O O13 0.495005 0.170959 0.177501
O O14 0.516556 0.184523 0.000000
O O15 0.124559 0.875442 0.610247
O O16 0.209614 0.000000 0.613527
O O17 0.550226 0.775113 0.270536
#
# Coordination Sequence:
#
# PCOD9587066 Si02
#       6
#    24  12  24  24  24  24
#     4   9  17  27  39  58  84 114 140 171 219 270
#     4  10  18  26  38  55  77 107 141 177 219 269
#     4   9  17  29  46  67  92 121 148 180 226 278
#     4   9  18  32  50  72  97 126 157 188 222 259
#     4   9  16  26  39  56  80 109 142 179 221 268
#     4  10  18  27  45  71  94 118 149 190 230 264
#
# _framework density 15.478472
#
# number of rings (size 3 to 8) (size 9 to 14) (size 15 to 20)
#    0.000    2.727    0.000    5.091    1.273    2.182 
#    0.000    0.000    0.000    3.000    0.000    6.364 
#    0.000    5.818    0.000    4.545    0.000    0.364 
#
# Total GULP energy -734964.227357 kJ/mol
# GULP energy per Si atom -5567.910813 kJ/mol
# Density = 1.544324 g / cm^3
# Si number density = 15.478472 Si / 1000 Ang^3
#
#
#
# Elastic Constant Matrix: (Units=GPa)
#
#
# Indices 1 2 3 4 5 6 
#
# 1 48.5117 34.9924 37.8205 0.0000 0.0000 0.0000
# 2 34.9924 48.5117 37.8205 0.0000 0.0000 0.0000
# 3 37.8205 37.8205 122.5298 0.0000 0.0000 0.0000
# 4 0.0000 0.0000 0.0000 14.6094 0.0000 0.0000
# 5 0.0000 0.0000 0.0000 0.0000 14.6094 0.0000
# 6 0.0000 0.0000 0.0000 0.0000 0.0000 6.7596
#
#
#
# Elastic Compliance Matrix: (Units=1/GPa)
#
#
# Indices 1 2 3 4 5 6 
#
# 1 0.045296 -0.028673 -0.005131 0.000000 0.000000 0.000000
# 2 -0.028673 0.045296 -0.005131 0.000000 0.000000 0.000000
# 3 -0.005131 -0.005131 0.011329 0.000000 0.000000 0.000000
# 4 0.000000 0.000000 0.000000 0.068449 0.000000 0.000000
# 5 0.000000 0.000000 0.000000 0.000000 0.068449 0.000000
# 6 0.000000 0.000000 0.000000 0.000000 0.000000 0.147937
#
#
# Mechanical properties :
#
#
# Convention : Reuss Voigt Hill
#
# Bulk Modulus (GPa) = 41.57765 48.98000 45.27882
# Shear Modulus (GPa) = 10.57883 14.45699 12.51791
#
# Velocity S-wave (km/s) = 2.61713 3.05947 2.84690
# Velocity P-wave (km/s) = 6.00437 6.64779 6.33425
#
# Compressibility (1/GPa) = 0.02405138
#
# Stress axis : x y z
#
# Youngs Moduli (GPa) = 22.07708 22.07708 88.27055
#
# Poissons Ratio (x) = 0.63301 0.45292
# Poissons Ratio (y) = 0.63301 0.45292
# Poissons Ratio (z) = 0.11328 0.11328
#
# Static dielectric constant tensor:
#      x y z
#    x 1.505930 0.000000 0.000000 
#    y 0.000000 1.505930 0.000000 
#    z 0.000000 0.000000 1.565280 
# 
# From -- ./inp_files/4968.got.cif
#   From: 2010.05.17/outbox.cif.g08.bks.cpg/sg191_3_cif.got.tgz:4968.got - 2010.05.20 12:20:32.
