data_PCOD9587268
_publ_section_title
;
Structure prediction by ZEFSAII (Michael W. Deem and Ramdas Pophale) SiO2 
 PCOD9587268
Probable space group: P 6/M M M
;
_chemical_formula_sum "Si O2"
_cell_formula_units_Z 52
_cell_length_a 24.019317
_cell_length_b 24.019317
_cell_length_c 9.523472
_cell_angle_alpha 90.000000
_cell_angle_beta 90.000000
_cell_angle_gamma 120.000000
_cell_volume 4758.249917
_symmetry_space_group_name_H-M "P 6/M M M"
_symmetry_group_IT_number 191
_symmetry_cell_setting 'hexagonal'
loop_
_space_group_symop_operation_xyz
x,y,z
x-y,x,z
-y,x-y,z
-x,-y,z
-x+y,-x,z
y,-x+y,z
x-y,-y,-z
-x,-x+y,-z
y,x,-z
-y,-x,-z
-x+y,y,-z
x,x-y,-z
-x,-y,-z
-x+y,-x,-z
y,-x+y,-z
x,y,-z
x-y,x,-z
-y,x-y,-z
-x+y,y,z
x,x-y,z
-y,-x,z
y,x,z
x-y,-y,z
-x,-x+y,z
loop_
_atom_site_type_symbol
_atom_site_label
_atom_site_fract_x
_atom_site_fract_y
_atom_site_fract_z
Si Si1 0.496229 0.124626 0.164535
Si Si2 0.267071 0.732930 0.834188
Si Si3 0.666668 0.333334 0.668551
Si Si4 0.567715 0.567715 0.661206
O O1 0.568763 0.137526 0.191184
O O2 0.496430 0.190724 0.189196
O O3 0.447879 0.064780 0.258319
O O4 0.483119 0.107592 0.000000
O O5 0.297708 0.702293 0.733327
O O6 0.277284 0.722717 0.000000
O O7 0.666667 0.333334 0.500000
O O8 0.500000 0.500000 0.663882
O O9 0.585711 0.585711 0.500000
#
# Coordination Sequence:
#
# PCOD9587268 Si02
#       4
#    24  12   4  12
#     4   9  16  26  41  53  64  84 112 137 162 198
#     4  10  18  30  42  52  67  89 112 138 168 205
#     4  12  22  26  34  51  73  92 106 132 169 212
#     4   9  17  27  37  49  69  87 105 133 165 198
#
# _framework density 10.928388
#
# number of rings (size 3 to 8) (size 9 to 14) (size 15 to 20)
#    0.000    2.538    2.308    1.385    0.000    4.615 
#    0.000    0.000    0.000    0.000    0.000    0.000 
#    0.000    0.000    0.000    0.000    0.000    0.000 
#
# Total GULP energy -289633.545428 kJ/mol
# GULP energy per Si atom -5569.875874 kJ/mol
# Density = 1.090351 g / cm^3
# Si number density = 10.928388 Si / 1000 Ang^3
#
#
#
# Elastic Constant Matrix: (Units=GPa)
#
#
# Indices 1 2 3 4 5 6 
#
# 1 61.4629 35.7629 48.5491 0.0000 0.0000 0.0000
# 2 35.7629 61.4630 48.5492 0.0000 0.0000 0.0000
# 3 48.5491 48.5492 72.2349 0.0002 0.0000 0.0000
# 4 0.0000 0.0000 0.0002 5.6497 0.0000 0.0000
# 5 0.0000 0.0000 0.0000 0.0000 5.6497 0.0000
# 6 0.0000 0.0000 0.0000 0.0000 0.0000 12.8501
#
#
#
# Elastic Compliance Matrix: (Units=1/GPa)
#
#
# Indices 1 2 3 4 5 6 
#
# 1 0.035097 -0.003814 -0.021026 0.000001 0.000000 0.000000
# 2 -0.003814 0.035097 -0.021026 0.000001 0.000000 0.000000
# 3 -0.021026 -0.021026 0.042106 -0.000001 0.000000 0.000000
# 4 0.000001 0.000001 -0.000001 0.177001 0.000000 0.000000
# 5 0.000000 0.000000 0.000000 0.000000 0.177000 0.000000
# 6 0.000000 0.000000 0.000000 0.000000 0.000000 0.077821
#
#
# Mechanical properties :
#
#
# Convention : Reuss Voigt Hill
#
# Bulk Modulus (GPa) = 48.61277 51.20925 49.91101
# Shear Modulus (GPa) = 7.77959 8.98320 8.38140
#
# Velocity S-wave (km/s) = 2.67098 2.87018 2.77237
# Velocity P-wave (km/s) = 7.35471 7.61213 7.48453
#
# Compressibility (1/GPa) = 0.02057073
#
# Stress axis : x y z
#
# Youngs Moduli (GPa) = 28.49257 28.49262 23.74941
#
# Poissons Ratio (x) = 0.10866 0.49934
# Poissons Ratio (y) = 0.10866 0.49934
# Poissons Ratio (z) = 0.59907 0.59907
#
# Static dielectric constant tensor:
#      x y z
#    x 1.337310 0.000000 0.000000 
#    y 0.000000 1.337310 0.000000 
#    z 0.000000 0.000000 1.364600 
# 
# From -- ./inp_files/751.got.cif
#   From: 2010.05.17/outbox.cif.g08.bks.cpg/sg191_1_cif.got.tgz:751.got - 2010.05.20 12:20:32.
