data_PCOD9587820
_publ_section_title
;
Structure prediction by ZEFSAII (Michael W. Deem and Ramdas Pophale) SiO2 
 PCOD9587820
Probable space group: P 6/M M M
;
_chemical_formula_sum "Si O2"
_cell_formula_units_Z 168
_cell_length_a 17.932329
_cell_length_b 17.932329
_cell_length_c 36.647473
_cell_angle_alpha 90.000000
_cell_angle_beta 90.000000
_cell_angle_gamma 120.000000
_cell_volume 10205.823693
_symmetry_space_group_name_H-M "P 6/M M M"
_symmetry_group_IT_number 191
_symmetry_cell_setting 'hexagonal'
loop_
_space_group_symop_operation_xyz
x,y,z
x-y,x,z
-y,x-y,z
-x,-y,z
-x+y,-x,z
y,-x+y,z
x-y,-y,-z
-x,-x+y,-z
y,x,-z
-y,-x,-z
-x+y,y,-z
x,x-y,-z
-x,-y,-z
-x+y,-x,-z
y,-x+y,-z
x,y,-z
x-y,x,-z
-y,x-y,-z
-x+y,y,z
x,x-y,z
-y,-x,z
y,x,z
x-y,-y,z
-x,-x+y,z
loop_
_atom_site_type_symbol
_atom_site_label
_atom_site_fract_x
_atom_site_fract_y
_atom_site_fract_z
Si Si1 0.637038 0.532699 0.540885
Si Si2 0.333496 0.841936 0.041979
Si Si3 0.332753 0.842711 0.320016
Si Si4 0.629625 0.730093 0.249670
Si Si5 0.267629 0.899782 0.610949
Si Si6 0.267201 0.365949 0.891507
Si Si7 0.532296 0.896034 0.178044
O O1 0.673025 0.540446 0.500000
O O2 0.567246 0.432755 0.547939
O O3 0.582170 0.582170 0.540184
O O4 0.702656 0.577406 0.573563
O O5 0.425435 0.850870 0.049899
O O6 0.257816 0.742185 0.044552
O O7 0.309233 0.892229 0.071156
O O8 0.334223 0.869193 0.000000
O O9 0.426039 0.852078 0.319128
O O10 0.257404 0.742597 0.320121
O O11 0.315150 0.885335 0.284854
O O12 0.318070 0.884969 0.356022
O O13 0.663267 0.831634 0.252479
O O14 0.701515 0.701515 0.247143
O O15 0.569027 0.693834 0.214011
O O16 0.166895 0.833106 0.616657
O O17 0.296219 0.000000 0.609499
O O18 0.166103 0.332206 0.892710
O O19 0.294240 0.294240 0.885623
O O20 0.307948 0.434613 0.858545
O O21 0.430560 0.861120 0.178916
O O22 0.578862 0.000000 0.177681
#
# Coordination Sequence:
#
# PCOD9587820 Si02
#       7
#    24  24  24  24  24  24  24
#     4   8  14  26  45  68  92 117 146 181 222 271
#     4   9  17  29  46  69  97 127 156 186 223 270
#     4  10  20  33  50  73 100 127 153 184 226 277
#     4  10  20  33  50  72  97 127 163 202 241 278
#     4  10  20  32  47  68  93 122 157 197 238 278
#     4  10  20  33  49  69  93 122 157 197 239 280
#     4   9  17  30  49  72  96 121 150 184 223 272
#
# _framework density 16.461189999999998
#
# number of rings (size 3 to 8) (size 9 to 14) (size 15 to 20)
#    0.000    2.571    0.000    2.857    0.000    4.286 
#    0.000    0.714    0.000    4.714    0.000    0.000 
#    0.000    6.857    0.000    7.143    0.000    0.571 
#
# Total GULP energy -936501.514266 kJ/mol
# GULP energy per Si atom -5574.413775 kJ/mol
# Density = 1.642372 g / cm^3
# Si number density = 16.461190 Si / 1000 Ang^3
#
#
#
# Elastic Constant Matrix: (Units=GPa)
#
#
# Indices 1 2 3 4 5 6 
#
# 1 83.0331 62.9606 37.1983 0.0000 0.0000 0.0000
# 2 62.9606 83.0331 37.1983 0.0000 0.0000 0.0000
# 3 37.1983 37.1983 96.4436 0.0000 0.0000 0.0000
# 4 0.0000 0.0000 0.0000 17.6440 0.0000 0.0000
# 5 0.0000 0.0000 0.0000 0.0000 17.6440 0.0000
# 6 0.0000 0.0000 0.0000 0.0000 0.0000 10.0363
#
#
#
# Elastic Compliance Matrix: (Units=1/GPa)
#
#
# Indices 1 2 3 4 5 6 
#
# 1 0.029172 -0.020647 -0.003288 0.000000 0.000000 0.000000
# 2 -0.020647 0.029172 -0.003288 0.000000 0.000000 0.000000
# 3 -0.003288 -0.003288 0.012905 0.000000 0.000000 0.000000
# 4 0.000000 0.000000 0.000000 0.056677 0.000000 0.000000
# 5 0.000000 0.000000 0.000000 0.000000 0.056677 0.000000
# 6 0.000000 0.000000 0.000000 0.000000 0.000000 0.099639
#
#
# Mechanical properties :
#
#
# Convention : Reuss Voigt Hill
#
# Bulk Modulus (GPa) = 59.51322 59.69158 59.60240
# Shear Modulus (GPa) = 14.52267 17.40834 15.96551
#
# Velocity S-wave (km/s) = 2.97347 3.25551 3.11768
# Velocity P-wave (km/s) = 6.92971 7.10435 7.01757
#
# Compressibility (1/GPa) = 0.01680299
#
# Stress axis : x y z
#
# Youngs Moduli (GPa) = 34.27913 34.27913 77.48770
#
# Poissons Ratio (x) = 0.70776 0.25479
# Poissons Ratio (y) = 0.70776 0.25479
# Poissons Ratio (z) = 0.11272 0.11272
#
# Static dielectric constant tensor:
#      x y z
#    x 1.544970 0.000000 0.000000 
#    y 0.000000 1.544970 0.000000 
#    z 0.000000 0.000000 1.566600 
# 
# From -- ./inp_files/10748.got.cif
#   From: 2010.05.17/outbox.cif.g08.bks.cpg/sg191_6_cif.got.tgz:10748.got - 2010.05.20 12:20:32.
