data_PCOD9587623
_publ_section_title
;
Structure prediction by ZEFSAII (Michael W. Deem and Ramdas Pophale) SiO2 
 PCOD9587623
Probable space group: P 6/M M M
;
_chemical_formula_sum "Si O2"
_cell_formula_units_Z 144
_cell_length_a 23.684820
_cell_length_b 23.684820
_cell_length_c 16.875981
_cell_angle_alpha 90.000000
_cell_angle_beta 90.000000
_cell_angle_gamma 120.000000
_cell_volume 8198.602611
_symmetry_space_group_name_H-M "P 6/M M M"
_symmetry_group_IT_number 191
_symmetry_cell_setting 'hexagonal'
loop_
_space_group_symop_operation_xyz
x,y,z
x-y,x,z
-y,x-y,z
-x,-y,z
-x+y,-x,z
y,-x+y,z
x-y,-y,-z
-x,-x+y,-z
y,x,-z
-y,-x,-z
-x+y,y,-z
x,x-y,-z
-x,-y,-z
-x+y,-x,-z
y,-x+y,-z
x,y,-z
x-y,x,-z
-y,x-y,-z
-x+y,y,z
x,x-y,z
-y,-x,z
y,x,z
x-y,-y,z
-x,-x+y,z
loop_
_atom_site_type_symbol
_atom_site_label
_atom_site_fract_x
_atom_site_fract_y
_atom_site_fract_z
Si Si1 0.589014 0.859971 0.801498
Si Si2 0.796547 0.334229 0.093632
Si Si3 0.795613 0.333545 0.405522
Si Si4 0.072482 0.268092 0.819584
Si Si5 0.330098 0.406115 0.361551
Si Si6 0.798306 0.073044 0.625904
O O1 0.586860 0.793430 0.770308
O O2 0.527266 0.837898 0.856511
O O3 0.657594 0.898410 0.846501
O O4 0.591057 0.905991 0.731106
O O5 0.807556 0.403778 0.119057
O O6 0.721066 0.278935 0.103752
O O7 0.810909 0.336663 0.000000
O O8 0.787145 0.332738 0.500000
O O9 0.791872 0.395936 0.373641
O O10 0.735468 0.264533 0.374738
O O11 0.866792 0.341905 0.392486
O O12 0.122241 0.244482 0.842489
O O13 0.072812 0.272139 0.722690
O O14 0.000000 0.222740 0.846779
O O15 0.384833 0.384833 0.373275
O O16 0.262492 0.345807 0.395073
O O17 0.866873 0.133128 0.598803
O O18 0.778497 0.000000 0.600139
#
# Coordination Sequence:
#
# PCOD9587623 Si02
#       6
#    24  24  24  24  24  24
#     4   9  16  27  45  68  93 120 154 194 230 268
#     4   9  17  29  45  65  90 121 156 193 234 278
#     4  10  21  37  55  72  92 120 153 188 228 278
#     4   8  13  22  38  59  81 106 137 174 214 255
#     4  10  19  31  49  71  95 123 154 191 234 276
#     4   8  13  22  38  60  85 113 146 183 222 264
#
# _framework density 17.563969
#
# number of rings (size 3 to 8) (size 9 to 14) (size 15 to 20)
#    0.000    3.000    0.000    4.333    0.000    2.667 
#    0.000    0.833    0.000    5.833    0.000    7.000 
#    0.000    0.000    0.000    0.000    0.000    0.000 
#
# Total GULP energy -801926.675727 kJ/mol
# GULP energy per Si atom -5568.935248 kJ/mol
# Density = 1.752399 g / cm^3
# Si number density = 17.563969 Si / 1000 Ang^3
#
#
#
# Elastic Constant Matrix: (Units=GPa)
#
#
# Indices 1 2 3 4 5 6 
#
# 1 136.4582 93.0236 21.2524 0.0000 0.0000 0.0000
# 2 93.0236 136.4582 21.2524 0.0000 0.0000 0.0000
# 3 21.2524 21.2524 7.2094 0.0000 0.0000 0.0000
# 4 0.0000 0.0000 0.0000 -3.8029 0.0000 0.0000
# 5 0.0000 0.0000 0.0000 0.0000 -3.8029 0.0000
# 6 0.0000 0.0000 0.0000 0.0000 0.0000 21.7173
#
#
#
# Elastic Compliance Matrix: (Units=1/GPa)
#
#
# Indices 1 2 3 4 5 6 
#
# 1 0.016311 -0.006712 -0.028295 0.000000 0.000000 0.000000
# 2 -0.006712 0.016311 -0.028295 0.000000 0.000000 0.000000
# 3 -0.028295 -0.028295 0.305528 0.000000 0.000000 0.000000
# 4 0.000000 0.000000 0.000000 -0.262956 0.000000 0.000000
# 5 0.000000 0.000000 0.000000 0.000000 -0.262956 0.000000
# 6 0.000000 0.000000 0.000000 0.000000 0.000000 0.046046
#
#
# Mechanical properties :
#
#
# Convention : Reuss Voigt Hill
#
# Bulk Modulus (GPa) = 4.72713 61.24252 32.98482
# Shear Modulus (GPa) = 90.24658 12.46213 51.35435
#
# Velocity S-wave (km/s) = 7.17588 2.66659 5.41313
# Velocity P-wave (km/s) = 8.44718 6.66520 7.60854
#
# Compressibility (1/GPa) = 0.21154504
#
# Stress axis : x y z
#
# Youngs Moduli (GPa) = 61.30908 61.30908 3.27302
#
# Poissons Ratio (x) = 0.41153 0.09261
# Poissons Ratio (y) = 0.41153 0.09261
# Poissons Ratio (z) = 1.73475 1.73475
#
# Static dielectric constant tensor:
#      x y z
#    x 1.604570 0.000000 0.000000 
#    y 0.000000 1.604570 0.000000 
#    z 0.000000 0.000000 1.620550 
# 
# From -- ./inp_files/6575.got.cif
#   From: 2010.05.17/outbox.cif.g08.bks.cpg/sg191_4_cif.got.tgz:6575.got - 2010.05.20 12:20:32.
