data_PCOD9587024
_publ_section_title
;
Structure prediction by ZEFSAII (Michael W. Deem and Ramdas Pophale) SiO2 
 PCOD9587024
Probable space group: P -6 2 C
;
_chemical_formula_sum "Si O2"
_cell_formula_units_Z 64
_cell_length_a 15.000000
_cell_length_b 15.000000
_cell_length_c 18.000000
_cell_angle_alpha 90.000000
_cell_angle_beta 90.000000
_cell_angle_gamma 120.000000
_cell_volume 3507.402885
_symmetry_space_group_name_H-M "P -6 2 C"
_symmetry_group_IT_number 190
_symmetry_cell_setting 'hexagonal'
loop_
_space_group_symop_operation_xyz
x,y,z
-x+y,-x,1/2-z
-y,x-y,z
x,y,1/2-z
-x+y,-x,z
-y,x-y,1/2-z
x-y,-y,-z
-x,-x+y,-z
y,x,-z
y,x,1/2+z
x-y,-y,1/2+z
-x,-x+y,1/2+z
loop_
_atom_site_type_symbol
_atom_site_label
_atom_site_fract_x
_atom_site_fract_y
_atom_site_fract_z
Si Si1 0.494061 0.577347 0.430101
Si Si2 0.887630 0.407085 0.161959
Si Si3 0.000000 0.000000 0.660295
Si Si4 0.577155 0.823995 0.062739
Si Si5 0.020210 0.797160 0.161555
Si Si6 0.830953 0.580012 0.111318
O O1 0.538528 0.538528 0.500000
O O2 0.544623 0.551301 0.360656
O O3 0.368931 0.507785 0.425638
O O4 0.530325 0.699416 0.430605
O O5 0.872996 0.403573 0.250000
O O6 0.854202 0.487154 0.129121
O O7 0.823113 0.289644 0.131876
O O8 0.990789 0.888730 0.639116
O O9 0.000000 0.000000 0.750000
O O10 0.678458 0.892495 0.114340
O O11 0.605324 0.846821 0.975966
O O12 0.045147 0.808057 0.250000
O O13 0.912814 0.687683 0.150715
#
# Coordination Sequence:
#
# PCOD9587024 Si02
#       6
#    12  12   4  12  12  12
#     4  12  24  44  66 100 140 180 222 272 341 417
#     4  12  25  42  69 103 136 176 229 285 345 406
#     4   9  24  45  64  92 130 174 223 284 346 396
#     4  12  24  43  70  98 138 183 220 276 346 413
#     4  11  24  44  68  96 134 180 228 282 341 402
#     4  12  23  43  68 101 139 176 223 286 345 404
#
# _framework density 18.247119999999999
#
# number of rings (size 3 to 8) (size 9 to 14) (size 15 to 20)
#    0.000    0.375    5.625    3.000    2.625    0.750 
#    0.000    2.812    0.000    2.250    0.000    0.000 
#    0.000    0.000    0.000    0.000    0.000    0.000 
#
# Total GULP energy -357344.633288 kJ/mol
# GULP energy per Si atom -5583.509895 kJ/mol
# Density = 1.820559 g / cm^3
# Si number density = 18.247120 Si / 1000 Ang^3
#
#
#
# Elastic Constant Matrix: (Units=GPa)
#
#
# Indices 1 2 3 4 5 6 
#
# 1 178.1492 84.8089 44.4782 0.0000 0.0000 0.0000
# 2 84.8089 178.1492 44.4782 0.0000 0.0000 0.0000
# 3 44.4782 44.4782 118.3695 0.0000 0.0000 0.0000
# 4 0.0000 0.0000 0.0000 36.5758 0.0000 0.0000
# 5 0.0000 0.0000 0.0000 0.0000 36.5758 0.0000
# 6 0.0000 0.0000 0.0000 0.0000 0.0000 46.6702
#
#
#
# Elastic Compliance Matrix: (Units=1/GPa)
#
#
# Indices 1 2 3 4 5 6 
#
# 1 0.007535 -0.003178 -0.001637 0.000000 0.000000 0.000000
# 2 -0.003178 0.007535 -0.001637 0.000000 0.000000 0.000000
# 3 -0.001637 -0.001637 0.009678 0.000000 0.000000 0.000000
# 4 0.000000 0.000000 0.000000 0.027340 0.000000 0.000000
# 5 0.000000 0.000000 0.000000 0.000000 0.027340 0.000000
# 6 0.000000 0.000000 0.000000 0.000000 0.000000 0.021427
#
#
# Mechanical properties :
#
#
# Convention : Reuss Voigt Hill
#
# Bulk Modulus (GPa) = 84.43420 91.35538 87.89479
# Shear Modulus (GPa) = 42.47750 44.02452 43.25101
#
# Velocity S-wave (km/s) = 4.83007 4.91724 4.87385
# Velocity P-wave (km/s) = 8.80222 9.07818 8.94126
#
# Compressibility (1/GPa) = 0.01184354
#
# Stress axis : x y z
#
# Youngs Moduli (GPa) = 132.71247 132.71247 103.32290
#
# Poissons Ratio (x) = 0.42181 0.16915
# Poissons Ratio (y) = 0.42181 0.16915
# Poissons Ratio (z) = 0.21726 0.21726
#
# Static dielectric constant tensor:
#      x y z
#    x 1.630260 0.000000 0.000000 
#    y 0.000000 1.630260 0.000000 
#    z 0.000000 0.000000 1.659410 
# 
# From -- ./inp_files/3650.got.cif
#   From: 2010.05.17/outbox.ucp.g08.bks.cvg/sg190_2_cif.got.tgz:3650.got - 2010.06.11 15:22:26.
