data_PCOD9587328
_publ_section_title
;
Structure prediction by ZEFSAII (Michael W. Deem and Ramdas Pophale) SiO2 
 PCOD9587328
Probable space group: P 6/M M M
;
_chemical_formula_sum "Si O2"
_cell_formula_units_Z 120
_cell_length_a 26.231754
_cell_length_b 26.231754
_cell_length_c 14.552341
_cell_angle_alpha 90.000000
_cell_angle_beta 90.000000
_cell_angle_gamma 120.000000
_cell_volume 8671.977778
_symmetry_space_group_name_H-M "P 6/M M M"
_symmetry_group_IT_number 191
_symmetry_cell_setting 'hexagonal'
loop_
_space_group_symop_operation_xyz
x,y,z
x-y,x,z
-y,x-y,z
-x,-y,z
-x+y,-x,z
y,-x+y,z
x-y,-y,-z
-x,-x+y,-z
y,x,-z
-y,-x,-z
-x+y,y,-z
x,x-y,-z
-x,-y,-z
-x+y,-x,-z
y,-x+y,-z
x,y,-z
x-y,x,-z
-y,x-y,-z
-x+y,y,z
x,x-y,z
-y,-x,z
y,x,z
x-y,-y,z
-x,-x+y,z
loop_
_atom_site_type_symbol
_atom_site_label
_atom_site_fract_x
_atom_site_fract_y
_atom_site_fract_z
Si Si1 0.827194 0.827194 0.102857
Si Si2 0.646834 0.577277 0.611219
Si Si3 0.094997 0.785737 0.900028
Si Si4 0.771927 0.771927 0.609839
Si Si5 0.464304 0.928608 0.393978
Si Si6 0.000000 0.118930 0.295002
Si Si7 0.657657 0.767032 0.699443
O O1 0.761331 0.816776 0.110415
O O2 0.865445 0.865445 0.187129
O O3 0.849857 0.849857 0.000000
O O4 0.649301 0.576258 0.500000
O O5 0.620538 0.620538 0.633563
O O6 0.599197 0.511549 0.644794
O O7 0.711186 0.603134 0.652877
O O8 0.162005 0.837996 0.903986
O O9 0.089900 0.752282 0.806238
O O10 0.079231 0.755052 0.000000
O O11 0.769121 0.769121 0.500000
O O12 0.829246 0.829246 0.647175
O O13 0.715626 0.774065 0.649209
O O14 0.454267 0.908534 0.500000
O O15 0.500000 0.000000 0.396018
O O16 0.058057 0.116113 0.315054
O O17 0.656215 0.828108 0.694030
#
# Coordination Sequence:
#
# PCOD9587328 Si02
#       7
#    12  24  24  12  12  12  24
#     4  10  18  31  51  67  79  98 129 173 227 289
#     4   9  16  27  42  62  89 119 147 175 207 247
#     4   9  17  29  44  62  83 107 136 171 214 268
#     4  12  24  37  49  62  83 113 143 174 225 286
#     4   7  12  24  42  60  81 113 149 175 198 234
#     4  12  25  40  52  62  75  99 140 188 236 287
#     4  11  20  30  46  69  93 115 143 182 226 268
#
# _framework density 13.837674
#
# number of rings (size 3 to 8) (size 9 to 14) (size 15 to 20)
#    0.000    2.100    3.000    3.100    0.000    4.000 
#    0.000    0.000    0.000    1.200    0.000    0.700 
#    1.000    2.400    0.600    0.000    0.000    0.000 
#
# Total GULP energy -668327.217333 kJ/mol
# GULP energy per Si atom -5569.393478 kJ/mol
# Density = 1.380618 g / cm^3
# Si number density = 13.837674 Si / 1000 Ang^3
#
#
#
# Elastic Constant Matrix: (Units=GPa)
#
#
# Indices 1 2 3 4 5 6 
#
# 1 69.7329 42.5158 29.6740 0.0000 0.0000 0.0000
# 2 42.5158 69.7329 29.6740 0.0000 0.0000 0.0000
# 3 29.6740 29.6740 79.7065 0.0000 0.0000 0.0000
# 4 0.0000 0.0000 0.0000 11.1288 0.0000 0.0000
# 5 0.0000 0.0000 0.0000 0.0000 11.1288 0.0000
# 6 0.0000 0.0000 0.0000 0.0000 0.0000 13.6085
#
#
#
# Elastic Compliance Matrix: (Units=1/GPa)
#
#
# Indices 1 2 3 4 5 6 
#
# 1 0.023917 -0.012825 -0.004130 0.000000 0.000000 0.000000
# 2 -0.012825 0.023917 -0.004130 0.000000 0.000000 0.000000
# 3 -0.004130 -0.004130 0.015621 0.000000 0.000000 0.000000
# 4 0.000000 0.000000 0.000000 0.089857 0.000000 0.000000
# 5 0.000000 0.000000 0.000000 0.000000 0.089857 0.000000
# 6 0.000000 0.000000 0.000000 0.000000 0.000000 0.073483
#
#
# Mechanical properties :
#
#
# Convention : Reuss Voigt Hill
#
# Bulk Modulus (GPa) = 46.97694 46.98889 46.98291
# Shear Modulus (GPa) = 13.66436 14.99378 14.32907
#
# Velocity S-wave (km/s) = 3.14582 3.29530 3.22143
# Velocity P-wave (km/s) = 6.87148 6.96488 6.91834
#
# Compressibility (1/GPa) = 0.02128704
#
# Stress axis : x y z
#
# Youngs Moduli (GPa) = 41.81146 41.81146 64.01729
#
# Poissons Ratio (x) = 0.53622 0.26436
# Poissons Ratio (y) = 0.53622 0.26436
# Poissons Ratio (z) = 0.17266 0.17266
#
# Static dielectric constant tensor:
#      x y z
#    x 1.456470 0.000000 0.000000 
#    y 0.000000 1.456470 0.000000 
#    z 0.000000 0.000000 1.486660 
# 
# From -- ./inp_files/4867.got.cif
#   From: 2010.05.17/outbox.cif.g08.bks.cpg/sg191_3_cif.got.tgz:4867.got - 2010.05.20 12:20:32.
