data_PCOD9587723
_publ_section_title
;
Structure prediction by ZEFSAII (Michael W. Deem and Ramdas Pophale) SiO2 
 PCOD9587723
Probable space group: P 6/M M M
;
_chemical_formula_sum "Si O2"
_cell_formula_units_Z 108
_cell_length_a 18.024883
_cell_length_b 18.024883
_cell_length_c 22.959319
_cell_angle_alpha 90.000000
_cell_angle_beta 90.000000
_cell_angle_gamma 120.000000
_cell_volume 6460.030117
_symmetry_space_group_name_H-M "P 6/M M M"
_symmetry_group_IT_number 191
_symmetry_cell_setting 'hexagonal'
loop_
_space_group_symop_operation_xyz
x,y,z
x-y,x,z
-y,x-y,z
-x,-y,z
-x+y,-x,z
y,-x+y,z
x-y,-y,-z
-x,-x+y,-z
y,x,-z
-y,-x,-z
-x+y,y,-z
x,x-y,-z
-x,-y,-z
-x+y,-x,-z
y,-x+y,-z
x,y,-z
x-y,x,-z
-y,x-y,-z
-x+y,y,z
x,x-y,z
-y,-x,z
y,x,z
x-y,-y,z
-x,-x+y,z
loop_
_atom_site_type_symbol
_atom_site_label
_atom_site_fract_x
_atom_site_fract_y
_atom_site_fract_z
Si Si1 0.637007 0.104207 0.873147
Si Si2 0.801620 0.900810 0.570963
Si Si3 0.098533 0.639516 0.000000
Si Si4 0.733899 0.633231 0.238982
Si Si5 0.465172 0.363532 0.354232
Si Si6 0.800794 0.199207 0.569571
O O1 0.566487 0.132973 0.862201
O O2 0.700108 0.122854 0.819854
O O3 0.581868 0.000000 0.876938
O O4 0.678336 0.136024 0.936996
O O5 0.850621 0.850621 0.590028
O O6 0.803178 0.901589 0.500000
O O7 0.701981 0.850991 0.588194
O O8 0.096320 0.548160 0.000000
O O9 0.000000 0.616997 0.000000
O O10 0.834522 0.669044 0.244949
O O11 0.703343 0.703343 0.237867
O O12 0.685691 0.570775 0.293264
O O13 0.564310 0.435691 0.350328
O O14 0.412693 0.412693 0.366032
O O15 0.443809 0.293587 0.403552
O O16 0.799335 0.200666 0.500000
#
# Coordination Sequence:
#
# PCOD9587723 Si02
#       6
#    24  12  12  24  24  12
#     4   8  13  23  43  70  99 130 163 200 243 293
#     4   9  17  30  51  80 112 142 171 206 251 305
#     4   7  10  18  35  64  99 130 160 196 240 289
#     4  10  19  33  53  75  99 130 170 214 258 304
#     4  10  21  38  58  78 101 131 169 211 254 301
#     4  11  22  37  56  79 106 137 172 209 254 311
#
# _framework density 16.718188999999999
#
# number of rings (size 3 to 8) (size 9 to 14) (size 15 to 20)
#    0.000    2.778    1.111    2.778    0.000    4.889 
#    0.667    1.667    0.000    0.667    0.000    0.000 
#    0.000    0.000    0.000    0.000    0.000   13.111 
#
# Total GULP energy -601609.792251 kJ/mol
# GULP energy per Si atom -5570.461039 kJ/mol
# Density = 1.668014 g / cm^3
# Si number density = 16.718189 Si / 1000 Ang^3
#
#
#
# Elastic Constant Matrix: (Units=GPa)
#
#
# Indices 1 2 3 4 5 6 
#
# 1 84.4047 59.6895 43.8392 0.0000 0.0000 0.0000
# 2 59.6895 84.4047 43.8392 0.0000 0.0000 0.0000
# 3 43.8392 43.8392 107.3524 0.0000 0.0000 0.0000
# 4 0.0000 0.0000 0.0000 11.6995 0.0000 0.0000
# 5 0.0000 0.0000 0.0000 0.0000 11.6995 0.0000
# 6 0.0000 0.0000 0.0000 0.0000 0.0000 12.3576
#
#
#
# Elastic Compliance Matrix: (Units=1/GPa)
#
#
# Indices 1 2 3 4 5 6 
#
# 1 0.024848 -0.015613 -0.003771 0.000000 0.000000 0.000000
# 2 -0.015613 0.024848 -0.003771 0.000000 0.000000 0.000000
# 3 -0.003771 -0.003771 0.012395 0.000000 0.000000 0.000000
# 4 0.000000 0.000000 0.000000 0.085474 0.000000 0.000000
# 5 0.000000 0.000000 0.000000 0.000000 0.085474 0.000000
# 6 0.000000 0.000000 0.000000 0.000000 0.000000 0.080922
#
#
# Mechanical properties :
#
#
# Convention : Reuss Voigt Hill
#
# Bulk Modulus (GPa) = 63.37207 63.43309 63.40258
# Shear Modulus (GPa) = 13.67875 15.73758 14.70817
#
# Velocity S-wave (km/s) = 2.86352 3.07146 2.96931
# Velocity P-wave (km/s) = 6.99438 7.11361 7.05425
#
# Compressibility (1/GPa) = 0.01577982
#
# Stress axis : x y z
#
# Youngs Moduli (GPa) = 40.24520 40.24520 80.67711
#
# Poissons Ratio (x) = 0.62835 0.30424
# Poissons Ratio (y) = 0.62835 0.30424
# Poissons Ratio (z) = 0.15177 0.15177
#
# Static dielectric constant tensor:
#      x y z
#    x 1.558170 0.000000 0.000000 
#    y 0.000000 1.558170 0.000000 
#    z 0.000000 0.000000 1.590940 
# 
# From -- ./inp_files/8473.got.cif
#   From: 2010.05.17/outbox.cif.g08.bks.cpg/sg191_5_cif.got.tgz:8473.got - 2010.05.20 12:20:32.
