data_PCOD9587230
_publ_section_title
;
Structure prediction by ZEFSAII (Michael W. Deem and Ramdas Pophale) SiO2 
 PCOD9587230
Probable space group: P 6/M M M
;
_chemical_formula_sum "Si O2"
_cell_formula_units_Z 144
_cell_length_a 23.343137
_cell_length_b 23.343137
_cell_length_c 19.458420
_cell_angle_alpha 90.000000
_cell_angle_beta 90.000000
_cell_angle_gamma 120.000000
_cell_volume 9182.409203
_symmetry_space_group_name_H-M "P 6/M M M"
_symmetry_group_IT_number 191
_symmetry_cell_setting 'hexagonal'
loop_
_space_group_symop_operation_xyz
x,y,z
x-y,x,z
-y,x-y,z
-x,-y,z
-x+y,-x,z
y,-x+y,z
x-y,-y,-z
-x,-x+y,-z
y,x,-z
-y,-x,-z
-x+y,y,-z
x,x-y,-z
-x,-y,-z
-x+y,-x,-z
y,-x+y,-z
x,y,-z
x-y,x,-z
-y,x-y,-z
-x+y,y,z
x,x-y,z
-y,-x,z
y,x,z
x-y,-y,z
-x,-x+y,z
loop_
_atom_site_type_symbol
_atom_site_label
_atom_site_fract_x
_atom_site_fract_y
_atom_site_fract_z
Si Si1 0.666137 0.466144 0.157876
Si Si2 0.210438 0.286404 0.818025
Si Si3 0.484681 0.842136 0.315781
Si Si4 0.077643 0.358193 0.678253
Si Si5 0.270295 0.868558 0.078261
Si Si6 0.480866 0.740433 0.578756
Si Si7 0.179412 0.358824 0.577239
O O1 0.727824 0.455647 0.141399
O O2 0.597357 0.402644 0.137121
O O3 0.664312 0.474094 0.240223
O O4 0.679236 0.533224 0.120736
O O5 0.133674 0.267348 0.822641
O O6 0.227404 0.227404 0.814597
O O7 0.241983 0.331935 0.750349
O O8 0.250310 0.334618 0.881309
O O9 0.436180 0.872359 0.320180
O O10 0.562832 0.891496 0.321654
O O11 0.463795 0.787226 0.375413
O O12 0.113897 0.339918 0.619705
O O13 0.000000 0.322629 0.667173
O O14 0.202183 0.797818 0.076855
O O15 0.291673 0.889063 0.000000
O O16 0.455963 0.727982 0.500000
O O17 0.560999 0.780500 0.575137
O O18 0.166728 0.333455 0.500000
#
# Coordination Sequence:
#
# PCOD9587230 Si02
#       7
#    24  24  24  24  24  12  12
#     4  10  18  29  46  67  94 130 174 222 267 310
#     4  10  19  33  55  80 105 133 164 199 237 284
#     4  10  19  31  48  68  94 131 170 213 259 306
#     4  10  19  32  52  75 100 132 167 205 248 295
#     4   9  18  31  49  72  98 132 167 204 251 297
#     4   9  18  32  48  66  90 126 164 207 263 314
#     4   9  18  32  52  74  98 126 157 200 249 297
#
# _framework density 15.682159
#
# number of rings (size 3 to 8) (size 9 to 14) (size 15 to 20)
#    0.000    2.333    3.333    0.167    0.000    1.667 
#    0.500    0.000    0.000    1.667    0.000    5.833 
#    0.000    0.000    0.000    4.167    0.000    7.583 
#
# Total GULP energy -802200.528858 kJ/mol
# GULP energy per Si atom -5570.837006 kJ/mol
# Density = 1.564647 g / cm^3
# Si number density = 15.682159 Si / 1000 Ang^3
#
#
#
# Elastic Constant Matrix: (Units=GPa)
#
#
# Indices 1 2 3 4 5 6 
#
# 1 80.7457 50.5360 30.7466 0.0000 0.0000 0.0000
# 2 50.5360 80.7457 30.7466 0.0000 0.0000 0.0000
# 3 30.7466 30.7466 110.1866 0.0000 0.0000 0.0000
# 4 0.0000 0.0000 0.0000 5.1291 0.0000 0.0000
# 5 0.0000 0.0000 0.0000 0.0000 5.1291 0.0000
# 6 0.0000 0.0000 0.0000 0.0000 0.0000 15.1048
#
#
#
# Elastic Compliance Matrix: (Units=1/GPa)
#
#
# Indices 1 2 3 4 5 6 
#
# 1 0.020932 -0.012170 -0.002445 0.000000 0.000000 0.000000
# 2 -0.012170 0.020932 -0.002445 0.000000 0.000000 0.000000
# 3 -0.002445 -0.002445 0.010440 0.000000 0.000000 0.000000
# 4 0.000000 0.000000 0.000000 0.194966 0.000000 0.000000
# 5 0.000000 0.000000 0.000000 0.000000 0.194966 0.000000
# 6 0.000000 0.000000 0.000000 0.000000 0.000000 0.066204
#
#
# Mechanical properties :
#
#
# Convention : Reuss Voigt Hill
#
# Bulk Modulus (GPa) = 54.99129 55.08181 55.03655
# Shear Modulus (GPa) = 9.11375 15.71587 12.41481
#
# Velocity S-wave (km/s) = 2.41333 3.16911 2.81668
# Velocity P-wave (km/s) = 6.55041 6.97073 6.76384
#
# Compressibility (1/GPa) = 0.01818470
#
# Stress axis : x y z
#
# Youngs Moduli (GPa) = 47.77320 47.77320 95.78476
#
# Poissons Ratio (x) = 0.58139 0.23420
# Poissons Ratio (y) = 0.58139 0.23420
# Poissons Ratio (z) = 0.11681 0.11681
#
# Static dielectric constant tensor:
#      x y z
#    x 1.510160 0.000000 0.000000 
#    y 0.000000 1.510160 0.000000 
#    z 0.000000 0.000000 1.537030 
# 
# From -- ./inp_files/7668.got.cif
#   From: 2010.05.17/outbox.cif.g08.bks.cpg/sg191_4_cif.got.tgz:7668.got - 2010.05.20 12:20:32.
