data_PCOD9587752
_publ_section_title
;
Structure prediction by ZEFSAII (Michael W. Deem and Ramdas Pophale) SiO2 
 PCOD9587752
Probable space group: P 6/M M M
;
_chemical_formula_sum "Si O2"
_cell_formula_units_Z 114
_cell_length_a 22.273539
_cell_length_b 22.273539
_cell_length_c 15.285472
_cell_angle_alpha 90.000000
_cell_angle_beta 90.000000
_cell_angle_gamma 120.000000
_cell_volume 6567.316382
_symmetry_space_group_name_H-M "P 6/M M M"
_symmetry_group_IT_number 191
_symmetry_cell_setting 'hexagonal'
loop_
_space_group_symop_operation_xyz
x,y,z
x-y,x,z
-y,x-y,z
-x,-y,z
-x+y,-x,z
y,-x+y,z
x-y,-y,-z
-x,-x+y,-z
y,x,-z
-y,-x,-z
-x+y,y,-z
x,x-y,-z
-x,-y,-z
-x+y,-x,-z
y,-x+y,-z
x,y,-z
x-y,x,-z
-y,x-y,-z
-x+y,y,z
x,x-y,z
-y,-x,z
y,x,z
x-y,-y,z
-x,-x+y,z
loop_
_atom_site_type_symbol
_atom_site_label
_atom_site_fract_x
_atom_site_fract_y
_atom_site_fract_z
Si Si1 0.806455 0.333813 0.105519
Si Si2 0.919562 0.211880 0.000000
Si Si3 0.379728 0.080126 0.838064
Si Si4 0.170328 0.340655 0.500000
Si Si5 0.333702 0.527641 0.393762
Si Si6 0.081862 0.372429 0.639850
O O1 0.804764 0.402382 0.130073
O O2 0.734323 0.265678 0.127431
O O3 0.868477 0.329199 0.149974
O O4 0.815096 0.334408 0.000000
O O5 0.904684 0.244931 0.085151
O O6 0.869328 0.130673 0.000000
O O7 0.000000 0.236436 0.000000
O O8 0.356693 0.087668 0.741413
O O9 0.358778 0.000000 0.848520
O O10 0.119563 0.345015 0.575873
O O11 0.332341 0.528597 0.500000
O O12 0.263095 0.526190 0.364394
O O13 0.402854 0.597146 0.364878
O O14 0.330483 0.456186 0.368657
O O15 0.000000 0.338960 0.619715
#
# Coordination Sequence:
#
# PCOD9587752 Si02
#       6
#    24  12  24   6  24  24
#     4  10  20  34  54  79 112 153 194 242 294 347
#     4  10  20  36  59  86 117 147 179 221 270 326
#     4  10  22  37  57  85 112 145 188 234 286 339
#     4  12  22  40  62  82 112 148 187 232 289 346
#     4  10  19  34  54  78 106 143 191 243 294 339
#     4  11  23  39  59  84 113 149 191 236 290 349
#
# _framework density 17.358688000000001
#
# number of rings (size 3 to 8) (size 9 to 14) (size 15 to 20)
#    0.000    1.684    3.158    1.368    2.947    3.368 
#    0.000    4.211    0.000    2.632    0.000    0.000 
#    0.000    0.000    0.000   10.105    0.000    0.000 
#
# Total GULP energy -634915.736586 kJ/mol
# GULP energy per Si atom -5569.436286 kJ/mol
# Density = 1.731918 g / cm^3
# Si number density = 17.358688 Si / 1000 Ang^3
#
#
#
# Elastic Constant Matrix: (Units=GPa)
#
#
# Indices 1 2 3 4 5 6 
#
# 1 80.8318 104.9179 46.6732 0.0000 0.0000 0.0000
# 2 104.9179 80.8318 46.6732 0.0000 0.0000 0.0000
# 3 46.6732 46.6732 97.6436 0.0000 0.0000 0.0000
# 4 0.0000 0.0000 0.0000 -37.1710 0.0000 0.0000
# 5 0.0000 0.0000 0.0000 0.0000 -37.1710 0.0000
# 6 0.0000 0.0000 0.0000 0.0000 0.0000 -12.0430
#
#
#
# Elastic Compliance Matrix: (Units=1/GPa)
#
#
# Indices 1 2 3 4 5 6 
#
# 1 -0.017216 0.024302 -0.003387 0.000000 0.000000 0.000000
# 2 0.024302 -0.017216 -0.003387 0.000000 0.000000 0.000000
# 3 -0.003387 -0.003387 0.013479 0.000000 0.000000 0.000000
# 4 0.000000 0.000000 0.000000 -0.026903 0.000000 0.000000
# 5 0.000000 0.000000 0.000000 0.000000 -0.026903 0.000000
# 6 0.000000 0.000000 0.000000 0.000000 0.000000 -0.083036
#
#
# Mechanical properties :
#
#
# Convention : Reuss Voigt Hill
#
# Bulk Modulus (GPa) = 70.90771 72.87064 71.88918
# Shear Modulus (GPa) = -26.57473 -13.20749 -19.89111
#
# Velocity S-wave (km/s) = -3.91694 -2.76136 -3.38877
# Velocity P-wave (km/s) = 4.52556 5.64834 5.11783
#
# Compressibility (1/GPa) = 0.01410284
#
# Stress axis : x y z
#
# Youngs Moduli (GPa) = -58.08530 -58.08530 74.18850
#
# Poissons Ratio (x) = 1.41157 0.25127
# Poissons Ratio (y) = 1.41157 0.25127
# Poissons Ratio (z) = -0.19673 -0.19673
#
# Static dielectric constant tensor:
#      x y z
#    x 1.567020 0.000000 0.000000 
#    y 0.000000 1.567020 0.000000 
#    z 0.000000 0.000000 1.649640 
# 
# From -- ./inp_files/4418.got.cif
#   From: 2010.05.17/outbox.cif.g08.bks.cpg/sg191_3_cif.got.tgz:4418.got - 2010.05.20 12:20:32.
