data_PCOD9587249
_publ_section_title
;
Structure prediction by ZEFSAII (Michael W. Deem and Ramdas Pophale) SiO2 
 PCOD9587249
Probable space group: P 6/M M M
;
_chemical_formula_sum "Si O2"
_cell_formula_units_Z 108
_cell_length_a 21.070963
_cell_length_b 21.070963
_cell_length_c 17.869734
_cell_angle_alpha 90.000000
_cell_angle_beta 90.000000
_cell_angle_gamma 120.000000
_cell_volume 6870.961080
_symmetry_space_group_name_H-M "P 6/M M M"
_symmetry_group_IT_number 191
_symmetry_cell_setting 'hexagonal'
loop_
_space_group_symop_operation_xyz
x,y,z
x-y,x,z
-y,x-y,z
-x,-y,z
-x+y,-x,z
y,-x+y,z
x-y,-y,-z
-x,-x+y,-z
y,x,-z
-y,-x,-z
-x+y,y,-z
x,x-y,-z
-x,-y,-z
-x+y,-x,-z
y,-x+y,-z
x,y,-z
x-y,x,-z
-y,x-y,-z
-x+y,y,z
x,x-y,z
-y,-x,z
y,x,z
x-y,-y,z
-x,-x+y,z
loop_
_atom_site_type_symbol
_atom_site_label
_atom_site_fract_x
_atom_site_fract_y
_atom_site_fract_z
Si Si1 0.662597 0.575817 0.910700
Si Si2 0.180433 0.666939 0.500000
Si Si3 0.916348 0.832696 0.091442
Si Si4 0.380852 0.465266 0.353969
Si Si5 0.166091 0.332181 0.909729
Si Si6 0.184159 0.519512 0.214736
O O1 0.615518 0.615518 0.894387
O O2 0.748421 0.627525 0.890552
O O3 0.641402 0.505514 0.860607
O O4 0.657148 0.561497 0.000000
O O5 0.257860 0.742141 0.500000
O O6 0.192779 0.596390 0.500000
O O7 0.131624 0.658892 0.427299
O O8 0.874954 0.874954 0.115014
O O9 0.875027 0.750054 0.119000
O O10 0.915652 0.831304 0.000000
O O11 0.459749 0.540252 0.352001
O O12 0.400174 0.400174 0.355316
O O13 0.338742 0.469072 0.280752
O O14 0.164470 0.328940 0.000000
O O15 0.256251 0.512502 0.208031
O O16 0.206281 0.603141 0.231856
#
# Coordination Sequence:
#
# PCOD9587249 Si02
#       6
#    24  12  12  24  12  24
#     4  10  20  34  52  71  92 122 161 205 250 298
#     4  10  18  29  47  73 104 133 162 194 235 286
#     4   9  15  22  35  58  88 118 145 177 223 281
#     4   9  18  32  50  71  96 127 161 197 237 285
#     4   9  16  29  46  65  88 113 149 191 236 283
#     4  11  22  36  52  71  96 125 160 204 256 308
#
# _framework density 15.718325
#
# number of rings (size 3 to 8) (size 9 to 14) (size 15 to 20)
#    0.000    2.222    1.111    2.778    0.000    6.222 
#    0.000    3.333    0.000    1.333    0.000    0.000 
#    0.000    0.000    0.000    0.000    0.000    0.000 
#
# Total GULP energy -601828.539451 kJ/mol
# GULP energy per Si atom -5572.486476 kJ/mol
# Density = 1.568255 g / cm^3
# Si number density = 15.718325 Si / 1000 Ang^3
#
#
#
# Elastic Constant Matrix: (Units=GPa)
#
#
# Indices 1 2 3 4 5 6 
#
# 1 10.9395 128.7850 39.7430 0.0000 0.0000 0.0000
# 2 128.7850 10.9395 39.7430 0.0000 0.0000 0.0000
# 3 39.7430 39.7430 67.3489 0.0000 0.0000 0.0000
# 4 0.0000 0.0000 0.0000 16.6919 0.0000 0.0000
# 5 0.0000 0.0000 0.0000 0.0000 16.6919 0.0000
# 6 0.0000 0.0000 0.0000 0.0000 0.0000 -58.9227
#
#
#
# Elastic Compliance Matrix: (Units=1/GPa)
#
#
# Indices 1 2 3 4 5 6 
#
# 1 0.001144 0.009630 -0.006358 0.000000 0.000000 0.000000
# 2 0.009630 0.001144 -0.006358 0.000000 0.000000 0.000000
# 3 -0.006358 -0.006358 0.022351 0.000000 0.000000 0.000000
# 4 0.000000 0.000000 0.000000 0.059909 0.000000 0.000000
# 5 0.000000 0.000000 0.000000 0.000000 0.059909 0.000000
# 6 0.000000 0.000000 0.000000 0.000000 0.000000 -0.016971
#
#
# Mechanical properties :
#
#
# Convention : Reuss Voigt Hill
#
# Bulk Modulus (GPa) = 54.14691 56.19664 55.17177
# Shear Modulus (GPa) = 35.76194 -13.04398 11.35898
#
# Velocity S-wave (km/s) = 4.77505 -2.88385 2.69115
# Velocity P-wave (km/s) = 8.05758 4.97404 6.69573
#
# Compressibility (1/GPa) = 0.01846828
#
# Stress axis : x y z
#
# Youngs Moduli (GPa) = 874.15603 874.15603 44.74007
#
# Poissons Ratio (x) = -8.41782 0.28444
# Poissons Ratio (y) = -8.41782 0.28444
# Poissons Ratio (z) = 5.55751 5.55751
#
# Static dielectric constant tensor:
#      x y z
#    x 1.529730 0.000000 0.000000 
#    y 0.000000 1.529730 0.000000 
#    z 0.000000 0.000000 1.531340 
# 
# From -- ./inp_files/6192.got.cif
#   From: 2010.05.17/outbox.cif.g08.bks.cpg/sg191_4_cif.got.tgz:6192.got - 2010.05.20 12:20:32.
