data_PCOD9587237
_publ_section_title
;
Structure prediction by ZEFSAII (Michael W. Deem and Ramdas Pophale) SiO2 
 PCOD9587237
Probable space group: P 6/M M M
;
_chemical_formula_sum "Si O2"
_cell_formula_units_Z 52
_cell_length_a 19.329307
_cell_length_b 19.329307
_cell_length_c 11.802991
_cell_angle_alpha 90.000000
_cell_angle_beta 90.000000
_cell_angle_gamma 120.000000
_cell_volume 3819.049394
_symmetry_space_group_name_H-M "P 6/M M M"
_symmetry_group_IT_number 191
_symmetry_cell_setting 'hexagonal'
loop_
_space_group_symop_operation_xyz
x,y,z
x-y,x,z
-y,x-y,z
-x,-y,z
-x+y,-x,z
y,-x+y,z
x-y,-y,-z
-x,-x+y,-z
y,x,-z
-y,-x,-z
-x+y,y,-z
x,x-y,-z
-x,-y,-z
-x+y,-x,-z
y,-x+y,-z
x,y,-z
x-y,x,-z
-y,x-y,-z
-x+y,y,z
x,x-y,z
-y,-x,z
y,x,z
x-y,-y,z
-x,-x+y,z
loop_
_atom_site_type_symbol
_atom_site_label
_atom_site_fract_x
_atom_site_fract_y
_atom_site_fract_z
Si Si1 0.093119 0.628050 0.756073
Si Si2 0.334873 0.828905 0.000000
Si Si3 0.666667 0.333334 0.362355
Si Si4 0.758908 0.517816 0.635420
O O1 0.104751 0.552376 0.724868
O O2 0.118793 0.648064 0.887120
O O3 0.152607 0.705343 0.684057
O O4 0.000000 0.597455 0.740882
O O5 0.246481 0.753519 0.000000
O O6 0.399800 0.799599 0.000000
O O7 0.666667 0.333334 0.500000
O O8 0.575179 0.287590 0.324766
O O9 0.759964 0.519928 0.500000
#
# Coordination Sequence:
#
# PCOD9587237 Si02
#       4
#    24  12   4  12
#     4  10  20  32  46  65  90 117 149 191 234 272
#     4  10  18  29  47  68  87 113 151 192 233 272
#     4   9  18  30  42  61  83 112 159 201 220 251
#     4  11  20  31  47  64  87 120 157 193 228 263
#
# _framework density 13.615952999999999
#
# number of rings (size 3 to 8) (size 9 to 14) (size 15 to 20)
#    0.000    1.846    4.615    0.923    0.000    3.692 
#    0.000    2.308    0.000    0.000    0.000    0.000 
#    0.000    0.000    0.000    0.692    0.000    6.000 
#
# Total GULP energy -290106.167773 kJ/mol
# GULP energy per Si atom -5578.964765 kJ/mol
# Density = 1.358496 g / cm^3
# Si number density = 13.615953 Si / 1000 Ang^3
#
#
#
# Elastic Constant Matrix: (Units=GPa)
#
#
# Indices 1 2 3 4 5 6 
#
# 1 94.4916 50.2485 34.4558 0.0000 0.0000 0.0000
# 2 50.2485 94.4919 34.4557 0.0000 0.0000 0.0000
# 3 34.4558 34.4557 66.1475 0.0000 0.0000 0.0000
# 4 0.0000 0.0000 0.0000 10.1444 0.0000 0.0000
# 5 0.0000 0.0000 0.0000 0.0000 10.1444 0.0000
# 6 0.0000 0.0000 0.0000 0.0000 0.0000 22.1216
#
#
#
# Elastic Compliance Matrix: (Units=1/GPa)
#
#
# Indices 1 2 3 4 5 6 
#
# 1 0.015895 -0.006707 -0.004786 0.000000 0.000000 0.000000
# 2 -0.006707 0.015895 -0.004786 0.000000 0.000000 0.000000
# 3 -0.004786 -0.004786 0.020103 0.000000 0.000000 0.000000
# 4 0.000000 0.000000 0.000000 0.098576 0.000000 0.000000
# 5 0.000000 0.000000 0.000000 0.000000 0.098577 0.000000
# 6 0.000000 0.000000 0.000000 0.000000 0.000000 0.045205
#
#
# Mechanical properties :
#
#
# Convention : Reuss Voigt Hill
#
# Bulk Modulus (GPa) = 51.71820 54.82789 53.27304
# Shear Modulus (GPa) = 15.00360 17.54682 16.27521
#
# Velocity S-wave (km/s) = 3.32311 3.59374 3.46107
# Velocity P-wave (km/s) = 7.26568 7.58780 7.42849
#
# Compressibility (1/GPa) = 0.01933555
#
# Stress axis : x y z
#
# Youngs Moduli (GPa) = 62.91337 62.91361 49.74297
#
# Poissons Ratio (x) = 0.42199 0.23805
# Poissons Ratio (y) = 0.42199 0.23805
# Poissons Ratio (z) = 0.30108 0.30108
#
# Static dielectric constant tensor:
#      x y z
#    x 1.431970 0.000000 0.000000 
#    y 0.000000 1.431970 0.000000 
#    z 0.000000 0.000000 1.461490 
# 
# From -- ./inp_files/2197.got.cif
#   From: 2010.05.17/outbox.cif.g08.bks.cpg/sg191_2_cif.got.tgz:2197.got - 2010.05.20 12:20:32.
