data_PCOD9587196
_publ_section_title
;
Structure prediction by ZEFSAII (Michael W. Deem and Ramdas Pophale) SiO2 
 PCOD9587196
Probable space group: P 6/M M M
;
_chemical_formula_sum "Si O2"
_cell_formula_units_Z 156
_cell_length_a 22.205471
_cell_length_b 22.205471
_cell_length_c 23.623452
_cell_angle_alpha 90.000000
_cell_angle_beta 90.000000
_cell_angle_gamma 120.000000
_cell_volume 10087.742088
_symmetry_space_group_name_H-M "P 6/M M M"
_symmetry_group_IT_number 191
_symmetry_cell_setting 'hexagonal'
loop_
_space_group_symop_operation_xyz
x,y,z
x-y,x,z
-y,x-y,z
-x,-y,z
-x+y,-x,z
y,-x+y,z
x-y,-y,-z
-x,-x+y,-z
y,x,-z
-y,-x,-z
-x+y,y,-z
x,x-y,-z
-x,-y,-z
-x+y,-x,-z
y,-x+y,-z
x,y,-z
x-y,x,-z
-y,x-y,-z
-x+y,y,z
x,x-y,z
-y,-x,z
y,x,z
x-y,-y,z
-x,-x+y,z
loop_
_atom_site_type_symbol
_atom_site_label
_atom_site_fract_x
_atom_site_fract_y
_atom_site_fract_z
Si Si1 0.335137 0.525006 0.329369
Si Si2 0.532439 0.613274 0.000000
Si Si3 0.150826 0.703636 0.216571
Si Si4 0.188368 0.666051 0.099169
Si Si5 0.785431 0.708162 0.618853
Si Si6 0.854444 0.291993 0.563397
Si Si7 0.217069 0.295129 0.245902
O O1 0.261702 0.523403 0.329032
O O2 0.397113 0.602888 0.325687
O O3 0.335894 0.482777 0.274390
O O4 0.338488 0.489598 0.387598
O O5 0.524950 0.653624 0.945979
O O6 0.594503 0.594503 0.000000
O O7 0.461603 0.538397 0.000000
O O8 0.223022 0.776979 0.220021
O O9 0.158390 0.666727 0.161232
O O10 0.093031 0.726736 0.215856
O O11 0.202095 0.601048 0.094198
O O12 0.260647 0.739354 0.090911
O O13 0.862846 0.725691 0.604719
O O14 0.769297 0.769297 0.608300
O O15 0.732832 0.640253 0.583905
O O16 0.774871 0.690922 0.686117
O O17 0.869133 0.320971 0.500000
O O18 0.779297 0.220704 0.562376
O O19 0.139658 0.279316 0.231228
O O20 0.234619 0.234619 0.234322
#
# Coordination Sequence:
#
# PCOD9587196 Si02
#       7
#    24  12  24  24  24  24  24
#     4  10  18  29  44  63  88 115 147 187 233 280
#     4   9  19  34  48  64  90 125 162 196 234 284
#     4   9  17  29  45  67  93 122 154 189 228 272
#     4  10  19  31  49  72  98 126 160 201 246 292
#     4   9  16  28  47  68  88 111 142 180 220 264
#     4   9  17  29  44  61  83 114 150 186 224 267
#     4   9  16  28  47  69  92 118 150 188 228 271
#
# _framework density 15.464312
#
# number of rings (size 3 to 8) (size 9 to 14) (size 15 to 20)
#    0.000    2.692    1.538    1.000    0.000    1.231 
#    0.000    2.308    0.000    4.000    0.000    3.231 
#    0.000    0.000    0.000    3.846    0.000    4.000 
#
# Total GULP energy -868433.062636 kJ/mol
# GULP energy per Si atom -5566.878607 kJ/mol
# Density = 1.542911 g / cm^3
# Si number density = 15.464312 Si / 1000 Ang^3
#
#
#
# Elastic Constant Matrix: (Units=GPa)
#
#
# Indices 1 2 3 4 5 6 
#
# 1 67.3258 33.0284 38.8071 0.0000 0.0000 0.0000
# 2 33.0284 67.3258 38.8071 0.0000 0.0000 0.0000
# 3 38.8071 38.8071 69.9897 0.0000 0.0000 0.0000
# 4 0.0000 0.0000 0.0000 13.7346 0.0000 0.0000
# 5 0.0000 0.0000 0.0000 0.0000 13.7346 0.0000
# 6 0.0000 0.0000 0.0000 0.0000 0.0000 17.1487
#
#
#
# Elastic Compliance Matrix: (Units=1/GPa)
#
#
# Indices 1 2 3 4 5 6 
#
# 1 0.023301 -0.005855 -0.009673 0.000000 0.000000 0.000000
# 2 -0.005855 0.023301 -0.009673 0.000000 0.000000 0.000000
# 3 -0.009673 -0.009673 0.025015 0.000000 0.000000 0.000000
# 4 0.000000 0.000000 0.000000 0.072809 0.000000 0.000000
# 5 0.000000 0.000000 0.000000 0.000000 0.072809 0.000000
# 6 0.000000 0.000000 0.000000 0.000000 0.000000 0.058313
#
#
# Mechanical properties :
#
#
# Convention : Reuss Voigt Hill
#
# Bulk Modulus (GPa) = 47.13906 47.32518 47.23212
# Shear Modulus (GPa) = 15.01395 15.19017 15.10206
#
# Velocity S-wave (km/s) = 3.11927 3.13752 3.12841
# Velocity P-wave (km/s) = 6.59710 6.61775 6.60744
#
# Compressibility (1/GPa) = 0.02121383
#
# Stress axis : x y z
#
# Youngs Moduli (GPa) = 42.91593 42.91593 39.97611
#
# Poissons Ratio (x) = 0.25129 0.38670
# Poissons Ratio (y) = 0.25129 0.38670
# Poissons Ratio (z) = 0.41514 0.41514
#
# Static dielectric constant tensor:
#      x y z
#    x 1.507950 0.000000 0.000000 
#    y 0.000000 1.507950 0.000000 
#    z 0.000000 0.000000 1.535140 
# 
# From -- ./inp_files/7723.got.cif
#   From: 2010.05.17/outbox.cif.g08.bks.cpg/sg191_4_cif.got.tgz:7723.got - 2010.05.20 12:20:32.
