data_PCOD9587278
_publ_section_title
;
Structure prediction by ZEFSAII (Michael W. Deem and Ramdas Pophale) SiO2 
 PCOD9587278
Probable space group: P 6/M M M
;
_chemical_formula_sum "Si O2"
_cell_formula_units_Z 108
_cell_length_a 17.616777
_cell_length_b 17.616777
_cell_length_c 21.048673
_cell_angle_alpha 90.000000
_cell_angle_beta 90.000000
_cell_angle_gamma 120.000000
_cell_volume 5657.287719
_symmetry_space_group_name_H-M "P 6/M M M"
_symmetry_group_IT_number 191
_symmetry_cell_setting 'hexagonal'
loop_
_space_group_symop_operation_xyz
x,y,z
x-y,x,z
-y,x-y,z
-x,-y,z
-x+y,-x,z
y,-x+y,z
x-y,-y,-z
-x,-x+y,-z
y,x,-z
-y,-x,-z
-x+y,y,-z
x,x-y,-z
-x,-y,-z
-x+y,-x,-z
y,-x+y,-z
x,y,-z
x-y,x,-z
-y,x-y,-z
-x+y,y,z
x,x-y,z
-y,-x,z
y,x,z
x-y,-y,z
-x,-x+y,z
loop_
_atom_site_type_symbol
_atom_site_label
_atom_site_fract_x
_atom_site_fract_y
_atom_site_fract_z
Si Si1 0.822111 0.177890 0.175422
Si Si2 0.210928 0.105464 0.430750
Si Si3 0.893640 0.106361 0.288923
Si Si4 0.506847 0.669517 0.366703
Si Si5 0.465363 0.362025 0.229403
Si Si6 0.896236 0.360762 0.500000
Si Si7 0.102622 0.897379 0.076092
O O1 0.856969 0.143032 0.234094
O O2 0.718420 0.138366 0.181940
O O3 0.851800 0.148201 0.113141
O O4 0.150484 0.150484 0.430813
O O5 0.258414 0.129207 0.500000
O O6 0.254242 0.127121 0.360624
O O7 0.000000 0.153033 0.283170
O O8 0.467365 0.733683 0.363764
O O9 0.431718 0.568282 0.368675
O O10 0.554382 0.678203 0.300638
O O11 0.557453 0.688697 0.433152
O O12 0.569915 0.430086 0.223339
O O13 0.418573 0.418573 0.222863
O O14 0.859467 0.429734 0.500000
O O15 0.000000 0.417118 0.500000
O O16 0.000000 0.849700 0.093482
O O17 0.108420 0.891581 0.000000
#
# Coordination Sequence:
#
# PCOD9587278 Si02
#       7
#    12  12  12  24  24  12  12
#     4  12  22  38  59  88 116 156 201 251 292 346
#     4   8  13  22  38  62  96 140 188 234 281 336
#     4  10  19  30  50  80 116 154 194 243 297 352
#     4  10  18  30  47  72  99 131 175 232 294 355
#     4  10  21  37  56  79 110 147 189 240 300 357
#     4   9  17  28  44  64  92 131 174 223 290 367
#     4  10  21  38  64 100 142 182 212 239 277 334
#
# _framework density 19.090420000000002
#
# number of rings (size 3 to 8) (size 9 to 14) (size 15 to 20)
#    0.000    2.111    1.111    3.556    0.000    4.444 
#    0.667    2.222    2.444    0.667    0.000    3.111 
#    0.000    0.000    0.000    0.000    0.000    0.000 
#
# Total GULP energy -602182.816399 kJ/mol
# GULP energy per Si atom -5575.766819 kJ/mol
# Density = 1.904697 g / cm^3
# Si number density = 19.090420 Si / 1000 Ang^3
#
#
#
# Elastic Constant Matrix: (Units=GPa)
#
#
# Indices 1 2 3 4 5 6 
#
# 1 71.9611 26.3482 30.1330 0.0000 0.0000 0.0000
# 2 26.3482 71.9611 30.1330 0.0000 0.0000 0.0000
# 3 30.1330 30.1330 49.1455 0.0000 0.0000 0.0000
# 4 0.0000 0.0000 0.0000 30.9218 0.0000 0.0000
# 5 0.0000 0.0000 0.0000 0.0000 30.9218 0.0000
# 6 0.0000 0.0000 0.0000 0.0000 0.0000 22.8064
#
#
#
# Elastic Compliance Matrix: (Units=1/GPa)
#
#
# Indices 1 2 3 4 5 6 
#
# 1 0.019111 -0.002813 -0.009993 0.000000 0.000000 0.000000
# 2 -0.002813 0.019111 -0.009993 0.000000 0.000000 0.000000
# 3 -0.009993 -0.009993 0.032602 0.000000 0.000000 0.000000
# 4 0.000000 0.000000 0.000000 0.032340 0.000000 0.000000
# 5 0.000000 0.000000 0.000000 0.000000 0.032340 0.000000
# 6 0.000000 0.000000 0.000000 0.000000 0.000000 0.043847
#
#
# Mechanical properties :
#
#
# Convention : Reuss Voigt Hill
#
# Bulk Modulus (GPa) = 39.64154 40.69956 40.17055
# Shear Modulus (GPa) = 21.42654 24.02690 22.72672
#
# Velocity S-wave (km/s) = 3.35382 3.55150 3.45407
# Velocity P-wave (km/s) = 5.98395 6.17926 6.08239
#
# Compressibility (1/GPa) = 0.02522607
#
# Stress axis : x y z
#
# Youngs Moduli (GPa) = 52.32666 52.32666 30.67331
#
# Poissons Ratio (x) = 0.14719 0.30651
# Poissons Ratio (y) = 0.14719 0.30651
# Poissons Ratio (z) = 0.52289 0.52289
#
# Static dielectric constant tensor:
#      x y z
#    x 1.675260 0.000000 0.000000 
#    y 0.000000 1.675260 0.000000 
#    z 0.000000 0.000000 1.685090 
# 
# From -- ./inp_files/7420.got.cif
#   From: 2010.05.17/outbox.cif.g08.bks.cpg/sg191_4_cif.got.tgz:7420.got - 2010.05.20 12:20:32.
