data_PCOD9587435
_publ_section_title
;
Structure prediction by ZEFSAII (Michael W. Deem and Ramdas Pophale) SiO2 
 PCOD9587435
Probable space group: P 6/M M M
;
_chemical_formula_sum "Si O2"
_cell_formula_units_Z 132
_cell_length_a 18.343654
_cell_length_b 18.343654
_cell_length_c 28.710221
_cell_angle_alpha 90.000000
_cell_angle_beta 90.000000
_cell_angle_gamma 120.000000
_cell_volume 8366.404680
_symmetry_space_group_name_H-M "P 6/M M M"
_symmetry_group_IT_number 191
_symmetry_cell_setting 'hexagonal'
loop_
_space_group_symop_operation_xyz
x,y,z
x-y,x,z
-y,x-y,z
-x,-y,z
-x+y,-x,z
y,-x+y,z
x-y,-y,-z
-x,-x+y,-z
y,x,-z
-y,-x,-z
-x+y,y,-z
x,x-y,-z
-x,-y,-z
-x+y,-x,-z
y,-x+y,-z
x,y,-z
x-y,x,-z
-y,x-y,-z
-x+y,y,z
x,x-y,z
-y,-x,z
y,x,z
x-y,-y,z
-x,-x+y,z
loop_
_atom_site_type_symbol
_atom_site_label
_atom_site_fract_x
_atom_site_fract_y
_atom_site_fract_z
Si Si1 0.835479 0.503742 0.630318
Si Si2 0.459721 0.095994 0.730618
Si Si3 0.834413 0.503219 0.168594
Si Si4 0.633355 0.730862 0.913579
Si Si5 0.838835 0.332262 0.000000
Si Si6 0.738215 0.643631 0.553544
O O1 0.738127 0.476254 0.624243
O O2 0.848570 0.424285 0.626867
O O3 0.863441 0.543099 0.681867
O O4 0.886456 0.571200 0.590553
O O5 0.547395 0.094790 0.729107
O O6 0.465773 0.143899 0.778135
O O7 0.385874 0.000000 0.733374
O O8 0.736858 0.473715 0.159663
O O9 0.850828 0.425414 0.161745
O O10 0.887482 0.579799 0.133619
O O11 0.660045 0.830023 0.915415
O O12 0.706011 0.706011 0.917026
O O13 0.566211 0.685721 0.955269
O O14 0.740290 0.259711 0.000000
O O15 0.848716 0.424358 0.000000
O O16 0.716097 0.612791 0.500000
O O17 0.834749 0.669498 0.560642
O O18 0.718182 0.718182 0.559453
#
# Coordination Sequence:
#
# PCOD9587435 Si02
#       6
#    24  24  24  24  12  24
#     4  10  19  30  44  63  89 121 156 192 228 265
#     4   9  17  28  42  60  83 115 156 198 233 264
#     4  10  19  30  45  66  94 127 160 191 224 266
#     4  10  21  35  51  71  94 122 155 194 239 282
#     4  10  20  33  50  73 102 134 165 194 224 261
#     4   9  18  32  49  68  89 114 144 179 221 268
#
# _framework density 15.777386
#
# number of rings (size 3 to 8) (size 9 to 14) (size 15 to 20)
#    0.000    2.364    0.000    2.909    0.000    4.000 
#    0.000    4.545    0.000    1.455    0.000    1.273 
#    0.000    2.182    0.000    0.000    0.000   37.818 
#
# Total GULP energy -735635.993828 kJ/mol
# GULP energy per Si atom -5572.999953 kJ/mol
# Density = 1.574148 g / cm^3
# Si number density = 15.777386 Si / 1000 Ang^3
#
#
#
# Elastic Constant Matrix: (Units=GPa)
#
#
# Indices 1 2 3 4 5 6 
#
# 1 75.4635 58.6505 39.3159 0.0000 0.0000 0.0000
# 2 58.6505 75.4635 39.3159 0.0000 0.0000 0.0000
# 3 39.3159 39.3159 98.4409 0.0000 0.0000 0.0000
# 4 0.0000 0.0000 0.0000 19.5407 0.0000 0.0000
# 5 0.0000 0.0000 0.0000 0.0000 19.5407 0.0000
# 6 0.0000 0.0000 0.0000 0.0000 0.0000 8.4065
#
#
#
# Elastic Compliance Matrix: (Units=1/GPa)
#
#
# Indices 1 2 3 4 5 6 
#
# 1 0.034607 -0.024871 -0.003889 0.000000 0.000000 0.000000
# 2 -0.024871 0.034607 -0.003889 0.000000 0.000000 0.000000
# 3 -0.003889 -0.003889 0.013264 0.000000 0.000000 0.000000
# 4 0.000000 0.000000 0.000000 0.051175 0.000000 0.000000
# 5 0.000000 0.000000 0.000000 0.000000 0.051175 0.000000
# 6 0.000000 0.000000 0.000000 0.000000 0.000000 0.118955
#
#
# Mechanical properties :
#
#
# Convention : Reuss Voigt Hill
#
# Bulk Modulus (GPa) = 58.19777 58.21475 58.20626
# Shear Modulus (GPa) = 13.34023 16.96998 15.15511
#
# Velocity S-wave (km/s) = 2.91095 3.28318 3.10265
# Velocity P-wave (km/s) = 6.94731 7.16589 7.05745
#
# Compressibility (1/GPa) = 0.01718279
#
# Stress axis : x y z
#
# Youngs Moduli (GPa) = 28.89604 28.89604 75.38976
#
# Poissons Ratio (x) = 0.71866 0.29315
# Poissons Ratio (y) = 0.71866 0.29315
# Poissons Ratio (z) = 0.11236 0.11236
#
# Static dielectric constant tensor:
#      x y z
#    x 1.517460 0.000000 0.000000 
#    y 0.000000 1.517460 0.000000 
#    z 0.000000 0.000000 1.545150 
# 
# From -- ./inp_files/9804.got.cif
#   From: 2010.05.17/outbox.cif.g08.bks.cpg/sg191_5_cif.got.tgz:9804.got - 2010.05.20 12:20:32.
