data_PCOD9587027
_publ_section_title
;
Structure prediction by ZEFSAII (Michael W. Deem and Ramdas Pophale) SiO2 
 PCOD9587027
Probable space group: P 6/M M M
;
_chemical_formula_sum "Si O2"
_cell_formula_units_Z 144
_cell_length_a 24.828172
_cell_length_b 24.828172
_cell_length_c 18.149309
_cell_angle_alpha 90.000000
_cell_angle_beta 90.000000
_cell_angle_gamma 120.000000
_cell_volume 9689.028138
_symmetry_space_group_name_H-M "P 6/M M M"
_symmetry_group_IT_number 191
_symmetry_cell_setting 'hexagonal'
loop_
_space_group_symop_operation_xyz
x,y,z
x-y,x,z
-y,x-y,z
-x,-y,z
-x+y,-x,z
y,-x+y,z
x-y,-y,-z
-x,-x+y,-z
y,x,-z
-y,-x,-z
-x+y,y,-z
x,x-y,-z
-x,-y,-z
-x+y,-x,-z
y,-x+y,-z
x,y,-z
x-y,x,-z
-y,x-y,-z
-x+y,y,z
x,x-y,z
-y,-x,z
y,x,z
x-y,-y,z
-x,-x+y,z
loop_
_atom_site_type_symbol
_atom_site_label
_atom_site_fract_x
_atom_site_fract_y
_atom_site_fract_z
Si Si1 0.462105 0.924209 0.916562
Si Si2 0.924510 0.288029 0.582075
Si Si3 0.071779 0.266728 0.695333
Si Si4 0.442931 0.367830 0.809887
Si Si5 0.075642 0.477494 0.644516
Si Si6 0.662879 0.769020 0.152740
Si Si7 0.733353 0.930437 0.000000
O O1 0.399843 0.904756 0.871729
O O2 0.500000 0.000000 0.917027
O O3 0.451229 0.902458 0.000000
O O4 0.904251 0.261936 0.500000
O O5 0.908736 0.236136 0.644053
O O6 0.903406 0.338458 0.600025
O O7 0.000000 0.327574 0.582586
O O8 0.122768 0.245536 0.684544
O O9 0.075922 0.288555 0.779969
O O10 0.000000 0.216769 0.678282
O O11 0.402638 0.402638 0.809964
O O12 0.473847 0.381406 0.729452
O O13 0.395396 0.296928 0.827714
O O14 0.096526 0.548263 0.622590
O O15 0.000000 0.440501 0.640264
O O16 0.644286 0.822143 0.150460
O O17 0.693611 0.771403 0.073903
O O18 0.748842 0.874421 0.000000
O O19 0.791462 0.000000 0.000000
#
# Coordination Sequence:
#
# PCOD9587027 Si02
#       7
#    12  24  24  24  24  24  12
#     4   9  18  26  36  62  89 115 149 179 208 252
#     4   9  17  28  42  62  88 117 149 183 218 263
#     4  10  19  32  49  67  89 119 157 197 241 296
#     4  10  16  26  42  59  86 119 148 178 215 258
#     4   9  15  24  39  59  85 118 149 174 203 246
#     4  10  20  31  45  66  90 119 154 188 226 277
#     4  10  20  32  46  66  89 115 147 185 231 281
#
# _framework density 14.862171999999999
#
# number of rings (size 3 to 8) (size 9 to 14) (size 15 to 20)
#    0.000    2.417    2.500    1.500    1.167    0.667 
#    0.000    1.667    0.000    0.250    0.000    0.000 
#    0.833    4.000    0.000    4.667    0.000    3.500 
#
# Total GULP energy -801855.880395 kJ/mol
# GULP energy per Si atom -5568.443614 kJ/mol
# Density = 1.482834 g / cm^3
# Si number density = 14.862172 Si / 1000 Ang^3
#
#
#
# Elastic Constant Matrix: (Units=GPa)
#
#
# Indices 1 2 3 4 5 6 
#
# 1 62.8705 29.2422 13.0555 0.0000 0.0000 0.0000
# 2 29.2422 62.8705 13.0555 0.0000 0.0000 0.0000
# 3 13.0555 13.0555 79.6611 0.0000 0.0000 0.0000
# 4 0.0000 0.0000 0.0000 13.0648 0.0000 0.0000
# 5 0.0000 0.0000 0.0000 0.0000 13.0648 0.0000
# 6 0.0000 0.0000 0.0000 0.0000 0.0000 16.8142
#
#
#
# Elastic Compliance Matrix: (Units=1/GPa)
#
#
# Indices 1 2 3 4 5 6 
#
# 1 0.020561 -0.009176 -0.001866 0.000000 0.000000 0.000000
# 2 -0.009176 0.020561 -0.001866 0.000000 0.000000 0.000000
# 3 -0.001866 -0.001866 0.013165 0.000000 0.000000 0.000000
# 4 0.000000 0.000000 0.000000 0.076542 0.000000 0.000000
# 5 0.000000 0.000000 0.000000 0.000000 0.076542 0.000000
# 6 0.000000 0.000000 0.000000 0.000000 0.000000 0.059474
#
#
# Mechanical properties :
#
#
# Convention : Reuss Voigt Hill
#
# Bulk Modulus (GPa) = 35.12274 35.12315 35.12294
# Shear Modulus (GPa) = 16.54809 18.59201 17.57005
#
# Velocity S-wave (km/s) = 3.34044 3.54073 3.44204
# Velocity P-wave (km/s) = 6.20980 6.35607 6.28336
#
# Compressibility (1/GPa) = 0.02847158
#
# Stress axis : x y z
#
# Youngs Moduli (GPa) = 48.63576 48.63576 75.96028
#
# Poissons Ratio (x) = 0.44627 0.14173
# Poissons Ratio (y) = 0.44627 0.14173
# Poissons Ratio (z) = 0.09075 0.09075
#
# Static dielectric constant tensor:
#      x y z
#    x 1.480770 0.000000 0.000000 
#    y 0.000000 1.480770 0.000000 
#    z 0.000000 0.000000 1.515330 
# 
# From -- ./inp_files/6658.got.cif
#   From: 2010.05.17/outbox.cif.g08.bks.cpg/sg191_4_cif.got.tgz:6658.got - 2010.05.20 12:20:32.
