data_PCOD9587667
_publ_section_title
;
Structure prediction by ZEFSAII (Michael W. Deem and Ramdas Pophale) SiO2 
 PCOD9587667
Probable space group: P 6/M M M
;
_chemical_formula_sum "Si O2"
_cell_formula_units_Z 132
_cell_length_a 27.258192
_cell_length_b 27.258192
_cell_length_c 12.712784
_cell_angle_alpha 90.000000
_cell_angle_beta 90.000000
_cell_angle_gamma 120.000000
_cell_volume 8180.227694
_symmetry_space_group_name_H-M "P 6/M M M"
_symmetry_group_IT_number 191
_symmetry_cell_setting 'hexagonal'
loop_
_space_group_symop_operation_xyz
x,y,z
x-y,x,z
-y,x-y,z
-x,-y,z
-x+y,-x,z
y,-x+y,z
x-y,-y,-z
-x,-x+y,-z
y,x,-z
-y,-x,-z
-x+y,y,-z
x,x-y,-z
-x,-y,-z
-x+y,-x,-z
y,-x+y,-z
x,y,-z
x-y,x,-z
-y,x-y,-z
-x+y,y,z
x,x-y,z
-y,-x,z
y,x,z
x-y,-y,z
-x,-x+y,z
loop_
_atom_site_type_symbol
_atom_site_label
_atom_site_fract_x
_atom_site_fract_y
_atom_site_fract_z
Si Si1 0.451813 0.386750 0.619708
Si Si2 0.065459 0.244004 0.373441
Si Si3 0.777966 0.446217 0.500000
Si Si4 0.934411 0.649416 0.726510
Si Si5 0.722984 0.161543 0.121183
Si Si6 0.825750 0.357216 0.276997
O O1 0.471967 0.391808 0.500000
O O2 0.432597 0.432597 0.636993
O O3 0.395838 0.325528 0.638635
O O4 0.498443 0.391139 0.699356
O O5 0.067394 0.251183 0.500000
O O6 0.115084 0.230168 0.344993
O O7 0.077464 0.302757 0.320171
O O8 0.000000 0.197212 0.347049
O O9 0.711400 0.422800 0.500000
O O10 0.792443 0.396222 0.500000
O O11 0.800940 0.476704 0.612070
O O12 0.891284 0.611268 0.816786
O O13 0.000000 0.681738 0.762190
O O14 0.786906 0.213095 0.124073
O O15 0.684614 0.182173 0.182851
O O16 0.705132 0.147680 0.000000
O O17 0.805025 0.402513 0.259041
#
# Coordination Sequence:
#
# PCOD9587667 Si02
#       6
#    24  24  12  24  24  24
#     4   9  16  27  44  67  96 124 147 176 217 269
#     4   9  16  26  42  66  97 131 166 205 248 292
#     4  10  19  32  49  69  91 113 139 179 231 282
#     4   9  17  29  47  70  95 123 156 194 236 285
#     4  10  21  36  52  69  92 124 160 196 236 284
#     4  10  20  33  49  70  93 118 151 189 230 277
#
# _framework density 16.136471
#
# number of rings (size 3 to 8) (size 9 to 14) (size 15 to 20)
#    0.000    2.545    0.909    1.727    0.000    3.273 
#    0.000    0.909    0.000    0.545    0.000    6.364 
#    0.000    0.000    0.000    0.000    0.000    0.000 
#
# Total GULP energy -735055.425200 kJ/mol
# GULP energy per Si atom -5568.601706 kJ/mol
# Density = 1.609974 g / cm^3
# Si number density = 16.136471 Si / 1000 Ang^3
#
#
#
# Elastic Constant Matrix: (Units=GPa)
#
#
# Indices 1 2 3 4 5 6 
#
# 1 64.6641 28.0778 25.4425 0.0000 0.0000 0.0000
# 2 28.0778 64.6641 25.4425 0.0000 0.0000 0.0000
# 3 25.4425 25.4425 75.7370 0.0000 0.0000 0.0000
# 4 0.0000 0.0000 0.0000 18.3730 0.0000 0.0000
# 5 0.0000 0.0000 0.0000 0.0000 18.3730 0.0000
# 6 0.0000 0.0000 0.0000 0.0000 0.0000 18.2932
#
#
#
# Elastic Compliance Matrix: (Units=1/GPa)
#
#
# Indices 1 2 3 4 5 6 
#
# 1 0.020276 -0.007057 -0.004441 0.000000 0.000000 0.000000
# 2 -0.007057 0.020276 -0.004441 0.000000 0.000000 0.000000
# 3 -0.004441 -0.004441 0.016187 0.000000 0.000000 0.000000
# 4 0.000000 0.000000 0.000000 0.054428 0.000000 0.000000
# 5 0.000000 0.000000 0.000000 0.000000 0.054428 0.000000
# 6 0.000000 0.000000 0.000000 0.000000 0.000000 0.054665
#
#
# Mechanical properties :
#
#
# Convention : Reuss Voigt Hill
#
# Bulk Modulus (GPa) = 40.22128 40.33234 40.27681
# Shear Modulus (GPa) = 19.19949 19.41465 19.30707
#
# Velocity S-wave (km/s) = 3.45312 3.47241 3.46278
# Velocity P-wave (km/s) = 6.39363 6.41293 6.40329
#
# Compressibility (1/GPa) = 0.02486246
#
# Stress axis : x y z
#
# Youngs Moduli (GPa) = 49.31972 49.31972 61.77734
#
# Poissons Ratio (x) = 0.34804 0.27434
# Poissons Ratio (y) = 0.34804 0.27434
# Poissons Ratio (z) = 0.21902 0.21902
#
# Static dielectric constant tensor:
#      x y z
#    x 1.559970 0.000000 0.000000 
#    y 0.000000 1.559970 0.000000 
#    z 0.000000 0.000000 1.529370 
# 
# From -- ./inp_files/3344.got.cif
#   From: 2010.05.17/outbox.cif.g08.bks.cpg/sg191_2_cif.got.tgz:3344.got - 2010.05.20 12:20:32.
