data_PCOD9587022
_publ_section_title
;
Structure prediction by ZEFSAII (Michael W. Deem and Ramdas Pophale) SiO2 
 PCOD9587022
Probable space group: P -6 2 C
;
_chemical_formula_sum "Si O2"
_cell_formula_units_Z 70
_cell_length_a 15.000000
_cell_length_b 15.000000
_cell_length_c 18.000000
_cell_angle_alpha 90.000000
_cell_angle_beta 90.000000
_cell_angle_gamma 120.000000
_cell_volume 3507.402885
_symmetry_space_group_name_H-M "P -6 2 C"
_symmetry_group_IT_number 190
_symmetry_cell_setting 'hexagonal'
loop_
_space_group_symop_operation_xyz
x,y,z
-x+y,-x,1/2-z
-y,x-y,z
x,y,1/2-z
-x+y,-x,z
-y,x-y,1/2-z
x-y,-y,-z
-x,-x+y,-z
y,x,-z
y,x,1/2+z
x-y,-y,1/2+z
-x,-x+y,1/2+z
loop_
_atom_site_type_symbol
_atom_site_label
_atom_site_fract_x
_atom_site_fract_y
_atom_site_fract_z
Si Si1 0.417410 0.882524 0.967919
Si Si2 0.619621 0.658655 0.664432
Si Si3 0.750733 0.466119 0.750000
Si Si4 0.111553 0.733898 0.964741
Si Si5 0.000000 0.000000 0.408803
Si Si6 0.771990 0.896382 0.836779
Si Si7 0.731420 0.545194 0.905107
O O1 0.353797 0.887450 0.896314
O O2 0.504799 0.855789 0.945417
O O3 0.350808 0.810855 0.037193
O O4 0.474181 0.000000 0.000000
O O5 0.581202 0.632946 0.750000
O O6 0.718224 0.772921 0.665988
O O7 0.666607 0.590727 0.633931
O O8 0.777531 0.374683 0.750000
O O9 0.778948 0.518989 0.832131
O O10 0.096192 0.787770 0.892578
O O11 0.184705 0.803842 0.033077
O O12 0.000000 0.671132 0.000000
O O13 0.933002 0.048905 0.375541
O O14 0.000000 0.000000 0.500000
O O15 0.778536 0.931640 0.750000
#
# Coordination Sequence:
#
# PCOD9587022 Si02
#       7
#    12  12   6  12   4  12  12
#     4   9  20  38  62  87 123 166 207 266 327 398
#     4  10  21  39  66  90 122 169 223 270 329 399
#     4  10  22  36  60 100 130 154 212 268 340 402
#     4  11  24  41  64  98 131 173 226 273 337 405
#     4  12  28  44  73  99 142 188 226 286 347 406
#     4  11  25  45  66  98 135 174 230 280 336 406
#     4  11  20  40  63  91 132 167 213 270 343 404
#
# _framework density 19.957787
#
# number of rings (size 3 to 8) (size 9 to 14) (size 15 to 20)
#    0.171    1.371    2.571    2.057    4.800    0.686 
#    2.571    0.000    0.000    0.000    0.000    0.000 
#    0.000    0.000    0.000    0.000    0.000    0.000 
#
# Total GULP energy -389822.349911 kJ/mol
# GULP energy per Si atom -5568.890713 kJ/mol
# Density = 1.991236 g / cm^3
# Si number density = 19.957787 Si / 1000 Ang^3
#
#
#
# Elastic Constant Matrix: (Units=GPa)
#
#
# Indices 1 2 3 4 5 6 
#
# 1 71.2018 11.1867 47.4874 0.0000 0.0000 0.0000
# 2 11.1867 71.2018 47.4874 0.0000 0.0000 0.0000
# 3 47.4874 47.4874 202.1267 0.0000 0.0000 0.0000
# 4 0.0000 0.0000 0.0000 33.3355 0.0000 0.0000
# 5 0.0000 0.0000 0.0000 0.0000 33.3355 0.0000
# 6 0.0000 0.0000 0.0000 0.0000 0.0000 30.0076
#
#
#
# Elastic Compliance Matrix: (Units=1/GPa)
#
#
# Indices 1 2 3 4 5 6 
#
# 1 0.016654 -0.000008 -0.003911 0.000000 0.000000 0.000000
# 2 -0.000008 0.016654 -0.003911 0.000000 0.000000 0.000000
# 3 -0.003911 -0.003911 0.006785 0.000000 0.000000 0.000000
# 4 0.000000 0.000000 0.000000 0.029998 0.000000 0.000000
# 5 0.000000 0.000000 0.000000 0.000000 0.029998 0.000000
# 6 0.000000 0.000000 0.000000 0.000000 0.000000 0.033325
#
#
# Mechanical properties :
#
#
# Convention : Reuss Voigt Hill
#
# Bulk Modulus (GPa) = 40.92724 61.87257 51.39990
# Shear Modulus (GPa) = 31.80288 35.22696 33.51492
#
# Velocity S-wave (km/s) = 3.99621 4.20584 4.10236
# Velocity P-wave (km/s) = 6.46872 7.39286 6.94618
#
# Compressibility (1/GPa) = 0.02443360
#
# Stress axis : x y z
#
# Youngs Moduli (GPa) = 60.04513 60.04513 147.38468
#
# Poissons Ratio (x) = 0.00050 0.57638
# Poissons Ratio (y) = 0.00050 0.57638
# Poissons Ratio (z) = 0.23482 0.23482
#
# Static dielectric constant tensor:
#      x y z
#    x 1.749410 0.000000 0.000000 
#    y 0.000000 1.749410 0.000000 
#    z 0.000000 0.000000 1.713690 
# 
# From -- ./inp_files/3815.got.cif
#   From: 2010.05.17/outbox.ucp.g08.bks.cvg/sg190_2_cif.got.tgz:3815.got - 2010.06.11 15:22:26.
