data_PCOD9587161
_publ_section_title
;
Structure prediction by ZEFSAII (Michael W. Deem and Ramdas Pophale) SiO2 
 PCOD9587161
Probable space group: P 6/M M M
;
_chemical_formula_sum "Si O2"
_cell_formula_units_Z 192
_cell_length_a 22.417316
_cell_length_b 22.417316
_cell_length_c 29.009366
_cell_angle_alpha 90.000000
_cell_angle_beta 90.000000
_cell_angle_gamma 120.000000
_cell_volume 12625.136917
_symmetry_space_group_name_H-M "P 6/M M M"
_symmetry_group_IT_number 191
_symmetry_cell_setting 'hexagonal'
loop_
_space_group_symop_operation_xyz
x,y,z
x-y,x,z
-y,x-y,z
-x,-y,z
-x+y,-x,z
y,-x+y,z
x-y,-y,-z
-x,-x+y,-z
y,x,-z
-y,-x,-z
-x+y,y,-z
x,x-y,-z
-x,-y,-z
-x+y,-x,-z
y,-x+y,-z
x,y,-z
x-y,x,-z
-y,x-y,-z
-x+y,y,z
x,x-y,z
-y,-x,z
y,x,z
x-y,-y,z
-x,-x+y,z
loop_
_atom_site_type_symbol
_atom_site_label
_atom_site_fract_x
_atom_site_fract_y
_atom_site_fract_z
Si Si1 0.279082 0.856860 0.369454
Si Si2 0.917202 0.390964 0.447200
Si Si3 0.565687 0.851566 0.139176
Si Si4 0.467808 0.077679 0.218000
Si Si5 0.299470 0.079962 0.296769
Si Si6 0.920814 0.213551 0.810412
Si Si7 0.333548 0.526863 0.946377
Si Si8 0.805020 0.473378 0.710155
O O1 0.205029 0.794972 0.384864
O O2 0.328730 0.893970 0.411946
O O3 0.262865 0.902262 0.333308
O O4 0.315592 0.823050 0.339940
O O5 0.894307 0.368849 0.500000
O O6 0.894815 0.447408 0.433900
O O7 0.000000 0.433096 0.447301
O O8 0.546659 0.773330 0.151196
O O9 0.532168 0.883849 0.171839
O O10 0.646122 0.896919 0.152430
O O11 0.537432 0.847966 0.087830
O O12 0.535883 0.071765 0.219131
O O13 0.477528 0.129234 0.258912
O O14 0.403737 0.000000 0.221212
O O15 0.278744 0.139372 0.303719
O O16 0.321029 0.087230 0.242430
O O17 0.240944 0.000000 0.302746
O O18 0.867436 0.132565 0.814014
O O19 0.000000 0.237143 0.816742
O O20 0.273342 0.546684 0.942707
O O21 0.407051 0.592950 0.933937
O O22 0.336315 0.509799 0.000000
O O23 0.736618 0.473235 0.726680
O O24 0.794743 0.397372 0.710966
#
# Coordination Sequence:
#
# PCOD9587161 Si02
#       8
#    24  24  24  24  24  24  24  24
#     4  10  19  29  44  66  89 114 144 177 216 263
#     4   9  18  32  48  64  82 107 141 180 220 260
#     4  10  18  28  44  64  86 113 145 179 216 259
#     4  10  20  31  43  61  85 113 145 180 217 257
#     4   9  17  29  46  69  96 124 153 185 221 262
#     4   9  17  29  46  67  90 116 144 174 209 252
#     4   9  17  29  45  64  86 114 150 191 230 264
#     4  10  20  33  47  64  87 114 144 178 218 263
#
# _framework density 15.207755000000001
#
# number of rings (size 3 to 8) (size 9 to 14) (size 15 to 20)
#    0.000    2.500    0.000    3.250    0.000    4.750 
#    0.000    1.250    0.000    6.000    0.000    6.125 
#    0.000    0.000    0.000    0.000    0.000    0.000 
#
# Total GULP energy -1068926.153233 kJ/mol
# GULP energy per Si atom -5567.323715 kJ/mol
# Density = 1.517314 g / cm^3
# Si number density = 15.207755 Si / 1000 Ang^3
#
#
#
# Elastic Constant Matrix: (Units=GPa)
#
#
# Indices 1 2 3 4 5 6 
#
# 1 85.5194 52.1371 48.2335 0.0000 0.0000 0.0000
# 2 52.1371 85.5194 48.2335 0.0000 0.0000 0.0000
# 3 48.2335 48.2335 72.9188 0.0000 0.0000 0.0000
# 4 0.0000 0.0000 0.0000 20.4192 0.0000 0.0000
# 5 0.0000 0.0000 0.0000 0.0000 20.4192 0.0000
# 6 0.0000 0.0000 0.0000 0.0000 0.0000 16.6912
#
#
#
# Elastic Compliance Matrix: (Units=1/GPa)
#
#
# Indices 1 2 3 4 5 6 
#
# 1 0.021749 -0.008207 -0.008957 0.000000 0.000000 0.000000
# 2 -0.008207 0.021749 -0.008957 0.000000 0.000000 0.000000
# 3 -0.008957 -0.008957 0.025564 0.000000 0.000000 0.000000
# 4 0.000000 0.000000 0.000000 0.048973 0.000000 0.000000
# 5 0.000000 0.000000 0.000000 0.000000 0.048973 0.000000
# 6 0.000000 0.000000 0.000000 0.000000 0.000000 0.059912
#
#
# Mechanical properties :
#
#
# Convention : Reuss Voigt Hill
#
# Bulk Modulus (GPa) = 59.46110 60.12950 59.79530
# Shear Modulus (GPa) = 17.55804 17.86283 17.71043
#
# Velocity S-wave (km/s) = 3.40155 3.43094 3.41628
# Velocity P-wave (km/s) = 7.38995 7.43772 7.41388
#
# Compressibility (1/GPa) = 0.01681772
#
# Stress axis : x y z
#
# Youngs Moduli (GPa) = 45.97960 45.97960 39.11773
#
# Poissons Ratio (x) = 0.37736 0.35039
# Poissons Ratio (y) = 0.37736 0.35039
# Poissons Ratio (z) = 0.41185 0.41185
#
# Static dielectric constant tensor:
#      x y z
#    x 1.511220 0.000000 0.000000 
#    y 0.000000 1.511220 0.000000 
#    z 0.000000 0.000000 1.504840 
# 
# From -- ./inp_files/10167.got.cif
#   From: 2010.05.17/outbox.cif.g08.bks.cpg/sg191_6_cif.got.tgz:10167.got - 2010.05.20 12:20:32.
