data_PCOD9587349
_publ_section_title
;
Structure prediction by ZEFSAII (Michael W. Deem and Ramdas Pophale) SiO2 
 PCOD9587349
Probable space group: P 6/M M M
;
_chemical_formula_sum "Si O2"
_cell_formula_units_Z 108
_cell_length_a 32.551500
_cell_length_b 32.551500
_cell_length_c 9.090809
_cell_angle_alpha 90.000000
_cell_angle_beta 90.000000
_cell_angle_gamma 120.000000
_cell_volume 8342.095877
_symmetry_space_group_name_H-M "P 6/M M M"
_symmetry_group_IT_number 191
_symmetry_cell_setting 'hexagonal'
loop_
_space_group_symop_operation_xyz
x,y,z
x-y,x,z
-y,x-y,z
-x,-y,z
-x+y,-x,z
y,-x+y,z
x-y,-y,-z
-x,-x+y,-z
y,x,-z
-y,-x,-z
-x+y,y,-z
x,x-y,-z
-x,-y,-z
-x+y,-x,-z
y,-x+y,-z
x,y,-z
x-y,x,-z
-y,x-y,-z
-x+y,y,z
x,x-y,z
-y,-x,z
y,x,z
x-y,-y,z
-x,-x+y,z
loop_
_atom_site_type_symbol
_atom_site_label
_atom_site_fract_x
_atom_site_fract_y
_atom_site_fract_z
Si Si1 0.471070 0.942140 0.670050
Si Si2 0.946625 0.801707 0.178972
Si Si3 0.057610 0.612039 0.830984
Si Si4 0.798064 0.107195 0.176802
Si Si5 0.303566 0.944072 0.675919
O O1 0.463850 0.927699 0.500000
O O2 0.504697 0.926467 0.751791
O O3 0.500000 0.000000 0.672397
O O4 0.907725 0.815449 0.228614
O O5 0.926055 0.746500 0.215891
O O6 0.000000 0.834347 0.232653
O O7 0.947519 0.803692 0.000000
O O8 0.070158 0.659646 0.744157
O O9 0.000000 0.581872 0.831949
O O10 0.073481 0.621621 0.000000
O O11 0.839040 0.160961 0.211870
O O12 0.748416 0.087698 0.257310
O O13 0.791087 0.104301 0.000000
O O14 0.302997 0.940359 0.500000
O O15 0.324404 0.000000 0.713198
#
# Coordination Sequence:
#
# PCOD9587349 Si02
#       5
#    12  24  24  24  24
#     4   9  15  23  35  51  73  97 121 153 189 219
#     4   8  13  21  34  51  68  86 110 141 177 218
#     4   9  16  25  37  52  70  95 126 156 184 214
#     4   9  17  28  41  55  69  89 120 155 189 227
#     4  10  19  28  38  54  75  97 121 151 190 231
#
# _framework density 12.946387
#
# number of rings (size 3 to 8) (size 9 to 14) (size 15 to 20)
#    0.000    3.000    0.000    3.667    0.000    6.667 
#    0.000    0.000    0.000    0.222    0.000    1.556 
#    0.000    0.000    0.000    0.000    0.000    0.000 
#
# Total GULP energy -601347.701858 kJ/mol
# GULP energy per Si atom -5568.034276 kJ/mol
# Density = 1.291692 g / cm^3
# Si number density = 12.946387 Si / 1000 Ang^3
#
#
#
# Elastic Constant Matrix: (Units=GPa)
#
#
# Indices 1 2 3 4 5 6 
#
# 1 98.0846 55.8373 44.3086 0.0000 0.0000 0.0000
# 2 55.8373 98.0846 44.3086 0.0000 0.0000 0.0000
# 3 44.3086 44.3086 58.7187 0.0000 0.0000 0.0000
# 4 0.0000 0.0000 0.0000 12.7670 0.0000 0.0000
# 5 0.0000 0.0000 0.0000 0.0000 12.7670 0.0000
# 6 0.0000 0.0000 0.0000 0.0000 0.0000 21.1236
#
#
#
# Elastic Compliance Matrix: (Units=1/GPa)
#
#
# Indices 1 2 3 4 5 6 
#
# 1 0.017579 -0.006091 -0.008668 0.000000 0.000000 0.000000
# 2 -0.006091 0.017579 -0.008668 0.000000 0.000000 0.000000
# 3 -0.008668 -0.008668 0.030112 0.000000 0.000000 0.000000
# 4 0.000000 0.000000 0.000000 0.078327 0.000000 0.000000
# 5 0.000000 0.000000 0.000000 0.000000 0.078327 0.000000
# 6 0.000000 0.000000 0.000000 0.000000 0.000000 0.047340
#
#
# Mechanical properties :
#
#
# Convention : Reuss Voigt Hill
#
# Bulk Modulus (GPa) = 54.30645 60.42186 57.36415
# Shear Modulus (GPa) = 15.51553 16.69375 16.10464
#
# Velocity S-wave (km/s) = 3.46561 3.59479 3.53079
# Velocity P-wave (km/s) = 7.61920 8.00014 7.81199
#
# Compressibility (1/GPa) = 0.01841402
#
# Stress axis : x y z
#
# Youngs Moduli (GPa) = 56.88679 56.88679 33.20905
#
# Poissons Ratio (x) = 0.34652 0.28786
# Poissons Ratio (y) = 0.34652 0.28786
# Poissons Ratio (z) = 0.49311 0.49311
#
# Static dielectric constant tensor:
#      x y z
#    x 1.408520 0.000000 0.000000 
#    y 0.000000 1.408520 0.000000 
#    z 0.000000 0.000000 1.429780 
# 
# From -- ./inp_files/1724.got.cif
#   From: 2010.05.17/outbox.cif.g08.bks.cpg/sg191_1_cif.got.tgz:1724.got - 2010.05.20 12:20:32.
