data_PCOD9587271
_publ_section_title
;
Structure prediction by ZEFSAII (Michael W. Deem and Ramdas Pophale) SiO2 
 PCOD9587271
Probable space group: P 6/M M M
;
_chemical_formula_sum "Si O2"
_cell_formula_units_Z 132
_cell_length_a 27.785746
_cell_length_b 27.785746
_cell_length_c 14.694143
_cell_angle_alpha 90.000000
_cell_angle_beta 90.000000
_cell_angle_gamma 120.000000
_cell_volume 9824.693630
_symmetry_space_group_name_H-M "P 6/M M M"
_symmetry_group_IT_number 191
_symmetry_cell_setting 'hexagonal'
loop_
_space_group_symop_operation_xyz
x,y,z
x-y,x,z
-y,x-y,z
-x,-y,z
-x+y,-x,z
y,-x+y,z
x-y,-y,-z
-x,-x+y,-z
y,x,-z
-y,-x,-z
-x+y,y,-z
x,x-y,-z
-x,-y,-z
-x+y,-x,-z
y,-x+y,-z
x,y,-z
x-y,x,-z
-y,x-y,-z
-x+y,y,z
x,x-y,z
-y,-x,z
y,x,z
x-y,-y,z
-x,-x+y,z
loop_
_atom_site_type_symbol
_atom_site_label
_atom_site_fract_x
_atom_site_fract_y
_atom_site_fract_z
Si Si1 0.216079 0.000000 0.391254
Si Si2 0.158068 0.158068 0.101651
Si Si3 0.199535 0.912323 0.900886
Si Si4 0.101604 0.320467 0.704061
Si Si5 0.000000 0.112187 0.704919
Si Si6 0.275061 0.841820 0.604610
Si Si7 0.777617 0.443695 0.389123
O O1 0.271338 0.054407 0.355632
O O2 0.212558 0.000000 0.500000
O O3 0.163537 0.000000 0.345094
O O4 0.168230 0.220416 0.108627
O O5 0.122805 0.122805 0.186469
O O6 0.136389 0.136389 0.000000
O O7 0.151786 0.848215 0.904178
O O8 0.232145 0.919512 0.808173
O O9 0.228216 0.927464 0.000000
O O10 0.157640 0.315280 0.701724
O O11 0.118025 0.380472 0.664435
O O12 0.055220 0.110439 0.681505
O O13 0.287304 0.861708 0.500000
O O14 0.217365 0.782636 0.602693
O O15 0.320150 0.825507 0.638267
O O16 0.777761 0.444203 0.500000
O O17 0.717647 0.435293 0.361453
O O18 0.784814 0.392407 0.359184
#
# Coordination Sequence:
#
# PCOD9587271 Si02
#       7
#    12  12  24  24  12  24  24
#     4  12  24  35  49  65  77  97 133 167 198 239
#     4  10  18  31  51  69  84  99 118 149 191 243
#     4   9  16  26  42  63  81  96 116 145 188 242
#     4  10  18  30  45  61  81 101 123 159 204 243
#     4  12  25  40  52  64  80 101 129 162 200 242
#     4   8  14  23  35  53  79 110 139 166 199 235
#     4   8  12  18  30  51  80 114 149 179 203 228
#
# _framework density 13.435534000000001
#
# number of rings (size 3 to 8) (size 9 to 14) (size 15 to 20)
#    0.000    2.545    1.818    3.000    0.000    4.000 
#    0.000    0.000    0.000    1.091    0.000    0.636 
#    0.000    4.364    0.000    0.545    0.000   16.727 
#
# Total GULP energy -734882.686159 kJ/mol
# GULP energy per Si atom -5567.293077 kJ/mol
# Density = 1.340495 g / cm^3
# Si number density = 13.435534 Si / 1000 Ang^3
#
#
#
# Elastic Constant Matrix: (Units=GPa)
#
#
# Indices 1 2 3 4 5 6 
#
# 1 70.3219 45.3019 33.0614 0.0000 0.0000 0.0000
# 2 45.3019 70.3219 33.0614 0.0000 0.0000 0.0000
# 3 33.0614 33.0614 79.0529 0.0000 0.0000 0.0000
# 4 0.0000 0.0000 0.0000 10.2780 0.0000 0.0000
# 5 0.0000 0.0000 0.0000 0.0000 10.2780 0.0000
# 6 0.0000 0.0000 0.0000 0.0000 0.0000 12.5100
#
#
#
# Elastic Compliance Matrix: (Units=1/GPa)
#
#
# Indices 1 2 3 4 5 6 
#
# 1 0.025668 -0.014300 -0.004754 0.000000 0.000000 0.000000
# 2 -0.014300 0.025668 -0.004754 0.000000 0.000000 0.000000
# 3 -0.004754 -0.004754 0.016626 0.000000 0.000000 0.000000
# 4 0.000000 0.000000 0.000000 0.097295 0.000000 0.000000
# 5 0.000000 0.000000 0.000000 0.000000 0.097295 0.000000
# 6 0.000000 0.000000 0.000000 0.000000 0.000000 0.079936
#
#
# Mechanical properties :
#
#
# Convention : Reuss Voigt Hill
#
# Bulk Modulus (GPa) = 49.15243 49.17178 49.16210
# Shear Modulus (GPa) = 12.59808 13.83136 13.21472
#
# Velocity S-wave (km/s) = 3.06546 3.21200 3.13959
# Velocity P-wave (km/s) = 7.01375 7.10167 7.05785
#
# Compressibility (1/GPa) = 0.02034487
#
# Stress axis : x y z
#
# Youngs Moduli (GPa) = 38.95943 38.95943 60.14584
#
# Poissons Ratio (x) = 0.55713 0.28594
# Poissons Ratio (y) = 0.55713 0.28594
# Poissons Ratio (z) = 0.18522 0.18522
#
# Static dielectric constant tensor:
#      x y z
#    x 1.442200 0.000000 0.000000 
#    y 0.000000 1.442200 0.000000 
#    z 0.000000 0.000000 1.459820 
# 
# From -- ./inp_files/5199.got.cif
#   From: 2010.05.17/outbox.cif.g08.bks.cpg/sg191_3_cif.got.tgz:5199.got - 2010.05.20 12:20:32.
