data_PCOD9587202
_publ_section_title
;
Structure prediction by ZEFSAII (Michael W. Deem and Ramdas Pophale) SiO2 
 PCOD9587202
Probable space group: P 6/M M M
;
_chemical_formula_sum "Si O2"
_cell_formula_units_Z 180
_cell_length_a 22.537723
_cell_length_b 22.537723
_cell_length_c 28.331820
_cell_angle_alpha 90.000000
_cell_angle_beta 90.000000
_cell_angle_gamma 120.000000
_cell_volume 12463.074165
_symmetry_space_group_name_H-M "P 6/M M M"
_symmetry_group_IT_number 191
_symmetry_cell_setting 'hexagonal'
loop_
_space_group_symop_operation_xyz
x,y,z
x-y,x,z
-y,x-y,z
-x,-y,z
-x+y,-x,z
y,-x+y,z
x-y,-y,-z
-x,-x+y,-z
y,x,-z
-y,-x,-z
-x+y,y,-z
x,x-y,-z
-x,-y,-z
-x+y,-x,-z
y,-x+y,-z
x,y,-z
x-y,x,-z
-y,x-y,-z
-x+y,y,z
x,x-y,z
-y,-x,z
y,x,z
x-y,-y,z
-x,-x+y,z
loop_
_atom_site_type_symbol
_atom_site_label
_atom_site_fract_x
_atom_site_fract_y
_atom_site_fract_z
Si Si1 0.287781 0.437601 0.671979
Si Si2 0.208329 0.285753 0.712562
Si Si3 0.919452 0.530935 0.053358
Si Si4 0.525470 0.333584 0.233777
Si Si5 0.530912 0.919480 0.415186
Si Si6 0.149864 0.709363 0.859793
Si Si7 0.287487 0.076835 0.174117
Si Si8 0.477390 0.665833 0.500000
O O1 0.225945 0.451889 0.657734
O O2 0.251434 0.358673 0.687661
O O3 0.323106 0.482529 0.718585
O O4 0.342080 0.451369 0.631292
O O5 0.129086 0.258172 0.702193
O O6 0.235365 0.235365 0.698616
O O7 0.217584 0.297392 0.769095
O O8 0.913266 0.456633 0.055702
O O9 0.875399 0.537909 0.094369
O O10 0.000000 0.585438 0.059996
O O11 0.900045 0.539674 0.000000
O O12 0.537372 0.268686 0.231396
O O13 0.596262 0.403739 0.235103
O O14 0.482652 0.329199 0.187116
O O15 0.459670 0.919340 0.408663
O O16 0.515071 0.862726 0.455778
O O17 0.587389 0.000000 0.425486
O O18 0.225306 0.774694 0.866542
O O19 0.100012 0.739493 0.849010
O O20 0.266899 0.133450 0.161809
O O21 0.232747 0.000000 0.161035
O O22 0.397676 0.602325 0.500000
O O23 0.480405 0.740203 0.500000
#
# Coordination Sequence:
#
# PCOD9587202 Si02
#       8
#    24  24  24  24  24  24  24  12
#     4  10  18  30  46  65  90 119 151 185 218 258
#     4   9  16  27  43  62  86 114 143 174 209 251
#     4   9  18  32  47  62  82 109 142 181 224 267
#     4  10  19  30  43  61  87 118 150 184 222 263
#     4  10  20  33  48  67  92 119 147 183 228 271
#     4  10  18  29  45  65  87 112 144 181 220 264
#     4   9  16  27  43  63  86 112 140 172 209 252
#     4  10  20  35  53  71  88 113 150 190 227 266
#
# _framework density 14.442665
#
# number of rings (size 3 to 8) (size 9 to 14) (size 15 to 20)
#    0.000    2.400    1.333    2.800    0.000    1.067 
#    0.000    0.000    0.000    8.000    0.000    1.867 
#    0.000    0.000    0.000    0.000    0.000    0.000 
#
# Total GULP energy -1002667.535742 kJ/mol
# GULP energy per Si atom -5570.375199 kJ/mol
# Density = 1.440979 g / cm^3
# Si number density = 14.442665 Si / 1000 Ang^3
#
#
#
# Elastic Constant Matrix: (Units=GPa)
#
#
# Indices 1 2 3 4 5 6 
#
# 1 86.5081 56.2481 53.8957 0.0000 0.0000 0.0000
# 2 56.2481 86.5081 53.8957 0.0000 0.0000 0.0000
# 3 53.8957 53.8957 84.0581 0.0000 0.0000 0.0000
# 4 0.0000 0.0000 0.0000 20.4753 0.0000 0.0000
# 5 0.0000 0.0000 0.0000 0.0000 20.4753 0.0000
# 6 0.0000 0.0000 0.0000 0.0000 0.0000 15.1300
#
#
#
# Elastic Compliance Matrix: (Units=1/GPa)
#
#
# Indices 1 2 3 4 5 6 
#
# 1 0.023313 -0.009734 -0.008706 0.000000 0.000000 0.000000
# 2 -0.009734 0.023313 -0.008706 0.000000 0.000000 0.000000
# 3 -0.008706 -0.008706 0.023061 0.000000 0.000000 0.000000
# 4 0.000000 0.000000 0.000000 0.048839 0.000000 0.000000
# 5 0.000000 0.000000 0.000000 0.000000 0.048839 0.000000
# 6 0.000000 0.000000 0.000000 0.000000 0.000000 0.066094
#
#
# Mechanical properties :
#
#
# Convention : Reuss Voigt Hill
#
# Bulk Modulus (GPa) = 64.96323 65.01702 64.99013
# Shear Modulus (GPa) = 17.07161 17.41846 17.24503
#
# Velocity S-wave (km/s) = 3.44179 3.47658 3.45923
# Velocity P-wave (km/s) = 7.80207 7.82499 7.81354
#
# Compressibility (1/GPa) = 0.01539332
#
# Stress axis : x y z
#
# Youngs Moduli (GPa) = 42.89473 42.89473 43.36289
#
# Poissons Ratio (x) = 0.41753 0.37754
# Poissons Ratio (y) = 0.41753 0.37754
# Poissons Ratio (z) = 0.37346 0.37346
#
# Static dielectric constant tensor:
#      x y z
#    x 1.467340 0.000000 0.000000 
#    y 0.000000 1.467340 0.000000 
#    z 0.000000 0.000000 1.470240 
# 
# From -- ./inp_files/10831.got.cif
#   From: 2010.05.17/outbox.cif.g08.bks.cpg/sg191_6_cif.got.tgz:10831.got - 2010.05.20 12:20:32.
