data_PCOD9587261
_publ_section_title
;
Structure prediction by ZEFSAII (Michael W. Deem and Ramdas Pophale) SiO2 
 PCOD9587261
Probable space group: P 6/M M M
;
_chemical_formula_sum "Si O2"
_cell_formula_units_Z 192
_cell_length_a 23.508477
_cell_length_b 23.508477
_cell_length_c 23.831939
_cell_angle_alpha 90.000000
_cell_angle_beta 90.000000
_cell_angle_gamma 120.000000
_cell_volume 11406.147901
_symmetry_space_group_name_H-M "P 6/M M M"
_symmetry_group_IT_number 191
_symmetry_cell_setting 'hexagonal'
loop_
_space_group_symop_operation_xyz
x,y,z
x-y,x,z
-y,x-y,z
-x,-y,z
-x+y,-x,z
y,-x+y,z
x-y,-y,-z
-x,-x+y,-z
y,x,-z
-y,-x,-z
-x+y,y,-z
x,x-y,-z
-x,-y,-z
-x+y,-x,-z
y,-x+y,-z
x,y,-z
x-y,x,-z
-y,x-y,-z
-x+y,y,z
x,x-y,z
-y,-x,z
y,x,z
x-y,-y,z
-x,-x+y,z
loop_
_atom_site_type_symbol
_atom_site_label
_atom_site_fract_x
_atom_site_fract_y
_atom_site_fract_z
Si Si1 0.771805 0.670184 0.273887
Si Si2 0.281111 0.855969 0.437122
Si Si3 0.523533 0.921206 0.868303
Si Si4 0.926472 0.205192 0.395854
Si Si5 0.919801 0.290023 0.936433
Si Si6 0.730000 0.926010 0.849774
Si Si7 0.802582 0.335368 0.657836
Si Si8 0.372415 0.924178 0.262979
O O1 0.819186 0.638371 0.276794
O O2 0.791916 0.716466 0.328008
O O3 0.785273 0.705733 0.214207
O O4 0.695990 0.617100 0.276226
O O5 0.308741 0.872773 0.500000
O O6 0.211925 0.788076 0.439490
O O7 0.259873 0.907851 0.415892
O O8 0.323724 0.839810 0.394472
O O9 0.447027 0.894054 0.877369
O O10 0.558273 0.895940 0.910853
O O11 0.537177 0.913486 0.803404
O O12 0.560476 0.000000 0.876764
O O13 0.866578 0.133423 0.413477
O O14 0.000000 0.226543 0.414472
O O15 0.901866 0.232965 0.891728
O O16 0.000000 0.331532 0.936993
O O17 0.897913 0.269007 0.000000
O O18 0.761054 0.880527 0.856061
O O19 0.779417 0.000000 0.863829
O O20 0.784298 0.392149 0.646869
O O21 0.735453 0.264548 0.669525
O O22 0.860295 0.364372 0.704963
O O23 0.430144 0.000000 0.275811
#
# Coordination Sequence:
#
# PCOD9587261 Si02
#       8
#    24  24  24  24  24  24  24  24
#     4  10  18  29  49  77 103 129 164 207 256 306
#     4   9  19  35  53  74  99 128 166 210 253 296
#     4   9  17  28  43  66  96 128 160 195 238 290
#     4  10  19  32  52  78 107 138 173 214 260 310
#     4   9  17  29  44  63  90 124 161 200 242 290
#     4  10  19  31  48  70  97 127 161 204 253 305
#     4  11  23  38  55  76 104 138 175 214 257 306
#     4  11  19  31  52  76 103 132 166 207 255 307
#
# _framework density 16.833027000000001
#
# number of rings (size 3 to 8) (size 9 to 14) (size 15 to 20)
#    0.000    2.125    2.500    2.000    0.000    1.750 
#    0.000    1.250    0.000    1.000    0.000    1.750 
#    0.000    3.000    0.000    6.250    0.000    1.875 
#
# Total GULP energy -1069081.929084 kJ/mol
# GULP energy per Si atom -5568.135047 kJ/mol
# Density = 1.679471 g / cm^3
# Si number density = 16.833027 Si / 1000 Ang^3
#
#
#
# Elastic Constant Matrix: (Units=GPa)
#
#
# Indices 1 2 3 4 5 6 
#
# 1 70.8000 35.9015 6.4631 0.0000 0.0000 0.0000
# 2 35.9015 70.8000 6.4631 0.0000 0.0000 0.0000
# 3 6.4631 6.4631 55.3582 0.0000 0.0000 0.0000
# 4 0.0000 0.0000 0.0000 5.4098 0.0000 0.0000
# 5 0.0000 0.0000 0.0000 0.0000 5.4098 0.0000
# 6 0.0000 0.0000 0.0000 0.0000 0.0000 17.4492
#
#
#
# Elastic Compliance Matrix: (Units=1/GPa)
#
#
# Indices 1 2 3 4 5 6 
#
# 1 0.019080 -0.009574 -0.001110 0.000000 0.000000 0.000000
# 2 -0.009574 0.019080 -0.001110 0.000000 0.000000 0.000000
# 3 -0.001110 -0.001110 0.018323 0.000000 0.000000 0.000000
# 4 0.000000 0.000000 0.000000 0.184848 0.000000 0.000000
# 5 0.000000 0.000000 0.000000 0.000000 0.184848 0.000000
# 6 0.000000 0.000000 0.000000 0.000000 0.000000 0.057309
#
#
# Mechanical properties :
#
#
# Convention : Reuss Voigt Hill
#
# Bulk Modulus (GPa) = 30.39829 32.73486 31.56658
# Shear Modulus (GPa) = 9.65170 15.52915 12.59043
#
# Velocity S-wave (km/s) = 2.39713 3.04063 2.73785
# Velocity P-wave (km/s) = 5.07539 5.64059 5.36544
#
# Compressibility (1/GPa) = 0.03289659
#
# Stress axis : x y z
#
# Youngs Moduli (GPa) = 52.40963 52.40963 54.57527
#
# Poissons Ratio (x) = 0.50177 0.06057
# Poissons Ratio (y) = 0.50177 0.06057
# Poissons Ratio (z) = 0.05817 0.05817
#
# Static dielectric constant tensor:
#      x y z
#    x 1.587020 0.000000 0.000000 
#    y 0.000000 1.587020 0.000000 
#    z 0.000000 0.000000 1.591430 
# 
# From -- ./inp_files/9373.got.cif
#   From: 2010.05.17/outbox.cif.g08.bks.cpg/sg191_5_cif.got.tgz:9373.got - 2010.05.20 12:20:32.
