data_PCOD9587643
_publ_section_title
;
Structure prediction by ZEFSAII (Michael W. Deem and Ramdas Pophale) SiO2 
 PCOD9587643
Probable space group: P 6/M M M
;
_chemical_formula_sum "Si O2"
_cell_formula_units_Z 192
_cell_length_a 23.589016
_cell_length_b 23.589016
_cell_length_c 21.420772
_cell_angle_alpha 90.000000
_cell_angle_beta 90.000000
_cell_angle_gamma 120.000000
_cell_volume 10322.512092
_symmetry_space_group_name_H-M "P 6/M M M"
_symmetry_group_IT_number 191
_symmetry_cell_setting 'hexagonal'
loop_
_space_group_symop_operation_xyz
x,y,z
x-y,x,z
-y,x-y,z
-x,-y,z
-x+y,-x,z
y,-x+y,z
x-y,-y,-z
-x,-x+y,-z
y,x,-z
-y,-x,-z
-x+y,y,-z
x,x-y,-z
-x,-y,-z
-x+y,-x,-z
y,-x+y,-z
x,y,-z
x-y,x,-z
-y,x-y,-z
-x+y,y,z
x,x-y,z
-y,-x,z
y,x,z
x-y,-y,z
-x,-x+y,z
loop_
_atom_site_type_symbol
_atom_site_label
_atom_site_fract_x
_atom_site_fract_y
_atom_site_fract_z
Si Si1 0.376625 0.928354 0.071750
Si Si2 0.072548 0.324814 0.797544
Si Si3 0.274567 0.200083 0.660967
Si Si4 0.471400 0.393113 0.359088
Si Si5 0.333356 0.791163 0.132255
Si Si6 0.264821 0.865995 0.570828
Si Si7 0.831238 0.295813 0.251909
Si Si8 0.228612 0.898846 0.931536
O O1 0.366065 0.863554 0.104263
O O2 0.304628 0.920695 0.070697
O O3 0.426931 0.000000 0.098873
O O4 0.395311 0.927914 0.000000
O O5 0.078890 0.291374 0.734705
O O6 0.128233 0.400065 0.791005
O O7 0.078181 0.295803 0.863933
O O8 0.000000 0.314843 0.795141
O O9 0.250721 0.125361 0.646358
O O10 0.224522 0.224522 0.645717
O O11 0.341025 0.242738 0.621579
O O12 0.543208 0.456793 0.365025
O O13 0.420611 0.420611 0.354561
O O14 0.450783 0.340001 0.414411
O O15 0.467522 0.349096 0.299628
O O16 0.382110 0.764220 0.120395
O O17 0.260691 0.739310 0.108832
O O18 0.326676 0.800924 0.205634
O O19 0.259062 0.885071 0.500000
O O20 0.211491 0.788510 0.575924
O O21 0.770345 0.229656 0.280408
O O22 0.179047 0.820954 0.931328
O O23 0.217451 0.921308 0.000000
#
# Coordination Sequence:
#
# PCOD9587643 Si02
#       8
#    24  24  24  24  24  24  24  24
#     4  10  21  36  54  76 100 128 165 214 276 337
#     4  11  20  31  52  81 112 144 183 230 284 339
#     4  10  20  34  55  83 115 150 189 233 279 331
#     4  11  23  37  55  83 117 149 182 223 279 344
#     4  11  24  40  58  77 100 134 175 223 274 329
#     4  10  21  38  60  85 114 151 193 234 278 329
#     4  11  21  36  57  78 103 139 184 230 279 330
#     4  10  19  31  49  75 108 145 183 221 269 335
#
# _framework density 18.600123
#
# number of rings (size 3 to 8) (size 9 to 14) (size 15 to 20)
#    0.000    1.500    2.500    3.500    0.000    3.750 
#    0.000    1.250    0.000    3.625    0.000    0.000 
#    0.000    0.000    0.000    3.125    0.000    0.000 
#
# Total GULP energy -1070371.116682 kJ/mol
# GULP energy per Si atom -5574.849566 kJ/mol
# Density = 1.855779 g / cm^3
# Si number density = 18.600123 Si / 1000 Ang^3
#
#
#
# Elastic Constant Matrix: (Units=GPa)
#
#
# Indices 1 2 3 4 5 6 
#
# 1 104.7513 61.0351 29.0135 0.0000 0.0000 0.0000
# 2 61.0351 104.7513 29.0135 0.0000 0.0000 0.0000
# 3 29.0135 29.0135 103.6891 0.0000 0.0000 0.0000
# 4 0.0000 0.0000 0.0000 12.5364 0.0000 0.0000
# 5 0.0000 0.0000 0.0000 0.0000 12.5364 0.0000
# 6 0.0000 0.0000 0.0000 0.0000 0.0000 21.8581
#
#
#
# Elastic Compliance Matrix: (Units=1/GPa)
#
#
# Indices 1 2 3 4 5 6 
#
# 1 0.014781 -0.008094 -0.001871 0.000000 0.000000 0.000000
# 2 -0.008094 0.014781 -0.001871 0.000000 0.000000 0.000000
# 3 -0.001871 -0.001871 0.010691 0.000000 0.000000 0.000000
# 4 0.000000 0.000000 0.000000 0.079767 0.000000 0.000000
# 5 0.000000 0.000000 0.000000 0.000000 0.079767 0.000000
# 6 0.000000 0.000000 0.000000 0.000000 0.000000 0.045750
#
#
# Mechanical properties :
#
#
# Convention : Reuss Voigt Hill
#
# Bulk Modulus (GPa) = 60.31129 61.25731 60.78430
# Shear Modulus (GPa) = 18.19926 22.32819 20.26373
#
# Velocity S-wave (km/s) = 3.13141 3.46848 3.30425
# Velocity P-wave (km/s) = 6.75055 7.00327 6.87807
#
# Compressibility (1/GPa) = 0.01658064
#
# Stress axis : x y z
#
# Youngs Moduli (GPa) = 67.65554 67.65554 93.53406
#
# Poissons Ratio (x) = 0.54761 0.17501
# Poissons Ratio (y) = 0.54761 0.17501
# Poissons Ratio (z) = 0.12659 0.12659
#
# Static dielectric constant tensor:
#      x y z
#    x 1.653330 0.000000 0.000000 
#    y 0.000000 1.653330 0.000000 
#    z 0.000000 0.000000 1.700580 
# 
# From -- ./inp_files/8155.got.cif
#   From: 2010.05.17/outbox.cif.g08.bks.cpg/sg191_5_cif.got.tgz:8155.got - 2010.05.20 12:20:32.
