data_PCOD9587123
_publ_section_title
;
Structure prediction by ZEFSAII (Michael W. Deem and Ramdas Pophale) SiO2 
 PCOD9587123
Probable space group: P 6/M M M
;
_chemical_formula_sum "Si O2"
_cell_formula_units_Z 96
_cell_length_a 27.994308
_cell_length_b 27.994308
_cell_length_c 7.537052
_cell_angle_alpha 90.000000
_cell_angle_beta 90.000000
_cell_angle_gamma 120.000000
_cell_volume 5115.305974
_symmetry_space_group_name_H-M "P 6/M M M"
_symmetry_group_IT_number 191
_symmetry_cell_setting 'hexagonal'
loop_
_space_group_symop_operation_xyz
x,y,z
x-y,x,z
-y,x-y,z
-x,-y,z
-x+y,-x,z
y,-x+y,z
x-y,-y,-z
-x,-x+y,-z
y,x,-z
-y,-x,-z
-x+y,y,-z
x,x-y,-z
-x,-y,-z
-x+y,-x,-z
y,-x+y,-z
x,y,-z
x-y,x,-z
-y,x-y,-z
-x+y,y,z
x,x-y,z
-y,-x,z
y,x,z
x-y,-y,z
-x,-x+y,z
loop_
_atom_site_type_symbol
_atom_site_label
_atom_site_fract_x
_atom_site_fract_y
_atom_site_fract_z
Si Si1 0.567796 0.135592 0.707847
Si Si2 0.337449 0.168725 0.715462
Si Si3 0.368280 0.736560 0.213434
Si Si4 0.459233 0.123384 0.707210
Si Si5 0.533473 0.766737 0.201746
Si Si6 0.062529 0.333296 0.282956
O O1 0.560215 0.120430 0.500000
O O2 0.601161 0.202321 0.714684
O O3 0.507426 0.114922 0.786471
O O4 0.341817 0.170909 0.500000
O O5 0.399782 0.199891 0.787007
O O6 0.312898 0.105366 0.768367
O O7 0.303511 0.696490 0.262836
O O8 0.370543 0.741086 0.000000
O O9 0.454215 0.109007 0.500000
O O10 0.480299 0.188782 0.717866
O O11 0.397024 0.089015 0.778841
O O12 0.513987 0.756994 0.000000
O O13 0.062091 0.334134 0.500000
O O14 0.000000 0.296215 0.223125
#
# Coordination Sequence:
#
# PCOD9587123 Si02
#       6
#    12  12  12  24  12  24
#     4  10  20  30  42  57  76 102 132 167 210 258
#     4   8  14  26  43  65  90 110 134 167 197 233
#     4   8  18  33  43  55  76  97 124 165 213 261
#     4   9  18  31  43  59  81 104 134 172 210 253
#     4  10  18  27  43  62  79 102 133 166 205 253
#     4   8  13  24  44  65  85 111 138 166 205 246
#
# _framework density 18.767205000000001
#
# number of rings (size 3 to 8) (size 9 to 14) (size 15 to 20)
#    0.250    3.000    0.000    2.625    1.750    1.500 
#    0.000    0.625    0.000   15.750    0.000    0.000 
#    0.000    9.000    0.000    0.375    0.000   12.000 
#
# Total GULP energy -534546.552551 kJ/mol
# GULP energy per Si atom -5568.193256 kJ/mol
# Density = 1.872449 g / cm^3
# Si number density = 18.767205 Si / 1000 Ang^3
#
#
#
# Elastic Constant Matrix: (Units=GPa)
#
#
# Indices 1 2 3 4 5 6 
#
# 1 104.9202 76.7443 1.5289 0.0000 0.0000 0.0000
# 2 76.7443 104.9202 1.5289 0.0000 0.0000 0.0000
# 3 1.5289 1.5289 45.5550 0.0000 0.0000 0.0000
# 4 0.0000 0.0000 0.0000 -34.9974 0.0000 0.0000
# 5 0.0000 0.0000 0.0000 0.0000 -34.9974 0.0000
# 6 0.0000 0.0000 0.0000 0.0000 0.0000 14.0879
#
#
#
# Elastic Compliance Matrix: (Units=1/GPa)
#
#
# Indices 1 2 3 4 5 6 
#
# 1 0.020500 -0.014992 -0.000185 0.000000 0.000000 0.000000
# 2 -0.014992 0.020500 -0.000185 0.000000 0.000000 0.000000
# 3 -0.000185 -0.000185 0.021964 0.000000 0.000000 0.000000
# 4 0.000000 0.000000 0.000000 -0.028574 0.000000 0.000000
# 5 0.000000 0.000000 0.000000 0.000000 -0.028574 0.000000
# 6 0.000000 0.000000 0.000000 0.000000 0.000000 0.070983
#
#
# Mechanical properties :
#
#
# Convention : Reuss Voigt Hill
#
# Bulk Modulus (GPa) = 31.01732 46.11104 38.56418
# Shear Modulus (GPa) = 42.27673 0.52486 21.40080
#
# Velocity S-wave (km/s) = 4.75140 0.52941 3.38054
# Velocity P-wave (km/s) = 6.83113 4.99971 5.98588
#
# Compressibility (1/GPa) = 0.03224005
#
# Stress axis : x y z
#
# Youngs Moduli (GPa) = 48.78149 48.78149 45.52924
#
# Poissons Ratio (x) = 0.73132 0.00842
# Poissons Ratio (y) = 0.73132 0.00842
# Poissons Ratio (z) = 0.00902 0.00902
#
# Static dielectric constant tensor:
#      x y z
#    x 1.675050 0.000000 0.000000 
#    y 0.000000 1.675050 0.000000 
#    z 0.000000 0.000000 1.691470 
# 
# From -- ./inp_files/1634.got.cif
#   From: 2010.05.17/outbox.cif.g08.bks.cpg/sg191_1_cif.got.tgz:1634.got - 2010.05.20 12:20:32.
