data_PCOD9587041
_publ_section_title
;
Structure prediction by ZEFSAII (Michael W. Deem and Ramdas Pophale) SiO2 
 PCOD9587041
Probable space group: P 6/M M M
;
_chemical_formula_sum "Si O2"
_cell_formula_units_Z 120
_cell_length_a 27.594052
_cell_length_b 27.594052
_cell_length_c 13.014765
_cell_angle_alpha 90.000000
_cell_angle_beta 90.000000
_cell_angle_gamma 120.000000
_cell_volume 8582.185930
_symmetry_space_group_name_H-M "P 6/M M M"
_symmetry_group_IT_number 191
_symmetry_cell_setting 'hexagonal'
loop_
_space_group_symop_operation_xyz
x,y,z
x-y,x,z
-y,x-y,z
-x,-y,z
-x+y,-x,z
y,-x+y,z
x-y,-y,-z
-x,-x+y,-z
y,x,-z
-y,-x,-z
-x+y,y,-z
x,x-y,-z
-x,-y,-z
-x+y,-x,-z
y,-x+y,-z
x,y,-z
x-y,x,-z
-y,x-y,-z
-x+y,y,z
x,x-y,z
-y,-x,z
y,x,z
x-y,-y,z
-x,-x+y,z
loop_
_atom_site_type_symbol
_atom_site_label
_atom_site_fract_x
_atom_site_fract_y
_atom_site_fract_z
Si Si1 0.175883 0.239183 0.807579
Si Si2 0.679032 0.782847 0.381190
Si Si3 0.932187 0.346083 0.000000
Si Si4 0.589309 0.067979 0.804095
Si Si5 0.343776 0.932613 0.618203
Si Si6 0.217521 0.321915 0.000000
O O1 0.110901 0.221802 0.812465
O O2 0.189886 0.189886 0.817569
O O3 0.200667 0.271891 0.700565
O O4 0.206462 0.283458 0.899637
O O5 0.695789 0.781722 0.500000
O O6 0.663067 0.831534 0.373407
O O7 0.627470 0.721707 0.357670
O O8 0.916157 0.369133 0.100060
O O9 0.906000 0.279775 0.000000
O O10 0.000000 0.374361 0.000000
O O11 0.543936 0.087871 0.812721
O O12 0.624087 0.084765 0.698834
O O13 0.553512 0.000000 0.804683
O O14 0.349973 0.919801 0.500000
O O15 0.371457 0.000000 0.626062
O O16 0.169502 0.339003 0.000000
#
# Coordination Sequence:
#
# PCOD9587041 Si02
#       6
#    24  24  12  24  24  12
#     4  10  19  30  44  61  82 107 136 172 212 254
#     4   9  17  28  42  61  84 109 137 170 208 248
#     4  10  17  26  42  59  78 106 135 161 191 228
#     4   9  17  27  38  54  76 103 135 165 189 215
#     4   9  16  25  38  55  76 105 137 165 194 230
#     4  10  20  31  44  64  86 108 134 165 204 247
#
# _framework density 13.982450999999999
#
# number of rings (size 3 to 8) (size 9 to 14) (size 15 to 20)
#    0.000    2.600    0.000    3.000    0.000    4.400 
#    0.000    2.000    0.000    0.200    0.000    0.000 
#    0.000    2.400    0.000   13.400    0.000   15.600 
#
# Total GULP energy -668703.157143 kJ/mol
# GULP energy per Si atom -5572.526310 kJ/mol
# Density = 1.395063 g / cm^3
# Si number density = 13.982451 Si / 1000 Ang^3
#
#
#
# Elastic Constant Matrix: (Units=GPa)
#
#
# Indices 1 2 3 4 5 6 
#
# 1 88.4898 42.7357 47.7284 0.0000 0.0000 0.0000
# 2 42.7357 88.4898 47.7284 0.0000 0.0000 0.0000
# 3 47.7284 47.7284 79.1526 0.0000 0.0000 0.0000
# 4 0.0000 0.0000 0.0000 6.2131 0.0000 0.0000
# 5 0.0000 0.0000 0.0000 0.0000 6.2131 0.0000
# 6 0.0000 0.0000 0.0000 0.0000 0.0000 22.8771
#
#
#
# Elastic Compliance Matrix: (Units=1/GPa)
#
#
# Indices 1 2 3 4 5 6 
#
# 1 0.017715 -0.004141 -0.008186 0.000000 0.000000 0.000000
# 2 -0.004141 0.017715 -0.008186 0.000000 0.000000 0.000000
# 3 -0.008186 -0.008186 0.022505 0.000000 0.000000 0.000000
# 4 0.000000 0.000000 0.000000 0.160951 0.000000 0.000000
# 5 0.000000 0.000000 0.000000 0.000000 0.160951 0.000000
# 6 0.000000 0.000000 0.000000 0.000000 0.000000 0.043712
#
#
# Mechanical properties :
#
#
# Convention : Reuss Voigt Hill
#
# Bulk Modulus (GPa) = 59.12605 59.16858 59.14731
# Shear Modulus (GPa) = 10.63352 14.92330 12.77841
#
# Velocity S-wave (km/s) = 2.76069 3.27048 3.02634
# Velocity P-wave (km/s) = 7.24842 7.52792 7.38949
#
# Compressibility (1/GPa) = 0.01691302
#
# Stress axis : x y z
#
# Youngs Moduli (GPa) = 56.44814 56.44814 44.43368
#
# Poissons Ratio (x) = 0.23373 0.36371
# Poissons Ratio (y) = 0.23373 0.36371
# Poissons Ratio (z) = 0.46206 0.46206
#
# Static dielectric constant tensor:
#      x y z
#    x 1.438640 0.000000 0.000000 
#    y 0.000000 1.438640 0.000000 
#    z 0.000000 0.000000 1.485640 
# 
# From -- ./inp_files/4764.got.cif
#   From: 2010.05.17/outbox.cif.g08.bks.cpg/sg191_3_cif.got.tgz:4764.got - 2010.05.20 12:20:32.
