data_PCOD9587815
_publ_section_title
;
Structure prediction by ZEFSAII (Michael W. Deem and Ramdas Pophale) SiO2 
 PCOD9587815
Probable space group: P 6/M M M
;
_chemical_formula_sum "Si O2"
_cell_formula_units_Z 96
_cell_length_a 22.157684
_cell_length_b 22.157684
_cell_length_c 15.431272
_cell_angle_alpha 90.000000
_cell_angle_beta 90.000000
_cell_angle_gamma 120.000000
_cell_volume 6561.166926
_symmetry_space_group_name_H-M "P 6/M M M"
_symmetry_group_IT_number 191
_symmetry_cell_setting 'hexagonal'
loop_
_space_group_symop_operation_xyz
x,y,z
x-y,x,z
-y,x-y,z
-x,-y,z
-x+y,-x,z
y,-x+y,z
x-y,-y,-z
-x,-x+y,-z
y,x,-z
-y,-x,-z
-x+y,y,-z
x,x-y,-z
-x,-y,-z
-x+y,-x,-z
y,-x+y,-z
x,y,-z
x-y,x,-z
-y,x-y,-z
-x+y,y,z
x,x-y,z
-y,-x,z
y,x,z
x-y,-y,z
-x,-x+y,z
loop_
_atom_site_type_symbol
_atom_site_label
_atom_site_fract_x
_atom_site_fract_y
_atom_site_fract_z
Si Si1 0.000000 0.139997 0.894318
Si Si2 0.138030 0.419993 0.100407
Si Si3 0.612880 0.079116 0.599122
Si Si4 0.721067 0.000000 0.105184
Si Si5 0.522469 0.189331 0.255081
O O1 0.069889 0.139778 0.867498
O O2 0.000000 0.209572 0.864884
O O3 0.000000 0.140554 0.000000
O O4 0.203565 0.407129 0.103148
O O5 0.156409 0.483304 0.164757
O O6 0.069129 0.350029 0.129596
O O7 0.129306 0.434748 0.000000
O O8 0.639089 0.094080 0.500000
O O9 0.539403 0.078805 0.599523
O O10 0.660304 0.136988 0.668131
O O11 0.592489 0.000000 0.621404
O O12 0.723723 0.000000 0.000000
O O13 0.598217 0.196433 0.256383
O O14 0.528214 0.264107 0.265250
#
# Coordination Sequence:
#
# PCOD9587815 Si02
#       5
#    12  24  24  12  24
#     4   9  15  22  35  57  84 112 141 175 218 268
#     4   9  18  31  44  61  86 115 151 191 226 264
#     4   8  15  29  48  68  89 113 140 170 209 261
#     4   9  16  27  43  59  78 110 149 189 229 261
#     4  10  20  32  47  66  89 116 147 185 229 274
#
# _framework density 14.631544
#
# number of rings (size 3 to 8) (size 9 to 14) (size 15 to 20)
#    0.000    3.000    0.000    1.875    1.750    4.500 
#    0.000    0.000    0.000    5.250    0.000    0.000 
#    0.000    0.000    0.000    0.000    0.000    0.000 
#
# Total GULP energy -534436.376292 kJ/mol
# GULP energy per Si atom -5567.045586 kJ/mol
# Density = 1.459824 g / cm^3
# Si number density = 14.631544 Si / 1000 Ang^3
#
#
#
# Elastic Constant Matrix: (Units=GPa)
#
#
# Indices 1 2 3 4 5 6 
#
# 1 78.6493 58.4887 48.8668 0.0000 0.0000 0.0000
# 2 58.4887 78.6493 48.8668 0.0000 0.0000 0.0000
# 3 48.8668 48.8668 73.4157 0.0000 0.0000 0.0000
# 4 0.0000 0.0000 0.0000 17.5497 0.0000 0.0000
# 5 0.0000 0.0000 0.0000 0.0000 17.5497 0.0000
# 6 0.0000 0.0000 0.0000 0.0000 0.0000 10.0803
#
#
#
# Elastic Compliance Matrix: (Units=1/GPa)
#
#
# Indices 1 2 3 4 5 6 
#
# 1 0.031737 -0.017865 -0.009234 0.000000 0.000000 0.000000
# 2 -0.017865 0.031737 -0.009234 0.000000 0.000000 0.000000
# 3 -0.009234 -0.009234 0.025913 0.000000 0.000000 0.000000
# 4 0.000000 0.000000 0.000000 0.056981 0.000000 0.000000
# 5 0.000000 0.000000 0.000000 0.000000 0.056981 0.000000
# 6 0.000000 0.000000 0.000000 0.000000 0.000000 0.099203
#
#
# Mechanical properties :
#
#
# Convention : Reuss Voigt Hill
#
# Bulk Modulus (GPa) = 59.79685 60.35097 60.07391
# Shear Modulus (GPa) = 13.13052 14.00206 13.56629
#
# Velocity S-wave (km/s) = 2.99893 3.09686 3.04829
# Velocity P-wave (km/s) = 7.27658 7.35691 7.31686
#
# Compressibility (1/GPa) = 0.01672329
#
# Stress axis : x y z
#
# Youngs Moduli (GPa) = 31.50883 31.50883 38.58997
#
# Poissons Ratio (x) = 0.56289 0.35633
# Poissons Ratio (y) = 0.56289 0.35633
# Poissons Ratio (z) = 0.29095 0.29095
#
# Static dielectric constant tensor:
#      x y z
#    x 1.475540 0.000000 0.000000 
#    y 0.000000 1.475540 0.000000 
#    z 0.000000 0.000000 1.478710 
# 
# From -- ./inp_files/5987.got.cif
#   From: 2010.05.17/outbox.cif.g08.bks.cpg/sg191_3_cif.got.tgz:5987.got - 2010.05.20 12:20:32.
