data_PCOD9587414
_publ_section_title
;
Structure prediction by ZEFSAII (Michael W. Deem and Ramdas Pophale) SiO2 
 PCOD9587414
Probable space group: P 6/M M M
;
_chemical_formula_sum "Si O2"
_cell_formula_units_Z 108
_cell_length_a 22.633842
_cell_length_b 22.633842
_cell_length_c 17.804540
_cell_angle_alpha 90.000000
_cell_angle_beta 90.000000
_cell_angle_gamma 120.000000
_cell_volume 7899.106134
_symmetry_space_group_name_H-M "P 6/M M M"
_symmetry_group_IT_number 191
_symmetry_cell_setting 'hexagonal'
loop_
_space_group_symop_operation_xyz
x,y,z
x-y,x,z
-y,x-y,z
-x,-y,z
-x+y,-x,z
y,-x+y,z
x-y,-y,-z
-x,-x+y,-z
y,x,-z
-y,-x,-z
-x+y,y,-z
x,x-y,-z
-x,-y,-z
-x+y,-x,-z
y,-x+y,-z
x,y,-z
x-y,x,-z
-y,x-y,-z
-x+y,y,z
x,x-y,z
-y,-x,z
y,x,z
x-y,-y,z
-x,-x+y,z
loop_
_atom_site_type_symbol
_atom_site_label
_atom_site_fract_x
_atom_site_fract_y
_atom_site_fract_z
Si Si1 0.527943 0.333032 0.087806
Si Si2 0.078310 0.156619 0.408889
Si Si3 0.158460 0.316920 0.408473
Si Si4 0.395552 0.313722 0.641725
Si Si5 0.391871 0.474711 0.500000
Si Si6 0.079969 0.609405 0.789439
O O1 0.521175 0.260588 0.106738
O O2 0.606531 0.393470 0.095501
O O3 0.484594 0.353649 0.141841
O O4 0.509600 0.331722 0.000000
O O5 0.118315 0.118315 0.382703
O O6 0.076465 0.152930 0.500000
O O7 0.118231 0.236461 0.390636
O O8 0.162103 0.324206 0.500000
O O9 0.233706 0.352398 0.373528
O O10 0.345965 0.345965 0.636929
O O11 0.449603 0.346673 0.574231
O O12 0.435480 0.339471 0.720070
O O13 0.435464 0.435464 0.500000
O O14 0.445816 0.554185 0.500000
O O15 0.087606 0.543803 0.767125
O O16 0.000000 0.577346 0.809482
#
# Coordination Sequence:
#
# PCOD9587414 Si02
#       6
#    24  12  12  24  12  24
#     4   9  17  29  46  67  90 115 142 172 208 252
#     4   9  17  28  43  60  82 111 145 181 220 265
#     4  11  20  29  42  63  87 113 145 185 227 263
#     4  10  19  30  43  61  86 112 142 179 219 260
#     4   9  16  27  44  60  77 104 139 176 214 252
#     4   9  18  31  46  65  87 111 142 180 218 257
#
# _framework density 13.672433
#
# number of rings (size 3 to 8) (size 9 to 14) (size 15 to 20)
#    0.000    2.556    1.111    1.667    1.556    5.333 
#    0.000    2.222    0.000    0.000    0.000    0.000 
#    7.778    0.000    0.000    0.000    0.000    0.000 
#
# Total GULP energy -601640.171438 kJ/mol
# GULP energy per Si atom -5570.742328 kJ/mol
# Density = 1.364131 g / cm^3
# Si number density = 13.672433 Si / 1000 Ang^3
#
#
#
# Elastic Constant Matrix: (Units=GPa)
#
#
# Indices 1 2 3 4 5 6 
#
# 1 104.3432 68.1335 60.2884 0.0000 0.0000 0.0000
# 2 68.1335 104.3432 60.2884 0.0000 0.0000 0.0000
# 3 60.2884 60.2884 82.6318 0.0000 0.0000 0.0000
# 4 0.0000 0.0000 0.0000 17.8726 0.0000 0.0000
# 5 0.0000 0.0000 0.0000 0.0000 17.8726 0.0000
# 6 0.0000 0.0000 0.0000 0.0000 0.0000 18.1048
#
#
#
# Elastic Compliance Matrix: (Units=1/GPa)
#
#
# Indices 1 2 3 4 5 6 
#
# 1 0.019725 -0.007892 -0.008634 0.000000 0.000000 0.000000
# 2 -0.007892 0.019725 -0.008634 0.000000 0.000000 0.000000
# 3 -0.008634 -0.008634 0.024701 0.000000 0.000000 0.000000
# 4 0.000000 0.000000 0.000000 0.055951 0.000000 0.000000
# 5 0.000000 0.000000 0.000000 0.000000 0.055951 0.000000
# 6 0.000000 0.000000 0.000000 0.000000 0.000000 0.055234
#
#
# Mechanical properties :
#
#
# Convention : Reuss Voigt Hill
#
# Bulk Modulus (GPa) = 72.29441 74.30431 73.29936
# Shear Modulus (GPa) = 17.46920 17.61054 17.53987
#
# Velocity S-wave (km/s) = 3.57836 3.59281 3.58559
# Velocity P-wave (km/s) = 8.37041 8.46612 8.41840
#
# Compressibility (1/GPa) = 0.01383233
#
# Stress axis : x y z
#
# Youngs Moduli (GPa) = 50.69608 50.69608 40.48480
#
# Poissons Ratio (x) = 0.40007 0.34955
# Poissons Ratio (y) = 0.40007 0.34955
# Poissons Ratio (z) = 0.43771 0.43771
#
# Static dielectric constant tensor:
#      x y z
#    x 1.438130 0.000000 0.000000 
#    y 0.000000 1.438130 0.000000 
#    z 0.000000 0.000000 1.430650 
# 
# From -- ./inp_files/6166.got.cif
#   From: 2010.05.17/outbox.cif.g08.bks.cpg/sg191_4_cif.got.tgz:6166.got - 2010.05.20 12:20:32.
