data_PCOD9587090
_publ_section_title
;
Structure prediction by ZEFSAII (Michael W. Deem and Ramdas Pophale) SiO2 
 PCOD9587090
Probable space group: P 6/M M M
;
_chemical_formula_sum "Si O2"
_cell_formula_units_Z 132
_cell_length_a 18.646034
_cell_length_b 18.646034
_cell_length_c 27.990836
_cell_angle_alpha 90.000000
_cell_angle_beta 90.000000
_cell_angle_gamma 120.000000
_cell_volume 8427.901379
_symmetry_space_group_name_H-M "P 6/M M M"
_symmetry_group_IT_number 191
_symmetry_cell_setting 'hexagonal'
loop_
_space_group_symop_operation_xyz
x,y,z
x-y,x,z
-y,x-y,z
-x,-y,z
-x+y,-x,z
y,-x+y,z
x-y,-y,-z
-x,-x+y,-z
y,x,-z
-y,-x,-z
-x+y,y,-z
x,x-y,-z
-x,-y,-z
-x+y,-x,-z
y,-x+y,-z
x,y,-z
x-y,x,-z
-y,x-y,-z
-x+y,y,z
x,x-y,z
-y,-x,z
y,x,z
x-y,-y,z
-x,-x+y,z
loop_
_atom_site_type_symbol
_atom_site_label
_atom_site_fract_x
_atom_site_fract_y
_atom_site_fract_z
Si Si1 0.741588 0.647041 0.057004
Si Si2 0.669029 0.499725 0.500000
Si Si3 0.355476 0.260251 0.792041
Si Si4 0.744506 0.095443 0.679701
Si Si5 0.631859 0.532443 0.600239
Si Si6 0.503107 0.667147 0.131167
O O1 0.836154 0.672307 0.069128
O O2 0.713664 0.713664 0.069451
O O3 0.684339 0.562568 0.085556
O O4 0.731824 0.633572 0.000000
O O5 0.575328 0.424673 0.500000
O O6 0.733921 0.467843 0.500000
O O7 0.678110 0.545993 0.549766
O O8 0.329414 0.164707 0.802279
O O9 0.287416 0.287416 0.802472
O O10 0.374656 0.274076 0.735515
O O11 0.436741 0.315571 0.823558
O O12 0.840957 0.159044 0.672283
O O13 0.692717 0.120953 0.644757
O O14 0.715302 0.000000 0.669614
O O15 0.564729 0.435272 0.606487
O O16 0.579643 0.579643 0.597453
O O17 0.479673 0.739837 0.131304
O O18 0.422391 0.577610 0.131310
#
# Coordination Sequence:
#
# PCOD9587090 Si02
#       6
#    24  12  24  24  24  24
#     4   9  18  32  49  69  93 121 152 186 225 267
#     4  10  18  27  39  55  78 107 139 173 209 250
#     4   9  18  31  47  67  90 116 145 179 219 261
#     4   9  17  30  47  66  88 114 145 179 216 259
#     4   9  17  28  42  60  82 109 140 175 215 256
#     4  10  20  33  48  67  92 121 152 185 222 262
#
# _framework density 15.662262999999999
#
# number of rings (size 3 to 8) (size 9 to 14) (size 15 to 20)
#    0.000    2.727    0.000    1.636    0.000    3.636 
#    0.000    2.727    0.000    2.000    0.000    3.818 
#    0.000    4.364    0.000    0.364    0.000   18.909 
#
# Total GULP energy -734951.850291 kJ/mol
# GULP energy per Si atom -5567.817048 kJ/mol
# Density = 1.562661 g / cm^3
# Si number density = 15.662263 Si / 1000 Ang^3
#
#
#
# Elastic Constant Matrix: (Units=GPa)
#
#
# Indices 1 2 3 4 5 6 
#
# 1 93.0832 68.9183 46.6088 0.0000 0.0000 0.0000
# 2 68.9183 93.0832 46.6088 0.0000 0.0000 0.0000
# 3 46.6088 46.6088 73.2845 0.0000 0.0000 0.0000
# 4 0.0000 0.0000 0.0000 20.1828 0.0000 0.0000
# 5 0.0000 0.0000 0.0000 0.0000 20.1828 0.0000
# 6 0.0000 0.0000 0.0000 0.0000 0.0000 12.0824
#
#
#
# Elastic Compliance Matrix: (Units=1/GPa)
#
#
# Indices 1 2 3 4 5 6 
#
# 1 0.025559 -0.015823 -0.006192 0.000000 0.000000 0.000000
# 2 -0.015823 0.025559 -0.006192 0.000000 0.000000 0.000000
# 3 -0.006192 -0.006192 0.021521 0.000000 0.000000 0.000000
# 4 0.000000 0.000000 0.000000 0.049547 0.000000 0.000000
# 5 0.000000 0.000000 0.000000 0.000000 0.049547 0.000000
# 6 0.000000 0.000000 0.000000 0.000000 0.000000 0.082765
#
#
# Mechanical properties :
#
#
# Convention : Reuss Voigt Hill
#
# Bulk Modulus (GPa) = 61.63200 64.85811 63.24505
# Shear Modulus (GPa) = 15.80674 16.97729 16.39201
#
# Velocity S-wave (km/s) = 3.18028 3.29593 3.23862
# Velocity P-wave (km/s) = 7.27472 7.48228 7.37923
#
# Compressibility (1/GPa) = 0.01622534
#
# Stress axis : x y z
#
# Youngs Moduli (GPa) = 39.12517 39.12517 46.46524
#
# Poissons Ratio (x) = 0.61909 0.28771
# Poissons Ratio (y) = 0.61909 0.28771
# Poissons Ratio (z) = 0.24226 0.24226
#
# Static dielectric constant tensor:
#      x y z
#    x 1.512540 0.000000 0.000000 
#    y 0.000000 1.512540 0.000000 
#    z 0.000000 0.000000 1.543660 
# 
# From -- ./inp_files/9706.got.cif
#   From: 2010.05.17/outbox.cif.g08.bks.cpg/sg191_5_cif.got.tgz:9706.got - 2010.05.20 12:20:32.
