data_PCOD9587880
_publ_section_title
;
Structure prediction by ZEFSAII (Michael W. Deem and Ramdas Pophale) SiO2 
 PCOD9587880
Probable space group: P 6/M M M
;
_chemical_formula_sum "Si O2"
_cell_formula_units_Z 132
_cell_length_a 17.872247
_cell_length_b 17.872247
_cell_length_c 28.768077
_cell_angle_alpha 90.000000
_cell_angle_beta 90.000000
_cell_angle_gamma 120.000000
_cell_volume 7957.923867
_symmetry_space_group_name_H-M "P 6/M M M"
_symmetry_group_IT_number 191
_symmetry_cell_setting 'hexagonal'
loop_
_space_group_symop_operation_xyz
x,y,z
x-y,x,z
-y,x-y,z
-x,-y,z
-x+y,-x,z
y,-x+y,z
x-y,-y,-z
-x,-x+y,-z
y,x,-z
-y,-x,-z
-x+y,y,-z
x,x-y,-z
-x,-y,-z
-x+y,-x,-z
y,-x+y,-z
x,y,-z
x-y,x,-z
-y,x-y,-z
-x+y,y,z
x,x-y,z
-y,-x,z
y,x,z
x-y,-y,z
-x,-x+y,z
loop_
_atom_site_type_symbol
_atom_site_label
_atom_site_fract_x
_atom_site_fract_y
_atom_site_fract_z
Si Si1 0.633698 0.901163 0.861255
Si Si2 0.098559 0.727066 0.500000
Si Si3 0.899318 0.270363 0.319200
Si Si4 0.157349 0.490757 0.053304
Si Si5 0.332565 0.842925 0.409250
Si Si6 0.895670 0.532293 0.772425
O O1 0.667793 0.833897 0.863055
O O2 0.582816 0.892627 0.908860
O O3 0.564976 0.872831 0.819189
O O4 0.705662 0.000000 0.853496
O O5 0.171898 0.828103 0.500000
O O6 0.115711 0.684730 0.545287
O O7 0.000000 0.704972 0.500000
O O8 0.831436 0.168565 0.323246
O O9 0.885098 0.316252 0.363800
O O10 0.874840 0.305809 0.273443
O O11 0.000000 0.298890 0.316069
O O12 0.257414 0.514828 0.056422
O O13 0.148688 0.574344 0.062814
O O14 0.129384 0.462945 0.000000
O O15 0.426574 0.853148 0.409486
O O16 0.257953 0.742048 0.409119
O O17 0.860536 0.430268 0.771195
O O18 0.000000 0.579054 0.772917
#
# Coordination Sequence:
#
# PCOD9587880 Si02
#       6
#    24  12  24  24  24  24
#     4  10  20  33  49  69  93 122 157 197 239 280
#     4  10  21  35  51  72  97 127 162 200 241 283
#     4  10  20  33  50  72  97 127 163 203 245 285
#     4   9  17  29  46  69  97 127 156 186 223 270
#     4  10  20  33  50  73 101 131 161 194 234 281
#     4   9  17  30  49  72  96 121 150 184 223 272
#
# _framework density 16.587242
#
# number of rings (size 3 to 8) (size 9 to 14) (size 15 to 20)
#    0.000    2.364    0.000    2.818    0.000    4.727 
#    0.000    1.818    0.000    5.545    0.000    0.000 
#    0.000    8.727    0.000    4.545    0.000    1.091 
#
# Total GULP energy -736246.854654 kJ/mol
# GULP energy per Si atom -5577.627687 kJ/mol
# Density = 1.654949 g / cm^3
# Si number density = 16.587242 Si / 1000 Ang^3
#
#
#
# Elastic Constant Matrix: (Units=GPa)
#
#
# Indices 1 2 3 4 5 6 
#
# 1 88.4972 71.6304 38.2444 0.0000 0.0000 0.0000
# 2 71.6304 88.4972 38.2444 0.0000 0.0000 0.0000
# 3 38.2444 38.2444 104.0879 0.0000 0.0000 0.0000
# 4 0.0000 0.0000 0.0000 19.2797 0.0000 0.0000
# 5 0.0000 0.0000 0.0000 0.0000 19.2797 0.0000
# 6 0.0000 0.0000 0.0000 0.0000 0.0000 8.4334
#
#
#
# Elastic Compliance Matrix: (Units=1/GPa)
#
#
# Indices 1 2 3 4 5 6 
#
# 1 0.033431 -0.025857 -0.002783 0.000000 0.000000 0.000000
# 2 -0.025857 0.033431 -0.002783 0.000000 0.000000 0.000000
# 3 -0.002783 -0.002783 0.011652 0.000000 0.000000 0.000000
# 4 0.000000 0.000000 0.000000 0.051868 0.000000 0.000000
# 5 0.000000 0.000000 0.000000 0.000000 0.051868 0.000000
# 6 0.000000 0.000000 0.000000 0.000000 0.000000 0.118576
#
#
# Mechanical properties :
#
#
# Convention : Reuss Voigt Hill
#
# Bulk Modulus (GPa) = 63.81996 64.14677 63.98337
# Shear Modulus (GPa) = 13.55397 18.26278 15.90837
#
# Velocity S-wave (km/s) = 2.86165 3.32175 3.10025
# Velocity P-wave (km/s) = 7.03403 7.31221 7.17447
#
# Compressibility (1/GPa) = 0.01566908
#
# Stress axis : x y z
#
# Youngs Moduli (GPa) = 29.91215 29.91215 85.81957
#
# Poissons Ratio (x) = 0.77343 0.23884
# Poissons Ratio (y) = 0.77343 0.23884
# Poissons Ratio (z) = 0.08325 0.08325
#
# Static dielectric constant tensor:
#      x y z
#    x 1.548670 0.000000 0.000000 
#    y 0.000000 1.548670 0.000000 
#    z 0.000000 0.000000 1.564870 
# 
# From -- ./inp_files/8694.got.cif
#   From: 2010.05.17/outbox.cif.g08.bks.cpg/sg191_5_cif.got.tgz:8694.got - 2010.05.20 12:20:32.
