data_PCOD9587212
_publ_section_title
;
Structure prediction by ZEFSAII (Michael W. Deem and Ramdas Pophale) SiO2 
 PCOD9587212
Probable space group: P 6/M M M
;
_chemical_formula_sum "Si O2"
_cell_formula_units_Z 96
_cell_length_a 18.225473
_cell_length_b 18.225473
_cell_length_c 22.529230
_cell_angle_alpha 90.000000
_cell_angle_beta 90.000000
_cell_angle_gamma 120.000000
_cell_volume 6480.889204
_symmetry_space_group_name_H-M "P 6/M M M"
_symmetry_group_IT_number 191
_symmetry_cell_setting 'hexagonal'
loop_
_space_group_symop_operation_xyz
x,y,z
x-y,x,z
-y,x-y,z
-x,-y,z
-x+y,-x,z
y,-x+y,z
x-y,-y,-z
-x,-x+y,-z
y,x,-z
-y,-x,-z
-x+y,y,-z
x,x-y,-z
-x,-y,-z
-x+y,-x,-z
y,-x+y,-z
x,y,-z
x-y,x,-z
-y,x-y,-z
-x+y,y,z
x,x-y,z
-y,-x,z
y,x,z
x-y,-y,z
-x,-x+y,z
loop_
_atom_site_type_symbol
_atom_site_label
_atom_site_fract_x
_atom_site_fract_y
_atom_site_fract_z
Si Si1 0.493698 0.330846 0.356233
Si Si2 0.667402 0.159821 0.000000
Si Si3 0.589244 0.000000 0.431829
Si Si4 0.099252 0.732762 0.889862
Si Si5 0.898765 0.532961 0.224117
O O1 0.495412 0.247706 0.374300
O O2 0.586211 0.413790 0.362608
O O3 0.429959 0.346596 0.395856
O O4 0.470223 0.326501 0.286781
O O5 0.684212 0.117454 0.942706
O O6 0.741486 0.258515 0.000000
O O7 0.575263 0.150526 0.000000
O O8 0.500000 0.000000 0.431853
O O9 0.613679 0.000000 0.500000
O O10 0.167776 0.832225 0.896502
O O11 0.117671 0.699003 0.828540
O O12 0.000000 0.704581 0.890994
O O13 0.873899 0.436950 0.207056
O O14 0.000000 0.582873 0.234244
#
# Coordination Sequence:
#
# PCOD9587212 Si02
#       5
#    24  12  12  24  24
#     4  10  18  29  45  66  90 117 151 188 224 263
#     4  10  20  33  48  69  96 126 155 186 224 269
#     4   9  18  32  46  60  84 117 148 180 222 267
#     4  10  20  32  47  67  91 120 155 193 232 271
#     4   9  16  28  46  67  90 118 149 181 219 267
#
# _framework density 14.812782
#
# number of rings (size 3 to 8) (size 9 to 14) (size 15 to 20)
#    0.000    2.375    1.250    2.250    0.000    2.500 
#    0.000    0.000    0.000    9.750    0.000    0.000 
#    0.000    3.000    0.000    0.375    0.000    1.625 
#
# Total GULP energy -535147.884590 kJ/mol
# GULP energy per Si atom -5574.457131 kJ/mol
# Density = 1.477907 g / cm^3
# Si number density = 14.812782 Si / 1000 Ang^3
#
#
#
# Elastic Constant Matrix: (Units=GPa)
#
#
# Indices 1 2 3 4 5 6 
#
# 1 90.4809 52.7970 48.8447 0.0000 0.0000 0.0000
# 2 52.7970 90.4809 48.8447 0.0000 0.0000 0.0000
# 3 48.8447 48.8447 89.2209 0.0000 0.0000 0.0000
# 4 0.0000 0.0000 0.0000 6.4753 0.0000 0.0000
# 5 0.0000 0.0000 0.0000 0.0000 6.4753 0.0000
# 6 0.0000 0.0000 0.0000 0.0000 0.0000 18.8420
#
#
#
# Elastic Compliance Matrix: (Units=1/GPa)
#
#
# Indices 1 2 3 4 5 6 
#
# 1 0.018836 -0.007700 -0.006097 0.000000 0.000000 0.000000
# 2 -0.007700 0.018836 -0.006097 0.000000 0.000000 0.000000
# 3 -0.006097 -0.006097 0.017883 0.000000 0.000000 0.000000
# 4 0.000000 0.000000 0.000000 0.154433 0.000000 0.000000
# 5 0.000000 0.000000 0.000000 0.000000 0.154433 0.000000
# 6 0.000000 0.000000 0.000000 0.000000 0.000000 0.053073
#
#
# Mechanical properties :
#
#
# Convention : Reuss Voigt Hill
#
# Bulk Modulus (GPa) = 63.41393 63.46171 63.43782
# Shear Modulus (GPa) = 10.80990 14.33827 12.57409
#
# Velocity S-wave (km/s) = 2.70435 3.11459 2.91669
# Velocity P-wave (km/s) = 7.25635 7.47461 7.36629
#
# Compressibility (1/GPa) = 0.01576941
#
# Stress axis : x y z
#
# Youngs Moduli (GPa) = 53.08881 53.08881 55.91776
#
# Poissons Ratio (x) = 0.40879 0.34091
# Poissons Ratio (y) = 0.40879 0.34091
# Poissons Ratio (z) = 0.32366 0.32366
#
# Static dielectric constant tensor:
#      x y z
#    x 1.475990 0.000000 0.000000 
#    y 0.000000 1.475990 0.000000 
#    z 0.000000 0.000000 1.497700 
# 
# From -- ./inp_files/7119.got.cif
#   From: 2010.05.17/outbox.cif.g08.bks.cpg/sg191_4_cif.got.tgz:7119.got - 2010.05.20 12:20:32.
