data_PCOD9587775
_publ_section_title
;
Structure prediction by ZEFSAII (Michael W. Deem and Ramdas Pophale) SiO2 
 PCOD9587775
Probable space group: P 6/M M M
;
_chemical_formula_sum "Si O2"
_cell_formula_units_Z 96
_cell_length_a 22.317670
_cell_length_b 22.317670
_cell_length_c 13.481560
_cell_angle_alpha 90.000000
_cell_angle_beta 90.000000
_cell_angle_gamma 120.000000
_cell_volume 5815.251256
_symmetry_space_group_name_H-M "P 6/M M M"
_symmetry_group_IT_number 191
_symmetry_cell_setting 'hexagonal'
loop_
_space_group_symop_operation_xyz
x,y,z
x-y,x,z
-y,x-y,z
-x,-y,z
-x+y,-x,z
y,-x+y,z
x-y,-y,-z
-x,-x+y,-z
y,x,-z
-y,-x,-z
-x+y,y,-z
x,x-y,-z
-x,-y,-z
-x+y,-x,-z
y,-x+y,-z
x,y,-z
x-y,x,-z
-y,x-y,-z
-x+y,y,z
x,x-y,z
-y,-x,z
y,x,z
x-y,-y,z
-x,-x+y,z
loop_
_atom_site_type_symbol
_atom_site_label
_atom_site_fract_x
_atom_site_fract_y
_atom_site_fract_z
Si Si1 0.448827 0.294464 0.113237
Si Si2 0.114513 0.367532 0.610661
Si Si3 0.391525 0.473339 0.291226
Si Si4 0.214369 0.921932 0.183321
O O1 0.464817 0.232409 0.134144
O O2 0.481411 0.355308 0.192889
O O3 0.365706 0.258823 0.127255
O O4 0.467618 0.317142 0.000000
O O5 0.090698 0.339783 0.500000
O O6 0.195832 0.391664 0.616940
O O7 0.100896 0.430230 0.632690
O O8 0.080847 0.313565 0.700559
O O9 0.453033 0.546968 0.326700
O O10 0.426355 0.426355 0.268222
O O11 0.134342 0.865659 0.167629
O O12 0.239229 0.000000 0.154819
#
# Coordination Sequence:
#
# PCOD9587775 Si02
#       4
#    24  24  24  24
#     4   9  17  30  48  66  84 110 144 181 218 252
#     4   9  17  30  48  66  84 110 144 181 218 252
#     4  10  20  30  42  65  93 118 142 168 208 263
#     4   9  17  28  43  65  90 114 142 176 213 252
#
# _framework density 16.508315
#
# number of rings (size 3 to 8) (size 9 to 14) (size 15 to 20)
#    0.000    2.750    0.000    5.250    0.000    5.000 
#    0.000    2.500    0.000    4.250    0.000    0.000 
#    0.000    0.000    0.000   12.500    0.000    0.000 
#
# Total GULP energy -534906.729739 kJ/mol
# GULP energy per Si atom -5571.945101 kJ/mol
# Density = 1.647074 g / cm^3
# Si number density = 16.508315 Si / 1000 Ang^3
#
#
#
# Elastic Constant Matrix: (Units=GPa)
#
#
# Indices 1 2 3 4 5 6 
#
# 1 60.8372 16.1755 -20.5534 0.0000 0.0000 0.0000
# 2 16.1755 60.8372 -20.5534 0.0000 0.0000 0.0000
# 3 -20.5534 -20.5534 28.1917 0.0000 0.0000 0.0000
# 4 0.0000 0.0000 0.0000 -28.5868 0.0000 0.0000
# 5 0.0000 0.0000 0.0000 0.0000 -28.5868 0.0000
# 6 0.0000 0.0000 0.0000 0.0000 0.0000 22.3308
#
#
#
# Elastic Compliance Matrix: (Units=1/GPa)
#
#
# Indices 1 2 3 4 5 6 
#
# 1 0.021824 -0.000567 0.015498 0.000000 0.000000 0.000000
# 2 -0.000567 0.021824 0.015498 0.000000 0.000000 0.000000
# 3 0.015498 0.015498 0.058069 0.000000 0.000000 0.000000
# 4 0.000000 0.000000 0.000000 -0.034981 0.000000 0.000000
# 5 0.000000 0.000000 0.000000 0.000000 -0.034981 0.000000
# 6 0.000000 0.000000 0.000000 0.000000 0.000000 0.044781
#
#
# Mechanical properties :
#
#
# Convention : Reuss Voigt Hill
#
# Bulk Modulus (GPa) = 6.15108 11.11149 8.63129
# Shear Modulus (GPa) = 71.56219 4.68460 38.12340
#
# Velocity S-wave (km/s) = 6.59115 1.68638 4.81078
# Velocity P-wave (km/s) = 7.85229 3.24612 6.00815
#
# Compressibility (1/GPa) = 0.16257302
#
# Stress axis : x y z
#
# Youngs Moduli (GPa) = 45.82158 45.82158 17.22098
#
# Poissons Ratio (x) = 0.02597 -0.26688
# Poissons Ratio (y) = 0.02597 -0.26688
# Poissons Ratio (z) = -0.71012 -0.71012
#
# Static dielectric constant tensor:
#      x y z
#    x 1.551520 0.000000 0.000000 
#    y 0.000000 1.551520 0.000000 
#    z 0.000000 0.000000 1.576230 
# 
# From -- ./inp_files/4163.got.cif
#   From: 2010.05.17/outbox.cif.g08.bks.cpg/sg191_3_cif.got.tgz:4163.got - 2010.05.20 12:20:32.
