data_PCOD9587447
_publ_section_title
;
Structure prediction by ZEFSAII (Michael W. Deem and Ramdas Pophale) SiO2 
 PCOD9587447
Probable space group: P 6/M M M
;
_chemical_formula_sum "Si O2"
_cell_formula_units_Z 108
_cell_length_a 18.359241
_cell_length_b 18.359241
_cell_length_c 23.331214
_cell_angle_alpha 90.000000
_cell_angle_beta 90.000000
_cell_angle_gamma 120.000000
_cell_volume 6810.475179
_symmetry_space_group_name_H-M "P 6/M M M"
_symmetry_group_IT_number 191
_symmetry_cell_setting 'hexagonal'
loop_
_space_group_symop_operation_xyz
x,y,z
x-y,x,z
-y,x-y,z
-x,-y,z
-x+y,-x,z
y,-x+y,z
x-y,-y,-z
-x,-x+y,-z
y,x,-z
-y,-x,-z
-x+y,y,-z
x,x-y,-z
-x,-y,-z
-x+y,-x,-z
y,-x+y,-z
x,y,-z
x-y,x,-z
-y,x-y,-z
-x+y,y,z
x,x-y,z
-y,-x,z
y,x,z
x-y,-y,z
-x,-x+y,z
loop_
_atom_site_type_symbol
_atom_site_label
_atom_site_fract_x
_atom_site_fract_y
_atom_site_fract_z
Si Si1 0.332221 0.497156 0.841853
Si Si2 0.633619 0.100621 0.284176
Si Si3 0.332455 0.493124 0.500000
Si Si4 0.267503 0.900569 0.393969
Si Si5 0.094044 0.739110 0.065537
O O1 0.261573 0.523145 0.850826
O O2 0.424432 0.575569 0.849019
O O3 0.325667 0.465805 0.776657
O O4 0.313740 0.425695 0.887960
O O5 0.563908 0.127815 0.298433
O O6 0.698310 0.117958 0.335101
O O7 0.581681 0.000000 0.276774
O O8 0.424175 0.575826 0.500000
O O9 0.258745 0.517489 0.500000
O O10 0.315376 0.433606 0.555045
O O11 0.168248 0.831753 0.399882
O O12 0.296700 0.000000 0.395140
O O13 0.164538 0.835463 0.073751
O O14 0.000000 0.720356 0.072022
O O15 0.103150 0.715797 0.000000
#
# Coordination Sequence:
#
# PCOD9587447 Si02
#       5
#    24  24  12  24  24
#     4  10  19  30  44  64  92 125 159 192 224 258
#     4   9  17  29  46  68  92 118 150 188 228 271
#     4  10  20  33  50  73 100 128 155 184 220 265
#     4  10  20  33  49  69  93 122 156 193 232 273
#     4   9  18  32  49  68  89 114 145 182 225 272
#
# _framework density 15.857924000000001
#
# number of rings (size 3 to 8) (size 9 to 14) (size 15 to 20)
#    0.000    2.444    0.000    2.667    0.000    3.556 
#    0.000    1.111    0.000    8.889    0.000    1.556 
#    0.000    2.667    0.000    7.111    0.000    4.889 
#
# Total GULP energy -601851.212777 kJ/mol
# GULP energy per Si atom -5572.696415 kJ/mol
# Density = 1.582183 g / cm^3
# Si number density = 15.857924 Si / 1000 Ang^3
#
#
#
# Elastic Constant Matrix: (Units=GPa)
#
#
# Indices 1 2 3 4 5 6 
#
# 1 82.3491 60.3453 52.9753 0.0000 0.0000 0.0000
# 2 60.3453 82.3491 52.9753 0.0000 0.0000 0.0000
# 3 52.9753 52.9753 91.4169 0.0000 0.0000 0.0000
# 4 0.0000 0.0000 0.0000 21.4484 0.0000 0.0000
# 5 0.0000 0.0000 0.0000 0.0000 21.4484 0.0000
# 6 0.0000 0.0000 0.0000 0.0000 0.0000 11.0019
#
#
#
# Elastic Compliance Matrix: (Units=1/GPa)
#
#
# Indices 1 2 3 4 5 6 
#
# 1 0.028874 -0.016573 -0.007128 0.000000 0.000000 0.000000
# 2 -0.016573 0.028874 -0.007128 0.000000 0.000000 0.000000
# 3 -0.007128 -0.007128 0.019200 0.000000 0.000000 0.000000
# 4 0.000000 0.000000 0.000000 0.046624 0.000000 0.000000
# 5 0.000000 0.000000 0.000000 0.000000 0.046624 0.000000
# 6 0.000000 0.000000 0.000000 0.000000 0.000000 0.090893
#
#
# Mechanical properties :
#
#
# Convention : Reuss Voigt Hill
#
# Bulk Modulus (GPa) = 65.40624 65.41188 65.40906
# Shear Modulus (GPa) = 15.25122 16.76768 16.00945
#
# Velocity S-wave (km/s) = 3.10456 3.25525 3.18080
# Velocity P-wave (km/s) = 7.36110 7.44762 7.40449
#
# Compressibility (1/GPa) = 0.01528906
#
# Stress axis : x y z
#
# Youngs Moduli (GPa) = 34.63371 34.63371 52.08277
#
# Poissons Ratio (x) = 0.57399 0.37125
# Poissons Ratio (y) = 0.57399 0.37125
# Poissons Ratio (z) = 0.24687 0.24687
#
# Static dielectric constant tensor:
#      x y z
#    x 1.518520 0.000000 0.000000 
#    y 0.000000 1.518520 0.000000 
#    z 0.000000 0.000000 1.538320 
# 
# From -- ./inp_files/7292.got.cif
#   From: 2010.05.17/outbox.cif.g08.bks.cpg/sg191_4_cif.got.tgz:7292.got - 2010.05.20 12:20:32.
