data_PCOD9587482
_publ_section_title
;
Structure prediction by ZEFSAII (Michael W. Deem and Ramdas Pophale) SiO2 
 PCOD9587482
Probable space group: P 6/M M M
;
_chemical_formula_sum "Si O2"
_cell_formula_units_Z 84
_cell_length_a 18.688300
_cell_length_b 18.688300
_cell_length_c 17.817489
_cell_angle_alpha 90.000000
_cell_angle_beta 90.000000
_cell_angle_gamma 120.000000
_cell_volume 5389.105992
_symmetry_space_group_name_H-M "P 6/M M M"
_symmetry_group_IT_number 191
_symmetry_cell_setting 'hexagonal'
loop_
_space_group_symop_operation_xyz
x,y,z
x-y,x,z
-y,x-y,z
-x,-y,z
-x+y,-x,z
y,-x+y,z
x-y,-y,-z
-x,-x+y,-z
y,x,-z
-y,-x,-z
-x+y,y,-z
x,x-y,-z
-x,-y,-z
-x+y,-x,-z
y,-x+y,-z
x,y,-z
x-y,x,-z
-y,x-y,-z
-x+y,y,z
x,x-y,z
-y,-x,z
y,x,z
x-y,-y,z
-x,-x+y,z
loop_
_atom_site_type_symbol
_atom_site_label
_atom_site_fract_x
_atom_site_fract_y
_atom_site_fract_z
Si Si1 0.904666 0.255371 0.586338
Si Si2 0.359665 0.095491 0.000000
Si Si3 0.167641 0.500021 0.877445
Si Si4 0.532372 0.901435 0.712636
O O1 0.897302 0.277627 0.500000
O O2 0.841135 0.158866 0.595408
O O3 0.882124 0.304968 0.646064
O O4 0.000000 0.282799 0.598272
O O5 0.420390 0.113903 0.071062
O O6 0.334138 0.167069 0.000000
O O7 0.287852 0.000000 0.000000
O O8 0.262681 0.525362 0.890591
O O9 0.153427 0.576714 0.894361
O O10 0.144891 0.476367 0.790449
O O11 0.441560 0.883121 0.689967
O O12 0.586282 0.000000 0.727217
#
# Coordination Sequence:
#
# PCOD9587482 Si02
#       4
#    24  12  24  24
#     4   9  17  29  45  64  86 113 146 184 225 269
#     4  10  21  35  51  70  91 117 148 184 225 267
#     4  10  19  30  45  66  94 126 157 186 215 250
#     4   9  17  28  43  64  88 115 149 187 223 259
#
# _framework density 15.587
#
# number of rings (size 3 to 8) (size 9 to 14) (size 15 to 20)
#    0.000    2.571    0.000    2.429    0.000    2.857 
#    0.000    4.286    0.000    1.000    0.000    2.000 
#    0.000    0.000    0.000    9.143    0.000    6.286 
#
# Total GULP energy -468012.915267 kJ/mol
# GULP energy per Si atom -5571.582325 kJ/mol
# Density = 1.555152 g / cm^3
# Si number density = 15.587000 Si / 1000 Ang^3
#
#
#
# Elastic Constant Matrix: (Units=GPa)
#
#
# Indices 1 2 3 4 5 6 
#
# 1 81.3904 50.3711 43.3151 0.0000 0.0000 0.0000
# 2 50.3711 81.3904 43.3151 0.0000 0.0000 0.0000
# 3 43.3151 43.3151 67.5934 0.0000 0.0000 0.0000
# 4 0.0000 0.0000 0.0000 21.6141 0.0000 0.0000
# 5 0.0000 0.0000 0.0000 0.0000 21.6141 0.0000
# 6 0.0000 0.0000 0.0000 0.0000 0.0000 15.5096
#
#
#
# Elastic Compliance Matrix: (Units=1/GPa)
#
#
# Indices 1 2 3 4 5 6 
#
# 1 0.022677 -0.009561 -0.008404 0.000000 0.000000 0.000000
# 2 -0.009561 0.022677 -0.008404 0.000000 0.000000 0.000000
# 3 -0.008404 -0.008404 0.025566 0.000000 0.000000 0.000000
# 4 0.000000 0.000000 0.000000 0.046266 0.000000 0.000000
# 5 0.000000 0.000000 0.000000 0.000000 0.046266 0.000000
# 6 0.000000 0.000000 0.000000 0.000000 0.000000 0.064476
#
#
# Mechanical properties :
#
#
# Convention : Reuss Voigt Hill
#
# Bulk Modulus (GPa) = 55.01047 56.04190 55.52619
# Shear Modulus (GPa) = 17.43818 17.97245 17.70531
#
# Velocity S-wave (km/s) = 3.34842 3.39933 3.37397
# Velocity P-wave (km/s) = 7.09355 7.17214 7.13295
#
# Compressibility (1/GPa) = 0.01817836
#
# Stress axis : x y z
#
# Youngs Moduli (GPa) = 44.09831 44.09831 39.11472
#
# Poissons Ratio (x) = 0.42164 0.32874
# Poissons Ratio (y) = 0.42164 0.32874
# Poissons Ratio (z) = 0.37062 0.37062
#
# Static dielectric constant tensor:
#      x y z
#    x 1.509390 0.000000 0.000000 
#    y 0.000000 1.509390 0.000000 
#    z 0.000000 0.000000 1.523290 
# 
# From -- ./inp_files/3983.got.cif
#   From: 2010.05.17/outbox.cif.g08.bks.cpg/sg191_2_cif.got.tgz:3983.got - 2010.05.20 12:20:32.
