data_PCOD9587747
_publ_section_title
;
Structure prediction by ZEFSAII (Michael W. Deem and Ramdas Pophale) SiO2 
 PCOD9587747
Probable space group: P 6/M M M
;
_chemical_formula_sum "Si O2"
_cell_formula_units_Z 90
_cell_length_a 18.086939
_cell_length_b 18.086939
_cell_length_c 16.984332
_cell_angle_alpha 90.000000
_cell_angle_beta 90.000000
_cell_angle_gamma 120.000000
_cell_volume 4811.818638
_symmetry_space_group_name_H-M "P 6/M M M"
_symmetry_group_IT_number 191
_symmetry_cell_setting 'hexagonal'
loop_
_space_group_symop_operation_xyz
x,y,z
x-y,x,z
-y,x-y,z
-x,-y,z
-x+y,-x,z
y,-x+y,z
x-y,-y,-z
-x,-x+y,-z
y,x,-z
-y,-x,-z
-x+y,y,-z
x,x-y,-z
-x,-y,-z
-x+y,-x,-z
y,-x+y,-z
x,y,-z
x-y,x,-z
-y,x-y,-z
-x+y,y,z
x,x-y,z
-y,-x,z
y,x,z
x-y,-y,z
-x,-x+y,z
loop_
_atom_site_type_symbol
_atom_site_label
_atom_site_fract_x
_atom_site_fract_y
_atom_site_fract_z
Si Si1 0.496552 0.333466 0.884311
Si Si2 0.825180 0.000000 0.409422
Si Si3 0.333602 0.497680 0.692936
Si Si4 0.319326 0.000000 0.305886
Si Si5 0.821231 0.000000 0.000000
Si Si6 0.684844 0.684844 0.116163
O O1 0.505114 0.252557 0.909372
O O2 0.576715 0.423286 0.910039
O O3 0.499183 0.334597 0.788681
O O4 0.404690 0.320925 0.906146
O O5 0.916340 0.083661 0.398322
O O6 0.798080 0.000000 0.500000
O O7 0.757965 0.000000 0.349565
O O8 0.252281 0.504562 0.667073
O O9 0.421825 0.578176 0.665983
O O10 0.324274 0.407722 0.671344
O O11 0.308066 0.000000 0.211153
O O12 0.828159 0.914080 0.000000
O O13 0.764076 0.000000 0.073834
#
# Coordination Sequence:
#
# PCOD9587747 Si02
#       6
#    24  12  24  12   6  12
#     4   9  16  28  48  76 108 141 177 217 263 314
#     4  10  21  37  57  81 109 138 166 202 256 322
#     4   9  16  26  44  72 107 145 182 219 259 306
#     4  10  19  33  55  83 109 134 173 222 265 305
#     4  12  27  46  63  78 100 134 176 218 261 310
#     4  10  21  37  57  79 105 139 178 221 265 308
#
# _framework density 18.703946999999999
#
# number of rings (size 3 to 8) (size 9 to 14) (size 15 to 20)
#    0.000    2.400    0.000    3.133    0.000    9.067 
#    0.000    1.333    0.000    3.200    0.000    1.867 
#    0.000    2.133    0.000    0.000    0.000    0.000 
#
# Total GULP energy -502507.436579 kJ/mol
# GULP energy per Si atom -5583.415962 kJ/mol
# Density = 1.866138 g / cm^3
# Si number density = 18.703947 Si / 1000 Ang^3
#
#
#
# Elastic Constant Matrix: (Units=GPa)
#
#
# Indices 1 2 3 4 5 6 
#
# 1 168.7849 86.2233 47.7082 0.0000 0.0000 0.0000
# 2 86.2233 168.7849 47.7082 0.0000 0.0000 0.0000
# 3 47.7082 47.7082 43.8162 0.0000 0.0000 0.0000
# 4 0.0000 0.0000 0.0000 -1.9671 0.0000 0.0000
# 5 0.0000 0.0000 0.0000 0.0000 -1.9671 0.0000
# 6 0.0000 0.0000 0.0000 0.0000 0.0000 41.2808
#
#
#
# Elastic Compliance Matrix: (Units=1/GPa)
#
#
# Indices 1 2 3 4 5 6 
#
# 1 0.009365 -0.002747 -0.007205 0.000000 0.000000 0.000000
# 2 -0.002747 0.009365 -0.007205 0.000000 0.000000 0.000000
# 3 -0.007205 -0.007205 0.038513 0.000000 0.000000 0.000000
# 4 0.000000 0.000000 0.000000 -0.508352 0.000000 0.000000
# 5 0.000000 0.000000 0.000000 0.000000 -0.508352 0.000000
# 6 0.000000 0.000000 0.000000 0.000000 0.000000 0.024224
#
#
# Mechanical properties :
#
#
# Convention : Reuss Voigt Hill
#
# Bulk Modulus (GPa) = 43.61659 82.74058 63.17859
# Shear Modulus (GPa) = -5.59736 20.78572 7.59418
#
# Velocity S-wave (km/s) = -1.73179 3.33724 2.01718
# Velocity P-wave (km/s) = 4.40128 7.69302 6.26713
#
# Compressibility (1/GPa) = 0.02292705
#
# Stress axis : x y z
#
# Youngs Moduli (GPa) = 106.78294 106.78294 25.96520
#
# Poissons Ratio (x) = 0.29337 0.18708
# Poissons Ratio (y) = 0.29337 0.18708
# Poissons Ratio (z) = 0.76939 0.76939
#
# Static dielectric constant tensor:
#      x y z
#    x 1.619320 0.000000 0.000000 
#    y 0.000000 1.619320 0.000000 
#    z 0.000000 0.000000 1.655980 
# 
# From -- ./inp_files/5877.got.cif
#   From: 2010.05.17/outbox.cif.g08.bks.cpg/sg191_3_cif.got.tgz:5877.got - 2010.05.20 12:20:32.
