data_PCOD9587251
_publ_section_title
;
Structure prediction by ZEFSAII (Michael W. Deem and Ramdas Pophale) SiO2 
 PCOD9587251
Probable space group: P 6/M M M
;
_chemical_formula_sum "Si O2"
_cell_formula_units_Z 144
_cell_length_a 21.828988
_cell_length_b 21.828988
_cell_length_c 22.901299
_cell_angle_alpha 90.000000
_cell_angle_beta 90.000000
_cell_angle_gamma 120.000000
_cell_volume 9450.568904
_symmetry_space_group_name_H-M "P 6/M M M"
_symmetry_group_IT_number 191
_symmetry_cell_setting 'hexagonal'
loop_
_space_group_symop_operation_xyz
x,y,z
x-y,x,z
-y,x-y,z
-x,-y,z
-x+y,-x,z
y,-x+y,z
x-y,-y,-z
-x,-x+y,-z
y,x,-z
-y,-x,-z
-x+y,y,-z
x,x-y,-z
-x,-y,-z
-x+y,-x,-z
y,-x+y,-z
x,y,-z
x-y,x,-z
-y,x-y,-z
-x+y,y,z
x,x-y,z
-y,-x,z
y,x,z
x-y,-y,z
-x,-x+y,z
loop_
_atom_site_type_symbol
_atom_site_label
_atom_site_fract_x
_atom_site_fract_y
_atom_site_fract_z
Si Si1 0.083792 0.642742 0.340362
Si Si2 0.457240 0.914480 0.566042
Si Si3 0.080722 0.778740 0.313567
Si Si4 0.779625 0.078799 0.825702
Si Si5 0.702516 0.149363 0.120057
Si Si6 0.526029 0.335155 0.237726
Si Si7 0.480265 0.665573 0.000000
O O1 0.104402 0.612283 0.396237
O O2 0.093025 0.720432 0.345965
O O3 0.131530 0.645601 0.286414
O O4 0.000000 0.590373 0.328791
O O5 0.443383 0.886765 0.500000
O O6 0.500000 0.000000 0.562626
O O7 0.142167 0.857834 0.327226
O O8 0.085360 0.767700 0.243589
O O9 0.000000 0.758984 0.324847
O O10 0.858543 0.141458 0.839115
O O11 0.724531 0.091838 0.862482
O O12 0.764275 0.000000 0.835602
O O13 0.777122 0.222879 0.118283
O O14 0.660793 0.157894 0.174098
O O15 0.667093 0.144541 0.058118
O O16 0.511496 0.255748 0.246348
O O17 0.608713 0.391288 0.240945
O O18 0.402700 0.597301 0.000000
O O19 0.474400 0.737200 0.000000
#
# Coordination Sequence:
#
# PCOD9587251 Si02
#       7
#    24  12  24  24  24  24  12
#     4  10  18  29  48  71  91 118 155 196 243 286
#     4   9  18  32  48  70  98 125 159 201 243 288
#     4   9  16  27  46  72  99 124 156 199 245 289
#     4   9  16  28  47  70  94 121 152 192 237 280
#     4   9  18  30  45  64  88 118 156 197 237 276
#     4  11  20  30  44  66  92 120 153 197 241 284
#     4  10  19  32  47  63  86 121 160 198 239 289
#
# _framework density 15.237178
#
# number of rings (size 3 to 8) (size 9 to 14) (size 15 to 20)
#    0.000    2.417    2.500    1.250    0.000    0.000 
#    0.000    2.083    0.000    4.333    0.000    2.333 
#    0.000    0.000    0.000    0.000    0.000    9.833 
#
# Total GULP energy -801980.949397 kJ/mol
# GULP energy per Si atom -5569.312149 kJ/mol
# Density = 1.520250 g / cm^3
# Si number density = 15.237178 Si / 1000 Ang^3
#
#
#
# Elastic Constant Matrix: (Units=GPa)
#
#
# Indices 1 2 3 4 5 6 
#
# 1 82.2458 44.5285 42.3989 0.0000 0.0000 0.0000
# 2 44.5285 82.2458 42.3989 0.0000 0.0000 0.0000
# 3 42.3989 42.3989 95.9975 0.0000 0.0000 0.0000
# 4 0.0000 0.0000 0.0000 14.7697 0.0000 0.0000
# 5 0.0000 0.0000 0.0000 0.0000 14.7697 0.0000
# 6 0.0000 0.0000 0.0000 0.0000 0.0000 18.8587
#
#
#
# Elastic Compliance Matrix: (Units=1/GPa)
#
#
# Indices 1 2 3 4 5 6 
#
# 1 0.018854 -0.007659 -0.004945 0.000000 0.000000 0.000000
# 2 -0.007659 0.018854 -0.004945 0.000000 0.000000 0.000000
# 3 -0.004945 -0.004945 0.014785 0.000000 0.000000 0.000000
# 4 0.000000 0.000000 0.000000 0.067706 0.000000 0.000000
# 5 0.000000 0.000000 0.000000 0.000000 0.067706 0.000000
# 6 0.000000 0.000000 0.000000 0.000000 0.000000 0.053026
#
#
# Mechanical properties :
#
#
# Convention : Reuss Voigt Hill
#
# Bulk Modulus (GPa) = 57.48117 57.68238 57.58178
# Shear Modulus (GPa) = 17.74137 18.42379 18.08258
#
# Velocity S-wave (km/s) = 3.41596 3.48103 3.44865
# Velocity P-wave (km/s) = 7.30510 7.35495 7.33007
#
# Compressibility (1/GPa) = 0.01739700
#
# Stress axis : x y z
#
# Youngs Moduli (GPa) = 53.03849 53.03849 67.63740
#
# Poissons Ratio (x) = 0.40621 0.33444
# Poissons Ratio (y) = 0.40621 0.33444
# Poissons Ratio (z) = 0.26226 0.26226
#
# Static dielectric constant tensor:
#      x y z
#    x 1.509290 0.000000 0.000000 
#    y 0.000000 1.509290 0.000000 
#    z 0.000000 0.000000 1.500490 
# 
# From -- ./inp_files/7643.got.cif
#   From: 2010.05.17/outbox.cif.g08.bks.cpg/sg191_4_cif.got.tgz:7643.got - 2010.05.20 12:20:32.
