data_PCOD9587513
_publ_section_title
;
Structure prediction by ZEFSAII (Michael W. Deem and Ramdas Pophale) SiO2 
 PCOD9587513
Probable space group: P 6/M M M
;
_chemical_formula_sum "Si O2"
_cell_formula_units_Z 120
_cell_length_a 18.120238
_cell_length_b 18.120238
_cell_length_c 25.774631
_cell_angle_alpha 90.000000
_cell_angle_beta 90.000000
_cell_angle_gamma 120.000000
_cell_volume 7329.103983
_symmetry_space_group_name_H-M "P 6/M M M"
_symmetry_group_IT_number 191
_symmetry_cell_setting 'hexagonal'
loop_
_space_group_symop_operation_xyz
x,y,z
x-y,x,z
-y,x-y,z
-x,-y,z
-x+y,-x,z
y,-x+y,z
x-y,-y,-z
-x,-x+y,-z
y,x,-z
-y,-x,-z
-x+y,y,-z
x,x-y,-z
-x,-y,-z
-x+y,-x,-z
y,-x+y,-z
x,y,-z
x-y,x,-z
-y,x-y,-z
-x+y,y,z
x,x-y,z
-y,-x,z
y,x,z
x-y,-y,z
-x,-x+y,z
loop_
_atom_site_type_symbol
_atom_site_label
_atom_site_fract_x
_atom_site_fract_y
_atom_site_fract_z
Si Si1 0.903292 0.268262 0.403810
Si Si2 0.102913 0.467804 0.000000
Si Si3 0.101262 0.366018 0.901286
Si Si4 0.898282 0.365220 0.198029
Si Si5 0.840248 0.507703 0.500000
Si Si6 0.503677 0.835639 0.313282
O O1 0.830989 0.169012 0.406490
O O2 0.881916 0.315117 0.449779
O O3 0.889736 0.306104 0.350346
O O4 0.000000 0.290239 0.408518
O O5 0.124076 0.432129 0.051298
O O6 0.136920 0.568460 0.000000
O O7 0.000000 0.421919 0.000000
O O8 0.163785 0.327569 0.904168
O O9 0.118774 0.418785 0.848029
O O10 0.000000 0.299000 0.904132
O O11 0.874611 0.437306 0.182396
O O12 0.854951 0.327153 0.252892
O O13 0.000000 0.415511 0.206766
O O14 0.740716 0.481432 0.500000
O O15 0.850635 0.425318 0.500000
O O16 0.426765 0.853530 0.323620
O O17 0.474598 0.737299 0.323952
#
# Coordination Sequence:
#
# PCOD9587513 Si02
#       6
#    24  12  24  24  12  24
#     4  10  21  35  51  71  94 122 156 196 240 282
#     4   9  17  30  49  70  90 114 144 179 221 270
#     4  10  19  31  48  69  93 122 158 197 235 276
#     4   9  17  29  46  67  90 119 156 196 235 276
#     4  10  20  33  50  73 102 134 165 194 224 261
#     4  10  19  30  45  67  97 130 161 191 225 268
#
# _framework density 16.373080000000002
#
# number of rings (size 3 to 8) (size 9 to 14) (size 15 to 20)
#    0.000    2.300    0.000    3.300    0.000    5.200 
#    0.000    2.000    0.000    7.200    0.000    0.000 
#    0.000    4.800    0.000    6.400    0.000    0.000 
#
# Total GULP energy -669218.772051 kJ/mol
# GULP energy per Si atom -5576.823100 kJ/mol
# Density = 1.633581 g / cm^3
# Si number density = 16.373080 Si / 1000 Ang^3
#
#
#
# Elastic Constant Matrix: (Units=GPa)
#
#
# Indices 1 2 3 4 5 6 
#
# 1 90.5200 62.5226 35.4791 0.0000 0.0000 0.0000
# 2 62.5226 90.5200 35.4791 0.0000 0.0000 0.0000
# 3 35.4791 35.4791 62.5780 0.0000 0.0000 0.0000
# 4 0.0000 0.0000 0.0000 16.4071 0.0000 0.0000
# 5 0.0000 0.0000 0.0000 0.0000 16.4071 0.0000
# 6 0.0000 0.0000 0.0000 0.0000 0.0000 13.9987
#
#
#
# Elastic Compliance Matrix: (Units=1/GPa)
#
#
# Indices 1 2 3 4 5 6 
#
# 1 0.022291 -0.013427 -0.005026 0.000000 0.000000 0.000000
# 2 -0.013427 0.022291 -0.005026 0.000000 0.000000 0.000000
# 3 -0.005026 -0.005026 0.021679 0.000000 0.000000 0.000000
# 4 0.000000 0.000000 0.000000 0.060949 0.000000 0.000000
# 5 0.000000 0.000000 0.000000 0.000000 0.060949 0.000000
# 6 0.000000 0.000000 0.000000 0.000000 0.000000 0.071435
#
#
# Mechanical properties :
#
#
# Convention : Reuss Voigt Hill
#
# Bulk Modulus (GPa) = 51.80113 56.73108 54.26611
# Shear Modulus (GPa) = 15.97520 16.70506 16.34013
#
# Velocity S-wave (km/s) = 3.12701 3.19764 3.16252
# Velocity P-wave (km/s) = 6.68911 6.95395 6.82282
#
# Compressibility (1/GPa) = 0.01930460
#
# Stress axis : x y z
#
# Youngs Moduli (GPa) = 44.86127 44.86127 46.12810
#
# Poissons Ratio (x) = 0.60234 0.23183
# Poissons Ratio (y) = 0.60234 0.23183
# Poissons Ratio (z) = 0.22546 0.22546
#
# Static dielectric constant tensor:
#      x y z
#    x 1.543610 0.000000 0.000000 
#    y 0.000000 1.543610 0.000000 
#    z 0.000000 0.000000 1.555810 
# 
# From -- ./inp_files/8563.got.cif
#   From: 2010.05.17/outbox.cif.g08.bks.cpg/sg191_5_cif.got.tgz:8563.got - 2010.05.20 12:20:32.
