data_PCOD9587870
_publ_section_title
;
Structure prediction by ZEFSAII (Michael W. Deem and Ramdas Pophale) SiO2 
 PCOD9587870
Probable space group: P 6/M M M
;
_chemical_formula_sum "Si O2"
_cell_formula_units_Z 72
_cell_length_a 17.918702
_cell_length_b 17.918702
_cell_length_c 16.044194
_cell_angle_alpha 90.000000
_cell_angle_beta 90.000000
_cell_angle_gamma 120.000000
_cell_volume 4461.302073
_symmetry_space_group_name_H-M "P 6/M M M"
_symmetry_group_IT_number 191
_symmetry_cell_setting 'hexagonal'
loop_
_space_group_symop_operation_xyz
x,y,z
x-y,x,z
-y,x-y,z
-x,-y,z
-x+y,-x,z
y,-x+y,z
x-y,-y,-z
-x,-x+y,-z
y,x,-z
-y,-x,-z
-x+y,y,-z
x,x-y,-z
-x,-y,-z
-x+y,-x,-z
y,-x+y,-z
x,y,-z
x-y,x,-z
-y,x-y,-z
-x+y,y,z
x,x-y,z
-y,-x,z
y,x,z
x-y,-y,z
-x,-x+y,z
loop_
_atom_site_type_symbol
_atom_site_label
_atom_site_fract_x
_atom_site_fract_y
_atom_site_fract_z
Si Si1 0.268210 0.367270 0.339415
Si Si2 0.666150 0.511192 0.182726
Si Si3 0.333858 0.489915 0.000000
Si Si4 0.104113 0.636334 0.500000
O O1 0.167112 0.334223 0.334450
O O2 0.294795 0.294795 0.351116
O O3 0.312694 0.420903 0.255834
O O4 0.307082 0.433153 0.417034
O O5 0.746405 0.492810 0.181581
O O6 0.576842 0.423159 0.197960
O O7 0.660458 0.545327 0.090461
O O8 0.411638 0.588363 0.000000
O O9 0.243664 0.487327 0.000000
O O10 0.139026 0.569513 0.500000
O O11 0.000000 0.579010 0.500000
#
# Coordination Sequence:
#
# PCOD9587870 Si02
#       4
#    24  24  12  12
#     4  10  20  33  49  68  90 118 152 191 234 276
#     4   9  16  26  42  65  93 124 155 185 217 257
#     4   8  13  22  37  59  88 121 154 184 215 254
#     4   9  17  30  49  72  96 120 144 169 201 248
#
# _framework density 16.138787000000001
#
# number of rings (size 3 to 8) (size 9 to 14) (size 15 to 20)
#    0.000    2.833    0.000    2.000    0.000    4.667 
#    0.000    0.833    0.000    8.000    0.000    0.000 
#    0.000    4.000    0.000    0.000    0.000   19.667 
#
# Total GULP energy -400882.497779 kJ/mol
# GULP energy per Si atom -5567.812469 kJ/mol
# Density = 1.610205 g / cm^3
# Si number density = 16.138787 Si / 1000 Ang^3
#
#
#
# Elastic Constant Matrix: (Units=GPa)
#
#
# Indices 1 2 3 4 5 6 
#
# 1 60.1772 45.3578 35.0229 0.0000 0.0000 0.0000
# 2 45.3578 60.1772 35.0229 0.0000 0.0000 0.0000
# 3 35.0229 35.0229 116.6279 0.0000 0.0000 0.0000
# 4 0.0000 0.0000 0.0000 14.1403 0.0000 0.0000
# 5 0.0000 0.0000 0.0000 0.0000 14.1403 0.0000
# 6 0.0000 0.0000 0.0000 0.0000 0.0000 7.4097
#
#
#
# Elastic Compliance Matrix: (Units=1/GPa)
#
#
# Indices 1 2 3 4 5 6 
#
# 1 0.039657 -0.027822 -0.003554 0.000000 0.000000 0.000000
# 2 -0.027822 0.039657 -0.003554 0.000000 0.000000 0.000000
# 3 -0.003554 -0.003554 0.010709 0.000000 0.000000 0.000000
# 4 0.000000 0.000000 0.000000 0.070720 0.000000 0.000000
# 5 0.000000 0.000000 0.000000 0.000000 0.070720 0.000000
# 6 0.000000 0.000000 0.000000 0.000000 0.000000 0.134958
#
#
# Mechanical properties :
#
#
# Convention : Reuss Voigt Hill
#
# Bulk Modulus (GPa) = 49.59817 51.97661 50.78739
# Shear Modulus (GPa) = 11.28667 15.24330 13.26498
#
# Velocity S-wave (km/s) = 2.64739 3.07663 2.87005
# Velocity P-wave (km/s) = 6.33592 6.70051 6.52076
#
# Compressibility (1/GPa) = 0.02016204
#
# Stress axis : x y z
#
# Youngs Moduli (GPa) = 25.21642 25.21642 93.38236
#
# Poissons Ratio (x) = 0.70158 0.33186
# Poissons Ratio (y) = 0.70158 0.33186
# Poissons Ratio (z) = 0.08961 0.08961
#
# Static dielectric constant tensor:
#      x y z
#    x 1.525320 0.000000 0.000000 
#    y 0.000000 1.525320 0.000000 
#    z 0.000000 0.000000 1.590430 
# 
# From -- ./inp_files/3928.got.cif
#   From: 2010.05.17/outbox.cif.g08.bks.cpg/sg191_2_cif.got.tgz:3928.got - 2010.05.20 12:20:32.
