data_PCOD9587765
_publ_section_title
;
Structure prediction by ZEFSAII (Michael W. Deem and Ramdas Pophale) SiO2 
 PCOD9587765
Probable space group: P 6/M M M
;
_chemical_formula_sum "Si O2"
_cell_formula_units_Z 138
_cell_length_a 31.347790
_cell_length_b 31.347790
_cell_length_c 8.708171
_cell_angle_alpha 90.000000
_cell_angle_beta 90.000000
_cell_angle_gamma 120.000000
_cell_volume 7410.908271
_symmetry_space_group_name_H-M "P 6/M M M"
_symmetry_group_IT_number 191
_symmetry_cell_setting 'hexagonal'
loop_
_space_group_symop_operation_xyz
x,y,z
x-y,x,z
-y,x-y,z
-x,-y,z
-x+y,-x,z
y,-x+y,z
x-y,-y,-z
-x,-x+y,-z
y,x,-z
-y,-x,-z
-x+y,y,-z
x,x-y,-z
-x,-y,-z
-x+y,-x,-z
y,-x+y,-z
x,y,-z
x-y,x,-z
-y,x-y,-z
-x+y,y,z
x,x-y,z
-y,-x,z
y,x,z
x-y,-y,z
-x,-x+y,z
loop_
_atom_site_type_symbol
_atom_site_label
_atom_site_fract_x
_atom_site_fract_y
_atom_site_fract_z
Si Si1 0.513524 0.848223 0.181224
Si Si2 0.803032 0.803032 0.317089
Si Si3 0.000000 0.899534 0.814092
Si Si4 0.364980 0.729959 0.500000
Si Si5 0.788922 0.394461 0.819589
Si Si6 0.853366 0.605144 0.672007
Si Si7 0.054060 0.576090 0.187199
Si Si8 0.095181 0.803234 0.182355
O O1 0.454082 0.818823 0.194820
O O2 0.550678 0.834930 0.262454
O O3 0.529772 0.902577 0.241313
O O4 0.523156 0.849222 0.000000
O O5 0.806137 0.806137 0.500000
O O6 0.851181 0.851181 0.248882
O O7 0.801199 0.752935 0.262216
O O8 0.950187 0.900374 0.768620
O O9 0.000000 0.897244 0.000000
O O10 0.306257 0.693744 0.500000
O O11 0.378181 0.756362 0.665006
O O12 0.769582 0.384791 0.000000
O O13 0.872410 0.608402 0.500000
O O14 0.805023 0.610045 0.666948
O O15 0.892328 0.653220 0.766519
O O16 0.062081 0.531041 0.233632
O O17 0.000000 0.562502 0.235899
O O18 0.055449 0.576638 0.000000
O O19 0.143794 0.856207 0.216334
O O20 0.087562 0.800001 0.000000
#
# Coordination Sequence:
#
# PCOD9587765 Si02
#       8
#    24  12  12   6  12  24  24  24
#     4  10  19  34  57  87 118 152 198 246 296 357
#     4  12  24  37  59  91 124 161 201 248 312 383
#     4  10  21  38  60  88 124 168 221 273 320 369
#     4  10  26  46  62  88 121 160 200 248 316 380
#     4  10  22  40  65  94 124 160 206 256 302 362
#     4  10  22  39  58  83 113 150 192 240 299 360
#     4   8  13  25  48  77 109 144 183 228 278 335
#     4  10  21  40  64  86 113 150 199 254 301 354
#
# _framework density 18.621199000000001
#
# number of rings (size 3 to 8) (size 9 to 14) (size 15 to 20)
#    0.087    2.087    0.870    2.957    1.217    5.913 
#    1.565    1.739    0.000    0.522    0.000    1.826 
#    0.000    0.000    0.000    0.000    0.000    0.000 
#
# Total GULP energy -768367.202314 kJ/mol
# GULP energy per Si atom -5567.878278 kJ/mol
# Density = 1.857882 g / cm^3
# Si number density = 18.621199 Si / 1000 Ang^3
#
#
#
# Elastic Constant Matrix: (Units=GPa)
#
#
# Indices 1 2 3 4 5 6 
#
# 1 81.1863 32.7807 51.6828 0.0000 0.0000 0.0000
# 2 32.7807 81.1863 51.6828 0.0000 0.0000 0.0000
# 3 51.6828 51.6828 85.1234 0.0000 0.0000 0.0000
# 4 0.0000 0.0000 0.0000 19.6010 0.0000 0.0000
# 5 0.0000 0.0000 0.0000 0.0000 19.6010 0.0000
# 6 0.0000 0.0000 0.0000 0.0000 0.0000 24.2028
#
#
#
# Elastic Compliance Matrix: (Units=1/GPa)
#
#
# Indices 1 2 3 4 5 6 
#
# 1 0.020093 -0.000565 -0.011857 0.000000 0.000000 0.000000
# 2 -0.000565 0.020093 -0.011857 0.000000 0.000000 0.000000
# 3 -0.011857 -0.011857 0.026145 0.000000 0.000000 0.000000
# 4 0.000000 0.000000 0.000000 0.051018 0.000000 0.000000
# 5 0.000000 0.000000 0.000000 0.000000 0.051018 0.000000
# 6 0.000000 0.000000 0.000000 0.000000 0.000000 0.041318
#
#
# Mechanical properties :
#
#
# Convention : Reuss Voigt Hill
#
# Bulk Modulus (GPa) = 56.25823 57.75429 57.00626
# Shear Modulus (GPa) = 18.92743 20.10426 19.51584
#
# Velocity S-wave (km/s) = 3.19163 3.28936 3.24086
# Velocity P-wave (km/s) = 6.62265 6.74605 6.68464
#
# Compressibility (1/GPa) = 0.01777518
#
# Stress axis : x y z
#
# Youngs Moduli (GPa) = 49.76752 49.76752 38.24814
#
# Poissons Ratio (x) = 0.02814 0.45349
# Poissons Ratio (y) = 0.02814 0.45349
# Poissons Ratio (z) = 0.59007 0.59007
#
# Static dielectric constant tensor:
#      x y z
#    x 1.678500 0.000000 0.000000 
#    y 0.000000 1.678500 0.000000 
#    z 0.000000 0.000000 1.648650 
# 
# From -- ./inp_files/2076.got.cif
#   From: 2010.05.17/outbox.cif.g08.bks.cpg/sg191_2_cif.got.tgz:2076.got - 2010.05.20 12:20:32.
