data_PCOD9587554
_publ_section_title
;
Structure prediction by ZEFSAII (Michael W. Deem and Ramdas Pophale) SiO2 
 PCOD9587554
Probable space group: P 6/M M M
;
_chemical_formula_sum "Si O2"
_cell_formula_units_Z 108
_cell_length_a 18.099131
_cell_length_b 18.099131
_cell_length_c 22.533992
_cell_angle_alpha 90.000000
_cell_angle_beta 90.000000
_cell_angle_gamma 120.000000
_cell_volume 6392.698385
_symmetry_space_group_name_H-M "P 6/M M M"
_symmetry_group_IT_number 191
_symmetry_cell_setting 'hexagonal'
loop_
_space_group_symop_operation_xyz
x,y,z
x-y,x,z
-y,x-y,z
-x,-y,z
-x+y,-x,z
y,-x+y,z
x-y,-y,-z
-x,-x+y,-z
y,x,-z
-y,-x,-z
-x+y,y,-z
x,x-y,-z
-x,-y,-z
-x+y,-x,-z
y,-x+y,-z
x,y,-z
x-y,x,-z
-y,x-y,-z
-x+y,y,z
x,x-y,z
-y,-x,z
y,x,z
x-y,-y,z
-x,-x+y,z
loop_
_atom_site_type_symbol
_atom_site_label
_atom_site_fract_x
_atom_site_fract_y
_atom_site_fract_z
Si Si1 0.101327 0.465193 0.147247
Si Si2 0.099017 0.900984 0.072318
Si Si3 0.097086 0.637965 0.500000
Si Si4 0.397144 0.198572 0.929110
Si Si5 0.505011 0.836189 0.629079
Si Si6 0.731840 0.097688 0.264353
O O1 0.128219 0.564110 0.150675
O O2 0.149889 0.442972 0.097584
O O3 0.115016 0.429775 0.209411
O O4 0.000000 0.412823 0.135324
O O5 0.148624 0.851377 0.090395
O O6 0.000000 0.851030 0.091451
O O7 0.098531 0.901470 0.000000
O O8 0.095654 0.547827 0.500000
O O9 0.141244 0.680216 0.561739
O O10 0.000000 0.616287 0.500000
O O11 0.399103 0.199552 0.000000
O O12 0.426991 0.853981 0.636425
O O13 0.473959 0.736980 0.639407
O O14 0.579655 0.888380 0.675941
O O15 0.831140 0.168861 0.262988
O O16 0.708692 0.000000 0.260175
#
# Coordination Sequence:
#
# PCOD9587554 Si02
#       6
#    24  12  12  12  24  24
#     4  10  21  38  58  79 104 136 176 219 263 311
#     4   9  17  30  51  80 112 142 171 206 253 315
#     4   9  17  28  42  64  98 141 185 225 265 308
#     4  11  22  37  56  79 106 139 176 217 266 323
#     4  10  19  30  47  73 106 144 183 223 264 307
#     4  10  20  36  58  81 104 134 173 216 261 311
#
# _framework density 16.894273999999999
#
# number of rings (size 3 to 8) (size 9 to 14) (size 15 to 20)
#    0.000    2.111    1.111    2.667    0.000    4.444 
#    0.667    2.222    0.000    0.222    0.000    0.000 
#    0.000    0.000    0.000    0.000    0.000   23.111 
#
# Total GULP energy -602508.399289 kJ/mol
# GULP energy per Si atom -5578.781475 kJ/mol
# Density = 1.685582 g / cm^3
# Si number density = 16.894274 Si / 1000 Ang^3
#
#
#
# Elastic Constant Matrix: (Units=GPa)
#
#
# Indices 1 2 3 4 5 6 
#
# 1 100.9513 70.8219 38.8015 0.0000 0.0000 0.0000
# 2 70.8219 100.9513 38.8015 0.0000 0.0000 0.0000
# 3 38.8015 38.8015 92.6828 0.0000 0.0000 0.0000
# 4 0.0000 0.0000 0.0000 19.9716 0.0000 0.0000
# 5 0.0000 0.0000 0.0000 0.0000 19.9716 0.0000
# 6 0.0000 0.0000 0.0000 0.0000 0.0000 15.0647
#
#
#
# Elastic Compliance Matrix: (Units=1/GPa)
#
#
# Indices 1 2 3 4 5 6 
#
# 1 0.020185 -0.013005 -0.003006 0.000000 0.000000 0.000000
# 2 -0.013005 0.020185 -0.003006 0.000000 0.000000 0.000000
# 3 -0.003006 -0.003006 0.013306 0.000000 0.000000 0.000000
# 4 0.000000 0.000000 0.000000 0.050071 0.000000 0.000000
# 5 0.000000 0.000000 0.000000 0.000000 0.050071 0.000000
# 6 0.000000 0.000000 0.000000 0.000000 0.000000 0.066380
#
#
# Mechanical properties :
#
#
# Convention : Reuss Voigt Hill
#
# Bulk Modulus (GPa) = 63.92876 65.71505 64.82190
# Shear Modulus (GPa) = 18.97921 20.74560 19.86240
#
# Velocity S-wave (km/s) = 3.35537 3.50804 3.43255
# Velocity P-wave (km/s) = 7.27557 7.44249 7.35951
#
# Compressibility (1/GPa) = 0.01564241
#
# Stress axis : x y z
#
# Youngs Moduli (GPa) = 49.54207 49.54207 75.15320
#
# Poissons Ratio (x) = 0.64431 0.22589
# Poissons Ratio (y) = 0.64431 0.22589
# Poissons Ratio (z) = 0.14891 0.14891
#
# Static dielectric constant tensor:
#      x y z
#    x 1.564410 0.000000 0.000000 
#    y 0.000000 1.564410 0.000000 
#    z 0.000000 0.000000 1.572310 
# 
# From -- ./inp_files/7352.got.cif
#   From: 2010.05.17/outbox.cif.g08.bks.cpg/sg191_4_cif.got.tgz:7352.got - 2010.05.20 12:20:32.
