data_PCOD9587910
_publ_section_title
;
Structure prediction by ZEFSAII (Michael W. Deem and Ramdas Pophale) SiO2 
 PCOD9587910
Probable space group: P 6/M M M
;
_chemical_formula_sum "Si O2"
_cell_formula_units_Z 168
_cell_length_a 27.742834
_cell_length_b 27.742834
_cell_length_c 14.190069
_cell_angle_alpha 90.000000
_cell_angle_beta 90.000000
_cell_angle_gamma 120.000000
_cell_volume 9458.380593
_symmetry_space_group_name_H-M "P 6/M M M"
_symmetry_group_IT_number 191
_symmetry_cell_setting 'hexagonal'
loop_
_space_group_symop_operation_xyz
x,y,z
x-y,x,z
-y,x-y,z
-x,-y,z
-x+y,-x,z
y,-x+y,z
x-y,-y,-z
-x,-x+y,-z
y,x,-z
-y,-x,-z
-x+y,y,-z
x,x-y,-z
-x,-y,-z
-x+y,-x,-z
y,-x+y,-z
x,y,-z
x-y,x,-z
-y,x-y,-z
-x+y,y,z
x,x-y,z
-y,-x,z
y,x,z
x-y,-y,z
-x,-x+y,z
loop_
_atom_site_type_symbol
_atom_site_label
_atom_site_fract_x
_atom_site_fract_y
_atom_site_fract_z
Si Si1 0.873864 0.747728 0.888150
Si Si2 0.870316 0.564742 0.891122
Si Si3 0.063398 0.936603 0.884957
Si Si4 0.574988 0.641260 0.605158
Si Si5 0.443139 0.666720 0.114132
Si Si6 0.413674 0.933963 0.795166
Si Si7 0.752637 0.066101 0.199109
Si Si8 0.229145 0.884146 0.394231
O O1 0.905195 0.810390 0.851167
O O2 0.810210 0.718487 0.856349
O O3 0.874487 0.748973 0.000000
O O4 0.816374 0.507664 0.855229
O O5 0.916181 0.546210 0.878793
O O6 0.895460 0.621753 0.832102
O O7 0.861843 0.575150 0.000000
O O8 0.000000 0.905132 0.854477
O O9 0.063700 0.936301 0.000000
O O10 0.550784 0.621692 0.500000
O O11 0.621471 0.621471 0.616683
O O12 0.533964 0.616124 0.693270
O O13 0.603392 0.707801 0.607125
O O14 0.426770 0.713385 0.136303
O O15 0.393886 0.606115 0.146527
O O16 0.445598 0.663251 0.000000
O O17 0.455603 0.911205 0.808245
O O18 0.449027 0.000000 0.792961
O O19 0.769342 0.077666 0.308818
O O20 0.711286 0.000000 0.182169
O O21 0.220729 0.899809 0.500000
O O22 0.179283 0.820718 0.377997
#
# Coordination Sequence:
#
# PCOD9587910 Si02
#       8
#    12  24  12  24  24  24  24  24
#     4  11  24  39  55  80 119 159 199 241 284 332
#     4  11  23  36  52  74 107 148 193 236 278 332
#     4   9  17  32  55  81 109 145 192 243 289 330
#     4   9  17  32  54  77 102 133 168 213 273 334
#     4   9  18  33  54  77 101 133 178 233 291 343
#     4  10  20  33  49  71 101 138 182 230 278 329
#     4  12  24  39  59  83 113 154 196 236 286 343
#     4  10  20  36  59  85 110 137 175 224 281 341
#
# _framework density 17.762025000000001
#
# number of rings (size 3 to 8) (size 9 to 14) (size 15 to 20)
#    0.000    1.857    2.143    2.357    1.000    5.429 
#    0.000    2.143    0.000    0.000    0.000    0.000 
#    0.000    0.000    0.000    0.000    0.000    7.929 
#
# Total GULP energy -935616.353641 kJ/mol
# GULP energy per Si atom -5569.144962 kJ/mol
# Density = 1.772160 g / cm^3
# Si number density = 17.762025 Si / 1000 Ang^3
#
#
#
# Elastic Constant Matrix: (Units=GPa)
#
#
# Indices 1 2 3 4 5 6 
#
# 1 106.8746 51.9655 17.2161 0.0000 0.0000 0.0000
# 2 51.9655 106.8746 17.2161 0.0000 0.0000 0.0000
# 3 17.2161 17.2161 43.9930 0.0000 0.0000 0.0000
# 4 0.0000 0.0000 0.0000 -6.0048 0.0000 0.0000
# 5 0.0000 0.0000 0.0000 0.0000 -6.0048 0.0000
# 6 0.0000 0.0000 0.0000 0.0000 0.0000 27.4546
#
#
#
# Elastic Compliance Matrix: (Units=1/GPa)
#
#
# Indices 1 2 3 4 5 6 
#
# 1 0.012546 -0.005666 -0.002692 0.000000 0.000000 0.000000
# 2 -0.005666 0.012546 -0.002692 0.000000 0.000000 0.000000
# 3 -0.002692 -0.002692 0.024838 0.000000 0.000000 0.000000
# 4 0.000000 0.000000 0.000000 -0.166534 0.000000 0.000000
# 5 0.000000 0.000000 0.000000 0.000000 -0.166534 0.000000
# 6 0.000000 0.000000 0.000000 0.000000 0.000000 0.036424
#
#
# Mechanical properties :
#
#
# Convention : Reuss Voigt Hill
#
# Bulk Modulus (GPa) = 35.93507 47.83752 41.88629
# Shear Modulus (GPa) = -23.21939 14.51197 -4.35371
#
# Velocity S-wave (km/s) = -3.61951 2.86146 -1.56731
# Velocity P-wave (km/s) = 1.67556 6.15696 4.51197
#
# Compressibility (1/GPa) = 0.02782797
#
# Stress axis : x y z
#
# Youngs Moduli (GPa) = 79.70951 79.70951 40.26099
#
# Poissons Ratio (x) = 0.45166 0.10839
# Poissons Ratio (y) = 0.45166 0.10839
# Poissons Ratio (z) = 0.21459 0.21459
#
# Static dielectric constant tensor:
#      x y z
#    x 1.629910 0.000000 0.000000 
#    y 0.000000 1.629910 0.000000 
#    z 0.000000 0.000000 1.630970 
# 
# From -- ./inp_files/5318.got.cif
#   From: 2010.05.17/outbox.cif.g08.bks.cpg/sg191_3_cif.got.tgz:5318.got - 2010.05.20 12:20:32.
