data_PCOD9587754
_publ_section_title
;
Structure prediction by ZEFSAII (Michael W. Deem and Ramdas Pophale) SiO2 
 PCOD9587754
Probable space group: P 6/M M M
;
_chemical_formula_sum "Si O2"
_cell_formula_units_Z 144
_cell_length_a 22.322590
_cell_length_b 22.322590
_cell_length_c 19.631979
_cell_angle_alpha 90.000000
_cell_angle_beta 90.000000
_cell_angle_gamma 120.000000
_cell_volume 8471.959633
_symmetry_space_group_name_H-M "P 6/M M M"
_symmetry_group_IT_number 191
_symmetry_cell_setting 'hexagonal'
loop_
_space_group_symop_operation_xyz
x,y,z
x-y,x,z
-y,x-y,z
-x,-y,z
-x+y,-x,z
y,-x+y,z
x-y,-y,-z
-x,-x+y,-z
y,x,-z
-y,-x,-z
-x+y,y,-z
x,x-y,-z
-x,-y,-z
-x+y,-x,-z
y,-x+y,-z
x,y,-z
x-y,x,-z
-y,x-y,-z
-x+y,y,z
x,x-y,z
-y,-x,z
y,x,z
x-y,-y,z
-x,-x+y,z
loop_
_atom_site_type_symbol
_atom_site_label
_atom_site_fract_x
_atom_site_fract_y
_atom_site_fract_z
Si Si1 0.920254 0.840507 0.583075
Si Si2 0.620931 0.701343 0.077382
Si Si3 0.298930 0.918976 0.334704
Si Si4 0.807256 0.473419 0.290669
Si Si5 0.078541 0.292664 0.796014
Si Si6 0.320130 0.160065 0.581363
Si Si7 0.666254 0.472853 0.873828
O O1 0.879893 0.879893 0.605470
O O2 0.920807 0.841613 0.500000
O O3 0.880220 0.760440 0.603557
O O4 0.642498 0.642498 0.084951
O O5 0.666163 0.758726 0.133129
O O6 0.540973 0.672819 0.092800
O O7 0.636884 0.727489 0.000000
O O8 0.335460 0.873444 0.324311
O O9 0.260022 0.914832 0.263668
O O10 0.237348 0.881800 0.389125
O O11 0.349690 0.000000 0.349789
O O12 0.737902 0.475803 0.308434
O O13 0.800264 0.400132 0.308788
O O14 0.814420 0.480312 0.208409
O O15 0.135410 0.270819 0.784914
O O16 0.000000 0.231073 0.795709
O O17 0.322592 0.161296 0.500000
O O18 0.733698 0.467396 0.891205
O O19 0.596520 0.403481 0.893283
#
# Coordination Sequence:
#
# PCOD9587754 Si02
#       7
#    12  24  24  24  24  12  24
#     4   9  17  30  49  76 112 153 191 221 252 302
#     4  10  21  35  52  76 105 139 180 227 275 320
#     4  11  21  35  57  85 115 145 182 228 273 323
#     4  10  19  34  56  84 113 143 186 234 278 325
#     4  10  19  34  55  78 106 141 181 223 268 317
#     4  11  22  37  58  83 115 151 185 223 276 337
#     4  10  20  33  51  74 106 143 182 223 264 316
#
# _framework density 16.997249
#
# number of rings (size 3 to 8) (size 9 to 14) (size 15 to 20)
#    0.000    1.833    3.333    1.417    0.000    5.000 
#    0.000    2.500    0.000    1.667    0.000    1.167 
#    0.000    0.000    0.000    4.167    0.000    0.000 
#
# Total GULP energy -803837.549696 kJ/mol
# GULP energy per Si atom -5582.205206 kJ/mol
# Density = 1.695856 g / cm^3
# Si number density = 16.997249 Si / 1000 Ang^3
#
#
#
# Elastic Constant Matrix: (Units=GPa)
#
#
# Indices 1 2 3 4 5 6 
#
# 1 89.9426 49.5812 22.9115 0.0000 0.0000 0.0000
# 2 49.5812 89.9426 22.9115 0.0000 0.0000 0.0000
# 3 22.9115 22.9115 51.1762 0.0000 0.0000 0.0000
# 4 0.0000 0.0000 0.0000 19.5463 0.0000 0.0000
# 5 0.0000 0.0000 0.0000 0.0000 19.5463 0.0000
# 6 0.0000 0.0000 0.0000 0.0000 0.0000 20.1807
#
#
#
# Elastic Compliance Matrix: (Units=1/GPa)
#
#
# Indices 1 2 3 4 5 6 
#
# 1 0.016589 -0.008187 -0.003762 0.000000 0.000000 0.000000
# 2 -0.008187 0.016589 -0.003762 0.000000 0.000000 0.000000
# 3 -0.003762 -0.003762 0.022909 0.000000 0.000000 0.000000
# 4 0.000000 0.000000 0.000000 0.051161 0.000000 0.000000
# 5 0.000000 0.000000 0.000000 0.000000 0.051161 0.000000
# 6 0.000000 0.000000 0.000000 0.000000 0.000000 0.049552
#
#
# Mechanical properties :
#
#
# Convention : Reuss Voigt Hill
#
# Bulk Modulus (GPa) = 40.54059 46.87441 43.70750
# Shear Modulus (GPa) = 20.19350 20.89845 20.54597
#
# Velocity S-wave (km/s) = 3.45054 3.51025 3.48053
# Velocity P-wave (km/s) = 6.30698 6.63828 6.47475
#
# Compressibility (1/GPa) = 0.02466664
#
# Stress axis : x y z
#
# Youngs Moduli (GPa) = 60.27925 60.27925 43.65147
#
# Poissons Ratio (x) = 0.49349 0.16421
# Poissons Ratio (y) = 0.49349 0.16421
# Poissons Ratio (z) = 0.22676 0.22676
#
# Static dielectric constant tensor:
#      x y z
#    x 1.560150 0.000000 0.000000 
#    y 0.000000 1.560150 0.000000 
#    z 0.000000 0.000000 1.577730 
# 
# From -- ./inp_files/7662.got.cif
#   From: 2010.05.17/outbox.cif.g08.bks.cpg/sg191_4_cif.got.tgz:7662.got - 2010.05.20 12:20:32.
