data_PCOD9587219
_publ_section_title
;
Structure prediction by ZEFSAII (Michael W. Deem and Ramdas Pophale) SiO2 
 PCOD9587219
Probable space group: P 6/M M M
;
_chemical_formula_sum "Si O2"
_cell_formula_units_Z 132
_cell_length_a 18.321209
_cell_length_b 18.321209
_cell_length_c 29.897669
_cell_angle_alpha 90.000000
_cell_angle_beta 90.000000
_cell_angle_gamma 120.000000
_cell_volume 8691.129461
_symmetry_space_group_name_H-M "P 6/M M M"
_symmetry_group_IT_number 191
_symmetry_cell_setting 'hexagonal'
loop_
_space_group_symop_operation_xyz
x,y,z
x-y,x,z
-y,x-y,z
-x,-y,z
-x+y,-x,z
y,-x+y,z
x-y,-y,-z
-x,-x+y,-z
y,x,-z
-y,-x,-z
-x+y,y,-z
x,x-y,-z
-x,-y,-z
-x+y,-x,-z
y,-x+y,-z
x,y,-z
x-y,x,-z
-y,x-y,-z
-x+y,y,z
x,x-y,z
-y,-x,z
y,x,z
x-y,-y,z
-x,-x+y,z
loop_
_atom_site_type_symbol
_atom_site_label
_atom_site_fract_x
_atom_site_fract_y
_atom_site_fract_z
Si Si1 0.363388 0.459214 0.702303
Si Si2 0.000000 0.659079 0.946325
Si Si3 0.490437 0.158205 0.897054
Si Si4 0.000000 0.169833 0.945603
Si Si5 0.503694 0.835159 0.203705
Si Si6 0.411309 0.000000 0.551285
Si Si7 0.494658 0.164985 0.393252
O O1 0.451179 0.548822 0.704265
O O2 0.389240 0.389240 0.694115
O O3 0.320939 0.445793 0.750814
O O4 0.317764 0.467161 0.658775
O O5 0.916313 0.577505 0.927821
O O6 0.000000 0.744807 0.932644
O O7 0.000000 0.656100 0.000000
O O8 0.582456 0.164912 0.900017
O O9 0.497761 0.248881 0.906709
O O10 0.458000 0.134846 0.845489
O O11 0.085125 0.170250 0.931151
O O12 0.000000 0.168553 0.000000
O O13 0.424269 0.848538 0.204827
O O14 0.473231 0.736616 0.205211
O O15 0.431703 0.083678 0.578092
O O16 0.500000 0.000000 0.550998
O O17 0.386458 0.000000 0.500000
O O18 0.586540 0.173079 0.395734
O O19 0.498692 0.249346 0.409573
#
# Coordination Sequence:
#
# PCOD9587219 Si02
#       7
#    24  12  24  12  24  12  24
#     4   9  16  26  41  62  90 121 150 183 228 280
#     4  11  23  37  52  72  98 126 157 196 241 285
#     4  10  21  36  53  72  95 125 161 199 239 284
#     4   9  17  31  53  78 100 120 143 176 222 277
#     4   9  17  28  44  65  89 116 149 190 233 275
#     4   9  18  32  45  58  84 120 155 197 248 287
#     4  10  18  29  45  66  90 120 159 199 236 276
#
# _framework density 15.187899
#
# number of rings (size 3 to 8) (size 9 to 14) (size 15 to 20)
#    0.000    2.455    0.909    2.000    1.273    4.000 
#    0.000    1.818    0.000    2.182    0.000    0.000 
#    0.000    0.000    0.000    0.273    0.000    1.182 
#
# Total GULP energy -734865.509900 kJ/mol
# GULP energy per Si atom -5567.162954 kJ/mol
# Density = 1.515333 g / cm^3
# Si number density = 15.187899 Si / 1000 Ang^3
#
#
#
# Elastic Constant Matrix: (Units=GPa)
#
#
# Indices 1 2 3 4 5 6 
#
# 1 81.9863 45.1924 44.6222 0.0000 0.0000 0.0000
# 2 45.1924 81.9863 44.6222 0.0000 0.0000 0.0000
# 3 44.6222 44.6222 89.5966 0.0000 0.0000 0.0000
# 4 0.0000 0.0000 0.0000 6.2423 0.0000 0.0000
# 5 0.0000 0.0000 0.0000 0.0000 6.2423 0.0000
# 6 0.0000 0.0000 0.0000 0.0000 0.0000 18.3969
#
#
#
# Elastic Compliance Matrix: (Units=1/GPa)
#
#
# Indices 1 2 3 4 5 6 
#
# 1 0.019633 -0.007546 -0.006020 0.000000 0.000000 0.000000
# 2 -0.007546 0.019633 -0.006020 0.000000 0.000000 0.000000
# 3 -0.006020 -0.006020 0.017157 0.000000 0.000000 0.000000
# 4 0.000000 0.000000 0.000000 0.160199 0.000000 0.000000
# 5 0.000000 0.000000 0.000000 0.000000 0.160199 0.000000
# 6 0.000000 0.000000 0.000000 0.000000 0.000000 0.054357
#
#
# Mechanical properties :
#
#
# Convention : Reuss Voigt Hill
#
# Bulk Modulus (GPa) = 57.96308 58.04921 58.00614
# Shear Modulus (GPa) = 10.50202 14.11844 12.31023
#
# Velocity S-wave (km/s) = 2.63244 3.05222 2.85007
# Velocity P-wave (km/s) = 6.89104 7.12215 7.00755
#
# Compressibility (1/GPa) = 0.01725236
#
# Stress axis : x y z
#
# Youngs Moduli (GPa) = 50.93503 50.93503 58.28410
#
# Poissons Ratio (x) = 0.38434 0.35086
# Poissons Ratio (y) = 0.38434 0.35086
# Poissons Ratio (z) = 0.30662 0.30662
#
# Static dielectric constant tensor:
#      x y z
#    x 1.496780 0.000000 0.000000 
#    y 0.000000 1.496780 0.000000 
#    z 0.000000 0.000000 1.540000 
# 
# From -- ./inp_files/10585.got.cif
#   From: 2010.05.17/outbox.cif.g08.bks.cpg/sg191_6_cif.got.tgz:10585.got - 2010.05.20 12:20:32.
