data_PCOD9587962
_publ_section_title
;
Structure prediction by ZEFSAII (Michael W. Deem and Ramdas Pophale) SiO2 
 PCOD9587962
Probable space group: P 6/M M M
;
_chemical_formula_sum "Si O2"
_cell_formula_units_Z 120
_cell_length_a 23.536418
_cell_length_b 23.536418
_cell_length_c 14.153695
_cell_angle_alpha 90.000000
_cell_angle_beta 90.000000
_cell_angle_gamma 120.000000
_cell_volume 6790.178657
_symmetry_space_group_name_H-M "P 6/M M M"
_symmetry_group_IT_number 191
_symmetry_cell_setting 'hexagonal'
loop_
_space_group_symop_operation_xyz
x,y,z
x-y,x,z
-y,x-y,z
-x,-y,z
-x+y,-x,z
y,-x+y,z
x-y,-y,-z
-x,-x+y,-z
y,x,-z
-y,-x,-z
-x+y,y,-z
x,x-y,-z
-x,-y,-z
-x+y,-x,-z
y,-x+y,-z
x,y,-z
x-y,x,-z
-y,x-y,-z
-x+y,y,z
x,x-y,z
-y,-x,z
y,x,z
x-y,-y,z
-x,-x+y,z
loop_
_atom_site_type_symbol
_atom_site_label
_atom_site_fract_x
_atom_site_fract_y
_atom_site_fract_z
Si Si1 0.260705 0.869362 0.886323
Si Si2 0.723355 0.798594 0.615233
Si Si3 0.000000 0.260639 0.884940
Si Si4 0.394499 0.921036 0.790434
Si Si5 0.000000 0.129589 0.115320
Si Si6 0.327839 0.407159 0.394123
O O1 0.198046 0.801955 0.852685
O O2 0.331319 0.881577 0.855701
O O3 0.258329 0.933748 0.852676
O O4 0.257406 0.869024 0.000000
O O5 0.727151 0.800647 0.500000
O O6 0.740847 0.870423 0.649273
O O7 0.769246 0.769246 0.647245
O O8 0.647346 0.745536 0.635589
O O9 0.000000 0.195113 0.858297
O O10 0.000000 0.263063 0.000000
O O11 0.453430 0.906860 0.805806
O O12 0.366251 0.904592 0.683982
O O13 0.425842 0.000000 0.804475
O O14 0.065040 0.130079 0.147641
O O15 0.000000 0.127907 0.000000
O O16 0.327338 0.431168 0.500000
O O17 0.365581 0.365581 0.399012
#
# Coordination Sequence:
#
# PCOD9587962 Si02
#       6
#    24  24  12  24  12  24
#     4  10  20  34  52  74 102 137 176 219 265 308
#     4   8  13  22  38  61  91 128 168 209 253 301
#     4   9  16  29  47  67  92 126 171 221 267 307
#     4  10  20  33  51  77 106 133 164 205 256 309
#     4   9  15  22  35  59  92 128 165 207 258 316
#     4   8  15  28  45  68  99 131 162 197 245 308
#
# _framework density 17.672582999999999
#
# number of rings (size 3 to 8) (size 9 to 14) (size 15 to 20)
#    0.000    3.000    1.000    1.900    0.000    4.400 
#    0.000    3.000    0.000    0.600    0.000    1.400 
#    0.000    0.000    0.000    0.000    0.000    0.000 
#
# Total GULP energy -669214.466232 kJ/mol
# GULP energy per Si atom -5576.787219 kJ/mol
# Density = 1.763236 g / cm^3
# Si number density = 17.672583 Si / 1000 Ang^3
#
#
#
# Elastic Constant Matrix: (Units=GPa)
#
#
# Indices 1 2 3 4 5 6 
#
# 1 117.8566 85.7148 20.3621 0.0000 0.0000 0.0000
# 2 85.7148 117.8566 20.3621 0.0000 0.0000 0.0000
# 3 20.3621 20.3621 42.7861 0.0000 0.0000 0.0000
# 4 0.0000 0.0000 0.0000 13.9455 0.0000 0.0000
# 5 0.0000 0.0000 0.0000 0.0000 13.9455 0.0000
# 6 0.0000 0.0000 0.0000 0.0000 0.0000 16.0709
#
#
#
# Elastic Compliance Matrix: (Units=1/GPa)
#
#
# Indices 1 2 3 4 5 6 
#
# 1 0.018271 -0.012841 -0.002584 0.000000 0.000000 0.000000
# 2 -0.012841 0.018271 -0.002584 0.000000 0.000000 0.000000
# 3 -0.002584 -0.002584 0.025831 0.000000 0.000000 0.000000
# 4 0.000000 0.000000 0.000000 0.071708 0.000000 0.000000
# 5 0.000000 0.000000 0.000000 0.000000 0.071708 0.000000
# 6 0.000000 0.000000 0.000000 0.000000 0.000000 0.062224
#
#
# Mechanical properties :
#
#
# Convention : Reuss Voigt Hill
#
# Bulk Modulus (GPa) = 37.94406 59.04192 48.49299
# Shear Modulus (GPa) = 15.98386 18.92972 17.45679
#
# Velocity S-wave (km/s) = 3.01066 3.27637 3.14632
# Velocity P-wave (km/s) = 5.79678 6.91333 6.37953
#
# Compressibility (1/GPa) = 0.02635459
#
# Stress axis : x y z
#
# Youngs Moduli (GPa) = 54.73261 54.73261 38.71271
#
# Poissons Ratio (x) = 0.70285 0.10002
# Poissons Ratio (y) = 0.70285 0.10002
# Poissons Ratio (z) = 0.14142 0.14142
#
# Static dielectric constant tensor:
#      x y z
#    x 1.587460 0.000000 0.000000 
#    y 0.000000 1.587460 0.000000 
#    z 0.000000 0.000000 1.678450 
# 
# From -- ./inp_files/4766.got.cif
#   From: 2010.05.17/outbox.cif.g08.bks.cpg/sg191_3_cif.got.tgz:4766.got - 2010.05.20 12:20:32.
