data_PCOD9587604
_publ_section_title
;
Structure prediction by ZEFSAII (Michael W. Deem and Ramdas Pophale) SiO2 
 PCOD9587604
Probable space group: P 6/M M M
;
_chemical_formula_sum "Si O2"
_cell_formula_units_Z 120
_cell_length_a 24.394957
_cell_length_b 24.394957
_cell_length_c 14.607202
_cell_angle_alpha 90.000000
_cell_angle_beta 90.000000
_cell_angle_gamma 120.000000
_cell_volume 7528.314967
_symmetry_space_group_name_H-M "P 6/M M M"
_symmetry_group_IT_number 191
_symmetry_cell_setting 'hexagonal'
loop_
_space_group_symop_operation_xyz
x,y,z
x-y,x,z
-y,x-y,z
-x,-y,z
-x+y,-x,z
y,-x+y,z
x-y,-y,-z
-x,-x+y,-z
y,x,-z
-y,-x,-z
-x+y,y,-z
x,x-y,-z
-x,-y,-z
-x+y,-x,-z
y,-x+y,-z
x,y,-z
x-y,x,-z
-y,x-y,-z
-x+y,y,z
x,x-y,z
-y,-x,z
y,x,z
x-y,-y,z
-x,-x+y,z
loop_
_atom_site_type_symbol
_atom_site_label
_atom_site_fract_x
_atom_site_fract_y
_atom_site_fract_z
Si Si1 0.138298 0.735931 0.390622
Si Si2 0.266988 0.070861 0.293703
Si Si3 0.075628 0.628618 0.899991
Si Si4 0.331640 0.103006 0.102052
Si Si5 0.076161 0.476534 0.698483
O O1 0.132492 0.734147 0.500000
O O2 0.210661 0.789340 0.366734
O O3 0.094873 0.761747 0.346679
O O4 0.114488 0.666093 0.352632
O O5 0.246969 0.123485 0.309624
O O6 0.284441 0.072763 0.186319
O O7 0.216885 0.000000 0.320634
O O8 0.089275 0.700224 0.889787
O O9 0.095802 0.611196 0.805636
O O10 0.000000 0.583219 0.903618
O O11 0.100919 0.623538 0.000000
O O12 0.355551 0.177776 0.107903
O O13 0.303916 0.081802 0.000000
O O14 0.086359 0.543180 0.662718
O O15 0.000000 0.427118 0.693642
#
# Coordination Sequence:
#
# PCOD9587604 Si02
#       5
#    24  24  24  24  24
#     4  10  21  36  53  71  92 122 159 200 245 288
#     4  10  19  31  48  70  96 125 158 196 239 288
#     4   9  16  26  41  62  93 130 160 186 221 268
#     4   9  16  25  41  67  95 123 157 196 237 279
#     4  10  20  32  48  73 102 130 159 191 231 280
#
# _framework density 15.939821999999999
#
# number of rings (size 3 to 8) (size 9 to 14) (size 15 to 20)
#    0.000    2.400    2.000    1.200    0.000    3.600 
#    0.000    3.000    0.000    0.600    0.000    0.000 
#    0.000    0.000    0.000   10.000    0.000    0.000 
#
# Total GULP energy -668537.212028 kJ/mol
# GULP energy per Si atom -5571.143434 kJ/mol
# Density = 1.590354 g / cm^3
# Si number density = 15.939822 Si / 1000 Ang^3
#
#
#
# Elastic Constant Matrix: (Units=GPa)
#
#
# Indices 1 2 3 4 5 6 
#
# 1 88.1594 51.2324 39.2666 0.0000 0.0000 0.0000
# 2 51.2324 88.1594 39.2666 0.0000 0.0000 0.0000
# 3 39.2666 39.2666 70.9826 0.0000 0.0000 0.0000
# 4 0.0000 0.0000 0.0000 7.5937 0.0000 0.0000
# 5 0.0000 0.0000 0.0000 0.0000 7.5937 0.0000
# 6 0.0000 0.0000 0.0000 0.0000 0.0000 18.4635
#
#
#
# Elastic Compliance Matrix: (Units=1/GPa)
#
#
# Indices 1 2 3 4 5 6 
#
# 1 0.018751 -0.008329 -0.005765 0.000000 0.000000 0.000000
# 2 -0.008329 0.018751 -0.005765 0.000000 0.000000 0.000000
# 3 -0.005765 -0.005765 0.020467 0.000000 0.000000 0.000000
# 4 0.000000 0.000000 0.000000 0.131689 0.000000 0.000000
# 5 0.000000 0.000000 0.000000 0.000000 0.131689 0.000000
# 6 0.000000 0.000000 0.000000 0.000000 0.000000 0.054161
#
#
# Mechanical properties :
#
#
# Convention : Reuss Voigt Hill
#
# Bulk Modulus (GPa) = 54.79629 56.31475 55.55552
# Shear Modulus (GPa) = 11.86773 14.56589 13.21681
#
# Velocity S-wave (km/s) = 2.73157 3.02620 2.88265
# Velocity P-wave (km/s) = 6.66335 6.90049 6.78296
#
# Compressibility (1/GPa) = 0.01824941
#
# Stress axis : x y z
#
# Youngs Moduli (GPa) = 53.32945 53.32945 48.85982
#
# Poissons Ratio (x) = 0.44419 0.28170
# Poissons Ratio (y) = 0.44419 0.28170
# Poissons Ratio (z) = 0.30747 0.30747
#
# Static dielectric constant tensor:
#      x y z
#    x 1.524680 0.000000 0.000000 
#    y 0.000000 1.524680 0.000000 
#    z 0.000000 0.000000 1.577050 
# 
# From -- ./inp_files/4669.got.cif
#   From: 2010.05.17/outbox.cif.g08.bks.cpg/sg191_3_cif.got.tgz:4669.got - 2010.05.20 12:20:32.
