data_PCOD9587553
_publ_section_title
;
Structure prediction by ZEFSAII (Michael W. Deem and Ramdas Pophale) SiO2 
 PCOD9587553
Probable space group: P 6/M M M
;
_chemical_formula_sum "Si O2"
_cell_formula_units_Z 132
_cell_length_a 18.171305
_cell_length_b 18.171305
_cell_length_c 27.598070
_cell_angle_alpha 90.000000
_cell_angle_beta 90.000000
_cell_angle_gamma 120.000000
_cell_volume 7891.900107
_symmetry_space_group_name_H-M "P 6/M M M"
_symmetry_group_IT_number 191
_symmetry_cell_setting 'hexagonal'
loop_
_space_group_symop_operation_xyz
x,y,z
x-y,x,z
-y,x-y,z
-x,-y,z
-x+y,-x,z
y,-x+y,z
x-y,-y,-z
-x,-x+y,-z
y,x,-z
-y,-x,-z
-x+y,y,-z
x,x-y,-z
-x,-y,-z
-x+y,-x,-z
y,-x+y,-z
x,y,-z
x-y,x,-z
-y,x-y,-z
-x+y,y,z
x,x-y,z
-y,-x,z
y,x,z
x-y,-y,z
-x,-x+y,z
loop_
_atom_site_type_symbol
_atom_site_label
_atom_site_fract_x
_atom_site_fract_y
_atom_site_fract_z
Si Si1 0.365166 0.467708 0.000000
Si Si2 0.829948 0.829948 0.441042
Si Si3 0.492927 0.330589 0.609020
Si Si4 0.900977 0.267407 0.907398
Si Si5 0.163340 0.668575 0.179794
Si Si6 0.000000 0.658465 0.441918
Si Si7 0.459332 0.096713 0.285584
O O1 0.308117 0.432085 0.952196
O O2 0.421950 0.421950 0.000000
O O3 0.431684 0.568317 0.000000
O O4 0.914754 0.829508 0.425080
O O5 0.831404 0.831404 0.500000
O O6 0.744421 0.744421 0.426907
O O7 0.499347 0.249674 0.592875
O O8 0.583340 0.416661 0.605324
O O9 0.422798 0.339775 0.578950
O O10 0.464271 0.318863 0.665396
O O11 0.832830 0.167171 0.906152
O O12 0.888304 0.309416 0.858972
O O13 0.000000 0.295565 0.912661
O O14 0.147440 0.573720 0.173540
O O15 0.262131 0.737870 0.172629
O O16 0.137985 0.678132 0.234443
O O17 0.000000 0.655224 0.500000
O O18 0.546798 0.093596 0.285500
O O19 0.383562 0.000000 0.288254
#
# Coordination Sequence:
#
# PCOD9587553 Si02
#       7
#    12  12  24  24  24  12  24
#     4   9  17  30  49  72 100 134 172 207 243 296
#     4   9  17  31  53  81 109 135 165 203 248 297
#     4  11  22  37  56  78 104 136 175 217 259 304
#     4  10  20  33  50  73 100 134 175 221 268 314
#     4  10  19  30  47  73 106 140 174 212 255 302
#     4  11  23  39  57  77 105 139 171 206 253 309
#     4   9  17  31  50  72  99 133 170 208 251 300
#
# _framework density 16.726009000000001
#
# number of rings (size 3 to 8) (size 9 to 14) (size 15 to 20)
#    0.000    2.091    0.909    3.182    0.000    4.000 
#    0.000    1.818    0.000    3.818    0.000    0.000 
#    0.000    2.182    0.000    0.000    0.000    0.000 
#
# Total GULP energy -736161.388223 kJ/mol
# GULP energy per Si atom -5576.980214 kJ/mol
# Density = 1.668794 g / cm^3
# Si number density = 16.726009 Si / 1000 Ang^3
#
#
#
# Elastic Constant Matrix: (Units=GPa)
#
#
# Indices 1 2 3 4 5 6 
#
# 1 107.5350 72.4190 37.7326 0.0000 0.0000 0.0000
# 2 72.4190 107.5350 37.7326 0.0000 0.0000 0.0000
# 3 37.7326 37.7326 87.8678 0.0000 0.0000 0.0000
# 4 0.0000 0.0000 0.0000 18.1800 0.0000 0.0000
# 5 0.0000 0.0000 0.0000 0.0000 18.1800 0.0000
# 6 0.0000 0.0000 0.0000 0.0000 0.0000 17.5580
#
#
#
# Elastic Compliance Matrix: (Units=1/GPa)
#
#
# Indices 1 2 3 4 5 6 
#
# 1 0.017627 -0.010850 -0.002910 0.000000 0.000000 0.000000
# 2 -0.010850 0.017627 -0.002910 0.000000 0.000000 0.000000
# 3 -0.002910 -0.002910 0.013880 0.000000 0.000000 0.000000
# 4 0.000000 0.000000 0.000000 0.055006 0.000000 0.000000
# 5 0.000000 0.000000 0.000000 0.000000 0.055006 0.000000
# 6 0.000000 0.000000 0.000000 0.000000 0.000000 0.056954
#
#
# Mechanical properties :
#
#
# Convention : Reuss Voigt Hill
#
# Bulk Modulus (GPa) = 63.31664 66.52291 64.91977
# Shear Modulus (GPa) = 19.63049 21.12051 20.37550
#
# Velocity S-wave (km/s) = 3.42958 3.55735 3.49405
# Velocity P-wave (km/s) = 7.32257 7.53203 7.42804
#
# Compressibility (1/GPa) = 0.01579364
#
# Stress axis : x y z
#
# Youngs Moduli (GPa) = 56.73031 56.73031 72.04439
#
# Poissons Ratio (x) = 0.61551 0.20968
# Poissons Ratio (y) = 0.61551 0.20968
# Poissons Ratio (z) = 0.16511 0.16511
#
# Static dielectric constant tensor:
#      x y z
#    x 1.556670 0.000000 0.000000 
#    y 0.000000 1.556670 0.000000 
#    z 0.000000 0.000000 1.570350 
# 
# From -- ./inp_files/8746.got.cif
#   From: 2010.05.17/outbox.cif.g08.bks.cpg/sg191_5_cif.got.tgz:8746.got - 2010.05.20 12:20:32.
