data_PCOD9587935
_publ_section_title
;
Structure prediction by ZEFSAII (Michael W. Deem and Ramdas Pophale) SiO2 
 PCOD9587935
Probable space group: P 6/M M M
;
_chemical_formula_sum "Si O2"
_cell_formula_units_Z 132
_cell_length_a 18.189402
_cell_length_b 18.189402
_cell_length_c 28.143094
_cell_angle_alpha 90.000000
_cell_angle_beta 90.000000
_cell_angle_gamma 120.000000
_cell_volume 8063.791975
_symmetry_space_group_name_H-M "P 6/M M M"
_symmetry_group_IT_number 191
_symmetry_cell_setting 'hexagonal'
loop_
_space_group_symop_operation_xyz
x,y,z
x-y,x,z
-y,x-y,z
-x,-y,z
-x+y,-x,z
y,-x+y,z
x-y,-y,-z
-x,-x+y,-z
y,x,-z
-y,-x,-z
-x+y,y,-z
x,x-y,-z
-x,-y,-z
-x+y,-x,-z
y,-x+y,-z
x,y,-z
x-y,x,-z
-y,x-y,-z
-x+y,y,z
x,x-y,z
-y,-x,z
y,x,z
x-y,-y,z
-x,-x+y,z
loop_
_atom_site_type_symbol
_atom_site_label
_atom_site_fract_x
_atom_site_fract_y
_atom_site_fract_z
Si Si1 0.333745 0.839045 0.944745
Si Si2 0.635000 0.903248 0.587874
Si Si3 0.641357 0.735238 0.136619
Si Si4 0.504923 0.838802 0.217622
Si Si5 0.332448 0.839680 0.500000
Si Si6 0.838691 0.504999 0.328461
O O1 0.423863 0.847726 0.933216
O O2 0.259035 0.740966 0.939863
O O3 0.309359 0.891297 0.909036
O O4 0.334920 0.862855 0.000000
O O5 0.661695 0.830848 0.585704
O O6 0.566550 0.881144 0.545876
O O7 0.583624 0.890184 0.636770
O O8 0.709118 0.000000 0.583280
O O9 0.664717 0.832359 0.136510
O O10 0.719343 0.719343 0.136520
O O11 0.582438 0.691039 0.182496
O O12 0.423927 0.847853 0.205451
O O13 0.481529 0.740765 0.212505
O O14 0.526142 0.861821 0.273050
O O15 0.259666 0.740334 0.500000
O O16 0.425092 0.850183 0.500000
O O17 0.740072 0.480145 0.333365
O O18 0.848933 0.424467 0.340885
#
# Coordination Sequence:
#
# PCOD9587935 Si02
#       6
#    24  24  24  24  12  24
#     4   9  17  29  46  69  98 131 162 187 211 246
#     4  10  21  35  50  69  93 122 156 196 242 285
#     4  10  21  35  49  66  89 117 150 190 237 283
#     4   9  17  29  46  69  98 131 162 188 215 254
#     4  10  20  33  50  73 102 134 163 188 216 257
#     4   9  17  29  46  69  98 131 163 191 219 256
#
# _framework density 16.36947
#
# number of rings (size 3 to 8) (size 9 to 14) (size 15 to 20)
#    0.000    2.545    0.000    2.000    0.000    6.545 
#    0.000    6.364    0.000    0.364    0.000    0.000 
#    0.000    2.182    0.000   13.636    0.000    0.000 
#
# Total GULP energy -736469.472660 kJ/mol
# GULP energy per Si atom -5579.314187 kJ/mol
# Density = 1.633221 g / cm^3
# Si number density = 16.369470 Si / 1000 Ang^3
#
#
#
# Elastic Constant Matrix: (Units=GPa)
#
#
# Indices 1 2 3 4 5 6 
#
# 1 82.0981 75.9606 41.6093 0.0000 0.0000 0.0000
# 2 75.9606 82.0981 41.6093 0.0000 0.0000 0.0000
# 3 41.6093 41.6093 57.1184 0.0000 0.0000 0.0000
# 4 0.0000 0.0000 0.0000 10.8228 0.0000 0.0000
# 5 0.0000 0.0000 0.0000 0.0000 10.8228 0.0000
# 6 0.0000 0.0000 0.0000 0.0000 0.0000 3.0687
#
#
#
# Elastic Compliance Matrix: (Units=1/GPa)
#
#
# Indices 1 2 3 4 5 6 
#
# 1 0.086598 -0.076335 -0.007476 0.000000 0.000000 0.000000
# 2 -0.076335 0.086598 -0.007476 0.000000 0.000000 0.000000
# 3 -0.007476 -0.007476 0.028400 0.000000 0.000000 0.000000
# 4 0.000000 0.000000 0.000000 0.092398 0.000000 0.000000
# 5 0.000000 0.000000 0.000000 0.000000 0.092398 0.000000
# 6 0.000000 0.000000 0.000000 0.000000 0.000000 0.325867
#
#
# Mechanical properties :
#
#
# Convention : Reuss Voigt Hill
#
# Bulk Modulus (GPa) = 52.57395 59.96363 56.26879
# Shear Modulus (GPa) = 5.54831 9.08521 7.31676
#
# Velocity S-wave (km/s) = 1.84304 2.35842 2.11647
# Velocity P-wave (km/s) = 6.05936 6.64282 6.35779
#
# Compressibility (1/GPa) = 0.01902083
#
# Stress axis : x y z
#
# Youngs Moduli (GPa) = 11.54758 11.54758 35.21092
#
# Poissons Ratio (x) = 0.88149 0.26325
# Poissons Ratio (y) = 0.88149 0.26325
# Poissons Ratio (z) = 0.08633 0.08633
#
# Static dielectric constant tensor:
#      x y z
#    x 1.529440 0.000000 0.000000 
#    y 0.000000 1.529440 0.000000 
#    z 0.000000 0.000000 1.570070 
# 
# From -- ./inp_files/9836.got.cif
#   From: 2010.05.17/outbox.cif.g08.bks.cpg/sg191_5_cif.got.tgz:9836.got - 2010.05.20 12:20:32.
