data_PCOD9587167
_publ_section_title
;
Structure prediction by ZEFSAII (Michael W. Deem and Ramdas Pophale) SiO2 
 PCOD9587167
Probable space group: P 6/M M M
;
_chemical_formula_sum "Si O2"
_cell_formula_units_Z 168
_cell_length_a 23.151464
_cell_length_b 23.151464
_cell_length_c 20.975657
_cell_angle_alpha 90.000000
_cell_angle_beta 90.000000
_cell_angle_gamma 120.000000
_cell_volume 9736.505706
_symmetry_space_group_name_H-M "P 6/M M M"
_symmetry_group_IT_number 191
_symmetry_cell_setting 'hexagonal'
loop_
_space_group_symop_operation_xyz
x,y,z
x-y,x,z
-y,x-y,z
-x,-y,z
-x+y,-x,z
y,-x+y,z
x-y,-y,-z
-x,-x+y,-z
y,x,-z
-y,-x,-z
-x+y,y,-z
x,x-y,-z
-x,-y,-z
-x+y,-x,-z
y,-x+y,-z
x,y,-z
x-y,x,-z
-y,x-y,-z
-x+y,y,z
x,x-y,z
-y,-x,z
y,x,z
x-y,-y,z
-x,-x+y,z
loop_
_atom_site_type_symbol
_atom_site_label
_atom_site_fract_x
_atom_site_fract_y
_atom_site_fract_z
Si Si1 0.075758 0.280805 0.422472
Si Si2 0.139712 0.727938 0.773736
Si Si3 0.393188 0.920754 0.325692
Si Si4 0.791464 0.718070 0.139882
Si Si5 0.460441 0.664083 0.862676
Si Si6 0.847504 0.285085 0.423808
Si Si7 0.174837 0.489990 0.000000
Si Si8 0.239546 0.898553 0.000000
O O1 0.074204 0.277291 0.500000
O O2 0.130626 0.261252 0.400827
O O3 0.105965 0.358841 0.406951
O O4 0.000000 0.235775 0.399351
O O5 0.204535 0.795466 0.747007
O O6 0.102136 0.667250 0.724766
O O7 0.094161 0.751420 0.810685
O O8 0.168687 0.698724 0.826461
O O9 0.454534 0.909068 0.306778
O O10 0.354364 0.876955 0.387262
O O11 0.426970 0.000000 0.337800
O O12 0.867814 0.735628 0.142295
O O13 0.777077 0.777077 0.155239
O O14 0.765706 0.693620 0.067545
O O15 0.435800 0.717900 0.863555
O O16 0.404357 0.595644 0.832789
O O17 0.474251 0.651958 0.934787
O O18 0.850681 0.293694 0.500000
O O19 0.771742 0.228259 0.407541
O O20 0.113299 0.415197 0.000000
O O21 0.243243 0.486485 0.000000
O O22 0.173962 0.826039 0.000000
#
# Coordination Sequence:
#
# PCOD9587167 Si02
#       8
#    24  24  24  24  24  24  12  12
#     4   8  13  22  39  64  92 121 153 190 231 273
#     4  10  20  35  53  70  94 132 174 213 250 288
#     4  11  23  36  51  74 104 135 165 198 243 299
#     4  10  19  32  53  78 103 131 166 209 252 296
#     4  10  18  28  44  66  93 125 165 214 265 312
#     4   9  18  34  56  78  98 123 158 201 247 294
#     4   9  15  26  42  64  92 122 163 210 259 308
#     4   9  15  28  47  72  99 127 167 209 254 300
#
# _framework density 17.254650999999999
#
# number of rings (size 3 to 8) (size 9 to 14) (size 15 to 20)
#    0.000    2.429    1.429    3.143    0.000    1.143 
#    0.000    1.429    0.000    3.429    0.000    2.000 
#    0.000    1.714    0.000    0.000    0.000   29.714 
#
# Total GULP energy -935729.338075 kJ/mol
# GULP energy per Si atom -5569.817489 kJ/mol
# Density = 1.721538 g / cm^3
# Si number density = 17.254651 Si / 1000 Ang^3
#
#
#
# Elastic Constant Matrix: (Units=GPa)
#
#
# Indices 1 2 3 4 5 6 
#
# 1 92.2417 52.6677 26.5555 0.0000 0.0000 0.0000
# 2 52.6677 92.2417 26.5555 0.0000 0.0000 0.0000
# 3 26.5555 26.5555 56.0755 0.0000 0.0000 0.0000
# 4 0.0000 0.0000 0.0000 35.4825 0.0000 0.0000
# 5 0.0000 0.0000 0.0000 0.0000 35.4825 0.0000
# 6 0.0000 0.0000 0.0000 0.0000 0.0000 19.7870
#
#
#
# Elastic Compliance Matrix: (Units=1/GPa)
#
#
# Indices 1 2 3 4 5 6 
#
# 1 0.016810 -0.008459 -0.003954 0.000000 0.000000 0.000000
# 2 -0.008459 0.016810 -0.003954 0.000000 0.000000 0.000000
# 3 -0.003954 -0.003954 0.021578 0.000000 0.000000 0.000000
# 4 0.000000 0.000000 0.000000 0.028183 0.000000 0.000000
# 5 0.000000 0.000000 0.000000 0.000000 0.028183 0.000000
# 6 0.000000 0.000000 0.000000 0.000000 0.000000 0.050538
#
#
# Mechanical properties :
#
#
# Convention : Reuss Voigt Hill
#
# Bulk Modulus (GPa) = 44.52103 50.23518 47.37810
# Shear Modulus (GPa) = 24.71267 27.13573 25.92420
#
# Velocity S-wave (km/s) = 3.78859 3.96998 3.88035
# Velocity P-wave (km/s) = 6.70792 7.08460 6.89883
#
# Compressibility (1/GPa) = 0.02246129
#
# Stress axis : x y z
#
# Youngs Moduli (GPa) = 59.48963 59.48963 46.34259
#
# Poissons Ratio (x) = 0.50325 0.18326
# Poissons Ratio (y) = 0.50325 0.18326
# Poissons Ratio (z) = 0.23524 0.23524
#
# Static dielectric constant tensor:
#      x y z
#    x 1.580240 0.000000 0.000000 
#    y 0.000000 1.580240 0.000000 
#    z 0.000000 0.000000 1.611520 
# 
# From -- ./inp_files/8058.got.cif
#   From: 2010.05.17/outbox.cif.g08.bks.cpg/sg191_5_cif.got.tgz:8058.got - 2010.05.20 12:20:32.
