data_PCOD9587534
_publ_section_title
;
Structure prediction by ZEFSAII (Michael W. Deem and Ramdas Pophale) SiO2 
 PCOD9587534
Probable space group: P 6/M M M
;
_chemical_formula_sum "Si O2"
_cell_formula_units_Z 108
_cell_length_a 17.898696
_cell_length_b 17.898696
_cell_length_c 23.754571
_cell_angle_alpha 90.000000
_cell_angle_beta 90.000000
_cell_angle_gamma 120.000000
_cell_volume 6590.534032
_symmetry_space_group_name_H-M "P 6/M M M"
_symmetry_group_IT_number 191
_symmetry_cell_setting 'hexagonal'
loop_
_space_group_symop_operation_xyz
x,y,z
x-y,x,z
-y,x-y,z
-x,-y,z
-x+y,-x,z
y,-x+y,z
x-y,-y,-z
-x,-x+y,-z
y,x,-z
-y,-x,-z
-x+y,y,-z
x,x-y,-z
-x,-y,-z
-x+y,-x,-z
y,-x+y,-z
x,y,-z
x-y,x,-z
-y,x-y,-z
-x+y,y,z
x,x-y,z
-y,-x,z
y,x,z
x-y,-y,z
-x,-x+y,z
loop_
_atom_site_type_symbol
_atom_site_label
_atom_site_fract_x
_atom_site_fract_y
_atom_site_fract_z
Si Si1 0.532890 0.637445 0.562955
Si Si2 0.734572 0.102702 0.671375
Si Si3 0.489654 0.157007 0.000000
Si Si4 0.636514 0.532409 0.780161
Si Si5 0.729623 0.628920 0.890981
O O1 0.541096 0.674024 0.500000
O O2 0.432855 0.567146 0.573532
O O3 0.582491 0.582491 0.561795
O O4 0.577255 0.702361 0.613824
O O5 0.837044 0.162957 0.675473
O O6 0.691871 0.125508 0.723545
O O7 0.697881 0.000000 0.672777
O O8 0.431004 0.114762 0.945025
O O9 0.573631 0.147262 0.000000
O O10 0.514903 0.257452 0.000000
O O11 0.569549 0.430452 0.781143
O O12 0.578853 0.578853 0.780149
O O13 0.694164 0.568780 0.835682
O O14 0.831363 0.662726 0.895841
O O15 0.700968 0.700968 0.887078
#
# Coordination Sequence:
#
# PCOD9587534 Si02
#       5
#    24  24  12  24  24
#     4   8  14  26  45  67  88 111 142 181 226 277
#     4  10  19  30  46  68  93 122 158 199 238 275
#     4  10  20  33  50  73 100 128 157 192 236 285
#     4   9  17  30  49  71  92 115 146 184 227 278
#     4  10  20  33  50  72  97 127 163 201 238 276
#
# _framework density 16.387139999999999
#
# number of rings (size 3 to 8) (size 9 to 14) (size 15 to 20)
#    0.000    2.667    0.000    3.111    0.000    4.889 
#    0.000    0.000    0.000    9.778    0.000    0.000 
#    0.000    8.000    0.000    5.556    0.000    0.889 
#
# Total GULP energy -601634.657813 kJ/mol
# GULP energy per Si atom -5570.691276 kJ/mol
# Density = 1.634984 g / cm^3
# Si number density = 16.387140 Si / 1000 Ang^3
#
#
#
# Elastic Constant Matrix: (Units=GPa)
#
#
# Indices 1 2 3 4 5 6 
#
# 1 84.7012 56.3075 40.1650 0.0000 0.0000 0.0000
# 2 56.3075 84.7012 40.1650 0.0000 0.0000 0.0000
# 3 40.1650 40.1650 124.8520 0.0000 0.0000 0.0000
# 4 0.0000 0.0000 0.0000 -974.6727 -0.0004 0.0000
# 5 0.0000 0.0000 0.0000 -0.0004 -974.6723 0.0000
# 6 0.0000 0.0000 0.0000 0.0000 0.0000 14.1968
#
#
#
# Elastic Compliance Matrix: (Units=1/GPa)
#
#
# Indices 1 2 3 4 5 6 
#
# 1 0.021951 -0.013268 -0.002793 0.000000 0.000000 0.000000
# 2 -0.013268 0.021951 -0.002793 0.000000 0.000000 0.000000
# 3 -0.002793 -0.002793 0.009807 0.000000 0.000000 0.000000
# 4 0.000000 0.000000 0.000000 -0.001026 0.000000 0.000000
# 5 0.000000 0.000000 0.000000 0.000000 -0.001026 0.000000
# 6 0.000000 0.000000 0.000000 0.000000 0.000000 0.070438
#
#
# Mechanical properties :
#
#
# Convention : Reuss Voigt Hill
#
# Bulk Modulus (GPa) = 62.50205 63.05882 62.78044
# Shear Modulus (GPa) = 30.27776 -376.52185 -173.12204
#
# Velocity S-wave (km/s) = 4.30310 -15.17450 -10.28953
# Velocity P-wave (km/s) = 7.93174 16.38464 10.13765
#
# Compressibility (1/GPa) = 0.01599948
#
# Stress axis : x y z
#
# Youngs Moduli (GPa) = 45.55583 45.55583 101.97079
#
# Poissons Ratio (x) = 0.60444 0.28484
# Poissons Ratio (y) = 0.60444 0.28484
# Poissons Ratio (z) = 0.12725 0.12725
#
# Static dielectric constant tensor:
#      x y z
#    x 1.543400 0.000000 0.000000 
#    y 0.000000 1.543400 0.000000 
#    z 0.000000 0.000000 1.562280 
# 
# From -- ./inp_files/7335.got.cif
#   From: 2010.05.17/outbox.cif.g08.bks.cpg/sg191_4_cif.got.tgz:7335.got - 2010.05.20 12:20:32.
