data_PCOD9587487
_publ_section_title
;
Structure prediction by ZEFSAII (Michael W. Deem and Ramdas Pophale) SiO2 
 PCOD9587487
Probable space group: P 6/M M M
;
_chemical_formula_sum "Si O2"
_cell_formula_units_Z 120
_cell_length_a 18.333241
_cell_length_b 18.333241
_cell_length_c 26.747099
_cell_angle_alpha 90.000000
_cell_angle_beta 90.000000
_cell_angle_gamma 120.000000
_cell_volume 7785.487502
_symmetry_space_group_name_H-M "P 6/M M M"
_symmetry_group_IT_number 191
_symmetry_cell_setting 'hexagonal'
loop_
_space_group_symop_operation_xyz
x,y,z
x-y,x,z
-y,x-y,z
-x,-y,z
-x+y,-x,z
y,-x+y,z
x-y,-y,-z
-x,-x+y,-z
y,x,-z
-y,-x,-z
-x+y,y,-z
x,x-y,-z
-x,-y,-z
-x+y,-x,-z
y,-x+y,-z
x,y,-z
x-y,x,-z
-y,x-y,-z
-x+y,y,z
x,x-y,z
-y,-x,z
y,x,z
x-y,-y,z
-x,-x+y,z
loop_
_atom_site_type_symbol
_atom_site_label
_atom_site_fract_x
_atom_site_fract_y
_atom_site_fract_z
Si Si1 0.506937 0.839054 0.284691
Si Si2 0.331270 0.834231 0.604275
Si Si3 0.363822 0.459741 0.000000
Si Si4 0.095668 0.732859 0.804360
Si Si5 0.099972 0.634627 0.500000
Si Si6 0.503572 0.668691 0.108279
O O1 0.423693 0.847385 0.279353
O O2 0.482105 0.741053 0.279158
O O3 0.543262 0.865639 0.341140
O O4 0.576673 0.889051 0.243151
O O5 0.425648 0.851295 0.603629
O O6 0.264937 0.735064 0.603693
O O7 0.317525 0.870405 0.552709
O O8 0.321750 0.462839 0.948352
O O9 0.384767 0.384767 0.000000
O O10 0.453320 0.546681 0.000000
O O11 0.169328 0.830673 0.803275
O O12 0.113017 0.690975 0.852754
O O13 0.000000 0.712400 0.804656
O O14 0.131400 0.565700 0.500000
O O15 0.000000 0.582964 0.500000
O O16 0.474172 0.737086 0.116720
O O17 0.425221 0.574780 0.115078
#
# Coordination Sequence:
#
# PCOD9587487 Si02
#       6
#    24  24  12  24  12  24
#     4   9  17  28  43  64  90 119 149 180 213 251
#     4   9  16  26  40  57  77 103 137 175 211 246
#     4   9  17  28  42  60  84 119 163 205 235 256
#     4  10  21  35  50  68  89 114 144 180 222 266
#     4   9  17  26  34  48  72 101 134 174 218 256
#     4  10  19  30  45  66  94 127 160 191 222 259
#
# _framework density 15.413292999999999
#
# number of rings (size 3 to 8) (size 9 to 14) (size 15 to 20)
#    0.000    2.600    0.000    2.400    0.000    4.800 
#    0.000    6.000    0.000    0.200    0.000    0.000 
#    0.000    0.000    0.000    0.000    0.000   20.800 
#
# Total GULP energy -668042.872368 kJ/mol
# GULP energy per Si atom -5567.023936 kJ/mol
# Density = 1.537821 g / cm^3
# Si number density = 15.413293 Si / 1000 Ang^3
#
#
#
# Elastic Constant Matrix: (Units=GPa)
#
#
# Indices 1 2 3 4 5 6 
#
# 1 50.0823 35.6108 30.8961 0.0000 0.0000 0.0000
# 2 35.6108 50.0823 30.8961 0.0000 0.0000 0.0000
# 3 30.8961 30.8961 126.7672 0.0000 0.0000 0.0000
# 4 0.0000 0.0000 0.0000 11.1168 0.0000 0.0000
# 5 0.0000 0.0000 0.0000 0.0000 11.1168 0.0000
# 6 0.0000 0.0000 0.0000 0.0000 0.0000 7.2357
#
#
#
# Elastic Compliance Matrix: (Units=1/GPa)
#
#
# Indices 1 2 3 4 5 6 
#
# 1 0.041630 -0.027472 -0.003451 0.000000 0.000000 0.000000
# 2 -0.027472 0.041630 -0.003451 0.000000 0.000000 0.000000
# 3 -0.003451 -0.003451 0.009570 0.000000 0.000000 0.000000
# 4 0.000000 0.000000 0.000000 0.089954 0.000000 0.000000
# 5 0.000000 0.000000 0.000000 0.000000 0.089954 0.000000
# 6 0.000000 0.000000 0.000000 0.000000 0.000000 0.138203
#
#
# Mechanical properties :
#
#
# Convention : Reuss Voigt Hill
#
# Bulk Modulus (GPa) = 41.52204 46.85978 44.19091
# Shear Modulus (GPa) = 10.25193 14.52914 12.39053
#
# Velocity S-wave (km/s) = 2.58182 3.07357 2.83836
# Velocity P-wave (km/s) = 5.99044 6.56231 6.28288
#
# Compressibility (1/GPa) = 0.02408359
#
# Stress axis : x y z
#
# Youngs Moduli (GPa) = 24.02141 24.02141 104.48842
#
# Poissons Ratio (x) = 0.65991 0.36054
# Poissons Ratio (y) = 0.65991 0.36054
# Poissons Ratio (z) = 0.08289 0.08289
#
# Static dielectric constant tensor:
#      x y z
#    x 1.500940 0.000000 0.000000 
#    y 0.000000 1.500940 0.000000 
#    z 0.000000 0.000000 1.568930 
# 
# From -- ./inp_files/9626.got.cif
#   From: 2010.05.17/outbox.cif.g08.bks.cpg/sg191_5_cif.got.tgz:9626.got - 2010.05.20 12:20:32.
