data_PCOD9587021
_publ_section_title
;
Structure prediction by ZEFSAII (Michael W. Deem and Ramdas Pophale) SiO2 
 PCOD9587021
Probable space group: P -6 2 C
;
_chemical_formula_sum "Si O2"
_cell_formula_units_Z 84
_cell_length_a 18.000000
_cell_length_b 18.000000
_cell_length_c 15.000000
_cell_angle_alpha 90.000000
_cell_angle_beta 90.000000
_cell_angle_gamma 120.000000
_cell_volume 4208.883462
_symmetry_space_group_name_H-M "P -6 2 C"
_symmetry_group_IT_number 190
_symmetry_cell_setting 'hexagonal'
loop_
_space_group_symop_operation_xyz
x,y,z
-x+y,-x,1/2-z
-y,x-y,z
x,y,1/2-z
-x+y,-x,z
-y,x-y,1/2-z
x-y,-y,-z
-x,-x+y,-z
y,x,-z
y,x,1/2+z
x-y,-y,1/2+z
-x,-x+y,1/2+z
loop_
_atom_site_type_symbol
_atom_site_label
_atom_site_fract_x
_atom_site_fract_y
_atom_site_fract_z
Si Si1 0.472231 0.168328 0.081659
Si Si2 0.088361 0.842816 0.533460
Si Si3 0.235837 0.860825 0.093103
Si Si4 0.838813 0.475716 0.452794
Si Si5 0.048091 0.286863 0.652530
Si Si6 0.360878 0.326953 0.352507
Si Si7 0.677641 0.159674 0.846241
O O1 0.556782 0.162041 0.091594
O O2 0.504723 0.269411 0.079407
O O3 0.389065 0.114908 0.143321
O O4 0.429793 0.129706 0.985742
O O5 0.144079 0.832519 0.454700
O O6 0.161957 0.926031 0.582911
O O7 0.056647 0.762991 0.602113
O O8 0.000000 0.834806 0.500000
O O9 0.222782 0.780086 0.149259
O O10 0.267902 0.952015 0.137545
O O11 0.923396 0.558352 0.418138
O O12 0.830847 0.468717 0.560764
O O13 0.055797 0.258114 0.750000
O O14 0.379568 0.312722 0.250000
O O15 0.332940 0.398275 0.348247
O O16 0.643835 0.170062 0.750000
#
# Coordination Sequence:
#
# PCOD9587021 Si02
#       7
#    12  12  12  12  12  12  12
#     4  10  22  37  60  80 116 164 203 246 310 364
#     4  11  18  35  61  88 115 153 196 243 298 357
#     4  10  20  38  60  88 117 158 199 244 305 368
#     4  11  21  39  57  83 117 157 203 251 301 362
#     4  11  23  39  59  91 125 159 205 255 306 374
#     4  11  20  33  58  88 116 147 194 249 299 348
#     4  10  20  35  59  89 115 148 196 251 300 356
#
# _framework density 19.957787
#
# number of rings (size 3 to 8) (size 9 to 14) (size 15 to 20)
#    0.000    1.429    5.714    3.286    0.000    2.857 
#    0.000    5.000    0.000    4.000    0.000    0.000 
#    0.000    0.000    0.000    0.000    0.000    0.000 
#
# Total GULP energy -468278.692574 kJ/mol
# GULP energy per Si atom -5574.746340 kJ/mol
# Density = 1.991236 g / cm^3
# Si number density = 19.957787 Si / 1000 Ang^3
#
#
#
# Elastic Constant Matrix: (Units=GPa)
#
#
# Indices 1 2 3 4 5 6 
#
# 1 48.6272 21.3121 6.2685 0.0000 0.0000 0.0000
# 2 21.3121 48.6272 6.2685 0.0000 0.0000 0.0000
# 3 6.2685 6.2685 69.0705 0.0000 0.0000 0.0000
# 4 0.0000 0.0000 0.0000 0.3061 0.0000 0.0000
# 5 0.0000 0.0000 0.0000 0.0000 0.3061 0.0000
# 6 0.0000 0.0000 0.0000 0.0000 0.0000 13.6575
#
#
#
# Elastic Compliance Matrix: (Units=1/GPa)
#
#
# Indices 1 2 3 4 5 6 
#
# 1 0.025572 -0.011038 -0.001319 0.000000 0.000000 0.000000
# 2 -0.011038 0.025572 -0.001319 0.000000 0.000000 0.000000
# 3 -0.001319 -0.001319 0.014717 0.000000 0.000000 0.000000
# 4 0.000000 0.000000 0.000000 3.266725 0.000000 0.000000
# 5 0.000000 0.000000 0.000000 0.000000 3.266725 0.000000
# 6 0.000000 0.000000 0.000000 0.000000 0.000000 0.073220
#
#
# Mechanical properties :
#
#
# Convention : Reuss Voigt Hill
#
# Bulk Modulus (GPa) = 25.96714 26.00255 25.98485
# Shear Modulus (GPa) = 0.74485 11.68567 6.21526
#
# Velocity S-wave (km/s) = 0.61158 2.42238 1.76663
# Velocity P-wave (km/s) = 3.67940 4.56957 4.14843
#
# Compressibility (1/GPa) = 0.03851020
#
# Stress axis : x y z
#
# Youngs Moduli (GPa) = 39.10494 39.10494 67.94683
#
# Poissons Ratio (x) = 0.43163 0.08963
# Poissons Ratio (y) = 0.43163 0.08963
# Poissons Ratio (z) = 0.05158 0.05158
#
# Static dielectric constant tensor:
#      x y z
#    x 1.714610 0.000000 0.000000 
#    y 0.000000 1.714610 0.000000 
#    z 0.000000 0.000000 1.777220 
# 
# From -- ./inp_files/3146.got.cif
#   From: 2010.05.17/outbox.ucp.g08.bks.cvg/sg190_2_cif.got.tgz:3146.got - 2010.06.11 15:22:26.
