data_PCOD9587543
_publ_section_title
;
Structure prediction by ZEFSAII (Michael W. Deem and Ramdas Pophale) SiO2 
 PCOD9587543
Probable space group: P 6/M M M
;
_chemical_formula_sum "Si O2"
_cell_formula_units_Z 108
_cell_length_a 32.914942
_cell_length_b 32.914942
_cell_length_c 9.054219
_cell_angle_alpha 90.000000
_cell_angle_beta 90.000000
_cell_angle_gamma 120.000000
_cell_volume 8495.086685
_symmetry_space_group_name_H-M "P 6/M M M"
_symmetry_group_IT_number 191
_symmetry_cell_setting 'hexagonal'
loop_
_space_group_symop_operation_xyz
x,y,z
x-y,x,z
-y,x-y,z
-x,-y,z
-x+y,-x,z
y,-x+y,z
x-y,-y,-z
-x,-x+y,-z
y,x,-z
-y,-x,-z
-x+y,y,-z
x,x-y,-z
-x,-y,-z
-x+y,-x,-z
y,-x+y,-z
x,y,-z
x-y,x,-z
-y,x-y,-z
-x+y,y,z
x,x-y,z
-y,-x,z
y,x,z
x-y,-y,z
-x,-x+y,z
loop_
_atom_site_type_symbol
_atom_site_label
_atom_site_fract_x
_atom_site_fract_y
_atom_site_fract_z
Si Si1 0.557299 0.862634 0.676996
Si Si2 0.442676 0.055839 0.825287
Si Si3 0.447217 0.641178 0.676498
Si Si4 0.528388 0.056776 0.667759
Si Si5 0.555099 0.277550 0.169987
Si Si6 0.779590 0.220411 0.171818
O O1 0.562365 0.864654 0.500000
O O2 0.577118 0.913653 0.748107
O O3 0.501646 0.837943 0.714663
O O4 0.574262 0.828637 0.746791
O O5 0.492410 0.068154 0.751699
O O6 0.408772 0.000000 0.805067
O O7 0.449016 0.065641 0.000000
O O8 0.445397 0.644529 0.500000
O O9 0.412533 0.587468 0.720373
O O10 0.429540 0.673858 0.749559
O O11 0.538056 0.076112 0.500000
O O12 0.500000 0.000000 0.657604
O O13 0.497925 0.248963 0.176965
O O14 0.569192 0.284596 0.000000
O O15 0.786459 0.213542 0.000000
#
# Coordination Sequence:
#
# PCOD9587543 Si02
#       6
#    24  24  24  12  12  12
#     4  10  19  30  47  65  81 100 127 157 183 214
#     4  10  20  32  44  61  85 109 130 152 183 222
#     4   9  18  31  44  57  72  91 114 139 170 211
#     4   9  17  29  43  57  76 103 132 159 185 217
#     4   9  17  29  43  57  70  84 105 137 171 203
#     4   9  17  31  47  61  79  98 120 149 185 217
#
# _framework density 12.713231
#
# number of rings (size 3 to 8) (size 9 to 14) (size 15 to 20)
#    0.000    2.556    0.000    2.333    1.556    6.667 
#    0.667    0.000    0.000    0.000    0.000    0.000 
#    0.000    0.000    0.000    0.000    0.000    0.000 
#
# Total GULP energy -602118.164881 kJ/mol
# GULP energy per Si atom -5575.168193 kJ/mol
# Density = 1.268430 g / cm^3
# Si number density = 12.713231 Si / 1000 Ang^3
#
#
#
# Elastic Constant Matrix: (Units=GPa)
#
#
# Indices 1 2 3 4 5 6 
#
# 1 48.2039 14.6320 31.2426 0.0000 0.0000 0.0000
# 2 14.6320 48.2039 31.2426 0.0000 0.0000 0.0000
# 3 31.2426 31.2426 57.3988 0.0000 0.0000 0.0000
# 4 0.0000 0.0000 0.0000 15.0374 0.0000 0.0000
# 5 0.0000 0.0000 0.0000 0.0000 15.0374 0.0000
# 6 0.0000 0.0000 0.0000 0.0000 0.0000 16.7860
#
#
#
# Elastic Compliance Matrix: (Units=1/GPa)
#
#
# Indices 1 2 3 4 5 6 
#
# 1 0.032240 0.002453 -0.018883 0.000000 0.000000 0.000000
# 2 0.002453 0.032240 -0.018883 0.000000 0.000000 0.000000
# 3 -0.018883 -0.018883 0.037979 0.000000 0.000000 0.000000
# 4 0.000000 0.000000 0.000000 0.066501 0.000000 0.000000
# 5 0.000000 0.000000 0.000000 0.000000 0.066501 0.000000
# 6 0.000000 0.000000 0.000000 0.000000 0.000000 0.059574
#
#
# Mechanical properties :
#
#
# Convention : Reuss Voigt Hill
#
# Bulk Modulus (GPa) = 31.41680 34.22677 32.82178
# Shear Modulus (GPa) = 13.28830 14.48478 13.88654
#
# Velocity S-wave (km/s) = 3.23652 3.37908 3.30857
# Velocity P-wave (km/s) = 6.22352 6.49653 6.36149
#
# Compressibility (1/GPa) = 0.03183010
#
# Stress axis : x y z
#
# Youngs Moduli (GPa) = 31.01779 31.01779 26.33062
#
# Poissons Ratio (x) = -0.07608 0.49721
# Poissons Ratio (y) = -0.07608 0.49721
# Poissons Ratio (z) = 0.58572 0.58572
#
# Static dielectric constant tensor:
#      x y z
#    x 1.423180 0.000000 0.000000 
#    y 0.000000 1.423180 0.000000 
#    z 0.000000 0.000000 1.422840 
# 
# From -- ./inp_files/1786.got.cif
#   From: 2010.05.17/outbox.cif.g08.bks.cpg/sg191_1_cif.got.tgz:1786.got - 2010.05.20 12:20:32.
