data_PCOD9587605
_publ_section_title
;
Structure prediction by ZEFSAII (Michael W. Deem and Ramdas Pophale) SiO2 
 PCOD9587605
Probable space group: P 6/M M M
;
_chemical_formula_sum "Si O2"
_cell_formula_units_Z 84
_cell_length_a 17.869005
_cell_length_b 17.869005
_cell_length_c 20.173990
_cell_angle_alpha 90.000000
_cell_angle_beta 90.000000
_cell_angle_gamma 120.000000
_cell_volume 5578.573682
_symmetry_space_group_name_H-M "P 6/M M M"
_symmetry_group_IT_number 191
_symmetry_cell_setting 'hexagonal'
loop_
_space_group_symop_operation_xyz
x,y,z
x-y,x,z
-y,x-y,z
-x,-y,z
-x+y,-x,z
y,-x+y,z
x-y,-y,-z
-x,-x+y,-z
y,x,-z
-y,-x,-z
-x+y,y,-z
x,x-y,-z
-x,-y,-z
-x+y,-x,-z
y,-x+y,-z
x,y,-z
x-y,x,-z
-y,x-y,-z
-x+y,y,z
x,x-y,z
-y,-x,z
y,x,z
x-y,-y,z
-x,-x+y,z
loop_
_atom_site_type_symbol
_atom_site_label
_atom_site_fract_x
_atom_site_fract_y
_atom_site_fract_z
Si Si1 0.666733 0.157470 0.076042
Si Si2 0.844021 0.332115 0.672212
Si Si3 0.270609 0.368366 0.800626
Si Si4 0.409323 0.409323 0.424489
O O1 0.574339 0.148677 0.089322
O O2 0.742151 0.257850 0.081032
O O3 0.690513 0.107820 0.130092
O O4 0.667234 0.130073 0.000000
O O5 0.838135 0.419068 0.675391
O O6 0.750873 0.249128 0.658658
O O7 0.877609 0.315887 0.741912
O O8 0.914456 0.345674 0.616610
O O9 0.169927 0.339854 0.799101
O O10 0.293413 0.293413 0.791809
O O11 0.500000 0.500000 0.426628
O O12 0.381745 0.381745 0.500000
#
# Coordination Sequence:
#
# PCOD9587605 Si02
#       4
#    24  24  24  12
#     4   9  17  28  43  65  95 130 164 195 226 263
#     4  10  19  31  48  70  96 126 159 194 232 275
#     4  10  20  33  49  68  91 120 154 193 236 281
#     4   9  18  32  48  66  91 123 156 192 233 272
#
# _framework density 15.057612000000001
#
# number of rings (size 3 to 8) (size 9 to 14) (size 15 to 20)
#    0.000    2.429    1.429    1.429    0.000    4.000 
#    0.000    4.286    0.000    2.000    0.000    0.000 
#    0.000    0.000    0.000    7.143    0.000   13.000 
#
# Total GULP energy -468303.997667 kJ/mol
# GULP energy per Si atom -5575.047591 kJ/mol
# Density = 1.502334 g / cm^3
# Si number density = 15.057612 Si / 1000 Ang^3
#
#
#
# Elastic Constant Matrix: (Units=GPa)
#
#
# Indices 1 2 3 4 5 6 
#
# 1 86.8480 68.1182 48.8441 0.0000 0.0000 0.0000
# 2 68.1182 86.8480 48.8441 0.0000 0.0000 0.0000
# 3 48.8441 48.8441 89.4487 0.0000 0.0000 0.0000
# 4 0.0000 0.0000 0.0000 17.5565 0.0000 0.0000
# 5 0.0000 0.0000 0.0000 0.0000 17.5565 0.0000
# 6 0.0000 0.0000 0.0000 0.0000 0.0000 9.3649
#
#
#
# Elastic Compliance Matrix: (Units=1/GPa)
#
#
# Indices 1 2 3 4 5 6 
#
# 1 0.031616 -0.021775 -0.005373 0.000000 0.000000 0.000000
# 2 -0.021775 0.031616 -0.005373 0.000000 0.000000 0.000000
# 3 -0.005373 -0.005373 0.017048 0.000000 0.000000 0.000000
# 4 0.000000 0.000000 0.000000 0.056959 0.000000 0.000000
# 5 0.000000 0.000000 0.000000 0.000000 0.056959 0.000000
# 6 0.000000 0.000000 0.000000 0.000000 0.000000 0.106782
#
#
# Mechanical properties :
#
#
# Convention : Reuss Voigt Hill
#
# Bulk Modulus (GPa) = 65.63809 66.08418 65.86113
# Shear Modulus (GPa) = 13.47337 15.38477 14.42907
#
# Velocity S-wave (km/s) = 2.99455 3.19991 3.09893
# Velocity P-wave (km/s) = 7.45938 7.59180 7.52588
#
# Compressibility (1/GPa) = 0.01523506
#
# Stress axis : x y z
#
# Youngs Moduli (GPa) = 31.62985 31.62985 58.65817
#
# Poissons Ratio (x) = 0.68875 0.31519
# Poissons Ratio (y) = 0.68875 0.31519
# Poissons Ratio (z) = 0.16996 0.16996
#
# Static dielectric constant tensor:
#      x y z
#    x 1.482640 0.000000 0.000000 
#    y 0.000000 1.482640 0.000000 
#    z 0.000000 0.000000 1.509210 
# 
# From -- ./inp_files/6967.got.cif
#   From: 2010.05.17/outbox.cif.g08.bks.cpg/sg191_4_cif.got.tgz:6967.got - 2010.05.20 12:20:32.
