data_PCOD9587341
_publ_section_title
;
Structure prediction by ZEFSAII (Michael W. Deem and Ramdas Pophale) SiO2 
 PCOD9587341
Probable space group: P 6/M M M
;
_chemical_formula_sum "Si O2"
_cell_formula_units_Z 124
_cell_length_a 20.975892
_cell_length_b 20.975892
_cell_length_c 20.408480
_cell_angle_alpha 90.000000
_cell_angle_beta 90.000000
_cell_angle_gamma 120.000000
_cell_volume 7776.464046
_symmetry_space_group_name_H-M "P 6/M M M"
_symmetry_group_IT_number 191
_symmetry_cell_setting 'hexagonal'
loop_
_space_group_symop_operation_xyz
x,y,z
x-y,x,z
-y,x-y,z
-x,-y,z
-x+y,-x,z
y,-x+y,z
x-y,-y,-z
-x,-x+y,-z
y,x,-z
-y,-x,-z
-x+y,y,-z
x,x-y,-z
-x,-y,-z
-x+y,-x,-z
y,-x+y,-z
x,y,-z
x-y,x,-z
-y,x-y,-z
-x+y,y,z
x,x-y,z
-y,-x,z
y,x,z
x-y,-y,z
-x,-x+y,z
loop_
_atom_site_type_symbol
_atom_site_label
_atom_site_fract_x
_atom_site_fract_y
_atom_site_fract_z
Si Si1 0.231996 0.319534 0.304427
Si Si2 0.087579 0.675086 0.427188
Si Si3 0.919597 0.459799 0.261098
Si Si4 0.481256 0.667392 0.923150
Si Si5 0.666668 0.333334 0.577793
Si Si6 0.836255 0.418128 0.609629
Si Si7 0.589866 0.916417 0.818109
O O1 0.145138 0.290276 0.306068
O O2 0.260013 0.260013 0.307019
O O3 0.269482 0.373760 0.366812
O O4 0.265793 0.366421 0.237608
O O5 0.103772 0.709807 0.500000
O O6 0.129154 0.628979 0.419562
O O7 0.000000 0.618974 0.423639
O O8 0.856890 0.428445 0.314321
O O9 0.916173 0.521668 0.218796
O O10 0.000000 0.500000 0.295520
O O11 0.456637 0.728319 0.915293
O O12 0.413277 0.586724 0.906088
O O13 0.551882 0.691039 0.877687
O O14 0.498383 0.665980 0.000000
O O15 0.666667 0.333334 0.500000
O O16 0.749977 0.374989 0.600772
O O17 0.643310 0.000000 0.841475
#
# Coordination Sequence:
#
# PCOD9587341 Si02
#       7
#    24  24  12  24   4  12  24
#     4  10  21  36  56  79 103 129 159 197 246 299
#     4  10  20  33  53  77  96 125 169 213 256 300
#     4  10  18  32  53  73  94 121 160 213 264 311
#     4  10  20  33  48  68  96 133 173 212 253 296
#     4  12  30  42  42  63  99 141 184 221 265 306
#     4  12  22  37  50  63  96 137 175 217 262 304
#     4  10  19  33  52  74  99 126 160 207 255 299
#
# _framework density 15.945551
#
# number of rings (size 3 to 8) (size 9 to 14) (size 15 to 20)
#    0.000    1.742    2.903    2.516    1.355    2.323 
#    1.742    0.968    0.000    0.194    0.000    0.000 
#    0.000    0.000    0.000    4.839    0.000    0.000 
#
# Total GULP energy -691611.578364 kJ/mol
# GULP energy per Si atom -5577.512729 kJ/mol
# Density = 1.590926 g / cm^3
# Si number density = 15.945551 Si / 1000 Ang^3
#
#
#
# Elastic Constant Matrix: (Units=GPa)
#
#
# Indices 1 2 3 4 5 6 
#
# 1 85.7774 33.2372 37.1981 0.0002 0.0000 -0.0006
# 2 33.2372 85.7778 37.1978 -0.0002 0.0000 0.0003
# 3 37.1981 37.1978 82.5372 0.0000 0.0000 0.0000
# 4 0.0002 -0.0002 0.0000 5.0409 0.0000 0.0000
# 5 0.0000 0.0000 0.0000 0.0000 5.0406 -0.0002
# 6 -0.0006 0.0003 0.0000 0.0000 -0.0002 26.2671
#
#
#
# Elastic Compliance Matrix: (Units=1/GPa)
#
#
# Indices 1 2 3 4 5 6 
#
# 1 0.015365 -0.003668 -0.005272 -0.000001 0.000000 0.000000
# 2 -0.003668 0.015365 -0.005272 0.000001 0.000000 0.000000
# 3 -0.005272 -0.005272 0.016868 0.000000 0.000000 0.000000
# 4 -0.000001 0.000001 0.000000 0.198375 0.000002 0.000000
# 5 0.000000 0.000000 0.000000 0.000002 0.198389 0.000002
# 6 0.000000 0.000000 0.000000 0.000000 0.000002 0.038070
#
#
# Mechanical properties :
#
#
# Convention : Reuss Voigt Hill
#
# Bulk Modulus (GPa) = 52.15011 52.15096 52.15054
# Shear Modulus (GPa) = 9.66653 17.03368 13.35011
#
# Velocity S-wave (km/s) = 2.46483 3.27194 2.89663
# Velocity P-wave (km/s) = 6.39348 6.85936 6.63051
#
# Compressibility (1/GPa) = 0.01917541
#
# Stress axis : x y z
#
# Youngs Moduli (GPa) = 65.08099 65.08165 59.28483
#
# Poissons Ratio (x) = 0.23869 0.31255
# Poissons Ratio (y) = 0.23869 0.31255
# Poissons Ratio (z) = 0.34311 0.34311
#
# Static dielectric constant tensor:
#      x y z
#    x 1.520500 0.000000 0.000000 
#    y 0.000000 1.520500 0.000000 
#    z 0.000000 0.000000 1.553200 
# 
# From -- ./inp_files/7574.got.cif
#   From: 2010.05.17/outbox.cif.g08.bks.cpg/sg191_4_cif.got.tgz:7574.got - 2010.05.20 12:20:32.
