data_PCOD9587923
_publ_section_title
;
Structure prediction by ZEFSAII (Michael W. Deem and Ramdas Pophale) SiO2 
 PCOD9587923
Probable space group: P 6/M M M
;
_chemical_formula_sum "Si O2"
_cell_formula_units_Z 108
_cell_length_a 17.926163
_cell_length_b 17.926163
_cell_length_c 23.555169
_cell_angle_alpha 90.000000
_cell_angle_beta 90.000000
_cell_angle_gamma 120.000000
_cell_volume 6555.284402
_symmetry_space_group_name_H-M "P 6/M M M"
_symmetry_group_IT_number 191
_symmetry_cell_setting 'hexagonal'
loop_
_space_group_symop_operation_xyz
x,y,z
x-y,x,z
-y,x-y,z
-x,-y,z
-x+y,-x,z
y,-x+y,z
x-y,-y,-z
-x,-x+y,-z
y,x,-z
-y,-x,-z
-x+y,y,-z
x,x-y,-z
-x,-y,-z
-x+y,-x,-z
y,-x+y,-z
x,y,-z
x-y,x,-z
-y,x-y,-z
-x+y,y,z
x,x-y,z
-y,-x,z
y,x,z
x-y,-y,z
-x,-x+y,z
loop_
_atom_site_type_symbol
_atom_site_label
_atom_site_fract_x
_atom_site_fract_y
_atom_site_fract_z
Si Si1 0.364388 0.895968 0.670851
Si Si2 0.099919 0.733450 0.565226
Si Si3 0.371092 0.098545 0.000000
Si Si4 0.842541 0.509956 0.889612
Si Si5 0.268909 0.899634 0.218946
O O1 0.430389 0.860778 0.676613
O O2 0.314641 0.873386 0.611315
O O3 0.301774 0.875148 0.724058
O O4 0.421614 0.000000 0.671077
O O5 0.106848 0.709967 0.500000
O O6 0.165177 0.834824 0.571417
O O7 0.000000 0.703210 0.575278
O O8 0.430697 0.115956 0.055218
O O9 0.343329 0.171664 0.000000
O O10 0.295172 0.000000 0.000000
O O11 0.742027 0.484053 0.889351
O O12 0.852453 0.426227 0.890433
O O13 0.884870 0.567933 0.833997
O O14 0.167690 0.832311 0.212270
O O15 0.297466 0.000000 0.221909
#
# Coordination Sequence:
#
# PCOD9587923 Si02
#       5
#    24  24  12  24  24
#     4   9  17  29  46  68  91 115 147 187 229 275
#     4   9  17  29  46  68  93 122 157 196 236 277
#     4  10  21  35  51  72  97 127 162 200 241 283
#     4  10  20  33  50  73 101 131 161 194 234 280
#     4  10  20  33  50  72  97 126 160 198 238 278
#
# _framework density 16.475256999999999
#
# number of rings (size 3 to 8) (size 9 to 14) (size 15 to 20)
#    0.000    2.444    0.000    2.556    0.000    3.556 
#    0.000    3.333    0.000    5.444    0.000    1.556 
#    0.000   10.667    0.000    0.222    0.000    1.333 
#
# Total GULP energy -601918.985350 kJ/mol
# GULP energy per Si atom -5573.323938 kJ/mol
# Density = 1.643776 g / cm^3
# Si number density = 16.475257 Si / 1000 Ang^3
#
#
#
# Elastic Constant Matrix: (Units=GPa)
#
#
# Indices 1 2 3 4 5 6 
#
# 1 93.1653 67.8275 40.8957 0.0000 0.0000 0.0000
# 2 67.8275 93.1653 40.8957 0.0000 0.0000 0.0000
# 3 40.8957 40.8957 109.1207 0.0000 0.0000 0.0000
# 4 0.0000 0.0000 0.0000 15.3308 0.0000 0.0000
# 5 0.0000 0.0000 0.0000 0.0000 15.3308 0.0000
# 6 0.0000 0.0000 0.0000 0.0000 0.0000 12.6689
#
#
#
# Elastic Compliance Matrix: (Units=1/GPa)
#
#
# Indices 1 2 3 4 5 6 
#
# 1 0.023569 -0.015897 -0.002875 0.000000 0.000000 0.000000
# 2 -0.015897 0.023569 -0.002875 0.000000 0.000000 0.000000
# 3 -0.002875 -0.002875 0.011319 0.000000 0.000000 0.000000
# 4 0.000000 0.000000 0.000000 0.065228 0.000000 0.000000
# 5 0.000000 0.000000 0.000000 0.000000 0.065228 0.000000
# 6 0.000000 0.000000 0.000000 0.000000 0.000000 0.078933
#
#
# Mechanical properties :
#
#
# Convention : Reuss Voigt Hill
#
# Bulk Modulus (GPa) = 65.95241 66.07656 66.01449
# Shear Modulus (GPa) = 15.81289 18.38828 17.10059
#
# Velocity S-wave (km/s) = 3.10142 3.34446 3.22523
# Velocity P-wave (km/s) = 7.27620 7.42344 7.35019
#
# Compressibility (1/GPa) = 0.01516245
#
# Stress axis : x y z
#
# Youngs Moduli (GPa) = 42.42778 42.42778 88.34390
#
# Poissons Ratio (x) = 0.67448 0.25402
# Poissons Ratio (y) = 0.67448 0.25402
# Poissons Ratio (z) = 0.12200 0.12200
#
# Static dielectric constant tensor:
#      x y z
#    x 1.544520 0.000000 0.000000 
#    y 0.000000 1.544520 0.000000 
#    z 0.000000 0.000000 1.565390 
# 
# From -- ./inp_files/7284.got.cif
#   From: 2010.05.17/outbox.cif.g08.bks.cpg/sg191_4_cif.got.tgz:7284.got - 2010.05.20 12:20:32.
