data_PCOD9587166
_publ_section_title
;
Structure prediction by ZEFSAII (Michael W. Deem and Ramdas Pophale) SiO2 
 PCOD9587166
Probable space group: P 6/M M M
;
_chemical_formula_sum "Si O2"
_cell_formula_units_Z 60
_cell_length_a 16.757896
_cell_length_b 16.757896
_cell_length_c 17.542533
_cell_angle_alpha 90.000000
_cell_angle_beta 90.000000
_cell_angle_gamma 120.000000
_cell_volume 4266.403388
_symmetry_space_group_name_H-M "P 6/M M M"
_symmetry_group_IT_number 191
_symmetry_cell_setting 'hexagonal'
loop_
_space_group_symop_operation_xyz
x,y,z
x-y,x,z
-y,x-y,z
-x,-y,z
-x+y,-x,z
y,-x+y,z
x-y,-y,-z
-x,-x+y,-z
y,x,-z
-y,-x,-z
-x+y,y,-z
x,x-y,-z
-x,-y,-z
-x+y,-x,-z
y,-x+y,-z
x,y,-z
x-y,x,-z
-y,x-y,-z
-x+y,y,z
x,x-y,z
-y,-x,z
y,x,z
x-y,-y,z
-x,-x+y,z
loop_
_atom_site_type_symbol
_atom_site_label
_atom_site_fract_x
_atom_site_fract_y
_atom_site_fract_z
Si Si1 0.149250 0.480856 0.000000
Si Si2 0.393965 0.606035 0.415475
Si Si3 0.110109 0.555054 0.257326
Si Si4 0.394071 0.106134 0.165242
O O1 0.110528 0.421656 0.923497
O O2 0.258653 0.517306 0.000000
O O3 0.129650 0.564825 0.000000
O O4 0.432434 0.716217 0.411396
O O5 0.415486 0.584515 0.500000
O O6 0.425834 0.574167 0.342617
O O7 0.137119 0.648775 0.212185
O O8 0.000000 0.500000 0.258544
O O9 0.362618 0.181309 0.178102
O O10 0.321474 0.000000 0.184865
#
# Coordination Sequence:
#
# PCOD9587166 Si02
#       4
#    12  12  12  24
#     4  10  18  29  42  61  90 118 148 177 210 256
#     4   8  16  29  43  57  80 114 147 175 203 241
#     4  10  18  28  44  66  87 111 142 178 222 259
#     4  10  20  31  45  63  87 117 146 183 222 262
#
# _framework density 14.063368000000001
#
# number of rings (size 3 to 8) (size 9 to 14) (size 15 to 20)
#    0.400    2.000    2.000    2.000    0.000    1.200 
#    1.200    0.000    0.000    0.400    0.000    0.000 
#    0.000    4.800    0.000    0.000    0.000    0.000 
#
# Total GULP energy -334025.526809 kJ/mol
# GULP energy per Si atom -5567.092113 kJ/mol
# Density = 1.403136 g / cm^3
# Si number density = 14.063368 Si / 1000 Ang^3
#
#
#
# Elastic Constant Matrix: (Units=GPa)
#
#
# Indices 1 2 3 4 5 6 
#
# 1 58.4748 41.5349 12.7228 0.0000 0.0000 0.0000
# 2 41.5349 58.4748 12.7228 0.0000 0.0000 0.0000
# 3 12.7228 12.7228 91.5982 0.0000 0.0000 0.0000
# 4 0.0000 0.0000 0.0000 20.4757 0.0000 0.0000
# 5 0.0000 0.0000 0.0000 0.0000 20.4757 0.0000
# 6 0.0000 0.0000 0.0000 0.0000 0.0000 8.4699
#
#
#
# Elastic Compliance Matrix: (Units=1/GPa)
#
#
# Indices 1 2 3 4 5 6 
#
# 1 0.034699 -0.024334 -0.001440 0.000000 0.000000 0.000000
# 2 -0.024334 0.034699 -0.001440 0.000000 0.000000 0.000000
# 3 -0.001440 -0.001440 0.011317 0.000000 0.000000 0.000000
# 4 0.000000 0.000000 0.000000 0.048838 0.000000 0.000000
# 5 0.000000 0.000000 0.000000 0.000000 0.048838 0.000000
# 6 0.000000 0.000000 0.000000 0.000000 0.000000 0.118065
#
#
# Mechanical properties :
#
#
# Convention : Reuss Voigt Hill
#
# Bulk Modulus (GPa) = 38.03874 38.05652 38.04763
# Shear Modulus (GPa) = 13.90259 19.32210 16.61235
#
# Velocity S-wave (km/s) = 3.14756 3.71068 3.44066
# Velocity P-wave (km/s) = 6.34952 6.74376 6.54961
#
# Compressibility (1/GPa) = 0.02628899
#
# Stress axis : x y z
#
# Youngs Moduli (GPa) = 28.81939 28.81939 88.36110
#
# Poissons Ratio (x) = 0.70128 0.12722
# Poissons Ratio (y) = 0.70128 0.12722
# Poissons Ratio (z) = 0.04149 0.04149
#
# Static dielectric constant tensor:
#      x y z
#    x 1.467770 0.000000 0.000000 
#    y 0.000000 1.467770 0.000000 
#    z 0.000000 0.000000 1.456680 
# 
# From -- ./inp_files/5612.got.cif
#   From: 2010.05.17/outbox.cif.g08.bks.cpg/sg191_3_cif.got.tgz:5612.got - 2010.05.20 12:20:32.
