data_PCOD9587213
_publ_section_title
;
Structure prediction by ZEFSAII (Michael W. Deem and Ramdas Pophale) SiO2 
 PCOD9587213
Probable space group: P 6/M M M
;
_chemical_formula_sum "Si O2"
_cell_formula_units_Z 120
_cell_length_a 18.189838
_cell_length_b 18.189838
_cell_length_c 27.888163
_cell_angle_alpha 90.000000
_cell_angle_beta 90.000000
_cell_angle_gamma 120.000000
_cell_volume 7991.130118
_symmetry_space_group_name_H-M "P 6/M M M"
_symmetry_group_IT_number 191
_symmetry_cell_setting 'hexagonal'
loop_
_space_group_symop_operation_xyz
x,y,z
x-y,x,z
-y,x-y,z
-x,-y,z
-x+y,-x,z
y,-x+y,z
x-y,-y,-z
-x,-x+y,-z
y,x,-z
-y,-x,-z
-x+y,y,-z
x,x-y,-z
-x,-y,-z
-x+y,-x,-z
y,-x+y,-z
x,y,-z
x-y,x,-z
-y,x-y,-z
-x+y,y,z
x,x-y,z
-y,-x,z
y,x,z
x-y,-y,z
-x,-x+y,z
loop_
_atom_site_type_symbol
_atom_site_label
_atom_site_fract_x
_atom_site_fract_y
_atom_site_fract_z
Si Si1 0.365404 0.466786 0.222982
Si Si2 0.493418 0.162732 0.883603
Si Si3 0.589435 0.000000 0.055066
Si Si4 0.897649 0.365214 0.593514
Si Si5 0.369940 0.267873 0.500000
Si Si6 0.898874 0.633470 0.315225
O O1 0.437176 0.562825 0.236537
O O2 0.416605 0.416605 0.214614
O O3 0.325495 0.469491 0.172479
O O4 0.301440 0.418883 0.265987
O O5 0.585852 0.171704 0.888371
O O6 0.495836 0.247918 0.898507
O O7 0.429639 0.083350 0.915763
O O8 0.500000 0.000000 0.054999
O O9 0.613930 0.000000 0.000000
O O10 0.863752 0.431876 0.592505
O O11 0.877892 0.307655 0.546526
O O12 0.876084 0.308981 0.641153
O O13 0.000000 0.422382 0.593990
O O14 0.302030 0.302030 0.500000
O O15 0.333295 0.166648 0.500000
O O16 0.835248 0.670496 0.317694
O O17 0.000000 0.700909 0.318192
#
# Coordination Sequence:
#
# PCOD9587213 Si02
#       6
#    24  24  12  24  12  24
#     4   9  16  28  46  66  88 117 149 181 221 272
#     4  10  18  29  45  66  90 117 151 188 225 264
#     4   9  18  32  46  60  84 118 151 182 220 264
#     4   9  17  30  48  68  87 112 147 187 230 278
#     4  10  19  31  49  70  93 123 162 202 237 275
#     4  10  19  30  46  68  93 121 155 192 229 270
#
# _framework density 15.016648999999999
#
# number of rings (size 3 to 8) (size 9 to 14) (size 15 to 20)
#    0.000    2.500    1.000    2.300    0.000    4.000 
#    0.000    0.000    0.000   12.300    0.000    0.000 
#    0.000    4.800    0.000    0.300    0.000    1.700 
#
# Total GULP energy -668453.670687 kJ/mol
# GULP energy per Si atom -5570.447256 kJ/mol
# Density = 1.498247 g / cm^3
# Si number density = 15.016649 Si / 1000 Ang^3
#
#
#
# Elastic Constant Matrix: (Units=GPa)
#
#
# Indices 1 2 3 4 5 6 
#
# 1 83.2188 41.1935 45.9553 0.0000 0.0000 0.0000
# 2 41.1935 83.2188 45.9553 0.0000 0.0000 0.0000
# 3 45.9553 45.9553 96.4688 0.0000 0.0000 0.0000
# 4 0.0000 0.0000 0.0000 2.6715 0.0000 0.0000
# 5 0.0000 0.0000 0.0000 0.0000 2.6715 0.0000
# 6 0.0000 0.0000 0.0000 0.0000 0.0000 21.0127
#
#
#
# Elastic Compliance Matrix: (Units=1/GPa)
#
#
# Indices 1 2 3 4 5 6 
#
# 1 0.018099 -0.005696 -0.005908 0.000000 0.000000 0.000000
# 2 -0.005696 0.018099 -0.005908 0.000000 0.000000 0.000000
# 3 -0.005908 -0.005908 0.015995 0.000000 0.000000 0.000000
# 4 0.000000 0.000000 0.000000 0.374322 0.000000 0.000000
# 5 0.000000 0.000000 0.000000 0.000000 0.374322 0.000000
# 6 0.000000 0.000000 0.000000 0.000000 0.000000 0.047590
#
#
# Mechanical properties :
#
#
# Convention : Reuss Voigt Hill
#
# Bulk Modulus (GPa) = 58.25057 58.79049 58.52053
# Shear Modulus (GPa) = 5.62319 13.92462 9.77390
#
# Velocity S-wave (km/s) = 1.93721 3.04843 2.55399
# Velocity P-wave (km/s) = 6.62409 7.18511 6.91029
#
# Compressibility (1/GPa) = 0.01716721
#
# Stress axis : x y z
#
# Youngs Moduli (GPa) = 55.25203 55.25203 62.51895
#
# Poissons Ratio (x) = 0.31473 0.36938
# Poissons Ratio (y) = 0.31473 0.36938
# Poissons Ratio (z) = 0.32644 0.32644
#
# Static dielectric constant tensor:
#      x y z
#    x 1.494020 0.000000 0.000000 
#    y 0.000000 1.494020 0.000000 
#    z 0.000000 0.000000 1.504970 
# 
# From -- ./inp_files/8547.got.cif
#   From: 2010.05.17/outbox.cif.g08.bks.cpg/sg191_5_cif.got.tgz:8547.got - 2010.05.20 12:20:32.
