data_PCOD9587916
_publ_section_title
;
Structure prediction by ZEFSAII (Michael W. Deem and Ramdas Pophale) SiO2 
 PCOD9587916
Probable space group: P 6/M M M
;
_chemical_formula_sum "Si O2"
_cell_formula_units_Z 120
_cell_length_a 23.765972
_cell_length_b 23.765972
_cell_length_c 14.568352
_cell_angle_alpha 90.000000
_cell_angle_beta 90.000000
_cell_angle_gamma 120.000000
_cell_volume 7126.105050
_symmetry_space_group_name_H-M "P 6/M M M"
_symmetry_group_IT_number 191
_symmetry_cell_setting 'hexagonal'
loop_
_space_group_symop_operation_xyz
x,y,z
x-y,x,z
-y,x-y,z
-x,-y,z
-x+y,-x,z
y,-x+y,z
x-y,-y,-z
-x,-x+y,-z
y,x,-z
-y,-x,-z
-x+y,y,-z
x,x-y,-z
-x,-y,-z
-x+y,-x,-z
y,-x+y,-z
x,y,-z
x-y,x,-z
-y,x-y,-z
-x+y,y,z
x,x-y,z
-y,-x,z
y,x,z
x-y,-y,z
-x,-x+y,z
loop_
_atom_site_type_symbol
_atom_site_label
_atom_site_fract_x
_atom_site_fract_y
_atom_site_fract_z
Si Si1 0.072732 0.277889 0.243220
Si Si2 0.734878 0.606357 0.895313
Si Si3 0.796562 0.333939 0.112103
Si Si4 0.476719 0.400768 0.611696
Si Si5 0.744150 0.127840 0.609461
O O1 0.130855 0.261710 0.232785
O O2 0.084389 0.333058 0.168494
O O3 0.083892 0.316104 0.339065
O O4 0.000000 0.218807 0.236175
O O5 0.801392 0.602784 0.897006
O O6 0.681066 0.534699 0.861918
O O7 0.720447 0.616175 0.000000
O O8 0.804518 0.402259 0.142025
O O9 0.726883 0.273118 0.141003
O O10 0.796031 0.333260 0.000000
O O11 0.478550 0.400033 0.500000
O O12 0.550075 0.449926 0.643233
O O13 0.433720 0.433720 0.636489
O O14 0.439015 0.326472 0.640975
O O15 0.742817 0.118489 0.500000
O O16 0.798460 0.201541 0.631434
#
# Coordination Sequence:
#
# PCOD9587916 Si02
#       5
#    24  24  24  24  24
#     4  10  20  33  50  71  92 113 139 173 213 259
#     4   8  15  28  44  62  86 118 154 188 221 256
#     4   8  12  19  35  60  89 121 157 195 231 264
#     4   8  13  22  38  59  82 110 144 181 218 251
#     4   9  17  29  46  68  93 120 148 179 217 259
#
# _framework density 16.839493000000001
#
# number of rings (size 3 to 8) (size 9 to 14) (size 15 to 20)
#    0.000    3.400    0.000    2.600    0.000    2.400 
#    0.000    1.000    0.000    2.400    0.000    5.600 
#    0.000    0.000    0.000   10.000    0.000    0.000 
#
# Total GULP energy -668067.017715 kJ/mol
# GULP energy per Si atom -5567.225148 kJ/mol
# Density = 1.680117 g / cm^3
# Si number density = 16.839493 Si / 1000 Ang^3
#
#
#
# Elastic Constant Matrix: (Units=GPa)
#
#
# Indices 1 2 3 4 5 6 
#
# 1 97.8411 56.6669 21.8392 0.0000 0.0000 0.0000
# 2 56.6669 97.8411 21.8392 0.0000 0.0000 0.0000
# 3 21.8392 21.8392 33.0198 0.0000 0.0000 0.0000
# 4 0.0000 0.0000 0.0000 10.7579 0.0000 0.0000
# 5 0.0000 0.0000 0.0000 0.0000 10.7579 0.0000
# 6 0.0000 0.0000 0.0000 0.0000 0.0000 20.5871
#
#
#
# Elastic Compliance Matrix: (Units=1/GPa)
#
#
# Indices 1 2 3 4 5 6 
#
# 1 0.016124 -0.008163 -0.005265 0.000000 0.000000 0.000000
# 2 -0.008163 0.016124 -0.005265 0.000000 0.000000 0.000000
# 3 -0.005265 -0.005265 0.037249 0.000000 0.000000 0.000000
# 4 0.000000 0.000000 0.000000 0.092955 0.000000 0.000000
# 5 0.000000 0.000000 0.000000 0.000000 0.092955 0.000000
# 6 0.000000 0.000000 0.000000 0.000000 0.000000 0.048574
#
#
# Mechanical properties :
#
#
# Convention : Reuss Voigt Hill
#
# Bulk Modulus (GPa) = 31.14274 47.71029 39.42652
# Shear Modulus (GPa) = 14.20166 16.97769 15.58968
#
# Velocity S-wave (km/s) = 2.90721 3.17867 3.04597
# Velocity P-wave (km/s) = 5.45923 6.47038 5.98619
#
# Compressibility (1/GPa) = 0.03211021
#
# Stress axis : x y z
#
# Youngs Moduli (GPa) = 62.02013 62.02013 26.84605
#
# Poissons Ratio (x) = 0.50628 0.14135
# Poissons Ratio (y) = 0.50628 0.14135
# Poissons Ratio (z) = 0.32654 0.32654
#
# Static dielectric constant tensor:
#      x y z
#    x 1.569790 0.000000 0.000000 
#    y 0.000000 1.569790 0.000000 
#    z 0.000000 0.000000 1.608040 
# 
# From -- ./inp_files/4671.got.cif
#   From: 2010.05.17/outbox.cif.g08.bks.cpg/sg191_3_cif.got.tgz:4671.got - 2010.05.20 12:20:32.
