data_PCOD9587881
_publ_section_title
;
Structure prediction by ZEFSAII (Michael W. Deem and Ramdas Pophale) SiO2 
 PCOD9587881
Probable space group: P 6/M M M
;
_chemical_formula_sum "Si O2"
_cell_formula_units_Z 120
_cell_length_a 18.045077
_cell_length_b 18.045077
_cell_length_c 25.837130
_cell_angle_alpha 90.000000
_cell_angle_beta 90.000000
_cell_angle_gamma 120.000000
_cell_volume 7286.053926
_symmetry_space_group_name_H-M "P 6/M M M"
_symmetry_group_IT_number 191
_symmetry_cell_setting 'hexagonal'
loop_
_space_group_symop_operation_xyz
x,y,z
x-y,x,z
-y,x-y,z
-x,-y,z
-x+y,-x,z
y,-x+y,z
x-y,-y,-z
-x,-x+y,-z
y,x,-z
-y,-x,-z
-x+y,y,-z
x,x-y,-z
-x,-y,-z
-x+y,-x,-z
y,-x+y,-z
x,y,-z
x-y,x,-z
-y,x-y,-z
-x+y,y,z
x,x-y,z
-y,-x,z
y,x,z
x-y,-y,z
-x,-x+y,z
loop_
_atom_site_type_symbol
_atom_site_label
_atom_site_fract_x
_atom_site_fract_y
_atom_site_fract_z
Si Si1 0.635185 0.733621 0.401945
Si Si2 0.508239 0.667413 0.000000
Si Si3 0.493215 0.159541 0.309497
Si Si4 0.840456 0.506843 0.189566
Si Si5 0.896585 0.532085 0.500000
Si Si6 0.731262 0.634740 0.096569
O O1 0.668244 0.834122 0.400561
O O2 0.706499 0.706499 0.409626
O O3 0.583325 0.691782 0.349267
O O4 0.567111 0.692462 0.448766
O O5 0.567044 0.684707 0.050285
O O6 0.425678 0.574322 0.000000
O O7 0.481636 0.740818 0.000000
O O8 0.574895 0.149790 0.321972
O O9 0.517402 0.258701 0.313723
O O10 0.469445 0.134208 0.249518
O O11 0.741115 0.482229 0.185050
O O12 0.849700 0.424850 0.177015
O O13 0.891245 0.583482 0.149878
O O14 0.862156 0.431078 0.500000
O O15 0.000000 0.578604 0.500000
O O16 0.830573 0.661145 0.094467
O O17 0.710486 0.710486 0.091596
#
# Coordination Sequence:
#
# PCOD9587881 Si02
#       6
#    24  12  24  24  12  24
#     4  10  20  33  49  69  93 122 157 197 240 282
#     4  10  20  33  50  73 102 134 163 188 216 257
#     4   9  17  29  46  69  97 128 159 190 225 268
#     4   9  17  29  46  69  98 130 160 188 221 266
#     4   9  17  30  49  72  96 120 146 177 215 264
#     4  10  21  35  50  69  93 122 156 196 241 282
#
# _framework density 16.469819999999999
#
# number of rings (size 3 to 8) (size 9 to 14) (size 15 to 20)
#    0.000    2.500    0.000    2.300    0.000    5.600 
#    0.000    4.000    0.000    3.200    0.000    0.000 
#    0.000    4.800    0.000   10.000    0.000    0.000 
#
# Total GULP energy -669349.374249 kJ/mol
# GULP energy per Si atom -5577.911452 kJ/mol
# Density = 1.643233 g / cm^3
# Si number density = 16.469820 Si / 1000 Ang^3
#
#
#
# Elastic Constant Matrix: (Units=GPa)
#
#
# Indices 1 2 3 4 5 6 
#
# 1 83.9245 70.3105 38.6980 0.0000 0.0000 0.0000
# 2 70.3105 83.9245 38.6980 0.0000 0.0000 0.0000
# 3 38.6980 38.6980 66.7232 0.0000 0.0000 0.0000
# 4 0.0000 0.0000 0.0000 14.9391 0.0000 0.0000
# 5 0.0000 0.0000 0.0000 0.0000 14.9391 0.0000
# 6 0.0000 0.0000 0.0000 0.0000 0.0000 6.8070
#
#
#
# Elastic Compliance Matrix: (Units=1/GPa)
#
#
# Indices 1 2 3 4 5 6 
#
# 1 0.041299 -0.032154 -0.005304 0.000000 0.000000 0.000000
# 2 -0.032154 0.041299 -0.005304 0.000000 0.000000 0.000000
# 3 -0.005304 -0.005304 0.021140 0.000000 0.000000 0.000000
# 4 0.000000 0.000000 0.000000 0.066938 0.000000 0.000000
# 5 0.000000 0.000000 0.000000 0.000000 0.066938 0.000000
# 6 0.000000 0.000000 0.000000 0.000000 0.000000 0.146907
#
#
# Mechanical properties :
#
#
# Convention : Reuss Voigt Hill
#
# Bulk Modulus (GPa) = 54.90267 58.88726 56.89497
# Shear Modulus (GPa) = 10.50158 13.12809 11.81484
#
# Velocity S-wave (km/s) = 2.52786 2.82636 2.68127
# Velocity P-wave (km/s) = 6.47517 6.81787 6.64873
#
# Compressibility (1/GPa) = 0.01821405
#
# Stress axis : x y z
#
# Youngs Moduli (GPa) = 24.21340 24.21340 47.30424
#
# Poissons Ratio (x) = 0.77856 0.25090
# Poissons Ratio (y) = 0.77856 0.25090
# Poissons Ratio (z) = 0.12843 0.12843
#
# Static dielectric constant tensor:
#      x y z
#    x 1.540230 0.000000 0.000000 
#    y 0.000000 1.540230 0.000000 
#    z 0.000000 0.000000 1.568830 
# 
# From -- ./inp_files/8505.got.cif
#   From: 2010.05.17/outbox.cif.g08.bks.cpg/sg191_5_cif.got.tgz:8505.got - 2010.05.20 12:20:32.
