data_PCOD9587481
_publ_section_title
;
Structure prediction by ZEFSAII (Michael W. Deem and Ramdas Pophale) SiO2 
 PCOD9587481
Probable space group: P 6/M M M
;
_chemical_formula_sum "Si O2"
_cell_formula_units_Z 120
_cell_length_a 18.574271
_cell_length_b 18.574271
_cell_length_c 25.400138
_cell_angle_alpha 90.000000
_cell_angle_beta 90.000000
_cell_angle_gamma 120.000000
_cell_volume 7589.099785
_symmetry_space_group_name_H-M "P 6/M M M"
_symmetry_group_IT_number 191
_symmetry_cell_setting 'hexagonal'
loop_
_space_group_symop_operation_xyz
x,y,z
x-y,x,z
-y,x-y,z
-x,-y,z
-x+y,-x,z
y,-x+y,z
x-y,-y,-z
-x,-x+y,-z
y,x,-z
-y,-x,-z
-x+y,y,-z
x,x-y,-z
-x,-y,-z
-x+y,-x,-z
y,-x+y,-z
x,y,-z
x-y,x,-z
-y,x-y,-z
-x+y,y,z
x,x-y,z
-y,-x,z
y,x,z
x-y,-y,z
-x,-x+y,z
loop_
_atom_site_type_symbol
_atom_site_label
_atom_site_fract_x
_atom_site_fract_y
_atom_site_fract_z
Si Si1 0.667899 0.500968 0.233593
Si Si2 0.665919 0.165836 0.937694
Si Si3 0.099392 0.467322 0.349217
Si Si4 0.904005 0.647378 0.560295
Si Si5 0.358660 0.263717 0.853145
O O1 0.737294 0.474587 0.224131
O O2 0.576007 0.423994 0.223298
O O3 0.671175 0.526941 0.294381
O O4 0.692822 0.579342 0.196141
O O5 0.577055 0.154109 0.921704
O O6 0.738283 0.261718 0.929652
O O7 0.694034 0.111754 0.903830
O O8 0.662987 0.148425 0.000000
O O9 0.119468 0.559734 0.363535
O O10 0.119070 0.424031 0.396877
O O11 0.000000 0.413588 0.339978
O O12 0.896232 0.616252 0.500000
O O13 0.840683 0.681366 0.565962
O O14 0.000000 0.715461 0.568316
O O15 0.333420 0.166710 0.852813
O O16 0.285538 0.285538 0.852188
#
# Coordination Sequence:
#
# PCOD9587481 Si02
#       5
#    24  24  24  24  24
#     4  10  19  30  45  66  94 126 156 183 211 248
#     4   9  17  29  46  69  98 131 163 191 218 252
#     4   9  17  28  43  64  88 115 149 187 222 255
#     4   9  17  29  45  64  86 113 146 184 225 269
#     4  10  21  35  50  68  90 117 149 187 231 275
#
# _framework density 15.812151
#
# number of rings (size 3 to 8) (size 9 to 14) (size 15 to 20)
#    0.000    2.600    0.000    2.200    0.000    4.000 
#    0.000    5.000    0.000    0.800    0.000    1.400 
#    0.000    0.000    0.000   11.400    0.000    4.400 
#
# Total GULP energy -668835.699795 kJ/mol
# GULP energy per Si atom -5573.630832 kJ/mol
# Density = 1.577616 g / cm^3
# Si number density = 15.812151 Si / 1000 Ang^3
#
#
#
# Elastic Constant Matrix: (Units=GPa)
#
#
# Indices 1 2 3 4 5 6 
#
# 1 80.3686 54.5056 40.2906 0.0000 0.0000 0.0000
# 2 54.5056 80.3686 40.2906 0.0000 0.0000 0.0000
# 3 40.2906 40.2906 64.2435 0.0000 0.0000 0.0000
# 4 0.0000 0.0000 0.0000 20.1831 0.0000 0.0000
# 5 0.0000 0.0000 0.0000 0.0000 20.1831 0.0000
# 6 0.0000 0.0000 0.0000 0.0000 0.0000 12.9315
#
#
#
# Elastic Compliance Matrix: (Units=1/GPa)
#
#
# Indices 1 2 3 4 5 6 
#
# 1 0.025261 -0.013404 -0.007436 0.000000 0.000000 0.000000
# 2 -0.013404 0.025261 -0.007436 0.000000 0.000000 0.000000
# 3 -0.007436 -0.007436 0.024893 0.000000 0.000000 0.000000
# 4 0.000000 0.000000 0.000000 0.049546 0.000000 0.000000
# 5 0.000000 0.000000 0.000000 0.000000 0.049546 0.000000
# 6 0.000000 0.000000 0.000000 0.000000 0.000000 0.077330
#
#
# Mechanical properties :
#
#
# Convention : Reuss Voigt Hill
#
# Bulk Modulus (GPa) = 53.01555 55.01715 54.01635
# Shear Modulus (GPa) = 15.88917 16.65245 16.27081
#
# Velocity S-wave (km/s) = 3.17341 3.24874 3.21129
# Velocity P-wave (km/s) = 6.85773 6.99587 6.92714
#
# Compressibility (1/GPa) = 0.01886239
#
# Stress axis : x y z
#
# Youngs Moduli (GPa) = 39.58640 39.58640 40.17166
#
# Poissons Ratio (x) = 0.53062 0.29873
# Poissons Ratio (y) = 0.53062 0.29873
# Poissons Ratio (z) = 0.29438 0.29438
#
# Static dielectric constant tensor:
#      x y z
#    x 1.516010 0.000000 0.000000 
#    y 0.000000 1.516010 0.000000 
#    z 0.000000 0.000000 1.540020 
# 
# From -- ./inp_files/10242.got.cif
#   From: 2010.05.17/outbox.cif.g08.bks.cpg/sg191_6_cif.got.tgz:10242.got - 2010.05.20 12:20:32.
