data_PCOD9587711
_publ_section_title
;
Structure prediction by ZEFSAII (Michael W. Deem and Ramdas Pophale) SiO2 
 PCOD9587711
Probable space group: P 6/M M M
;
_chemical_formula_sum "Si O2"
_cell_formula_units_Z 168
_cell_length_a 31.483508
_cell_length_b 31.483508
_cell_length_c 11.734464
_cell_angle_alpha 90.000000
_cell_angle_beta 90.000000
_cell_angle_gamma 120.000000
_cell_volume 10073.029888
_symmetry_space_group_name_H-M "P 6/M M M"
_symmetry_group_IT_number 191
_symmetry_cell_setting 'hexagonal'
loop_
_space_group_symop_operation_xyz
x,y,z
x-y,x,z
-y,x-y,z
-x,-y,z
-x+y,-x,z
y,-x+y,z
x-y,-y,-z
-x,-x+y,-z
y,x,-z
-y,-x,-z
-x+y,y,-z
x,x-y,-z
-x,-y,-z
-x+y,-x,-z
y,-x+y,-z
x,y,-z
x-y,x,-z
-y,x-y,-z
-x+y,y,z
x,x-y,z
-y,-x,z
y,x,z
x-y,-y,z
-x,-x+y,z
loop_
_atom_site_type_symbol
_atom_site_label
_atom_site_fract_x
_atom_site_fract_y
_atom_site_fract_z
Si Si1 0.796939 0.101657 0.734443
Si Si2 0.252313 0.402550 0.132507
Si Si3 0.868741 0.342858 0.710748
Si Si4 0.417623 0.359221 0.500000
Si Si5 0.053310 0.475838 0.130227
Si Si6 0.685309 0.741563 0.500000
Si Si7 0.793857 0.945505 0.134143
Si Si8 0.432292 0.765621 0.362309
O O1 0.846830 0.153171 0.716588
O O2 0.764968 0.112771 0.823761
O O3 0.770291 0.082441 0.614627
O O4 0.812373 0.065195 0.791073
O O5 0.204570 0.409139 0.138556
O O6 0.293022 0.437964 0.222081
O O7 0.268503 0.409782 0.000000
O O8 0.907583 0.355426 0.607667
O O9 0.900082 0.385767 0.799305
O O10 0.817864 0.339616 0.674107
O O11 0.402945 0.402945 0.500000
O O12 0.365673 0.309325 0.500000
O O13 0.051608 0.525804 0.128444
O O14 0.000000 0.434066 0.176171
O O15 0.057061 0.462640 0.000000
O O16 0.728347 0.728347 0.500000
O O17 0.806788 0.903394 0.159463
O O18 0.837371 0.000000 0.154113
O O19 0.780320 0.940941 0.000000
O O20 0.432132 0.764813 0.500000
O O21 0.380742 0.761484 0.325760
O O22 0.436274 0.718137 0.324146
#
# Coordination Sequence:
#
# PCOD9587711 Si02
#       8
#    24  24  24  12  24  12  24  24
#     4  10  19  33  51  72  99 136 176 217 263 312
#     4  10  21  35  52  76 105 135 173 224 270 309
#     4  12  20  37  56  82 107 145 183 218 262 324
#     4  11  24  37  50  73 113 148 180 221 263 311
#     4   9  19  36  57  80 106 138 178 224 269 312
#     4  11  21  35  49  70 103 143 177 212 258 310
#     4   9  17  30  49  72  98 130 170 217 267 319
#     4  10  21  37  58  84 113 143 177 220 269 322
#
# _framework density 16.6782
#
# number of rings (size 3 to 8) (size 9 to 14) (size 15 to 20)
#    0.000    1.857    2.143    3.357    0.000    2.286 
#    0.000    0.000    0.000    5.286    0.000    1.000 
#    0.000    6.857    0.000    0.000    0.000   14.857 
#
# Total GULP energy -936250.708158 kJ/mol
# GULP energy per Si atom -5572.920882 kJ/mol
# Density = 1.664024 g / cm^3
# Si number density = 16.678200 Si / 1000 Ang^3
#
#
#
# Elastic Constant Matrix: (Units=GPa)
#
#
# Indices 1 2 3 4 5 6 
#
# 1 92.1246 64.3288 41.8197 0.0000 0.0000 0.0000
# 2 64.3288 92.1246 41.8197 0.0000 0.0000 0.0000
# 3 41.8197 41.8197 75.2275 0.0000 0.0000 0.0000
# 4 0.0000 0.0000 0.0000 26.1286 0.0000 0.0000
# 5 0.0000 0.0000 0.0000 0.0000 26.1286 0.0000
# 6 0.0000 0.0000 0.0000 0.0000 0.0000 13.8979
#
#
#
# Elastic Compliance Matrix: (Units=1/GPa)
#
#
# Indices 1 2 3 4 5 6 
#
# 1 0.022536 -0.013441 -0.005056 0.000000 0.000000 0.000000
# 2 -0.013441 0.022536 -0.005056 0.000000 0.000000 0.000000
# 3 -0.005056 -0.005056 0.018914 0.000000 0.000000 0.000000
# 4 0.000000 0.000000 0.000000 0.038272 0.000000 0.000000
# 5 0.000000 0.000000 0.000000 0.000000 0.038272 0.000000
# 6 0.000000 0.000000 0.000000 0.000000 0.000000 0.071953
#
#
# Mechanical properties :
#
#
# Convention : Reuss Voigt Hill
#
# Bulk Modulus (GPa) = 59.24118 61.71256 60.47687
# Shear Modulus (GPa) = 18.85267 20.66492 19.75879
#
# Velocity S-wave (km/s) = 3.36576 3.52382 3.44569
# Velocity P-wave (km/s) = 7.12051 7.32384 7.22289
#
# Compressibility (1/GPa) = 0.01688015
#
# Stress axis : x y z
#
# Youngs Moduli (GPa) = 44.37440 44.37440 52.87092
#
# Poissons Ratio (x) = 0.59644 0.26730
# Poissons Ratio (y) = 0.59644 0.26730
# Poissons Ratio (z) = 0.22434 0.22434
#
# Static dielectric constant tensor:
#      x y z
#    x 1.559080 0.000000 0.000000 
#    y 0.000000 1.559080 0.000000 
#    z 0.000000 0.000000 1.565280 
# 
# From -- ./inp_files/3658.got.cif
#   From: 2010.05.17/outbox.cif.g08.bks.cpg/sg191_2_cif.got.tgz:3658.got - 2010.05.20 12:20:32.
