data_PCOD9587756
_publ_section_title
;
Structure prediction by ZEFSAII (Michael W. Deem and Ramdas Pophale) SiO2 
 PCOD9587756
Probable space group: P 6/M M M
;
_chemical_formula_sum "Si O2"
_cell_formula_units_Z 120
_cell_length_a 21.427856
_cell_length_b 21.427856
_cell_length_c 17.857508
_cell_angle_alpha 90.000000
_cell_angle_beta 90.000000
_cell_angle_gamma 120.000000
_cell_volume 7100.826860
_symmetry_space_group_name_H-M "P 6/M M M"
_symmetry_group_IT_number 191
_symmetry_cell_setting 'hexagonal'
loop_
_space_group_symop_operation_xyz
x,y,z
x-y,x,z
-y,x-y,z
-x,-y,z
-x+y,-x,z
y,-x+y,z
x-y,-y,-z
-x,-x+y,-z
y,x,-z
-y,-x,-z
-x+y,y,-z
x,x-y,-z
-x,-y,-z
-x+y,-x,-z
y,-x+y,-z
x,y,-z
x-y,x,-z
-y,x-y,-z
-x+y,y,z
x,x-y,z
-y,-x,z
y,x,z
x-y,-y,z
-x,-x+y,z
loop_
_atom_site_type_symbol
_atom_site_label
_atom_site_fract_x
_atom_site_fract_y
_atom_site_fract_z
Si Si1 0.775974 0.695478 0.650866
Si Si2 0.917609 0.082392 0.091102
Si Si3 0.299037 0.383245 0.194062
Si Si4 0.664260 0.477908 0.719991
Si Si5 0.357597 0.917130 0.586128
Si Si6 0.166395 0.332789 0.089402
O O1 0.856083 0.712165 0.638680
O O2 0.761475 0.761475 0.643336
O O3 0.749156 0.661435 0.733854
O O4 0.719757 0.632030 0.596507
O O5 0.875842 0.124159 0.111175
O O6 0.000000 0.124484 0.117235
O O7 0.919187 0.080814 0.000000
O O8 0.354972 0.354972 0.181094
O O9 0.334499 0.465922 0.219168
O O10 0.245164 0.367215 0.125613
O O11 0.743174 0.486348 0.715540
O O12 0.603258 0.396743 0.736251
O O13 0.644425 0.503022 0.642468
O O14 0.369427 0.905965 0.500000
O O15 0.415847 0.000000 0.607536
O O16 0.169152 0.338303 0.000000
#
# Coordination Sequence:
#
# PCOD9587756 Si02
#       6
#    24  12  24  24  24  12
#     4   9  16  28  47  68  95 133 175 214 256 304
#     4   9  17  28  43  68 106 149 183 207 242 306
#     4  10  19  34  55  79 106 138 176 219 264 313
#     4  11  22  37  56  79 107 142 183 222 265 321
#     4   9  18  32  52  79 109 139 172 215 261 304
#     4  11  20  33  54  81 111 139 171 221 280 328
#
# _framework density 16.899440999999999
#
# number of rings (size 3 to 8) (size 9 to 14) (size 15 to 20)
#    0.000    2.200    2.000    4.500    0.000    5.200 
#    0.000    1.000    0.000    2.000    0.000    1.400 
#    0.000    0.000    0.000    5.000    0.000    0.000 
#
# Total GULP energy -669431.696916 kJ/mol
# GULP energy per Si atom -5578.597474 kJ/mol
# Density = 1.686098 g / cm^3
# Si number density = 16.899441 Si / 1000 Ang^3
#
#
#
# Elastic Constant Matrix: (Units=GPa)
#
#
# Indices 1 2 3 4 5 6 
#
# 1 91.3177 44.5094 24.8837 0.0000 0.0000 0.0000
# 2 44.5094 91.3177 24.8837 0.0000 0.0000 0.0000
# 3 24.8837 24.8837 61.8956 0.0000 0.0000 0.0000
# 4 0.0000 0.0000 0.0000 5.2628 0.0000 0.0000
# 5 0.0000 0.0000 0.0000 0.0000 5.2628 0.0000
# 6 0.0000 0.0000 0.0000 0.0000 0.0000 23.4042
#
#
#
# Elastic Compliance Matrix: (Units=1/GPa)
#
#
# Indices 1 2 3 4 5 6 
#
# 1 0.014999 -0.006365 -0.003471 0.000000 0.000000 0.000000
# 2 -0.006365 0.014999 -0.003471 0.000000 0.000000 0.000000
# 3 -0.003471 -0.003471 0.018947 0.000000 0.000000 0.000000
# 4 0.000000 0.000000 0.000000 0.190015 0.000000 0.000000
# 5 0.000000 0.000000 0.000000 0.000000 0.190015 0.000000
# 6 0.000000 0.000000 0.000000 0.000000 0.000000 0.042727
#
#
# Mechanical properties :
#
#
# Convention : Reuss Voigt Hill
#
# Bulk Modulus (GPa) = 44.78103 48.12053 46.45078
# Shear Modulus (GPa) = 9.88612 16.80288 13.34450
#
# Velocity S-wave (km/s) = 2.42129 3.15665 2.81310
# Velocity P-wave (km/s) = 5.86284 6.46702 6.17233
#
# Compressibility (1/GPa) = 0.02233088
#
# Stress axis : x y z
#
# Youngs Moduli (GPa) = 66.67143 66.67143 52.77807
#
# Poissons Ratio (x) = 0.42435 0.18320
# Poissons Ratio (y) = 0.42435 0.18320
# Poissons Ratio (z) = 0.23143 0.23143
#
# Static dielectric constant tensor:
#      x y z
#    x 1.570940 0.000000 0.000000 
#    y 0.000000 1.570940 0.000000 
#    z 0.000000 0.000000 1.566320 
# 
# From -- ./inp_files/6239.got.cif
#   From: 2010.05.17/outbox.cif.g08.bks.cpg/sg191_4_cif.got.tgz:6239.got - 2010.05.20 12:20:32.
