data_PCOD9587270
_publ_section_title
;
Structure prediction by ZEFSAII (Michael W. Deem and Ramdas Pophale) SiO2 
 PCOD9587270
Probable space group: P 6/M M M
;
_chemical_formula_sum "Si O2"
_cell_formula_units_Z 108
_cell_length_a 22.624589
_cell_length_b 22.624589
_cell_length_c 17.676850
_cell_angle_alpha 90.000000
_cell_angle_beta 90.000000
_cell_angle_gamma 120.000000
_cell_volume 7836.044712
_symmetry_space_group_name_H-M "P 6/M M M"
_symmetry_group_IT_number 191
_symmetry_cell_setting 'hexagonal'
loop_
_space_group_symop_operation_xyz
x,y,z
x-y,x,z
-y,x-y,z
-x,-y,z
-x+y,-x,z
y,-x+y,z
x-y,-y,-z
-x,-x+y,-z
y,x,-z
-y,-x,-z
-x+y,y,-z
x,x-y,-z
-x,-y,-z
-x+y,-x,-z
y,-x+y,-z
x,y,-z
x-y,x,-z
-y,x-y,-z
-x+y,y,z
x,x-y,z
-y,-x,z
y,x,z
x-y,-y,z
-x,-x+y,z
loop_
_atom_site_type_symbol
_atom_site_label
_atom_site_fract_x
_atom_site_fract_y
_atom_site_fract_z
Si Si1 0.193151 0.526378 0.000000
Si Si2 0.922751 0.713865 0.090911
Si Si3 0.438924 0.288392 0.150864
Si Si4 0.468696 0.079418 0.290060
Si Si5 0.667199 0.194812 0.589676
O O1 0.159236 0.482433 0.924668
O O2 0.271155 0.542309 0.000000
O O3 0.189658 0.594829 0.000000
O O4 0.869561 0.739121 0.108866
O O5 0.894271 0.640410 0.128800
O O6 0.000000 0.764819 0.113213
O O7 0.920620 0.703812 0.000000
O O8 0.452146 0.226073 0.171664
O O9 0.456014 0.341789 0.217602
O O10 0.540179 0.080357 0.280559
O O11 0.479187 0.127998 0.361583
O O12 0.411206 0.000000 0.299095
O O13 0.668719 0.182623 0.500000
O O14 0.605154 0.210308 0.602051
O O15 0.739102 0.260899 0.610881
#
# Coordination Sequence:
#
# PCOD9587270 Si02
#       5
#    12  24  24  24  24
#     4  10  19  30  43  59  80 107 140 178 219 257
#     4   9  16  27  43  61  79 101 131 165 199 235
#     4  10  18  30  45  60  80 108 142 177 209 241
#     4  10  20  31  42  60  86 112 137 167 206 251
#     4   9  17  30  48  67  84 104 133 169 207 247
#
# _framework density 13.782463
#
# number of rings (size 3 to 8) (size 9 to 14) (size 15 to 20)
#    0.000    2.444    1.111    2.333    0.000    1.333 
#    0.000    2.222    0.000   10.000    0.000    1.556 
#    0.000    0.000    0.000    0.000    0.000    0.000 
#
# Total GULP energy -601823.535486 kJ/mol
# GULP energy per Si atom -5572.440143 kJ/mol
# Density = 1.375109 g / cm^3
# Si number density = 13.782463 Si / 1000 Ang^3
#
#
#
# Elastic Constant Matrix: (Units=GPa)
#
#
# Indices 1 2 3 4 5 6 
#
# 1 95.4285 59.7204 53.7542 0.0000 0.0000 0.0000
# 2 59.7204 95.4285 53.7542 0.0000 0.0000 0.0000
# 3 53.7542 53.7542 68.9302 0.0000 0.0000 0.0000
# 4 0.0000 0.0000 0.0000 17.6424 0.0000 0.0000
# 5 0.0000 0.0000 0.0000 0.0000 17.6424 0.0000
# 6 0.0000 0.0000 0.0000 0.0000 0.0000 17.8540
#
#
#
# Elastic Compliance Matrix: (Units=1/GPa)
#
#
# Indices 1 2 3 4 5 6 
#
# 1 0.021014 -0.006991 -0.010936 0.000000 0.000000 0.000000
# 2 -0.006991 0.021014 -0.010936 0.000000 0.000000 0.000000
# 3 -0.010936 -0.010936 0.031564 0.000000 0.000000 0.000000
# 4 0.000000 0.000000 0.000000 0.056682 0.000000 0.000000
# 5 0.000000 0.000000 0.000000 0.000000 0.056682 0.000000
# 6 0.000000 0.000000 0.000000 0.000000 0.000000 0.056010
#
#
# Mechanical properties :
#
#
# Convention : Reuss Voigt Hill
#
# Bulk Modulus (GPa) = 63.02423 66.02722 64.52573
# Shear Modulus (GPa) = 16.34099 16.79832 16.56965
#
# Velocity S-wave (km/s) = 3.44704 3.49494 3.47108
# Velocity P-wave (km/s) = 7.85302 8.01853 7.93621
#
# Compressibility (1/GPa) = 0.01586691
#
# Stress axis : x y z
#
# Youngs Moduli (GPa) = 47.58713 47.58713 31.68189
#
# Poissons Ratio (x) = 0.33267 0.34647
# Poissons Ratio (y) = 0.33267 0.34647
# Poissons Ratio (z) = 0.52041 0.52041
#
# Static dielectric constant tensor:
#      x y z
#    x 1.443020 0.000000 0.000000 
#    y 0.000000 1.443020 0.000000 
#    z 0.000000 0.000000 1.439860 
# 
# From -- ./inp_files/6065.got.cif
#   From: 2010.05.17/outbox.cif.g08.bks.cpg/sg191_4_cif.got.tgz:6065.got - 2010.05.20 12:20:32.
