data_PCOD9587546
_publ_section_title
;
Structure prediction by ZEFSAII (Michael W. Deem and Ramdas Pophale) SiO2 
 PCOD9587546
Probable space group: P 6/M M M
;
_chemical_formula_sum "Si O2"
_cell_formula_units_Z 168
_cell_length_a 23.007695
_cell_length_b 23.007695
_cell_length_c 22.595621
_cell_angle_alpha 90.000000
_cell_angle_beta 90.000000
_cell_angle_gamma 120.000000
_cell_volume 10358.601751
_symmetry_space_group_name_H-M "P 6/M M M"
_symmetry_group_IT_number 191
_symmetry_cell_setting 'hexagonal'
loop_
_space_group_symop_operation_xyz
x,y,z
x-y,x,z
-y,x-y,z
-x,-y,z
-x+y,-x,z
y,-x+y,z
x-y,-y,-z
-x,-x+y,-z
y,x,-z
-y,-x,-z
-x+y,y,-z
x,x-y,-z
-x,-y,-z
-x+y,-x,-z
y,-x+y,-z
x,y,-z
x-y,x,-z
-y,x-y,-z
-x+y,y,z
x,x-y,z
-y,-x,z
y,x,z
x-y,-y,z
-x,-x+y,z
loop_
_atom_site_type_symbol
_atom_site_label
_atom_site_fract_x
_atom_site_fract_y
_atom_site_fract_z
Si Si1 0.793341 0.074025 0.104160
Si Si2 0.333731 0.528629 0.303354
Si Si3 0.716091 0.573488 0.935078
Si Si4 0.076117 0.284711 0.246070
Si Si5 0.790752 0.076044 0.570328
Si Si6 0.530258 0.196131 0.163347
Si Si7 0.689698 0.077935 0.663137
O O1 0.866683 0.133318 0.087017
O O2 0.738423 0.087759 0.074228
O O3 0.785965 0.079264 0.175166
O O4 0.778305 0.000000 0.090641
O O5 0.265379 0.530758 0.315204
O O6 0.399776 0.600225 0.316340
O O7 0.334810 0.515654 0.232822
O O8 0.332899 0.466079 0.335629
O O9 0.786492 0.572984 0.933696
O O10 0.674056 0.527914 0.880499
O O11 0.685501 0.549275 0.000000
O O12 0.134398 0.268795 0.263001
O O13 0.088619 0.351332 0.280044
O O14 0.000000 0.228249 0.261360
O O15 0.781389 0.079861 0.500000
O O16 0.865572 0.134429 0.585359
O O17 0.737472 0.086804 0.607579
O O18 0.773017 0.000000 0.583584
O O19 0.598714 0.197428 0.149510
O O20 0.539736 0.269868 0.154400
O O21 0.630830 0.000000 0.664049
#
# Coordination Sequence:
#
# PCOD9587546 Si02
#       7
#    24  24  24  24  24  24  24
#     4   9  17  29  45  64  85 109 138 174 216 261
#     4  10  19  31  48  69  94 122 152 187 228 276
#     4   9  17  28  42  61  84 110 141 176 213 253
#     4   9  16  26  42  64  88 113 143 180 221 264
#     4   9  17  29  46  69  97 128 161 196 233 273
#     4   9  17  29  45  65  89 118 150 183 219 258
#     4  10  19  30  47  70  93 119 152 190 231 270
#
# _framework density 16.218405000000001
#
# number of rings (size 3 to 8) (size 9 to 14) (size 15 to 20)
#    0.000    2.714    0.000    2.429    0.000    4.286 
#    0.000    0.000    0.000    3.000    0.000    6.000 
#    0.000    4.571    0.000    3.857    0.000    3.714 
#
# Total GULP energy -935943.342326 kJ/mol
# GULP energy per Si atom -5571.091323 kJ/mol
# Density = 1.618149 g / cm^3
# Si number density = 16.218405 Si / 1000 Ang^3
#
#
#
# Elastic Constant Matrix: (Units=GPa)
#
#
# Indices 1 2 3 4 5 6 
#
# 1 100.8606 61.3043 30.6902 0.0000 0.0000 0.0000
# 2 61.3043 100.8606 30.6902 0.0000 0.0000 0.0000
# 3 30.6902 30.6902 32.1773 0.0000 0.0000 0.0000
# 4 0.0000 0.0000 0.0000 13.0289 0.0000 0.0000
# 5 0.0000 0.0000 0.0000 0.0000 13.0289 0.0000
# 6 0.0000 0.0000 0.0000 0.0000 0.0000 19.7782
#
#
#
# Elastic Compliance Matrix: (Units=1/GPa)
#
#
# Indices 1 2 3 4 5 6 
#
# 1 0.017465 -0.007815 -0.009205 0.000000 0.000000 0.000000
# 2 -0.007815 0.017465 -0.009205 0.000000 0.000000 0.000000
# 3 -0.009205 -0.009205 0.048636 0.000000 0.000000 0.000000
# 4 0.000000 0.000000 0.000000 0.076752 0.000000 0.000000
# 5 0.000000 0.000000 0.000000 0.000000 0.076752 0.000000
# 6 0.000000 0.000000 0.000000 0.000000 0.000000 0.050561
#
#
# Mechanical properties :
#
#
# Convention : Reuss Voigt Hill
#
# Bulk Modulus (GPa) = 32.13466 53.25199 42.69332
# Shear Modulus (GPa) = 14.26723 16.58147 15.42435
#
# Velocity S-wave (km/s) = 2.96918 3.20095 3.08724
# Velocity P-wave (km/s) = 5.62240 6.82400 6.25214
#
# Compressibility (1/GPa) = 0.03111905
#
# Stress axis : x y z
#
# Youngs Moduli (GPa) = 57.25585 57.25585 20.56085
#
# Poissons Ratio (x) = 0.44745 0.18925
# Poissons Ratio (y) = 0.44745 0.18925
# Poissons Ratio (z) = 0.52701 0.52701
#
# Static dielectric constant tensor:
#      x y z
#    x 1.533350 0.000000 0.000000 
#    y 0.000000 1.533350 0.000000 
#    z 0.000000 0.000000 1.566060 
# 
# From -- ./inp_files/8973.got.cif
#   From: 2010.05.17/outbox.cif.g08.bks.cpg/sg191_5_cif.got.tgz:8973.got - 2010.05.20 12:20:32.
