data_PCOD9587863
_publ_section_title
;
Structure prediction by ZEFSAII (Michael W. Deem and Ramdas Pophale) SiO2 
 PCOD9587863
Probable space group: P 6/M M M
;
_chemical_formula_sum "Si O2"
_cell_formula_units_Z 144
_cell_length_a 22.267716
_cell_length_b 22.267716
_cell_length_c 24.352438
_cell_angle_alpha 90.000000
_cell_angle_beta 90.000000
_cell_angle_gamma 120.000000
_cell_volume 10457.416980
_symmetry_space_group_name_H-M "P 6/M M M"
_symmetry_group_IT_number 191
_symmetry_cell_setting 'hexagonal'
loop_
_space_group_symop_operation_xyz
x,y,z
x-y,x,z
-y,x-y,z
-x,-y,z
-x+y,-x,z
y,-x+y,z
x-y,-y,-z
-x,-x+y,-z
y,x,-z
-y,-x,-z
-x+y,y,-z
x,x-y,-z
-x,-y,-z
-x+y,-x,-z
y,-x+y,-z
x,y,-z
x-y,x,-z
-y,x-y,-z
-x+y,y,z
x,x-y,z
-y,-x,z
y,x,z
x-y,-y,z
-x,-x+y,z
loop_
_atom_site_type_symbol
_atom_site_label
_atom_site_fract_x
_atom_site_fract_y
_atom_site_fract_z
Si Si1 0.840667 0.920334 0.933008
Si Si2 0.527566 0.333377 0.127985
Si Si3 0.841033 0.682065 0.933383
Si Si4 0.598693 0.679812 0.066139
Si Si5 0.525404 0.192773 0.258499
Si Si6 0.466831 0.079135 0.653879
Si Si7 0.474930 0.807827 0.434941
O O1 0.880671 0.880671 0.915569
O O2 0.761338 0.880669 0.914589
O O3 0.840176 0.920088 0.000000
O O4 0.518582 0.259291 0.111661
O O5 0.606064 0.393937 0.118928
O O6 0.475039 0.348815 0.094756
O O7 0.513429 0.331257 0.193204
O O8 0.760715 0.643193 0.916996
O O9 0.841543 0.683086 0.000000
O O10 0.638409 0.638409 0.080643
O O11 0.591356 0.677381 0.000000
O O12 0.602996 0.205992 0.269104
O O13 0.521368 0.260684 0.274098
O O14 0.473399 0.125360 0.293171
O O15 0.537493 0.074985 0.653841
O O16 0.473780 0.125939 0.601224
O O17 0.404643 0.000000 0.653679
O O18 0.488196 0.820966 0.500000
O O19 0.397101 0.794201 0.424721
O O20 0.478619 0.739310 0.420838
#
# Coordination Sequence:
#
# PCOD9587863 Si02
#       7
#    12  24  12  24  24  24  24
#     4   9  15  22  35  58  86 112 136 162 192 226
#     4  10  20  34  50  67  86 108 135 170 214 261
#     4   9  16  29  46  61  82 110 138 164 192 233
#     4  10  20  33  49  67  86 110 139 170 204 246
#     4   9  17  29  46  64  81 102 131 168 208 249
#     4   9  17  27  38  55  80 108 135 163 200 247
#     4   9  16  25  38  56  78 105 138 176 213 245
#
# _framework density 13.770130999999999
#
# number of rings (size 3 to 8) (size 9 to 14) (size 15 to 20)
#    0.000    2.667    0.833    1.583    0.000    6.000 
#    0.000    5.833    0.000    1.000    0.000    0.000 
#    0.000    0.000    0.000    0.000    0.000    0.000 
#
# Total GULP energy -802187.685903 kJ/mol
# GULP energy per Si atom -5570.747819 kJ/mol
# Density = 1.373879 g / cm^3
# Si number density = 13.770131 Si / 1000 Ang^3
#
#
#
# Elastic Constant Matrix: (Units=GPa)
#
#
# Indices 1 2 3 4 5 6 
#
# 1 79.5807 37.6957 30.7463 0.0000 0.0000 0.0000
# 2 37.6957 79.5807 30.7463 0.0000 0.0000 0.0000
# 3 30.7463 30.7463 27.8808 0.0000 0.0000 0.0000
# 4 0.0000 0.0000 0.0000 14.5433 0.0000 0.0000
# 5 0.0000 0.0000 0.0000 0.0000 14.5433 0.0000
# 6 0.0000 0.0000 0.0000 0.0000 0.0000 20.9425
#
#
#
# Elastic Compliance Matrix: (Units=1/GPa)
#
#
# Indices 1 2 3 4 5 6 
#
# 1 0.022046 -0.001829 -0.022295 0.000000 0.000000 0.000000
# 2 -0.001829 0.022046 -0.022295 0.000000 0.000000 0.000000
# 3 -0.022295 -0.022295 0.085039 0.000000 0.000000 0.000000
# 4 0.000000 0.000000 0.000000 0.068760 0.000000 0.000000
# 5 0.000000 0.000000 0.000000 0.000000 0.068760 0.000000
# 6 0.000000 0.000000 0.000000 0.000000 0.000000 0.047750
#
#
# Mechanical properties :
#
#
# Convention : Reuss Voigt Hill
#
# Bulk Modulus (GPa) = 27.55273 42.82432 35.18852
# Shear Modulus (GPa) = 11.92360 15.86272 13.89316
#
# Velocity S-wave (km/s) = 2.94582 3.39774 3.17982
# Velocity P-wave (km/s) = 5.62343 6.82348 6.25231
#
# Compressibility (1/GPa) = 0.03629405
#
# Stress axis : x y z
#
# Youngs Moduli (GPa) = 45.35991 45.35991 11.75929
#
# Poissons Ratio (x) = 0.08296 0.26217
# Poissons Ratio (y) = 0.08296 0.26217
# Poissons Ratio (z) = 1.01129 1.01129
#
# Static dielectric constant tensor:
#      x y z
#    x 1.444320 0.000000 0.000000 
#    y 0.000000 1.444320 0.000000 
#    z 0.000000 0.000000 1.457270 
# 
# From -- ./inp_files/8878.got.cif
#   From: 2010.05.17/outbox.cif.g08.bks.cpg/sg191_5_cif.got.tgz:8878.got - 2010.05.20 12:20:32.
