data_PCOD9587112
_publ_section_title
;
Structure prediction by ZEFSAII (Michael W. Deem and Ramdas Pophale) SiO2 
 PCOD9587112
Probable space group: P 6/M M M
;
_chemical_formula_sum "Si O2"
_cell_formula_units_Z 168
_cell_length_a 25.647776
_cell_length_b 25.647776
_cell_length_c 19.577239
_cell_angle_alpha 90.000000
_cell_angle_beta 90.000000
_cell_angle_gamma 120.000000
_cell_volume 11152.737965
_symmetry_space_group_name_H-M "P 6/M M M"
_symmetry_group_IT_number 191
_symmetry_cell_setting 'hexagonal'
loop_
_space_group_symop_operation_xyz
x,y,z
x-y,x,z
-y,x-y,z
-x,-y,z
-x+y,-x,z
y,-x+y,z
x-y,-y,-z
-x,-x+y,-z
y,x,-z
-y,-x,-z
-x+y,y,-z
x,x-y,-z
-x,-y,-z
-x+y,-x,-z
y,-x+y,-z
x,y,-z
x-y,x,-z
-y,x-y,-z
-x+y,y,z
x,x-y,z
-y,-x,z
y,x,z
x-y,-y,z
-x,-x+y,z
loop_
_atom_site_type_symbol
_atom_site_label
_atom_site_fract_x
_atom_site_fract_y
_atom_site_fract_z
Si Si1 0.787841 0.334328 0.862403
Si Si2 0.177294 0.479225 0.723958
Si Si3 0.325372 0.069606 0.423001
Si Si4 0.638438 0.930122 0.209830
Si Si5 0.145620 0.730701 0.078941
Si Si6 0.464867 0.295309 0.575019
Si Si7 0.068885 0.813669 0.291612
O O1 0.795710 0.397855 0.882280
O O2 0.719048 0.280953 0.870394
O O3 0.805814 0.334265 0.782930
O O4 0.828327 0.313802 0.904611
O O5 0.232055 0.464110 0.725767
O O6 0.115815 0.420111 0.746619
O O7 0.172106 0.497061 0.646414
O O8 0.307470 0.076174 0.500000
O O9 0.396184 0.115591 0.417263
O O10 0.288660 0.080765 0.364823
O O11 0.308078 0.000000 0.414578
O O12 0.623039 0.906809 0.132415
O O13 0.694246 0.924386 0.237853
O O14 0.657928 0.000000 0.217108
O O15 0.202382 0.797619 0.092361
O O16 0.128495 0.726476 0.000000
O O17 0.487480 0.324403 0.500000
O O18 0.463162 0.231581 0.572751
O O19 0.118004 0.881997 0.279212
O O20 0.000000 0.797435 0.290410
#
# Coordination Sequence:
#
# PCOD9587112 Si02
#       7
#    24  24  24  24  24  24  24
#     4   9  17  29  47  69  90 113 141 174 208 240
#     4   9  16  27  42  60  85 113 142 175 212 256
#     4   9  16  23  33  54  83 111 138 170 212 258
#     4  10  18  27  43  64  85 111 139 169 204 246
#     4   9  18  32  48  65  87 114 139 165 203 250
#     4   9  15  22  35  54  77 107 140 173 209 251
#     4  10  18  27  40  58  82 111 143 179 217 256
#
# _framework density 15.063566
#
# number of rings (size 3 to 8) (size 9 to 14) (size 15 to 20)
#    0.000    2.714    1.429    2.714    0.000    1.429 
#    0.000    0.000    0.000    8.286    0.000    4.000 
#    0.000    1.143    0.000   12.286    0.000    0.571 
#
# Total GULP energy -935389.085802 kJ/mol
# GULP energy per Si atom -5567.792177 kJ/mol
# Density = 1.502928 g / cm^3
# Si number density = 15.063566 Si / 1000 Ang^3
#
#
#
# Elastic Constant Matrix: (Units=GPa)
#
#
# Indices 1 2 3 4 5 6 
#
# 1 32.4175 11.0731 5.5748 0.0000 0.0000 0.0000
# 2 11.0731 32.4175 5.5748 0.0000 0.0000 0.0000
# 3 5.5748 5.5748 77.4013 0.0000 0.0000 0.0000
# 4 0.0000 0.0000 0.0000 9.8548 0.0000 0.0000
# 5 0.0000 0.0000 0.0000 0.0000 9.8548 0.0000
# 6 0.0000 0.0000 0.0000 0.0000 0.0000 10.6722
#
#
#
# Elastic Compliance Matrix: (Units=1/GPa)
#
#
# Indices 1 2 3 4 5 6 
#
# 1 0.035138 -0.011712 -0.001687 0.000000 0.000000 0.000000
# 2 -0.011712 0.035138 -0.001687 0.000000 0.000000 0.000000
# 3 -0.001687 -0.001687 0.013163 0.000000 0.000000 0.000000
# 4 0.000000 0.000000 0.000000 0.101473 0.000000 0.000000
# 5 0.000000 0.000000 0.000000 0.000000 0.101473 0.000000
# 6 0.000000 0.000000 0.000000 0.000000 0.000000 0.093701
#
#
# Mechanical properties :
#
#
# Convention : Reuss Voigt Hill
#
# Bulk Modulus (GPa) = 18.77379 20.74241 19.75810
# Shear Modulus (GPa) = 11.68182 14.07729 12.87955
#
# Velocity S-wave (km/s) = 2.78780 3.06032 2.92723
# Velocity P-wave (km/s) = 4.78044 5.12711 4.95680
#
# Compressibility (1/GPa) = 0.05326576
#
# Stress axis : x y z
#
# Youngs Moduli (GPa) = 28.45895 28.45895 75.97213
#
# Poissons Ratio (x) = 0.33332 0.12818
# Poissons Ratio (y) = 0.33332 0.12818
# Poissons Ratio (z) = 0.04802 0.04802
#
# Static dielectric constant tensor:
#      x y z
#    x 1.479740 0.000000 0.000000 
#    y 0.000000 1.479740 0.000000 
#    z 0.000000 0.000000 1.546430 
# 
# From -- ./inp_files/7972.got.cif
#   From: 2010.05.17/outbox.cif.g08.bks.cpg/sg191_4_cif.got.tgz:7972.got - 2010.05.20 12:20:32.
