data_PCOD9587479
_publ_section_title
;
Structure prediction by ZEFSAII (Michael W. Deem and Ramdas Pophale) SiO2 
 PCOD9587479
Probable space group: P 6/M M M
;
_chemical_formula_sum "Si O2"
_cell_formula_units_Z 120
_cell_length_a 17.971090
_cell_length_b 17.971090
_cell_length_c 26.227417
_cell_angle_alpha 90.000000
_cell_angle_beta 90.000000
_cell_angle_gamma 120.000000
_cell_volume 7335.589012
_symmetry_space_group_name_H-M "P 6/M M M"
_symmetry_group_IT_number 191
_symmetry_cell_setting 'hexagonal'
loop_
_space_group_symop_operation_xyz
x,y,z
x-y,x,z
-y,x-y,z
-x,-y,z
-x+y,-x,z
y,-x+y,z
x-y,-y,-z
-x,-x+y,-z
y,x,-z
-y,-x,-z
-x+y,y,-z
x,x-y,-z
-x,-y,-z
-x+y,-x,-z
y,-x+y,-z
x,y,-z
x-y,x,-z
-y,x-y,-z
-x+y,y,z
x,x-y,z
-y,-x,z
y,x,z
x-y,-y,z
-x,-x+y,z
loop_
_atom_site_type_symbol
_atom_site_label
_atom_site_fract_x
_atom_site_fract_y
_atom_site_fract_z
Si Si1 0.505790 0.836932 0.388872
Si Si2 0.541203 0.902220 0.500000
Si Si3 0.467631 0.103689 0.198710
Si Si4 0.332583 0.842404 0.000000
Si Si5 0.270344 0.370969 0.098403
Si Si6 0.633062 0.732300 0.703514
O O1 0.427773 0.855545 0.382953
O O2 0.474108 0.737054 0.379692
O O3 0.540016 0.858656 0.446754
O O4 0.580170 0.889398 0.348211
O O5 0.451429 0.902858 0.500000
O O6 0.616734 0.000000 0.500000
O O7 0.569247 0.138493 0.197543
O O8 0.430673 0.124463 0.148556
O O9 0.434292 0.126024 0.249838
O O10 0.421319 0.000000 0.199102
O O11 0.315984 0.884638 0.950341
O O12 0.257702 0.742299 0.000000
O O13 0.426057 0.852114 0.000000
O O14 0.168875 0.337750 0.094289
O O15 0.299157 0.299157 0.101407
O O16 0.666845 0.833423 0.702121
O O17 0.704345 0.704345 0.710386
#
# Coordination Sequence:
#
# PCOD9587479 Si02
#       6
#    24  12  24  12  24  24
#     4  10  19  30  45  66  93 124 157 193 232 274
#     4   9  17  28  42  60  84 119 161 197 227 264
#     4   9  17  30  49  72  96 122 153 187 224 271
#     4  10  20  33  50  73 100 128 157 192 236 285
#     4  10  20  33  50  72  97 127 163 202 242 283
#     4  10  20  33  50  71  94 122 156 195 237 280
#
# _framework density 16.358605000000001
#
# number of rings (size 3 to 8) (size 9 to 14) (size 15 to 20)
#    0.000    2.300    0.000    3.300    0.000    3.600 
#    0.000    1.000    0.000    6.000    0.000    0.000 
#    0.000    7.200    0.000    0.000    0.000   21.600 
#
# Total GULP energy -668972.774699 kJ/mol
# GULP energy per Si atom -5574.773122 kJ/mol
# Density = 1.632137 g / cm^3
# Si number density = 16.358605 Si / 1000 Ang^3
#
#
#
# Elastic Constant Matrix: (Units=GPa)
#
#
# Indices 1 2 3 4 5 6 
#
# 1 85.9553 58.5653 30.4798 0.0000 0.0000 0.0000
# 2 58.5653 85.9553 30.4798 0.0000 0.0000 0.0000
# 3 30.4798 30.4798 118.5852 0.0000 0.0000 0.0000
# 4 0.0000 0.0000 0.0000 16.6072 0.0000 0.0000
# 5 0.0000 0.0000 0.0000 0.0000 16.6072 0.0000
# 6 0.0000 0.0000 0.0000 0.0000 0.0000 13.6950
#
#
#
# Elastic Compliance Matrix: (Units=1/GPa)
#
#
# Indices 1 2 3 4 5 6 
#
# 1 0.022135 -0.014374 -0.001995 0.000000 0.000000 0.000000
# 2 -0.014374 0.022135 -0.001995 0.000000 0.000000 0.000000
# 3 -0.001995 -0.001995 0.009458 0.000000 0.000000 0.000000
# 4 0.000000 0.000000 0.000000 0.060215 0.000000 0.000000
# 5 0.000000 0.000000 0.000000 0.000000 0.060215 0.000000
# 6 0.000000 0.000000 0.000000 0.000000 0.000000 0.073019
#
#
# Mechanical properties :
#
#
# Convention : Reuss Voigt Hill
#
# Bulk Modulus (GPa) = 58.82071 58.83838 58.82954
# Shear Modulus (GPa) = 17.26680 20.77991 19.02336
#
# Velocity S-wave (km/s) = 3.25240 3.56796 3.41383
# Velocity P-wave (km/s) = 7.08091 7.28146 7.18188
#
# Compressibility (1/GPa) = 0.01700081
#
# Stress axis : x y z
#
# Youngs Moduli (GPa) = 45.17677 45.17677 105.72863
#
# Poissons Ratio (x) = 0.64939 0.21090
# Poissons Ratio (y) = 0.64939 0.21090
# Poissons Ratio (z) = 0.09012 0.09012
#
# Static dielectric constant tensor:
#      x y z
#    x 1.545040 0.000000 0.000000 
#    y 0.000000 1.545040 0.000000 
#    z 0.000000 0.000000 1.559590 
# 
# From -- ./inp_files/8586.got.cif
#   From: 2010.05.17/outbox.cif.g08.bks.cpg/sg191_5_cif.got.tgz:8586.got - 2010.05.20 12:20:32.
