data_PCOD9587990
_publ_section_title
;
Structure prediction by ZEFSAII (Michael W. Deem and Ramdas Pophale) SiO2 
 PCOD9587990
Probable space group: P 6/M M M
;
_chemical_formula_sum "Si O2"
_cell_formula_units_Z 144
_cell_length_a 32.701965
_cell_length_b 32.701965
_cell_length_c 9.032991
_cell_angle_alpha 90.000000
_cell_angle_beta 90.000000
_cell_angle_gamma 120.000000
_cell_volume 8365.846814
_symmetry_space_group_name_H-M "P 6/M M M"
_symmetry_group_IT_number 191
_symmetry_cell_setting 'hexagonal'
loop_
_space_group_symop_operation_xyz
x,y,z
x-y,x,z
-y,x-y,z
-x,-y,z
-x+y,-x,z
y,-x+y,z
x-y,-y,-z
-x,-x+y,-z
y,x,-z
-y,-x,-z
-x+y,y,-z
x,x-y,-z
-x,-y,-z
-x+y,-x,-z
y,-x+y,-z
x,y,-z
x-y,x,-z
-y,x-y,-z
-x+y,y,z
x,x-y,z
-y,-x,z
y,x,z
x-y,-y,z
-x,-x+y,z
loop_
_atom_site_type_symbol
_atom_site_label
_atom_site_fract_x
_atom_site_fract_y
_atom_site_fract_z
Si Si1 0.142485 0.479000 0.177745
Si Si2 0.853798 0.801252 0.322060
Si Si3 0.522001 0.946427 0.323522
Si Si4 0.427629 0.760955 0.180351
Si Si5 0.754222 0.606638 0.674505
Si Si6 0.098612 0.296579 0.169521
O O1 0.095008 0.475945 0.238387
O O2 0.189122 0.527772 0.224880
O O3 0.146637 0.435617 0.241551
O O4 0.141612 0.477589 0.000000
O O5 0.850565 0.795356 0.500000
O O6 0.905577 0.811154 0.277127
O O7 0.841711 0.841711 0.283196
O O8 0.815386 0.752232 0.248578
O O9 0.526752 0.941706 0.500000
O O10 0.471169 0.942338 0.299366
O O11 0.560944 0.000000 0.280395
O O12 0.378453 0.756905 0.228337
O O13 0.431933 0.715967 0.229385
O O14 0.427221 0.760207 0.000000
O O15 0.744599 0.604833 0.500000
O O16 0.801290 0.602579 0.693985
O O17 0.766008 0.656951 0.741549
O O18 0.148649 0.297297 0.168442
O O19 0.085194 0.298032 0.000000
#
# Coordination Sequence:
#
# PCOD9587990 Si02
#       6
#    24  24  24  24  24  24
#     4  11  21  32  50  78 109 136 167 212 262 311
#     4   9  17  30  49  73 102 137 176 215 255 302
#     4   9  19  37  58  76  96 126 164 206 254 309
#     4   9  17  29  46  70 102 139 176 213 254 300
#     4  10  20  34  52  73 100 136 174 208 247 301
#     4   9  17  30  49  72  97 125 159 202 250 296
#
# _framework density 17.212841000000001
#
# number of rings (size 3 to 8) (size 9 to 14) (size 15 to 20)
#    0.000    2.500    0.000    3.167    0.000    6.000 
#    0.000    1.667    0.000    5.167    0.000    1.167 
#    0.000    8.000    0.000    4.167    0.000    4.333 
#
# Total GULP energy -803075.564636 kJ/mol
# GULP energy per Si atom -5576.913643 kJ/mol
# Density = 1.717366 g / cm^3
# Si number density = 17.212841 Si / 1000 Ang^3
#
#
#
# Elastic Constant Matrix: (Units=GPa)
#
#
# Indices 1 2 3 4 5 6 
#
# 1 121.3221 77.2054 49.0308 0.0000 0.0000 0.0000
# 2 77.2054 121.3221 49.0308 0.0000 0.0000 0.0000
# 3 49.0308 49.0308 51.5067 0.0000 0.0000 0.0000
# 4 0.0000 0.0000 0.0000 22.4392 0.0000 0.0000
# 5 0.0000 0.0000 0.0000 0.0000 22.4392 0.0000
# 6 0.0000 0.0000 0.0000 0.0000 0.0000 22.0584
#
#
#
# Elastic Compliance Matrix: (Units=1/GPa)
#
#
# Indices 1 2 3 4 5 6 
#
# 1 0.016087 -0.006580 -0.009051 0.000000 0.000000 0.000000
# 2 -0.006580 0.016087 -0.009051 0.000000 0.000000 0.000000
# 3 -0.009051 -0.009051 0.036646 0.000000 0.000000 0.000000
# 4 0.000000 0.000000 0.000000 0.044565 0.000000 0.000000
# 5 0.000000 0.000000 0.000000 0.000000 0.044565 0.000000
# 6 0.000000 0.000000 0.000000 0.000000 0.000000 0.045334
#
#
# Mechanical properties :
#
#
# Convention : Reuss Voigt Hill
#
# Bulk Modulus (GPa) = 51.39044 71.63167 61.51105
# Shear Modulus (GPa) = 19.29516 21.31296 20.30406
#
# Velocity S-wave (km/s) = 3.35173 3.52263 3.43824
# Velocity P-wave (km/s) = 6.70071 7.63222 7.18158
#
# Compressibility (1/GPa) = 0.01945887
#
# Stress axis : x y z
#
# Youngs Moduli (GPa) = 62.16071 62.16071 27.28821
#
# Poissons Ratio (x) = 0.40900 0.24697
# Poissons Ratio (y) = 0.40900 0.24697
# Poissons Ratio (z) = 0.56259 0.56259
#
# Static dielectric constant tensor:
#      x y z
#    x 1.571350 0.000000 0.000000 
#    y 0.000000 1.571350 0.000000 
#    z 0.000000 0.000000 1.578100 
# 
# From -- ./inp_files/1948.got.cif
#   From: 2010.05.17/outbox.cif.g08.bks.cpg/sg191_1_cif.got.tgz:1948.got - 2010.05.20 12:20:32.
