data_PCOD9587951
_publ_section_title
;
Structure prediction by ZEFSAII (Michael W. Deem and Ramdas Pophale) SiO2 
 PCOD9587951
Probable space group: P 6/M M M
;
_chemical_formula_sum "Si O2"
_cell_formula_units_Z 132
_cell_length_a 26.743046
_cell_length_b 26.743046
_cell_length_c 12.462230
_cell_angle_alpha 90.000000
_cell_angle_beta 90.000000
_cell_angle_gamma 120.000000
_cell_volume 7718.770647
_symmetry_space_group_name_H-M "P 6/M M M"
_symmetry_group_IT_number 191
_symmetry_cell_setting 'hexagonal'
loop_
_space_group_symop_operation_xyz
x,y,z
x-y,x,z
-y,x-y,z
-x,-y,z
-x+y,-x,z
y,-x+y,z
x-y,-y,-z
-x,-x+y,-z
y,x,-z
-y,-x,-z
-x+y,y,-z
x,x-y,-z
-x,-y,-z
-x+y,-x,-z
y,-x+y,-z
x,y,-z
x-y,x,-z
-y,x-y,-z
-x+y,y,z
x,x-y,z
-y,-x,z
y,x,z
x-y,-y,z
-x,-x+y,z
loop_
_atom_site_type_symbol
_atom_site_label
_atom_site_fract_x
_atom_site_fract_y
_atom_site_fract_z
Si Si1 0.289726 0.000000 0.619040
Si Si2 0.647608 0.110697 0.233050
Si Si3 0.654394 0.885357 0.250423
Si Si4 0.333951 0.549316 0.377460
Si Si5 0.588908 0.588908 0.376118
Si Si6 0.593701 0.067342 0.000000
Si Si7 0.064612 0.237562 0.126360
O O1 0.306274 0.060943 0.672024
O O2 0.350494 0.000000 0.619080
O O3 0.270098 0.000000 0.500000
O O4 0.710962 0.117193 0.238841
O O5 0.653191 0.167288 0.288617
O O6 0.603609 0.056519 0.307204
O O7 0.626525 0.097697 0.110112
O O8 0.647219 0.823610 0.281919
O O9 0.693930 0.906982 0.144243
O O10 0.335122 0.528456 0.500000
O O11 0.271808 0.543616 0.361758
O O12 0.384249 0.615752 0.372833
O O13 0.570796 0.570796 0.500000
O O14 0.533662 0.067324 0.000000
O O15 0.577227 0.000000 0.000000
O O16 0.110791 0.221581 0.173643
O O17 0.000000 0.202450 0.170535
O O18 0.060853 0.226814 0.000000
#
# Coordination Sequence:
#
# PCOD9587951 Si02
#       7
#    12  24  24  24  12  12  24
#     4   9  18  32  48  70 105 146 180 214 268 331
#     4  11  21  37  57  83 113 150 188 226 279 341
#     4  10  20  33  50  77 107 139 181 227 272 320
#     4  10  21  39  63  88 112 140 180 233 289 339
#     4   9  18  33  53  80 111 141 179 227 277 334
#     4  11  24  40  57  80 116 159 193 226 272 334
#     4   9  17  29  47  71 101 135 173 218 267 317
#
# _framework density 17.101168000000001
#
# number of rings (size 3 to 8) (size 9 to 14) (size 15 to 20)
#    0.000    2.091    1.818    1.818    1.273    1.818 
#    0.000    1.364    0.000    2.364    0.000    2.545 
#    0.000    0.000    0.000    0.000    0.000    8.273 
#
# Total GULP energy -735160.200398 kJ/mol
# GULP energy per Si atom -5569.395458 kJ/mol
# Density = 1.706225 g / cm^3
# Si number density = 17.101168 Si / 1000 Ang^3
#
#
#
# Elastic Constant Matrix: (Units=GPa)
#
#
# Indices 1 2 3 4 5 6 
#
# 1 79.2647 38.4371 47.0011 0.0000 0.0000 0.0000
# 2 38.4371 79.2647 47.0011 0.0000 0.0000 0.0000
# 3 47.0011 47.0011 123.3552 0.0000 0.0000 0.0000
# 4 0.0000 0.0000 0.0000 19.4935 0.0000 0.0000
# 5 0.0000 0.0000 0.0000 0.0000 19.4935 0.0000
# 6 0.0000 0.0000 0.0000 0.0000 0.0000 20.4138
#
#
#
# Elastic Compliance Matrix: (Units=1/GPa)
#
#
# Indices 1 2 3 4 5 6 
#
# 1 0.018353 -0.006140 -0.004653 0.000000 0.000000 0.000000
# 2 -0.006140 0.018353 -0.004653 0.000000 0.000000 0.000000
# 3 -0.004653 -0.004653 0.011653 0.000000 0.000000 0.000000
# 4 0.000000 0.000000 0.000000 0.051299 0.000000 0.000000
# 5 0.000000 0.000000 0.000000 0.000000 0.051299 0.000000
# 6 0.000000 0.000000 0.000000 0.000000 0.000000 0.048986
#
#
# Mechanical properties :
#
#
# Convention : Reuss Voigt Hill
#
# Bulk Modulus (GPa) = 57.25893 60.75147 59.00520
# Shear Modulus (GPa) = 21.12755 21.84319 21.48537
#
# Velocity S-wave (km/s) = 3.51870 3.57780 3.54837
# Velocity P-wave (km/s) = 7.07556 7.25737 7.16704
#
# Compressibility (1/GPa) = 0.01746453
#
# Stress axis : x y z
#
# Youngs Moduli (GPa) = 54.48771 54.48771 85.81790
#
# Poissons Ratio (x) = 0.33458 0.39932
# Poissons Ratio (y) = 0.33458 0.39932
# Poissons Ratio (z) = 0.25354 0.25354
#
# Static dielectric constant tensor:
#      x y z
#    x 1.593340 0.000000 0.000000 
#    y 0.000000 1.593340 0.000000 
#    z 0.000000 0.000000 1.591700 
# 
# From -- ./inp_files/3410.got.cif
#   From: 2010.05.17/outbox.cif.g08.bks.cpg/sg191_2_cif.got.tgz:3410.got - 2010.05.20 12:20:32.
