data_PCOD9587780
_publ_section_title
;
Structure prediction by ZEFSAII (Michael W. Deem and Ramdas Pophale) SiO2 
 PCOD9587780
Probable space group: P 6/M M M
;
_chemical_formula_sum "Si O2"
_cell_formula_units_Z 144
_cell_length_a 24.233021
_cell_length_b 24.233021
_cell_length_c 18.138816
_cell_angle_alpha 90.000000
_cell_angle_beta 90.000000
_cell_angle_gamma 120.000000
_cell_volume 9224.751682
_symmetry_space_group_name_H-M "P 6/M M M"
_symmetry_group_IT_number 191
_symmetry_cell_setting 'hexagonal'
loop_
_space_group_symop_operation_xyz
x,y,z
x-y,x,z
-y,x-y,z
-x,-y,z
-x+y,-x,z
y,-x+y,z
x-y,-y,-z
-x,-x+y,-z
y,x,-z
-y,-x,-z
-x+y,y,-z
x,x-y,-z
-x,-y,-z
-x+y,-x,-z
y,-x+y,-z
x,y,-z
x-y,x,-z
-y,x-y,-z
-x+y,y,z
x,x-y,z
-y,-x,z
y,x,z
x-y,-y,z
-x,-x+y,z
loop_
_atom_site_type_symbol
_atom_site_label
_atom_site_fract_x
_atom_site_fract_y
_atom_site_fract_z
Si Si1 0.599310 0.522376 0.856262
Si Si2 0.924787 0.526822 0.318440
Si Si3 0.805283 0.072920 0.196643
Si Si4 0.727702 0.800860 0.627501
Si Si5 0.077573 0.714330 0.918254
Si Si6 0.727295 0.582437 0.585392
O O1 0.550448 0.449553 0.877917
O O2 0.559416 0.559416 0.864991
O O3 0.613377 0.525358 0.769065
O O4 0.664010 0.563496 0.900525
O O5 0.915223 0.457612 0.338301
O O6 0.881804 0.547032 0.364303
O O7 0.000000 0.577275 0.329781
O O8 0.879170 0.120830 0.183199
O O9 0.793148 0.075426 0.283678
O O10 0.764868 0.094667 0.146674
O O11 0.781743 0.000000 0.177986
O O12 0.748135 0.874068 0.609770
O O13 0.776915 0.776915 0.607498
O O14 0.658609 0.756539 0.592375
O O15 0.000000 0.673788 0.917930
O O16 0.097784 0.742134 0.000000
O O17 0.711479 0.564165 0.500000
O O18 0.785330 0.570660 0.607173
#
# Coordination Sequence:
#
# PCOD9587780 Si02
#       6
#    24  24  24  24  24  24
#     4   8  14  25  40  58  82 111 139 165 196 237
#     4   9  17  29  46  66  86 111 143 177 212 249
#     4   9  17  29  44  60  80 109 144 180 218 263
#     4   9  17  29  45  63  83 110 143 177 215 262
#     4   9  16  24  36  57  83 109 137 168 202 242
#     4  10  20  31  43  62  88 115 142 175 216 259
#
# _framework density 15.610177
#
# number of rings (size 3 to 8) (size 9 to 14) (size 15 to 20)
#    0.000    3.000    0.000    2.500    0.000    5.000 
#    0.000    2.500    0.000    0.667    0.000    2.333 
#    0.000    0.000    0.000    8.833    0.000   11.667 
#
# Total GULP energy -801816.064956 kJ/mol
# GULP energy per Si atom -5568.167118 kJ/mol
# Density = 1.557465 g / cm^3
# Si number density = 15.610177 Si / 1000 Ang^3
#
#
#
# Elastic Constant Matrix: (Units=GPa)
#
#
# Indices 1 2 3 4 5 6 
#
# 1 48.1537 9.4892 10.8020 0.0000 0.0000 0.0000
# 2 9.4892 48.1537 10.8020 0.0000 0.0000 0.0000
# 3 10.8020 10.8020 13.4250 0.0000 0.0000 0.0000
# 4 0.0000 0.0000 0.0000 9.4328 0.0000 0.0000
# 5 0.0000 0.0000 0.0000 0.0000 9.4328 0.0000
# 6 0.0000 0.0000 0.0000 0.0000 0.0000 19.3322
#
#
#
# Elastic Compliance Matrix: (Units=1/GPa)
#
#
# Indices 1 2 3 4 5 6 
#
# 1 0.025351 -0.000512 -0.019986 0.000000 0.000000 0.000000
# 2 -0.000512 0.025351 -0.019986 0.000000 0.000000 0.000000
# 3 -0.019986 -0.019986 0.106650 0.000000 0.000000 0.000000
# 4 0.000000 0.000000 0.000000 0.106013 0.000000 0.000000
# 5 0.000000 0.000000 0.000000 0.000000 0.106013 0.000000
# 6 0.000000 0.000000 0.000000 0.000000 0.000000 0.051727
#
#
# Mechanical properties :
#
#
# Convention : Reuss Voigt Hill
#
# Bulk Modulus (GPa) = 13.09168 19.10209 16.09689
# Shear Modulus (GPa) = 9.47806 12.88219 11.18013
#
# Velocity S-wave (km/s) = 2.46676 2.87582 2.67911
# Velocity P-wave (km/s) = 4.06424 4.82604 4.46143
#
# Compressibility (1/GPa) = 0.07638438
#
# Stress axis : x y z
#
# Youngs Moduli (GPa) = 39.44604 39.44604 9.37647
#
# Poissons Ratio (x) = 0.02021 0.18740
# Poissons Ratio (y) = 0.02021 0.18740
# Poissons Ratio (z) = 0.78836 0.78836
#
# Static dielectric constant tensor:
#      x y z
#    x 1.513880 0.000000 0.000000 
#    y 0.000000 1.513880 0.000000 
#    z 0.000000 0.000000 1.538840 
# 
# From -- ./inp_files/6558.got.cif
#   From: 2010.05.17/outbox.cif.g08.bks.cpg/sg191_4_cif.got.tgz:6558.got - 2010.05.20 12:20:32.
