data_PCOD9587914
_publ_section_title
;
Structure prediction by ZEFSAII (Michael W. Deem and Ramdas Pophale) SiO2 
 PCOD9587914
Probable space group: P 6/M M M
;
_chemical_formula_sum "Si O2"
_cell_formula_units_Z 102
_cell_length_a 22.290695
_cell_length_b 22.290695
_cell_length_c 14.458577
_cell_angle_alpha 90.000000
_cell_angle_beta 90.000000
_cell_angle_gamma 120.000000
_cell_volume 6221.618867
_symmetry_space_group_name_H-M "P 6/M M M"
_symmetry_group_IT_number 191
_symmetry_cell_setting 'hexagonal'
loop_
_space_group_symop_operation_xyz
x,y,z
x-y,x,z
-y,x-y,z
-x,-y,z
-x+y,-x,z
y,-x+y,z
x-y,-y,-z
-x,-x+y,-z
y,x,-z
-y,-x,-z
-x+y,y,-z
x,x-y,-z
-x,-y,-z
-x+y,-x,-z
y,-x+y,-z
x,y,-z
x-y,x,-z
-y,x-y,-z
-x+y,y,z
x,x-y,z
-y,-x,z
y,x,z
x-y,-y,z
-x,-x+y,z
loop_
_atom_site_type_symbol
_atom_site_label
_atom_site_fract_x
_atom_site_fract_y
_atom_site_fract_z
Si Si1 0.475011 0.807662 0.794670
Si Si2 0.878322 0.613966 0.693584
Si Si3 0.727402 0.727402 0.815624
Si Si4 0.639391 0.502545 0.000000
Si Si5 0.311542 0.229000 0.500000
Si Si6 0.349372 0.349372 0.000000
Si Si7 0.859150 0.859150 0.889854
O O1 0.406025 0.812050 0.780050
O O2 0.461449 0.730725 0.775209
O O3 0.538775 0.861665 0.730394
O O4 0.495409 0.823791 0.903475
O O5 0.805844 0.611688 0.703272
O O6 0.904364 0.640462 0.589993
O O7 0.933381 0.672694 0.759799
O O8 0.692955 0.692955 0.911779
O O9 0.797956 0.797956 0.833448
O O10 0.642974 0.575566 0.000000
O O11 0.560593 0.439408 0.000000
O O12 0.250309 0.250309 0.500000
O O13 0.291880 0.145940 0.500000
O O14 0.863406 0.931703 0.870191
O O15 0.845368 0.845368 0.000000
#
# Coordination Sequence:
#
# PCOD9587914 Si02
#       7
#    24  24  12  12  12   6  12
#     4  10  20  35  54  78 108 146 189 231 276 326
#     4  10  21  36  57  82 108 139 178 229 277 327
#     4  12  20  35  54  79 108 142 180 221 273 325
#     4  10  20  33  49  74 109 150 188 224 271 326
#     4  10  20  38  63  86 111 141 181 229 277 332
#     4  12  21  32  48  80 113 150 176 224 270 320
#     4  10  21  36  52  73 104 144 185 223 264 314
#
# _framework density 16.394445999999999
#
# number of rings (size 3 to 8) (size 9 to 14) (size 15 to 20)
#    0.000    1.647    4.118    1.588    0.000    0.471 
#    0.000    2.353    0.000    0.824    0.000    1.647 
#    0.000    0.000    0.000    0.000    0.000    0.000 
#
# Total GULP energy -568519.463436 kJ/mol
# GULP energy per Si atom -5573.720230 kJ/mol
# Density = 1.635713 g / cm^3
# Si number density = 16.394446 Si / 1000 Ang^3
#
#
#
# Elastic Constant Matrix: (Units=GPa)
#
#
# Indices 1 2 3 4 5 6 
#
# 1 89.4261 89.2707 50.8251 0.0000 0.0000 0.0000
# 2 89.2707 89.4261 50.8251 0.0000 0.0000 0.0000
# 3 50.8251 50.8251 114.9907 0.0000 0.0000 0.0000
# 4 0.0000 0.0000 0.0000 26.8863 0.0000 0.0000
# 5 0.0000 0.0000 0.0000 0.0000 26.8863 0.0000
# 6 0.0000 0.0000 0.0000 0.0000 0.0000 0.0777
#
#
#
# Elastic Compliance Matrix: (Units=1/GPa)
#
#
# Indices 1 2 3 4 5 6 
#
# 1 3.221339 -3.213864 -0.003304 0.000000 0.000000 -0.000010
# 2 -3.213864 3.221339 -0.003304 0.000000 0.000000 0.000010
# 3 -0.003304 -0.003304 0.011617 0.000000 0.000000 0.000000
# 4 0.000000 0.000000 0.000000 0.037194 0.000000 0.000000
# 5 0.000000 0.000000 0.000000 0.000000 0.037194 0.000000
# 6 -0.000010 0.000010 0.000000 0.000000 0.000000 12.870430
#
#
# Mechanical properties :
#
#
# Convention : Reuss Voigt Hill
#
# Bulk Modulus (GPa) = 74.89656 75.07608 74.98632
# Shear Modulus (GPa) = 0.19346 17.63153 8.91250
#
# Velocity S-wave (km/s) = 0.34389 3.28297 2.33411
# Velocity P-wave (km/s) = 6.77798 7.76296 7.28713
#
# Compressibility (1/GPa) = 0.01335175
#
# Stress axis : x y z
#
# Youngs Moduli (GPa) = 0.31043 0.31043 86.07921
#
# Poissons Ratio (x) = 0.99768 0.28442
# Poissons Ratio (y) = 0.99768 0.28442
# Poissons Ratio (z) = 0.00103 0.00103
#
# Static dielectric constant tensor:
#      x y z
#    x 1.539990 0.000000 0.000000 
#    y 0.000000 1.539990 0.000000 
#    z 0.000000 0.000000 1.567710 
# 
# From -- ./inp_files/4385.got.cif
#   From: 2010.05.17/outbox.cif.g08.bks.cpg/sg191_3_cif.got.tgz:4385.got - 2010.05.20 12:20:32.
