data_PCOD9587430
_publ_section_title
;
Structure prediction by ZEFSAII (Michael W. Deem and Ramdas Pophale) SiO2 
 PCOD9587430
Probable space group: P 6/M M M
;
_chemical_formula_sum "Si O2"
_cell_formula_units_Z 168
_cell_length_a 19.227146
_cell_length_b 19.227146
_cell_length_c 31.507581
_cell_angle_alpha 90.000000
_cell_angle_beta 90.000000
_cell_angle_gamma 120.000000
_cell_volume 10087.309389
_symmetry_space_group_name_H-M "P 6/M M M"
_symmetry_group_IT_number 191
_symmetry_cell_setting 'hexagonal'
loop_
_space_group_symop_operation_xyz
x,y,z
x-y,x,z
-y,x-y,z
-x,-y,z
-x+y,-x,z
y,-x+y,z
x-y,-y,-z
-x,-x+y,-z
y,x,-z
-y,-x,-z
-x+y,y,-z
x,x-y,-z
-x,-y,-z
-x+y,-x,-z
y,-x+y,-z
x,y,-z
x-y,x,-z
-y,x-y,-z
-x+y,y,z
x,x-y,z
-y,-x,z
y,x,z
x-y,-y,z
-x,-x+y,z
loop_
_atom_site_type_symbol
_atom_site_label
_atom_site_fract_x
_atom_site_fract_y
_atom_site_fract_z
Si Si1 0.667692 0.170877 0.784807
Si Si2 0.912680 0.243583 0.072128
Si Si3 0.753939 0.664050 0.173850
Si Si4 0.830181 0.498007 0.604880
Si Si5 0.824351 0.489779 0.948900
Si Si6 0.908053 0.656396 0.448953
Si Si7 0.091749 0.461875 0.694984
O O1 0.580037 0.160074 0.791394
O O2 0.736466 0.263534 0.788861
O O3 0.690885 0.119640 0.815987
O O4 0.671617 0.139695 0.737605
O O5 0.839263 0.160738 0.055310
O O6 0.912928 0.238026 0.123141
O O7 0.892026 0.312990 0.062124
O O8 0.000000 0.267627 0.055744
O O9 0.840117 0.680233 0.190583
O O10 0.720557 0.720557 0.190646
O O11 0.737460 0.474920 0.601599
O O12 0.839329 0.419665 0.598749
O O13 0.880195 0.569877 0.571953
O O14 0.862939 0.533973 0.651703
O O15 0.739606 0.479211 0.933274
O O16 0.837478 0.418739 0.932577
O O17 0.819448 0.484165 0.000000
O O18 0.906204 0.649249 0.500000
O O19 0.839229 0.678458 0.436972
O O20 0.000000 0.719127 0.436506
O O21 0.087478 0.543739 0.694851
O O22 0.000000 0.389589 0.695839
#
# Coordination Sequence:
#
# PCOD9587430 Si02
#       7
#    24  24  24  24  24  24  24
#     4  10  19  30  44  63  89 121 155 187 218 254
#     4   9  18  32  48  66  88 114 144 178 219 265
#     4   9  18  32  49  67  87 113 144 179 220 265
#     4  10  19  30  44  63  89 121 155 188 221 258
#     4   9  17  29  45  65  90 120 152 184 217 253
#     4   9  18  32  49  68  89 114 144 179 221 267
#     4   9  17  28  42  60  82 111 149 191 229 261
#
# _framework density 16.654591
#
# number of rings (size 3 to 8) (size 9 to 14) (size 15 to 20)
#    0.000    2.714    0.000    1.714    0.000    3.714 
#    0.000    4.286    0.000    3.000    0.000    3.000 
#    0.000    0.000    0.000    3.571    0.000   33.429 
#
# Total GULP energy -935861.404944 kJ/mol
# GULP energy per Si atom -5570.603601 kJ/mol
# Density = 1.661668 g / cm^3
# Si number density = 16.654591 Si / 1000 Ang^3
#
#
#
# Elastic Constant Matrix: (Units=GPa)
#
#
# Indices 1 2 3 4 5 6 
#
# 1 90.6983 71.3421 9.2608 0.0000 0.0000 0.0000
# 2 71.3421 90.6983 9.2608 0.0000 0.0000 0.0000
# 3 9.2608 9.2608 13.1360 0.0000 0.0000 0.0000
# 4 0.0000 0.0000 0.0000 38.0567 0.0000 0.0000
# 5 0.0000 0.0000 0.0000 0.0000 38.0567 0.0000
# 6 0.0000 0.0000 0.0000 0.0000 0.0000 9.6781
#
#
#
# Elastic Compliance Matrix: (Units=1/GPa)
#
#
# Indices 1 2 3 4 5 6 
#
# 1 0.029188 -0.022475 -0.004732 0.000000 0.000000 0.000000
# 2 -0.022475 0.029188 -0.004732 0.000000 0.000000 0.000000
# 3 -0.004732 -0.004732 0.082799 0.000000 0.000000 0.000000
# 4 0.000000 0.000000 0.000000 0.026277 0.000000 0.000000
# 5 0.000000 0.000000 0.000000 0.000000 0.026277 0.000000
# 6 0.000000 0.000000 0.000000 0.000000 0.000000 0.103326
#
#
# Mechanical properties :
#
#
# Convention : Reuss Voigt Hill
#
# Bulk Modulus (GPa) = 12.93746 41.58444 27.26095
# Shear Modulus (GPa) = 12.93002 24.13622 18.53312
#
# Velocity S-wave (km/s) = 2.78935 3.81100 3.33947
# Velocity P-wave (km/s) = 4.26133 6.66242 5.59226
#
# Compressibility (1/GPa) = 0.07729494
#
# Stress axis : x y z
#
# Youngs Moduli (GPa) = 34.26115 34.26115 12.07748
#
# Poissons Ratio (x) = 0.77003 0.05715
# Poissons Ratio (y) = 0.77003 0.05715
# Poissons Ratio (z) = 0.16212 0.16212
#
# Static dielectric constant tensor:
#      x y z
#    x 1.565960 0.000000 0.000000 
#    y 0.000000 1.565960 0.000000 
#    z 0.000000 0.000000 1.578890 
# 
# From -- ./inp_files/10759.got.cif
#   From: 2010.05.17/outbox.cif.g08.bks.cpg/sg191_6_cif.got.tgz:10759.got - 2010.05.20 12:20:32.
