data_PCOD9587600
_publ_section_title
;
Structure prediction by ZEFSAII (Michael W. Deem and Ramdas Pophale) SiO2 
 PCOD9587600
Probable space group: P 6/M M M
;
_chemical_formula_sum "Si O2"
_cell_formula_units_Z 192
_cell_length_a 23.477563
_cell_length_b 23.477563
_cell_length_c 23.370556
_cell_angle_alpha 90.000000
_cell_angle_beta 90.000000
_cell_angle_gamma 120.000000
_cell_volume 11155.928074
_symmetry_space_group_name_H-M "P 6/M M M"
_symmetry_group_IT_number 191
_symmetry_cell_setting 'hexagonal'
loop_
_space_group_symop_operation_xyz
x,y,z
x-y,x,z
-y,x-y,z
-x,-y,z
-x+y,-x,z
y,-x+y,z
x-y,-y,-z
-x,-x+y,-z
y,x,-z
-y,-x,-z
-x+y,y,-z
x,x-y,-z
-x,-y,-z
-x+y,-x,-z
y,-x+y,-z
x,y,-z
x-y,x,-z
-y,x-y,-z
-x+y,y,z
x,x-y,z
-y,-x,z
y,x,z
x-y,-y,z
-x,-x+y,z
loop_
_atom_site_type_symbol
_atom_site_label
_atom_site_fract_x
_atom_site_fract_y
_atom_site_fract_z
Si Si1 0.270617 0.072556 0.186561
Si Si2 0.135803 0.731317 0.740783
Si Si3 0.798988 0.726091 0.431499
Si Si4 0.376094 0.922791 0.061734
Si Si5 0.676148 0.077226 0.617304
Si Si6 0.397073 0.474775 0.188955
Si Si7 0.199121 0.532564 0.430871
Si Si8 0.770156 0.669406 0.936996
O O1 0.243496 0.121748 0.194890
O O2 0.338589 0.101940 0.221036
O O3 0.286877 0.072843 0.119195
O O4 0.222572 0.000000 0.206541
O O5 0.211179 0.788822 0.731832
O O6 0.097904 0.703975 0.681371
O O7 0.123776 0.667762 0.775934
O O8 0.805564 0.733557 0.500000
O O9 0.866335 0.732669 0.408218
O O10 0.778000 0.778000 0.409281
O O11 0.737644 0.654229 0.418660
O O12 0.386390 0.899551 0.122767
O O13 0.304482 0.916015 0.065081
O O14 0.429447 0.000000 0.059963
O O15 0.379465 0.894049 0.000000
O O16 0.658958 0.131893 0.595070
O O17 0.619240 0.000000 0.614870
O O18 0.460374 0.539627 0.211659
O O19 0.416831 0.416831 0.190340
O O20 0.194656 0.526954 0.500000
O O21 0.264098 0.528196 0.413895
O O22 0.206998 0.603499 0.415840
O O23 0.820995 0.641990 0.934023
O O24 0.780654 0.701478 0.000000
#
# Coordination Sequence:
#
# PCOD9587600 Si02
#       8
#    24  24  24  24  24  24  24  24
#     4  10  19  31  48  69  95 127 163 204 250 302
#     4  11  22  36  54  73  98 133 171 211 253 304
#     4   9  17  30  49  73 101 132 166 206 256 313
#     4   9  16  26  42  63  90 123 157 196 244 299
#     4  11  22  35  54  79 107 137 172 220 273 319
#     4  10  20  33  49  70  99 132 164 203 252 308
#     4  10  21  38  60  85 115 151 188 222 254 293
#     4   9  16  25  41  67  95 123 156 196 245 298
#
# _framework density 17.210581000000001
#
# number of rings (size 3 to 8) (size 9 to 14) (size 15 to 20)
#    0.000    2.125    1.250    3.125    0.000    4.000 
#    0.000    1.875    0.000    0.500    0.000    0.875 
#    0.000    0.000    0.000    7.125    0.000    2.750 
#
# Total GULP energy -1069808.330150 kJ/mol
# GULP energy per Si atom -5571.918386 kJ/mol
# Density = 1.717141 g / cm^3
# Si number density = 17.210581 Si / 1000 Ang^3
#
#
#
# Elastic Constant Matrix: (Units=GPa)
#
#
# Indices 1 2 3 4 5 6 
#
# 1 97.5801 60.3587 20.4850 0.0000 0.0000 0.0000
# 2 60.3587 97.5801 20.4850 0.0000 0.0000 0.0000
# 3 20.4850 20.4850 40.2272 0.0000 0.0000 0.0000
# 4 0.0000 0.0000 0.0000 7.4743 0.0000 0.0000
# 5 0.0000 0.0000 0.0000 0.0000 7.4743 0.0000
# 6 0.0000 0.0000 0.0000 0.0000 0.0000 18.6107
#
#
#
# Elastic Compliance Matrix: (Units=1/GPa)
#
#
# Indices 1 2 3 4 5 6 
#
# 1 0.017081 -0.009786 -0.003715 0.000000 0.000000 0.000000
# 2 -0.009786 0.017081 -0.003715 0.000000 0.000000 0.000000
# 3 -0.003715 -0.003715 0.028642 0.000000 0.000000 0.000000
# 4 0.000000 0.000000 0.000000 0.133792 0.000000 0.000000
# 5 0.000000 0.000000 0.000000 0.000000 0.133792 0.000000
# 6 0.000000 0.000000 0.000000 0.000000 0.000000 0.053733
#
#
# Mechanical properties :
#
#
# Convention : Reuss Voigt Hill
#
# Bulk Modulus (GPa) = 35.24485 48.67168 41.95826
# Shear Modulus (GPa) = 11.68201 15.64911 13.66556
#
# Velocity S-wave (km/s) = 2.60815 3.01869 2.82089
# Velocity P-wave (km/s) = 5.43994 6.36329 5.91964
#
# Compressibility (1/GPa) = 0.02837294
#
# Stress axis : x y z
#
# Youngs Moduli (GPa) = 58.54544 58.54544 34.91331
#
# Poissons Ratio (x) = 0.57290 0.12970
# Poissons Ratio (y) = 0.57290 0.12970
# Poissons Ratio (z) = 0.21750 0.21750
#
# Static dielectric constant tensor:
#      x y z
#    x 1.589310 0.000000 0.000000 
#    y 0.000000 1.589310 0.000000 
#    z 0.000000 0.000000 1.642370 
# 
# From -- ./inp_files/8148.got.cif
#   From: 2010.05.17/outbox.cif.g08.bks.cpg/sg191_5_cif.got.tgz:8148.got - 2010.05.20 12:20:32.
