data_PCOD9587564
_publ_section_title
;
Structure prediction by ZEFSAII (Michael W. Deem and Ramdas Pophale) SiO2 
 PCOD9587564
Probable space group: P 6/M M M
;
_chemical_formula_sum "Si O2"
_cell_formula_units_Z 156
_cell_length_a 21.335535
_cell_length_b 21.335535
_cell_length_c 30.318686
_cell_angle_alpha 90.000000
_cell_angle_beta 90.000000
_cell_angle_gamma 120.000000
_cell_volume 11952.206335
_symmetry_space_group_name_H-M "P 6/M M M"
_symmetry_group_IT_number 191
_symmetry_cell_setting 'hexagonal'
loop_
_space_group_symop_operation_xyz
x,y,z
x-y,x,z
-y,x-y,z
-x,-y,z
-x+y,-x,z
y,-x+y,z
x-y,-y,-z
-x,-x+y,-z
y,x,-z
-y,-x,-z
-x+y,y,-z
x,x-y,-z
-x,-y,-z
-x+y,-x,-z
y,-x+y,-z
x,y,-z
x-y,x,-z
-y,x-y,-z
-x+y,y,z
x,x-y,z
-y,-x,z
y,x,z
x-y,-y,z
-x,-x+y,z
loop_
_atom_site_type_symbol
_atom_site_label
_atom_site_fract_x
_atom_site_fract_y
_atom_site_fract_z
Si Si1 0.467000 0.382216 0.688098
Si Si2 0.332817 0.815530 0.128739
Si Si3 0.155685 0.698279 0.599318
Si Si4 0.333324 0.815849 0.229070
Si Si5 0.913953 0.456977 0.446966
Si Si6 0.534381 0.618026 0.049006
Si Si7 0.696554 0.778811 0.552166
O O1 0.544097 0.455904 0.681092
O O2 0.406954 0.406954 0.687264
O O3 0.457036 0.327407 0.649074
O O4 0.472998 0.349482 0.734604
O O5 0.403633 0.807266 0.124526
O O6 0.261803 0.738198 0.123916
O O7 0.333634 0.841286 0.178873
O O8 0.337078 0.868578 0.090113
O O9 0.240962 0.759039 0.596821
O O10 0.128077 0.624441 0.571807
O O11 0.112981 0.735972 0.579312
O O12 0.399612 0.799223 0.231979
O O13 0.257563 0.742438 0.236829
O O14 0.912761 0.456381 0.500000
O O15 0.000000 0.500000 0.433367
O O16 0.457820 0.542181 0.049514
O O17 0.595239 0.595239 0.053754
O O18 0.540658 0.650061 0.000000
O O19 0.678712 0.764093 0.500000
O O20 0.726883 0.863442 0.559182
O O21 0.751192 0.751192 0.563766
#
# Coordination Sequence:
#
# PCOD9587564 Si02
#       7
#    24  24  24  24  12  24  24
#     4  10  19  31  46  61  79 102 133 171 206 244
#     4   9  16  25  37  53  74  97 124 157 197 244
#     4  11  21  33  48  66  87 111 140 173 211 250
#     4   9  17  28  41  57  76 101 128 159 199 245
#     4  11  22  36  54  70  88 118 150 178 213 257
#     4   8  14  24  36  49  67  93 123 156 194 235
#     4   9  17  29  46  66  86 107 132 162 194 232
#
# _framework density 13.051983
#
# number of rings (size 3 to 8) (size 9 to 14) (size 15 to 20)
#    0.000    2.538    0.769    3.077    0.000    4.308 
#    0.462    3.077    0.000    1.077    0.000    1.077 
#    0.000    0.000    0.000    0.000    0.000    0.000 
#
# Total GULP energy -868714.036408 kJ/mol
# GULP energy per Si atom -5568.679721 kJ/mol
# Density = 1.302228 g / cm^3
# Si number density = 13.051983 Si / 1000 Ang^3
#
#
#
# Elastic Constant Matrix: (Units=GPa)
#
#
# Indices 1 2 3 4 5 6 
#
# 1 67.4779 39.5658 47.9699 0.0000 0.0000 0.0000
# 2 39.5658 67.4779 47.9699 0.0000 0.0000 0.0000
# 3 47.9699 47.9699 95.4696 0.0000 0.0000 0.0000
# 4 0.0000 0.0000 0.0000 18.3723 0.0000 0.0000
# 5 0.0000 0.0000 0.0000 0.0000 18.3723 0.0000
# 6 0.0000 0.0000 0.0000 0.0000 0.0000 13.9560
#
#
#
# Elastic Compliance Matrix: (Units=1/GPa)
#
#
# Indices 1 2 3 4 5 6 
#
# 1 0.026411 -0.009415 -0.008540 0.000000 0.000000 0.000000
# 2 -0.009415 0.026411 -0.008540 0.000000 0.000000 0.000000
# 3 -0.008540 -0.008540 0.019056 0.000000 0.000000 0.000000
# 4 0.000000 0.000000 0.000000 0.054430 0.000000 0.000000
# 5 0.000000 0.000000 0.000000 0.000000 0.054430 0.000000
# 6 0.000000 0.000000 0.000000 0.000000 0.000000 0.071654
#
#
# Mechanical properties :
#
#
# Convention : Reuss Voigt Hill
#
# Bulk Modulus (GPa) = 52.94083 55.71519 54.32801
# Shear Modulus (GPa) = 16.04216 16.46812 16.25514
#
# Velocity S-wave (km/s) = 3.50965 3.55594 3.53287
# Velocity P-wave (km/s) = 7.55468 7.72266 7.63913
#
# Compressibility (1/GPa) = 0.01888901
#
# Stress axis : x y z
#
# Youngs Moduli (GPa) = 37.86248 37.86248 52.47576
#
# Poissons Ratio (x) = 0.35649 0.44813
# Poissons Ratio (y) = 0.35649 0.44813
# Poissons Ratio (z) = 0.32334 0.32334
#
# Static dielectric constant tensor:
#      x y z
#    x 1.410980 0.000000 0.000000 
#    y 0.000000 1.410980 0.000000 
#    z 0.000000 0.000000 1.446460 
# 
# From -- ./inp_files/10805.got.cif
#   From: 2010.05.17/outbox.cif.g08.bks.cpg/sg191_6_cif.got.tgz:10805.got - 2010.05.20 12:20:32.
