data_PCOD9587501
_publ_section_title
;
Structure prediction by ZEFSAII (Michael W. Deem and Ramdas Pophale) SiO2 
 PCOD9587501
Probable space group: P 6/M M M
;
_chemical_formula_sum "Si O2"
_cell_formula_units_Z 108
_cell_length_a 18.419558
_cell_length_b 18.419558
_cell_length_c 23.040172
_cell_angle_alpha 90.000000
_cell_angle_beta 90.000000
_cell_angle_gamma 120.000000
_cell_volume 6769.783152
_symmetry_space_group_name_H-M "P 6/M M M"
_symmetry_group_IT_number 191
_symmetry_cell_setting 'hexagonal'
loop_
_space_group_symop_operation_xyz
x,y,z
x-y,x,z
-y,x-y,z
-x,-y,z
-x+y,-x,z
y,-x+y,z
x-y,-y,-z
-x,-x+y,-z
y,x,-z
-y,-x,-z
-x+y,y,-z
x,x-y,-z
-x,-y,-z
-x+y,-x,-z
y,-x+y,-z
x,y,-z
x-y,x,-z
-y,x-y,-z
-x+y,y,z
x,x-y,z
-y,-x,z
y,x,z
x-y,-y,z
-x,-x+y,z
loop_
_atom_site_type_symbol
_atom_site_label
_atom_site_fract_x
_atom_site_fract_y
_atom_site_fract_z
Si Si1 0.101701 0.468746 0.434180
Si Si2 0.902567 0.640957 0.669571
Si Si3 0.359861 0.260662 0.000000
Si Si4 0.100091 0.467557 0.106341
Si Si5 0.834209 0.332600 0.764994
O O1 0.129201 0.465470 0.500000
O O2 0.130253 0.565127 0.419627
O O3 0.123167 0.420558 0.386120
O O4 0.000000 0.420031 0.434932
O O5 0.836889 0.673778 0.674628
O O6 0.889121 0.581424 0.724633
O O7 0.000000 0.710466 0.664652
O O8 0.418865 0.301016 0.943766
O O9 0.292972 0.292972 0.000000
O O10 0.323298 0.161649 0.000000
O O11 0.121395 0.560698 0.087542
O O12 0.144496 0.475501 0.167438
O O13 0.000000 0.415829 0.116614
O O14 0.849793 0.424897 0.751981
O O15 0.737996 0.262005 0.754558
#
# Coordination Sequence:
#
# PCOD9587501 Si02
#       5
#    24  24  12  24  24
#     4   8  14  26  45  68  92 117 145 176 211 255
#     4  10  20  32  47  67  90 117 151 192 234 274
#     4  10  19  31  47  66  89 117 152 192 231 269
#     4   9  17  29  46  67  90 118 151 184 217 257
#     4  10  19  30  45  67  96 126 153 180 213 256
#
# _framework density 15.953244
#
# number of rings (size 3 to 8) (size 9 to 14) (size 15 to 20)
#    0.000    2.667    0.000    3.222    0.000    4.000 
#    0.000    0.000    0.000    3.889    0.000    0.000 
#    0.000    0.000    0.000   12.667    0.000    0.000 
#
# Total GULP energy -601850.706329 kJ/mol
# GULP energy per Si atom -5572.691725 kJ/mol
# Density = 1.591693 g / cm^3
# Si number density = 15.953244 Si / 1000 Ang^3
#
#
#
# Elastic Constant Matrix: (Units=GPa)
#
#
# Indices 1 2 3 4 5 6 
#
# 1 76.1702 45.9299 32.8497 0.0000 0.0000 0.0000
# 2 45.9299 76.1702 32.8497 0.0000 0.0000 0.0000
# 3 32.8497 32.8497 59.0796 0.0000 0.0000 0.0000
# 4 0.0000 0.0000 0.0000 13.6266 0.0000 0.0000
# 5 0.0000 0.0000 0.0000 0.0000 13.6266 0.0000
# 6 0.0000 0.0000 0.0000 0.0000 0.0000 15.1202
#
#
#
# Elastic Compliance Matrix: (Units=1/GPa)
#
#
# Indices 1 2 3 4 5 6 
#
# 1 0.022377 -0.010691 -0.006498 0.000000 0.000000 0.000000
# 2 -0.010691 0.022377 -0.006498 0.000000 0.000000 0.000000
# 3 -0.006498 -0.006498 0.024152 0.000000 0.000000 0.000000
# 4 0.000000 0.000000 0.000000 0.073386 0.000000 0.000000
# 5 0.000000 0.000000 0.000000 0.000000 0.073386 0.000000
# 6 0.000000 0.000000 0.000000 0.000000 0.000000 0.066137
#
#
# Mechanical properties :
#
#
# Convention : Reuss Voigt Hill
#
# Bulk Modulus (GPa) = 46.43943 48.29761 47.36852
# Shear Modulus (GPa) = 14.86471 15.12739 14.99605
#
# Velocity S-wave (km/s) = 3.05580 3.08268 3.06927
# Velocity P-wave (km/s) = 6.45162 6.55826 6.50516
#
# Compressibility (1/GPa) = 0.02153343
#
# Stress axis : x y z
#
# Youngs Moduli (GPa) = 44.68788 44.68788 41.40384
#
# Poissons Ratio (x) = 0.47776 0.26904
# Poissons Ratio (y) = 0.47776 0.26904
# Poissons Ratio (z) = 0.29038 0.29038
#
# Static dielectric constant tensor:
#      x y z
#    x 1.525250 0.000000 0.000000 
#    y 0.000000 1.525250 0.000000 
#    z 0.000000 0.000000 1.542790 
# 
# From -- ./inp_files/7290.got.cif
#   From: 2010.05.17/outbox.cif.g08.bks.cpg/sg191_4_cif.got.tgz:7290.got - 2010.05.20 12:20:32.
