data_PCOD9587179
_publ_section_title
;
Structure prediction by ZEFSAII (Michael W. Deem and Ramdas Pophale) SiO2 
 PCOD9587179
Probable space group: P 6/M M M
;
_chemical_formula_sum "Si O2"
_cell_formula_units_Z 168
_cell_length_a 23.992119
_cell_length_b 23.992119
_cell_length_c 20.595500
_cell_angle_alpha 90.000000
_cell_angle_beta 90.000000
_cell_angle_gamma 120.000000
_cell_volume 10266.920171
_symmetry_space_group_name_H-M "P 6/M M M"
_symmetry_group_IT_number 191
_symmetry_cell_setting 'hexagonal'
loop_
_space_group_symop_operation_xyz
x,y,z
x-y,x,z
-y,x-y,z
-x,-y,z
-x+y,-x,z
y,-x+y,z
x-y,-y,-z
-x,-x+y,-z
y,x,-z
-y,-x,-z
-x+y,y,-z
x,x-y,-z
-x,-y,-z
-x+y,-x,-z
y,-x+y,-z
x,y,-z
x-y,x,-z
-y,x-y,-z
-x+y,y,z
x,x-y,z
-y,-x,z
y,x,z
x-y,-y,z
-x,-x+y,z
loop_
_atom_site_type_symbol
_atom_site_label
_atom_site_fract_x
_atom_site_fract_y
_atom_site_fract_z
Si Si1 0.606732 0.735871 0.927248
Si Si2 0.719829 0.925011 0.826269
Si Si3 0.334887 0.794527 0.400509
Si Si4 0.607019 0.870607 0.570771
Si Si5 0.073888 0.360865 0.288715
Si Si6 0.815241 0.311602 0.744039
Si Si7 0.335051 0.796964 0.111232
O O1 0.604524 0.802262 0.925690
O O2 0.661795 0.748704 0.875549
O O3 0.533009 0.682000 0.912174
O O4 0.624093 0.726520 0.000000
O O5 0.737696 0.868848 0.838421
O O6 0.687393 0.913929 0.755166
O O7 0.775614 0.000000 0.831580
O O8 0.402242 0.804483 0.423701
O O9 0.276109 0.723892 0.417435
O O10 0.314860 0.845590 0.424538
O O11 0.336488 0.800240 0.321976
O O12 0.631342 0.901280 0.500000
O O13 0.611314 0.805657 0.573835
O O14 0.639201 0.909903 0.635565
O O15 0.116368 0.433001 0.262264
O O16 0.000000 0.338272 0.281164
O O17 0.764741 0.235260 0.745298
O O18 0.803945 0.338104 0.810437
O O19 0.401287 0.802573 0.087440
O O20 0.273272 0.726729 0.095407
#
# Coordination Sequence:
#
# PCOD9587179 Si02
#       7
#    24  24  24  24  24  24  24
#     4   9  18  32  49  70  99 135 170 204 245 291
#     4  10  19  33  56  83 107 131 164 203 239 279
#     4   9  16  25  40  61  84 109 143 190 244 299
#     4   9  18  31  45  62  88 121 152 184 231 290
#     4  10  18  29  50  73  92 117 154 198 239 279
#     4   9  16  28  44  62  88 120 154 194 243 298
#     4  10  18  28  45  68  96 128 166 212 263 314
#
# _framework density 16.363232
#
# number of rings (size 3 to 8) (size 9 to 14) (size 15 to 20)
#    0.000    2.571    1.429    2.857    0.000    1.143 
#    0.000    1.429    0.000   13.857    0.000    5.000 
#    0.000    0.000    0.000    3.571    0.000    0.000 
#
# Total GULP energy -935837.757602 kJ/mol
# GULP energy per Si atom -5570.462843 kJ/mol
# Density = 1.632599 g / cm^3
# Si number density = 16.363232 Si / 1000 Ang^3
#
#
#
# Elastic Constant Matrix: (Units=GPa)
#
#
# Indices 1 2 3 4 5 6 
#
# 1 74.0554 42.7382 19.1495 0.0000 0.0000 0.0000
# 2 42.7382 74.0554 19.1495 0.0000 0.0000 0.0000
# 3 19.1495 19.1495 82.0675 0.0000 0.0000 0.0000
# 4 0.0000 0.0000 0.0000 0.3962 0.0000 0.0000
# 5 0.0000 0.0000 0.0000 0.0000 0.3962 0.0000
# 6 0.0000 0.0000 0.0000 0.0000 0.0000 15.6586
#
#
#
# Elastic Compliance Matrix: (Units=1/GPa)
#
#
# Indices 1 2 3 4 5 6 
#
# 1 0.020601 -0.011330 -0.002163 0.000000 0.000000 0.000000
# 2 -0.011330 0.020601 -0.002163 0.000000 0.000000 0.000000
# 3 -0.002163 -0.002163 0.013195 0.000000 0.000000 0.000000
# 4 0.000000 0.000000 0.000000 2.523994 0.000000 0.000000
# 5 0.000000 0.000000 0.000000 0.000000 2.523994 0.000000
# 6 0.000000 0.000000 0.000000 0.000000 0.000000 0.063863
#
#
# Mechanical properties :
#
#
# Convention : Reuss Voigt Hill
#
# Bulk Modulus (GPa) = 43.31976 43.58363 43.45169
# Shear Modulus (GPa) = 0.96057 13.23294 7.09676
#
# Velocity S-wave (km/s) = 0.76701 2.84685 2.08481
# Velocity P-wave (km/s) = 5.22644 6.12364 5.69275
#
# Compressibility (1/GPa) = 0.02308416
#
# Stress axis : x y z
#
# Youngs Moduli (GPa) = 48.54036 48.54036 75.78795
#
# Poissons Ratio (x) = 0.54996 0.16396
# Poissons Ratio (y) = 0.54996 0.16396
# Poissons Ratio (z) = 0.10501 0.10501
#
# Static dielectric constant tensor:
#      x y z
#    x 1.539630 0.000000 0.000000 
#    y 0.000000 1.539630 0.000000 
#    z 0.000000 0.000000 1.611240 
# 
# From -- ./inp_files/7911.got.cif
#   From: 2010.05.17/outbox.cif.g08.bks.cpg/sg191_4_cif.got.tgz:7911.got - 2010.05.20 12:20:32.
