data_PCOD9587305
_publ_section_title
;
Structure prediction by ZEFSAII (Michael W. Deem and Ramdas Pophale) SiO2 
 PCOD9587305
Probable space group: P 6/M M M
;
_chemical_formula_sum "Si O2"
_cell_formula_units_Z 144
_cell_length_a 23.196831
_cell_length_b 23.196831
_cell_length_c 20.037158
_cell_angle_alpha 90.000000
_cell_angle_beta 90.000000
_cell_angle_gamma 120.000000
_cell_volume 9337.359314
_symmetry_space_group_name_H-M "P 6/M M M"
_symmetry_group_IT_number 191
_symmetry_cell_setting 'hexagonal'
loop_
_space_group_symop_operation_xyz
x,y,z
x-y,x,z
-y,x-y,z
-x,-y,z
-x+y,-x,z
y,-x+y,z
x-y,-y,-z
-x,-x+y,-z
y,x,-z
-y,-x,-z
-x+y,y,-z
x,x-y,-z
-x,-y,-z
-x+y,-x,-z
y,-x+y,-z
x,y,-z
x-y,x,-z
-y,x-y,-z
-x+y,y,z
x,x-y,z
-y,-x,z
y,x,z
x-y,-y,z
-x,-x+y,z
loop_
_atom_site_type_symbol
_atom_site_label
_atom_site_fract_x
_atom_site_fract_y
_atom_site_fract_z
Si Si1 0.203784 0.924110 0.858622
Si Si2 0.402587 0.080985 0.925059
Si Si3 0.605678 0.524987 0.799656
Si Si4 0.335759 0.414392 0.340572
Si Si5 0.207510 0.282760 0.300643
Si Si6 0.666694 0.198325 0.580470
O O1 0.127242 0.872759 0.870872
O O2 0.249529 0.903726 0.900580
O O3 0.217281 0.921509 0.779486
O O4 0.227148 0.000000 0.874859
O O5 0.457718 0.104993 0.867629
O O6 0.365684 0.000000 0.926005
O O7 0.425955 0.104676 0.000000
O O8 0.552191 0.447810 0.792814
O O9 0.564180 0.564180 0.803743
O O10 0.649071 0.553755 0.733454
O O11 0.388528 0.388528 0.354073
O O12 0.263336 0.348610 0.337490
O O13 0.338572 0.470065 0.389583
O O14 0.133830 0.267659 0.317041
O O15 0.224480 0.224480 0.314394
O O16 0.667232 0.195272 0.500000
O O17 0.601670 0.203339 0.599890
O O18 0.735339 0.264662 0.601118
#
# Coordination Sequence:
#
# PCOD9587305 Si02
#       6
#    24  24  24  24  24  24
#     4   9  16  27  42  60  83 112 147 186 228 274
#     4   9  16  26  39  56  81 112 145 180 218 263
#     4   9  16  26  40  60  87 115 142 174 216 266
#     4  10  18  30  49  72  96 121 150 188 234 280
#     4   9  16  27  45  67  91 119 153 191 230 274
#     4  10  21  36  52  69  92 124 160 195 230 270
#
# _framework density 15.42192
#
# number of rings (size 3 to 8) (size 9 to 14) (size 15 to 20)
#    0.000    2.667    1.667    1.167    0.000    2.667 
#    0.000    2.500    0.000    0.333    0.000    2.333 
#    0.000    0.000    0.000    4.167    0.000    6.833 
#
# Total GULP energy -801806.749999 kJ/mol
# GULP energy per Si atom -5568.102431 kJ/mol
# Density = 1.538682 g / cm^3
# Si number density = 15.421920 Si / 1000 Ang^3
#
#
#
# Elastic Constant Matrix: (Units=GPa)
#
#
# Indices 1 2 3 4 5 6 
#
# 1 85.8538 54.5589 30.1785 0.0000 0.0000 0.0000
# 2 54.5589 85.8538 30.1785 0.0000 0.0000 0.0000
# 3 30.1785 30.1785 34.7924 0.0000 0.0000 0.0000
# 4 0.0000 0.0000 0.0000 12.8884 0.0000 0.0000
# 5 0.0000 0.0000 0.0000 0.0000 12.8884 0.0000
# 6 0.0000 0.0000 0.0000 0.0000 0.0000 15.6475
#
#
#
# Elastic Compliance Matrix: (Units=1/GPa)
#
#
# Indices 1 2 3 4 5 6 
#
# 1 0.021655 -0.010299 -0.009850 0.000000 0.000000 0.000000
# 2 -0.010299 0.021655 -0.009850 0.000000 0.000000 0.000000
# 3 -0.009850 -0.009850 0.045830 0.000000 0.000000 0.000000
# 4 0.000000 0.000000 0.000000 0.077589 0.000000 0.000000
# 5 0.000000 0.000000 0.000000 0.000000 0.077589 0.000000
# 6 0.000000 0.000000 0.000000 0.000000 0.000000 0.063908
#
#
# Mechanical properties :
#
#
# Convention : Reuss Voigt Hill
#
# Bulk Modulus (GPa) = 34.31551 48.48132 41.39841
# Shear Modulus (GPa) = 13.22970 14.39047 13.81008
#
# Velocity S-wave (km/s) = 2.93209 3.05801 2.99571
# Velocity P-wave (km/s) = 5.81053 6.63125 6.23441
#
# Compressibility (1/GPa) = 0.02914135
#
# Stress axis : x y z
#
# Youngs Moduli (GPa) = 46.17869 46.17870 21.81996
#
# Poissons Ratio (x) = 0.47560 0.21493
# Poissons Ratio (y) = 0.47560 0.21493
# Poissons Ratio (z) = 0.45486 0.45486
#
# Static dielectric constant tensor:
#      x y z
#    x 1.508340 0.000000 0.000000 
#    y 0.000000 1.508340 0.000000 
#    z 0.000000 0.000000 1.517960 
# 
# From -- ./inp_files/6573.got.cif
#   From: 2010.05.17/outbox.cif.g08.bks.cpg/sg191_4_cif.got.tgz:6573.got - 2010.05.20 12:20:32.
