data_PCOD9587115
_publ_section_title
;
Structure prediction by ZEFSAII (Michael W. Deem and Ramdas Pophale) SiO2 
 PCOD9587115
Probable space group: P 6/M M M
;
_chemical_formula_sum "Si O2"
_cell_formula_units_Z 96
_cell_length_a 27.996227
_cell_length_b 27.996227
_cell_length_c 7.375941
_cell_angle_alpha 90.000000
_cell_angle_beta 90.000000
_cell_angle_gamma 120.000000
_cell_volume 5006.648225
_symmetry_space_group_name_H-M "P 6/M M M"
_symmetry_group_IT_number 191
_symmetry_cell_setting 'hexagonal'
loop_
_space_group_symop_operation_xyz
x,y,z
x-y,x,z
-y,x-y,z
-x,-y,z
-x+y,-x,z
y,-x+y,z
x-y,-y,-z
-x,-x+y,-z
y,x,-z
-y,-x,-z
-x+y,y,-z
x,x-y,-z
-x,-y,-z
-x+y,-x,-z
y,-x+y,-z
x,y,-z
x-y,x,-z
-y,x-y,-z
-x+y,y,z
x,x-y,z
-y,-x,z
y,x,z
x-y,-y,z
-x,-x+y,z
loop_
_atom_site_type_symbol
_atom_site_label
_atom_site_fract_x
_atom_site_fract_y
_atom_site_fract_z
Si Si1 0.569253 0.138506 0.723172
Si Si2 0.324546 0.162273 0.706325
Si Si3 0.367857 0.735715 0.280676
Si Si4 0.458615 0.123108 0.712070
Si Si5 0.546181 0.773091 0.215665
Si Si6 0.063259 0.333090 0.277369
O O1 0.569091 0.138183 0.500000
O O2 0.601191 0.202381 0.783571
O O3 0.506362 0.112776 0.784464
O O4 0.303937 0.151969 0.500000
O O5 0.391647 0.195824 0.704651
O O6 0.310932 0.103743 0.786009
O O7 0.303511 0.696490 0.227318
O O8 0.369087 0.738173 0.500000
O O9 0.453469 0.109610 0.500000
O O10 0.478475 0.188332 0.727302
O O11 0.396577 0.089165 0.785799
O O12 0.550256 0.775128 0.000000
O O13 0.065704 0.334253 0.500000
O O14 0.000000 0.296636 0.224700
#
# Coordination Sequence:
#
# PCOD9587115 Si02
#       6
#    12  12  12  24  12  24
#     4   9  16  24  37  56  75  93 126 167 198 238
#     4   8  14  26  43  63  82 105 134 159 189 229
#     4   7  12  19  27  45  67  84 106 143 191 227
#     4   9  17  28  42  59  76 100 133 167 202 244
#     4  10  18  27  41  59  79 102 127 162 205 245
#     4   8  13  23  40  61  84 106 129 161 200 238
#
# _framework density 19.174503000000001
#
# number of rings (size 3 to 8) (size 9 to 14) (size 15 to 20)
#    0.250    3.250    0.000    2.625    1.750    0.000 
#    0.000    1.250    0.000   15.750    0.000    0.000 
#    0.000    8.000    0.000    0.375    0.000   12.000 
#
# Total GULP energy -534660.067635 kJ/mol
# GULP energy per Si atom -5569.375705 kJ/mol
# Density = 1.913086 g / cm^3
# Si number density = 19.174503 Si / 1000 Ang^3
#
#
#
# Elastic Constant Matrix: (Units=GPa)
#
#
# Indices 1 2 3 4 5 6 
#
# 1 112.3716 73.6931 0.0361 0.0000 0.0000 0.0000
# 2 73.6931 112.3716 0.0361 0.0000 0.0000 0.0000
# 3 0.0361 0.0361 73.0965 0.0000 0.0000 0.0000
# 4 0.0000 0.0000 0.0000 -27.9283 0.0000 0.0000
# 5 0.0000 0.0000 0.0000 0.0000 -27.9283 0.0000
# 6 0.0000 0.0000 0.0000 0.0000 0.0000 19.3392
#
#
#
# Elastic Compliance Matrix: (Units=1/GPa)
#
#
# Indices 1 2 3 4 5 6 
#
# 1 0.015614 -0.010240 -0.000003 0.000000 0.000000 0.000000
# 2 -0.010240 0.015614 -0.000003 0.000000 0.000000 0.000000
# 3 -0.000003 -0.000003 0.013681 0.000000 0.000000 0.000000
# 4 0.000000 0.000000 0.000000 -0.035806 0.000000 0.000000
# 5 0.000000 0.000000 0.000000 0.000000 -0.035806 0.000000
# 6 0.000000 0.000000 0.000000 0.000000 0.000000 0.051708
#
#
# Mechanical properties :
#
#
# Convention : Reuss Voigt Hill
#
# Bulk Modulus (GPa) = 40.95190 49.48557 45.21873
# Shear Modulus (GPa) = 93.22155 7.63481 50.42818
#
# Velocity S-wave (km/s) = 6.98019 1.99760 5.13388
# Velocity P-wave (km/s) = 9.29343 5.58431 7.66656
#
# Compressibility (1/GPa) = 0.02441889
#
# Stress axis : x y z
#
# Youngs Moduli (GPa) = 64.04367 64.04367 73.09648
#
# Poissons Ratio (x) = 0.65580 0.00019
# Poissons Ratio (y) = 0.65580 0.00019
# Poissons Ratio (z) = 0.00017 0.00017
#
# Static dielectric constant tensor:
#      x y z
#    x 1.683600 0.000000 0.000000 
#    y 0.000000 1.683600 0.000000 
#    z 0.000000 0.000000 1.702070 
# 
# From -- ./inp_files/1632.got.cif
#   From: 2010.05.17/outbox.cif.g08.bks.cpg/sg191_1_cif.got.tgz:1632.got - 2010.05.20 12:20:32.
