data_PCOD9587883
_publ_section_title
;
Structure prediction by ZEFSAII (Michael W. Deem and Ramdas Pophale) SiO2 
 PCOD9587883
Probable space group: P 6/M M M
;
_chemical_formula_sum "Si O2"
_cell_formula_units_Z 108
_cell_length_a 18.138398
_cell_length_b 18.138398
_cell_length_c 23.529435
_cell_angle_alpha 90.000000
_cell_angle_beta 90.000000
_cell_angle_gamma 120.000000
_cell_volume 6704.092298
_symmetry_space_group_name_H-M "P 6/M M M"
_symmetry_group_IT_number 191
_symmetry_cell_setting 'hexagonal'
loop_
_space_group_symop_operation_xyz
x,y,z
x-y,x,z
-y,x-y,z
-x,-y,z
-x+y,-x,z
y,-x+y,z
x-y,-y,-z
-x,-x+y,-z
y,x,-z
-y,-x,-z
-x+y,y,-z
x,x-y,-z
-x,-y,-z
-x+y,-x,-z
y,-x+y,-z
x,y,-z
x-y,x,-z
-y,x-y,-z
-x+y,y,z
x,x-y,z
-y,-x,z
y,x,z
x-y,-y,z
-x,-x+y,z
loop_
_atom_site_type_symbol
_atom_site_label
_atom_site_fract_x
_atom_site_fract_y
_atom_site_fract_z
Si Si1 0.666243 0.505573 0.933829
Si Si2 0.095680 0.362529 0.165688
Si Si3 0.160039 0.667019 0.269401
Si Si4 0.357408 0.261625 0.500000
Si Si5 0.270888 0.369693 0.374164
O O1 0.740657 0.481313 0.928157
O O2 0.575583 0.424418 0.919309
O O3 0.692220 0.583267 0.891512
O O4 0.664361 0.527391 0.000000
O O5 0.168275 0.336550 0.166970
O O6 0.115218 0.427246 0.217931
O O7 0.000000 0.286499 0.169559
O O8 0.150287 0.575144 0.264039
O O9 0.259039 0.740962 0.267898
O O10 0.121082 0.678748 0.327873
O O11 0.281492 0.281492 0.500000
O O12 0.324907 0.162454 0.500000
O O13 0.403077 0.294993 0.560623
O O14 0.171078 0.342157 0.366857
O O15 0.296852 0.296852 0.366935
#
# Coordination Sequence:
#
# PCOD9587883 Si02
#       5
#    24  24  24  12  24
#     4   9  17  29  46  69  98 131 163 192 223 263
#     4  10  21  35  50  69  93 121 152 188 231 275
#     4  10  20  33  49  69  94 123 153 184 219 261
#     4   8  14  26  43  62  85 113 147 185 226 272
#     4   9  17  29  46  67  90 118 151 188 229 271
#
# _framework density 16.109563999999999
#
# number of rings (size 3 to 8) (size 9 to 14) (size 15 to 20)
#    0.000    2.667    0.000    1.778    0.000    4.444 
#    0.000    3.889    0.000    2.556    0.000    4.667 
#    0.000    5.333    0.000    5.778    0.000    0.889 
#
# Total GULP energy -601496.236722 kJ/mol
# GULP energy per Si atom -5569.409599 kJ/mol
# Density = 1.607290 g / cm^3
# Si number density = 16.109564 Si / 1000 Ang^3
#
#
#
# Elastic Constant Matrix: (Units=GPa)
#
#
# Indices 1 2 3 4 5 6 
#
# 1 77.9693 69.6372 45.0571 0.0000 0.0000 0.0000
# 2 69.6372 77.9693 45.0571 0.0000 0.0000 0.0000
# 3 45.0571 45.0571 81.7976 0.0000 0.0000 0.0000
# 4 0.0000 0.0000 0.0000 17.4947 0.0000 0.0000
# 5 0.0000 0.0000 0.0000 0.0000 17.4947 0.0000
# 6 0.0000 0.0000 0.0000 0.0000 0.0000 4.1661
#
#
#
# Elastic Compliance Matrix: (Units=1/GPa)
#
#
# Indices 1 2 3 4 5 6 
#
# 1 0.065112 -0.054905 -0.005623 0.000000 0.000000 0.000000
# 2 -0.054905 0.065112 -0.005623 0.000000 0.000000 0.000000
# 3 -0.005623 -0.005623 0.018420 0.000000 0.000000 0.000000
# 4 0.000000 0.000000 0.000000 0.057160 0.000000 0.000000
# 5 0.000000 0.000000 0.000000 0.000000 0.057160 0.000000
# 6 0.000000 0.000000 0.000000 0.000000 0.000000 0.240035
#
#
# Mechanical properties :
#
#
# Convention : Reuss Voigt Hill
#
# Bulk Modulus (GPa) = 61.18479 61.91545 61.55012
# Shear Modulus (GPa) = 7.80337 13.03008 10.41673
#
# Velocity S-wave (km/s) = 2.20328 2.84710 2.54563
# Velocity P-wave (km/s) = 6.67349 7.02320 6.85058
#
# Compressibility (1/GPa) = 0.01634393
#
# Stress axis : x y z
#
# Youngs Moduli (GPa) = 15.35804 15.35804 54.29012
#
# Poissons Ratio (x) = 0.84323 0.30525
# Poissons Ratio (y) = 0.84323 0.30525
# Poissons Ratio (z) = 0.08635 0.08635
#
# Static dielectric constant tensor:
#      x y z
#    x 1.520250 0.000000 0.000000 
#    y 0.000000 1.520250 0.000000 
#    z 0.000000 0.000000 1.577990 
# 
# From -- ./inp_files/7280.got.cif
#   From: 2010.05.17/outbox.cif.g08.bks.cpg/sg191_4_cif.got.tgz:7280.got - 2010.05.20 12:20:32.
