data_PCOD9587156
_publ_section_title
;
Structure prediction by ZEFSAII (Michael W. Deem and Ramdas Pophale) SiO2 
 PCOD9587156
Probable space group: P 6/M M M
;
_chemical_formula_sum "Si O2"
_cell_formula_units_Z 156
_cell_length_a 23.046390
_cell_length_b 23.046390
_cell_length_c 18.851924
_cell_angle_alpha 90.000000
_cell_angle_beta 90.000000
_cell_angle_gamma 120.000000
_cell_volume 8671.458017
_symmetry_space_group_name_H-M "P 6/M M M"
_symmetry_group_IT_number 191
_symmetry_cell_setting 'hexagonal'
loop_
_space_group_symop_operation_xyz
x,y,z
x-y,x,z
-y,x-y,z
-x,-y,z
-x+y,-x,z
y,-x+y,z
x-y,-y,-z
-x,-x+y,-z
y,x,-z
-y,-x,-z
-x+y,y,-z
x,x-y,-z
-x,-y,-z
-x+y,-x,-z
y,-x+y,-z
x,y,-z
x-y,x,-z
-y,x-y,-z
-x+y,y,z
x,x-y,z
-y,-x,z
y,x,z
x-y,-y,z
-x,-x+y,z
loop_
_atom_site_type_symbol
_atom_site_label
_atom_site_fract_x
_atom_site_fract_y
_atom_site_fract_z
Si Si1 0.667069 0.463556 0.413283
Si Si2 0.784488 0.706284 0.000000
Si Si3 0.613709 0.691475 0.127630
Si Si4 0.280848 0.074986 0.778109
Si Si5 0.666487 0.469926 0.085938
Si Si6 0.279097 0.075177 0.607747
Si Si7 0.411953 0.338370 0.583522
O O1 0.668188 0.465863 0.500000
O O2 0.739313 0.478625 0.389609
O O3 0.609957 0.390044 0.392926
O O4 0.651037 0.519443 0.386095
O O5 0.745395 0.658835 0.932960
O O6 0.766211 0.766211 0.000000
O O7 0.861958 0.723915 0.000000
O O8 0.632326 0.632326 0.123594
O O9 0.646649 0.734002 0.198834
O O10 0.536637 0.669489 0.116832
O O11 0.269836 0.134918 0.804773
O O12 0.276478 0.074289 0.693233
O O13 0.227827 0.000000 0.804343
O O14 0.733906 0.467812 0.105149
O O15 0.598950 0.401051 0.105631
O O16 0.666519 0.475413 0.000000
O O17 0.264382 0.132191 0.582249
O O18 0.353602 0.092115 0.587877
O O19 0.229097 0.000000 0.582585
O O20 0.423757 0.354948 0.500000
O O21 0.382425 0.382425 0.615869
#
# Coordination Sequence:
#
# PCOD9587156 Si02
#       7
#    24  12  24  24  24  24  24
#     4   9  16  25  38  57  82 111 140 170 206 250
#     4  10  18  28  43  64  89 113 139 173 214 256
#     4  10  19  30  46  68  90 114 144 182 225 263
#     4   9  17  29  46  66  88 115 147 181 217 260
#     4  10  19  30  45  65  92 123 153 184 220 265
#     4   9  17  29  45  65  88 114 144 178 216 259
#     4   9  17  28  43  64  88 112 139 175 219 262
#
# _framework density 17.990055000000002
#
# number of rings (size 3 to 8) (size 9 to 14) (size 15 to 20)
#    0.000    2.615    0.769    2.154    0.000    2.769 
#    0.000    2.308    0.000    1.308    0.000    6.462 
#    0.000    6.154    0.000    4.000    0.000    4.308 
#
# Total GULP energy -869182.437738 kJ/mol
# GULP energy per Si atom -5571.682293 kJ/mol
# Density = 1.794911 g / cm^3
# Si number density = 17.990055 Si / 1000 Ang^3
#
#
#
# Elastic Constant Matrix: (Units=GPa)
#
#
# Indices 1 2 3 4 5 6 
#
# 1 115.2115 86.9494 12.3002 0.0000 0.0000 0.0000
# 2 86.9494 115.2115 12.3002 0.0000 0.0000 0.0000
# 3 12.3002 12.3002 23.8466 0.0000 0.0000 0.0000
# 4 0.0000 0.0000 0.0000 15.3109 0.0000 0.0000
# 5 0.0000 0.0000 0.0000 0.0000 15.3109 0.0000
# 6 0.0000 0.0000 0.0000 0.0000 0.0000 14.1311
#
#
#
# Elastic Compliance Matrix: (Units=1/GPa)
#
#
# Indices 1 2 3 4 5 6 
#
# 1 0.020330 -0.015053 -0.002722 0.000000 0.000000 0.000000
# 2 -0.015053 0.020330 -0.002722 0.000000 0.000000 0.000000
# 3 -0.002722 -0.002722 0.044743 0.000000 0.000000 0.000000
# 4 0.000000 0.000000 0.000000 0.065313 0.000000 0.000000
# 5 0.000000 0.000000 0.000000 0.000000 0.065313 0.000000
# 6 0.000000 0.000000 0.000000 0.000000 0.000000 0.070766
#
#
# Mechanical properties :
#
#
# Convention : Reuss Voigt Hill
#
# Bulk Modulus (GPa) = 22.51777 53.04105 37.77941
# Shear Modulus (GPa) = 14.59454 18.46521 16.52987
#
# Velocity S-wave (km/s) = 2.85135 3.20724 3.03452
# Velocity P-wave (km/s) = 4.83572 6.57744 5.77265
#
# Compressibility (1/GPa) = 0.04440937
#
# Stress axis : x y z
#
# Youngs Moduli (GPa) = 49.18734 49.18734 22.34984
#
# Poissons Ratio (x) = 0.74040 0.06084
# Poissons Ratio (y) = 0.74040 0.06084
# Poissons Ratio (z) = 0.13390 0.13390
#
# Static dielectric constant tensor:
#      x y z
#    x 1.618190 0.000000 0.000000 
#    y 0.000000 1.618190 0.000000 
#    z 0.000000 0.000000 1.656190 
# 
# From -- ./inp_files/7759.got.cif
#   From: 2010.05.17/outbox.cif.g08.bks.cpg/sg191_4_cif.got.tgz:7759.got - 2010.05.20 12:20:32.
