data_PCOD9587973
_publ_section_title
;
Structure prediction by ZEFSAII (Michael W. Deem and Ramdas Pophale) SiO2 
 PCOD9587973
Probable space group: P 6/M M M
;
_chemical_formula_sum "Si O2"
_cell_formula_units_Z 114
_cell_length_a 21.591859
_cell_length_b 21.591859
_cell_length_c 15.063723
_cell_angle_alpha 90.000000
_cell_angle_beta 90.000000
_cell_angle_gamma 120.000000
_cell_volume 6081.952497
_symmetry_space_group_name_H-M "P 6/M M M"
_symmetry_group_IT_number 191
_symmetry_cell_setting 'hexagonal'
loop_
_space_group_symop_operation_xyz
x,y,z
x-y,x,z
-y,x-y,z
-x,-y,z
-x+y,-x,z
y,-x+y,z
x-y,-y,-z
-x,-x+y,-z
y,x,-z
-y,-x,-z
-x+y,y,-z
x,x-y,-z
-x,-y,-z
-x+y,-x,-z
y,-x+y,-z
x,y,-z
x-y,x,-z
-y,x-y,-z
-x+y,y,z
x,x-y,z
-y,-x,z
y,x,z
x-y,-y,z
-x,-x+y,z
loop_
_atom_site_type_symbol
_atom_site_label
_atom_site_fract_x
_atom_site_fract_y
_atom_site_fract_z
Si Si1 0.080541 0.301010 0.392587
Si Si2 0.298716 0.079010 0.106847
Si Si3 0.081733 0.442035 0.153595
Si Si4 0.431480 0.568521 0.500000
Si Si5 0.552427 0.916002 0.357298
Si Si6 0.472768 0.808510 0.000000
O O1 0.079305 0.296942 0.500000
O O2 0.144298 0.288595 0.360623
O O3 0.095756 0.380111 0.368977
O O4 0.000000 0.245856 0.360482
O O5 0.286502 0.143251 0.132869
O O6 0.369163 0.085589 0.150807
O O7 0.234190 0.000000 0.125804
O O8 0.311368 0.083512 0.000000
O O9 0.093793 0.468737 0.254253
O O10 0.140056 0.494628 0.084904
O O11 0.000000 0.417740 0.127455
O O12 0.380654 0.511518 0.422619
O O13 0.582410 0.000000 0.380593
O O14 0.388100 0.776199 0.000000
O O15 0.493151 0.746576 0.000000
#
# Coordination Sequence:
#
# PCOD9587973 Si02
#       6
#    24  24  24   6  24  12
#     4   9  17  31  50  75 109 147 188 234 284 335
#     4   9  16  29  50  77 112 151 192 238 291 344
#     4  10  21  36  58  88 114 140 178 230 288 337
#     4  12  21  36  58  82 122 152 172 214 274 354
#     4  10  20  33  55  85 115 147 179 220 280 345
#     4  12  26  43  59  77 110 149 189 225 269 326
#
# _framework density 18.743981000000002
#
# number of rings (size 3 to 8) (size 9 to 14) (size 15 to 20)
#    0.000    2.105    2.105    2.000    1.474    2.526 
#    0.000    0.000    0.000    0.421    0.000    2.947 
#    4.211    0.000    0.000   10.526    0.000   10.947 
#
# Total GULP energy -635045.804965 kJ/mol
# GULP energy per Si atom -5570.577237 kJ/mol
# Density = 1.870132 g / cm^3
# Si number density = 18.743981 Si / 1000 Ang^3
#
#
#
# Elastic Constant Matrix: (Units=GPa)
#
#
# Indices 1 2 3 4 5 6 
#
# 1 81.3807 59.2303 28.0785 0.0000 0.0000 0.0000
# 2 59.2303 81.3807 28.0785 0.0000 0.0000 0.0000
# 3 28.0785 28.0785 87.2913 0.0000 0.0000 0.0000
# 4 0.0000 0.0000 0.0000 -23.2124 0.0000 0.0000
# 5 0.0000 0.0000 0.0000 0.0000 -23.2124 0.0000
# 6 0.0000 0.0000 0.0000 0.0000 0.0000 11.0752
#
#
#
# Elastic Compliance Matrix: (Units=1/GPa)
#
#
# Indices 1 2 3 4 5 6 
#
# 1 0.026653 -0.018493 -0.002625 0.000000 0.000000 0.000000
# 2 -0.018493 0.026653 -0.002625 0.000000 0.000000 0.000000
# 3 -0.002625 -0.002625 0.013145 0.000000 0.000000 0.000000
# 4 0.000000 0.000000 0.000000 -0.043080 0.000000 0.000000
# 5 0.000000 0.000000 0.000000 0.000000 -0.043080 0.000000
# 6 0.000000 0.000000 0.000000 0.000000 0.000000 0.090292
#
#
# Mechanical properties :
#
#
# Convention : Reuss Voigt Hill
#
# Bulk Modulus (GPa) = 52.72742 53.42527 53.07635
# Shear Modulus (GPa) = 40.19657 1.90775 21.05216
#
# Velocity S-wave (km/s) = 4.63590 1.00995 3.35497
# Velocity P-wave (km/s) = 7.53969 5.47033 6.58678
#
# Compressibility (1/GPa) = 0.01896547
#
# Stress axis : x y z
#
# Youngs Moduli (GPa) = 37.51919 37.51919 76.07734
#
# Poissons Ratio (x) = 0.69384 0.19969
# Poissons Ratio (y) = 0.69384 0.19969
# Poissons Ratio (z) = 0.09848 0.09848
#
# Static dielectric constant tensor:
#      x y z
#    x 1.643280 0.000000 0.000000 
#    y 0.000000 1.643280 0.000000 
#    z 0.000000 0.000000 1.672500 
# 
# From -- ./inp_files/4422.got.cif
#   From: 2010.05.17/outbox.cif.g08.bks.cpg/sg191_3_cif.got.tgz:4422.got - 2010.05.20 12:20:32.
