data_PCOD9587964
_publ_section_title
;
Structure prediction by ZEFSAII (Michael W. Deem and Ramdas Pophale) SiO2 
 PCOD9587964
Probable space group: P 6/M M M
;
_chemical_formula_sum "Si O2"
_cell_formula_units_Z 120
_cell_length_a 18.017308
_cell_length_b 18.017308
_cell_length_c 24.914820
_cell_angle_alpha 90.000000
_cell_angle_beta 90.000000
_cell_angle_gamma 120.000000
_cell_volume 7004.355675
_symmetry_space_group_name_H-M "P 6/M M M"
_symmetry_group_IT_number 191
_symmetry_cell_setting 'hexagonal'
loop_
_space_group_symop_operation_xyz
x,y,z
x-y,x,z
-y,x-y,z
-x,-y,z
-x+y,-x,z
y,-x+y,z
x-y,-y,-z
-x,-x+y,-z
y,x,-z
-y,-x,-z
-x+y,y,-z
x,x-y,-z
-x,-y,-z
-x+y,-x,-z
y,-x+y,-z
x,y,-z
x-y,x,-z
-y,x-y,-z
-x+y,y,z
x,x-y,z
-y,-x,z
y,x,z
x-y,-y,z
-x,-x+y,z
loop_
_atom_site_type_symbol
_atom_site_label
_atom_site_fract_x
_atom_site_fract_y
_atom_site_fract_z
Si Si1 0.492344 0.159237 0.158033
Si Si2 0.900703 0.801405 0.565398
Si Si3 0.267343 0.902588 0.062875
Si Si4 0.534828 0.898192 0.365545
Si Si5 0.800711 0.601422 0.435888
Si Si6 0.901516 0.268737 0.258731
O O1 0.574243 0.148485 0.164899
O O2 0.517961 0.258981 0.159274
O O3 0.443953 0.120816 0.101977
O O4 0.423808 0.113794 0.205519
O O5 0.850539 0.850539 0.582850
O O6 0.901322 0.802644 0.500000
O O7 0.850894 0.701787 0.581551
O O8 0.168695 0.831306 0.073611
O O9 0.291762 0.000000 0.073012
O O10 0.284262 0.895668 0.000000
O O11 0.435559 0.871118 0.361720
O O12 0.555862 0.849748 0.411330
O O13 0.570893 0.883974 0.309694
O O14 0.587360 0.000000 0.376035
O O15 0.799462 0.598925 0.500000
O O16 0.831367 0.168634 0.258947
O O17 0.000000 0.293029 0.261287
#
# Coordination Sequence:
#
# PCOD9587964 Si02
#       6
#    24  12  24  24  12  24
#     4  10  20  33  51  77 107 140 178 220 263 307
#     4   9  17  30  51  80 112 142 172 208 253 308
#     4   9  18  32  49  71 102 140 179 218 263 315
#     4  10  21  38  58  79 104 136 175 218 263 311
#     4  11  22  37  56  79 106 140 176 215 260 315
#     4  10  20  36  58  82 107 136 172 215 263 312
#
# _framework density 17.132196
#
# number of rings (size 3 to 8) (size 9 to 14) (size 15 to 20)
#    0.000    2.200    1.000    2.100    0.000    4.800 
#    0.600    2.000    0.000    1.600    0.000    1.400 
#    0.000    4.800    0.000    0.200    0.000    0.000 
#
# Total GULP energy -669526.839157 kJ/mol
# GULP energy per Si atom -5579.390326 kJ/mol
# Density = 1.709320 g / cm^3
# Si number density = 17.132196 Si / 1000 Ang^3
#
#
#
# Elastic Constant Matrix: (Units=GPa)
#
#
# Indices 1 2 3 4 5 6 
#
# 1 105.2193 82.4855 40.6617 0.0000 0.0000 0.0000
# 2 82.4855 105.2193 40.6617 0.0000 0.0000 0.0000
# 3 40.6617 40.6617 66.7029 0.0000 0.0000 0.0000
# 4 0.0000 0.0000 0.0000 17.4310 0.0000 0.0000
# 5 0.0000 0.0000 0.0000 0.0000 17.4310 0.0000
# 6 0.0000 0.0000 0.0000 0.0000 0.0000 11.3669
#
#
#
# Elastic Compliance Matrix: (Units=1/GPa)
#
#
# Indices 1 2 3 4 5 6 
#
# 1 0.025613 -0.018374 -0.004413 0.000000 0.000000 0.000000
# 2 -0.018374 0.025613 -0.004413 0.000000 0.000000 0.000000
# 3 -0.004413 -0.004413 0.020372 0.000000 0.000000 0.000000
# 4 0.000000 0.000000 0.000000 0.057369 0.000000 0.000000
# 5 0.000000 0.000000 0.000000 0.000000 0.057369 0.000000
# 6 0.000000 0.000000 0.000000 0.000000 0.000000 0.087975
#
#
# Mechanical properties :
#
#
# Convention : Reuss Voigt Hill
#
# Bulk Modulus (GPa) = 58.14395 67.19548 62.66971
# Shear Modulus (GPa) = 14.95011 16.80128 15.87570
#
# Velocity S-wave (km/s) = 2.95724 3.13499 3.04741
# Velocity P-wave (km/s) = 6.75814 7.23955 7.00298
#
# Compressibility (1/GPa) = 0.01719869
#
# Stress axis : x y z
#
# Youngs Moduli (GPa) = 39.04197 39.04197 49.08618
#
# Poissons Ratio (x) = 0.71735 0.21663
# Poissons Ratio (y) = 0.71735 0.21663
# Poissons Ratio (z) = 0.17230 0.17230
#
# Static dielectric constant tensor:
#      x y z
#    x 1.566120 0.000000 0.000000 
#    y 0.000000 1.566120 0.000000 
#    z 0.000000 0.000000 1.582330 
# 
# From -- ./inp_files/8570.got.cif
#   From: 2010.05.17/outbox.cif.g08.bks.cpg/sg191_5_cif.got.tgz:8570.got - 2010.05.20 12:20:32.
