data_PCOD9587778
_publ_section_title
;
Structure prediction by ZEFSAII (Michael W. Deem and Ramdas Pophale) SiO2 
 PCOD9587778
Probable space group: P 6/M M M
;
_chemical_formula_sum "Si O2"
_cell_formula_units_Z 108
_cell_length_a 30.165822
_cell_length_b 30.165822
_cell_length_c 8.261429
_cell_angle_alpha 90.000000
_cell_angle_beta 90.000000
_cell_angle_gamma 120.000000
_cell_volume 6510.526855
_symmetry_space_group_name_H-M "P 6/M M M"
_symmetry_group_IT_number 191
_symmetry_cell_setting 'hexagonal'
loop_
_space_group_symop_operation_xyz
x,y,z
x-y,x,z
-y,x-y,z
-x,-y,z
-x+y,-x,z
y,-x+y,z
x-y,-y,-z
-x,-x+y,-z
y,x,-z
-y,-x,-z
-x+y,y,-z
x,x-y,-z
-x,-y,-z
-x+y,-x,-z
y,-x+y,-z
x,y,-z
x-y,x,-z
-y,x-y,-z
-x+y,y,z
x,x-y,z
-y,-x,z
y,x,z
x-y,-y,z
-x,-x+y,z
loop_
_atom_site_type_symbol
_atom_site_label
_atom_site_fract_x
_atom_site_fract_y
_atom_site_fract_z
Si Si1 0.507982 0.701142 0.816546
Si Si2 0.000000 0.803117 0.309899
Si Si3 0.788925 0.894463 0.815219
Si Si4 0.000000 0.700560 0.191928
Si Si5 0.438948 0.772354 0.500000
Si Si6 0.839564 0.679127 0.686001
Si Si7 0.388760 0.107071 0.310972
O O1 0.520334 0.760167 0.803828
O O2 0.470701 0.672818 0.665063
O O3 0.559708 0.699089 0.790224
O O4 0.487869 0.683810 0.000000
O O5 0.050748 0.855870 0.262742
O O6 0.000000 0.795615 0.500000
O O7 0.000000 0.753285 0.235150
O O8 0.727313 0.863657 0.802110
O O9 0.805863 0.902932 0.000000
O O10 0.950373 0.650791 0.259941
O O11 0.000000 0.697801 0.000000
O O12 0.386617 0.773234 0.500000
O O13 0.428901 0.714450 0.500000
O O14 0.849557 0.699113 0.500000
O O15 0.864671 0.644183 0.707486
O O16 0.402614 0.109564 0.500000
#
# Coordination Sequence:
#
# PCOD9587778 Si02
#       7
#    24  12  12  12  12  12  24
#     4  10  20  34  56  84 114 151 193 235 284 341
#     4  12  24  40  56  75 105 144 183 223 278 345
#     4  12  24  38  56  79 105 138 182 230 278 334
#     4  12  24  34  48  78 115 150 189 233 279 334
#     4  10  21  38  60  87 121 155 193 234 279 327
#     4  10  20  30  52  76 107 149 184 222 272 332
#     4  11  20  34  53  77 111 153 193 231 278 336
#
# _framework density 16.588519999999999
#
# number of rings (size 3 to 8) (size 9 to 14) (size 15 to 20)
#    0.000    1.111    4.444    3.778    0.000    1.333 
#    0.000    0.000    0.000    1.556    0.000    3.111 
#    0.000    2.667    0.000    0.000    0.000    0.000 
#
# Total GULP energy -602809.030790 kJ/mol
# GULP energy per Si atom -5581.565100 kJ/mol
# Density = 1.655076 g / cm^3
# Si number density = 16.588520 Si / 1000 Ang^3
#
#
#
# Elastic Constant Matrix: (Units=GPa)
#
#
# Indices 1 2 3 4 5 6 
#
# 1 96.0433 30.9262 41.6072 0.0000 0.0000 0.0000
# 2 30.9262 96.0433 41.6072 0.0000 0.0000 0.0000
# 3 41.6072 41.6072 103.9901 0.0000 0.0000 0.0000
# 4 0.0000 0.0000 0.0000 11.4367 0.0000 0.0000
# 5 0.0000 0.0000 0.0000 0.0000 11.4367 0.0000
# 6 0.0000 0.0000 0.0000 0.0000 0.0000 32.5585
#
#
#
# Elastic Compliance Matrix: (Units=1/GPa)
#
#
# Indices 1 2 3 4 5 6 
#
# 1 0.013016 -0.002341 -0.004271 0.000000 0.000000 0.000000
# 2 -0.002341 0.013016 -0.004271 0.000000 0.000000 0.000000
# 3 -0.004271 -0.004271 0.013034 0.000000 0.000000 0.000000
# 4 0.000000 0.000000 0.000000 0.087438 0.000000 0.000000
# 5 0.000000 0.000000 0.000000 0.000000 0.087438 0.000000
# 6 0.000000 0.000000 0.000000 0.000000 0.000000 0.030714
#
#
# Mechanical properties :
#
#
# Convention : Reuss Voigt Hill
#
# Bulk Modulus (GPa) = 57.80441 58.26198 58.03319
# Shear Modulus (GPa) = 18.36961 23.21548 20.79255
#
# Velocity S-wave (km/s) = 3.33133 3.74504 3.54422
# Velocity P-wave (km/s) = 7.05115 7.34156 7.19782
#
# Compressibility (1/GPa) = 0.01729972
#
# Stress axis : x y z
#
# Youngs Moduli (GPa) = 76.82801 76.82801 76.72131
#
# Poissons Ratio (x) = 0.17984 0.32769
# Poissons Ratio (y) = 0.17984 0.32769
# Poissons Ratio (z) = 0.32815 0.32815
#
# Static dielectric constant tensor:
#      x y z
#    x 1.572470 0.000000 0.000000 
#    y 0.000000 1.572470 0.000000 
#    z 0.000000 0.000000 1.583600 
# 
# From -- ./inp_files/1809.got.cif
#   From: 2010.05.17/outbox.cif.g08.bks.cpg/sg191_1_cif.got.tgz:1809.got - 2010.05.20 12:20:32.
