data_PCOD9587839
_publ_section_title
;
Structure prediction by ZEFSAII (Michael W. Deem and Ramdas Pophale) SiO2 
 PCOD9587839
Probable space group: P 6/M M M
;
_chemical_formula_sum "Si O2"
_cell_formula_units_Z 120
_cell_length_a 18.374947
_cell_length_b 18.374947
_cell_length_c 24.895340
_cell_angle_alpha 90.000000
_cell_angle_beta 90.000000
_cell_angle_gamma 120.000000
_cell_volume 7279.488827
_symmetry_space_group_name_H-M "P 6/M M M"
_symmetry_group_IT_number 191
_symmetry_cell_setting 'hexagonal'
loop_
_space_group_symop_operation_xyz
x,y,z
x-y,x,z
-y,x-y,z
-x,-y,z
-x+y,-x,z
y,-x+y,z
x-y,-y,-z
-x,-x+y,-z
y,x,-z
-y,-x,-z
-x+y,y,-z
x,x-y,-z
-x,-y,-z
-x+y,-x,-z
y,-x+y,-z
x,y,-z
x-y,x,-z
-y,x-y,-z
-x+y,y,z
x,x-y,z
-y,-x,z
y,x,z
x-y,-y,z
-x,-x+y,z
loop_
_atom_site_type_symbol
_atom_site_label
_atom_site_fract_x
_atom_site_fract_y
_atom_site_fract_z
Si Si1 0.367058 0.898155 0.248123
Si Si2 0.903057 0.096944 0.565321
Si Si3 0.804992 0.195009 0.435627
Si Si4 0.635544 0.534868 0.629108
Si Si5 0.496877 0.162837 0.062923
Si Si6 0.902748 0.641137 0.152120
O O1 0.434040 0.868080 0.235142
O O2 0.336170 0.872924 0.309086
O O3 0.297548 0.876559 0.203434
O O4 0.421164 0.000000 0.248664
O O5 0.904157 0.095844 0.500000
O O6 0.854221 0.145780 0.580720
O O7 0.000000 0.145872 0.583279
O O8 0.802967 0.197034 0.500000
O O9 0.712119 0.146579 0.411149
O O10 0.559015 0.440986 0.618564
O O11 0.595253 0.595253 0.625451
O O12 0.576494 0.152987 0.077561
O O13 0.519503 0.259752 0.068803
O O14 0.417746 0.109522 0.100915
O O15 0.477675 0.140905 0.000000
O O16 0.836885 0.673771 0.147206
O O17 0.000000 0.711043 0.157399
#
# Coordination Sequence:
#
# PCOD9587839 Si02
#       6
#    24  12  12  24  24  24
#     4   8  15  30  52  75  97 121 153 195 241 291
#     4   9  17  30  49  74 104 134 162 196 243 300
#     4  11  22  33  50  77 102 128 166 211 246 295
#     4   9  19  36  55  73  97 131 166 203 250 297
#     4   9  17  29  46  71 106 144 175 202 238 289
#     4  10  20  32  49  73  99 129 167 211 254 296
#
# _framework density 16.484673999999998
#
# number of rings (size 3 to 8) (size 9 to 14) (size 15 to 20)
#    0.000    2.800    0.000    2.700    1.400    4.400 
#    0.600    2.000    0.000    0.600    0.000    0.000 
#    0.000    0.000    0.000    5.000    0.000    0.000 
#
# Total GULP energy -668850.373503 kJ/mol
# GULP energy per Si atom -5573.753113 kJ/mol
# Density = 1.644715 g / cm^3
# Si number density = 16.484674 Si / 1000 Ang^3
#
#
#
# Elastic Constant Matrix: (Units=GPa)
#
#
# Indices 1 2 3 4 5 6 
#
# 1 86.3527 63.0180 47.1874 0.0000 0.0000 0.0000
# 2 63.0180 86.3527 47.1874 0.0000 0.0000 0.0000
# 3 47.1874 47.1874 63.8365 0.0000 0.0000 0.0000
# 4 0.0000 0.0000 0.0000 20.8457 0.0000 0.0000
# 5 0.0000 0.0000 0.0000 0.0000 20.8457 0.0000
# 6 0.0000 0.0000 0.0000 0.0000 0.0000 11.6673
#
#
#
# Elastic Compliance Matrix: (Units=1/GPa)
#
#
# Indices 1 2 3 4 5 6 
#
# 1 0.027708 -0.015147 -0.009285 0.000000 0.000000 0.000000
# 2 -0.015147 0.027708 -0.009285 0.000000 0.000000 0.000000
# 3 -0.009285 -0.009285 0.029392 0.000000 0.000000 0.000000
# 4 0.000000 0.000000 0.000000 0.047971 0.000000 0.000000
# 5 0.000000 0.000000 0.000000 0.000000 0.047971 0.000000
# 6 0.000000 0.000000 0.000000 0.000000 0.000000 0.085709
#
#
# Mechanical properties :
#
#
# Convention : Reuss Voigt Hill
#
# Bulk Modulus (GPa) = 57.55765 61.25860 59.40813
# Shear Modulus (GPa) = 14.71948 15.94836 15.33392
#
# Velocity S-wave (km/s) = 2.99142 3.11379 3.05321
# Velocity P-wave (km/s) = 6.85004 7.08302 6.96751
#
# Compressibility (1/GPa) = 0.01737389
#
# Stress axis : x y z
#
# Youngs Moduli (GPa) = 36.09068 36.09068 34.02275
#
# Poissons Ratio (x) = 0.54665 0.31591
# Poissons Ratio (y) = 0.54665 0.31591
# Poissons Ratio (z) = 0.33511 0.33511
#
# Static dielectric constant tensor:
#      x y z
#    x 1.546970 0.000000 0.000000 
#    y 0.000000 1.546970 0.000000 
#    z 0.000000 0.000000 1.561420 
# 
# From -- ./inp_files/8631.got.cif
#   From: 2010.05.17/outbox.cif.g08.bks.cpg/sg191_5_cif.got.tgz:8631.got - 2010.05.20 12:20:32.
