data_PCOD9587055
_publ_section_title
;
Structure prediction by ZEFSAII (Michael W. Deem and Ramdas Pophale) SiO2 
 PCOD9587055
Probable space group: P 6/M M M
;
_chemical_formula_sum "Si O2"
_cell_formula_units_Z 168
_cell_length_a 23.673683
_cell_length_b 23.673683
_cell_length_c 20.182295
_cell_angle_alpha 90.000000
_cell_angle_beta 90.000000
_cell_angle_gamma 120.000000
_cell_volume 9795.640484
_symmetry_space_group_name_H-M "P 6/M M M"
_symmetry_group_IT_number 191
_symmetry_cell_setting 'hexagonal'
loop_
_space_group_symop_operation_xyz
x,y,z
x-y,x,z
-y,x-y,z
-x,-y,z
-x+y,-x,z
y,-x+y,z
x-y,-y,-z
-x,-x+y,-z
y,x,-z
-y,-x,-z
-x+y,y,-z
x,x-y,-z
-x,-y,-z
-x+y,-x,-z
y,-x+y,-z
x,y,-z
x-y,x,-z
-y,x-y,-z
-x+y,y,z
x,x-y,z
-y,-x,z
y,x,z
x-y,-y,z
-x,-x+y,z
loop_
_atom_site_type_symbol
_atom_site_label
_atom_site_fract_x
_atom_site_fract_y
_atom_site_fract_z
Si Si1 0.604655 0.077871 0.176919
Si Si2 0.540555 0.835784 0.716813
Si Si3 0.577589 0.853175 0.076108
Si Si4 0.801107 0.728960 0.399842
Si Si5 0.270561 0.073954 0.104689
Si Si6 0.237436 0.309213 0.253778
Si Si7 0.278518 0.420381 0.427899
O O1 0.540557 0.081113 0.158299
O O2 0.639962 0.126350 0.239246
O O3 0.660639 0.109483 0.120999
O O4 0.578545 0.000000 0.187660
O O5 0.516046 0.758023 0.723850
O O6 0.616520 0.872393 0.739387
O O7 0.541624 0.853703 0.639209
O O8 0.560978 0.780489 0.099636
O O9 0.656022 0.896079 0.078359
O O10 0.555897 0.847484 0.000000
O O11 0.869681 0.739361 0.423910
O O12 0.780672 0.780672 0.421427
O O13 0.801171 0.726992 0.319631
O O14 0.744824 0.656024 0.419549
O O15 0.245697 0.122849 0.084958
O O16 0.279193 0.076257 0.184700
O O17 0.226075 0.000000 0.084093
O O18 0.301376 0.301376 0.254566
O O19 0.310388 0.443854 0.500000
O O20 0.210542 0.421084 0.428458
#
# Coordination Sequence:
#
# PCOD9587055 Si02
#       7
#    24  24  24  24  24  24  24
#     4  11  23  36  51  74 105 140 173 201 234 288
#     4  10  17  29  51  74  98 129 165 204 246 290
#     4  10  21  37  57  79 101 126 160 206 258 302
#     4   9  16  24  35  53  80 113 148 189 238 289
#     4  10  18  28  45  69  98 128 162 204 249 296
#     4   9  15  24  41  66  92 117 150 194 245 295
#     4   8  15  27  44  69  96 118 146 191 247 300
#
# _framework density 17.150486999999998
#
# number of rings (size 3 to 8) (size 9 to 14) (size 15 to 20)
#    0.000    2.429    1.429    3.429    0.000    2.286 
#    0.000    0.714    0.000    3.000    0.000    1.000 
#    0.000    3.429    0.000    7.143    0.000    0.000 
#
# Total GULP energy -935543.083748 kJ/mol
# GULP energy per Si atom -5568.708832 kJ/mol
# Density = 1.711145 g / cm^3
# Si number density = 17.150487 Si / 1000 Ang^3
#
#
#
# Elastic Constant Matrix: (Units=GPa)
#
#
# Indices 1 2 3 4 5 6 
#
# 1 74.2565 31.0286 22.9536 0.0000 0.0000 0.0000
# 2 31.0286 74.2565 22.9536 0.0000 0.0000 0.0000
# 3 22.9536 22.9536 100.3363 0.0000 0.0000 0.0000
# 4 0.0000 0.0000 0.0000 -1.1281 0.0000 0.0000
# 5 0.0000 0.0000 0.0000 0.0000 -1.1281 0.0000
# 6 0.0000 0.0000 0.0000 0.0000 0.0000 21.6140
#
#
#
# Elastic Compliance Matrix: (Units=1/GPa)
#
#
# Indices 1 2 3 4 5 6 
#
# 1 0.016842 -0.006291 -0.002414 0.000000 0.000000 0.000000
# 2 -0.006291 0.016842 -0.002414 0.000000 0.000000 0.000000
# 3 -0.002414 -0.002414 0.011071 0.000000 0.000000 0.000000
# 4 0.000000 0.000000 0.000000 -0.886466 0.000000 0.000000
# 5 0.000000 0.000000 0.000000 0.000000 -0.886466 0.000000
# 6 0.000000 0.000000 0.000000 0.000000 0.000000 0.046266
#
#
# Mechanical properties :
#
#
# Convention : Reuss Voigt Hill
#
# Bulk Modulus (GPa) = 44.41034 44.74675 44.57854
# Shear Modulus (GPa) = -3.02633 15.33247 6.15307
#
# Velocity S-wave (km/s) = -1.32981 2.99322 1.89618
# Velocity P-wave (km/s) = 4.85725 6.17196 5.55365
#
# Compressibility (1/GPa) = 0.02251728
#
# Stress axis : x y z
#
# Youngs Moduli (GPa) = 59.37607 59.37607 90.32789
#
# Poissons Ratio (x) = 0.37356 0.21801
# Poissons Ratio (y) = 0.37356 0.21801
# Poissons Ratio (z) = 0.14331 0.14331
#
# Static dielectric constant tensor:
#      x y z
#    x 1.578550 0.000000 0.000000 
#    y 0.000000 1.578550 0.000000 
#    z 0.000000 0.000000 1.657800 
# 
# From -- ./inp_files/7959.got.cif
#   From: 2010.05.17/outbox.cif.g08.bks.cpg/sg191_4_cif.got.tgz:7959.got - 2010.05.20 12:20:32.
