data_PCOD9587241
_publ_section_title
;
Structure prediction by ZEFSAII (Michael W. Deem and Ramdas Pophale) SiO2 
 PCOD9587241
Probable space group: P 6/M M M
;
_chemical_formula_sum "Si O2"
_cell_formula_units_Z 144
_cell_length_a 21.774353
_cell_length_b 21.774353
_cell_length_c 21.892951
_cell_angle_alpha 90.000000
_cell_angle_beta 90.000000
_cell_angle_gamma 120.000000
_cell_volume 8989.291327
_symmetry_space_group_name_H-M "P 6/M M M"
_symmetry_group_IT_number 191
_symmetry_cell_setting 'hexagonal'
loop_
_space_group_symop_operation_xyz
x,y,z
x-y,x,z
-y,x-y,z
-x,-y,z
-x+y,-x,z
y,-x+y,z
x-y,-y,-z
-x,-x+y,-z
y,x,-z
-y,-x,-z
-x+y,y,-z
x,x-y,-z
-x,-y,-z
-x+y,-x,-z
y,-x+y,-z
x,y,-z
x-y,x,-z
-y,x-y,-z
-x+y,y,z
x,x-y,z
-y,-x,z
y,x,z
x-y,-y,z
-x,-x+y,z
loop_
_atom_site_type_symbol
_atom_site_label
_atom_site_fract_x
_atom_site_fract_y
_atom_site_fract_z
Si Si1 0.541137 0.082274 0.926691
Si Si2 0.598213 0.726396 0.762022
Si Si3 0.300634 0.221678 0.647305
Si Si4 0.591857 0.917406 0.103839
Si Si5 0.343400 0.425424 0.427998
Si Si6 0.811052 0.475803 0.330347
Si Si7 0.913290 0.226155 0.000000
O O1 0.622765 0.115212 0.906172
O O2 0.500000 0.000000 0.904317
O O3 0.540654 0.081308 0.000000
O O4 0.595264 0.797632 0.774270
O O5 0.660122 0.747487 0.712300
O O6 0.606384 0.697075 0.825938
O O7 0.526026 0.672727 0.726753
O O8 0.283318 0.141659 0.642309
O O9 0.235681 0.235681 0.641754
O O10 0.359062 0.270210 0.596852
O O11 0.625964 0.000000 0.087688
O O12 0.634643 0.894509 0.058336
O O13 0.340392 0.435603 0.500000
O O14 0.402986 0.402986 0.416462
O O15 0.354003 0.491523 0.388512
O O16 0.741194 0.482388 0.339491
O O17 0.791818 0.395909 0.320207
O O18 0.858865 0.141136 0.000000
O O19 0.000000 0.256577 0.000000
#
# Coordination Sequence:
#
# PCOD9587241 Si02
#       7
#    12  24  24  24  24  24  12
#     4   9  16  28  42  64  96 126 151 179 227 285
#     4   9  18  31  47  67  90 119 159 200 236 272
#     4   9  17  30  48  70  96 124 155 192 235 284
#     4  10  18  29  47  70  98 126 154 193 240 288
#     4   9  18  33  52  72  93 117 148 193 245 286
#     4  10  21  35  49  66  92 127 163 195 230 278
#     4  10  20  33  51  74 101 131 165 207 252 300
#
# _framework density 16.019061000000001
#
# number of rings (size 3 to 8) (size 9 to 14) (size 15 to 20)
#    0.000    2.583    0.833    2.667    1.167    2.667 
#    0.000    0.833    0.000    1.250    0.000    0.000 
#    5.833    0.000    0.000    9.500    0.000    0.000 
#
# Total GULP energy -801902.966173 kJ/mol
# GULP energy per Si atom -5568.770598 kJ/mol
# Density = 1.598260 g / cm^3
# Si number density = 16.019061 Si / 1000 Ang^3
#
#
#
# Elastic Constant Matrix: (Units=GPa)
#
#
# Indices 1 2 3 4 5 6 
#
# 1 55.8559 23.7959 8.5892 0.0000 0.0000 0.0000
# 2 23.7959 55.8559 8.5892 0.0000 0.0000 0.0000
# 3 8.5892 8.5892 56.0318 0.0000 0.0000 0.0000
# 4 0.0000 0.0000 0.0000 3.8925 0.0000 0.0000
# 5 0.0000 0.0000 0.0000 0.0000 3.8925 0.0000
# 6 0.0000 0.0000 0.0000 0.0000 0.0000 16.0300
#
#
#
# Elastic Compliance Matrix: (Units=1/GPa)
#
#
# Indices 1 2 3 4 5 6 
#
# 1 0.022088 -0.009104 -0.001990 0.000000 0.000000 0.000000
# 2 -0.009104 0.022088 -0.001990 0.000000 0.000000 0.000000
# 3 -0.001990 -0.001990 0.018457 0.000000 0.000000 0.000000
# 4 0.000000 0.000000 0.000000 0.256907 0.000000 0.000000
# 5 0.000000 0.000000 0.000000 0.000000 0.256907 0.000000
# 6 0.000000 0.000000 0.000000 0.000000 0.000000 0.062383
#
#
# Mechanical properties :
#
#
# Convention : Reuss Voigt Hill
#
# Bulk Modulus (GPa) = 27.42455 27.74359 27.58407
# Shear Modulus (GPa) = 7.38386 13.21426 10.29906
#
# Velocity S-wave (km/s) = 2.14928 2.87524 2.53835
# Velocity P-wave (km/s) = 4.82870 5.32723 5.08408
#
# Compressibility (1/GPa) = 0.03646369
#
# Stress axis : x y z
#
# Youngs Moduli (GPa) = 45.27402 45.27402 54.17940
#
# Poissons Ratio (x) = 0.41217 0.10783
# Poissons Ratio (y) = 0.41217 0.10783
# Poissons Ratio (z) = 0.09011 0.09011
#
# Static dielectric constant tensor:
#      x y z
#    x 1.546740 0.000000 0.000000 
#    y 0.000000 1.546740 0.000000 
#    z 0.000000 0.000000 1.525020 
# 
# From -- ./inp_files/7639.got.cif
#   From: 2010.05.17/outbox.cif.g08.bks.cpg/sg191_4_cif.got.tgz:7639.got - 2010.05.20 12:20:32.
