data_PCOD9587842
_publ_section_title
;
Structure prediction by ZEFSAII (Michael W. Deem and Ramdas Pophale) SiO2 
 PCOD9587842
Probable space group: P 6/M M M
;
_chemical_formula_sum "Si O2"
_cell_formula_units_Z 126
_cell_length_a 29.948282
_cell_length_b 29.948282
_cell_length_c 7.321778
_cell_angle_alpha 90.000000
_cell_angle_beta 90.000000
_cell_angle_gamma 120.000000
_cell_volume 5687.101983
_symmetry_space_group_name_H-M "P 6/M M M"
_symmetry_group_IT_number 191
_symmetry_cell_setting 'hexagonal'
loop_
_space_group_symop_operation_xyz
x,y,z
x-y,x,z
-y,x-y,z
-x,-y,z
-x+y,-x,z
y,-x+y,z
x-y,-y,-z
-x,-x+y,-z
y,x,-z
-y,-x,-z
-x+y,y,-z
x,x-y,-z
-x,-y,-z
-x+y,-x,-z
y,-x+y,-z
x,y,-z
x-y,x,-z
-y,x-y,-z
-x+y,y,z
x,x-y,z
-y,-x,z
y,x,z
x-y,-y,z
-x,-x+y,z
loop_
_atom_site_type_symbol
_atom_site_label
_atom_site_fract_x
_atom_site_fract_y
_atom_site_fract_z
Si Si1 0.799805 0.301366 0.780015
Si Si2 0.634511 0.365490 0.500000
Si Si3 0.406611 0.306853 0.709449
Si Si4 0.591891 0.183781 0.782258
Si Si5 0.102765 0.308826 0.719044
Si Si6 0.942047 0.160627 0.000000
Si Si7 0.518173 0.579131 0.720395
O O1 0.741834 0.258167 0.726151
O O2 0.838824 0.283005 0.714966
O O3 0.826967 0.362000 0.718754
O O4 0.799933 0.302927 0.000000
O O5 0.610598 0.305299 0.500000
O O6 0.620180 0.379821 0.690748
O O7 0.397176 0.315942 0.500000
O O8 0.352176 0.262966 0.782952
O O9 0.442229 0.363834 0.792371
O O10 0.591726 0.183452 0.000000
O O11 0.095867 0.303296 0.500000
O O12 0.162422 0.324843 0.756781
O O13 0.069241 0.255968 0.826046
O O14 0.899075 0.100926 0.000000
O O15 0.000000 0.173298 0.000000
O O16 0.514824 0.581895 0.500000
O O17 0.457744 0.542257 0.783609
O O18 0.546081 0.546081 0.758126
#
# Coordination Sequence:
#
# PCOD9587842 Si02
#       7
#    24   6  24  12  24  12  24
#     4  10  22  37  53  71  95 135 176 220 286 355
#     4  10  22  34  54  78  86 120 169 218 292 364
#     4  10  20  32  54  82 106 138 179 237 297 356
#     4  10  22  40  54  70 101 133 173 228 288 358
#     4   9  19  36  57  86 124 165 209 255 310 361
#     4  10  22  40  66  99 137 179 215 255 297 341
#     4   8  15  29  48  70  98 131 168 213 276 349
#
# _framework density 22.155396
#
# number of rings (size 3 to 8) (size 9 to 14) (size 15 to 20)
#    0.095    2.476    0.000    1.714    4.000    3.429 
#    0.571    1.905    0.000    0.095    0.000    1.333 
#    0.000    0.000    0.000    4.762    0.000    0.000 
#
# Total GULP energy -701970.732306 kJ/mol
# GULP energy per Si atom -5571.196288 kJ/mol
# Density = 2.210497 g / cm^3
# Si number density = 22.155396 Si / 1000 Ang^3
#
#
#
# Elastic Constant Matrix: (Units=GPa)
#
#
# Indices 1 2 3 4 5 6 
#
# 1 92.3222 67.2077 15.6089 0.0000 0.0000 0.0000
# 2 67.2077 92.3222 15.6089 0.0000 0.0000 0.0000
# 3 15.6089 15.6089 83.9164 0.0000 0.0000 0.0000
# 4 0.0000 0.0000 0.0000 -0.3256 0.0000 0.0000
# 5 0.0000 0.0000 0.0000 0.0000 -0.3256 0.0000
# 6 0.0000 0.0000 0.0000 0.0000 0.0000 12.5573
#
#
#
# Elastic Compliance Matrix: (Units=1/GPa)
#
#
# Indices 1 2 3 4 5 6 
#
# 1 0.023161 -0.016656 -0.001210 0.000000 0.000000 0.000000
# 2 -0.016656 0.023161 -0.001210 0.000000 0.000000 0.000000
# 3 -0.001210 -0.001210 0.012367 0.000000 0.000000 0.000000
# 4 0.000000 0.000000 0.000000 -3.071623 0.000000 0.000000
# 5 0.000000 0.000000 0.000000 0.000000 -3.071623 0.000000
# 6 0.000000 0.000000 0.000000 0.000000 0.000000 0.079635
#
#
# Mechanical properties :
#
#
# Convention : Reuss Voigt Hill
#
# Bulk Modulus (GPa) = 48.69226 51.71242 50.20234
# Shear Modulus (GPa) = -0.83894 13.72358 6.44232
#
# Velocity S-wave (km/s) = -0.61602 2.49152 1.70707
# Velocity P-wave (km/s) = 4.63889 5.62747 5.15692
#
# Compressibility (1/GPa) = 0.02053715
#
# Stress axis : x y z
#
# Youngs Moduli (GPa) = 43.17528 43.17528 80.86197
#
# Poissons Ratio (x) = 0.71914 0.09784
# Poissons Ratio (y) = 0.71914 0.09784
# Poissons Ratio (z) = 0.05224 0.05224
#
# Static dielectric constant tensor:
#      x y z
#    x 1.882760 0.000000 0.000000 
#    y 0.000000 1.882760 0.000000 
#    z 0.000000 0.000000 1.780440 
# 
# From -- ./inp_files/1871.got.cif
#   From: 2010.05.17/outbox.cif.g08.bks.cpg/sg191_1_cif.got.tgz:1871.got - 2010.05.20 12:20:32.
