data_PCOD9587211
_publ_section_title
;
Structure prediction by ZEFSAII (Michael W. Deem and Ramdas Pophale) SiO2 
 PCOD9587211
Probable space group: P 6/M M M
;
_chemical_formula_sum "Si O2"
_cell_formula_units_Z 108
_cell_length_a 18.500491
_cell_length_b 18.500491
_cell_length_c 24.918942
_cell_angle_alpha 90.000000
_cell_angle_beta 90.000000
_cell_angle_gamma 120.000000
_cell_volume 7386.296554
_symmetry_space_group_name_H-M "P 6/M M M"
_symmetry_group_IT_number 191
_symmetry_cell_setting 'hexagonal'
loop_
_space_group_symop_operation_xyz
x,y,z
x-y,x,z
-y,x-y,z
-x,-y,z
-x+y,-x,z
y,-x+y,z
x-y,-y,-z
-x,-x+y,-z
y,x,-z
-y,-x,-z
-x+y,y,-z
x,x-y,-z
-x,-y,-z
-x+y,-x,-z
y,-x+y,-z
x,y,-z
x-y,x,-z
-y,x-y,-z
-x+y,y,z
x,x-y,z
-y,-x,z
y,x,z
x-y,-y,z
-x,-x+y,z
loop_
_atom_site_type_symbol
_atom_site_label
_atom_site_fract_x
_atom_site_fract_y
_atom_site_fract_z
Si Si1 0.101279 0.468728 0.560855
Si Si2 0.164941 0.668504 0.873788
Si Si3 0.587834 0.587834 0.938221
Si Si4 0.368159 0.900774 0.244987
Si Si5 0.739781 0.640564 0.343415
O O1 0.128597 0.465353 0.500000
O O2 0.129256 0.564628 0.574192
O O3 0.122400 0.420453 0.605251
O O4 0.000000 0.420290 0.560273
O O5 0.176747 0.588374 0.882317
O O6 0.247153 0.752848 0.889411
O O7 0.146308 0.669296 0.810540
O O8 0.083566 0.651623 0.906978
O O9 0.500000 0.500000 0.937489
O O10 0.611288 0.611288 0.000000
O O11 0.440652 0.881304 0.263228
O O12 0.302598 0.885305 0.291297
O O13 0.416344 0.000000 0.233109
O O14 0.838576 0.677152 0.341786
O O15 0.706848 0.706848 0.345595
#
# Coordination Sequence:
#
# PCOD9587211 Si02
#       5
#    24  24  12  24  24
#     4   8  14  26  44  64  84 107 137 173 214 262
#     4  10  18  29  45  66  90 117 149 184 219 257
#     4   9  18  32  46  60  84 118 150 180 216 254
#     4   9  16  28  46  66  87 112 141 173 215 267
#     4  10  19  29  43  64  88 115 149 189 228 265
#
# _framework density 14.621670999999999
#
# number of rings (size 3 to 8) (size 9 to 14) (size 15 to 20)
#    0.000    2.778    1.111    2.222    0.000    3.556 
#    0.000    0.000    0.000    6.444    0.000    0.000 
#    0.000    0.000    0.000    5.889    0.000    1.444 
#
# Total GULP energy -601483.465074 kJ/mol
# GULP energy per Si atom -5569.291343 kJ/mol
# Density = 1.458839 g / cm^3
# Si number density = 14.621671 Si / 1000 Ang^3
#
#
#
# Elastic Constant Matrix: (Units=GPa)
#
#
# Indices 1 2 3 4 5 6 
#
# 1 81.9213 42.3895 42.6927 0.0000 0.0000 0.0000
# 2 42.3895 81.9213 42.6927 0.0000 0.0000 0.0000
# 3 42.6927 42.6927 70.7038 0.0000 0.0000 0.0000
# 4 0.0000 0.0000 0.0000 5.3667 0.0000 0.0000
# 5 0.0000 0.0000 0.0000 0.0000 5.3667 0.0000
# 6 0.0000 0.0000 0.0000 0.0000 0.0000 19.7659
#
#
#
# Elastic Compliance Matrix: (Units=1/GPa)
#
#
# Indices 1 2 3 4 5 6 
#
# 1 0.019521 -0.005775 -0.008300 0.000000 0.000000 0.000000
# 2 -0.005775 0.019521 -0.008300 0.000000 0.000000 0.000000
# 3 -0.008300 -0.008300 0.024167 0.000000 0.000000 0.000000
# 4 0.000000 0.000000 0.000000 0.186334 0.000000 0.000000
# 5 0.000000 0.000000 0.000000 0.000000 0.186334 0.000000
# 6 0.000000 0.000000 0.000000 0.000000 0.000000 0.050592
#
#
# Mechanical properties :
#
#
# Convention : Reuss Voigt Hill
#
# Bulk Modulus (GPa) = 54.17632 54.45512 54.31572
# Shear Modulus (GPa) = 9.30456 13.21796 11.26126
#
# Velocity S-wave (km/s) = 2.52534 3.00992 2.77822
# Velocity P-wave (km/s) = 6.75542 7.02873 6.89343
#
# Compressibility (1/GPa) = 0.01845825
#
# Stress axis : x y z
#
# Youngs Moduli (GPa) = 51.22792 51.22792 41.37946
#
# Poissons Ratio (x) = 0.29587 0.34344
# Poissons Ratio (y) = 0.29587 0.34344
# Poissons Ratio (z) = 0.42517 0.42517
#
# Static dielectric constant tensor:
#      x y z
#    x 1.475730 0.000000 0.000000 
#    y 0.000000 1.475730 0.000000 
#    z 0.000000 0.000000 1.495270 
# 
# From -- ./inp_files/8351.got.cif
#   From: 2010.05.17/outbox.cif.g08.bks.cpg/sg191_5_cif.got.tgz:8351.got - 2010.05.20 12:20:32.
