data_PCOD9587530
_publ_section_title
;
Structure prediction by ZEFSAII (Michael W. Deem and Ramdas Pophale) SiO2 
 PCOD9587530
Probable space group: P 6/M M M
;
_chemical_formula_sum "Si O2"
_cell_formula_units_Z 168
_cell_length_a 22.593521
_cell_length_b 22.593521
_cell_length_c 26.567300
_cell_angle_alpha 90.000000
_cell_angle_beta 90.000000
_cell_angle_gamma 120.000000
_cell_volume 11744.807036
_symmetry_space_group_name_H-M "P 6/M M M"
_symmetry_group_IT_number 191
_symmetry_cell_setting 'hexagonal'
loop_
_space_group_symop_operation_xyz
x,y,z
x-y,x,z
-y,x-y,z
-x,-y,z
-x+y,-x,z
y,-x+y,z
x-y,-y,-z
-x,-x+y,-z
y,x,-z
-y,-x,-z
-x+y,y,-z
x,x-y,-z
-x,-y,-z
-x+y,-x,-z
y,-x+y,-z
x,y,-z
x-y,x,-z
-y,x-y,-z
-x+y,y,z
x,x-y,z
-y,-x,z
y,x,z
x-y,-y,z
-x,-x+y,z
loop_
_atom_site_type_symbol
_atom_site_label
_atom_site_fract_x
_atom_site_fract_y
_atom_site_fract_z
Si Si1 0.077626 0.289716 0.945703
Si Si2 0.528816 0.333654 0.708989
Si Si3 0.079772 0.297484 0.834192
Si Si4 0.804783 0.471124 0.412819
Si Si5 0.618540 0.920882 0.442955
Si Si6 0.616968 0.920590 0.741085
Si Si7 0.079087 0.786869 0.648318
O O1 0.132394 0.264787 0.945290
O O2 0.087099 0.325381 0.891636
O O3 0.000000 0.229329 0.945441
O O4 0.087575 0.326587 0.000000
O O5 0.531108 0.265554 0.722578
O O6 0.598461 0.401540 0.723298
O O7 0.523304 0.333794 0.648072
O O8 0.462182 0.330384 0.732569
O O9 0.138203 0.276406 0.827801
O O10 0.091614 0.353640 0.792691
O O11 0.000000 0.237858 0.828255
O O12 0.734014 0.468027 0.426949
O O13 0.804180 0.402090 0.427718
O O14 0.868292 0.539044 0.434698
O O15 0.637344 0.913680 0.500000
O O16 0.662173 0.907551 0.401606
O O17 0.638888 0.000000 0.435953
O O18 0.658702 0.910652 0.695557
O O19 0.637516 0.000000 0.739534
O O20 0.133744 0.866257 0.651380
O O21 0.000000 0.766295 0.648188
#
# Coordination Sequence:
#
# PCOD9587530 Si02
#       7
#    24  24  24  24  24  24  24
#     4   8  13  21  33  50  74 105 139 173 210 252
#     4  10  19  31  47  66  90 118 147 176 208 250
#     4   9  16  25  39  59  83 111 143 180 219 258
#     4  10  20  33  49  67  88 115 145 175 207 247
#     4  10  21  35  50  68  87 109 140 179 220 256
#     4  10  19  30  46  68  90 112 141 178 217 254
#     4  10  19  32  49  68  89 112 139 172 212 257
#
# _framework density 14.304194000000001
#
# number of rings (size 3 to 8) (size 9 to 14) (size 15 to 20)
#    0.000    2.429    1.429    2.000    0.000    3.143 
#    0.000    2.143    0.000    1.286    0.000    3.000 
#    0.000    4.000    0.000    9.571    0.000    6.286 
#
# Total GULP energy -935250.164346 kJ/mol
# GULP energy per Si atom -5566.965264 kJ/mol
# Density = 1.427164 g / cm^3
# Si number density = 14.304194 Si / 1000 Ang^3
#
#
#
# Elastic Constant Matrix: (Units=GPa)
#
#
# Indices 1 2 3 4 5 6 
#
# 1 76.3602 60.3227 37.2107 0.0000 0.0000 0.0000
# 2 60.3227 76.3602 37.2107 0.0000 0.0000 0.0000
# 3 37.2107 37.2107 91.4486 0.0000 0.0000 0.0000
# 4 0.0000 0.0000 0.0000 15.6241 0.0000 0.0000
# 5 0.0000 0.0000 0.0000 0.0000 15.6241 0.0000
# 6 0.0000 0.0000 0.0000 0.0000 0.0000 8.0187
#
#
#
# Elastic Compliance Matrix: (Units=1/GPa)
#
#
# Indices 1 2 3 4 5 6 
#
# 1 0.035876 -0.026478 -0.003824 0.000000 0.000000 0.000000
# 2 -0.026478 0.035876 -0.003824 0.000000 0.000000 0.000000
# 3 -0.003824 -0.003824 0.014047 0.000000 0.000000 0.000000
# 4 0.000000 0.000000 0.000000 0.064004 0.000000 0.000000
# 5 0.000000 0.000000 0.000000 0.000000 0.064004 0.000000
# 6 0.000000 0.000000 0.000000 0.000000 0.000000 0.124708
#
#
# Mechanical properties :
#
#
# Convention : Reuss Voigt Hill
#
# Bulk Modulus (GPa) = 56.98926 57.07305 57.03116
# Shear Modulus (GPa) = 12.11779 15.14838 13.63308
#
# Velocity S-wave (km/s) = 2.91374 3.25778 3.09055
# Velocity P-wave (km/s) = 7.15872 7.35779 7.25894
#
# Compressibility (1/GPa) = 0.01754717
#
# Stress axis : x y z
#
# Youngs Moduli (GPa) = 27.87363 27.87363 71.18800
#
# Poissons Ratio (x) = 0.73803 0.27224
# Poissons Ratio (y) = 0.73803 0.27224
# Poissons Ratio (z) = 0.10660 0.10660
#
# Static dielectric constant tensor:
#      x y z
#    x 1.456200 0.000000 0.000000 
#    y 0.000000 1.456200 0.000000 
#    z 0.000000 0.000000 1.509350 
# 
# From -- ./inp_files/8981.got.cif
#   From: 2010.05.17/outbox.cif.g08.bks.cpg/sg191_5_cif.got.tgz:8981.got - 2010.05.20 12:20:32.
