data_PCOD9587443
_publ_section_title
;
Structure prediction by ZEFSAII (Michael W. Deem and Ramdas Pophale) SiO2 
 PCOD9587443
Probable space group: P 6/M M M
;
_chemical_formula_sum "Si O2"
_cell_formula_units_Z 168
_cell_length_a 18.296692
_cell_length_b 18.296692
_cell_length_c 36.280876
_cell_angle_alpha 90.000000
_cell_angle_beta 90.000000
_cell_angle_gamma 120.000000
_cell_volume 10518.493696
_symmetry_space_group_name_H-M "P 6/M M M"
_symmetry_group_IT_number 191
_symmetry_cell_setting 'hexagonal'
loop_
_space_group_symop_operation_xyz
x,y,z
x-y,x,z
-y,x-y,z
-x,-y,z
-x+y,-x,z
y,-x+y,z
x-y,-y,-z
-x,-x+y,-z
y,x,-z
-y,-x,-z
-x+y,y,-z
x,x-y,-z
-x,-y,-z
-x+y,-x,-z
y,-x+y,-z
x,y,-z
x-y,x,-z
-y,x-y,-z
-x+y,y,z
x,x-y,z
-y,-x,z
y,x,z
x-y,-y,z
-x,-x+y,z
loop_
_atom_site_type_symbol
_atom_site_label
_atom_site_fract_x
_atom_site_fract_y
_atom_site_fract_z
Si Si1 0.636081 0.734297 0.106611
Si Si2 0.905733 0.261725 0.457994
Si Si3 0.101816 0.467741 0.175755
Si Si4 0.496290 0.333965 0.043127
Si Si5 0.100948 0.734447 0.753973
Si Si6 0.503328 0.667929 0.602430
Si Si7 0.533216 0.898991 0.683329
O O1 0.667649 0.833825 0.106212
O O2 0.706434 0.706434 0.111267
O O3 0.568485 0.692158 0.139801
O O4 0.583265 0.693261 0.069365
O O5 0.896407 0.285855 0.500000
O O6 0.834955 0.165046 0.452949
O O7 0.888240 0.314196 0.427630
O O8 0.000000 0.280183 0.454115
O O9 0.135419 0.567710 0.175741
O O10 0.121990 0.431477 0.212188
O O11 0.000000 0.422523 0.175379
O O12 0.520086 0.260043 0.046870
O O13 0.575838 0.424163 0.053364
O O14 0.476918 0.337089 0.000000
O O15 0.165395 0.834606 0.755832
O O16 0.118299 0.697891 0.716574
O O17 0.000000 0.701090 0.755593
O O18 0.476659 0.738330 0.596495
O O19 0.424883 0.575117 0.598433
O O20 0.535807 0.675826 0.644248
O O21 0.435900 0.871799 0.692003
O O22 0.582079 0.000000 0.678738
#
# Coordination Sequence:
#
# PCOD9587443 Si02
#       7
#    24  24  24  24  24  24  24
#     4  10  20  33  49  69  93 122 157 196 236 276
#     4   9  18  32  49  68  89 114 145 182 224 268
#     4   9  17  30  49  71  93 117 145 178 218 266
#     4   9  17  29  46  69  97 127 156 186 223 270
#     4  10  19  31  48  69  93 122 157 195 233 273
#     4  10  19  30  44  64  92 124 156 188 222 260
#     4   9  17  29  46  67  89 115 149 189 231 274
#
# _framework density 15.971869
#
# number of rings (size 3 to 8) (size 9 to 14) (size 15 to 20)
#    0.000    2.571    0.000    2.429    0.000    4.571 
#    0.000    1.429    0.000    8.143    0.000    1.000 
#    0.000    3.429    0.000    8.143    0.000    3.143 
#
# Total GULP energy -936005.890818 kJ/mol
# GULP energy per Si atom -5571.463636 kJ/mol
# Density = 1.593552 g / cm^3
# Si number density = 15.971869 Si / 1000 Ang^3
#
#
#
# Elastic Constant Matrix: (Units=GPa)
#
#
# Indices 1 2 3 4 5 6 
#
# 1 74.9368 49.6608 41.8698 0.0000 0.0000 0.0000
# 2 49.6608 74.9368 41.8698 0.0000 0.0000 0.0000
# 3 41.8698 41.8698 78.6312 0.0000 0.0000 0.0000
# 4 0.0000 0.0000 0.0000 19.2638 0.0000 0.0000
# 5 0.0000 0.0000 0.0000 0.0000 19.2638 0.0000
# 6 0.0000 0.0000 0.0000 0.0000 0.0000 12.6380
#
#
#
# Elastic Compliance Matrix: (Units=1/GPa)
#
#
# Indices 1 2 3 4 5 6 
#
# 1 0.026031 -0.013532 -0.006655 0.000000 0.000000 0.000000
# 2 -0.013532 0.026031 -0.006655 0.000000 0.000000 0.000000
# 3 -0.006655 -0.006655 0.019805 0.000000 0.000000 0.000000
# 4 0.000000 0.000000 0.000000 0.051911 0.000000 0.000000
# 5 0.000000 0.000000 0.000000 0.000000 0.051911 0.000000
# 6 0.000000 0.000000 0.000000 0.000000 0.000000 0.079127
#
#
# Mechanical properties :
#
#
# Convention : Reuss Voigt Hill
#
# Bulk Modulus (GPa) = 55.00134 55.03394 55.01764
# Shear Modulus (GPa) = 15.89510 16.57341 16.23425
#
# Velocity S-wave (km/s) = 3.15809 3.22477 3.19161
# Velocity P-wave (km/s) = 6.91442 6.95680 6.93564
#
# Compressibility (1/GPa) = 0.01818138
#
# Stress axis : x y z
#
# Youngs Moduli (GPa) = 38.41564 38.41564 50.49142
#
# Poissons Ratio (x) = 0.51985 0.33604
# Poissons Ratio (y) = 0.51985 0.33604
# Poissons Ratio (z) = 0.25567 0.25567
#
# Static dielectric constant tensor:
#      x y z
#    x 1.528660 0.000000 0.000000 
#    y 0.000000 1.528660 0.000000 
#    z 0.000000 0.000000 1.546400 
# 
# From -- ./inp_files/10746.got.cif
#   From: 2010.05.17/outbox.cif.g08.bks.cpg/sg191_6_cif.got.tgz:10746.got - 2010.05.20 12:20:32.
