data_PCOD9587683
_publ_section_title
;
Structure prediction by ZEFSAII (Michael W. Deem and Ramdas Pophale) SiO2 
 PCOD9587683
Probable space group: P 6/M M M
;
_chemical_formula_sum "Si O2"
_cell_formula_units_Z 168
_cell_length_a 27.726522
_cell_length_b 27.726522
_cell_length_c 15.267026
_cell_angle_alpha 90.000000
_cell_angle_beta 90.000000
_cell_angle_gamma 120.000000
_cell_volume 10164.262384
_symmetry_space_group_name_H-M "P 6/M M M"
_symmetry_group_IT_number 191
_symmetry_cell_setting 'hexagonal'
loop_
_space_group_symop_operation_xyz
x,y,z
x-y,x,z
-y,x-y,z
-x,-y,z
-x+y,-x,z
y,-x+y,z
x-y,-y,-z
-x,-x+y,-z
y,x,-z
-y,-x,-z
-x+y,y,-z
x,x-y,-z
-x,-y,-z
-x+y,-x,-z
y,-x+y,-z
x,y,-z
x-y,x,-z
-y,x-y,-z
-x+y,y,z
x,x-y,z
-y,-x,z
y,x,z
x-y,-y,z
-x,-x+y,z
loop_
_atom_site_type_symbol
_atom_site_label
_atom_site_fract_x
_atom_site_fract_y
_atom_site_fract_z
Si Si1 0.650521 0.883776 0.601496
Si Si2 0.293048 0.471385 0.335081
Si Si3 0.223172 0.665826 0.000000
Si Si4 0.226538 0.293814 0.900693
Si Si5 0.937340 0.334400 0.894628
Si Si6 0.241592 0.065453 0.280795
Si Si7 0.516115 0.371478 0.830714
Si Si8 0.780853 0.332815 0.500000
O O1 0.655182 0.902262 0.500000
O O2 0.647761 0.823880 0.599542
O O3 0.591532 0.870704 0.643017
O O4 0.705079 0.922432 0.659199
O O5 0.233770 0.467540 0.320263
O O6 0.332040 0.500386 0.252779
O O7 0.321454 0.512162 0.417025
O O8 0.186009 0.652101 0.086548
O O9 0.271440 0.728561 0.000000
O O10 0.246906 0.623453 0.000000
O O11 0.265176 0.265176 0.906285
O O12 0.268429 0.358519 0.876310
O O13 0.186300 0.262979 0.820120
O O14 0.204403 0.290138 0.000000
O O15 0.908143 0.366530 0.858165
O O16 0.000000 0.364177 0.860615
O O17 0.938440 0.337838 0.000000
O O18 0.224828 0.112414 0.303669
O O19 0.195147 0.000000 0.289158
O O20 0.566708 0.433293 0.813567
O O21 0.716000 0.284001 0.500000
O O22 0.785966 0.392983 0.500000
#
# Coordination Sequence:
#
# PCOD9587683 Si02
#       8
#    24  24  12  24  24  24  24  12
#     4   9  17  32  53  76  99 126 162 206 259 317
#     4  10  19  33  52  72  98 130 166 212 264 311
#     4  10  21  36  49  63  89 127 169 211 255 302
#     4   8  15  29  49  72 101 137 173 209 250 297
#     4   9  17  31  50  70  97 130 161 198 247 302
#     4  10  20  33  52  79 111 143 176 215 255 300
#     4  11  21  32  47  71  98 128 168 210 251 304
#     4  10  19  32  50  74 101 133 170 215 266 316
#
# _framework density 16.528499
#
# number of rings (size 3 to 8) (size 9 to 14) (size 15 to 20)
#    0.000    2.429    1.429    2.714    0.000    0.857 
#    0.000    1.429    0.000    4.714    0.000    0.000 
#    0.000    2.286    0.000    7.143    0.000    0.000 
#
# Total GULP energy -935657.009548 kJ/mol
# GULP energy per Si atom -5569.386962 kJ/mol
# Density = 1.649088 g / cm^3
# Si number density = 16.528499 Si / 1000 Ang^3
#
#
#
# Elastic Constant Matrix: (Units=GPa)
#
#
# Indices 1 2 3 4 5 6 
#
# 1 79.8675 42.2686 25.4854 0.0000 0.0000 0.0000
# 2 42.2686 79.8675 25.4854 0.0000 0.0000 0.0000
# 3 25.4854 25.4854 73.5374 0.0000 0.0000 0.0000
# 4 0.0000 0.0000 0.0000 24.5413 0.0000 0.0000
# 5 0.0000 0.0000 0.0000 0.0000 24.5413 0.0000
# 6 0.0000 0.0000 0.0000 0.0000 0.0000 18.7994
#
#
#
# Elastic Compliance Matrix: (Units=1/GPa)
#
#
# Indices 1 2 3 4 5 6 
#
# 1 0.018084 -0.008512 -0.003317 0.000000 0.000000 0.000000
# 2 -0.008512 0.018084 -0.003317 0.000000 0.000000 0.000000
# 3 -0.003317 -0.003317 0.015898 0.000000 0.000000 0.000000
# 4 0.000000 0.000000 0.000000 0.040748 0.000000 0.000000
# 5 0.000000 0.000000 0.000000 0.000000 0.040748 0.000000
# 6 0.000000 0.000000 0.000000 0.000000 0.000000 0.053193
#
#
# Mechanical properties :
#
#
# Convention : Reuss Voigt Hill
#
# Bulk Modulus (GPa) = 45.92931 46.63903 46.28417
# Shear Modulus (GPa) = 22.29096 22.91193 22.60144
#
# Velocity S-wave (km/s) = 3.67636 3.72722 3.70188
# Velocity P-wave (km/s) = 6.77268 6.84116 6.80701
#
# Compressibility (1/GPa) = 0.02177259
#
# Stress axis : x y z
#
# Youngs Moduli (GPa) = 55.29666 55.29666 62.90161
#
# Poissons Ratio (x) = 0.47070 0.20866
# Poissons Ratio (y) = 0.47070 0.20866
# Poissons Ratio (z) = 0.18344 0.18344
#
# Static dielectric constant tensor:
#      x y z
#    x 1.560080 0.000000 0.000000 
#    y 0.000000 1.560080 0.000000 
#    z 0.000000 0.000000 1.558080 
# 
# From -- ./inp_files/5366.got.cif
#   From: 2010.05.17/outbox.cif.g08.bks.cpg/sg191_3_cif.got.tgz:5366.got - 2010.05.20 12:20:32.
