data_PCOD9587632
_publ_section_title
;
Structure prediction by ZEFSAII (Michael W. Deem and Ramdas Pophale) SiO2 
 PCOD9587632
Probable space group: P 6/M M M
;
_chemical_formula_sum "Si O2"
_cell_formula_units_Z 108
_cell_length_a 17.944419
_cell_length_b 17.944419
_cell_length_c 23.558049
_cell_angle_alpha 90.000000
_cell_angle_beta 90.000000
_cell_angle_gamma 120.000000
_cell_volume 6569.446123
_symmetry_space_group_name_H-M "P 6/M M M"
_symmetry_group_IT_number 191
_symmetry_cell_setting 'hexagonal'
loop_
_space_group_symop_operation_xyz
x,y,z
x-y,x,z
-y,x-y,z
-x,-y,z
-x+y,-x,z
y,-x+y,z
x-y,-y,-z
-x,-x+y,-z
y,x,-z
-y,-x,-z
-x+y,y,-z
x,x-y,-z
-x,-y,-z
-x+y,-x,-z
y,-x+y,-z
x,y,-z
x-y,x,-z
-y,x-y,-z
-x+y,y,z
x,x-y,z
-y,-x,z
y,x,z
x-y,-y,z
-x,-x+y,z
loop_
_atom_site_type_symbol
_atom_site_label
_atom_site_fract_x
_atom_site_fract_y
_atom_site_fract_z
Si Si1 0.365810 0.098747 0.168591
Si Si2 0.628942 0.731795 0.611600
Si Si3 0.467664 0.363796 0.276605
Si Si4 0.532582 0.636348 0.500000
Si Si5 0.841803 0.333520 0.065348
O O1 0.331985 0.165993 0.166656
O O2 0.434461 0.126828 0.219869
O O3 0.416952 0.107808 0.110558
O O4 0.294231 0.000000 0.177762
O O5 0.668608 0.834304 0.611441
O O6 0.696515 0.696515 0.611220
O O7 0.569562 0.693273 0.667275
O O8 0.568247 0.692818 0.556492
O O9 0.569314 0.430687 0.278016
O O10 0.421340 0.421340 0.275675
O O11 0.578505 0.578505 0.500000
O O12 0.430752 0.569249 0.500000
O O13 0.850764 0.425382 0.077817
O O14 0.742130 0.257871 0.069393
O O15 0.868915 0.334379 0.000000
#
# Coordination Sequence:
#
# PCOD9587632 Si02
#       5
#    24  24  24  12  24
#     4  10  20  33  49  69  93 122 157 196 236 277
#     4  10  19  31  49  72  97 127 164 203 240 279
#     4   9  17  30  49  71  93 118 149 185 226 275
#     4   9  17  30  49  70  90 116 152 193 237 286
#     4   9  17  29  46  69  97 127 156 186 223 270
#
# _framework density 16.439741999999999
#
# number of rings (size 3 to 8) (size 9 to 14) (size 15 to 20)
#    0.000    2.556    0.000    2.556    0.000    5.333 
#    0.000    1.111    0.000   12.444    0.000    0.000 
#    0.000    8.000    0.000    5.556    0.000    0.889 
#
# Total GULP energy -601852.805332 kJ/mol
# GULP energy per Si atom -5572.711160 kJ/mol
# Density = 1.640232 g / cm^3
# Si number density = 16.439742 Si / 1000 Ang^3
#
#
#
# Elastic Constant Matrix: (Units=GPa)
#
#
# Indices 1 2 3 4 5 6 
#
# 1 80.0788 54.5140 36.1845 0.0000 0.0000 0.0000
# 2 54.5140 80.0788 36.1845 0.0000 0.0000 0.0000
# 3 36.1845 36.1845 94.2653 0.0000 0.0000 0.0000
# 4 0.0000 0.0000 0.0000 8.6979 0.0000 0.0000
# 5 0.0000 0.0000 0.0000 0.0000 8.6979 0.0000
# 6 0.0000 0.0000 0.0000 0.0000 0.0000 12.7824
#
#
#
# Elastic Compliance Matrix: (Units=1/GPa)
#
#
# Indices 1 2 3 4 5 6 
#
# 1 0.024239 -0.014877 -0.003594 0.000000 0.000000 0.000000
# 2 -0.014877 0.024239 -0.003594 0.000000 0.000000 0.000000
# 3 -0.003594 -0.003594 0.013367 0.000000 0.000000 0.000000
# 4 0.000000 0.000000 0.000000 0.114970 0.000000 0.000000
# 5 0.000000 0.000000 0.000000 0.000000 0.114970 0.000000
# 6 0.000000 0.000000 0.000000 0.000000 0.000000 0.078233
#
#
# Mechanical properties :
#
#
# Convention : Reuss Voigt Hill
#
# Bulk Modulus (GPa) = 56.44404 56.46542 56.45473
# Shear Modulus (GPa) = 11.90327 14.53832 13.22080
#
# Velocity S-wave (km/s) = 2.69375 2.97701 2.83891
# Velocity P-wave (km/s) = 6.63954 6.79987 6.72018
#
# Compressibility (1/GPa) = 0.01771666
#
# Stress axis : x y z
#
# Youngs Moduli (GPa) = 41.25550 41.25550 74.80933
#
# Poissons Ratio (x) = 0.61376 0.26884
# Poissons Ratio (y) = 0.61376 0.26884
# Poissons Ratio (z) = 0.14826 0.14826
#
# Static dielectric constant tensor:
#      x y z
#    x 1.550340 0.000000 0.000000 
#    y 0.000000 1.550340 0.000000 
#    z 0.000000 0.000000 1.562550 
# 
# From -- ./inp_files/7299.got.cif
#   From: 2010.05.17/outbox.cif.g08.bks.cpg/sg191_4_cif.got.tgz:7299.got - 2010.05.20 12:20:32.
