data_PCOD9587441
_publ_section_title
;
Structure prediction by ZEFSAII (Michael W. Deem and Ramdas Pophale) SiO2 
 PCOD9587441
Probable space group: P 6/M M M
;
_chemical_formula_sum "Si O2"
_cell_formula_units_Z 108
_cell_length_a 18.497740
_cell_length_b 18.497740
_cell_length_c 23.215057
_cell_angle_alpha 90.000000
_cell_angle_beta 90.000000
_cell_angle_gamma 120.000000
_cell_volume 6879.196701
_symmetry_space_group_name_H-M "P 6/M M M"
_symmetry_group_IT_number 191
_symmetry_cell_setting 'hexagonal'
loop_
_space_group_symop_operation_xyz
x,y,z
x-y,x,z
-y,x-y,z
-x,-y,z
-x+y,-x,z
y,-x+y,z
x-y,-y,-z
-x,-x+y,-z
y,x,-z
-y,-x,-z
-x+y,y,-z
x,x-y,-z
-x,-y,-z
-x+y,-x,-z
y,-x+y,-z
x,y,-z
x-y,x,-z
-y,x-y,-z
-x+y,y,z
x,x-y,z
-y,-x,z
y,x,z
x-y,-y,z
-x,-x+y,z
loop_
_atom_site_type_symbol
_atom_site_label
_atom_site_fract_x
_atom_site_fract_y
_atom_site_fract_z
Si Si1 0.467077 0.099649 0.717505
Si Si2 0.740981 0.647466 0.066391
Si Si3 0.734961 0.100245 0.391455
Si Si4 0.632951 0.532360 0.500000
Si Si5 0.332432 0.498506 0.844065
O O1 0.561957 0.123914 0.701234
O O2 0.418326 0.115853 0.667011
O O3 0.469634 0.141877 0.778092
O O4 0.417833 0.000000 0.726755
O O5 0.836544 0.673087 0.075582
O O6 0.721568 0.721568 0.074059
O O7 0.687176 0.574779 0.111316
O O8 0.719648 0.617640 0.000000
O O9 0.834072 0.165929 0.394200
O O10 0.690310 0.120897 0.443743
O O11 0.702460 0.000000 0.394540
O O12 0.576520 0.576520 0.500000
O O13 0.566783 0.433218 0.500000
O O14 0.261728 0.523455 0.853263
O O15 0.423616 0.576385 0.852934
#
# Coordination Sequence:
#
# PCOD9587441 Si02
#       5
#    24  24  24  12  24
#     4   9  17  29  46  67  89 115 149 189 231 274
#     4   9  18  32  49  68  89 114 145 182 224 268
#     4  10  19  31  48  69  93 122 157 194 230 270
#     4   9  17  30  49  70  90 114 144 179 221 268
#     4  10  19  30  44  64  92 124 156 188 222 260
#
# _framework density 15.699508
#
# number of rings (size 3 to 8) (size 9 to 14) (size 15 to 20)
#    0.000    2.556    0.000    2.556    0.000    4.444 
#    0.000    1.111    0.000    9.333    0.000    1.556 
#    0.000    2.667    0.000    7.111    0.000    4.889 
#
# Total GULP energy -601566.004824 kJ/mol
# GULP energy per Si atom -5570.055600 kJ/mol
# Density = 1.566377 g / cm^3
# Si number density = 15.699508 Si / 1000 Ang^3
#
#
#
# Elastic Constant Matrix: (Units=GPa)
#
#
# Indices 1 2 3 4 5 6 
#
# 1 79.1425 52.5388 49.9744 0.0000 0.0000 0.0000
# 2 52.5388 79.1425 49.9744 0.0000 0.0000 0.0000
# 3 49.9744 49.9744 77.7421 0.0000 0.0000 0.0000
# 4 0.0000 0.0000 0.0000 18.4282 0.0000 0.0000
# 5 0.0000 0.0000 0.0000 0.0000 18.4282 0.0000
# 6 0.0000 0.0000 0.0000 0.0000 0.0000 13.3019
#
#
#
# Elastic Compliance Matrix: (Units=1/GPa)
#
#
# Indices 1 2 3 4 5 6 
#
# 1 0.026209 -0.011380 -0.009533 0.000000 0.000000 0.000000
# 2 -0.011380 0.026209 -0.009533 0.000000 0.000000 0.000000
# 3 -0.009533 -0.009533 0.025119 0.000000 0.000000 0.000000
# 4 0.000000 0.000000 0.000000 0.054265 0.000000 0.000000
# 5 0.000000 0.000000 0.000000 0.000000 0.054265 0.000000
# 6 0.000000 0.000000 0.000000 0.000000 0.000000 0.075177
#
#
# Mechanical properties :
#
#
# Convention : Reuss Voigt Hill
#
# Bulk Modulus (GPa) = 60.07133 60.11136 60.09134
# Shear Modulus (GPa) = 15.25862 15.60097 15.42979
#
# Velocity S-wave (km/s) = 3.12094 3.15576 3.13840
# Velocity P-wave (km/s) = 7.16473 7.18681 7.17578
#
# Compressibility (1/GPa) = 0.01664688
#
# Stress axis : x y z
#
# Youngs Moduli (GPa) = 38.15449 38.15449 39.81061
#
# Poissons Ratio (x) = 0.43418 0.37951
# Poissons Ratio (y) = 0.43418 0.37951
# Poissons Ratio (z) = 0.36372 0.36372
#
# Static dielectric constant tensor:
#      x y z
#    x 1.518960 0.000000 0.000000 
#    y 0.000000 1.518960 0.000000 
#    z 0.000000 0.000000 1.528910 
# 
# From -- ./inp_files/7318.got.cif
#   From: 2010.05.17/outbox.cif.g08.bks.cpg/sg191_4_cif.got.tgz:7318.got - 2010.05.20 12:20:32.
