data_PCOD9587996
_publ_section_title
;
Structure prediction by ZEFSAII (Michael W. Deem and Ramdas Pophale) SiO2 
 PCOD9587996
Probable space group: P 6/M M M
;
_chemical_formula_sum "Si O2"
_cell_formula_units_Z 132
_cell_length_a 18.334372
_cell_length_b 18.334372
_cell_length_c 28.308116
_cell_angle_alpha 90.000000
_cell_angle_beta 90.000000
_cell_angle_gamma 120.000000
_cell_volume 8240.881627
_symmetry_space_group_name_H-M "P 6/M M M"
_symmetry_group_IT_number 191
_symmetry_cell_setting 'hexagonal'
loop_
_space_group_symop_operation_xyz
x,y,z
x-y,x,z
-y,x-y,z
-x,-y,z
-x+y,-x,z
y,-x+y,z
x-y,-y,-z
-x,-x+y,-z
y,x,-z
-y,-x,-z
-x+y,y,-z
x,x-y,-z
-x,-y,-z
-x+y,-x,-z
y,-x+y,-z
x,y,-z
x-y,x,-z
-y,x-y,-z
-x+y,y,z
x,x-y,z
-y,-x,z
y,x,z
x-y,-y,z
-x,-x+y,z
loop_
_atom_site_type_symbol
_atom_site_label
_atom_site_fract_x
_atom_site_fract_y
_atom_site_fract_z
Si Si1 0.666567 0.501922 0.942928
Si Si2 0.504664 0.837676 0.740001
Si Si3 0.333526 0.837989 0.368703
Si Si4 0.664711 0.664711 0.903761
Si Si5 0.906018 0.644744 0.553823
Si Si6 0.585566 0.000000 0.194230
Si Si7 0.173546 0.173546 0.056391
O O1 0.749251 0.498502 0.927393
O O2 0.580954 0.419047 0.926786
O O3 0.669881 0.586564 0.926071
O O4 0.665971 0.501296 0.000000
O O5 0.406691 0.813381 0.741785
O O6 0.513447 0.756724 0.751648
O O7 0.532570 0.863401 0.685545
O O8 0.554749 0.916613 0.774265
O O9 0.422837 0.845675 0.377080
O O10 0.258896 0.741104 0.372657
O O11 0.314217 0.889299 0.407256
O O12 0.640690 0.640690 0.849319
O O13 0.750619 0.750619 0.915192
O O14 0.896461 0.611148 0.500000
O O15 0.835034 0.670067 0.560419
O O16 0.000000 0.720701 0.558512
O O17 0.500000 0.000000 0.178271
O O18 0.168608 0.084304 0.065843
O O19 0.190924 0.190924 0.000000
#
# Coordination Sequence:
#
# PCOD9587996 Si02
#       7
#    24  24  24  12  24  12  12
#     4  10  20  34  52  74 101 134 170 205 241 286
#     4   9  18  33  52  71  92 123 164 207 248 291
#     4   9  17  29  47  69  94 125 162 201 239 280
#     4  12  22  34  52  76 105 133 166 205 249 299
#     4   9  18  31  46  67  96 128 161 196 240 294
#     4  10  22  36  49  70  99 130 164 206 255 294
#     4  10  21  38  60  85 110 135 164 199 241 291
#
# _framework density 16.017703999999998
#
# number of rings (size 3 to 8) (size 9 to 14) (size 15 to 20)
#    0.000    2.364    0.000    2.818    1.273    6.909 
#    0.000    0.909    0.000    3.455    0.000    1.273 
#    0.000    0.000    0.000    0.000    0.000    0.000 
#
# Total GULP energy -736134.335728 kJ/mol
# GULP energy per Si atom -5576.775271 kJ/mol
# Density = 1.598125 g / cm^3
# Si number density = 16.017704 Si / 1000 Ang^3
#
#
#
# Elastic Constant Matrix: (Units=GPa)
#
#
# Indices 1 2 3 4 5 6 
#
# 1 113.2762 74.4405 58.1536 0.0000 0.0000 0.0000
# 2 74.4405 113.2762 58.1536 0.0000 0.0000 0.0000
# 3 58.1536 58.1536 69.3135 0.0000 0.0000 0.0000
# 4 0.0000 0.0000 0.0000 -3.5111 0.0000 0.0000
# 5 0.0000 0.0000 0.0000 0.0000 -3.5111 0.0000
# 6 0.0000 0.0000 0.0000 0.0000 0.0000 19.4179
#
#
#
# Elastic Compliance Matrix: (Units=1/GPa)
#
#
# Indices 1 2 3 4 5 6 
#
# 1 0.018422 -0.007328 -0.009308 0.000000 0.000000 0.000000
# 2 -0.007328 0.018422 -0.009308 0.000000 0.000000 0.000000
# 3 -0.009308 -0.009308 0.030046 0.000000 0.000000 0.000000
# 4 0.000000 0.000000 0.000000 -0.284812 0.000000 0.000000
# 5 0.000000 0.000000 0.000000 0.000000 -0.284812 0.000000
# 6 0.000000 0.000000 0.000000 0.000000 0.000000 0.051499
#
#
# Mechanical properties :
#
#
# Convention : Reuss Voigt Hill
#
# Bulk Modulus (GPa) = 66.65599 75.26234 70.95916
# Shear Modulus (GPa) = -12.67922 9.48703 -1.59609
#
# Velocity S-wave (km/s) = -2.81655 2.43633 -0.99931
# Velocity P-wave (km/s) = 5.57916 7.41642 6.56240
#
# Compressibility (1/GPa) = 0.01500240
#
# Stress axis : x y z
#
# Youngs Moduli (GPa) = 54.28315 54.28315 33.28224
#
# Poissons Ratio (x) = 0.39776 0.30979
# Poissons Ratio (y) = 0.39776 0.30979
# Poissons Ratio (z) = 0.50527 0.50527
#
# Static dielectric constant tensor:
#      x y z
#    x 1.518170 0.000000 0.000000 
#    y 0.000000 1.518170 0.000000 
#    z 0.000000 0.000000 1.542020 
# 
# From -- ./inp_files/8720.got.cif
#   From: 2010.05.17/outbox.cif.g08.bks.cpg/sg191_5_cif.got.tgz:8720.got - 2010.05.20 12:20:32.
