data_PCOD9587730
_publ_section_title
;
Structure prediction by ZEFSAII (Michael W. Deem and Ramdas Pophale) SiO2 
 PCOD9587730
Probable space group: P 6/M M M
;
_chemical_formula_sum "Si O2"
_cell_formula_units_Z 120
_cell_length_a 21.702312
_cell_length_b 21.702312
_cell_length_c 18.148318
_cell_angle_alpha 90.000000
_cell_angle_beta 90.000000
_cell_angle_gamma 120.000000
_cell_volume 7402.510255
_symmetry_space_group_name_H-M "P 6/M M M"
_symmetry_group_IT_number 191
_symmetry_cell_setting 'hexagonal'
loop_
_space_group_symop_operation_xyz
x,y,z
x-y,x,z
-y,x-y,z
-x,-y,z
-x+y,-x,z
y,-x+y,z
x-y,-y,-z
-x,-x+y,-z
y,x,-z
-y,-x,-z
-x+y,y,-z
x,x-y,-z
-x,-y,-z
-x+y,-x,-z
y,-x+y,-z
x,y,-z
x-y,x,-z
-y,x-y,-z
-x+y,y,z
x,x-y,z
-y,-x,z
y,x,z
x-y,-y,z
-x,-x+y,z
loop_
_atom_site_type_symbol
_atom_site_label
_atom_site_fract_x
_atom_site_fract_y
_atom_site_fract_z
Si Si1 0.918486 0.836971 0.910363
Si Si2 0.916758 0.296046 0.809586
Si Si3 0.186497 0.521948 0.732994
Si Si4 0.697434 0.777482 0.657020
Si Si5 0.550348 0.849661 0.581230
Si Si6 0.670977 0.835489 0.088006
O O1 0.876917 0.876917 0.884815
O O2 0.877217 0.754435 0.890383
O O3 0.919963 0.839926 0.000000
O O4 0.871376 0.332783 0.786026
O O5 0.912084 0.247909 0.738765
O O6 0.878882 0.242466 0.876691
O O7 0.000000 0.350102 0.822866
O O8 0.259719 0.519437 0.737998
O O9 0.199042 0.599521 0.748993
O O10 0.156359 0.498820 0.649676
O O11 0.716476 0.858238 0.646286
O O12 0.760298 0.760298 0.647725
O O13 0.631889 0.727805 0.603032
O O14 0.532034 0.864346 0.500000
O O15 0.545783 0.772892 0.579011
O O16 0.665957 0.832979 0.000000
#
# Coordination Sequence:
#
# PCOD9587730 Si02
#       6
#    12  24  24  24  24  12
#     4   9  17  28  43  68 104 141 169 193 234 302
#     4  10  19  34  53  75 104 134 168 212 257 306
#     4  10  19  33  53  78 106 139 179 213 248 300
#     4   9  16  28  47  67  92 130 172 210 251 299
#     4   8  15  28  45  69 102 133 162 202 248 293
#     4  11  20  33  54  79 103 129 167 217 270 317
#
# _framework density 16.210716000000001
#
# number of rings (size 3 to 8) (size 9 to 14) (size 15 to 20)
#    0.000    2.600    2.000    2.100    0.000    2.800 
#    0.000    0.000    0.000    2.000    0.000    7.000 
#    0.000    0.000    0.000    5.000    0.000    0.000 
#
# Total GULP energy -668658.076804 kJ/mol
# GULP energy per Si atom -5572.150640 kJ/mol
# Density = 1.617382 g / cm^3
# Si number density = 16.210716 Si / 1000 Ang^3
#
#
#
# Elastic Constant Matrix: (Units=GPa)
#
#
# Indices 1 2 3 4 5 6 
#
# 1 92.1436 42.7808 27.3886 0.0000 0.0000 0.0000
# 2 42.7808 92.1436 27.3886 0.0000 0.0000 0.0000
# 3 27.3886 27.3886 68.5182 0.0000 0.0000 0.0000
# 4 0.0000 0.0000 0.0000 8.0011 0.0000 0.0000
# 5 0.0000 0.0000 0.0000 0.0000 8.0011 0.0000
# 6 0.0000 0.0000 0.0000 0.0000 0.0000 24.6814
#
#
#
# Elastic Compliance Matrix: (Units=1/GPa)
#
#
# Indices 1 2 3 4 5 6 
#
# 1 0.014553 -0.005705 -0.003537 0.000000 0.000000 0.000000
# 2 -0.005705 0.014553 -0.003537 0.000000 0.000000 0.000000
# 3 -0.003537 -0.003537 0.017422 0.000000 0.000000 0.000000
# 4 0.000000 0.000000 0.000000 0.124983 0.000000 0.000000
# 5 0.000000 0.000000 0.000000 0.000000 0.124983 0.000000
# 6 0.000000 0.000000 0.000000 0.000000 0.000000 0.040516
#
#
# Mechanical properties :
#
#
# Convention : Reuss Voigt Hill
#
# Bulk Modulus (GPa) = 47.68600 49.76907 48.72754
# Shear Modulus (GPa) = 13.52971 18.48655 16.00813
#
# Velocity S-wave (km/s) = 2.89211 3.38063 3.14587
# Velocity P-wave (km/s) = 6.37437 6.78279 6.58175
#
# Compressibility (1/GPa) = 0.02097052
#
# Stress axis : x y z
#
# Youngs Moduli (GPa) = 68.71559 68.71559 57.39885
#
# Poissons Ratio (x) = 0.39205 0.20299
# Poissons Ratio (y) = 0.39205 0.20299
# Poissons Ratio (z) = 0.24301 0.24301
#
# Static dielectric constant tensor:
#      x y z
#    x 1.535850 0.000000 0.000000 
#    y 0.000000 1.535850 0.000000 
#    z 0.000000 0.000000 1.556350 
# 
# From -- ./inp_files/6243.got.cif
#   From: 2010.05.17/outbox.cif.g08.bks.cpg/sg191_4_cif.got.tgz:6243.got - 2010.05.20 12:20:32.
