data_PCOD9587972
_publ_section_title
;
Structure prediction by ZEFSAII (Michael W. Deem and Ramdas Pophale) SiO2 
 PCOD9587972
Probable space group: P 6/M M M
;
_chemical_formula_sum "Si O2"
_cell_formula_units_Z 84
_cell_length_a 17.887525
_cell_length_b 17.887525
_cell_length_c 17.380965
_cell_angle_alpha 90.000000
_cell_angle_beta 90.000000
_cell_angle_gamma 120.000000
_cell_volume 4816.205665
_symmetry_space_group_name_H-M "P 6/M M M"
_symmetry_group_IT_number 191
_symmetry_cell_setting 'hexagonal'
loop_
_space_group_symop_operation_xyz
x,y,z
x-y,x,z
-y,x-y,z
-x,-y,z
-x+y,-x,z
y,-x+y,z
x-y,-y,-z
-x,-x+y,-z
y,x,-z
-y,-x,-z
-x+y,y,-z
x,x-y,-z
-x,-y,-z
-x+y,-x,-z
y,-x+y,-z
x,y,-z
x-y,x,-z
-y,x-y,-z
-x+y,y,z
x,x-y,z
-y,-x,z
y,x,z
x-y,-y,z
-x,-x+y,z
loop_
_atom_site_type_symbol
_atom_site_label
_atom_site_fract_x
_atom_site_fract_y
_atom_site_fract_z
Si Si1 0.799499 0.200502 0.908105
Si Si2 0.199510 0.099755 0.906306
Si Si3 0.465159 0.362617 0.195574
Si Si4 0.667418 0.157219 0.500000
Si Si5 0.729200 0.629689 0.648812
O O1 0.850098 0.149903 0.883710
O O2 0.849127 0.295180 0.871872
O O3 0.797777 0.202224 0.000000
O O4 0.150240 0.150240 0.880874
O O5 0.197695 0.098848 0.000000
O O6 0.564957 0.435044 0.202802
O O7 0.412421 0.412421 0.180959
O O8 0.427958 0.310711 0.274872
O O9 0.742074 0.257927 0.500000
O O10 0.573398 0.146796 0.500000
O O11 0.684216 0.115308 0.424848
O O12 0.830223 0.660446 0.645203
O O13 0.704270 0.704270 0.650477
#
# Coordination Sequence:
#
# PCOD9587972 Si02
#       5
#    12  12  24  12  24
#     4  11  22  37  56  78 105 141 186 237 283 332
#     4   9  17  30  51  80 111 139 169 213 275 343
#     4  10  21  38  58  79 106 142 184 228 277 333
#     4  10  20  33  54  87 122 154 187 226 270 319
#     4  10  20  36  58  84 114 148 184 223 271 329
#
# _framework density 17.441116000000001
#
# number of rings (size 3 to 8) (size 9 to 14) (size 15 to 20)
#    0.000    2.000    1.429    2.429    0.000    5.143 
#    0.857    1.429    0.000    0.286    0.000    0.000 
#    0.000    3.429    0.000    0.000    0.000    0.000 
#
# Total GULP energy -468937.031214 kJ/mol
# GULP energy per Si atom -5582.583705 kJ/mol
# Density = 1.740142 g / cm^3
# Si number density = 17.441116 Si / 1000 Ang^3
#
#
#
# Elastic Constant Matrix: (Units=GPa)
#
#
# Indices 1 2 3 4 5 6 
#
# 1 111.1285 84.1245 42.4847 0.0000 0.0000 0.0000
# 2 84.1245 111.1285 42.4847 0.0000 0.0000 0.0000
# 3 42.4847 42.4847 99.1473 0.0000 0.0000 0.0000
# 4 0.0000 0.0000 0.0000 14.5991 0.0000 0.0000
# 5 0.0000 0.0000 0.0000 0.0000 14.5991 0.0000
# 6 0.0000 0.0000 0.0000 0.0000 0.0000 13.5020
#
#
#
# Elastic Compliance Matrix: (Units=1/GPa)
#
#
# Indices 1 2 3 4 5 6 
#
# 1 0.021664 -0.015368 -0.002698 0.000000 0.000000 0.000000
# 2 -0.015368 0.021664 -0.002698 0.000000 0.000000 0.000000
# 3 -0.002698 -0.002698 0.012398 0.000000 0.000000 0.000000
# 4 0.000000 0.000000 0.000000 0.068497 0.000000 0.000000
# 5 0.000000 0.000000 0.000000 0.000000 0.068497 0.000000
# 6 0.000000 0.000000 0.000000 0.000000 0.000000 0.074063
#
#
# Mechanical properties :
#
#
# Convention : Reuss Voigt Hill
#
# Bulk Modulus (GPa) = 70.43062 73.28800 71.85931
# Shear Modulus (GPa) = 15.97227 18.69405 17.33316
#
# Velocity S-wave (km/s) = 3.02947 3.27745 3.15590
# Velocity P-wave (km/s) = 7.25993 7.51223 7.38716
#
# Compressibility (1/GPa) = 0.01419837
#
# Stress axis : x y z
#
# Youngs Moduli (GPa) = 46.16048 46.16048 80.65900
#
# Poissons Ratio (x) = 0.70940 0.21759
# Poissons Ratio (y) = 0.70940 0.21759
# Poissons Ratio (z) = 0.12452 0.12452
#
# Static dielectric constant tensor:
#      x y z
#    x 1.579490 0.000000 0.000000 
#    y 0.000000 1.579490 0.000000 
#    z 0.000000 0.000000 1.581130 
# 
# From -- ./inp_files/4004.got.cif
#   From: 2010.05.17/outbox.cif.g08.bks.cpg/sg191_3_cif.got.tgz:4004.got - 2010.05.20 12:20:32.
