data_PCOD9587557
_publ_section_title
;
Structure prediction by ZEFSAII (Michael W. Deem and Ramdas Pophale) SiO2 
 PCOD9587557
Probable space group: P 6/M M M
;
_chemical_formula_sum "Si O2"
_cell_formula_units_Z 168
_cell_length_a 22.917467
_cell_length_b 22.917467
_cell_length_c 23.718044
_cell_angle_alpha 90.000000
_cell_angle_beta 90.000000
_cell_angle_gamma 120.000000
_cell_volume 10788.044554
_symmetry_space_group_name_H-M "P 6/M M M"
_symmetry_group_IT_number 191
_symmetry_cell_setting 'hexagonal'
loop_
_space_group_symop_operation_xyz
x,y,z
x-y,x,z
-y,x-y,z
-x,-y,z
-x+y,-x,z
y,-x+y,z
x-y,-y,-z
-x,-x+y,-z
y,x,-z
-y,-x,-z
-x+y,y,-z
x,x-y,-z
-x,-y,-z
-x+y,-x,-z
y,-x+y,-z
x,y,-z
x-y,x,-z
-y,x-y,-z
-x+y,y,z
x,x-y,z
-y,-x,z
y,x,z
x-y,-y,z
-x,-x+y,z
loop_
_atom_site_type_symbol
_atom_site_label
_atom_site_fract_x
_atom_site_fract_y
_atom_site_fract_z
Si Si1 0.468631 0.801881 0.067454
Si Si2 0.079735 0.410819 0.130752
Si Si3 0.286328 0.210085 0.066943
Si Si4 0.208675 0.922577 0.666861
Si Si5 0.261909 0.875005 0.564922
Si Si6 0.608194 0.526531 0.633611
Si Si7 0.398697 0.081329 0.740004
O O1 0.392928 0.785856 0.078869
O O2 0.478346 0.739173 0.084513
O O3 0.521773 0.870494 0.097680
O O4 0.479169 0.810217 0.000000
O O5 0.085885 0.350197 0.102183
O O6 0.102186 0.418695 0.195949
O O7 0.000000 0.387155 0.127970
O O8 0.269882 0.134941 0.080328
O O9 0.226705 0.226705 0.077321
O O10 0.302721 0.221409 0.000000
O O11 0.129934 0.870067 0.667472
O O12 0.239329 0.914839 0.607598
O O13 0.245811 0.900907 0.713564
O O14 0.231233 0.000000 0.675787
O O15 0.266160 0.895878 0.500000
O O16 0.202798 0.797203 0.569366
O O17 0.333105 0.887416 0.587441
O O18 0.550087 0.449914 0.627161
O O19 0.571799 0.571799 0.629964
O O20 0.644217 0.541884 0.694777
O O21 0.358981 0.000000 0.740728
#
# Coordination Sequence:
#
# PCOD9587557 Si02
#       7
#    24  24  24  24  24  24  24
#     4  10  21  36  51  65  85 117 155 190 223 264
#     4  10  19  30  48  73  95 115 142 182 233 280
#     4   9  17  29  45  66  93 122 150 182 223 271
#     4   9  17  29  45  65  90 120 152 186 224 266
#     4   9  17  29  45  65  90 119 149 182 220 261
#     4   9  17  29  46  67  90 116 144 176 215 257
#     4   8  16  30  45  64  91 119 145 173 211 264
#
# _framework density 15.572794
#
# number of rings (size 3 to 8) (size 9 to 14) (size 15 to 20)
#    0.000    2.857    0.000    2.286    0.000    6.000 
#    0.000    2.857    0.000    0.571    0.000    1.000 
#    0.000    0.000    0.000   10.714    0.000    3.714 
#
# Total GULP energy -935796.168308 kJ/mol
# GULP energy per Si atom -5570.215288 kJ/mol
# Density = 1.553735 g / cm^3
# Si number density = 15.572794 Si / 1000 Ang^3
#
#
#
# Elastic Constant Matrix: (Units=GPa)
#
#
# Indices 1 2 3 4 5 6 
#
# 1 66.7581 28.6561 20.6334 0.0000 0.0000 0.0000
# 2 28.6561 66.7581 20.6334 0.0000 0.0000 0.0000
# 3 20.6334 20.6334 52.7878 0.0000 0.0000 0.0000
# 4 0.0000 0.0000 0.0000 5.4192 0.0000 0.0000
# 5 0.0000 0.0000 0.0000 0.0000 5.4192 0.0000
# 6 0.0000 0.0000 0.0000 0.0000 0.0000 19.0510
#
#
#
# Elastic Compliance Matrix: (Units=1/GPa)
#
#
# Indices 1 2 3 4 5 6 
#
# 1 0.019429 -0.006816 -0.004930 0.000000 0.000000 0.000000
# 2 -0.006816 0.019429 -0.004930 0.000000 0.000000 0.000000
# 3 -0.004930 -0.004930 0.022798 0.000000 0.000000 0.000000
# 4 0.000000 0.000000 0.000000 0.184528 0.000000 0.000000
# 5 0.000000 0.000000 0.000000 0.000000 0.184528 0.000000
# 6 0.000000 0.000000 0.000000 0.000000 0.000000 0.052491
#
#
# Mechanical properties :
#
#
# Convention : Reuss Voigt Hill
#
# Bulk Modulus (GPa) = 35.33148 36.23888 35.78518
# Shear Modulus (GPa) = 9.50589 13.73662 11.62126
#
# Velocity S-wave (km/s) = 2.47334 2.97322 2.73473
# Velocity P-wave (km/s) = 5.55822 5.92519 5.74463
#
# Compressibility (1/GPa) = 0.02830337
#
# Stress axis : x y z
#
# Youngs Moduli (GPa) = 51.46912 51.46912 43.86384
#
# Poissons Ratio (x) = 0.35083 0.21625
# Poissons Ratio (y) = 0.35083 0.21625
# Poissons Ratio (z) = 0.25375 0.25375
#
# Static dielectric constant tensor:
#      x y z
#    x 1.510460 0.000000 0.000000 
#    y 0.000000 1.510460 0.000000 
#    z 0.000000 0.000000 1.530680 
# 
# From -- ./inp_files/7944.got.cif
#   From: 2010.05.17/outbox.cif.g08.bks.cpg/sg191_4_cif.got.tgz:7944.got - 2010.05.20 12:20:32.
