data_PCOD9587956
_publ_section_title
;
Structure prediction by ZEFSAII (Michael W. Deem and Ramdas Pophale) SiO2 
 PCOD9587956
Probable space group: P 6/M M M
;
_chemical_formula_sum "Si O2"
_cell_formula_units_Z 120
_cell_length_a 22.159431
_cell_length_b 22.159431
_cell_length_c 15.961214
_cell_angle_alpha 90.000000
_cell_angle_beta 90.000000
_cell_angle_gamma 120.000000
_cell_volume 6787.561245
_symmetry_space_group_name_H-M "P 6/M M M"
_symmetry_group_IT_number 191
_symmetry_cell_setting 'hexagonal'
loop_
_space_group_symop_operation_xyz
x,y,z
x-y,x,z
-y,x-y,z
-x,-y,z
-x+y,-x,z
y,-x+y,z
x-y,-y,-z
-x,-x+y,-z
y,x,-z
-y,-x,-z
-x+y,y,-z
x,x-y,-z
-x,-y,-z
-x+y,-x,-z
y,-x+y,-z
x,y,-z
x-y,x,-z
-y,x-y,-z
-x+y,y,z
x,x-y,z
-y,-x,z
y,x,z
x-y,-y,z
-x,-x+y,z
loop_
_atom_site_type_symbol
_atom_site_label
_atom_site_fract_x
_atom_site_fract_y
_atom_site_fract_z
Si Si1 0.472076 0.080258 0.337554
Si Si2 0.252040 0.886418 0.408850
Si Si3 0.525173 0.334825 0.185234
Si Si4 0.920437 0.319641 0.905476
Si Si5 0.292156 0.076901 0.769331
O O1 0.542589 0.085177 0.371084
O O2 0.427100 0.096159 0.401826
O O3 0.494524 0.138003 0.264872
O O4 0.424108 0.000000 0.306611
O O5 0.241043 0.910450 0.500000
O O6 0.195922 0.804079 0.403942
O O7 0.237827 0.917953 0.325663
O O8 0.517303 0.258652 0.193311
O O9 0.605374 0.394627 0.176115
O O10 0.477611 0.337411 0.110730
O O11 0.911644 0.264019 0.834832
O O12 0.000000 0.383485 0.896832
O O13 0.914462 0.292294 0.000000
O O14 0.274285 0.137143 0.780755
O O15 0.229461 0.000000 0.783795
#
# Coordination Sequence:
#
# PCOD9587956 Si02
#       5
#    24  24  24  24  24
#     4  10  20  33  51  75 102 133 173 223 273 320
#     4  10  20  34  53  77 106 140 175 213 261 316
#     4  11  22  36  53  74 104 141 180 219 261 314
#     4  10  21  37  58  82 106 134 171 219 272 318
#     4  10  20  35  55  80 110 141 173 211 257 309
#
# _framework density 17.679399
#
# number of rings (size 3 to 8) (size 9 to 14) (size 15 to 20)
#    0.000    1.800    2.000    2.600    0.000    5.200 
#    0.000    2.000    0.000    1.800    0.000    0.000 
#    0.000    0.000    0.000   10.000    0.000    0.000 
#
# Total GULP energy -669061.938404 kJ/mol
# GULP energy per Si atom -5575.516153 kJ/mol
# Density = 1.763916 g / cm^3
# Si number density = 17.679399 Si / 1000 Ang^3
#
#
#
# Elastic Constant Matrix: (Units=GPa)
#
#
# Indices 1 2 3 4 5 6 
#
# 1 102.8061 61.3078 18.1122 0.0000 0.0000 0.0000
# 2 61.3078 102.8061 18.1122 0.0000 0.0000 0.0000
# 3 18.1122 18.1122 82.9248 0.0000 0.0000 0.0000
# 4 0.0000 0.0000 0.0000 14.5176 0.0000 0.0000
# 5 0.0000 0.0000 0.0000 0.0000 14.5176 0.0000
# 6 0.0000 0.0000 0.0000 0.0000 0.0000 20.7491
#
#
#
# Elastic Compliance Matrix: (Units=1/GPa)
#
#
# Indices 1 2 3 4 5 6 
#
# 1 0.015250 -0.008848 -0.001398 0.000000 0.000000 0.000000
# 2 -0.008848 0.015250 -0.001398 0.000000 0.000000 0.000000
# 3 -0.001398 -0.001398 0.012670 0.000000 0.000000 0.000000
# 4 0.000000 0.000000 0.000000 0.068882 0.000000 0.000000
# 5 0.000000 0.000000 0.000000 0.000000 0.068882 0.000000
# 6 0.000000 0.000000 0.000000 0.000000 0.000000 0.048195
#
#
# Mechanical properties :
#
#
# Convention : Reuss Voigt Hill
#
# Bulk Modulus (GPa) = 50.30009 53.73350 52.01680
# Shear Modulus (GPa) = 19.30175 22.69049 20.99612
#
# Velocity S-wave (km/s) = 3.30777 3.58640 3.44990
# Velocity P-wave (km/s) = 6.56517 6.89993 6.73463
#
# Compressibility (1/GPa) = 0.01988068
#
# Stress axis : x y z
#
# Youngs Moduli (GPa) = 65.57508 65.57508 78.92696
#
# Poissons Ratio (x) = 0.58019 0.11036
# Poissons Ratio (y) = 0.58019 0.11036
# Poissons Ratio (z) = 0.09169 0.09169
#
# Static dielectric constant tensor:
#      x y z
#    x 1.602730 0.000000 0.000000 
#    y 0.000000 1.602730 0.000000 
#    z 0.000000 0.000000 1.643360 
# 
# From -- ./inp_files/4665.got.cif
#   From: 2010.05.17/outbox.cif.g08.bks.cpg/sg191_3_cif.got.tgz:4665.got - 2010.05.20 12:20:32.
