data_PCOD9587255
_publ_section_title
;
Structure prediction by ZEFSAII (Michael W. Deem and Ramdas Pophale) SiO2 
 PCOD9587255
Probable space group: P 6/M M M
;
_chemical_formula_sum "Si O2"
_cell_formula_units_Z 168
_cell_length_a 29.744657
_cell_length_b 29.744657
_cell_length_c 14.501636
_cell_angle_alpha 90.000000
_cell_angle_beta 90.000000
_cell_angle_gamma 120.000000
_cell_volume 11111.317616
_symmetry_space_group_name_H-M "P 6/M M M"
_symmetry_group_IT_number 191
_symmetry_cell_setting 'hexagonal'
loop_
_space_group_symop_operation_xyz
x,y,z
x-y,x,z
-y,x-y,z
-x,-y,z
-x+y,-x,z
y,-x+y,z
x-y,-y,-z
-x,-x+y,-z
y,x,-z
-y,-x,-z
-x+y,y,-z
x,x-y,-z
-x,-y,-z
-x+y,-x,-z
y,-x+y,-z
x,y,-z
x-y,x,-z
-y,x-y,-z
-x+y,y,z
x,x-y,z
-y,-x,z
y,x,z
x-y,-y,z
-x,-x+y,z
loop_
_atom_site_type_symbol
_atom_site_label
_atom_site_fract_x
_atom_site_fract_y
_atom_site_fract_z
Si Si1 0.218001 0.886557 0.799091
Si Si2 0.624282 0.863968 0.603375
Si Si3 0.119146 0.473863 0.392539
Si Si4 0.062022 0.581471 0.219947
Si Si5 0.161186 0.940969 0.890262
Si Si6 0.434789 0.667164 0.612038
Si Si7 0.391999 0.061801 0.110078
O O1 0.172575 0.827426 0.821112
O O2 0.226070 0.888956 0.688798
O O3 0.196287 0.922941 0.835575
O O4 0.273249 0.904952 0.846248
O O5 0.646380 0.880739 0.500000
O O6 0.604297 0.802149 0.608035
O O7 0.577667 0.876047 0.613820
O O8 0.109556 0.480531 0.500000
O O9 0.077802 0.473388 0.322638
O O10 0.174807 0.521501 0.363144
O O11 0.082171 0.541086 0.200321
O O12 0.078626 0.630235 0.152505
O O13 0.000000 0.548545 0.212728
O O14 0.101486 0.898515 0.871541
O O15 0.178372 0.000000 0.868489
O O16 0.170031 0.938188 0.000000
O O17 0.434861 0.668554 0.500000
O O18 0.445710 0.722855 0.645230
O O19 0.378461 0.621540 0.641140
O O20 0.354393 0.000000 0.131443
O O21 0.394593 0.066996 0.000000
#
# Coordination Sequence:
#
# PCOD9587255 Si02
#       7
#    24  24  24  24  24  24  24
#     4  10  18  29  48  73  99 124 151 186 229 275
#     4   9  17  29  45  66  93 124 155 183 215 264
#     4  10  18  30  47  64  85 116 149 180 219 270
#     4  10  21  35  48  63  84 110 146 192 234 273
#     4   9  17  29  47  72 101 132 164 198 235 274
#     4   9  16  25  39  60  85 111 139 172 209 252
#     4  10  20  34  51  68  88 116 149 186 229 277
#
# _framework density 15.119719
#
# number of rings (size 3 to 8) (size 9 to 14) (size 15 to 20)
#    0.000    2.429    1.429    1.857    0.000    5.714 
#    0.000    2.143    0.000    1.857    0.000    1.000 
#    0.000    0.000    0.000    0.000    0.000    2.143 
#
# Total GULP energy -935719.995767 kJ/mol
# GULP energy per Si atom -5569.761880 kJ/mol
# Density = 1.508531 g / cm^3
# Si number density = 15.119719 Si / 1000 Ang^3
#
#
#
# Elastic Constant Matrix: (Units=GPa)
#
#
# Indices 1 2 3 4 5 6 
#
# 1 69.8302 42.7246 36.7912 0.0000 0.0000 0.0000
# 2 42.7246 69.8302 36.7912 0.0000 0.0000 0.0000
# 3 36.7912 36.7912 63.3810 0.0000 0.0000 0.0000
# 4 0.0000 0.0000 0.0000 17.4541 0.0000 0.0000
# 5 0.0000 0.0000 0.0000 0.0000 17.4541 0.0000
# 6 0.0000 0.0000 0.0000 0.0000 0.0000 13.5528
#
#
#
# Elastic Compliance Matrix: (Units=1/GPa)
#
#
# Indices 1 2 3 4 5 6 
#
# 1 0.025605 -0.011287 -0.008311 0.000000 0.000000 0.000000
# 2 -0.011287 0.025605 -0.008311 0.000000 0.000000 0.000000
# 3 -0.008311 -0.008311 0.025427 0.000000 0.000000 0.000000
# 4 0.000000 0.000000 0.000000 0.057293 0.000000 0.000000
# 5 0.000000 0.000000 0.000000 0.000000 0.057293 0.000000
# 6 0.000000 0.000000 0.000000 0.000000 0.000000 0.073786
#
#
# Mechanical properties :
#
#
# Convention : Reuss Voigt Hill
#
# Bulk Modulus (GPa) = 48.03640 48.40615 48.22127
# Shear Modulus (GPa) = 15.25469 15.47451 15.36460
#
# Velocity S-wave (km/s) = 3.17981 3.20264 3.19124
# Velocity P-wave (km/s) = 6.73210 6.76466 6.74840
#
# Compressibility (1/GPa) = 0.02081755
#
# Stress axis : x y z
#
# Youngs Moduli (GPa) = 39.05424 39.05424 39.32895
#
# Poissons Ratio (x) = 0.44082 0.32687
# Poissons Ratio (y) = 0.44082 0.32687
# Poissons Ratio (z) = 0.32459 0.32459
#
# Static dielectric constant tensor:
#      x y z
#    x 1.507210 0.000000 0.000000 
#    y 0.000000 1.507210 0.000000 
#    z 0.000000 0.000000 1.494280 
# 
# From -- ./inp_files/3637.got.cif
#   From: 2010.05.17/outbox.cif.g08.bks.cpg/sg191_2_cif.got.tgz:3637.got - 2010.05.20 12:20:32.
