data_PCOD9587446
_publ_section_title
;
Structure prediction by ZEFSAII (Michael W. Deem and Ramdas Pophale) SiO2 
 PCOD9587446
Probable space group: P 6/M M M
;
_chemical_formula_sum "Si O2"
_cell_formula_units_Z 168
_cell_length_a 18.769534
_cell_length_b 18.769534
_cell_length_c 35.395910
_cell_angle_alpha 90.000000
_cell_angle_beta 90.000000
_cell_angle_gamma 120.000000
_cell_volume 10799.177874
_symmetry_space_group_name_H-M "P 6/M M M"
_symmetry_group_IT_number 191
_symmetry_cell_setting 'hexagonal'
loop_
_space_group_symop_operation_xyz
x,y,z
x-y,x,z
-y,x-y,z
-x,-y,z
-x+y,-x,z
y,-x+y,z
x-y,-y,-z
-x,-x+y,-z
y,x,-z
-y,-x,-z
-x+y,y,-z
x,x-y,-z
-x,-y,-z
-x+y,-x,-z
y,-x+y,-z
x,y,-z
x-y,x,-z
-y,x-y,-z
-x+y,y,z
x,x-y,z
-y,-x,z
y,x,z
x-y,-y,z
-x,-x+y,z
loop_
_atom_site_type_symbol
_atom_site_label
_atom_site_fract_x
_atom_site_fract_y
_atom_site_fract_z
Si Si1 0.744625 0.092552 0.955652
Si Si2 0.369697 0.467852 0.393726
Si Si3 0.650547 0.905115 0.456356
Si Si4 0.901817 0.531985 0.818555
Si Si5 0.332524 0.500355 0.689185
Si Si6 0.903156 0.262518 0.750231
Si Si7 0.333066 0.500845 0.901660
O O1 0.838515 0.161486 0.948090
O O2 0.688743 0.114049 0.929325
O O3 0.723111 0.000000 0.948579
O O4 0.728268 0.099199 0.000000
O O5 0.441690 0.558311 0.405311
O O6 0.414487 0.414487 0.386376
O O7 0.305243 0.422405 0.426940
O O8 0.332290 0.476585 0.354558
O O9 0.622379 0.898186 0.500000
O O10 0.682690 0.841345 0.451345
O O11 0.718278 0.000000 0.450055
O O12 0.879546 0.439773 0.806214
O O13 0.885011 0.582621 0.787006
O O14 0.857869 0.524631 0.858213
O O15 0.000000 0.581466 0.825163
O O16 0.262393 0.524785 0.695302
O O17 0.422974 0.577027 0.697661
O O18 0.307248 0.421140 0.715174
O O19 0.834440 0.165561 0.748554
O O20 0.000000 0.289851 0.750852
O O21 0.261773 0.523545 0.906772
O O22 0.421792 0.578209 0.909638
#
# Coordination Sequence:
#
# PCOD9587446 Si02
#       7
#    24  24  24  24  24  24  24
#     4   9  18  32  49  68  89 114 145 182 225 272
#     4   9  17  28  43  64  88 115 148 183 217 254
#     4   9  17  29  45  64  86 113 146 184 224 265
#     4   9  17  29  46  68  92 118 149 184 221 261
#     4  10  19  30  45  66  93 123 152 181 213 252
#     4  10  20  33  49  68  90 117 149 185 224 266
#     4  10  19  30  44  64  92 125 159 192 223 254
#
# _framework density 15.556739
#
# number of rings (size 3 to 8) (size 9 to 14) (size 15 to 20)
#    0.000    2.571    0.000    2.429    0.000    2.857 
#    0.000    2.143    0.000    6.143    0.000    2.000 
#    0.000    0.000    0.000    9.143    0.000    6.286 
#
# Total GULP energy -936066.033307 kJ/mol
# GULP energy per Si atom -5571.821627 kJ/mol
# Density = 1.552133 g / cm^3
# Si number density = 15.556739 Si / 1000 Ang^3
#
#
#
# Elastic Constant Matrix: (Units=GPa)
#
#
# Indices 1 2 3 4 5 6 
#
# 1 84.5103 57.1315 46.0545 0.0000 0.0000 0.0000
# 2 57.1315 84.5103 46.0545 0.0000 0.0000 0.0000
# 3 46.0545 46.0545 58.1031 0.0000 0.0000 0.0000
# 4 0.0000 0.0000 0.0000 21.9266 0.0000 0.0000
# 5 0.0000 0.0000 0.0000 0.0000 21.9266 0.0000
# 6 0.0000 0.0000 0.0000 0.0000 0.0000 13.6894
#
#
#
# Elastic Compliance Matrix: (Units=1/GPa)
#
#
# Indices 1 2 3 4 5 6 
#
# 1 0.025547 -0.010977 -0.011549 0.000000 0.000000 0.000000
# 2 -0.010977 0.025547 -0.011549 0.000000 0.000000 0.000000
# 3 -0.011549 -0.011549 0.035519 0.000000 0.000000 0.000000
# 4 0.000000 0.000000 0.000000 0.045607 0.000000 0.000000
# 5 0.000000 0.000000 0.000000 0.000000 0.045607 0.000000
# 6 0.000000 0.000000 0.000000 0.000000 0.000000 0.073049
#
#
# Mechanical properties :
#
#
# Convention : Reuss Voigt Hill
#
# Bulk Modulus (GPa) = 54.15992 58.40053 56.28022
# Shear Modulus (GPa) = 15.37605 16.70071 16.03838
#
# Velocity S-wave (km/s) = 3.14727 3.28004 3.21434
# Velocity P-wave (km/s) = 6.93521 7.20879 7.07332
#
# Compressibility (1/GPa) = 0.01846384
#
# Stress axis : x y z
#
# Youngs Moduli (GPa) = 39.14289 39.14289 28.15406
#
# Poissons Ratio (x) = 0.42968 0.32515
# Poissons Ratio (y) = 0.42968 0.32515
# Poissons Ratio (z) = 0.45206 0.45206
#
# Static dielectric constant tensor:
#      x y z
#    x 1.510940 0.000000 0.000000 
#    y 0.000000 1.510940 0.000000 
#    z 0.000000 0.000000 1.515200 
# 
# From -- ./inp_files/10760.got.cif
#   From: 2010.05.17/outbox.cif.g08.bks.cpg/sg191_6_cif.got.tgz:10760.got - 2010.05.20 12:20:32.
