data_PCOD9587378
_publ_section_title
;
Structure prediction by ZEFSAII (Michael W. Deem and Ramdas Pophale) SiO2 
 PCOD9587378
Probable space group: P 6/M M M
;
_chemical_formula_sum "Si O2"
_cell_formula_units_Z 132
_cell_length_a 18.432913
_cell_length_b 18.432913
_cell_length_c 28.416623
_cell_angle_alpha 90.000000
_cell_angle_beta 90.000000
_cell_angle_gamma 120.000000
_cell_volume 8361.631880
_symmetry_space_group_name_H-M "P 6/M M M"
_symmetry_group_IT_number 191
_symmetry_cell_setting 'hexagonal'
loop_
_space_group_symop_operation_xyz
x,y,z
x-y,x,z
-y,x-y,z
-x,-y,z
-x+y,-x,z
y,-x+y,z
x-y,-y,-z
-x,-x+y,-z
y,x,-z
-y,-x,-z
-x+y,y,-z
x,x-y,-z
-x,-y,-z
-x+y,-x,-z
y,-x+y,-z
x,y,-z
x-y,x,-z
-y,x-y,-z
-x+y,y,z
x,x-y,z
-y,-x,z
y,x,z
x-y,-y,z
-x,-x+y,z
loop_
_atom_site_type_symbol
_atom_site_label
_atom_site_fract_x
_atom_site_fract_y
_atom_site_fract_z
Si Si1 0.904828 0.264848 0.731922
Si Si2 0.668936 0.502269 0.652401
Si Si3 0.467575 0.367702 0.086024
Si Si4 0.833644 0.332578 0.190212
Si Si5 0.359581 0.260526 0.000000
Si Si6 0.097618 0.460957 0.448548
O O1 0.832600 0.167401 0.731095
O O2 0.887089 0.309387 0.687937
O O3 0.888100 0.306344 0.777707
O O4 0.000000 0.285843 0.731167
O O5 0.736604 0.473208 0.662014
O O6 0.575196 0.424805 0.658261
O O7 0.680523 0.534932 0.598754
O O8 0.560024 0.439977 0.070192
O O9 0.415432 0.415432 0.094981
O O10 0.477229 0.331704 0.135327
O O11 0.418518 0.301032 0.045588
O O12 0.849327 0.424664 0.201533
O O13 0.737371 0.262630 0.199052
O O14 0.292580 0.292580 0.000000
O O15 0.323292 0.161646 0.000000
O O16 0.128818 0.451495 0.500000
O O17 0.099700 0.549850 0.449688
O O18 0.000000 0.391079 0.444290
#
# Coordination Sequence:
#
# PCOD9587378 Si02
#       6
#    24  24  24  24  12  24
#     4  10  21  35  51  70  90 114 145 183 226 270
#     4  10  19  29  42  62  90 123 157 190 222 257
#     4   9  17  29  46  67  90 118 152 189 227 267
#     4  10  19  30  45  67  97 130 161 189 216 248
#     4  10  19  31  47  66  89 117 152 192 233 277
#     4   8  14  25  40  56  75 105 149 197 237 268
#
# _framework density 15.786391999999999
#
# number of rings (size 3 to 8) (size 9 to 14) (size 15 to 20)
#    0.000    2.545    0.000    3.364    0.000    4.364 
#    0.000    1.818    0.000    3.909    0.000    0.000 
#    0.000    0.000    0.000    5.818    0.000    0.000 
#
# Total GULP energy -735653.752203 kJ/mol
# GULP energy per Si atom -5573.134486 kJ/mol
# Density = 1.575046 g / cm^3
# Si number density = 15.786392 Si / 1000 Ang^3
#
#
#
# Elastic Constant Matrix: (Units=GPa)
#
#
# Indices 1 2 3 4 5 6 
#
# 1 73.3174 47.9242 31.8152 0.0000 0.0000 0.0000
# 2 47.9242 73.3174 31.8152 0.0000 0.0000 0.0000
# 3 31.8152 31.8152 67.1168 0.0000 0.0000 0.0000
# 4 0.0000 0.0000 0.0000 17.2136 0.0000 0.0000
# 5 0.0000 0.0000 0.0000 0.0000 17.2136 0.0000
# 6 0.0000 0.0000 0.0000 0.0000 0.0000 12.6966
#
#
#
# Elastic Compliance Matrix: (Units=1/GPa)
#
#
# Indices 1 2 3 4 5 6 
#
# 1 0.025180 -0.014201 -0.005205 0.000000 0.000000 0.000000
# 2 -0.014201 0.025180 -0.005205 0.000000 0.000000 0.000000
# 3 -0.005205 -0.005205 0.019834 0.000000 0.000000 0.000000
# 4 0.000000 0.000000 0.000000 0.058094 0.000000 0.000000
# 5 0.000000 0.000000 0.000000 0.000000 0.058094 0.000000
# 6 0.000000 0.000000 0.000000 0.000000 0.000000 0.078761
#
#
# Mechanical properties :
#
#
# Convention : Reuss Voigt Hill
#
# Bulk Modulus (GPa) = 47.67743 48.54008 48.10875
# Shear Modulus (GPa) = 15.55919 16.23787 15.89853
#
# Velocity S-wave (km/s) = 3.14284 3.21066 3.17693
# Velocity P-wave (km/s) = 6.59068 6.67527 6.63311
#
# Compressibility (1/GPa) = 0.02097429
#
# Stress axis : x y z
#
# Youngs Moduli (GPa) = 39.71393 39.71393 50.41946
#
# Poissons Ratio (x) = 0.56396 0.26241
# Poissons Ratio (y) = 0.56396 0.26241
# Poissons Ratio (z) = 0.20669 0.20669
#
# Static dielectric constant tensor:
#      x y z
#    x 1.515910 0.000000 0.000000 
#    y 0.000000 1.515910 0.000000 
#    z 0.000000 0.000000 1.550140 
# 
# From -- ./inp_files/9769.got.cif
#   From: 2010.05.17/outbox.cif.g08.bks.cpg/sg191_5_cif.got.tgz:9769.got - 2010.05.20 12:20:32.
