data_PCOD9587651
_publ_section_title
;
Structure prediction by ZEFSAII (Michael W. Deem and Ramdas Pophale) SiO2 
 PCOD9587651
Probable space group: P 6/M M M
;
_chemical_formula_sum "Si O2"
_cell_formula_units_Z 168
_cell_length_a 22.260900
_cell_length_b 22.260900
_cell_length_c 23.628868
_cell_angle_alpha 90.000000
_cell_angle_beta 90.000000
_cell_angle_gamma 120.000000
_cell_volume 10140.491032
_symmetry_space_group_name_H-M "P 6/M M M"
_symmetry_group_IT_number 191
_symmetry_cell_setting 'hexagonal'
loop_
_space_group_symop_operation_xyz
x,y,z
x-y,x,z
-y,x-y,z
-x,-y,z
-x+y,-x,z
y,-x+y,z
x-y,-y,-z
-x,-x+y,-z
y,x,-z
-y,-x,-z
-x+y,y,-z
x,x-y,-z
-x,-y,-z
-x+y,-x,-z
y,-x+y,-z
x,y,-z
x-y,x,-z
-y,x-y,-z
-x+y,y,z
x,x-y,z
-y,-x,z
y,x,z
x-y,-y,z
-x,-x+y,z
loop_
_atom_site_type_symbol
_atom_site_label
_atom_site_fract_x
_atom_site_fract_y
_atom_site_fract_z
Si Si1 0.078895 0.296280 0.849490
Si Si2 0.524794 0.191576 0.432915
Si Si3 0.609703 0.077040 0.225757
Si Si4 0.416193 0.335963 0.651720
Si Si5 0.190278 0.666104 0.864665
Si Si6 0.705965 0.785111 0.281948
Si Si7 0.328895 0.408189 0.065614
O O1 0.138686 0.277372 0.859362
O O2 0.085745 0.319219 0.783463
O O3 0.088120 0.355406 0.893216
O O4 0.000000 0.234210 0.856160
O O5 0.510895 0.177810 0.500000
O O6 0.596622 0.193244 0.420403
O O7 0.532248 0.266124 0.421060
O O8 0.463656 0.133180 0.395621
O O9 0.536572 0.073144 0.216140
O O10 0.627589 0.087518 0.291752
O O11 0.662037 0.142680 0.188856
O O12 0.596622 0.000000 0.210542
O O13 0.380453 0.380453 0.632906
O O14 0.355494 0.262682 0.675374
O O15 0.205949 0.602975 0.860794
O O16 0.260409 0.739592 0.868173
O O17 0.138206 0.653655 0.916514
O O18 0.729259 0.864630 0.290171
O O19 0.765364 0.765364 0.289405
O O20 0.391405 0.391405 0.073501
O O21 0.308171 0.394752 0.000000
#
# Coordination Sequence:
#
# PCOD9587651 Si02
#       7
#    24  24  24  24  24  24  24
#     4   9  17  30  49  73 100 128 158 194 237 282
#     4  10  21  36  52  69  93 129 171 209 241 277
#     4   9  18  33  52  72  94 121 155 196 237 276
#     4  10  19  31  50  76 101 123 153 196 247 296
#     4  11  23  37  52  71  97 127 156 187 228 281
#     4   9  17  29  47  71  98 127 157 191 233 282
#     4  10  21  36  54  74  92 114 152 201 245 282
#
# _framework density 16.567245
#
# number of rings (size 3 to 8) (size 9 to 14) (size 15 to 20)
#    0.000    2.286    0.000    2.857    0.000    8.571 
#    0.000    1.429    0.000    2.857    0.000    2.000 
#    0.000    0.000    0.000    3.571    0.000    3.714 
#
# Total GULP energy -936954.023883 kJ/mol
# GULP energy per Si atom -5577.107285 kJ/mol
# Density = 1.652954 g / cm^3
# Si number density = 16.567245 Si / 1000 Ang^3
#
#
#
# Elastic Constant Matrix: (Units=GPa)
#
#
# Indices 1 2 3 4 5 6 
#
# 1 103.0372 71.1461 47.0277 0.0000 0.0000 0.0000
# 2 71.1461 103.0372 47.0277 0.0000 0.0000 0.0000
# 3 47.0277 47.0277 68.8173 0.0000 0.0000 0.0000
# 4 0.0000 0.0000 0.0000 18.2169 0.0000 0.0000
# 5 0.0000 0.0000 0.0000 0.0000 18.2169 0.0000
# 6 0.0000 0.0000 0.0000 0.0000 0.0000 15.9455
#
#
#
# Elastic Compliance Matrix: (Units=1/GPa)
#
#
# Indices 1 2 3 4 5 6 
#
# 1 0.020228 -0.011129 -0.006218 0.000000 0.000000 0.000000
# 2 -0.011129 0.020228 -0.006218 0.000000 0.000000 0.000000
# 3 -0.006218 -0.006218 0.023029 0.000000 0.000000 0.000000
# 4 0.000000 0.000000 0.000000 0.054894 0.000000 0.000000
# 5 0.000000 0.000000 0.000000 0.000000 0.054894 0.000000
# 6 0.000000 0.000000 0.000000 0.000000 0.000000 0.062713
#
#
# Mechanical properties :
#
#
# Convention : Reuss Voigt Hill
#
# Bulk Modulus (GPa) = 61.14130 67.25493 64.19812
# Shear Modulus (GPa) = 17.32703 17.78855 17.55779
#
# Velocity S-wave (km/s) = 3.23749 3.28032 3.25897
# Velocity P-wave (km/s) = 7.13864 7.41826 7.27979
#
# Compressibility (1/GPa) = 0.01635556
#
# Stress axis : x y z
#
# Youngs Moduli (GPa) = 49.43742 49.43742 43.42331
#
# Poissons Ratio (x) = 0.55020 0.26999
# Poissons Ratio (y) = 0.55020 0.26999
# Poissons Ratio (z) = 0.30738 0.30738
#
# Static dielectric constant tensor:
#      x y z
#    x 1.563480 0.000000 0.000000 
#    y 0.000000 1.563480 0.000000 
#    z 0.000000 0.000000 1.557010 
# 
# From -- ./inp_files/9029.got.cif
#   From: 2010.05.17/outbox.cif.g08.bks.cpg/sg191_5_cif.got.tgz:9029.got - 2010.05.20 12:20:32.
