data_PCOD9587300
_publ_section_title
;
Structure prediction by ZEFSAII (Michael W. Deem and Ramdas Pophale) SiO2 
 PCOD9587300
Probable space group: P 6/M M M
;
_chemical_formula_sum "Si O2"
_cell_formula_units_Z 168
_cell_length_a 29.615161
_cell_length_b 29.615161
_cell_length_c 14.091757
_cell_angle_alpha 90.000000
_cell_angle_beta 90.000000
_cell_angle_gamma 120.000000
_cell_volume 10703.454647
_symmetry_space_group_name_H-M "P 6/M M M"
_symmetry_group_IT_number 191
_symmetry_cell_setting 'hexagonal'
loop_
_space_group_symop_operation_xyz
x,y,z
x-y,x,z
-y,x-y,z
-x,-y,z
-x+y,-x,z
y,-x+y,z
x-y,-y,-z
-x,-x+y,-z
y,x,-z
-y,-x,-z
-x+y,y,-z
x,x-y,-z
-x,-y,-z
-x+y,-x,-z
y,-x+y,-z
x,y,-z
x-y,x,-z
-y,x-y,-z
-x+y,y,z
x,x-y,z
-y,-x,z
y,x,z
x-y,-y,z
-x,-x+y,z
loop_
_atom_site_type_symbol
_atom_site_label
_atom_site_fract_x
_atom_site_fract_y
_atom_site_fract_z
Si Si1 0.647963 0.585071 0.609768
Si Si2 0.332594 0.567074 0.613063
Si Si3 0.742156 0.062398 0.702746
Si Si4 0.231580 0.357895 0.106399
Si Si5 0.486378 0.618541 0.734389
Si Si6 0.837998 0.059914 0.385559
Si Si7 0.483688 0.293635 0.890030
O O1 0.647156 0.568205 0.500000
O O2 0.614239 0.614239 0.612189
O O3 0.706736 0.627629 0.641579
O O4 0.625122 0.538566 0.686385
O O5 0.330905 0.561976 0.500000
O O6 0.275286 0.550571 0.647922
O O7 0.372517 0.627484 0.635807
O O8 0.356940 0.535091 0.657045
O O9 0.752417 0.087162 0.806738
O O10 0.796137 0.074974 0.653623
O O11 0.708685 0.000000 0.709434
O O12 0.171291 0.342582 0.114753
O O13 0.264321 0.420727 0.113205
O O14 0.240092 0.343459 0.000000
O O15 0.441038 0.558963 0.751419
O O16 0.495978 0.655453 0.825222
O O17 0.835863 0.060004 0.500000
O O18 0.896111 0.103890 0.356309
O O19 0.818133 0.000000 0.356001
O O20 0.498214 0.249107 0.861587
O O21 0.499513 0.307157 0.000000
#
# Coordination Sequence:
#
# PCOD9587300 Si02
#       7
#    24  24  24  24  24  24  24
#     4  10  21  36  51  68  94 128 164 203 246 291
#     4   9  17  29  45  66  92 119 144 174 220 278
#     4  10  18  30  49  71  98 129 162 205 250 292
#     4   9  17  30  49  71  95 123 155 191 233 288
#     4  11  21  33  51  72  94 120 156 199 236 277
#     4   9  17  29  46  70 101 137 174 210 250 295
#     4   9  18  34  54  73  95 122 150 186 237 291
#
# _framework density 15.695866000000001
#
# number of rings (size 3 to 8) (size 9 to 14) (size 15 to 20)
#    0.000    2.429    1.429    2.714    0.000    4.000 
#    0.000    0.714    0.000    4.286    0.000    2.000 
#    0.000    0.000    0.000    0.000    0.000    0.000 
#
# Total GULP energy -935477.991436 kJ/mol
# GULP energy per Si atom -5568.321378 kJ/mol
# Density = 1.566014 g / cm^3
# Si number density = 15.695866 Si / 1000 Ang^3
#
#
#
# Elastic Constant Matrix: (Units=GPa)
#
#
# Indices 1 2 3 4 5 6 
#
# 1 68.4600 30.4945 32.6153 0.0000 0.0000 0.0000
# 2 30.4945 68.4600 32.6153 0.0000 0.0000 0.0000
# 3 32.6153 32.6153 69.9781 0.0000 0.0000 0.0000
# 4 0.0000 0.0000 0.0000 25.0471 0.0000 0.0000
# 5 0.0000 0.0000 0.0000 0.0000 25.0471 0.0000
# 6 0.0000 0.0000 0.0000 0.0000 0.0000 18.9827
#
#
#
# Elastic Compliance Matrix: (Units=1/GPa)
#
#
# Indices 1 2 3 4 5 6 
#
# 1 0.020464 -0.005876 -0.006799 0.000000 0.000000 0.000000
# 2 -0.005876 0.020464 -0.006799 0.000000 0.000000 0.000000
# 3 -0.006799 -0.006799 0.020628 0.000000 0.000000 0.000000
# 4 0.000000 0.000000 0.000000 0.039925 0.000000 0.000000
# 5 0.000000 0.000000 0.000000 0.000000 0.039925 0.000000
# 6 0.000000 0.000000 0.000000 0.000000 0.000000 0.052679
#
#
# Mechanical properties :
#
#
# Convention : Reuss Voigt Hill
#
# Bulk Modulus (GPa) = 44.23378 44.26091 44.24734
# Shear Modulus (GPa) = 20.78417 21.22691 21.00554
#
# Velocity S-wave (km/s) = 3.64288 3.68147 3.66223
# Velocity P-wave (km/s) = 6.77769 6.80671 6.79221
#
# Compressibility (1/GPa) = 0.02260716
#
# Stress axis : x y z
#
# Youngs Moduli (GPa) = 48.86725 48.86725 48.47817
#
# Poissons Ratio (x) = 0.28715 0.32960
# Poissons Ratio (y) = 0.28715 0.32960
# Poissons Ratio (z) = 0.33224 0.33224
#
# Static dielectric constant tensor:
#      x y z
#    x 1.854360 0.000000 0.000000 
#    y 0.000000 1.854360 0.000000 
#    z 0.000000 0.000000 1.520040 
# 
# From -- ./inp_files/3622.got.cif
#   From: 2010.05.17/outbox.cif.g08.bks.cpg/sg191_2_cif.got.tgz:3622.got - 2010.05.20 12:20:32.
