data_PCOD9587725
_publ_section_title
;
Structure prediction by ZEFSAII (Michael W. Deem and Ramdas Pophale) SiO2 
 PCOD9587725
Probable space group: P 6/M M M
;
_chemical_formula_sum "Si O2"
_cell_formula_units_Z 144
_cell_length_a 21.587263
_cell_length_b 21.587263
_cell_length_c 22.326736
_cell_angle_alpha 90.000000
_cell_angle_beta 90.000000
_cell_angle_gamma 120.000000
_cell_volume 9010.544463
_symmetry_space_group_name_H-M "P 6/M M M"
_symmetry_group_IT_number 191
_symmetry_cell_setting 'hexagonal'
loop_
_space_group_symop_operation_xyz
x,y,z
x-y,x,z
-y,x-y,z
-x,-y,z
-x+y,-x,z
y,-x+y,z
x-y,-y,-z
-x,-x+y,-z
y,x,-z
-y,-x,-z
-x+y,y,-z
x,x-y,-z
-x,-y,-z
-x+y,-x,-z
y,-x+y,-z
x,y,-z
x-y,x,-z
-y,x-y,-z
-x+y,y,z
x,x-y,z
-y,-x,z
y,x,z
x-y,-y,z
-x,-x+y,z
loop_
_atom_site_type_symbol
_atom_site_label
_atom_site_fract_x
_atom_site_fract_y
_atom_site_fract_z
Si Si1 0.913775 0.456888 0.933124
Si Si2 0.780411 0.700539 0.430923
Si Si3 0.183714 0.517200 0.260844
Si Si4 0.569971 0.915195 0.371579
Si Si5 0.694335 0.776034 0.930630
Si Si6 0.467495 0.386775 0.500000
Si Si7 0.914839 0.572341 0.849106
O O1 0.895654 0.508722 0.895977
O O2 0.000000 0.500000 0.937566
O O3 0.883888 0.441944 0.000000
O O4 0.761609 0.671396 0.500000
O O5 0.860781 0.721563 0.420754
O O6 0.765129 0.765129 0.428118
O O7 0.729461 0.642643 0.382489
O O8 0.261397 0.522794 0.264388
O O9 0.190637 0.595319 0.253045
O O10 0.135621 0.479502 0.319650
O O11 0.136865 0.464157 0.206966
O O12 0.532633 0.887243 0.436055
O O13 0.594485 0.000000 0.363749
O O14 0.715898 0.857949 0.922432
O O15 0.757295 0.757295 0.923302
O O16 0.632788 0.726475 0.883903
O O17 0.668433 0.756179 0.000000
O O18 0.399060 0.399060 0.500000
O O19 0.536779 0.463222 0.500000
O O20 0.000000 0.608591 0.833040
#
# Coordination Sequence:
#
# PCOD9587725 Si02
#       7
#    12  24  24  24  24  12  24
#     4   9  16  28  50  80 106 123 149 197 257 314
#     4   9  16  28  47  72 100 127 157 196 244 294
#     4  12  25  39  51  67  95 138 177 209 246 304
#     4  10  19  33  54  77  98 120 156 208 262 308
#     4   9  17  30  50  77 107 137 169 207 252 300
#     4   9  16  28  47  74  99 116 140 188 252 309
#     4  10  19  33  53  77 101 126 162 210 262 309
#
# _framework density 15.981275999999999
#
# number of rings (size 3 to 8) (size 9 to 14) (size 15 to 20)
#    0.000    2.167    1.667    2.667    0.000    3.667 
#    0.000    0.000    0.000    0.333    0.000    3.500 
#    0.000    0.000    0.000    0.000    0.000   34.667 
#
# Total GULP energy -801872.489320 kJ/mol
# GULP energy per Si atom -5568.558954 kJ/mol
# Density = 1.594490 g / cm^3
# Si number density = 15.981276 Si / 1000 Ang^3
#
#
#
# Elastic Constant Matrix: (Units=GPa)
#
#
# Indices 1 2 3 4 5 6 
#
# 1 95.4533 63.0854 51.8041 0.0000 0.0000 0.0000
# 2 63.0854 95.4533 51.8041 0.0000 0.0000 0.0000
# 3 51.8041 51.8041 113.1761 0.0000 0.0000 0.0000
# 4 0.0000 0.0000 0.0000 17.3963 0.0000 0.0000
# 5 0.0000 0.0000 0.0000 0.0000 17.3963 0.0000
# 6 0.0000 0.0000 0.0000 0.0000 0.0000 16.1840
#
#
#
# Elastic Compliance Matrix: (Units=1/GPa)
#
#
# Indices 1 2 3 4 5 6 
#
# 1 0.019947 -0.010948 -0.004119 0.000000 0.000000 0.000000
# 2 -0.010948 0.019947 -0.004119 0.000000 0.000000 0.000000
# 3 -0.004119 -0.004119 0.012607 0.000000 0.000000 0.000000
# 4 0.000000 0.000000 0.000000 0.057483 0.000000 0.000000
# 5 0.000000 0.000000 0.000000 0.000000 0.057483 0.000000
# 6 0.000000 0.000000 0.000000 0.000000 0.000000 0.061790
#
#
# Mechanical properties :
#
#
# Convention : Reuss Voigt Hill
#
# Bulk Modulus (GPa) = 70.77810 70.83000 70.80405
# Shear Modulus (GPa) = 18.35939 19.35460 18.85699
#
# Velocity S-wave (km/s) = 3.39308 3.48383 3.43876
# Velocity P-wave (km/s) = 7.72884 7.78458 7.75676
#
# Compressibility (1/GPa) = 0.01412866
#
# Stress axis : x y z
#
# Youngs Moduli (GPa) = 50.13216 50.13216 79.32109
#
# Poissons Ratio (x) = 0.54882 0.32676
# Poissons Ratio (y) = 0.54882 0.32676
# Poissons Ratio (z) = 0.20652 0.20652
#
# Static dielectric constant tensor:
#      x y z
#    x 1.532630 0.000000 0.000000 
#    y 0.000000 1.532630 0.000000 
#    z 0.000000 0.000000 1.555850 
# 
# From -- ./inp_files/7665.got.cif
#   From: 2010.05.17/outbox.cif.g08.bks.cpg/sg191_4_cif.got.tgz:7665.got - 2010.05.20 12:20:32.
