data_PCOD9587551
_publ_section_title
;
Structure prediction by ZEFSAII (Michael W. Deem and Ramdas Pophale) SiO2 
 PCOD9587551
Probable space group: P 6/M M M
;
_chemical_formula_sum "Si O2"
_cell_formula_units_Z 168
_cell_length_a 22.813621
_cell_length_b 22.813621
_cell_length_c 22.119768
_cell_angle_alpha 90.000000
_cell_angle_beta 90.000000
_cell_angle_gamma 120.000000
_cell_volume 9970.102980
_symmetry_space_group_name_H-M "P 6/M M M"
_symmetry_group_IT_number 191
_symmetry_cell_setting 'hexagonal'
loop_
_space_group_symop_operation_xyz
x,y,z
x-y,x,z
-y,x-y,z
-x,-y,z
-x+y,-x,z
y,-x+y,z
x-y,-y,-z
-x,-x+y,-z
y,x,-z
-y,-x,-z
-x+y,y,-z
x,x-y,-z
-x,-y,-z
-x+y,-x,-z
y,-x+y,-z
x,y,-z
x-y,x,-z
-y,x-y,-z
-x+y,y,z
x,x-y,z
-y,-x,z
y,x,z
x-y,-y,z
-x,-x+y,z
loop_
_atom_site_type_symbol
_atom_site_label
_atom_site_fract_x
_atom_site_fract_y
_atom_site_fract_z
Si Si1 0.921725 0.311198 0.168202
Si Si2 0.076485 0.789565 0.405351
Si Si3 0.666428 0.470651 0.203873
Si Si4 0.530531 0.197118 0.651566
Si Si5 0.654448 0.078496 0.431009
Si Si6 0.287725 0.076857 0.928394
Si Si7 0.791388 0.076077 0.259808
O O1 0.867881 0.335716 0.171584
O O2 0.911389 0.263020 0.111202
O O3 0.911136 0.263594 0.226380
O O4 0.000000 0.369933 0.168495
O O5 0.137001 0.863000 0.423925
O O6 0.087507 0.729395 0.429043
O O7 0.078612 0.785916 0.332151
O O8 0.000000 0.770013 0.422146
O O9 0.735658 0.471316 0.189004
O O10 0.601414 0.398587 0.189846
O O11 0.666692 0.481090 0.276467
O O12 0.606946 0.213892 0.639875
O O13 0.521326 0.260663 0.635147
O O14 0.479170 0.131209 0.614393
O O15 0.639879 0.089355 0.500000
O O16 0.603595 0.000000 0.414513
O O17 0.269792 0.134896 0.913932
O O18 0.229271 0.000000 0.915337
O O19 0.302430 0.080930 0.000000
O O20 0.865664 0.134337 0.241785
O O21 0.771998 0.000000 0.243044
#
# Coordination Sequence:
#
# PCOD9587551 Si02
#       7
#    24  24  24  24  24  24  24
#     4  10  19  30  47  72  98 122 153 195 239 279
#     4   9  17  29  45  65  89 116 146 182 226 274
#     4  10  20  34  52  73  98 126 155 188 228 277
#     4  10  21  36  53  72  95 124 156 189 226 271
#     4  10  21  35  50  69  92 118 150 189 232 275
#     4   9  17  29  46  69  98 132 168 205 245 288
#     4   9  16  26  42  64  89 116 147 185 228 272
#
# _framework density 16.850377999999999
#
# number of rings (size 3 to 8) (size 9 to 14) (size 15 to 20)
#    0.000    2.429    0.000    2.857    0.000    7.143 
#    0.000    2.143    0.000    1.714    0.000    5.000 
#    0.000    4.571    0.000    3.857    0.000    3.714 
#
# Total GULP energy -937193.249618 kJ/mol
# GULP energy per Si atom -5578.531248 kJ/mol
# Density = 1.681203 g / cm^3
# Si number density = 16.850378 Si / 1000 Ang^3
#
#
#
# Elastic Constant Matrix: (Units=GPa)
#
#
# Indices 1 2 3 4 5 6 
#
# 1 94.9494 63.1515 30.7175 0.0000 0.0000 0.0000
# 2 63.1515 94.9494 30.7175 0.0000 0.0000 0.0000
# 3 30.7175 30.7175 42.1715 0.0000 0.0000 0.0000
# 4 0.0000 0.0000 0.0000 8.3219 0.0000 0.0000
# 5 0.0000 0.0000 0.0000 0.0000 8.3219 0.0000
# 6 0.0000 0.0000 0.0000 0.0000 0.0000 15.8990
#
#
#
# Elastic Compliance Matrix: (Units=1/GPa)
#
#
# Indices 1 2 3 4 5 6 
#
# 1 0.020135 -0.011313 -0.006426 0.000000 0.000000 0.000000
# 2 -0.011313 0.020135 -0.006426 0.000000 0.000000 0.000000
# 3 -0.006426 -0.006426 0.033074 0.000000 0.000000 0.000000
# 4 0.000000 0.000000 0.000000 0.120165 0.000000 0.000000
# 5 0.000000 0.000000 0.000000 0.000000 0.120165 0.000000
# 6 0.000000 0.000000 0.000000 0.000000 0.000000 0.062897
#
#
# Mechanical properties :
#
#
# Convention : Reuss Voigt Hill
#
# Bulk Modulus (GPa) = 39.97713 53.47147 46.72430
# Shear Modulus (GPa) = 11.54094 13.67414 12.60754
#
# Velocity S-wave (km/s) = 2.61991 2.85178 2.73830
# Velocity P-wave (km/s) = 5.73831 6.53035 6.14710
#
# Compressibility (1/GPa) = 0.02501430
#
# Stress axis : x y z
#
# Youngs Moduli (GPa) = 49.66393 49.66393 30.23527
#
# Poissons Ratio (x) = 0.56186 0.19429
# Poissons Ratio (y) = 0.56186 0.19429
# Poissons Ratio (z) = 0.31914 0.31914
#
# Static dielectric constant tensor:
#      x y z
#    x 1.558400 0.000000 0.000000 
#    y 0.000000 1.558400 0.000000 
#    z 0.000000 0.000000 1.586010 
# 
# From -- ./inp_files/8995.got.cif
#   From: 2010.05.17/outbox.cif.g08.bks.cpg/sg191_5_cif.got.tgz:8995.got - 2010.05.20 12:20:32.
