data_PCOD9587231
_publ_section_title
;
Structure prediction by ZEFSAII (Michael W. Deem and Ramdas Pophale) SiO2 
 PCOD9587231
Probable space group: P 6/M M M
;
_chemical_formula_sum "Si O2"
_cell_formula_units_Z 156
_cell_length_a 22.447720
_cell_length_b 22.447720
_cell_length_c 23.044560
_cell_angle_alpha 90.000000
_cell_angle_beta 90.000000
_cell_angle_gamma 120.000000
_cell_volume 10056.422828
_symmetry_space_group_name_H-M "P 6/M M M"
_symmetry_group_IT_number 191
_symmetry_cell_setting 'hexagonal'
loop_
_space_group_symop_operation_xyz
x,y,z
x-y,x,z
-y,x-y,z
-x,-y,z
-x+y,-x,z
y,-x+y,z
x-y,-y,-z
-x,-x+y,-z
y,x,-z
-y,-x,-z
-x+y,y,-z
x,x-y,-z
-x,-y,-z
-x+y,-x,-z
y,-x+y,-z
x,y,-z
x-y,x,-z
-y,x-y,-z
-x+y,y,z
x,x-y,z
-y,-x,z
y,x,z
x-y,-y,z
-x,-x+y,z
loop_
_atom_site_type_symbol
_atom_site_label
_atom_site_fract_x
_atom_site_fract_y
_atom_site_fract_z
Si Si1 0.783879 0.079486 0.000000
Si Si2 0.333764 0.526697 0.145795
Si Si3 0.707454 0.921503 0.431265
Si Si4 0.920915 0.705682 0.775158
Si Si5 0.694799 0.615067 0.667815
Si Si6 0.621648 0.701410 0.112614
Si Si7 0.806744 0.333803 0.285062
O O1 0.747569 0.089697 0.943591
O O2 0.863829 0.136172 0.000000
O O3 0.764922 0.000000 0.000000
O O4 0.266779 0.533557 0.133576
O O5 0.403596 0.596405 0.130597
O O6 0.325845 0.459015 0.115355
O O7 0.334834 0.516371 0.215493
O O8 0.692921 0.917842 0.500000
O O9 0.728003 0.864002 0.417842
O O10 0.642203 0.907058 0.392583
O O11 0.765539 0.000000 0.417771
O O12 0.864402 0.728803 0.775499
O O13 0.911391 0.660217 0.718208
O O14 0.909342 0.657282 0.830657
O O15 0.000000 0.765930 0.776757
O O16 0.635433 0.635433 0.669531
O O17 0.668379 0.536432 0.681790
O O18 0.641225 0.641225 0.113439
O O19 0.802047 0.401024 0.299268
O O20 0.735342 0.264659 0.297591
#
# Coordination Sequence:
#
# PCOD9587231 Si02
#       7
#    12  24  24  24  24  24  24
#     4  10  20  34  53  74  97 125 159 195 234 282
#     4  10  19  31  48  69  96 127 159 193 232 281
#     4   9  17  29  46  68  94 124 157 192 231 277
#     4  10  18  29  46  68  93 118 148 186 229 273
#     4  10  19  30  47  71  95 120 151 191 236 277
#     4  10  20  33  50  72  94 121 155 195 238 278
#     4  10  19  30  46  68  96 127 157 191 232 281
#
# _framework density 15.512473999999999
#
# number of rings (size 3 to 8) (size 9 to 14) (size 15 to 20)
#    0.000    2.154    1.538    3.077    0.000    1.846 
#    0.000    1.923    0.000    2.231    0.000    4.308 
#    0.000    8.615    0.000    0.154    0.000    0.923 
#
# Total GULP energy -870074.353992 kJ/mol
# GULP energy per Si atom -5577.399705 kJ/mol
# Density = 1.547717 g / cm^3
# Si number density = 15.512474 Si / 1000 Ang^3
#
#
#
# Elastic Constant Matrix: (Units=GPa)
#
#
# Indices 1 2 3 4 5 6 
#
# 1 114.1394 92.7805 29.3140 0.0000 0.0000 0.0000
# 2 92.7805 114.1394 29.3140 0.0000 0.0000 0.0000
# 3 29.3140 29.3140 42.0939 0.0000 0.0000 0.0000
# 4 0.0000 0.0000 0.0000 15.9946 0.0000 0.0000
# 5 0.0000 0.0000 0.0000 0.0000 15.9946 0.0000
# 6 0.0000 0.0000 0.0000 0.0000 0.0000 10.6795
#
#
#
# Elastic Compliance Matrix: (Units=1/GPa)
#
#
# Indices 1 2 3 4 5 6 
#
# 1 0.026420 -0.020399 -0.004193 0.000000 0.000000 0.000000
# 2 -0.020399 0.026420 -0.004193 0.000000 0.000000 0.000000
# 3 -0.004193 -0.004193 0.029596 0.000000 0.000000 0.000000
# 4 0.000000 0.000000 0.000000 0.062521 0.000000 0.000000
# 5 0.000000 0.000000 0.000000 0.000000 0.062521 0.000000
# 6 0.000000 0.000000 0.000000 0.000000 0.000000 0.093638
#
#
# Mechanical properties :
#
#
# Convention : Reuss Voigt Hill
#
# Bulk Modulus (GPa) = 40.21502 63.68775 51.95139
# Shear Modulus (GPa) = 13.62494 16.46467 15.04480
#
# Velocity S-wave (km/s) = 2.96686 3.26142 3.11762
# Velocity P-wave (km/s) = 6.14141 7.43824 6.82072
#
# Compressibility (1/GPa) = 0.02486633
#
# Stress axis : x y z
#
# Youngs Moduli (GPa) = 37.85037 37.85037 33.78822
#
# Poissons Ratio (x) = 0.77211 0.14167
# Poissons Ratio (y) = 0.77211 0.14167
# Poissons Ratio (z) = 0.15870 0.15870
#
# Static dielectric constant tensor:
#      x y z
#    x 1.504330 0.000000 0.000000 
#    y 0.000000 1.504330 0.000000 
#    z 0.000000 0.000000 1.519200 
# 
# From -- ./inp_files/7713.got.cif
#   From: 2010.05.17/outbox.cif.g08.bks.cpg/sg191_4_cif.got.tgz:7713.got - 2010.05.20 12:20:32.
