data_PCOD9587540
_publ_section_title
;
Structure prediction by ZEFSAII (Michael W. Deem and Ramdas Pophale) SiO2 
 PCOD9587540
Probable space group: P 6/M M M
;
_chemical_formula_sum "Si O2"
_cell_formula_units_Z 96
_cell_length_a 23.359635
_cell_length_b 23.359635
_cell_length_c 12.125506
_cell_angle_alpha 90.000000
_cell_angle_beta 90.000000
_cell_angle_gamma 120.000000
_cell_volume 5730.105362
_symmetry_space_group_name_H-M "P 6/M M M"
_symmetry_group_IT_number 191
_symmetry_cell_setting 'hexagonal'
loop_
_space_group_symop_operation_xyz
x,y,z
x-y,x,z
-y,x-y,z
-x,-y,z
-x+y,-x,z
y,-x+y,z
x-y,-y,-z
-x,-x+y,-z
y,x,-z
-y,-x,-z
-x+y,y,-z
x,x-y,-z
-x,-y,-z
-x+y,-x,-z
y,-x+y,-z
x,y,-z
x-y,x,-z
-y,x-y,-z
-x+y,y,z
x,x-y,z
-y,-x,z
y,x,z
x-y,-y,z
-x,-x+y,z
loop_
_atom_site_type_symbol
_atom_site_label
_atom_site_fract_x
_atom_site_fract_y
_atom_site_fract_z
Si Si1 0.358550 0.845336 0.000000
Si Si2 0.728833 0.132300 0.625627
Si Si3 0.798656 0.333698 0.246863
Si Si4 0.643750 0.722178 0.000000
Si Si5 0.923847 0.207760 0.219316
O O1 0.334957 0.805159 0.885921
O O2 0.438528 0.877055 0.000000
O O3 0.325011 0.890495 0.000000
O O4 0.706208 0.113976 0.500000
O O5 0.797425 0.202576 0.624403
O O6 0.679549 0.146303 0.698204
O O7 0.748907 0.083454 0.684083
O O8 0.805777 0.402889 0.281787
O O9 0.727213 0.272788 0.277994
O O10 0.671672 0.767125 0.108479
O O11 0.676140 0.676140 0.000000
O O12 0.869018 0.130983 0.235497
O O13 0.000000 0.226418 0.210466
#
# Coordination Sequence:
#
# PCOD9587540 Si02
#       5
#    12  24  24  12  24
#     4  10  19  30  47  72 101 136 173 214 263 311
#     4   9  18  32  50  71  96 130 172 215 254 294
#     4  10  19  30  46  69  99 134 173 217 264 310
#     4  10  19  32  52  78 104 133 168 207 252 298
#     4  10  20  34  55  81 107 133 163 202 246 295
#
# _framework density 16.753619
#
# number of rings (size 3 to 8) (size 9 to 14) (size 15 to 20)
#    0.000    2.250    2.500    1.000    0.000    2.250 
#    0.000    1.250    0.000    2.500    0.000    1.750 
#    0.000    3.000    0.000    6.250    0.000    0.000 
#
# Total GULP energy -534858.772324 kJ/mol
# GULP energy per Si atom -5571.445545 kJ/mol
# Density = 1.671549 g / cm^3
# Si number density = 16.753619 Si / 1000 Ang^3
#
#
#
# Elastic Constant Matrix: (Units=GPa)
#
#
# Indices 1 2 3 4 5 6 
#
# 1 84.3934 53.8824 16.8253 0.0000 0.0000 0.0000
# 2 53.8824 84.3934 16.8253 0.0000 0.0000 0.0000
# 3 16.8253 16.8253 85.6769 0.0000 0.0000 0.0000
# 4 0.0000 0.0000 0.0000 6.0613 0.0000 0.0000
# 5 0.0000 0.0000 0.0000 0.0000 6.0613 0.0000
# 6 0.0000 0.0000 0.0000 0.0000 0.0000 15.2555
#
#
#
# Elastic Compliance Matrix: (Units=1/GPa)
#
#
# Indices 1 2 3 4 5 6 
#
# 1 0.020185 -0.012590 -0.001491 0.000000 0.000000 0.000000
# 2 -0.012590 0.020185 -0.001491 0.000000 0.000000 0.000000
# 3 -0.001491 -0.001491 0.012258 0.000000 0.000000 0.000000
# 4 0.000000 0.000000 0.000000 0.164982 0.000000 0.000000
# 5 0.000000 0.000000 0.000000 0.000000 0.164982 0.000000
# 6 0.000000 0.000000 0.000000 0.000000 0.000000 0.065550
#
#
# Mechanical properties :
#
#
# Convention : Reuss Voigt Hill
#
# Bulk Modulus (GPa) = 46.55197 47.72553 47.13875
# Shear Modulus (GPa) = 10.27858 16.60432 13.44145
#
# Velocity S-wave (km/s) = 2.47961 3.15157 2.83557
# Velocity P-wave (km/s) = 6.00371 6.46465 6.23844
#
# Compressibility (1/GPa) = 0.02148137
#
# Stress axis : x y z
#
# Youngs Moduli (GPa) = 49.54183 49.54183 81.58234
#
# Poissons Ratio (x) = 0.62374 0.12168
# Poissons Ratio (y) = 0.62374 0.12168
# Poissons Ratio (z) = 0.07389 0.07389
#
# Static dielectric constant tensor:
#      x y z
#    x 1.554850 0.000000 0.000000 
#    y 0.000000 1.554850 0.000000 
#    z 0.000000 0.000000 1.591600 
# 
# From -- ./inp_files/2776.got.cif
#   From: 2010.05.17/outbox.cif.g08.bks.cpg/sg191_2_cif.got.tgz:2776.got - 2010.05.20 12:20:32.
