data_PCOD9587989
_publ_section_title
;
Structure prediction by ZEFSAII (Michael W. Deem and Ramdas Pophale) SiO2 
 PCOD9587989
Probable space group: P 6/M M M
;
_chemical_formula_sum "Si O2"
_cell_formula_units_Z 108
_cell_length_a 20.715936
_cell_length_b 20.715936
_cell_length_c 18.228735
_cell_angle_alpha 90.000000
_cell_angle_beta 90.000000
_cell_angle_gamma 120.000000
_cell_volume 6774.796967
_symmetry_space_group_name_H-M "P 6/M M M"
_symmetry_group_IT_number 191
_symmetry_cell_setting 'hexagonal'
loop_
_space_group_symop_operation_xyz
x,y,z
x-y,x,z
-y,x-y,z
-x,-y,z
-x+y,-x,z
y,-x+y,z
x-y,-y,-z
-x,-x+y,-z
y,x,-z
-y,-x,-z
-x+y,y,-z
x,x-y,-z
-x,-y,-z
-x+y,-x,-z
y,-x+y,-z
x,y,-z
x-y,x,-z
-y,x-y,-z
-x+y,y,z
x,x-y,z
-y,-x,z
y,x,z
x-y,-y,z
-x,-x+y,z
loop_
_atom_site_type_symbol
_atom_site_label
_atom_site_fract_x
_atom_site_fract_y
_atom_site_fract_z
Si Si1 0.912896 0.231578 0.774841
Si Si2 0.543086 0.456915 0.280130
Si Si3 0.910569 0.378494 0.500000
Si Si4 0.556498 0.702495 0.653465
Si Si5 0.457173 0.914345 0.105740
Si Si6 0.312088 0.402577 0.080205
O O1 0.856510 0.143491 0.772519
O O2 0.898546 0.266751 0.701605
O O3 0.890536 0.263063 0.846610
O O4 0.000000 0.259171 0.780678
O O5 0.500000 0.500000 0.309023
O O6 0.627481 0.497906 0.305867
O O7 0.540971 0.459030 0.193178
O O8 0.887584 0.443792 0.500000
O O9 0.881768 0.326270 0.428492
O O10 0.000000 0.423125 0.500000
O O11 0.537556 0.768778 0.653112
O O12 0.509221 0.880798 0.083679
O O13 0.500000 0.000000 0.078891
O O14 0.360918 0.360918 0.082464
O O15 0.274339 0.385272 0.000000
#
# Coordination Sequence:
#
# PCOD9587989 Si02
#       6
#    24  12  12  24  12  24
#     4  10  20  34  52  73 100 130 162 205 255 307
#     4  11  18  32  56  74  95 135 185 215 244 302
#     4  11  21  34  56  78  97 130 175 213 244 287
#     4  11  22  35  51  76 105 134 169 210 256 295
#     4   9  15  24  44  70  98 129 165 208 244 284
#     4   9  16  26  43  70 100 128 160 201 247 289
#
# _framework density 15.941437000000001
#
# number of rings (size 3 to 8) (size 9 to 14) (size 15 to 20)
#    0.000    1.889    3.333    2.667    0.000    1.778 
#    0.667    0.000    0.000    0.222    0.000    0.000 
#    0.000    0.000    0.667    5.556    0.000   23.111 
#
# Total GULP energy -601590.994130 kJ/mol
# GULP energy per Si atom -5570.286983 kJ/mol
# Density = 1.590515 g / cm^3
# Si number density = 15.941437 Si / 1000 Ang^3
#
#
#
# Elastic Constant Matrix: (Units=GPa)
#
#
# Indices 1 2 3 4 5 6 
#
# 1 90.4626 51.4653 35.4840 0.0000 0.0000 0.0000
# 2 51.4653 90.4626 35.4840 0.0000 0.0000 0.0000
# 3 35.4840 35.4840 134.1061 0.0000 0.0000 0.0000
# 4 0.0000 0.0000 0.0000 -617.3688 0.0005 0.0000
# 5 0.0000 0.0000 0.0000 0.0005 -617.3693 0.0000
# 6 0.0000 0.0000 0.0000 0.0000 0.0000 19.4986
#
#
#
# Elastic Compliance Matrix: (Units=1/GPa)
#
#
# Indices 1 2 3 4 5 6 
#
# 1 0.016882 -0.008761 -0.002149 0.000000 0.000000 0.000000
# 2 -0.008761 0.016882 -0.002149 0.000000 0.000000 0.000000
# 3 -0.002149 -0.002149 0.008594 0.000000 0.000000 0.000000
# 4 0.000000 0.000000 0.000000 -0.001620 0.000000 0.000000
# 5 0.000000 0.000000 0.000000 0.000000 -0.001620 0.000000
# 6 0.000000 0.000000 0.000000 0.000000 0.000000 0.051286
#
#
# Mechanical properties :
#
#
# Convention : Reuss Voigt Hill
#
# Bulk Modulus (GPa) = 61.57687 62.21087 61.89387
# Shear Modulus (GPa) = 41.00608 -230.20803 -94.60098
#
# Velocity S-wave (km/s) = 5.07728 -12.03005 -7.71179
# Velocity P-wave (km/s) = 8.54883 12.40377 6.35496
#
# Compressibility (1/GPa) = 0.01623987
#
# Stress axis : x y z
#
# Youngs Moduli (GPa) = 59.23642 59.23642 116.36317
#
# Poissons Ratio (x) = 0.51899 0.25001
# Poissons Ratio (y) = 0.51899 0.25001
# Poissons Ratio (z) = 0.12727 0.12727
#
# Static dielectric constant tensor:
#      x y z
#    x 1.528030 0.000000 0.000000 
#    y 0.000000 1.528030 0.000000 
#    z 0.000000 0.000000 1.576160 
# 
# From -- ./inp_files/6156.got.cif
#   From: 2010.05.17/outbox.cif.g08.bks.cpg/sg191_4_cif.got.tgz:6156.got - 2010.05.20 12:20:32.
