data_PCOD9587197
_publ_section_title
;
Structure prediction by ZEFSAII (Michael W. Deem and Ramdas Pophale) SiO2 
 PCOD9587197
Probable space group: P 6/M M M
;
_chemical_formula_sum "Si O2"
_cell_formula_units_Z 192
_cell_length_a 23.951306
_cell_length_b 23.951306
_cell_length_c 24.839856
_cell_angle_alpha 90.000000
_cell_angle_beta 90.000000
_cell_angle_gamma 120.000000
_cell_volume 12340.651958
_symmetry_space_group_name_H-M "P 6/M M M"
_symmetry_group_IT_number 191
_symmetry_cell_setting 'hexagonal'
loop_
_space_group_symop_operation_xyz
x,y,z
x-y,x,z
-y,x-y,z
-x,-y,z
-x+y,-x,z
y,-x+y,z
x-y,-y,-z
-x,-x+y,-z
y,x,-z
-y,-x,-z
-x+y,y,-z
x,x-y,-z
-x,-y,-z
-x+y,-x,-z
y,-x+y,-z
x,y,-z
x-y,x,-z
-y,x-y,-z
-x+y,y,z
x,x-y,z
-y,-x,z
y,x,z
x-y,-y,z
-x,-x+y,z
loop_
_atom_site_type_symbol
_atom_site_label
_atom_site_fract_x
_atom_site_fract_y
_atom_site_fract_z
Si Si1 0.074202 0.275977 0.063525
Si Si2 0.078591 0.603858 0.337896
Si Si3 0.318680 0.924198 0.240117
Si Si4 0.196967 0.928816 0.712904
Si Si5 0.860379 0.589704 0.125919
Si Si6 0.727993 0.801521 0.417125
Si Si7 0.078222 0.402814 0.440535
Si Si8 0.601376 0.073202 0.935432
O O1 0.126535 0.253070 0.071698
O O2 0.096849 0.338769 0.100339
O O3 0.000000 0.224034 0.074533
O O4 0.078508 0.294462 0.000000
O O5 0.098712 0.549356 0.338550
O O6 0.097161 0.646038 0.283732
O O7 0.100846 0.649105 0.390703
O O8 0.000000 0.565513 0.338862
O O9 0.255765 0.919857 0.267737
O O10 0.295693 0.883495 0.186006
O O11 0.366480 0.000000 0.227503
O O12 0.129419 0.870582 0.732524
O O13 0.197157 0.927832 0.647970
O O14 0.213645 0.000000 0.730465
O O15 0.787302 0.574604 0.124429
O O16 0.875423 0.543028 0.090706
O O17 0.744079 0.872040 0.435530
O O18 0.775037 0.775037 0.435646
O O19 0.655228 0.748270 0.432724
O O20 0.099955 0.432014 0.500000
O O21 0.000000 0.366632 0.439836
O O22 0.540941 0.081881 0.920374
O O23 0.581547 0.000000 0.919218
O O24 0.606325 0.076007 0.000000
#
# Coordination Sequence:
#
# PCOD9587197 Si02
#       8
#    24  24  24  24  24  24  24  24
#     4   9  17  29  45  66  94 127 160 197 244 294
#     4   9  17  29  44  64  90 119 149 178 214 263
#     4  10  18  29  44  63  91 125 158 191 224 268
#     4   9  16  27  43  60  82 115 155 196 237 282
#     4  11  21  30  45  71  98 122 154 195 238 281
#     4   9  16  27  43  62  86 119 159 201 243 287
#     4   9  16  27  43  64  90 117 147 183 224 275
#     4   9  18  33  52  72  95 124 156 189 226 272
#
# _framework density 15.558335
#
# number of rings (size 3 to 8) (size 9 to 14) (size 15 to 20)
#    0.000    2.625    1.250    2.250    0.000    2.750 
#    0.000    2.500    0.000    0.625    0.000    2.625 
#    0.000    0.000    0.000    8.875    0.000   14.875 
#
# Total GULP energy -1069819.790758 kJ/mol
# GULP energy per Si atom -5571.978077 kJ/mol
# Density = 1.552292 g / cm^3
# Si number density = 15.558335 Si / 1000 Ang^3
#
#
#
# Elastic Constant Matrix: (Units=GPa)
#
#
# Indices 1 2 3 4 5 6 
#
# 1 87.3184 53.4489 45.4210 0.0000 0.0000 0.0000
# 2 53.4489 87.3184 45.4210 0.0000 0.0000 0.0000
# 3 45.4210 45.4210 67.3969 0.0000 0.0000 0.0000
# 4 0.0000 0.0000 0.0000 6.1286 0.0000 0.0000
# 5 0.0000 0.0000 0.0000 0.0000 6.1286 0.0000
# 6 0.0000 0.0000 0.0000 0.0000 0.0000 16.9347
#
#
#
# Elastic Compliance Matrix: (Units=1/GPa)
#
#
# Indices 1 2 3 4 5 6 
#
# 1 0.021048 -0.008477 -0.008472 0.000000 0.000000 0.000000
# 2 -0.008477 0.021048 -0.008472 0.000000 0.000000 0.000000
# 3 -0.008472 -0.008472 0.026257 0.000000 0.000000 0.000000
# 4 0.000000 0.000000 0.000000 0.163169 0.000000 0.000000
# 5 0.000000 0.000000 0.000000 0.000000 0.163169 0.000000
# 6 0.000000 0.000000 0.000000 0.000000 0.000000 0.059050
#
#
# Mechanical properties :
#
#
# Convention : Reuss Voigt Hill
#
# Bulk Modulus (GPa) = 57.10810 58.95726 58.03268
# Shear Modulus (GPa) = 9.79581 12.35456 11.07519
#
# Velocity S-wave (km/s) = 2.51194 2.82100 2.67094
# Velocity P-wave (km/s) = 6.72299 6.97046 6.84784
#
# Compressibility (1/GPa) = 0.01751065
#
# Stress axis : x y z
#
# Youngs Moduli (GPa) = 47.50987 47.50987 38.08518
#
# Poissons Ratio (x) = 0.40274 0.32267
# Poissons Ratio (y) = 0.40274 0.32267
# Poissons Ratio (z) = 0.40252 0.40252
#
# Static dielectric constant tensor:
#      x y z
#    x 1.508030 0.000000 0.000000 
#    y 0.000000 1.508030 0.000000 
#    z 0.000000 0.000000 1.544840 
# 
# From -- ./inp_files/9378.got.cif
#   From: 2010.05.17/outbox.cif.g08.bks.cpg/sg191_5_cif.got.tgz:9378.got - 2010.05.20 12:20:32.
