data_PCOD9587107
_publ_section_title
;
Structure prediction by ZEFSAII (Michael W. Deem and Ramdas Pophale) SiO2 
 PCOD9587107
Probable space group: P 6/M M M
;
_chemical_formula_sum "Si O2"
_cell_formula_units_Z 132
_cell_length_a 18.371089
_cell_length_b 18.371089
_cell_length_c 27.140084
_cell_angle_alpha 90.000000
_cell_angle_beta 90.000000
_cell_angle_gamma 120.000000
_cell_volume 7932.528141
_symmetry_space_group_name_H-M "P 6/M M M"
_symmetry_group_IT_number 191
_symmetry_cell_setting 'hexagonal'
loop_
_space_group_symop_operation_xyz
x,y,z
x-y,x,z
-y,x-y,z
-x,-y,z
-x+y,-x,z
y,-x+y,z
x-y,-y,-z
-x,-x+y,-z
y,x,-z
-y,-x,-z
-x+y,y,-z
x,x-y,-z
-x,-y,-z
-x+y,-x,-z
y,-x+y,-z
x,y,-z
x-y,x,-z
-y,x-y,-z
-x+y,y,z
x,x-y,z
-y,-x,z
y,x,z
x-y,-y,z
-x,-x+y,z
loop_
_atom_site_type_symbol
_atom_site_label
_atom_site_fract_x
_atom_site_fract_y
_atom_site_fract_z
Si Si1 0.495863 0.163665 0.896408
Si Si2 0.168550 0.000000 0.940008
Si Si3 0.500722 0.669096 0.500000
Si Si4 0.532982 0.900647 0.787331
Si Si5 0.100737 0.466757 0.395951
Si Si6 0.000000 0.662650 0.059064
Si Si7 0.099623 0.737830 0.304449
O O1 0.583368 0.166736 0.907539
O O2 0.498204 0.249102 0.911149
O O3 0.481567 0.150185 0.837462
O O4 0.418948 0.083071 0.921604
O O5 0.252751 0.000000 0.924412
O O6 0.084305 0.915696 0.924114
O O7 0.168061 0.000000 0.000000
O O8 0.426883 0.573118 0.500000
O O9 0.465628 0.732814 0.500000
O O10 0.547240 0.679738 0.448414
O O11 0.442594 0.885188 0.769012
O O12 0.583316 0.884935 0.744886
O O13 0.586664 0.000000 0.800081
O O14 0.131917 0.565959 0.389001
O O15 0.121399 0.425197 0.350454
O O16 0.000000 0.420156 0.398202
O O17 0.000000 0.661761 0.000000
O O18 0.162850 0.837151 0.304975
O O19 0.000000 0.705347 0.306726
#
# Coordination Sequence:
#
# PCOD9587107 Si02
#       7
#    24  12  12  24  24  12  24
#     4  11  22  37  56  79 106 136 172 213 258 303
#     4   9  17  31  53  81 109 135 165 205 252 297
#     4  10  18  27  39  57  88 127 165 197 231 280
#     4   9  17  32  54  78 102 130 161 197 243 296
#     4   9  17  29  45  65  89 122 162 204 248 294
#     4  11  23  39  57  77 103 139 177 210 247 301
#     4  10  19  31  49  73  99 127 163 207 252 297
#
# _framework density 16.640343000000001
#
# number of rings (size 3 to 8) (size 9 to 14) (size 15 to 20)
#    0.000    2.182    0.909    3.091    0.000    5.455 
#    0.000    0.000    0.000    6.364    0.000    0.000 
#    0.000    0.000    0.000    0.000    0.000   18.909 
#
# Total GULP energy -736003.569389 kJ/mol
# GULP energy per Si atom -5575.784617 kJ/mol
# Density = 1.660247 g / cm^3
# Si number density = 16.640343 Si / 1000 Ang^3
#
#
#
# Elastic Constant Matrix: (Units=GPa)
#
#
# Indices 1 2 3 4 5 6 
#
# 1 113.7068 70.6222 37.5013 0.0000 0.0000 0.0000
# 2 70.6222 113.7068 37.5013 0.0000 0.0000 0.0000
# 3 37.5013 37.5013 53.6200 0.0000 0.0000 0.0000
# 4 0.0000 0.0000 0.0000 10.0496 0.0000 0.0000
# 5 0.0000 0.0000 0.0000 0.0000 10.0496 0.0000
# 6 0.0000 0.0000 0.0000 0.0000 0.0000 21.5423
#
#
#
# Elastic Compliance Matrix: (Units=1/GPa)
#
#
# Indices 1 2 3 4 5 6 
#
# 1 0.015397 -0.007814 -0.005304 0.000000 0.000000 0.000000
# 2 -0.007814 0.015397 -0.005304 0.000000 0.000000 0.000000
# 3 -0.005304 -0.005304 0.026068 0.000000 0.000000 0.000000
# 4 0.000000 0.000000 0.000000 0.099506 0.000000 0.000000
# 5 0.000000 0.000000 0.000000 0.000000 0.099506 0.000000
# 6 0.000000 0.000000 0.000000 0.000000 0.000000 0.046420
#
#
# Mechanical properties :
#
#
# Convention : Reuss Voigt Hill
#
# Bulk Modulus (GPa) = 49.94943 63.58705 56.76824
# Shear Modulus (GPa) = 14.45886 17.35556 15.90721
#
# Velocity S-wave (km/s) = 2.95092 3.23303 3.09519
# Velocity P-wave (km/s) = 6.45699 7.22718 6.85292
#
# Compressibility (1/GPa) = 0.02002025
#
# Stress axis : x y z
#
# Youngs Moduli (GPa) = 64.94939 64.94939 38.36091
#
# Poissons Ratio (x) = 0.50748 0.20345
# Poissons Ratio (y) = 0.50748 0.20345
# Poissons Ratio (z) = 0.34446 0.34446
#
# Static dielectric constant tensor:
#      x y z
#    x 1.549770 0.000000 0.000000 
#    y 0.000000 1.549770 0.000000 
#    z 0.000000 0.000000 1.568460 
# 
# From -- ./inp_files/9871.got.cif
#   From: 2010.05.17/outbox.cif.g08.bks.cpg/sg191_5_cif.got.tgz:9871.got - 2010.05.20 12:20:32.
