data_PCOD9587240
_publ_section_title
;
Structure prediction by ZEFSAII (Michael W. Deem and Ramdas Pophale) SiO2 
 PCOD9587240
Probable space group: P 6/M M M
;
_chemical_formula_sum "Si O2"
_cell_formula_units_Z 108
_cell_length_a 18.268549
_cell_length_b 18.268549
_cell_length_c 24.195873
_cell_angle_alpha 90.000000
_cell_angle_beta 90.000000
_cell_angle_gamma 120.000000
_cell_volume 6993.265825
_symmetry_space_group_name_H-M "P 6/M M M"
_symmetry_group_IT_number 191
_symmetry_cell_setting 'hexagonal'
loop_
_space_group_symop_operation_xyz
x,y,z
x-y,x,z
-y,x-y,z
-x,-y,z
-x+y,-x,z
y,-x+y,z
x-y,-y,-z
-x,-x+y,-z
y,x,-z
-y,-x,-z
-x+y,y,-z
x,x-y,-z
-x,-y,-z
-x+y,-x,-z
y,-x+y,-z
x,y,-z
x-y,x,-z
-y,x-y,-z
-x+y,y,z
x,x-y,z
-y,-x,z
y,x,z
x-y,-y,z
-x,-x+y,z
loop_
_atom_site_type_symbol
_atom_site_label
_atom_site_fract_x
_atom_site_fract_y
_atom_site_fract_z
Si Si1 0.540260 0.636811 0.756350
Si Si2 0.000000 0.830325 0.932747
Si Si3 0.837815 0.507314 0.364282
Si Si4 0.000000 0.588863 0.563241
Si Si5 0.340433 0.340433 0.933734
Si Si6 0.330900 0.493216 0.877086
O O1 0.453842 0.546159 0.754957
O O2 0.615729 0.615729 0.758955
O O3 0.539912 0.679372 0.698826
O O4 0.534046 0.678884 0.812584
O O5 0.914986 0.829971 0.914791
O O6 0.000000 0.745123 0.916385
O O7 0.000000 0.831443 0.000000
O O8 0.751072 0.502144 0.380963
O O9 0.828963 0.414482 0.366216
O O10 0.916065 0.567906 0.403250
O O11 0.000000 0.500000 0.562457
O O12 0.000000 0.614456 0.500000
O O13 0.338913 0.421935 0.910602
O O14 0.343115 0.343115 0.000000
O O15 0.249652 0.499303 0.894606
O O16 0.416829 0.583172 0.882446
#
# Coordination Sequence:
#
# PCOD9587240 Si02
#       6
#    24  12  24  12  12  24
#     4   9  16  30  50  71  94 123 157 196 246 298
#     4   9  17  31  52  76  98 119 148 189 236 284
#     4  10  18  29  47  70  96 126 164 207 247 289
#     4   9  18  31  44  60  90 132 170 204 245 287
#     4  11  23  38  54  72  98 133 167 198 241 301
#     4  11  22  36  54  75  99 127 163 207 252 297
#
# _framework density 15.443428000000001
#
# number of rings (size 3 to 8) (size 9 to 14) (size 15 to 20)
#    0.000    2.111    2.222    2.222    0.000    3.111 
#    0.000    2.222    0.000    2.667    0.000    0.000 
#    0.000    0.000    0.000    0.333    0.000    1.444 
#
# Total GULP energy -602139.819790 kJ/mol
# GULP energy per Si atom -5575.368702 kJ/mol
# Density = 1.540828 g / cm^3
# Si number density = 15.443428 Si / 1000 Ang^3
#
#
#
# Elastic Constant Matrix: (Units=GPa)
#
#
# Indices 1 2 3 4 5 6 
#
# 1 118.6401 66.2880 43.1848 0.0000 0.0000 0.0000
# 2 66.2880 118.6401 43.1848 0.0000 0.0000 0.0000
# 3 43.1848 43.1848 85.1976 0.0000 0.0000 0.0000
# 4 0.0000 0.0000 0.0000 9.5246 0.0000 0.0000
# 5 0.0000 0.0000 0.0000 0.0000 9.5246 0.0000
# 6 0.0000 0.0000 0.0000 0.0000 0.0000 26.1761
#
#
#
# Elastic Compliance Matrix: (Units=1/GPa)
#
#
# Indices 1 2 3 4 5 6 
#
# 1 0.013093 -0.006008 -0.003591 0.000000 0.000000 0.000000
# 2 -0.006008 0.013093 -0.003591 0.000000 0.000000 0.000000
# 3 -0.003591 -0.003591 0.015378 0.000000 0.000000 0.000000
# 4 0.000000 0.000000 0.000000 0.104992 0.000000 0.000000
# 5 0.000000 0.000000 0.000000 0.000000 0.104992 0.000000
# 6 0.000000 0.000000 0.000000 0.000000 0.000000 0.038203
#
#
# Mechanical properties :
#
#
# Convention : Reuss Voigt Hill
#
# Bulk Modulus (GPa) = 65.86324 69.75479 67.80901
# Shear Modulus (GPa) = 15.56700 20.36639 17.96669
#
# Velocity S-wave (km/s) = 3.17835 3.63543 3.41455
# Velocity P-wave (km/s) = 7.49732 7.93018 7.71679
#
# Compressibility (1/GPa) = 0.01518298
#
# Stress axis : x y z
#
# Youngs Moduli (GPa) = 76.37631 76.37631 65.02843
#
# Poissons Ratio (x) = 0.45890 0.23352
# Poissons Ratio (y) = 0.45890 0.23352
# Poissons Ratio (z) = 0.27427 0.27427
#
# Static dielectric constant tensor:
#      x y z
#    x 1.502180 0.000000 0.000000 
#    y 0.000000 1.502180 0.000000 
#    z 0.000000 0.000000 1.522470 
# 
# From -- ./inp_files/7383.got.cif
#   From: 2010.05.17/outbox.cif.g08.bks.cpg/sg191_4_cif.got.tgz:7383.got - 2010.05.20 12:20:32.
