data_PCOD9587681
_publ_section_title
;
Structure prediction by ZEFSAII (Michael W. Deem and Ramdas Pophale) SiO2 
 PCOD9587681
Probable space group: P 6/M M M
;
_chemical_formula_sum "Si O2"
_cell_formula_units_Z 120
_cell_length_a 22.746348
_cell_length_b 22.746348
_cell_length_c 15.652199
_cell_angle_alpha 90.000000
_cell_angle_beta 90.000000
_cell_angle_gamma 120.000000
_cell_volume 7013.411981
_symmetry_space_group_name_H-M "P 6/M M M"
_symmetry_group_IT_number 191
_symmetry_cell_setting 'hexagonal'
loop_
_space_group_symop_operation_xyz
x,y,z
x-y,x,z
-y,x-y,z
-x,-y,z
-x+y,-x,z
y,-x+y,z
x-y,-y,-z
-x,-x+y,-z
y,x,-z
-y,-x,-z
-x+y,y,-z
x,x-y,-z
-x,-y,-z
-x+y,-x,-z
y,-x+y,-z
x,y,-z
x-y,x,-z
-y,x-y,-z
-x+y,y,z
x,x-y,z
-y,-x,z
y,x,z
x-y,-y,z
-x,-x+y,z
loop_
_atom_site_type_symbol
_atom_site_label
_atom_site_fract_x
_atom_site_fract_y
_atom_site_fract_z
Si Si1 0.530528 0.196932 0.147833
Si Si2 0.923662 0.212698 0.244444
Si Si3 0.197303 0.531318 0.354998
Si Si4 0.262001 0.880537 0.405879
Si Si5 0.921321 0.306151 0.097811
O O1 0.599311 0.198622 0.121048
O O2 0.530646 0.265323 0.121352
O O3 0.528212 0.194907 0.251532
O O4 0.463321 0.131475 0.114520
O O5 0.865193 0.134808 0.251428
O O6 0.920195 0.252362 0.328301
O O7 0.907681 0.247145 0.164471
O O8 0.000000 0.227599 0.234989
O O9 0.270466 0.540932 0.380559
O O10 0.190707 0.595354 0.382409
O O11 0.139201 0.458878 0.388776
O O12 0.270079 0.911007 0.500000
O O13 0.191988 0.808013 0.405432
O O14 0.000000 0.364013 0.110515
O O15 0.914156 0.282496 0.000000
#
# Coordination Sequence:
#
# PCOD9587681 Si02
#       5
#    24  24  24  24  24
#     4  10  19  32  50  72 100 135 175 218 264 315
#     4  10  20  36  57  81 107 134 165 201 245 297
#     4   9  16  27  44  68  98 134 175 219 265 311
#     4   9  17  30  49  73 100 131 169 211 252 294
#     4  10  21  36  55  78 102 132 171 215 261 305
#
# _framework density 17.110074000000001
#
# number of rings (size 3 to 8) (size 9 to 14) (size 15 to 20)
#    0.000    2.400    2.000    1.000    0.000    4.800 
#    0.000    1.000    0.000    3.200    0.000    1.400 
#    0.000    0.000    0.000   10.000    0.000    0.000 
#
# Total GULP energy -669346.149264 kJ/mol
# GULP energy per Si atom -5577.884577 kJ/mol
# Density = 1.707113 g / cm^3
# Si number density = 17.110074 Si / 1000 Ang^3
#
#
#
# Elastic Constant Matrix: (Units=GPa)
#
#
# Indices 1 2 3 4 5 6 
#
# 1 91.2663 59.2313 32.8417 0.0000 0.0000 0.0000
# 2 59.2313 91.2663 32.8417 0.0000 0.0000 0.0000
# 3 32.8417 32.8417 81.7760 0.0000 0.0000 0.0000
# 4 0.0000 0.0000 0.0000 10.3481 0.0000 0.0000
# 5 0.0000 0.0000 0.0000 0.0000 10.3481 0.0000
# 6 0.0000 0.0000 0.0000 0.0000 0.0000 16.0175
#
#
#
# Elastic Compliance Matrix: (Units=1/GPa)
#
#
# Indices 1 2 3 4 5 6 
#
# 1 0.019636 -0.011580 -0.003236 0.000000 0.000000 0.000000
# 2 -0.011580 0.019636 -0.003236 0.000000 0.000000 0.000000
# 3 -0.003236 -0.003236 0.014827 0.000000 0.000000 0.000000
# 4 0.000000 0.000000 0.000000 0.096636 0.000000 0.000000
# 5 0.000000 0.000000 0.000000 0.000000 0.096636 0.000000
# 6 0.000000 0.000000 0.000000 0.000000 0.000000 0.062432
#
#
# Mechanical properties :
#
#
# Convention : Reuss Voigt Hill
#
# Bulk Modulus (GPa) = 55.56042 57.12642 56.34342
# Shear Modulus (GPa) = 14.20836 16.63566 15.42201
#
# Velocity S-wave (km/s) = 2.88481 3.12151 3.00549
# Velocity P-wave (km/s) = 6.60598 6.81556 6.71159
#
# Compressibility (1/GPa) = 0.01799842
#
# Stress axis : x y z
#
# Youngs Moduli (GPa) = 50.92599 50.92599 67.44250
#
# Poissons Ratio (x) = 0.58970 0.21822
# Poissons Ratio (y) = 0.58970 0.21822
# Poissons Ratio (z) = 0.16478 0.16478
#
# Static dielectric constant tensor:
#      x y z
#    x 1.560670 0.000000 0.000000 
#    y 0.000000 1.560670 0.000000 
#    z 0.000000 0.000000 1.615080 
# 
# From -- ./inp_files/4676.got.cif
#   From: 2010.05.17/outbox.cif.g08.bks.cpg/sg191_3_cif.got.tgz:4676.got - 2010.05.20 12:20:32.
