data_PCOD9587143
_publ_section_title
;
Structure prediction by ZEFSAII (Michael W. Deem and Ramdas Pophale) SiO2 
 PCOD9587143
Probable space group: P 6/M M M
;
_chemical_formula_sum "Si O2"
_cell_formula_units_Z 180
_cell_length_a 27.921863
_cell_length_b 27.921863
_cell_length_c 18.593948
_cell_angle_alpha 90.000000
_cell_angle_beta 90.000000
_cell_angle_gamma 120.000000
_cell_volume 12554.257364
_symmetry_space_group_name_H-M "P 6/M M M"
_symmetry_group_IT_number 191
_symmetry_cell_setting 'hexagonal'
loop_
_space_group_symop_operation_xyz
x,y,z
x-y,x,z
-y,x-y,z
-x,-y,z
-x+y,-x,z
y,-x+y,z
x-y,-y,-z
-x,-x+y,-z
y,x,-z
-y,-x,-z
-x+y,y,-z
x,x-y,-z
-x,-y,-z
-x+y,-x,-z
y,-x+y,-z
x,y,-z
x-y,x,-z
-y,x-y,-z
-x+y,y,z
x,x-y,z
-y,-x,z
y,x,z
x-y,-y,z
-x,-x+y,z
loop_
_atom_site_type_symbol
_atom_site_label
_atom_site_fract_x
_atom_site_fract_y
_atom_site_fract_z
Si Si1 0.445846 0.779504 0.500000
Si Si2 0.371760 0.856487 0.639991
Si Si3 0.155533 0.728616 0.081024
Si Si4 0.533279 0.822742 0.769327
Si Si5 0.239310 0.174614 0.222578
Si Si6 0.649206 0.769454 0.687560
Si Si7 0.764410 0.064150 0.918478
Si Si8 0.331986 0.397558 0.416285
O O1 0.381739 0.763477 0.500000
O O2 0.452484 0.726242 0.500000
O O3 0.471853 0.815057 0.427571
O O4 0.433237 0.866474 0.646225
O O5 0.337223 0.833189 0.713434
O O6 0.367614 0.910130 0.619794
O O7 0.211489 0.788512 0.084306
O O8 0.159914 0.694650 0.147789
O O9 0.105031 0.740237 0.091835
O O10 0.151549 0.706498 0.000000
O O11 0.518037 0.759019 0.766362
O O12 0.597093 0.858124 0.741968
O O13 0.220810 0.110405 0.235007
O O14 0.194199 0.194199 0.232110
O O15 0.292646 0.211191 0.273367
O O16 0.264195 0.191370 0.142014
O O17 0.649848 0.824924 0.662938
O O18 0.635318 0.726355 0.623989
O O19 0.716940 0.000000 0.912623
O O20 0.786916 0.073330 0.000000
O O21 0.324097 0.405031 0.500000
O O22 0.363680 0.363680 0.409928
#
# Coordination Sequence:
#
# PCOD9587143 Si02
#       8
#    12  24  24  24  24  24  24  24
#     4  10  19  32  49  69  89 111 140 179 226 268
#     4  10  20  33  46  63  87 117 152 186 218 254
#     4   9  15  24  40  61  86 112 141 178 220 269
#     4   9  16  28  45  66  88 112 141 176 223 272
#     4  10  18  28  42  60  85 116 148 183 222 265
#     4   9  17  29  45  67  90 114 142 176 220 267
#     4   9  16  24  36  57  86 117 144 172 211 260
#     4  10  20  33  47  65  89 119 152 184 214 247
#
# _framework density 14.337764999999999
#
# number of rings (size 3 to 8) (size 9 to 14) (size 15 to 20)
#    0.000    2.533    2.000    1.267    0.000    1.867 
#    0.000    0.667    0.000    0.800    0.000    0.000 
#    0.000    0.000    0.000   10.133    0.000    0.133 
#
# Total GULP energy -1002414.343217 kJ/mol
# GULP energy per Si atom -5568.968573 kJ/mol
# Density = 1.430513 g / cm^3
# Si number density = 14.337765 Si / 1000 Ang^3
#
#
#
# Elastic Constant Matrix: (Units=GPa)
#
#
# Indices 1 2 3 4 5 6 
#
# 1 64.6808 41.2126 48.2271 0.0000 0.0000 0.0000
# 2 41.2126 64.6808 48.2271 0.0000 0.0000 0.0000
# 3 48.2271 48.2271 99.8594 0.0000 0.0000 0.0000
# 4 0.0000 0.0000 0.0000 18.6961 0.0000 0.0000
# 5 0.0000 0.0000 0.0000 0.0000 18.6961 0.0000
# 6 0.0000 0.0000 0.0000 0.0000 0.0000 11.7341
#
#
#
# Elastic Compliance Matrix: (Units=1/GPa)
#
#
# Indices 1 2 3 4 5 6 
#
# 1 0.029736 -0.012875 -0.008143 0.000000 0.000000 0.000000
# 2 -0.012875 0.029736 -0.008143 0.000000 0.000000 0.000000
# 3 -0.008143 -0.008143 0.017879 0.000000 0.000000 0.000000
# 4 0.000000 0.000000 0.000000 0.053487 0.000000 0.000000
# 5 0.000000 0.000000 0.000000 0.000000 0.053487 0.000000
# 6 0.000000 0.000000 0.000000 0.000000 0.000000 0.085222
#
#
# Mechanical properties :
#
#
# Convention : Reuss Voigt Hill
#
# Bulk Modulus (GPa) = 52.55143 56.06163 54.30653
# Shear Modulus (GPa) = 14.96063 15.92887 15.44475
#
# Velocity S-wave (km/s) = 3.23374 3.33674 3.28564
# Velocity P-wave (km/s) = 7.11862 7.35056 7.23552
#
# Compressibility (1/GPa) = 0.01902898
#
# Stress axis : x y z
#
# Youngs Moduli (GPa) = 33.62970 33.62970 55.93117
#
# Poissons Ratio (x) = 0.43299 0.45543
# Poissons Ratio (y) = 0.43299 0.45543
# Poissons Ratio (z) = 0.27384 0.27384
#
# Static dielectric constant tensor:
#      x y z
#    x 1.454650 0.000000 0.000000 
#    y 0.000000 1.454650 0.000000 
#    z 0.000000 0.000000 1.496150 
# 
# From -- ./inp_files/6906.got.cif
#   From: 2010.05.17/outbox.cif.g08.bks.cpg/sg191_4_cif.got.tgz:6906.got - 2010.05.20 12:20:32.
