data_PCOD9587348
_publ_section_title
;
Structure prediction by ZEFSAII (Michael W. Deem and Ramdas Pophale) SiO2 
 PCOD9587348
Probable space group: P 6/M M M
;
_chemical_formula_sum "Si O2"
_cell_formula_units_Z 126
_cell_length_a 29.696042
_cell_length_b 29.696042
_cell_length_c 9.572864
_cell_angle_alpha 90.000000
_cell_angle_beta 90.000000
_cell_angle_gamma 120.000000
_cell_volume 7310.880046
_symmetry_space_group_name_H-M "P 6/M M M"
_symmetry_group_IT_number 191
_symmetry_cell_setting 'hexagonal'
loop_
_space_group_symop_operation_xyz
x,y,z
x-y,x,z
-y,x-y,z
-x,-y,z
-x+y,-x,z
y,-x+y,z
x-y,-y,-z
-x,-x+y,-z
y,x,-z
-y,-x,-z
-x+y,y,-z
x,x-y,-z
-x,-y,-z
-x+y,-x,-z
y,-x+y,-z
x,y,-z
x-y,x,-z
-y,x-y,-z
-x+y,y,z
x,x-y,z
-y,-x,z
y,x,z
x-y,-y,z
-x,-x+y,z
loop_
_atom_site_type_symbol
_atom_site_label
_atom_site_fract_x
_atom_site_fract_y
_atom_site_fract_z
Si Si1 0.939604 0.783061 0.500000
Si Si2 0.807146 0.716973 0.780481
Si Si3 0.637812 0.514488 0.666265
Si Si4 0.300578 0.361792 0.664428
Si Si5 0.774064 0.333147 0.834943
Si Si6 0.531203 0.468798 0.165542
Si Si7 0.217945 0.000000 0.000000
O O1 0.905503 0.811006 0.500000
O O2 0.923110 0.745896 0.367350
O O3 0.000000 0.821976 0.500000
O O4 0.852085 0.704169 0.820910
O O5 0.750238 0.667353 0.759865
O O6 0.802758 0.756915 0.881475
O O7 0.627653 0.502383 0.500000
O O8 0.672888 0.576549 0.679972
O O9 0.662683 0.482500 0.736350
O O10 0.585756 0.498489 0.753833
O O11 0.286444 0.349817 0.500000
O O12 0.339373 0.339373 0.696706
O O13 0.769308 0.384654 0.812219
O O14 0.719194 0.280807 0.809384
O O15 0.787148 0.333286 0.000000
O O16 0.500000 0.500000 0.176657
O O17 0.538014 0.461987 0.000000
#
# Coordination Sequence:
#
# PCOD9587348 Si02
#       7
#    12  24  24  24  24  12   6
#     4  10  18  34  60  83 108 149 201 247 283 343
#     4  11  22  37  59  86 117 159 202 244 296 350
#     4  11  23  38  62  91 120 154 196 256 312 368
#     4  10  20  38  61  84 115 158 206 247 295 356
#     4  10  21  40  64  88 117 156 199 246 308 381
#     4  11  23  41  61  87 119 159 203 251 309 373
#     4  12  22  38  56  82 128 159 193 254 292 344
#
# _framework density 17.234587999999999
#
# number of rings (size 3 to 8) (size 9 to 14) (size 15 to 20)
#    0.000    1.429    3.810    1.905    0.000    3.429 
#    3.429    1.905    0.000    1.238    0.000    0.000 
#    0.000    0.000    0.000    6.476    0.000    0.000 
#
# Total GULP energy -701429.700696 kJ/mol
# GULP energy per Si atom -5566.902386 kJ/mol
# Density = 1.719536 g / cm^3
# Si number density = 17.234588 Si / 1000 Ang^3
#
#
#
# Elastic Constant Matrix: (Units=GPa)
#
#
# Indices 1 2 3 4 5 6 
#
# 1 108.9169 64.9458 50.8132 0.0000 0.0000 0.0000
# 2 64.9458 108.9169 50.8132 0.0000 0.0000 0.0000
# 3 50.8132 50.8132 115.9523 0.0000 0.0000 0.0000
# 4 0.0000 0.0000 0.0000 -47.9860 0.0000 0.0000
# 5 0.0000 0.0000 0.0000 0.0000 -47.9860 0.0000
# 6 0.0000 0.0000 0.0000 0.0000 0.0000 21.9855
#
#
#
# Elastic Compliance Matrix: (Units=1/GPa)
#
#
# Indices 1 2 3 4 5 6 
#
# 1 0.015237 -0.007505 -0.003388 0.000000 0.000000 0.000000
# 2 -0.007505 0.015237 -0.003388 0.000000 0.000000 0.000000
# 3 -0.003388 -0.003388 0.011594 0.000000 0.000000 0.000000
# 4 0.000000 0.000000 0.000000 -0.020839 0.000000 0.000000
# 5 0.000000 0.000000 0.000000 0.000000 -0.020839 0.000000
# 6 0.000000 0.000000 0.000000 0.000000 0.000000 0.045484
#
#
# Mechanical properties :
#
#
# Convention : Reuss Voigt Hill
#
# Bulk Modulus (GPa) = 74.04812 74.10339 74.07576
# Shear Modulus (GPa) = 63.33951 -3.64969 29.84491
#
# Velocity S-wave (km/s) = 6.06887 -1.45680 4.16587
# Velocity P-wave (km/s) = 9.60033 6.34512 8.13717
#
# Compressibility (1/GPa) = 0.01350473
#
# Stress axis : x y z
#
# Youngs Moduli (GPa) = 65.62856 65.62856 86.25087
#
# Poissons Ratio (x) = 0.49254 0.29226
# Poissons Ratio (y) = 0.49254 0.29226
# Poissons Ratio (z) = 0.22238 0.22238
#
# Static dielectric constant tensor:
#      x y z
#    x 1.580770 0.000000 0.000000 
#    y 0.000000 1.580770 0.000000 
#    z 0.000000 0.000000 1.596110 
# 
# From -- ./inp_files/1879.got.cif
#   From: 2010.05.17/outbox.cif.g08.bks.cpg/sg191_1_cif.got.tgz:1879.got - 2010.05.20 12:20:32.
