data_PCOD9587837
_publ_section_title
;
Structure prediction by ZEFSAII (Michael W. Deem and Ramdas Pophale) SiO2 
 PCOD9587837
Probable space group: P 6/M M M
;
_chemical_formula_sum "Si O2"
_cell_formula_units_Z 168
_cell_length_a 23.463978
_cell_length_b 23.463978
_cell_length_c 21.138127
_cell_angle_alpha 90.000000
_cell_angle_beta 90.000000
_cell_angle_gamma 120.000000
_cell_volume 10078.604893
_symmetry_space_group_name_H-M "P 6/M M M"
_symmetry_group_IT_number 191
_symmetry_cell_setting 'hexagonal'
loop_
_space_group_symop_operation_xyz
x,y,z
x-y,x,z
-y,x-y,z
-x,-y,z
-x+y,-x,z
y,-x+y,z
x-y,-y,-z
-x,-x+y,-z
y,x,-z
-y,-x,-z
-x+y,y,-z
x,x-y,-z
-x,-y,-z
-x+y,-x,-z
y,-x+y,-z
x,y,-z
x-y,x,-z
-y,x-y,-z
-x+y,y,z
x,x-y,z
-y,-x,z
y,x,z
x-y,-y,z
-x,-x+y,z
loop_
_atom_site_type_symbol
_atom_site_label
_atom_site_fract_x
_atom_site_fract_y
_atom_site_fract_z
Si Si1 0.375542 0.254654 0.430015
Si Si2 0.474707 0.397546 0.754085
Si Si3 0.400362 0.324978 0.927119
Si Si4 0.524510 0.601653 0.601482
Si Si5 0.719702 0.926566 0.687491
Si Si6 0.379534 0.256821 0.803601
Si Si7 0.204078 0.537816 0.076146
O O1 0.346241 0.249270 0.500000
O O2 0.391282 0.195641 0.423808
O O3 0.440369 0.325237 0.424308
O O4 0.326474 0.244376 0.372801
O O5 0.548163 0.451837 0.774846
O O6 0.427525 0.427525 0.770881
O O7 0.475398 0.394662 0.677865
O O8 0.442494 0.324644 0.780817
O O9 0.383203 0.383203 0.921229
O O10 0.361274 0.271861 0.872685
O O11 0.475786 0.344426 0.915105
O O12 0.385010 0.300962 0.000000
O O13 0.450445 0.549556 0.581172
O O14 0.569029 0.569029 0.584432
O O15 0.736904 0.868452 0.683720
O O16 0.676130 0.914124 0.750500
O O17 0.780028 0.000000 0.687966
O O18 0.393009 0.196505 0.806949
O O19 0.263012 0.526023 0.099214
O O20 0.210946 0.605473 0.101009
O O21 0.211562 0.544579 0.000000
#
# Coordination Sequence:
#
# PCOD9587837 Si02
#       7
#    24  24  24  24  24  24  24
#     4  10  20  32  48  73 105 138 168 204 252 299
#     4   9  17  30  49  72  98 128 163 204 246 291
#     4  10  21  35  50  69  95 127 164 209 256 300
#     4   9  17  29  47  71  97 127 164 208 254 293
#     4  10  20  34  53  77 103 131 164 199 238 290
#     4  11  21  33  53  75  97 129 165 204 250 299
#     4   9  17  30  48  69  94 124 158 197 242 292
#
# _framework density 16.668973999999999
#
# number of rings (size 3 to 8) (size 9 to 14) (size 15 to 20)
#    0.000    2.286    1.429    3.143    0.000    3.714 
#    0.000    2.143    0.000    0.714    0.000    0.000 
#    0.000    0.000    0.000    3.571    0.000    0.000 
#
# Total GULP energy -936665.232929 kJ/mol
# GULP energy per Si atom -5575.388291 kJ/mol
# Density = 1.663103 g / cm^3
# Si number density = 16.668974 Si / 1000 Ang^3
#
#
#
# Elastic Constant Matrix: (Units=GPa)
#
#
# Indices 1 2 3 4 5 6 
#
# 1 93.3239 59.8431 32.7232 0.0000 0.0000 0.0000
# 2 59.8431 93.3239 32.7232 0.0000 0.0000 0.0000
# 3 32.7232 32.7232 90.0366 0.0000 0.0000 0.0000
# 4 0.0000 0.0000 0.0000 3.0167 0.0000 0.0000
# 5 0.0000 0.0000 0.0000 0.0000 3.0167 0.0000
# 6 0.0000 0.0000 0.0000 0.0000 0.0000 16.7404
#
#
#
# Elastic Compliance Matrix: (Units=1/GPa)
#
#
# Indices 1 2 3 4 5 6 
#
# 1 0.018798 -0.011069 -0.002809 0.000000 0.000000 0.000000
# 2 -0.011069 0.018798 -0.002809 0.000000 0.000000 0.000000
# 3 -0.002809 -0.002809 0.013148 0.000000 0.000000 0.000000
# 4 0.000000 0.000000 0.000000 0.331492 0.000000 0.000000
# 5 0.000000 0.000000 0.000000 0.000000 0.331492 0.000000
# 6 0.000000 0.000000 0.000000 0.000000 0.000000 0.059736
#
#
# Mechanical properties :
#
#
# Convention : Reuss Voigt Hill
#
# Bulk Modulus (GPa) = 57.56941 58.58482 58.07712
# Shear Modulus (GPa) = 6.15286 14.64774 10.40030
#
# Velocity S-wave (km/s) = 1.92334 2.96758 2.50057
# Velocity P-wave (km/s) = 6.28841 6.85305 6.57680
#
# Compressibility (1/GPa) = 0.01737034
#
# Stress axis : x y z
#
# Youngs Moduli (GPa) = 53.19575 53.19575 76.05442
#
# Poissons Ratio (x) = 0.58884 0.21364
# Poissons Ratio (y) = 0.58884 0.21364
# Poissons Ratio (z) = 0.14943 0.14943
#
# Static dielectric constant tensor:
#      x y z
#    x 1.553330 0.000000 0.000000 
#    y 0.000000 1.553330 0.000000 
#    z 0.000000 0.000000 1.619620 
# 
# From -- ./inp_files/7906.got.cif
#   From: 2010.05.17/outbox.cif.g08.bks.cpg/sg191_4_cif.got.tgz:7906.got - 2010.05.20 12:20:32.
