data_PCOD9587405
_publ_section_title
;
Structure prediction by ZEFSAII (Michael W. Deem and Ramdas Pophale) SiO2 
 PCOD9587405
Probable space group: P 6/M M M
;
_chemical_formula_sum "Si O2"
_cell_formula_units_Z 168
_cell_length_a 27.492891
_cell_length_b 27.492891
_cell_length_c 16.090403
_cell_angle_alpha 90.000000
_cell_angle_beta 90.000000
_cell_angle_gamma 120.000000
_cell_volume 10532.667484
_symmetry_space_group_name_H-M "P 6/M M M"
_symmetry_group_IT_number 191
_symmetry_cell_setting 'hexagonal'
loop_
_space_group_symop_operation_xyz
x,y,z
x-y,x,z
-y,x-y,z
-x,-y,z
-x+y,-x,z
y,-x+y,z
x-y,-y,-z
-x,-x+y,-z
y,x,-z
-y,-x,-z
-x+y,y,-z
x,x-y,-z
-x,-y,-z
-x+y,-x,-z
y,-x+y,-z
x,y,-z
x-y,x,-z
-y,x-y,-z
-x+y,y,z
x,x-y,z
-y,-x,z
y,x,z
x-y,-y,z
-x,-x+y,z
loop_
_atom_site_type_symbol
_atom_site_label
_atom_site_fract_x
_atom_site_fract_y
_atom_site_fract_z
Si Si1 0.171418 0.937694 0.730946
Si Si2 0.936251 0.610806 0.097377
Si Si3 0.644408 0.767000 0.351116
Si Si4 0.550038 0.719116 0.208238
Si Si5 0.781455 0.448223 0.666591
Si Si6 0.146124 0.629992 0.500000
Si Si7 0.911537 0.198581 0.093214
Si Si8 0.319723 0.933165 0.500000
O O1 0.107511 0.892490 0.712685
O O2 0.209267 0.915244 0.687617
O O3 0.181394 0.936160 0.829877
O O4 0.191129 0.000000 0.703723
O O5 0.881789 0.563744 0.145603
O O6 0.928495 0.665474 0.102239
O O7 0.000000 0.630943 0.127859
O O8 0.933770 0.596408 0.000000
O O9 0.641097 0.820549 0.385274
O O10 0.599595 0.741846 0.276727
O O11 0.630665 0.720618 0.420030
O O12 0.550338 0.775169 0.173745
O O13 0.492276 0.682991 0.258352
O O14 0.719139 0.438277 0.654809
O O15 0.780277 0.390139 0.682315
O O16 0.816692 0.474552 0.582245
O O17 0.130110 0.565055 0.500000
O O18 0.094208 0.640592 0.500000
O O19 0.844152 0.155849 0.099008
O O20 0.928294 0.191233 0.000000
O O21 0.354824 0.000000 0.500000
#
# Coordination Sequence:
#
# PCOD9587405 Si02
#       8
#    24  24  24  24  24  12  24  12
#     4  10  19  31  46  65  92 123 158 200 244 293
#     4  10  19  29  45  71 102 134 169 207 243 288
#     4  10  20  33  49  71  97 128 166 205 246 293
#     4  10  19  32  51  75 102 132 165 203 252 304
#     4  10  20  35  57  81 105 131 165 210 260 307
#     4  10  21  36  51  73 107 142 174 210 246 289
#     4   9  16  25  39  62  93 126 157 193 239 287
#     4  12  23  34  51  71  98 140 179 207 241 284
#
# _framework density 15.950374999999999
#
# number of rings (size 3 to 8) (size 9 to 14) (size 15 to 20)
#    0.000    2.000    2.857    1.857    0.000    3.000 
#    0.000    0.714    0.000    1.000    0.000    1.000 
#    0.000    1.143    0.000    3.571    0.000   14.857 
#
# Total GULP energy -936653.050273 kJ/mol
# GULP energy per Si atom -5575.315775 kJ/mol
# Density = 1.591407 g / cm^3
# Si number density = 15.950375 Si / 1000 Ang^3
#
#
#
# Elastic Constant Matrix: (Units=GPa)
#
#
# Indices 1 2 3 4 5 6 
#
# 1 90.7093 66.1552 37.9949 0.0000 0.0000 0.0000
# 2 66.1552 90.7093 37.9949 0.0000 0.0000 0.0000
# 3 37.9949 37.9949 53.0171 0.0000 0.0000 0.0000
# 4 0.0000 0.0000 0.0000 15.5195 0.0000 0.0000
# 5 0.0000 0.0000 0.0000 0.0000 15.5195 0.0000
# 6 0.0000 0.0000 0.0000 0.0000 0.0000 12.2770
#
#
#
# Elastic Compliance Matrix: (Units=1/GPa)
#
#
# Indices 1 2 3 4 5 6 
#
# 1 0.025246 -0.015481 -0.006998 0.000000 0.000000 0.000000
# 2 -0.015481 0.025246 -0.006998 0.000000 0.000000 0.000000
# 3 -0.006998 -0.006998 0.028892 0.000000 0.000000 0.000000
# 4 0.000000 0.000000 0.000000 0.064435 0.000000 0.000000
# 5 0.000000 0.000000 0.000000 0.000000 0.064435 0.000000
# 6 0.000000 0.000000 0.000000 0.000000 0.000000 0.081453
#
#
# Mechanical properties :
#
#
# Convention : Reuss Voigt Hill
#
# Bulk Modulus (GPa) = 48.94807 57.63618 53.29212
# Shear Modulus (GPa) = 14.06587 14.81593 14.44090
#
# Velocity S-wave (km/s) = 2.97282 3.05105 3.01219
# Velocity P-wave (km/s) = 6.52211 6.97317 6.75140
#
# Compressibility (1/GPa) = 0.02042982
#
# Stress axis : x y z
#
# Youngs Moduli (GPa) = 39.61066 39.61066 34.61130
#
# Poissons Ratio (x) = 0.61320 0.24221
# Poissons Ratio (y) = 0.61320 0.24221
# Poissons Ratio (z) = 0.27720 0.27720
#
# Static dielectric constant tensor:
#      x y z
#    x 1.530820 0.000000 0.000000 
#    y 0.000000 1.530820 0.000000 
#    z 0.000000 0.000000 1.541810 
# 
# From -- ./inp_files/5349.got.cif
#   From: 2010.05.17/outbox.cif.g08.bks.cpg/sg191_3_cif.got.tgz:5349.got - 2010.05.20 12:20:32.
