data_PCOD9587928
_publ_section_title
;
Structure prediction by ZEFSAII (Michael W. Deem and Ramdas Pophale) SiO2 
 PCOD9587928
Probable space group: P 6/M M M
;
_chemical_formula_sum "Si O2"
_cell_formula_units_Z 120
_cell_length_a 17.775512
_cell_length_b 17.775512
_cell_length_c 26.229718
_cell_angle_alpha 90.000000
_cell_angle_beta 90.000000
_cell_angle_gamma 120.000000
_cell_volume 7177.422154
_symmetry_space_group_name_H-M "P 6/M M M"
_symmetry_group_IT_number 191
_symmetry_cell_setting 'hexagonal'
loop_
_space_group_symop_operation_xyz
x,y,z
x-y,x,z
-y,x-y,z
-x,-y,z
-x+y,-x,z
y,-x+y,z
x-y,-y,-z
-x,-x+y,-z
y,x,-z
-y,-x,-z
-x+y,y,-z
x,x-y,-z
-x,-y,-z
-x+y,-x,-z
y,-x+y,-z
x,y,-z
x-y,x,-z
-y,x-y,-z
-x+y,y,z
x,x-y,z
-y,-x,z
y,x,z
x-y,-y,z
-x,-x+y,z
loop_
_atom_site_type_symbol
_atom_site_label
_atom_site_fract_x
_atom_site_fract_y
_atom_site_fract_z
Si Si1 0.899144 0.270719 0.899254
Si Si2 0.467511 0.362674 0.000000
Si Si3 0.098450 0.371614 0.500000
Si Si4 0.901578 0.273210 0.699855
Si Si5 0.667359 0.511068 0.200179
Si Si6 0.843450 0.332549 0.400083
O O1 0.831580 0.168421 0.894938
O O2 0.873464 0.306391 0.948985
O O3 0.885947 0.316145 0.849670
O O4 0.000000 0.299113 0.903633
O O5 0.420596 0.420596 0.000000
O O6 0.570189 0.429812 0.000000
O O7 0.171950 0.343899 0.500000
O O8 0.115253 0.430923 0.549817
O O9 0.000000 0.294275 0.500000
O O10 0.827981 0.172020 0.700018
O O11 0.884976 0.316050 0.749582
O O12 0.884798 0.315530 0.649946
O O13 0.000000 0.294188 0.699886
O O14 0.742353 0.484705 0.200046
O O15 0.572979 0.427022 0.200078
O O16 0.854179 0.427090 0.400023
O O17 0.741814 0.258187 0.400079
#
# Coordination Sequence:
#
# PCOD9587928 Si02
#       6
#    24  12  12  24  24  24
#     4  10  20  33  50  72  97 127 163 203 245 286
#     4   9  17  30  49  72  96 122 154 191 231 280
#     4  10  21  35  51  72  97 127 162 202 247 289
#     4  10  21  35  51  72  97 127 162 201 244 286
#     4  10  20  33  50  73 101 131 161 194 234 281
#     4  10  20  33  50  73 102 134 165 196 232 277
#
# _framework density 16.719094999999999
#
# number of rings (size 3 to 8) (size 9 to 14) (size 15 to 20)
#    0.000    2.100    0.000    3.400    0.000    5.200 
#    0.000    3.000    0.000    3.300    0.000    0.000 
#    0.000   12.000    0.000    0.000    0.000    2.000 
#
# Total GULP energy -669839.069249 kJ/mol
# GULP energy per Si atom -5581.992244 kJ/mol
# Density = 1.668104 g / cm^3
# Si number density = 16.719095 Si / 1000 Ang^3
#
#
#
# Elastic Constant Matrix: (Units=GPa)
#
#
# Indices 1 2 3 4 5 6 
#
# 1 105.3696 90.9816 44.3730 0.0000 0.0000 0.0000
# 2 90.9816 105.3696 44.3730 0.0000 0.0000 0.0000
# 3 44.3730 44.3730 150.3020 0.0000 0.0000 0.0000
# 4 0.0000 0.0000 0.0000 29.5951 0.0000 0.0000
# 5 0.0000 0.0000 0.0000 0.0000 29.5951 0.0000
# 6 0.0000 0.0000 0.0000 0.0000 0.0000 7.1940
#
#
#
# Elastic Compliance Matrix: (Units=1/GPa)
#
#
# Indices 1 2 3 4 5 6 
#
# 1 0.037690 -0.031813 -0.001735 0.000000 0.000000 0.000000
# 2 -0.031813 0.037690 -0.001735 0.000000 0.000000 0.000000
# 3 -0.001735 -0.001735 0.007678 0.000000 0.000000 0.000000
# 4 0.000000 0.000000 0.000000 0.033789 0.000000 0.000000
# 5 0.000000 0.000000 0.000000 0.000000 0.033789 0.000000
# 6 0.000000 0.000000 0.000000 0.000000 0.000000 0.139004
#
#
# Mechanical properties :
#
#
# Convention : Reuss Voigt Hill
#
# Bulk Modulus (GPa) = 80.05322 80.05518 80.05420
# Shear Modulus (GPa) = 13.72234 25.36442 19.54338
#
# Velocity S-wave (km/s) = 2.86800 3.89921 3.42266
# Velocity P-wave (km/s) = 7.67805 8.26186 7.97530
#
# Compressibility (1/GPa) = 0.01249169
#
# Stress axis : x y z
#
# Youngs Moduli (GPa) = 26.53248 26.53248 130.24639
#
# Poissons Ratio (x) = 0.84407 0.22599
# Poissons Ratio (y) = 0.84407 0.22599
# Poissons Ratio (z) = 0.04604 0.04604
#
# Static dielectric constant tensor:
#      x y z
#    x 1.548330 0.000000 0.000000 
#    y 0.000000 1.548330 0.000000 
#    z 0.000000 0.000000 1.561290 
# 
# From -- ./inp_files/8508.got.cif
#   From: 2010.05.17/outbox.cif.g08.bks.cpg/sg191_5_cif.got.tgz:8508.got - 2010.05.20 12:20:32.
