data_PCOD9587158
_publ_section_title
;
Structure prediction by ZEFSAII (Michael W. Deem and Ramdas Pophale) SiO2 
 PCOD9587158
Probable space group: P 6/M M M
;
_chemical_formula_sum "Si O2"
_cell_formula_units_Z 120
_cell_length_a 27.306544
_cell_length_b 27.306544
_cell_length_c 11.623059
_cell_angle_alpha 90.000000
_cell_angle_beta 90.000000
_cell_angle_gamma 120.000000
_cell_volume 7505.585040
_symmetry_space_group_name_H-M "P 6/M M M"
_symmetry_group_IT_number 191
_symmetry_cell_setting 'hexagonal'
loop_
_space_group_symop_operation_xyz
x,y,z
x-y,x,z
-y,x-y,z
-x,-y,z
-x+y,-x,z
y,-x+y,z
x-y,-y,-z
-x,-x+y,-z
y,x,-z
-y,-x,-z
-x+y,y,-z
x,x-y,-z
-x,-y,-z
-x+y,-x,-z
y,-x+y,-z
x,y,-z
x-y,x,-z
-y,x-y,-z
-x+y,y,z
x,x-y,z
-y,-x,z
y,x,z
x-y,-y,z
-x,-x+y,z
loop_
_atom_site_type_symbol
_atom_site_label
_atom_site_fract_x
_atom_site_fract_y
_atom_site_fract_z
Si Si1 0.572433 0.845188 0.207047
Si Si2 0.734128 0.919814 0.000000
Si Si3 0.231144 0.170237 0.741576
Si Si4 0.723348 0.063957 0.636659
Si Si5 0.065577 0.371787 0.000000
Si Si6 0.220874 0.666375 0.137382
O O1 0.585635 0.792818 0.191535
O O2 0.602006 0.882462 0.319547
O O3 0.504786 0.815527 0.201515
O O4 0.596998 0.893787 0.108562
O O5 0.767679 0.938161 0.119162
O O6 0.703258 0.851629 0.000000
O O7 0.689375 0.940052 0.000000
O O8 0.224585 0.112292 0.699323
O O9 0.183652 0.183652 0.700570
O O10 0.290775 0.222007 0.700300
O O11 0.731250 0.066165 0.500000
O O12 0.672263 0.000000 0.665010
O O13 0.000000 0.358546 0.000000
O O14 0.209682 0.604841 0.170403
O O15 0.286557 0.713444 0.153477
O O16 0.209509 0.665887 0.000000
#
# Coordination Sequence:
#
# PCOD9587158 Si02
#       6
#    24  12  24  24  12  24
#     4  11  20  31  49  74 100 127 162 202 241 282
#     4  10  18  28  43  65  92 121 154 189 229 280
#     4  10  19  30  45  65  90 119 152 192 237 286
#     4  10  21  35  49  68  95 127 162 196 236 287
#     4  12  20  28  43  66  99 133 162 188 234 289
#     4   9  17  30  50  76 106 134 160 193 237 285
#
# _framework density 15.988094
#
# number of rings (size 3 to 8) (size 9 to 14) (size 15 to 20)
#    0.000    1.800    3.000    3.200    0.000    2.400 
#    0.000    0.000    0.000    3.800    0.000    1.400 
#    0.000    4.000    0.000    5.000    0.000    0.000 
#
# Total GULP energy -668104.780235 kJ/mol
# GULP energy per Si atom -5567.539835 kJ/mol
# Density = 1.595170 g / cm^3
# Si number density = 15.988094 Si / 1000 Ang^3
#
#
#
# Elastic Constant Matrix: (Units=GPa)
#
#
# Indices 1 2 3 4 5 6 
#
# 1 102.4519 56.6293 22.6865 0.0000 0.0000 0.0000
# 2 56.6293 102.4519 22.6865 0.0000 0.0000 0.0000
# 3 22.6865 22.6865 52.2073 0.0000 0.0000 0.0000
# 4 0.0000 0.0000 0.0000 19.0575 0.0000 0.0000
# 5 0.0000 0.0000 0.0000 0.0000 19.0575 0.0000
# 6 0.0000 0.0000 0.0000 0.0000 0.0000 22.9113
#
#
#
# Elastic Compliance Matrix: (Units=1/GPa)
#
#
# Indices 1 2 3 4 5 6 
#
# 1 0.014499 -0.007324 -0.003118 0.000000 0.000000 0.000000
# 2 -0.007324 0.014499 -0.003118 0.000000 0.000000 0.000000
# 3 -0.003118 -0.003118 0.021864 0.000000 0.000000 0.000000
# 4 0.000000 0.000000 0.000000 0.052473 0.000000 0.000000
# 5 0.000000 0.000000 0.000000 0.000000 0.052473 0.000000
# 6 0.000000 0.000000 0.000000 0.000000 0.000000 0.043647
#
#
# Mechanical properties :
#
#
# Convention : Reuss Voigt Hill
#
# Bulk Modulus (GPa) = 42.11782 51.23507 46.67645
# Shear Modulus (GPa) = 21.32295 22.54588 21.93441
#
# Velocity S-wave (km/s) = 3.65592 3.75929 3.70796
# Velocity P-wave (km/s) = 6.64992 7.13851 6.89854
#
# Compressibility (1/GPa) = 0.02374292
#
# Stress axis : x y z
#
# Youngs Moduli (GPa) = 68.96865 68.96865 45.73672
#
# Poissons Ratio (x) = 0.50512 0.14261
# Poissons Ratio (y) = 0.50512 0.14261
# Poissons Ratio (z) = 0.21505 0.21505
#
# Static dielectric constant tensor:
#      x y z
#    x 1.551770 0.000000 0.000000 
#    y 0.000000 1.551770 0.000000 
#    z 0.000000 0.000000 1.573390 
# 
# From -- ./inp_files/3204.got.cif
#   From: 2010.05.17/outbox.cif.g08.bks.cpg/sg191_2_cif.got.tgz:3204.got - 2010.05.20 12:20:32.
