data_PCOD9587116
_publ_section_title
;
Structure prediction by ZEFSAII (Michael W. Deem and Ramdas Pophale) SiO2 
 PCOD9587116
Probable space group: P 6/M M M
;
_chemical_formula_sum "Si O2"
_cell_formula_units_Z 132
_cell_length_a 23.606237
_cell_length_b 23.606237
_cell_length_c 14.830762
_cell_angle_alpha 90.000000
_cell_angle_beta 90.000000
_cell_angle_gamma 120.000000
_cell_volume 7157.273666
_symmetry_space_group_name_H-M "P 6/M M M"
_symmetry_group_IT_number 191
_symmetry_cell_setting 'hexagonal'
loop_
_space_group_symop_operation_xyz
x,y,z
x-y,x,z
-y,x-y,z
-x,-y,z
-x+y,-x,z
y,-x+y,z
x-y,-y,-z
-x,-x+y,-z
y,x,-z
-y,-x,-z
-x+y,y,-z
x,x-y,-z
-x,-y,-z
-x+y,-x,-z
y,-x+y,-z
x,y,-z
x-y,x,-z
-y,x-y,-z
-x+y,y,z
x,x-y,z
-y,-x,z
y,x,z
x-y,-y,z
-x,-x+y,z
loop_
_atom_site_type_symbol
_atom_site_label
_atom_site_fract_x
_atom_site_fract_y
_atom_site_fract_z
Si Si1 0.283388 0.075172 0.146721
Si Si2 0.852106 0.283311 0.161253
Si Si3 0.812664 0.314376 0.500000
Si Si4 0.468224 0.666782 0.000000
Si Si5 0.926437 0.197009 0.362952
Si Si6 0.076890 0.367271 0.500000
Si Si7 0.462751 0.665112 0.703826
O O1 0.274116 0.137058 0.114974
O O2 0.358566 0.092140 0.132980
O O3 0.277937 0.075162 0.255512
O O4 0.232606 0.000000 0.116150
O O5 0.789145 0.210856 0.168325
O O6 0.851428 0.318951 0.254074
O O7 0.836349 0.321859 0.085682
O O8 0.764074 0.235927 0.500000
O O9 0.885921 0.329892 0.500000
O O10 0.799540 0.337080 0.404804
O O11 0.402364 0.597637 0.000000
O O12 0.452796 0.726398 0.000000
O O13 0.876374 0.123627 0.389070
O O14 0.905405 0.243808 0.412953
O O15 0.000000 0.221656 0.391294
O O16 0.000000 0.337269 0.500000
O O17 0.453231 0.726616 0.729491
O O18 0.402398 0.597603 0.738146
#
# Coordination Sequence:
#
# PCOD9587116 Si02
#       7
#    24  24  12  12  24  12  24
#     4   9  17  31  51  74  99 128 163 201 242 288
#     4   9  18  31  49  72  97 128 164 204 247 291
#     4  10  19  29  44  64  88 119 155 200 249 297
#     4  10  19  32  51  75 102 131 166 210 259 305
#     4   9  16  25  40  62  87 114 146 187 232 278
#     4  10  18  27  41  60  82 111 148 192 241 291
#     4  10  19  31  47  67  92 123 161 205 252 299
#
# _framework density 18.442777
#
# number of rings (size 3 to 8) (size 9 to 14) (size 15 to 20)
#    0.000    2.545    0.000    3.000    0.000    2.909 
#    0.000    3.182    0.000    5.273    0.000    2.545 
#    0.000    2.182    0.000    0.182    0.000   10.727 
#
# Total GULP energy -734952.216490 kJ/mol
# GULP energy per Si atom -5567.819822 kJ/mol
# Density = 1.840080 g / cm^3
# Si number density = 18.442777 Si / 1000 Ang^3
#
#
#
# Elastic Constant Matrix: (Units=GPa)
#
#
# Indices 1 2 3 4 5 6 
#
# 1 93.3110 47.7129 6.9466 0.0000 0.0000 0.0000
# 2 47.7129 93.3110 6.9466 0.0000 0.0000 0.0000
# 3 6.9466 6.9466 50.0224 0.0000 0.0000 0.0000
# 4 0.0000 0.0000 0.0000 -0.9351 0.0000 0.0000
# 5 0.0000 0.0000 0.0000 0.0000 -0.9351 0.0000
# 6 0.0000 0.0000 0.0000 0.0000 0.0000 22.7991
#
#
#
# Elastic Compliance Matrix: (Units=1/GPa)
#
#
# Indices 1 2 3 4 5 6 
#
# 1 0.014560 -0.007371 -0.000998 0.000000 0.000000 0.000000
# 2 -0.007371 0.014560 -0.000998 0.000000 0.000000 0.000000
# 3 -0.000998 -0.000998 0.020268 0.000000 0.000000 0.000000
# 4 0.000000 0.000000 0.000000 -1.069359 0.000000 0.000000
# 5 0.000000 0.000000 0.000000 0.000000 -1.069359 0.000000
# 6 0.000000 0.000000 0.000000 0.000000 0.000000 0.043861
#
#
# Mechanical properties :
#
#
# Convention : Reuss Voigt Hill
#
# Bulk Modulus (GPa) = 32.62270 39.98409 36.30339
# Shear Modulus (GPa) = -2.47952 15.85498 6.68773
#
# Velocity S-wave (km/s) = -1.16076 2.93522 1.90633
# Velocity P-wave (km/s) = 3.99131 5.76320 4.95707
#
# Compressibility (1/GPa) = 0.03065350
#
# Stress axis : x y z
#
# Youngs Moduli (GPa) = 68.68112 68.68112 49.33802
#
# Poissons Ratio (x) = 0.50623 0.04926
# Poissons Ratio (y) = 0.50623 0.04926
# Poissons Ratio (z) = 0.06857 0.06857
#
# Static dielectric constant tensor:
#      x y z
#    x 1.644590 0.000000 0.000000 
#    y 0.000000 1.644590 0.000000 
#    z 0.000000 0.000000 1.693210 
# 
# From -- ./inp_files/5019.got.cif
#   From: 2010.05.17/outbox.cif.g08.bks.cpg/sg191_3_cif.got.tgz:5019.got - 2010.05.20 12:20:32.
