data_PCOD9587598
_publ_section_title
;
Structure prediction by ZEFSAII (Michael W. Deem and Ramdas Pophale) SiO2 
 PCOD9587598
Probable space group: P 6/M M M
;
_chemical_formula_sum "Si O2"
_cell_formula_units_Z 144
_cell_length_a 21.732019
_cell_length_b 21.732019
_cell_length_c 20.526390
_cell_angle_alpha 90.000000
_cell_angle_beta 90.000000
_cell_angle_gamma 120.000000
_cell_volume 8395.438025
_symmetry_space_group_name_H-M "P 6/M M M"
_symmetry_group_IT_number 191
_symmetry_cell_setting 'hexagonal'
loop_
_space_group_symop_operation_xyz
x,y,z
x-y,x,z
-y,x-y,z
-x,-y,z
-x+y,-x,z
y,-x+y,z
x-y,-y,-z
-x,-x+y,-z
y,x,-z
-y,-x,-z
-x+y,y,-z
x,x-y,-z
-x,-y,-z
-x+y,-x,-z
y,-x+y,-z
x,y,-z
x-y,x,-z
-y,x-y,-z
-x+y,y,z
x,x-y,z
-y,-x,z
y,x,z
x-y,-y,z
-x,-x+y,z
loop_
_atom_site_type_symbol
_atom_site_label
_atom_site_fract_x
_atom_site_fract_y
_atom_site_fract_z
Si Si1 0.416291 0.332603 0.816483
Si Si2 0.282639 0.917237 0.428462
Si Si3 0.917450 0.696171 0.713667
Si Si4 0.333932 0.533006 0.255809
Si Si5 0.333003 0.520100 0.923051
Si Si6 0.527415 0.193717 0.588918
O O1 0.382164 0.382164 0.828964
O O2 0.359399 0.266833 0.771513
O O3 0.485193 0.364950 0.770409
O O4 0.451348 0.319697 0.880945
O O5 0.245697 0.907467 0.500000
O O6 0.241437 0.903301 0.359497
O O7 0.315580 0.866239 0.429858
O O8 0.341822 0.000000 0.425260
O O9 0.860580 0.721160 0.724185
O O10 0.000000 0.755986 0.714959
O O11 0.253864 0.507727 0.233434
O O12 0.385944 0.614057 0.236862
O O13 0.332660 0.528561 0.332929
O O14 0.267062 0.534124 0.912829
O O15 0.408872 0.591129 0.907276
O O16 0.334733 0.506445 0.000000
O O17 0.590312 0.180623 0.568414
O O18 0.540553 0.270277 0.568207
#
# Coordination Sequence:
#
# PCOD9587598 Si02
#       6
#    24  24  24  24  24  24
#     4  11  22  34  51  76 105 137 171 209 255 308
#     4  10  21  36  54  76 100 130 170 216 266 316
#     4  10  20  36  57  81 108 137 171 210 253 304
#     4  10  19  31  48  69  94 124 163 210 256 300
#     4  10  21  37  57  79 104 137 178 223 268 313
#     4  10  20  33  49  68  92 125 166 212 260 308
#
# _framework density 17.152172
#
# number of rings (size 3 to 8) (size 9 to 14) (size 15 to 20)
#    0.000    1.833    1.667    3.000    0.000    5.667 
#    0.000    5.000    0.000    1.167    0.000    0.000 
#    0.000    0.000    0.000    4.167    0.000    0.000 
#
# Total GULP energy -802031.453346 kJ/mol
# GULP energy per Si atom -5569.662870 kJ/mol
# Density = 1.711313 g / cm^3
# Si number density = 17.152172 Si / 1000 Ang^3
#
#
#
# Elastic Constant Matrix: (Units=GPa)
#
#
# Indices 1 2 3 4 5 6 
#
# 1 82.7341 72.2213 33.8239 0.0000 0.0000 0.0000
# 2 72.2213 82.7341 33.8239 0.0000 0.0000 0.0000
# 3 33.8239 33.8239 137.5530 0.0000 0.0000 0.0000
# 4 0.0000 0.0000 0.0000 -248.9070 0.0000 0.0000
# 5 0.0000 0.0000 0.0000 0.0000 -248.9070 0.0000
# 6 0.0000 0.0000 0.0000 0.0000 0.0000 5.2564
#
#
#
# Elastic Compliance Matrix: (Units=1/GPa)
#
#
# Indices 1 2 3 4 5 6 
#
# 1 0.051176 -0.043947 -0.001778 0.000000 0.000000 0.000000
# 2 -0.043947 0.051176 -0.001778 0.000000 0.000000 0.000000
# 3 -0.001778 -0.001778 0.008144 0.000000 0.000000 0.000000
# 4 0.000000 0.000000 0.000000 -0.004018 0.000000 0.000000
# 5 0.000000 0.000000 0.000000 0.000000 -0.004018 0.000000
# 6 0.000000 0.000000 0.000000 0.000000 0.000000 0.190245
#
#
# Mechanical properties :
#
#
# Convention : Reuss Voigt Hill
#
# Bulk Modulus (GPa) = 64.54775 64.75105 64.64940
# Shear Modulus (GPa) = 12.72670 -87.63472 -37.45401
#
# Velocity S-wave (km/s) = 2.72690 -7.15566 -4.67800
# Velocity P-wave (km/s) = 6.90136 5.51709 2.93176
#
# Compressibility (1/GPa) = 0.01549241
#
# Stress axis : x y z
#
# Youngs Moduli (GPa) = 19.54037 19.54037 122.78677
#
# Poissons Ratio (x) = 0.85873 0.21828
# Poissons Ratio (y) = 0.85873 0.21828
# Poissons Ratio (z) = 0.03474 0.03474
#
# Static dielectric constant tensor:
#      x y z
#    x 1.566200 0.000000 0.000000 
#    y 0.000000 1.566200 0.000000 
#    z 0.000000 0.000000 1.660720 
# 
# From -- ./inp_files/7624.got.cif
#   From: 2010.05.17/outbox.cif.g08.bks.cpg/sg191_4_cif.got.tgz:7624.got - 2010.05.20 12:20:32.
