data_PCOD9587862
_publ_section_title
;
Structure prediction by ZEFSAII (Michael W. Deem and Ramdas Pophale) SiO2 
 PCOD9587862
Probable space group: P 6/M M M
;
_chemical_formula_sum "Si O2"
_cell_formula_units_Z 120
_cell_length_a 22.637185
_cell_length_b 22.637185
_cell_length_c 19.264369
_cell_angle_alpha 90.000000
_cell_angle_beta 90.000000
_cell_angle_gamma 120.000000
_cell_volume 8549.294158
_symmetry_space_group_name_H-M "P 6/M M M"
_symmetry_group_IT_number 191
_symmetry_cell_setting 'hexagonal'
loop_
_space_group_symop_operation_xyz
x,y,z
x-y,x,z
-y,x-y,z
-x,-y,z
-x+y,-x,z
y,-x+y,z
x-y,-y,-z
-x,-x+y,-z
y,x,-z
-y,-x,-z
-x+y,y,-z
x,x-y,-z
-x,-y,-z
-x+y,-x,-z
y,-x+y,-z
x,y,-z
x-y,x,-z
-y,x-y,-z
-x+y,y,z
x,x-y,z
-y,-x,z
y,x,z
x-y,-y,z
-x,-x+y,z
loop_
_atom_site_type_symbol
_atom_site_label
_atom_site_fract_x
_atom_site_fract_y
_atom_site_fract_z
Si Si1 0.472262 0.666596 0.152183
Si Si2 0.472342 0.804788 0.317316
Si Si3 0.395023 0.315558 0.083850
Si Si4 0.921496 0.842992 0.084641
Si Si5 0.389478 0.466966 0.420989
Si Si6 0.156868 0.313736 0.084354
O O1 0.476215 0.738108 0.132924
O O2 0.397008 0.602993 0.138618
O O3 0.485137 0.668441 0.234961
O O4 0.529642 0.657468 0.113290
O O5 0.397009 0.794018 0.329687
O O6 0.473511 0.736756 0.335701
O O7 0.524518 0.868065 0.363850
O O8 0.358257 0.358257 0.105420
O O9 0.351676 0.235940 0.105778
O O10 0.397493 0.317020 0.000000
O O11 0.882334 0.882334 0.106750
O O12 0.882315 0.764629 0.107192
O O13 0.921383 0.842765 0.000000
O O14 0.363049 0.458470 0.500000
O O15 0.461643 0.538358 0.419975
O O16 0.408791 0.408791 0.406400
O O17 0.156901 0.313802 0.000000
#
# Coordination Sequence:
#
# PCOD9587862 Si02
#       6
#    24  24  24  12  24  12
#     4  10  20  34  49  64  84 111 142 177 220 270
#     4   9  17  28  43  62  84 109 137 170 209 251
#     4  10  20  33  49  67  85 107 138 178 220 261
#     4   9  15  22  35  58  86 112 136 161 191 234
#     4   8  14  25  40  58  82 112 142 168 196 235
#     4   9  16  29  46  61  82 110 137 163 202 255
#
# _framework density 14.036246999999999
#
# number of rings (size 3 to 8) (size 9 to 14) (size 15 to 20)
#    0.000    2.800    1.000    1.700    0.000    6.400 
#    0.000    3.000    0.000    2.400    0.000    0.000 
#    0.000    0.000    0.000    0.000    0.000    0.000 
#
# Total GULP energy -668205.087287 kJ/mol
# GULP energy per Si atom -5568.375727 kJ/mol
# Density = 1.400430 g / cm^3
# Si number density = 14.036247 Si / 1000 Ang^3
#
#
#
# Elastic Constant Matrix: (Units=GPa)
#
#
# Indices 1 2 3 4 5 6 
#
# 1 86.8113 41.0536 28.7750 0.0000 0.0000 0.0000
# 2 41.0536 86.8113 28.7750 0.0000 0.0000 0.0000
# 3 28.7750 28.7750 20.4250 0.0000 0.0000 0.0000
# 4 0.0000 0.0000 0.0000 18.3857 0.0000 0.0000
# 5 0.0000 0.0000 0.0000 0.0000 18.3857 0.0000
# 6 0.0000 0.0000 0.0000 0.0000 0.0000 22.8789
#
#
#
# Elastic Compliance Matrix: (Units=1/GPa)
#
#
# Indices 1 2 3 4 5 6 
#
# 1 0.021614 -0.000241 -0.030111 0.000000 0.000000 0.000000
# 2 -0.000241 0.021614 -0.030111 0.000000 0.000000 0.000000
# 3 -0.030111 -0.030111 0.133800 0.000000 0.000000 0.000000
# 4 0.000000 0.000000 0.000000 0.054390 0.000000 0.000000
# 5 0.000000 0.000000 0.000000 0.000000 0.054390 0.000000
# 6 0.000000 0.000000 0.000000 0.000000 0.000000 0.043708
#
#
# Mechanical properties :
#
#
# Convention : Reuss Voigt Hill
#
# Bulk Modulus (GPa) = 17.82417 43.47277 30.64847
# Shear Modulus (GPa) = 10.65777 18.29300 14.47538
#
# Velocity S-wave (km/s) = 2.75854 3.61400 3.21485
# Velocity P-wave (km/s) = 4.78250 6.96087 5.97185
#
# Compressibility (1/GPa) = 0.05610361
#
# Stress axis : x y z
#
# Youngs Moduli (GPa) = 46.26699 46.26699 7.47383
#
# Poissons Ratio (x) = 0.01113 0.22504
# Poissons Ratio (y) = 0.01113 0.22504
# Poissons Ratio (z) = 1.39313 1.39313
#
# Static dielectric constant tensor:
#      x y z
#    x 1.457600 0.000000 0.000000 
#    y 0.000000 1.457600 0.000000 
#    z 0.000000 0.000000 1.453370 
# 
# From -- ./inp_files/6288.got.cif
#   From: 2010.05.17/outbox.cif.g08.bks.cpg/sg191_4_cif.got.tgz:6288.got - 2010.05.20 12:20:32.
