data_PCOD9587423
_publ_section_title
;
Structure prediction by ZEFSAII (Michael W. Deem and Ramdas Pophale) SiO2 
 PCOD9587423
Probable space group: P 6/M M M
;
_chemical_formula_sum "Si O2"
_cell_formula_units_Z 168
_cell_length_a 22.351548
_cell_length_b 22.351548
_cell_length_c 26.545941
_cell_angle_alpha 90.000000
_cell_angle_beta 90.000000
_cell_angle_gamma 120.000000
_cell_volume 11485.342994
_symmetry_space_group_name_H-M "P 6/M M M"
_symmetry_group_IT_number 191
_symmetry_cell_setting 'hexagonal'
loop_
_space_group_symop_operation_xyz
x,y,z
x-y,x,z
-y,x-y,z
-x,-y,z
-x+y,-x,z
y,-x+y,z
x-y,-y,-z
-x,-x+y,-z
y,x,-z
-y,-x,-z
-x+y,y,-z
x,x-y,-z
-x,-y,-z
-x+y,-x,-z
y,-x+y,-z
x,y,-z
x-y,x,-z
-y,x-y,-z
-x+y,y,z
x,x-y,z
-y,-x,z
y,x,z
x-y,-y,z
-x,-x+y,z
loop_
_atom_site_type_symbol
_atom_site_label
_atom_site_fract_x
_atom_site_fract_y
_atom_site_fract_z
Si Si1 0.432970 0.352801 0.557436
Si Si2 0.470526 0.387022 0.945784
Si Si3 0.192637 0.527200 0.638374
Si Si4 0.290370 0.212666 0.300246
Si Si5 0.444286 0.151452 0.739859
Si Si6 0.291838 0.077583 0.422099
Si Si7 0.387001 0.468829 0.835514
O O1 0.458953 0.367183 0.500000
O O2 0.405909 0.405909 0.570968
O O3 0.487114 0.352616 0.596221
O O4 0.364678 0.276790 0.559208
O O5 0.548917 0.451084 0.946246
O O6 0.423238 0.423238 0.945440
O O7 0.459597 0.352859 0.891004
O O8 0.458288 0.349989 0.000000
O O9 0.258790 0.517580 0.629399
O O10 0.213857 0.606929 0.638336
O O11 0.161255 0.493396 0.692565
O O12 0.270782 0.135391 0.285556
O O13 0.236547 0.236547 0.284963
O O14 0.365648 0.264163 0.277987
O O15 0.296198 0.216710 0.361079
O O16 0.451701 0.225851 0.749733
O O17 0.460876 0.122159 0.789200
O O18 0.280303 0.140151 0.438121
O O19 0.233528 0.000000 0.436670
O O20 0.455805 0.544196 0.834373
O O21 0.414509 0.414509 0.830843
#
# Coordination Sequence:
#
# PCOD9587423 Si02
#       7
#    24  24  24  24  24  24  24
#     4  10  21  36  54  74  92 110 136 175 220 261
#     4   7  10  18  33  54  80 107 134 167 209 254
#     4  11  23  38  53  68  88 117 149 179 212 256
#     4   9  16  27  44  64  86 112 142 174 209 252
#     4  10  19  30  44  62  86 115 145 178 213 251
#     4   9  16  28  46  67  89 113 142 173 207 248
#     4   9  16  25  40  63  86 107 136 177 221 259
#
# _framework density 14.627338
#
# number of rings (size 3 to 8) (size 9 to 14) (size 15 to 20)
#    0.000    2.714    1.429    2.714    0.000    2.286 
#    0.000    0.714    0.000    1.857    0.000    2.000 
#    0.000    0.000    0.000    3.571    0.000    3.714 
#
# Total GULP energy -935639.775045 kJ/mol
# GULP energy per Si atom -5569.284375 kJ/mol
# Density = 1.459405 g / cm^3
# Si number density = 14.627338 Si / 1000 Ang^3
#
#
#
# Elastic Constant Matrix: (Units=GPa)
#
#
# Indices 1 2 3 4 5 6 
#
# 1 49.3001 19.7277 41.4770 0.0000 0.0000 0.0000
# 2 19.7277 49.3001 41.4770 0.0000 0.0000 0.0000
# 3 41.4770 41.4770 116.6238 0.0000 0.0000 0.0000
# 4 0.0000 0.0000 0.0000 10.2305 0.0000 0.0000
# 5 0.0000 0.0000 0.0000 0.0000 10.2305 0.0000
# 6 0.0000 0.0000 0.0000 0.0000 0.0000 14.7862
#
#
#
# Elastic Compliance Matrix: (Units=1/GPa)
#
#
# Indices 1 2 3 4 5 6 
#
# 1 0.029558 -0.004258 -0.008998 0.000000 0.000000 0.000000
# 2 -0.004258 0.029558 -0.008998 0.000000 0.000000 0.000000
# 3 -0.008998 -0.008998 0.014975 0.000000 0.000000 0.000000
# 4 0.000000 0.000000 0.000000 0.097747 0.000000 0.000000
# 5 0.000000 0.000000 0.000000 0.000000 0.097747 0.000000
# 6 0.000000 0.000000 0.000000 0.000000 0.000000 0.067631
#
#
# Mechanical properties :
#
#
# Convention : Reuss Voigt Hill
#
# Bulk Modulus (GPa) = 33.80283 46.73195 40.26739
# Shear Modulus (GPa) = 12.76870 14.55227 13.66049
#
# Velocity S-wave (km/s) = 2.95775 3.15757 3.05929
# Velocity P-wave (km/s) = 5.90118 6.73138 6.32990
#
# Compressibility (1/GPa) = 0.02958332
#
# Stress axis : x y z
#
# Youngs Moduli (GPa) = 33.83207 33.83207 66.77899
#
# Poissons Ratio (x) = 0.14404 0.60087
# Poissons Ratio (y) = 0.14404 0.60087
# Poissons Ratio (z) = 0.30442 0.30442
#
# Static dielectric constant tensor:
#      x y z
#    x 1.476390 0.000000 0.000000 
#    y 0.000000 1.476390 0.000000 
#    z 0.000000 0.000000 1.508680 
# 
# From -- ./inp_files/10003.got.cif
#   From: 2010.05.17/outbox.cif.g08.bks.cpg/sg191_6_cif.got.tgz:10003.got - 2010.05.20 12:20:32.
