data_PCOD9587001
_publ_section_title
;
Structure prediction by ZEFSAII (Michael W. Deem and Ramdas Pophale) SiO2 
 PCOD9587001
Probable space group: P -6 2 C
;
_chemical_formula_sum "Si O2"
_cell_formula_units_Z 72
_cell_length_a 15.442930
_cell_length_b 15.442930
_cell_length_c 17.351688
_cell_angle_alpha 90.000000
_cell_angle_beta 90.000000
_cell_angle_gamma 120.000000
_cell_volume 3583.700997
_symmetry_space_group_name_H-M "P -6 2 C"
_symmetry_group_IT_number 190
_symmetry_cell_setting 'hexagonal'
loop_
_space_group_symop_operation_xyz
x,y,z
-x+y,-x,1/2-z
-y,x-y,z
x,y,1/2-z
-x+y,-x,z
-y,x-y,1/2-z
x-y,-y,-z
-x,-x+y,-z
y,x,-z
y,x,1/2+z
x-y,-y,1/2+z
-x,-x+y,1/2+z
loop_
_atom_site_type_symbol
_atom_site_label
_atom_site_fract_x
_atom_site_fract_y
_atom_site_fract_z
Si Si1 0.996935 0.718838 0.088682
Si Si2 0.094316 0.124967 0.837476
Si Si3 0.716385 0.185779 0.158851
Si Si4 0.186250 0.739282 0.158254
Si Si5 0.507519 0.123138 0.410573
Si Si6 0.516827 0.111523 0.904889
O O1 0.956834 0.795679 0.100021
O O2 0.922633 0.621585 0.136571
O O3 0.106532 0.767199 0.124697
O O4 0.000000 0.693091 0.000000
O O5 0.124444 0.164724 0.750000
O O6 0.102857 0.024748 0.844370
O O7 0.725483 0.201879 0.250000
O O8 0.617577 0.182913 0.126732
O O9 0.815972 0.270033 0.116978
O O10 0.179990 0.732319 0.250000
O O11 0.297534 0.819496 0.132835
O O12 0.151595 0.629638 0.123601
O O13 0.516828 0.123699 0.502812
O O14 0.452141 0.006354 0.386244
#
# Coordination Sequence:
#
# PCOD9587001 Si02
#       6
#    12  12  12  12  12  12
#     4  12  24  40  64  93 128 169 214 264 324 385
#     4   8  18  38  62  87 120 159 204 256 314 377
#     4  12  25  42  67  96 132 173 219 272 331 394
#     4  12  25  42  67  96 132 173 219 272 331 394
#     4  11  24  44  69  97 133 175 224 277 334 400
#     4  11  24  44  69  97 133 175 224 277 334 400
#
# _framework density 20.090962000000001
#
# number of rings (size 3 to 8) (size 9 to 14) (size 15 to 20)
#    0.333    0.667    1.667    6.167    0.000    4.000 
#    0.000    0.000    0.000    0.000    0.000    0.000 
#    0.000    0.000    0.000    0.000    0.000    0.000 
#
# Total GULP energy -402386.992723 kJ/mol
# GULP energy per Si atom -5588.708232 kJ/mol
# Density = 2.004523 g / cm^3
# Si number density = 20.090962 Si / 1000 Ang^3
#
#
#
# Elastic Constant Matrix: (Units=GPa)
#
#
# Indices 1 2 3 4 5 6 
#
# 1 73.5803 12.3930 25.7647 0.0000 0.0000 0.0000
# 2 12.3930 73.5803 25.7647 0.0000 0.0000 0.0000
# 3 25.7647 25.7647 110.1159 0.0000 0.0000 0.0000
# 4 0.0000 0.0000 0.0000 43.0709 0.0000 0.0000
# 5 0.0000 0.0000 0.0000 0.0000 43.0709 0.0000
# 6 0.0000 0.0000 0.0000 0.0000 0.0000 30.5937
#
#
#
# Elastic Compliance Matrix: (Units=1/GPa)
#
#
# Indices 1 2 3 4 5 6 
#
# 1 0.014936 -0.001407 -0.003165 0.000000 0.000000 0.000000
# 2 -0.001407 0.014936 -0.003165 0.000000 0.000000 0.000000
# 3 -0.003165 -0.003165 0.010563 0.000000 0.000000 0.000000
# 4 0.000000 0.000000 0.000000 0.023218 0.000000 0.000000
# 5 0.000000 0.000000 0.000000 0.000000 0.023218 0.000000
# 6 0.000000 0.000000 0.000000 0.000000 0.000000 0.032687
#
#
# Mechanical properties :
#
#
# Convention : Reuss Voigt Hill
#
# Bulk Modulus (GPa) = 40.06660 42.79122 41.42891
# Shear Modulus (GPa) = 34.87921 36.23738 35.55829
#
# Velocity S-wave (km/s) = 4.17113 4.25157 4.21154
# Velocity P-wave (km/s) = 6.57143 6.74137 6.65694
#
# Compressibility (1/GPa) = 0.02495845
#
# Stress axis : x y z
#
# Youngs Moduli (GPa) = 66.95226 66.95226 94.67343
#
# Poissons Ratio (x) = 0.09422 0.29968
# Poissons Ratio (y) = 0.09422 0.29968
# Poissons Ratio (z) = 0.21193 0.21193
#
# Static dielectric constant tensor:
#      x y z
#    x 1.709700 0.000000 0.000000 
#    y 0.000000 1.709700 0.000000 
#    z 0.000000 0.000000 1.683830 
# 
# From -- ./inp_files/3753.got.cif
#   From: 2010.05.17/outbox.cif.g08.bks.cpg/sg190_2_cif.got.tgz:3753.got - 2010.05.20 12:16:56.
