data_PCOD9587253
_publ_section_title
;
Structure prediction by ZEFSAII (Michael W. Deem and Ramdas Pophale) SiO2 
 PCOD9587253
Probable space group: P 6/M M M
;
_chemical_formula_sum "Si O2"
_cell_formula_units_Z 84
_cell_length_a 16.690890
_cell_length_b 16.690890
_cell_length_c 21.400619
_cell_angle_alpha 90.000000
_cell_angle_beta 90.000000
_cell_angle_gamma 120.000000
_cell_volume 5163.164439
_symmetry_space_group_name_H-M "P 6/M M M"
_symmetry_group_IT_number 191
_symmetry_cell_setting 'hexagonal'
loop_
_space_group_symop_operation_xyz
x,y,z
x-y,x,z
-y,x-y,z
-x,-y,z
-x+y,-x,z
y,-x+y,z
x-y,-y,-z
-x,-x+y,-z
y,x,-z
-y,-x,-z
-x+y,y,-z
x,x-y,-z
-x,-y,-z
-x+y,-x,-z
y,-x+y,-z
x,y,-z
x-y,x,-z
-y,x-y,-z
-x+y,y,z
x,x-y,z
-y,-x,z
y,x,z
x-y,-y,z
-x,-x+y,z
loop_
_atom_site_type_symbol
_atom_site_label
_atom_site_fract_x
_atom_site_fract_y
_atom_site_fract_z
Si Si1 0.607305 0.713982 0.074606
Si Si2 0.887751 0.443876 0.289586
Si Si3 0.443831 0.556170 0.852914
Si Si4 0.668412 0.148661 0.500000
Si Si5 0.893983 0.287450 0.635490
O O1 0.640953 0.820477 0.088400
O O2 0.678779 0.678779 0.091417
O O3 0.511629 0.649327 0.110340
O O4 0.591024 0.699936 0.000000
O O5 0.854114 0.427057 0.218359
O O6 0.862230 0.511798 0.326223
O O7 0.000000 0.500000 0.288634
O O8 0.500000 0.500000 0.851531
O O9 0.741477 0.258524 0.500000
O O10 0.564340 0.128680 0.500000
O O11 0.689153 0.109973 0.437272
O O12 0.819532 0.180469 0.646029
O O13 0.000000 0.321082 0.652366
#
# Coordination Sequence:
#
# PCOD9587253 Si02
#       5
#    24  12  12  12  24
#     4   9  17  30  49  71  95 125 161 199 237 278
#     4   9  18  32  48  68  94 123 153 189 235 286
#     4   9  17  30  48  68  93 123 155 191 233 281
#     4  10  18  29  48  71  96 124 158 197 238 282
#     4  10  20  33  50  71  96 127 161 198 237 282
#
# _framework density 16.269092000000001
#
# number of rings (size 3 to 8) (size 9 to 14) (size 15 to 20)
#    0.000    2.571    1.429    1.000    0.000    3.429 
#    1.714    0.000    0.000    0.571    0.000    2.000 
#    0.000    3.429    0.000   14.286    0.000    7.429 
#
# Total GULP energy -468088.840864 kJ/mol
# GULP energy per Si atom -5572.486201 kJ/mol
# Density = 1.623206 g / cm^3
# Si number density = 16.269092 Si / 1000 Ang^3
#
#
#
# Elastic Constant Matrix: (Units=GPa)
#
#
# Indices 1 2 3 4 5 6 
#
# 1 91.2980 53.4338 31.0555 0.0000 0.0000 0.0000
# 2 53.4338 91.2980 31.0555 0.0000 0.0000 0.0000
# 3 31.0555 31.0555 56.1715 0.0000 0.0000 0.0000
# 4 0.0000 0.0000 0.0000 4.9455 0.0000 0.0000
# 5 0.0000 0.0000 0.0000 0.0000 4.9455 0.0000
# 6 0.0000 0.0000 0.0000 0.0000 0.0000 18.9321
#
#
#
# Elastic Compliance Matrix: (Units=1/GPa)
#
#
# Indices 1 2 3 4 5 6 
#
# 1 0.017734 -0.008676 -0.005008 0.000000 0.000000 0.000000
# 2 -0.008676 0.017734 -0.005008 0.000000 0.000000 0.000000
# 3 -0.005008 -0.005008 0.023340 0.000000 0.000000 0.000000
# 4 0.000000 0.000000 0.000000 0.202204 0.000000 0.000000
# 5 0.000000 0.000000 0.000000 0.000000 0.202204 0.000000
# 6 0.000000 0.000000 0.000000 0.000000 0.000000 0.052820
#
#
# Mechanical properties :
#
#
# Convention : Reuss Voigt Hill
#
# Bulk Modulus (GPa) = 46.67509 52.20636 49.44072
# Shear Modulus (GPa) = 8.91958 13.97946 11.44952
#
# Velocity S-wave (km/s) = 2.34402 2.93450 2.65572
# Velocity P-wave (km/s) = 6.00646 6.60611 6.31341
#
# Compressibility (1/GPa) = 0.02142471
#
# Stress axis : x y z
#
# Youngs Moduli (GPa) = 56.38766 56.38766 42.84415
#
# Poissons Ratio (x) = 0.48921 0.21457
# Poissons Ratio (y) = 0.48921 0.21457
# Poissons Ratio (z) = 0.28240 0.28240
#
# Static dielectric constant tensor:
#      x y z
#    x 1.545820 0.000000 0.000000 
#    y 0.000000 1.545820 0.000000 
#    z 0.000000 0.000000 1.553530 
# 
# From -- ./inp_files/7051.got.cif
#   From: 2010.05.17/outbox.cif.g08.bks.cpg/sg191_4_cif.got.tgz:7051.got - 2010.05.20 12:20:32.
