data_PCOD9587511
_publ_section_title
;
Structure prediction by ZEFSAII (Michael W. Deem and Ramdas Pophale) SiO2 
 PCOD9587511
Probable space group: P 6/M M M
;
_chemical_formula_sum "Si O2"
_cell_formula_units_Z 132
_cell_length_a 18.366409
_cell_length_b 18.366409
_cell_length_c 28.063050
_cell_angle_alpha 90.000000
_cell_angle_beta 90.000000
_cell_angle_gamma 120.000000
_cell_volume 8198.114968
_symmetry_space_group_name_H-M "P 6/M M M"
_symmetry_group_IT_number 191
_symmetry_cell_setting 'hexagonal'
loop_
_space_group_symop_operation_xyz
x,y,z
x-y,x,z
-y,x-y,z
-x,-y,z
-x+y,-x,z
y,-x+y,z
x-y,-y,-z
-x,-x+y,-z
y,x,-z
-y,-x,-z
-x+y,y,-z
x,x-y,-z
-x,-y,-z
-x+y,-x,-z
y,-x+y,-z
x,y,-z
x-y,x,-z
-y,x-y,-z
-x+y,y,z
x,x-y,z
-y,-x,z
y,x,z
x-y,-y,z
-x,-x+y,z
loop_
_atom_site_type_symbol
_atom_site_label
_atom_site_fract_x
_atom_site_fract_y
_atom_site_fract_z
Si Si1 0.902692 0.641383 0.055875
Si Si2 0.736350 0.641893 0.500000
Si Si3 0.362869 0.262812 0.772674
Si Si4 0.632679 0.099977 0.683585
Si Si5 0.667472 0.501356 0.578207
Si Si6 0.531399 0.632931 0.139028
O O1 0.836598 0.673195 0.064115
O O2 0.877392 0.562399 0.090183
O O3 0.000000 0.709318 0.066344
O O4 0.897984 0.619069 0.000000
O O5 0.717156 0.717156 0.500000
O O6 0.833615 0.667230 0.500000
O O7 0.693093 0.581900 0.545555
O O8 0.326417 0.163209 0.774041
O O9 0.296021 0.296021 0.775246
O O10 0.417119 0.300941 0.724630
O O11 0.427499 0.304901 0.816592
O O12 0.560245 0.120490 0.699862
O O13 0.669358 0.146249 0.633868
O O14 0.584198 0.000000 0.673919
O O15 0.737421 0.474841 0.568738
O O16 0.574958 0.425043 0.567235
O O17 0.432363 0.567638 0.142350
O O18 0.576725 0.576725 0.139922
#
# Coordination Sequence:
#
# PCOD9587511 Si02
#       6
#    24  12  24  24  24  24
#     4   9  17  29  46  68  93 122 157 195 232 270
#     4  10  21  35  51  70  91 117 150 190 233 275
#     4  10  19  31  48  69  93 121 155 193 231 272
#     4   9  17  29  46  67  90 119 156 196 234 271
#     4  10  19  30  45  67  97 130 161 190 221 260
#     4   9  17  29  46  67  88 111 142 181 224 270
#
# _framework density 16.101261999999998
#
# number of rings (size 3 to 8) (size 9 to 14) (size 15 to 20)
#    0.000    2.545    0.000    2.636    0.000    4.000 
#    0.000    2.727    0.000    8.091    0.000    1.273 
#    0.000    4.364    0.000    6.000    0.000    0.000 
#
# Total GULP energy -735496.682149 kJ/mol
# GULP energy per Si atom -5571.944562 kJ/mol
# Density = 1.606461 g / cm^3
# Si number density = 16.101262 Si / 1000 Ang^3
#
#
#
# Elastic Constant Matrix: (Units=GPa)
#
#
# Indices 1 2 3 4 5 6 
#
# 1 85.3773 51.8817 35.9694 0.0000 0.0000 0.0000
# 2 51.8817 85.3773 35.9694 0.0000 0.0000 0.0000
# 3 35.9694 35.9694 58.3072 0.0000 0.0000 0.0000
# 4 0.0000 0.0000 0.0000 17.2510 0.0000 0.0000
# 5 0.0000 0.0000 0.0000 0.0000 17.2510 0.0000
# 6 0.0000 0.0000 0.0000 0.0000 0.0000 16.7478
#
#
#
# Elastic Compliance Matrix: (Units=1/GPa)
#
#
# Indices 1 2 3 4 5 6 
#
# 1 0.020311 -0.009544 -0.006642 0.000000 0.000000 0.000000
# 2 -0.009544 0.020311 -0.006642 0.000000 0.000000 0.000000
# 3 -0.006642 -0.006642 0.025345 0.000000 0.000000 0.000000
# 4 0.000000 0.000000 0.000000 0.057968 0.000000 0.000000
# 5 0.000000 0.000000 0.000000 0.000000 0.057968 0.000000
# 6 0.000000 0.000000 0.000000 0.000000 0.000000 0.059709
#
#
# Mechanical properties :
#
#
# Convention : Reuss Voigt Hill
#
# Bulk Modulus (GPa) = 49.23453 52.96697 51.10075
# Shear Modulus (GPa) = 17.00470 17.26607 17.13538
#
# Velocity S-wave (km/s) = 3.25331 3.27822 3.26579
# Velocity P-wave (km/s) = 6.69003 6.87725 6.78428
#
# Compressibility (1/GPa) = 0.02031095
#
# Stress axis : x y z
#
# Youngs Moduli (GPa) = 49.23545 49.23545 39.45527
#
# Poissons Ratio (x) = 0.46990 0.26205
# Poissons Ratio (y) = 0.46990 0.26205
# Poissons Ratio (z) = 0.32701 0.32701
#
# Static dielectric constant tensor:
#      x y z
#    x 1.535350 0.000000 0.000000 
#    y 0.000000 1.535350 0.000000 
#    z 0.000000 0.000000 1.549270 
# 
# From -- ./inp_files/9743.got.cif
#   From: 2010.05.17/outbox.cif.g08.bks.cpg/sg191_5_cif.got.tgz:9743.got - 2010.05.20 12:20:32.
