data_PCOD9587162
_publ_section_title
;
Structure prediction by ZEFSAII (Michael W. Deem and Ramdas Pophale) SiO2 
 PCOD9587162
Probable space group: P 6/M M M
;
_chemical_formula_sum "Si O2"
_cell_formula_units_Z 108
_cell_length_a 32.271201
_cell_length_b 32.271201
_cell_length_c 8.035819
_cell_angle_alpha 90.000000
_cell_angle_beta 90.000000
_cell_angle_gamma 120.000000
_cell_volume 7247.546900
_symmetry_space_group_name_H-M "P 6/M M M"
_symmetry_group_IT_number 191
_symmetry_cell_setting 'hexagonal'
loop_
_space_group_symop_operation_xyz
x,y,z
x-y,x,z
-y,x-y,z
-x,-y,z
-x+y,-x,z
y,-x+y,z
x-y,-y,-z
-x,-x+y,-z
y,x,-z
-y,-x,-z
-x+y,y,-z
x,x-y,-z
-x,-y,-z
-x+y,-x,-z
y,-x+y,-z
x,y,-z
x-y,x,-z
-y,x-y,-z
-x+y,y,z
x,x-y,z
-y,-x,z
y,x,z
x-y,-y,z
-x,-x+y,z
loop_
_atom_site_type_symbol
_atom_site_label
_atom_site_fract_x
_atom_site_fract_y
_atom_site_fract_z
Si Si1 0.056159 0.265796 0.687047
Si Si2 0.428066 0.666189 0.799438
Si Si3 0.365741 0.231403 0.197287
Si Si4 0.056333 0.850569 0.000000
Si Si5 0.813455 0.282056 0.301484
O O1 0.064480 0.253291 0.500000
O O2 0.089662 0.322195 0.714513
O O3 0.066212 0.238512 0.835637
O O4 0.000000 0.248467 0.700402
O O5 0.424058 0.712029 0.739213
O O6 0.383133 0.616868 0.739711
O O7 0.480013 0.674701 0.750078
O O8 0.426122 0.666485 0.000000
O O9 0.364617 0.182309 0.250803
O O10 0.418768 0.274885 0.234922
O O11 0.357703 0.228612 0.000000
O O12 0.093148 0.906853 0.000000
O O13 0.000000 0.833206 0.000000
O O14 0.814214 0.280176 0.500000
O O15 0.765099 0.234902 0.237932
#
# Coordination Sequence:
#
# PCOD9587162 Si02
#       5
#    24  24  24  12  24
#     4  10  20  32  47  69  97 126 155 189 226 267
#     4   9  16  26  39  54  74 103 140 181 224 269
#     4  10  18  28  44  64  86 115 148 179 215 261
#     4  10  20  34  50  71  98 128 161 195 231 269
#     4   9  17  27  38  55  79 106 138 177 218 262
#
# _framework density 14.901593999999999
#
# number of rings (size 3 to 8) (size 9 to 14) (size 15 to 20)
#    0.000    2.444    1.111    2.222    0.000    6.667 
#    0.000    0.000    0.000    1.444    0.000    0.000 
#    0.000    0.889    0.000   14.889    0.000    4.000 
#
# Total GULP energy -601632.679558 kJ/mol
# GULP energy per Si atom -5570.672959 kJ/mol
# Density = 1.486768 g / cm^3
# Si number density = 14.901594 Si / 1000 Ang^3
#
#
#
# Elastic Constant Matrix: (Units=GPa)
#
#
# Indices 1 2 3 4 5 6 
#
# 1 76.3012 38.6480 26.4239 0.0000 0.0000 0.0000
# 2 38.6480 76.3012 26.4239 0.0000 0.0000 0.0000
# 3 26.4239 26.4239 63.5968 0.0000 0.0000 0.0000
# 4 0.0000 0.0000 0.0000 11.2139 0.0000 0.0000
# 5 0.0000 0.0000 0.0000 0.0000 11.2139 0.0000
# 6 0.0000 0.0000 0.0000 0.0000 0.0000 18.8266
#
#
#
# Elastic Compliance Matrix: (Units=1/GPa)
#
#
# Indices 1 2 3 4 5 6 
#
# 1 0.018656 -0.007902 -0.004468 0.000000 0.000000 0.000000
# 2 -0.007902 0.018656 -0.004468 0.000000 0.000000 0.000000
# 3 -0.004468 -0.004468 0.019437 0.000000 0.000000 0.000000
# 4 0.000000 0.000000 0.000000 0.089175 0.000000 0.000000
# 5 0.000000 0.000000 0.000000 0.000000 0.089175 0.000000
# 6 0.000000 0.000000 0.000000 0.000000 0.000000 0.053116
#
#
# Mechanical properties :
#
#
# Convention : Reuss Voigt Hill
#
# Bulk Modulus (GPa) = 43.34246 44.35453 43.84850
# Shear Modulus (GPa) = 15.17069 16.56443 15.86756
#
# Velocity S-wave (km/s) = 3.19416 3.33767 3.26670
# Velocity P-wave (km/s) = 6.53854 6.68453 6.61194
#
# Compressibility (1/GPa) = 0.02307206
#
# Stress axis : x y z
#
# Youngs Moduli (GPa) = 53.60230 53.60230 51.44844
#
# Poissons Ratio (x) = 0.42358 0.22987
# Poissons Ratio (y) = 0.42358 0.22987
# Poissons Ratio (z) = 0.23950 0.23950
#
# Static dielectric constant tensor:
#      x y z
#    x 1.494170 0.000000 0.000000 
#    y 0.000000 1.494170 0.000000 
#    z 0.000000 0.000000 1.524550 
# 
# From -- ./inp_files/1695.got.cif
#   From: 2010.05.17/outbox.cif.g08.bks.cpg/sg191_1_cif.got.tgz:1695.got - 2010.05.20 12:20:32.
