data_PCOD9587436
_publ_section_title
;
Structure prediction by ZEFSAII (Michael W. Deem and Ramdas Pophale) SiO2 
 PCOD9587436
Probable space group: P 6/M M M
;
_chemical_formula_sum "Si O2"
_cell_formula_units_Z 108
_cell_length_a 32.454626
_cell_length_b 32.454626
_cell_length_c 7.553951
_cell_angle_alpha 90.000000
_cell_angle_beta 90.000000
_cell_angle_gamma 120.000000
_cell_volume 6890.615435
_symmetry_space_group_name_H-M "P 6/M M M"
_symmetry_group_IT_number 191
_symmetry_cell_setting 'hexagonal'
loop_
_space_group_symop_operation_xyz
x,y,z
x-y,x,z
-y,x-y,z
-x,-y,z
-x+y,-x,z
y,-x+y,z
x-y,-y,-z
-x,-x+y,-z
y,x,-z
-y,-x,-z
-x+y,y,-z
x,x-y,-z
-x,-y,-z
-x+y,-x,-z
y,-x+y,-z
x,y,-z
x-y,x,-z
-y,x-y,-z
-x+y,y,z
x,x-y,z
-y,-x,z
y,x,z
x-y,-y,z
-x,-x+y,z
loop_
_atom_site_type_symbol
_atom_site_label
_atom_site_fract_x
_atom_site_fract_y
_atom_site_fract_z
Si Si1 0.146331 0.387824 0.216441
Si Si2 0.199010 0.145661 0.287108
Si Si3 0.506445 0.703185 0.202093
Si Si4 0.568248 0.234317 0.500000
Si Si5 0.946676 0.705119 0.787823
O O1 0.190345 0.380690 0.272260
O O2 0.158373 0.440760 0.267360
O O3 0.096303 0.344604 0.278472
O O4 0.146729 0.387817 0.000000
O O5 0.194430 0.142205 0.500000
O O6 0.191355 0.095678 0.219255
O O7 0.163250 0.163250 0.220421
O O8 0.252086 0.188258 0.247495
O O9 0.507902 0.753951 0.199313
O O10 0.463752 0.670286 0.330544
O O11 0.499561 0.685749 0.000000
O O12 0.618752 0.237504 0.500000
O O13 0.574185 0.287093 0.500000
O O14 0.000000 0.723110 0.719122
O O15 0.948103 0.700783 0.000000
#
# Coordination Sequence:
#
# PCOD9587436 Si02
#       5
#    24  24  24  12  24
#     4   8  13  23  39  56  78 109 138 164 198 240
#     4   9  17  28  39  52  73 101 131 164 204 249
#     4   8  15  28  43  59  82 112 144 177 211 247
#     4  10  19  30  44  64  89 115 143 175 210 247
#     4   9  16  25  39  60  84 107 131 162 200 245
#
# _framework density 15.673491
#
# number of rings (size 3 to 8) (size 9 to 14) (size 15 to 20)
#    0.000    3.333    0.000    2.111    0.000    1.778 
#    2.000    0.000    0.000    1.556    0.000    1.556 
#    0.000    1.778    0.000   14.222    0.000    5.778 
#
# Total GULP energy -601526.524175 kJ/mol
# GULP energy per Si atom -5569.690039 kJ/mol
# Density = 1.563782 g / cm^3
# Si number density = 15.673491 Si / 1000 Ang^3
#
#
#
# Elastic Constant Matrix: (Units=GPa)
#
#
# Indices 1 2 3 4 5 6 
#
# 1 117.0544 65.9615 28.7053 0.0000 0.0000 0.0000
# 2 65.9615 117.0544 28.7053 0.0000 0.0000 0.0000
# 3 28.7053 28.7053 53.0511 0.0000 0.0000 0.0000
# 4 0.0000 0.0000 0.0000 11.9058 0.0000 0.0000
# 5 0.0000 0.0000 0.0000 0.0000 11.9058 0.0000
# 6 0.0000 0.0000 0.0000 0.0000 0.0000 25.5464
#
#
#
# Elastic Compliance Matrix: (Units=1/GPa)
#
#
# Indices 1 2 3 4 5 6 
#
# 1 0.013077 -0.006496 -0.003561 0.000000 0.000000 0.000000
# 2 -0.006496 0.013077 -0.003561 0.000000 0.000000 0.000000
# 3 -0.003561 -0.003561 0.022703 0.000000 0.000000 0.000000
# 4 0.000000 0.000000 0.000000 0.083993 0.000000 0.000000
# 5 0.000000 0.000000 0.000000 0.000000 0.083993 0.000000
# 6 0.000000 0.000000 0.000000 0.000000 0.000000 0.039144
#
#
# Mechanical properties :
#
#
# Convention : Reuss Voigt Hill
#
# Bulk Modulus (GPa) = 46.24983 59.32265 52.78624
# Shear Modulus (GPa) = 17.21592 20.79078 19.00335
#
# Velocity S-wave (km/s) = 3.31782 3.64606 3.48580
# Velocity P-wave (km/s) = 6.65204 7.46031 7.06774
#
# Compressibility (1/GPa) = 0.02162170
#
# Stress axis : x y z
#
# Youngs Moduli (GPa) = 76.47236 76.47236 44.04648
#
# Poissons Ratio (x) = 0.49673 0.15685
# Poissons Ratio (y) = 0.49673 0.15685
# Poissons Ratio (z) = 0.27231 0.27231
#
# Static dielectric constant tensor:
#      x y z
#    x 1.514410 0.000000 0.000000 
#    y 0.000000 1.514410 0.000000 
#    z 0.000000 0.000000 1.583440 
# 
# From -- ./inp_files/1742.got.cif
#   From: 2010.05.17/outbox.cif.g08.bks.cpg/sg191_1_cif.got.tgz:1742.got - 2010.05.20 12:20:32.
