data_PCOD9587927
_publ_section_title
;
Structure prediction by ZEFSAII (Michael W. Deem and Ramdas Pophale) SiO2 
 PCOD9587927
Probable space group: P 6/M M M
;
_chemical_formula_sum "Si O2"
_cell_formula_units_Z 168
_cell_length_a 17.777854
_cell_length_b 17.777854
_cell_length_c 36.736856
_cell_angle_alpha 90.000000
_cell_angle_beta 90.000000
_cell_angle_gamma 120.000000
_cell_volume 10055.213311
_symmetry_space_group_name_H-M "P 6/M M M"
_symmetry_group_IT_number 191
_symmetry_cell_setting 'hexagonal'
loop_
_space_group_symop_operation_xyz
x,y,z
x-y,x,z
-y,x-y,z
-x,-y,z
-x+y,-x,z
y,-x+y,z
x-y,-y,-z
-x,-x+y,-z
y,x,-z
-y,-x,-z
-x+y,y,-z
x,x-y,-z
-x,-y,-z
-x+y,-x,-z
y,-x+y,-z
x,y,-z
x-y,x,-z
-y,x-y,-z
-x+y,y,z
x,x-y,z
-y,-x,z
y,x,z
x-y,-y,z
-x,-x+y,z
loop_
_atom_site_type_symbol
_atom_site_label
_atom_site_fract_x
_atom_site_fract_y
_atom_site_fract_z
Si Si1 0.156571 0.489114 0.000000
Si Si2 0.729275 0.100859 0.786275
Si Si3 0.098438 0.726781 0.928645
Si Si4 0.156311 0.488945 0.428599
Si Si5 0.667363 0.511051 0.142733
Si Si6 0.628301 0.901581 0.500000
Si Si7 0.895180 0.362687 0.285657
Si Si8 0.628390 0.899135 0.642400
O O1 0.115255 0.430821 0.035740
O O2 0.258203 0.516406 0.000000
O O3 0.145827 0.572914 0.000000
O O4 0.831568 0.168433 0.789351
O O5 0.683856 0.114082 0.821672
O O6 0.693597 0.126517 0.750766
O O7 0.700868 0.000000 0.783162
O O8 0.172025 0.827976 0.928545
O O9 0.115045 0.683990 0.893127
O O10 0.000000 0.705752 0.928639
O O11 0.257666 0.515331 0.428504
O O12 0.145960 0.572980 0.428582
O O13 0.115025 0.430945 0.464433
O O14 0.114107 0.430305 0.392982
O O15 0.742339 0.484678 0.142829
O O16 0.572985 0.427016 0.142794
O O17 0.655794 0.827897 0.500000
O O18 0.705807 0.000000 0.500000
O O19 0.859648 0.429824 0.285663
O O20 0.873496 0.306391 0.322075
O O21 0.000000 0.420606 0.285654
O O22 0.663096 0.831548 0.639310
O O23 0.700848 0.000000 0.645496
#
# Coordination Sequence:
#
# PCOD9587927 Si02
#       8
#    12  24  24  24  24  12  24  24
#     4  10  20  33  50  73 102 134 165 196 232 277
#     4  10  20  33  50  72  97 127 163 203 245 286
#     4  10  21  35  51  72  97 127 162 201 244 286
#     4  10  20  33  50  73 101 131 161 194 234 281
#     4  10  20  33  50  73 101 131 161 194 234 281
#     4  10  21  35  51  72  97 127 162 200 241 283
#     4   9  17  30  49  72  96 122 154 191 231 280
#     4  10  20  33  50  72  97 127 163 203 245 286
#
# _framework density 16.707750000000001
#
# number of rings (size 3 to 8) (size 9 to 14) (size 15 to 20)
#    0.000    2.143    0.000    3.357    0.000    4.857 
#    0.000    2.143    0.000    4.500    0.000    0.000 
#    0.000   12.000    0.000    0.000    0.000    2.000 
#
# Total GULP energy -937573.221527 kJ/mol
# GULP energy per Si atom -5580.792985 kJ/mol
# Density = 1.666972 g / cm^3
# Si number density = 16.707750 Si / 1000 Ang^3
#
#
#
# Elastic Constant Matrix: (Units=GPa)
#
#
# Indices 1 2 3 4 5 6 
#
# 1 102.7519 85.9487 42.1843 0.0000 0.0000 0.0000
# 2 85.9487 102.7519 42.1843 0.0000 0.0000 0.0000
# 3 42.1843 42.1843 148.9551 0.0000 0.0000 0.0000
# 4 0.0000 0.0000 0.0000 20.4254 0.0000 0.0000
# 5 0.0000 0.0000 0.0000 0.0000 20.4254 0.0000
# 6 0.0000 0.0000 0.0000 0.0000 0.0000 8.4016
#
#
#
# Elastic Compliance Matrix: (Units=1/GPa)
#
#
# Indices 1 2 3 4 5 6 
#
# 1 0.032790 -0.026722 -0.001718 0.000000 0.000000 0.000000
# 2 -0.026722 0.032790 -0.001718 0.000000 0.000000 0.000000
# 3 -0.001718 -0.001718 0.007687 0.000000 0.000000 0.000000
# 4 0.000000 0.000000 0.000000 0.048959 0.000000 0.000000
# 5 0.000000 0.000000 0.000000 0.000000 0.048959 0.000000
# 6 0.000000 0.000000 0.000000 0.000000 0.000000 0.119025
#
#
# Mechanical properties :
#
#
# Convention : Reuss Voigt Hill
#
# Bulk Modulus (GPa) = 77.22845 77.23261 77.23053
# Shear Modulus (GPa) = 14.09071 22.12658 18.10864
#
# Velocity S-wave (km/s) = 2.90722 3.64308 3.29575
# Velocity P-wave (km/s) = 7.58899 8.00138 7.79791
#
# Compressibility (1/GPa) = 0.01294860
#
# Stress axis : x y z
#
# Youngs Moduli (GPa) = 30.49703 30.49703 130.09441
#
# Poissons Ratio (x) = 0.81495 0.22355
# Poissons Ratio (y) = 0.81495 0.22355
# Poissons Ratio (z) = 0.05241 0.05241
#
# Static dielectric constant tensor:
#      x y z
#    x 1.550040 0.000000 0.000000 
#    y 0.000000 1.550040 0.000000 
#    z 0.000000 0.000000 1.561680 
# 
# From -- ./inp_files/10780.got.cif
#   From: 2010.05.17/outbox.cif.g08.bks.cpg/sg191_6_cif.got.tgz:10780.got - 2010.05.20 12:20:32.
