data_PCOD9587821
_publ_section_title
;
Structure prediction by ZEFSAII (Michael W. Deem and Ramdas Pophale) SiO2 
 PCOD9587821
Probable space group: P 6/M M M
;
_chemical_formula_sum "Si O2"
_cell_formula_units_Z 108
_cell_length_a 17.878582
_cell_length_b 17.878582
_cell_length_c 23.667197
_cell_angle_alpha 90.000000
_cell_angle_beta 90.000000
_cell_angle_gamma 120.000000
_cell_volume 6551.543047
_symmetry_space_group_name_H-M "P 6/M M M"
_symmetry_group_IT_number 191
_symmetry_cell_setting 'hexagonal'
loop_
_space_group_symop_operation_xyz
x,y,z
x-y,x,z
-y,x-y,z
-x,-y,z
-x+y,-x,z
y,-x+y,z
x-y,-y,-z
-x,-x+y,-z
y,x,-z
-y,-x,-z
-x+y,y,-z
x,x-y,-z
-x,-y,-z
-x+y,-x,-z
y,-x+y,-z
x,y,-z
x-y,x,-z
-y,x-y,-z
-x+y,y,z
x,x-y,z
-y,-x,z
y,x,z
x-y,-y,z
-x,-x+y,z
loop_
_atom_site_type_symbol
_atom_site_label
_atom_site_fract_x
_atom_site_fract_y
_atom_site_fract_z
Si Si1 0.636703 0.104196 0.500000
Si Si2 0.370876 0.270249 0.611134
Si Si3 0.667213 0.510356 0.279414
Si Si4 0.895345 0.532841 0.936785
Si Si5 0.100299 0.368156 0.827881
O O1 0.569681 0.139362 0.500000
O O2 0.693223 0.125765 0.556324
O O3 0.579037 0.000000 0.500000
O O4 0.336754 0.168377 0.615274
O O5 0.298850 0.298850 0.606545
O O6 0.429251 0.315036 0.666145
O O7 0.742752 0.485504 0.279224
O O8 0.573712 0.426289 0.281022
O O9 0.681534 0.566868 0.223439
O O10 0.865012 0.432506 0.926346
O O11 0.874309 0.576887 0.885738
O O12 0.000000 0.582459 0.937821
O O13 0.867173 0.541282 0.000000
O O14 0.166927 0.333854 0.818865
O O15 0.000000 0.296216 0.830451
#
# Coordination Sequence:
#
# PCOD9587821 Si02
#       5
#    12  24  24  24  24
#     4   9  17  30  49  72  96 122 154 191 231 280
#     4  10  20  33  50  72  97 127 163 202 241 279
#     4  10  20  33  50  73 100 127 153 184 226 277
#     4   8  14  26  45  68  92 117 146 181 222 271
#     4  10  20  32  47  68  93 122 157 197 238 278
#
# _framework density 16.484666000000001
#
# number of rings (size 3 to 8) (size 9 to 14) (size 15 to 20)
#    0.000    2.556    0.000    3.222    0.000    4.000 
#    0.000    0.000    0.000    4.000    0.000    0.000 
#    0.000    8.000    0.000    5.556    0.000    0.889 
#
# Total GULP energy -602006.524866 kJ/mol
# GULP energy per Si atom -5574.134489 kJ/mol
# Density = 1.644715 g / cm^3
# Si number density = 16.484666 Si / 1000 Ang^3
#
#
#
# Elastic Constant Matrix: (Units=GPa)
#
#
# Indices 1 2 3 4 5 6 
#
# 1 87.5530 65.4231 37.9895 0.0000 0.0000 0.0000
# 2 65.4231 87.5530 37.9895 0.0000 0.0000 0.0000
# 3 37.9895 37.9895 117.8781 0.0000 0.0000 0.0000
# 4 0.0000 0.0000 0.0000 -37.2274 0.0000 0.0000
# 5 0.0000 0.0000 0.0000 0.0000 -37.2274 0.0000
# 6 0.0000 0.0000 0.0000 0.0000 0.0000 11.0649
#
#
#
# Elastic Compliance Matrix: (Units=1/GPa)
#
#
# Indices 1 2 3 4 5 6 
#
# 1 0.026485 -0.018703 -0.002508 0.000000 0.000000 0.000000
# 2 -0.018703 0.026485 -0.002508 0.000000 0.000000 0.000000
# 3 -0.002508 -0.002508 0.010100 0.000000 0.000000 0.000000
# 4 0.000000 0.000000 0.000000 -0.026862 0.000000 0.000000
# 5 0.000000 0.000000 0.000000 0.000000 -0.026862 0.000000
# 6 0.000000 0.000000 0.000000 0.000000 0.000000 0.090376
#
#
# Mechanical properties :
#
#
# Convention : Reuss Voigt Hill
#
# Bulk Modulus (GPa) = 63.96864 63.97649 63.97257
# Shear Modulus (GPa) = 32.81466 -2.57250 15.12108
#
# Velocity S-wave (km/s) = 4.46647 -1.25057 3.03195
# Velocity P-wave (km/s) = 8.09249 6.06702 7.15182
#
# Compressibility (1/GPa) = 0.01563266
#
# Stress axis : x y z
#
# Youngs Moduli (GPa) = 37.75687 37.75687 99.00969
#
# Poissons Ratio (x) = 0.70615 0.24834
# Poissons Ratio (y) = 0.70615 0.24834
# Poissons Ratio (z) = 0.09470 0.09470
#
# Static dielectric constant tensor:
#      x y z
#    x 1.543540 0.000000 0.000000 
#    y 0.000000 1.543540 0.000000 
#    z 0.000000 0.000000 1.566270 
# 
# From -- ./inp_files/7300.got.cif
#   From: 2010.05.17/outbox.cif.g08.bks.cpg/sg191_4_cif.got.tgz:7300.got - 2010.05.20 12:20:32.
