data_PCOD9587906
_publ_section_title
;
Structure prediction by ZEFSAII (Michael W. Deem and Ramdas Pophale) SiO2 
 PCOD9587906
Probable space group: P 6/M M M
;
_chemical_formula_sum "Si O2"
_cell_formula_units_Z 108
_cell_length_a 28.973342
_cell_length_b 28.973342
_cell_length_c 9.022133
_cell_angle_alpha 90.000000
_cell_angle_beta 90.000000
_cell_angle_gamma 120.000000
_cell_volume 6558.991111
_symmetry_space_group_name_H-M "P 6/M M M"
_symmetry_group_IT_number 191
_symmetry_cell_setting 'hexagonal'
loop_
_space_group_symop_operation_xyz
x,y,z
x-y,x,z
-y,x-y,z
-x,-y,z
-x+y,-x,z
y,-x+y,z
x-y,-y,-z
-x,-x+y,-z
y,x,-z
-y,-x,-z
-x+y,y,-z
x,x-y,-z
-x,-y,-z
-x+y,-x,-z
y,-x+y,-z
x,y,-z
x-y,x,-z
-y,x-y,-z
-x+y,y,z
x,x-y,z
-y,-x,z
y,x,z
x-y,-y,z
-x,-x+y,z
loop_
_atom_site_type_symbol
_atom_site_label
_atom_site_fract_x
_atom_site_fract_y
_atom_site_fract_z
Si Si1 0.446471 0.168974 0.676752
Si Si2 0.663936 0.775952 0.830873
Si Si3 0.495271 0.612498 0.820406
Si Si4 0.059627 0.225424 0.678266
Si Si5 0.000000 0.556033 0.169849
O O1 0.446112 0.163961 0.500000
O O2 0.454060 0.227030 0.712047
O O3 0.389217 0.125444 0.743039
O O4 0.490903 0.159023 0.749858
O O5 0.663944 0.831972 0.833718
O O6 0.718938 0.790842 0.751106
O O7 0.662050 0.758249 0.000000
O O8 0.437047 0.562954 0.783861
O O9 0.539322 0.596920 0.765551
O O10 0.498564 0.616113 0.000000
O O11 0.062453 0.231719 0.500000
O O12 0.107114 0.214228 0.722762
O O13 0.000000 0.180069 0.717605
O O14 0.000000 0.500000 0.163404
O O15 0.000000 0.572984 0.000000
#
# Coordination Sequence:
#
# PCOD9587906 Si02
#       5
#    24  24  24  24  12
#     4  10  20  33  49  70  98 131 164 198 239 287
#     4   9  17  30  48  68  90 118 155 198 240 283
#     4   9  17  31  52  75  98 126 160 197 237 283
#     4   9  17  30  48  69  95 127 161 198 242 291
#     4   7  12  26  47  69  93 119 147 183 229 277
#
# _framework density 16.465948000000001
#
# number of rings (size 3 to 8) (size 9 to 14) (size 15 to 20)
#    0.000    3.000    0.000    2.667    0.000    4.889 
#    2.000    0.556    0.000    2.667    0.000    1.556 
#    0.000    0.000    0.000    5.556    0.000    5.778 
#
# Total GULP energy -601282.529225 kJ/mol
# GULP energy per Si atom -5567.430826 kJ/mol
# Density = 1.642847 g / cm^3
# Si number density = 16.465948 Si / 1000 Ang^3
#
#
#
# Elastic Constant Matrix: (Units=GPa)
#
#
# Indices 1 2 3 4 5 6 
#
# 1 97.7898 55.8554 39.6419 0.0000 0.0000 0.0000
# 2 55.8554 97.7898 39.6419 0.0000 0.0000 0.0000
# 3 39.6419 39.6419 36.8860 0.0000 0.0000 0.0000
# 4 0.0000 0.0000 0.0000 17.2837 0.0000 0.0000
# 5 0.0000 0.0000 0.0000 0.0000 17.2837 0.0000
# 6 0.0000 0.0000 0.0000 0.0000 0.0000 20.9672
#
#
#
# Elastic Compliance Matrix: (Units=1/GPa)
#
#
# Indices 1 2 3 4 5 6 
#
# 1 0.019229 -0.004617 -0.015704 0.000000 0.000000 0.000000
# 2 -0.004617 0.019229 -0.015704 0.000000 0.000000 0.000000
# 3 -0.015704 -0.015704 0.060864 0.000000 0.000000 0.000000
# 4 0.000000 0.000000 0.000000 0.057858 0.000000 0.000000
# 5 0.000000 0.000000 0.000000 0.000000 0.057858 0.000000
# 6 0.000000 0.000000 0.000000 0.000000 0.000000 0.047693
#
#
# Mechanical properties :
#
#
# Convention : Reuss Voigt Hill
#
# Bulk Modulus (GPa) = 36.66534 55.86043 46.26288
# Shear Modulus (GPa) = 14.54029 17.59537 16.06783
#
# Velocity S-wave (km/s) = 2.97484 3.27248 3.12720
# Velocity P-wave (km/s) = 5.84083 6.94819 6.41843
#
# Compressibility (1/GPa) = 0.02727371
#
# Stress axis : x y z
#
# Youngs Moduli (GPa) = 52.00408 52.00408 16.43003
#
# Poissons Ratio (x) = 0.24013 0.25801
# Poissons Ratio (y) = 0.24013 0.25801
# Poissons Ratio (z) = 0.81665 0.81665
#
# Static dielectric constant tensor:
#      x y z
#    x 1.558420 0.000000 0.000000 
#    y 0.000000 1.558420 0.000000 
#    z 0.000000 0.000000 1.553620 
# 
# From -- ./inp_files/1671.got.cif
#   From: 2010.05.17/outbox.cif.g08.bks.cpg/sg191_1_cif.got.tgz:1671.got - 2010.05.20 12:20:32.
