data_PCOD9587721
_publ_section_title
;
Structure prediction by ZEFSAII (Michael W. Deem and Ramdas Pophale) SiO2 
 PCOD9587721
Probable space group: P 6/M M M
;
_chemical_formula_sum "Si O2"
_cell_formula_units_Z 108
_cell_length_a 20.644200
_cell_length_b 20.644200
_cell_length_c 17.953047
_cell_angle_alpha 90.000000
_cell_angle_beta 90.000000
_cell_angle_gamma 120.000000
_cell_volume 6626.205723
_symmetry_space_group_name_H-M "P 6/M M M"
_symmetry_group_IT_number 191
_symmetry_cell_setting 'hexagonal'
loop_
_space_group_symop_operation_xyz
x,y,z
x-y,x,z
-y,x-y,z
-x,-y,z
-x+y,-x,z
y,-x+y,z
x-y,-y,-z
-x,-x+y,-z
y,x,-z
-y,-x,-z
-x+y,y,-z
x,x-y,-z
-x,-y,-z
-x+y,-x,-z
y,-x+y,-z
x,y,-z
x-y,x,-z
-y,x-y,-z
-x+y,y,z
x,x-y,z
-y,-x,z
y,x,z
x-y,-y,z
-x,-x+y,z
loop_
_atom_site_type_symbol
_atom_site_label
_atom_site_fract_x
_atom_site_fract_y
_atom_site_fract_z
Si Si1 0.765577 0.084560 0.782553
Si Si2 0.544530 0.455471 0.326942
Si Si3 0.085484 0.320523 0.500000
Si Si4 0.572612 0.710951 0.642289
Si Si5 0.455375 0.910749 0.148500
Si Si6 0.292551 0.434293 0.913279
O O1 0.852184 0.147817 0.776614
O O2 0.722793 0.101954 0.716992
O O3 0.733689 0.096720 0.859916
O O4 0.746661 0.000000 0.775727
O O5 0.500000 0.500000 0.340672
O O6 0.627597 0.503684 0.359058
O O7 0.550171 0.449830 0.237540
O O8 0.147362 0.294723 0.500000
O O9 0.101649 0.372601 0.572312
O O10 0.000000 0.255510 0.500000
O O11 0.548898 0.774449 0.643247
O O12 0.373344 0.875240 0.113511
O O13 0.500000 0.000000 0.134405
O O14 0.228713 0.457425 0.904333
O O15 0.295039 0.417119 0.000000
#
# Coordination Sequence:
#
# PCOD9587721 Si02
#       6
#    24  12  12  24  12  24
#     4  10  19  33  53  74 101 132 165 207 254 306
#     4  11  20  32  54  78 103 133 177 219 256 302
#     4  10  20  35  57  82 109 137 171 213 257 305
#     4  10  21  36  53  77 106 137 174 214 259 306
#     4  11  21  32  52  76  98 131 173 216 258 302
#     4  10  21  35  50  72 101 132 169 211 256 305
#
# _framework density 16.298919999999999
#
# number of rings (size 3 to 8) (size 9 to 14) (size 15 to 20)
#    0.000    1.778    2.222    3.000    0.000    2.667 
#    1.333    1.111    0.000    0.333    0.000    0.000 
#    0.000    5.333    0.000    5.556    0.000    0.444 
#
# Total GULP energy -602960.594539 kJ/mol
# GULP energy per Si atom -5582.968468 kJ/mol
# Density = 1.626182 g / cm^3
# Si number density = 16.298920 Si / 1000 Ang^3
#
#
#
# Elastic Constant Matrix: (Units=GPa)
#
#
# Indices 1 2 3 4 5 6 
#
# 1 109.0697 79.2542 35.4016 0.0000 0.0000 0.0000
# 2 79.2542 109.0697 35.4016 0.0000 0.0000 0.0000
# 3 35.4016 35.4016 70.5620 0.0000 0.0000 0.0000
# 4 0.0000 0.0000 0.0000 9.8253 0.0000 0.0000
# 5 0.0000 0.0000 0.0000 0.0000 9.8253 0.0000
# 6 0.0000 0.0000 0.0000 0.0000 0.0000 14.9077
#
#
#
# Elastic Compliance Matrix: (Units=1/GPa)
#
#
# Indices 1 2 3 4 5 6 
#
# 1 0.020042 -0.013498 -0.003283 0.000000 0.000000 0.000000
# 2 -0.013498 0.020042 -0.003283 0.000000 0.000000 0.000000
# 3 -0.003283 -0.003283 0.017467 0.000000 0.000000 0.000000
# 4 0.000000 0.000000 0.000000 0.101778 0.000000 0.000000
# 5 0.000000 0.000000 0.000000 0.000000 0.101778 0.000000
# 6 0.000000 0.000000 0.000000 0.000000 0.000000 0.067079
#
#
# Mechanical properties :
#
#
# Convention : Reuss Voigt Hill
#
# Bulk Modulus (GPa) = 57.39928 65.42404 61.41166
# Shear Modulus (GPa) = 13.36460 16.15460 14.75960
#
# Velocity S-wave (km/s) = 2.86662 3.15166 3.01251
# Velocity P-wave (km/s) = 6.80071 7.31240 7.06119
#
# Compressibility (1/GPa) = 0.01742182
#
# Stress axis : x y z
#
# Youngs Moduli (GPa) = 49.89515 49.89515 57.25228
#
# Poissons Ratio (x) = 0.67346 0.18798
# Poissons Ratio (y) = 0.67346 0.18798
# Poissons Ratio (z) = 0.16383 0.16383
#
# Static dielectric constant tensor:
#      x y z
#    x 1.529220 0.000000 0.000000 
#    y 0.000000 1.529220 0.000000 
#    z 0.000000 0.000000 1.557280 
# 
# From -- ./inp_files/6155.got.cif
#   From: 2010.05.17/outbox.cif.g08.bks.cpg/sg191_4_cif.got.tgz:6155.got - 2010.05.20 12:20:32.
