data_PCOD9587717
_publ_section_title
;
Structure prediction by ZEFSAII (Michael W. Deem and Ramdas Pophale) SiO2 
 PCOD9587717
Probable space group: P 6/M M M
;
_chemical_formula_sum "Si O2"
_cell_formula_units_Z 78
_cell_length_a 17.196981
_cell_length_b 17.196981
_cell_length_c 18.847149
_cell_angle_alpha 90.000000
_cell_angle_beta 90.000000
_cell_angle_gamma 120.000000
_cell_volume 4827.038009
_symmetry_space_group_name_H-M "P 6/M M M"
_symmetry_group_IT_number 191
_symmetry_cell_setting 'hexagonal'
loop_
_space_group_symop_operation_xyz
x,y,z
x-y,x,z
-y,x-y,z
-x,-y,z
-x+y,-x,z
y,-x+y,z
x-y,-y,-z
-x,-x+y,-z
y,x,-z
-y,-x,-z
-x+y,y,-z
x,x-y,-z
-x,-y,-z
-x+y,-x,-z
y,-x+y,-z
x,y,-z
x-y,x,-z
-y,x-y,-z
-x+y,y,z
x,x-y,z
-y,-x,z
y,x,z
x-y,-y,z
-x,-x+y,z
loop_
_atom_site_type_symbol
_atom_site_label
_atom_site_fract_x
_atom_site_fract_y
_atom_site_fract_z
Si Si1 0.813270 0.813270 0.844005
Si Si2 0.847333 0.512922 0.500000
Si Si3 0.483258 0.334493 0.657092
Si Si4 0.000000 0.813595 0.579849
Si Si5 0.184996 0.184996 0.000000
Si Si6 0.000000 0.302813 0.712767
O O1 0.911062 0.822124 0.837825
O O2 0.774920 0.774920 0.922957
O O3 0.750626 0.750626 0.781765
O O4 0.766020 0.532039 0.500000
O O5 0.812253 0.406127 0.500000
O O6 0.891465 0.544265 0.576742
O O7 0.498868 0.249434 0.655584
O O8 0.574745 0.425256 0.674845
O O9 0.401038 0.314031 0.707459
O O10 0.910925 0.821849 0.585376
O O11 0.000000 0.778277 0.500000
O O12 0.000000 0.752598 0.643435
O O13 0.087303 0.174606 0.000000
#
# Coordination Sequence:
#
# PCOD9587717 Si02
#       6
#    12  12  24  12   6  12
#     4  10  19  33  52  76 104 133 163 195 238 291
#     4   8  15  27  45  63  82 110 154 205 250 289
#     4  10  20  34  50  68  92 126 166 208 253 300
#     4  10  21  35  49  63  87 127 171 204 231 271
#     4   8  15  28  50  76 101 128 158 192 232 288
#     4  12  23  32  46  74 102 126 155 204 252 290
#
# _framework density 16.158978000000001
#
# number of rings (size 3 to 8) (size 9 to 14) (size 15 to 20)
#    0.000    2.154    0.000    4.077    2.154    4.308 
#    0.000    3.846    0.000    0.000    0.000    2.154 
#    0.000    0.000    0.000    3.077    0.000    0.000 
#
# Total GULP energy -434894.690391 kJ/mol
# GULP energy per Si atom -5575.572954 kJ/mol
# Density = 1.612220 g / cm^3
# Si number density = 16.158978 Si / 1000 Ang^3
#
#
#
# Elastic Constant Matrix: (Units=GPa)
#
#
# Indices 1 2 3 4 5 6 
#
# 1 101.4569 27.9257 56.9096 0.0000 0.0000 0.0000
# 2 27.9257 101.4569 56.9096 0.0000 0.0000 0.0000
# 3 56.9096 56.9096 120.1561 0.0000 0.0000 0.0000
# 4 0.0000 0.0000 0.0000 17.3890 0.0000 0.0000
# 5 0.0000 0.0000 0.0000 0.0000 17.3890 0.0000
# 6 0.0000 0.0000 0.0000 0.0000 0.0000 36.7656
#
#
#
# Elastic Compliance Matrix: (Units=1/GPa)
#
#
# Indices 1 2 3 4 5 6 
#
# 1 0.013425 -0.000175 -0.006275 0.000000 0.000000 0.000000
# 2 -0.000175 0.013425 -0.006275 0.000000 0.000000 0.000000
# 3 -0.006275 -0.006275 0.014267 0.000000 0.000000 0.000000
# 4 0.000000 0.000000 0.000000 0.057507 0.000000 0.000000
# 5 0.000000 0.000000 0.000000 0.000000 0.057507 0.000000
# 6 0.000000 0.000000 0.000000 0.000000 0.000000 0.027199
#
#
# Mechanical properties :
#
#
# Convention : Reuss Voigt Hill
#
# Bulk Modulus (GPa) = 63.83873 67.39551 65.61712
# Shear Modulus (GPa) = 23.36409 26.39707 24.88058
#
# Velocity S-wave (km/s) = 3.80661 4.04615 3.92821
# Velocity P-wave (km/s) = 7.67547 7.97664 7.82750
#
# Compressibility (1/GPa) = 0.01566447
#
# Stress axis : x y z
#
# Youngs Moduli (GPa) = 74.49008 74.49008 70.09217
#
# Poissons Ratio (x) = 0.01304 0.43986
# Poissons Ratio (y) = 0.01304 0.43986
# Poissons Ratio (z) = 0.46745 0.46745
#
# Static dielectric constant tensor:
#      x y z
#    x 1.547480 0.000000 0.000000 
#    y 0.000000 1.547480 0.000000 
#    z 0.000000 0.000000 1.557590 
# 
# From -- ./inp_files/5801.got.cif
#   From: 2010.05.17/outbox.cif.g08.bks.cpg/sg191_3_cif.got.tgz:5801.got - 2010.05.20 12:20:32.
