data_PCOD9587782
_publ_section_title
;
Structure prediction by ZEFSAII (Michael W. Deem and Ramdas Pophale) SiO2 
 PCOD9587782
Probable space group: P 6/M M M
;
_chemical_formula_sum "Si O2"
_cell_formula_units_Z 108
_cell_length_a 18.347366
_cell_length_b 18.347366
_cell_length_c 25.112629
_cell_angle_alpha 90.000000
_cell_angle_beta 90.000000
_cell_angle_gamma 120.000000
_cell_volume 7320.997548
_symmetry_space_group_name_H-M "P 6/M M M"
_symmetry_group_IT_number 191
_symmetry_cell_setting 'hexagonal'
loop_
_space_group_symop_operation_xyz
x,y,z
x-y,x,z
-y,x-y,z
-x,-y,z
-x+y,-x,z
y,-x+y,z
x-y,-y,-z
-x,-x+y,-z
y,x,-z
-y,-x,-z
-x+y,y,-z
x,x-y,-z
-x,-y,-z
-x+y,-x,-z
y,-x+y,-z
x,y,-z
x-y,x,-z
-y,x-y,-z
-x+y,y,z
x,x-y,z
-y,-x,z
y,x,z
x-y,-y,z
-x,-x+y,z
loop_
_atom_site_type_symbol
_atom_site_label
_atom_site_fract_x
_atom_site_fract_y
_atom_site_fract_z
Si Si1 0.505797 0.667027 0.629590
Si Si2 0.738092 0.097555 0.156149
Si Si3 0.411404 0.000000 0.561150
Si Si4 0.366353 0.468464 0.939752
Si Si5 0.333897 0.496497 0.245782
O O1 0.508421 0.754211 0.618898
O O2 0.411457 0.588544 0.621017
O O3 0.568353 0.652174 0.592882
O O4 0.524903 0.664165 0.692186
O O5 0.836868 0.163133 0.160866
O O6 0.702450 0.123862 0.105136
O O7 0.691970 0.110455 0.206978
O O8 0.710224 0.000000 0.151101
O O9 0.500000 0.000000 0.561135
O O10 0.386911 0.000000 0.500000
O O11 0.434565 0.565436 0.927215
O O12 0.419543 0.419543 0.940401
O O13 0.334454 0.464046 0.000000
O O14 0.260098 0.520196 0.240872
O O15 0.423854 0.576147 0.231860
#
# Coordination Sequence:
#
# PCOD9587782 Si02
#       5
#    24  24  12  24  24
#     4   9  17  29  45  64  87 117 150 183 217 257
#     4  10  20  31  44  64  88 115 148 187 229 270
#     4   9  18  30  42  60  86 114 146 184 220 250
#     4   8  14  26  44  65  88 113 141 173 210 256
#     4   9  17  28  44  66  91 116 142 173 211 257
#
# _framework density 14.752089
#
# number of rings (size 3 to 8) (size 9 to 14) (size 15 to 20)
#    0.000    3.000    0.000    1.778    1.556    4.000 
#    0.000    0.000    0.000    2.000    0.000    0.000 
#    0.000    0.000    0.000    5.889    0.000    1.444 
#
# Total GULP energy -601577.409567 kJ/mol
# GULP energy per Si atom -5570.161200 kJ/mol
# Density = 1.471851 g / cm^3
# Si number density = 14.752089 Si / 1000 Ang^3
#
#
#
# Elastic Constant Matrix: (Units=GPa)
#
#
# Indices 1 2 3 4 5 6 
#
# 1 71.3421 45.3244 46.8099 0.0000 0.0000 0.0000
# 2 45.3244 71.3421 46.8099 0.0000 0.0000 0.0000
# 3 46.8099 46.8099 74.9962 0.0000 0.0000 0.0000
# 4 0.0000 0.0000 0.0000 15.7666 0.0000 0.0000
# 5 0.0000 0.0000 0.0000 0.0000 15.7666 0.0000
# 6 0.0000 0.0000 0.0000 0.0000 0.0000 13.0089
#
#
#
# Elastic Compliance Matrix: (Units=1/GPa)
#
#
# Indices 1 2 3 4 5 6 
#
# 1 0.027804 -0.010631 -0.010718 0.000000 0.000000 0.000000
# 2 -0.010631 0.027804 -0.010718 0.000000 0.000000 0.000000
# 3 -0.010718 -0.010718 0.026714 0.000000 0.000000 0.000000
# 4 0.000000 0.000000 0.000000 0.063425 0.000000 0.000000
# 5 0.000000 0.000000 0.000000 0.000000 0.063425 0.000000
# 6 0.000000 0.000000 0.000000 0.000000 0.000000 0.076871
#
#
# Mechanical properties :
#
#
# Convention : Reuss Voigt Hill
#
# Bulk Modulus (GPa) = 54.98927 55.06318 55.02622
# Shear Modulus (GPa) = 14.03542 14.15750 14.09646
#
# Velocity S-wave (km/s) = 3.08785 3.10125 3.09456
# Velocity P-wave (km/s) = 7.07599 7.08734 7.08167
#
# Compressibility (1/GPa) = 0.01818537
#
# Stress axis : x y z
#
# Youngs Moduli (GPa) = 35.96612 35.96612 37.43336
#
# Poissons Ratio (x) = 0.38237 0.40123
# Poissons Ratio (y) = 0.38237 0.40123
# Poissons Ratio (z) = 0.38550 0.38550
#
# Static dielectric constant tensor:
#      x y z
#    x 1.474400 0.000000 0.000000 
#    y 0.000000 1.474400 0.000000 
#    z 0.000000 0.000000 1.505340 
# 
# From -- ./inp_files/8335.got.cif
#   From: 2010.05.17/outbox.cif.g08.bks.cpg/sg191_5_cif.got.tgz:8335.got - 2010.05.20 12:20:32.
