data_PCOD9587937
_publ_section_title
;
Structure prediction by ZEFSAII (Michael W. Deem and Ramdas Pophale) SiO2 
 PCOD9587937
Probable space group: P 6/M M M
;
_chemical_formula_sum "Si O2"
_cell_formula_units_Z 108
_cell_length_a 18.248065
_cell_length_b 18.248065
_cell_length_c 23.399827
_cell_angle_alpha 90.000000
_cell_angle_beta 90.000000
_cell_angle_gamma 120.000000
_cell_volume 6748.028634
_symmetry_space_group_name_H-M "P 6/M M M"
_symmetry_group_IT_number 191
_symmetry_cell_setting 'hexagonal'
loop_
_space_group_symop_operation_xyz
x,y,z
x-y,x,z
-y,x-y,z
-x,-y,z
-x+y,-x,z
y,-x+y,z
x-y,-y,-z
-x,-x+y,-z
y,x,-z
-y,-x,-z
-x+y,y,-z
x,x-y,-z
-x,-y,-z
-x+y,-x,-z
y,-x+y,-z
x,y,-z
x-y,x,-z
-y,x-y,-z
-x+y,y,z
x,x-y,z
-y,-x,z
y,x,z
x-y,-y,z
-x,-x+y,z
loop_
_atom_site_type_symbol
_atom_site_label
_atom_site_fract_x
_atom_site_fract_y
_atom_site_fract_z
Si Si1 0.333785 0.493964 0.840314
Si Si2 0.666760 0.160569 0.290935
Si Si3 0.332347 0.492937 0.500000
Si Si4 0.268980 0.902831 0.393775
Si Si5 0.093689 0.737599 0.064982
O O1 0.256040 0.512080 0.845159
O O2 0.421344 0.578657 0.850236
O O3 0.333648 0.466869 0.774659
O O4 0.317152 0.424490 0.887476
O O5 0.576193 0.152386 0.303270
O O6 0.740982 0.259018 0.295192
O O7 0.692095 0.110840 0.335497
O O8 0.424817 0.575184 0.500000
O O9 0.259696 0.519391 0.500000
O O10 0.314420 0.433550 0.555095
O O11 0.169778 0.830223 0.395913
O O12 0.292499 0.000000 0.398616
O O13 0.166358 0.833643 0.073436
O O14 0.000000 0.721897 0.069807
O O15 0.103511 0.713157 0.000000
#
# Coordination Sequence:
#
# PCOD9587937 Si02
#       5
#    24  24  12  24  24
#     4   9  17  29  45  66  93 125 158 188 217 252
#     4   9  17  29  46  68  95 126 157 187 219 258
#     4  10  20  33  50  73 102 134 163 188 216 257
#     4  10  21  35  50  69  93 122 155 193 237 279
#     4   9  18  32  48  65  86 113 145 182 226 274
#
# _framework density 16.004673
#
# number of rings (size 3 to 8) (size 9 to 14) (size 15 to 20)
#    0.000    2.667    0.000    1.556    0.000    5.778 
#    0.000    5.556    0.000    1.778    0.000    1.556 
#    0.000    2.667    0.000   11.111    0.000    5.778 
#
# Total GULP energy -601922.513071 kJ/mol
# GULP energy per Si atom -5573.356603 kJ/mol
# Density = 1.596825 g / cm^3
# Si number density = 16.004673 Si / 1000 Ang^3
#
#
#
# Elastic Constant Matrix: (Units=GPa)
#
#
# Indices 1 2 3 4 5 6 
#
# 1 72.3516 71.8212 53.0373 0.0000 0.0000 0.0000
# 2 71.8212 72.3516 53.0373 0.0000 0.0000 0.0000
# 3 53.0373 53.0373 86.0647 0.0000 0.0000 0.0000
# 4 0.0000 0.0000 0.0000 16.2373 0.0000 0.0000
# 5 0.0000 0.0000 0.0000 0.0000 16.2373 0.0000
# 6 0.0000 0.0000 0.0000 0.0000 0.0000 0.2652
#
#
#
# Elastic Compliance Matrix: (Units=1/GPa)
#
#
# Indices 1 2 3 4 5 6 
#
# 1 0.948980 -0.936290 -0.007820 0.000000 0.000000 0.000000
# 2 -0.936290 0.948980 -0.007820 0.000000 0.000000 0.000000
# 3 -0.007820 -0.007820 0.021257 0.000000 0.000000 0.000000
# 4 0.000000 0.000000 0.000000 0.061587 0.000000 0.000000
# 5 0.000000 0.000000 0.000000 0.000000 0.061587 0.000000
# 6 0.000000 0.000000 0.000000 0.000000 0.000000 3.770540
#
#
# Mechanical properties :
#
#
# Convention : Reuss Voigt Hill
#
# Bulk Modulus (GPa) = 65.11839 65.17325 65.14582
# Shear Modulus (GPa) = 0.64751 10.07278 5.36014
#
# Velocity S-wave (km/s) = 0.63675 2.51144 1.83204
# Velocity P-wave (km/s) = 6.42776 7.01566 6.72813
#
# Compressibility (1/GPa) = 0.01535664
#
# Stress axis : x y z
#
# Youngs Moduli (GPa) = 1.05376 1.05376 47.04276
#
# Poissons Ratio (x) = 0.98663 0.36787
# Poissons Ratio (y) = 0.98663 0.36787
# Poissons Ratio (z) = 0.00824 0.00824
#
# Static dielectric constant tensor:
#      x y z
#    x 1.516560 0.000000 0.000000 
#    y 0.000000 1.516560 0.000000 
#    z 0.000000 0.000000 1.558880 
# 
# From -- ./inp_files/7320.got.cif
#   From: 2010.05.17/outbox.cif.g08.bks.cpg/sg191_4_cif.got.tgz:7320.got - 2010.05.20 12:20:32.
