data_PCOD9587036
_publ_section_title
;
Structure prediction by ZEFSAII (Michael W. Deem and Ramdas Pophale) SiO2 
 PCOD9587036
Probable space group: P 6/M M M
;
_chemical_formula_sum "Si O2"
_cell_formula_units_Z 168
_cell_length_a 28.507108
_cell_length_b 28.507108
_cell_length_c 15.864650
_cell_angle_alpha 90.000000
_cell_angle_beta 90.000000
_cell_angle_gamma 120.000000
_cell_volume 11165.224224
_symmetry_space_group_name_H-M "P 6/M M M"
_symmetry_group_IT_number 191
_symmetry_cell_setting 'hexagonal'
loop_
_space_group_symop_operation_xyz
x,y,z
x-y,x,z
-y,x-y,z
-x,-y,z
-x+y,-x,z
y,-x+y,z
x-y,-y,-z
-x,-x+y,-z
y,x,-z
-y,-x,-z
-x+y,y,-z
x,x-y,-z
-x,-y,-z
-x+y,-x,-z
y,-x+y,-z
x,y,-z
x-y,x,-z
-y,x-y,-z
-x+y,y,z
x,x-y,z
-y,-x,z
y,x,z
x-y,-y,z
-x,-x+y,z
loop_
_atom_site_type_symbol
_atom_site_label
_atom_site_fract_x
_atom_site_fract_y
_atom_site_fract_z
Si Si1 0.643842 0.180501 0.089971
Si Si2 0.285743 0.348208 0.097946
Si Si3 0.380168 0.315967 0.405553
Si Si4 0.397778 0.494586 0.669758
Si Si5 0.500006 0.300932 0.263388
Si Si6 0.131516 0.762040 0.258199
Si Si7 0.397919 0.458013 0.860369
O O1 0.599422 0.198843 0.091739
O O2 0.681640 0.204244 0.169819
O O3 0.610369 0.114866 0.098464
O O4 0.672536 0.194211 0.000000
O O5 0.300754 0.300754 0.105088
O O6 0.245352 0.345648 0.170312
O O7 0.341673 0.403381 0.120012
O O8 0.271376 0.350922 0.000000
O O9 0.378636 0.295144 0.500000
O O10 0.342265 0.342265 0.401169
O O11 0.441410 0.364703 0.386926
O O12 0.360953 0.269623 0.335034
O O13 0.456203 0.543798 0.642707
O O14 0.355692 0.516427 0.685737
O O15 0.404284 0.472524 0.761021
O O16 0.514463 0.257232 0.299512
O O17 0.435049 0.270438 0.252593
O O18 0.175852 0.824149 0.274884
O O19 0.444512 0.444512 0.886413
#
# Coordination Sequence:
#
# PCOD9587036 Si02
#       7
#    24  24  24  24  24  24  24
#     4  10  19  28  37  53  78 103 132 173 213 255
#     4  10  18  28  44  64  90 123 154 184 221 267
#     4  10  20  34  51  71  97 126 152 179 221 280
#     4  10  19  31  47  67  90 110 138 181 224 272
#     4   9  17  29  44  57  72 101 135 168 213 263
#     4  10  19  31  48  68  90 116 151 191 225 258
#     4  10  17  26  40  57  82 116 145 168 204 254
#
# _framework density 15.046720000000001
#
# number of rings (size 3 to 8) (size 9 to 14) (size 15 to 20)
#    0.000    2.143    4.286    3.000    0.000    4.000 
#    0.000    2.857    0.000    2.286    0.000    0.000 
#    0.000    0.000    0.000    0.857    0.000    0.000 
#
# Total GULP energy -935778.452437 kJ/mol
# GULP energy per Si atom -5570.109836 kJ/mol
# Density = 1.501247 g / cm^3
# Si number density = 15.046720 Si / 1000 Ang^3
#
#
#
# Elastic Constant Matrix: (Units=GPa)
#
#
# Indices 1 2 3 4 5 6 
#
# 1 41.9311 22.0214 24.6820 0.0000 0.0000 0.0000
# 2 22.0214 41.9311 24.6820 0.0000 0.0000 0.0000
# 3 24.6820 24.6820 78.7195 0.0000 0.0000 0.0000
# 4 0.0000 0.0000 0.0000 6.7714 0.0000 0.0000
# 5 0.0000 0.0000 0.0000 0.0000 6.7714 0.0000
# 6 0.0000 0.0000 0.0000 0.0000 0.0000 9.9549
#
#
#
# Elastic Compliance Matrix: (Units=1/GPa)
#
#
# Indices 1 2 3 4 5 6 
#
# 1 0.035428 -0.014799 -0.006468 0.000000 0.000000 0.000000
# 2 -0.014799 0.035428 -0.006468 0.000000 0.000000 0.000000
# 3 -0.006468 -0.006468 0.016759 0.000000 0.000000 0.000000
# 4 0.000000 0.000000 0.000000 0.147680 0.000000 0.000000
# 5 0.000000 0.000000 0.000000 0.000000 0.147680 0.000000
# 6 0.000000 0.000000 0.000000 0.000000 0.000000 0.100453
#
#
# Mechanical properties :
#
#
# Convention : Reuss Voigt Hill
#
# Bulk Modulus (GPa) = 31.10872 33.92805 32.51838
# Shear Modulus (GPa) = 9.09730 10.77929 9.93830
#
# Velocity S-wave (km/s) = 2.46154 2.67945 2.57280
# Velocity P-wave (km/s) = 5.36643 5.67186 5.52125
#
# Compressibility (1/GPa) = 0.03214533
#
# Stress axis : x y z
#
# Youngs Moduli (GPa) = 28.22626 28.22626 59.66775
#
# Poissons Ratio (x) = 0.41771 0.38594
# Poissons Ratio (y) = 0.41771 0.38594
# Poissons Ratio (z) = 0.18257 0.18257
#
# Static dielectric constant tensor:
#      x y z
#    x 1.505040 0.000000 0.000000 
#    y 0.000000 1.505040 0.000000 
#    z 0.000000 0.000000 1.529850 
# 
# From -- ./inp_files/5381.got.cif
#   From: 2010.05.17/outbox.cif.g08.bks.cpg/sg191_3_cif.got.tgz:5381.got - 2010.05.20 12:20:32.
