data_PCOD9587012
_publ_section_title
;
Structure prediction by ZEFSAII (Michael W. Deem and Ramdas Pophale) SiO2 
 PCOD9587012
Probable space group: P -6 2 C
;
_chemical_formula_sum "Si O2"
_cell_formula_units_Z 84
_cell_length_a 18.000000
_cell_length_b 18.000000
_cell_length_c 15.000000
_cell_angle_alpha 90.000000
_cell_angle_beta 90.000000
_cell_angle_gamma 120.000000
_cell_volume 4208.883462
_symmetry_space_group_name_H-M "P -6 2 C"
_symmetry_group_IT_number 190
_symmetry_cell_setting 'hexagonal'
loop_
_space_group_symop_operation_xyz
x,y,z
-x+y,-x,1/2-z
-y,x-y,z
x,y,1/2-z
-x+y,-x,z
-y,x-y,1/2-z
x-y,-y,-z
-x,-x+y,-z
y,x,-z
y,x,1/2+z
x-y,-y,1/2+z
-x,-x+y,1/2+z
loop_
_atom_site_type_symbol
_atom_site_label
_atom_site_fract_x
_atom_site_fract_y
_atom_site_fract_z
Si Si1 0.698137 0.788788 0.141095
Si Si2 0.737712 0.835200 0.646567
Si Si3 0.784598 0.014416 0.858437
Si Si4 0.598289 0.976041 0.857520
Si Si5 0.752562 0.213817 0.355344
Si Si6 0.393281 0.540891 0.141059
Si Si7 0.790160 0.275145 0.946984
O O1 0.679354 0.775947 0.250000
O O2 0.758204 0.750126 0.112766
O O3 0.611309 0.750646 0.083665
O O4 0.751441 0.890837 0.123604
O O5 0.765552 0.842943 0.750000
O O6 0.788045 0.931424 0.607056
O O7 0.638331 0.810182 0.646160
O O8 0.778699 0.006372 0.750000
O O9 0.694624 0.005318 0.889505
O O10 0.602293 0.979648 0.750000
O O11 0.539383 0.875137 0.877034
O O12 0.575711 0.048502 0.884115
O O13 0.748158 0.239889 0.250000
O O14 0.774096 0.271381 0.445273
O O15 0.393404 0.547877 0.250000
O O16 0.452303 0.632051 0.095052
O O17 0.297712 0.504387 0.102502
#
# Coordination Sequence:
#
# PCOD9587012 Si02
#       7
#    12  12  12  12  12  12  12
#     4  10  18  32  55  89 129 167 210 260 321 391
#     4   8  16  32  55  81 120 168 210 260 316 370
#     4   8  13  27  51  81 118 166 211 249 303 375
#     4   8  15  33  61  84 117 164 209 255 307 372
#     4   9  20  41  63  86 120 165 218 267 309 367
#     4  11  22  39  61  96 135 163 200 259 331 404
#     4  12  24  38  64  94 125 169 210 259 335 397
#
# _framework density 19.957787
#
# number of rings (size 3 to 8) (size 9 to 14) (size 15 to 20)
#    0.000    2.571    1.429    3.286    0.000    1.143 
#    0.857    3.571    0.000    3.429    0.000    2.000 
#    0.000    0.000    0.000    0.000    0.000    0.000 
#
# Total GULP energy -468375.443380 kJ/mol
# GULP energy per Si atom -5575.898135 kJ/mol
# Density = 1.991236 g / cm^3
# Si number density = 19.957787 Si / 1000 Ang^3
#
#
#
# Elastic Constant Matrix: (Units=GPa)
#
#
# Indices 1 2 3 4 5 6 
#
# 1 84.1451 29.0515 24.6167 0.0000 0.0000 0.0000
# 2 29.0515 84.1451 24.6167 0.0000 0.0000 0.0000
# 3 24.6167 24.6167 100.1982 0.0000 0.0000 0.0000
# 4 0.0000 0.0000 0.0000 15.9121 0.0000 0.0000
# 5 0.0000 0.0000 0.0000 0.0000 15.9121 0.0000
# 6 0.0000 0.0000 0.0000 0.0000 0.0000 27.5468
#
#
#
# Elastic Compliance Matrix: (Units=1/GPa)
#
#
# Indices 1 2 3 4 5 6 
#
# 1 0.014021 -0.004130 -0.002430 0.000000 0.000000 0.000000
# 2 -0.004130 0.014021 -0.002430 0.000000 0.000000 0.000000
# 3 -0.002430 -0.002430 0.011174 0.000000 0.000000 0.000000
# 4 0.000000 0.000000 0.000000 0.062845 0.000000 0.000000
# 5 0.000000 0.000000 0.000000 0.000000 0.062845 0.000000
# 6 0.000000 0.000000 0.000000 0.000000 0.000000 0.036302
#
#
# Mechanical properties :
#
#
# Convention : Reuss Voigt Hill
#
# Bulk Modulus (GPa) = 47.08926 47.22869 47.15897
# Shear Modulus (GPa) = 22.09774 24.55443 23.32608
#
# Velocity S-wave (km/s) = 3.33111 3.51139 3.42244
# Velocity P-wave (km/s) = 6.20005 6.33684 6.26882
#
# Compressibility (1/GPa) = 0.02123627
#
# Stress axis : x y z
#
# Youngs Moduli (GPa) = 71.32149 71.32149 89.49149
#
# Poissons Ratio (x) = 0.29455 0.21747
# Poissons Ratio (y) = 0.29455 0.21747
# Poissons Ratio (z) = 0.17331 0.17331
#
# Static dielectric constant tensor:
#      x y z
#    x 1.708790 0.000000 0.000000 
#    y 0.000000 1.708790 0.000000 
#    z 0.000000 0.000000 1.751140 
# 
# From -- ./inp_files/3178.got.cif
#   From: 2010.05.17/outbox.ucp.g08.bks.cvg/sg190_2_cif.got.tgz:3178.got - 2010.06.11 15:22:26.
