data_PCOD9587602
_publ_section_title
;
Structure prediction by ZEFSAII (Michael W. Deem and Ramdas Pophale) SiO2 
 PCOD9587602
Probable space group: P 6/M M M
;
_chemical_formula_sum "Si O2"
_cell_formula_units_Z 144
_cell_length_a 21.328731
_cell_length_b 21.328731
_cell_length_c 21.694588
_cell_angle_alpha 90.000000
_cell_angle_beta 90.000000
_cell_angle_gamma 120.000000
_cell_volume 8546.967891
_symmetry_space_group_name_H-M "P 6/M M M"
_symmetry_group_IT_number 191
_symmetry_cell_setting 'hexagonal'
loop_
_space_group_symop_operation_xyz
x,y,z
x-y,x,z
-y,x-y,z
-x,-y,z
-x+y,-x,z
y,-x+y,z
x-y,-y,-z
-x,-x+y,-z
y,x,-z
-y,-x,-z
-x+y,y,-z
x,x-y,-z
-x,-y,-z
-x+y,-x,-z
y,-x+y,-z
x,y,-z
x-y,x,-z
-y,x-y,-z
-x+y,y,z
x,x-y,z
-y,-x,z
y,x,z
x-y,-y,z
-x,-x+y,z
loop_
_atom_site_type_symbol
_atom_site_label
_atom_site_fract_x
_atom_site_fract_y
_atom_site_fract_z
Si Si1 0.609676 0.733583 0.573370
Si Si2 0.447076 0.293733 0.759544
Si Si3 0.688211 0.771539 0.000000
Si Si4 0.915902 0.457951 0.907598
Si Si5 0.000000 0.427932 0.574415
Si Si6 0.083681 0.541841 0.757813
Si Si7 0.703186 0.919419 0.687129
Si Si8 0.441104 0.148665 0.906510
O O1 0.622024 0.737159 0.500000
O O2 0.576913 0.788456 0.585484
O O3 0.573349 0.647652 0.590458
O O4 0.681078 0.769031 0.615340
O O5 0.476887 0.238444 0.749946
O O6 0.500088 0.374976 0.738587
O O7 0.372452 0.261201 0.722998
O O8 0.432515 0.293540 0.832685
O O9 0.634332 0.735399 0.058285
O O10 0.749488 0.749488 0.000000
O O11 0.712767 0.856384 0.000000
O O12 0.916079 0.458039 0.832747
O O13 0.875541 0.373961 0.926233
O O14 0.000000 0.500000 0.927190
O O15 0.000000 0.500000 0.596674
O O16 0.000000 0.430358 0.500000
O O17 0.000000 0.500000 0.738742
O O18 0.733427 0.866714 0.701207
O O19 0.755622 0.000000 0.705352
O O20 0.464420 0.232210 0.919891
#
# Coordination Sequence:
#
# PCOD9587602 Si02
#       8
#    24  24  12  12  12  12  24  24
#     4   9  17  30  47  67  94 123 152 193 241 283
#     4   9  18  32  47  66  94 124 156 194 233 274
#     4  10  20  33  51  72  93 119 151 189 231 279
#     4   9  16  27  46  67  90 119 154 192 227 269
#     4   9  16  28  46  68  94 122 157 198 236 280
#     4   9  16  28  45  66  90 118 153 191 231 271
#     4  10  19  31  48  70  93 119 151 187 230 279
#     4   9  18  32  47  67  95 124 156 193 233 274
#
# _framework density 16.848081000000001
#
# number of rings (size 3 to 8) (size 9 to 14) (size 15 to 20)
#    0.000    2.750    0.833    1.000    0.000    2.333 
#    2.500    0.833    0.000    0.583    0.000    2.333 
#    0.000    0.000    0.000   12.500    0.000    0.000 
#
# Total GULP energy -801629.257429 kJ/mol
# GULP energy per Si atom -5566.869843 kJ/mol
# Density = 1.680973 g / cm^3
# Si number density = 16.848081 Si / 1000 Ang^3
#
#
#
# Elastic Constant Matrix: (Units=GPa)
#
#
# Indices 1 2 3 4 5 6 
#
# 1 133.7303 88.9812 18.2376 0.0000 0.0000 0.0000
# 2 88.9812 133.7303 18.2376 0.0000 0.0000 0.0000
# 3 18.2376 18.2376 47.0410 0.0000 0.0000 0.0000
# 4 0.0000 0.0000 0.0000 7.6113 0.0000 0.0000
# 5 0.0000 0.0000 0.0000 0.0000 7.6113 0.0000
# 6 0.0000 0.0000 0.0000 0.0000 0.0000 22.3745
#
#
#
# Elastic Compliance Matrix: (Units=1/GPa)
#
#
# Indices 1 2 3 4 5 6 
#
# 1 0.013571 -0.008776 -0.001859 0.000000 0.000000 0.000000
# 2 -0.008776 0.013571 -0.001859 0.000000 0.000000 0.000000
# 3 -0.001859 -0.001859 0.022699 0.000000 0.000000 0.000000
# 4 0.000000 0.000000 0.000000 0.131384 0.000000 0.000000
# 5 0.000000 0.000000 0.000000 0.000000 0.131384 0.000000
# 6 0.000000 0.000000 0.000000 0.000000 0.000000 0.044694
#
#
# Mechanical properties :
#
#
# Convention : Reuss Voigt Hill
#
# Bulk Modulus (GPa) = 40.23635 62.82384 51.53009
# Shear Modulus (GPa) = 12.80165 20.12242 16.46203
#
# Velocity S-wave (km/s) = 2.75949 3.45968 3.12923
# Velocity P-wave (km/s) = 5.83839 7.30264 6.61118
#
# Compressibility (1/GPa) = 0.02485315
#
# Stress axis : x y z
#
# Youngs Moduli (GPa) = 73.68821 73.68821 44.05409
#
# Poissons Ratio (x) = 0.64670 0.08189
# Poissons Ratio (y) = 0.64670 0.08189
# Poissons Ratio (z) = 0.13697 0.13697
#
# Static dielectric constant tensor:
#      x y z
#    x 1.579230 0.000000 0.000000 
#    y 0.000000 1.579230 0.000000 
#    z 0.000000 0.000000 1.605290 
# 
# From -- ./inp_files/7711.got.cif
#   From: 2010.05.17/outbox.cif.g08.bks.cpg/sg191_4_cif.got.tgz:7711.got - 2010.05.20 12:20:32.
