data_PCOD9587621
_publ_section_title
;
Structure prediction by ZEFSAII (Michael W. Deem and Ramdas Pophale) SiO2 
 PCOD9587621
Probable space group: P 6/M M M
;
_chemical_formula_sum "Si O2"
_cell_formula_units_Z 120
_cell_length_a 18.037867
_cell_length_b 18.037867
_cell_length_c 28.084916
_cell_angle_alpha 90.000000
_cell_angle_beta 90.000000
_cell_angle_gamma 120.000000
_cell_volume 7913.600493
_symmetry_space_group_name_H-M "P 6/M M M"
_symmetry_group_IT_number 191
_symmetry_cell_setting 'hexagonal'
loop_
_space_group_symop_operation_xyz
x,y,z
x-y,x,z
-y,x-y,z
-x,-y,z
-x+y,-x,z
y,-x+y,z
x-y,-y,-z
-x,-x+y,-z
y,x,-z
-y,-x,-z
-x+y,y,-z
x,x-y,-z
-x,-y,-z
-x+y,-x,-z
y,-x+y,-z
x,y,-z
x-y,x,-z
-y,x-y,-z
-x+y,y,z
x,x-y,z
-y,-x,z
y,x,z
x-y,-y,z
-x,-x+y,z
loop_
_atom_site_type_symbol
_atom_site_label
_atom_site_fract_x
_atom_site_fract_y
_atom_site_fract_z
Si Si1 0.509309 0.842169 0.379891
Si Si2 0.267963 0.897555 0.000000
Si Si3 0.103294 0.635655 0.906668
Si Si4 0.333676 0.492850 0.270114
Si Si5 0.000000 0.409862 0.445447
Si Si6 0.634202 0.733120 0.183843
O O1 0.413390 0.826780 0.385578
O O2 0.509694 0.754847 0.387932
O O3 0.533473 0.869154 0.324718
O O4 0.570056 0.915947 0.416066
O O5 0.307212 0.876850 0.046358
O O6 0.166011 0.833990 0.000000
O O7 0.302652 0.000000 0.000000
O O8 0.137742 0.568871 0.907704
O O9 0.125981 0.692068 0.859264
O O10 0.000000 0.578339 0.905985
O O11 0.258732 0.517463 0.267941
O O12 0.425072 0.574929 0.258835
O O13 0.307929 0.417824 0.232375
O O14 0.000000 0.500000 0.445930
O O15 0.000000 0.384395 0.500000
O O16 0.667817 0.833909 0.184795
O O17 0.705082 0.705082 0.177070
#
# Coordination Sequence:
#
# PCOD9587621 Si02
#       6
#    24  12  24  24  12  24
#     4   9  17  29  45  64  87 117 152 187 223 264
#     4  10  19  31  49  70  93 123 162 204 243 281
#     4   9  17  30  48  69  90 115 148 186 227 275
#     4   9  17  28  44  66  91 118 147 181 220 265
#     4   9  18  30  42  60  86 114 147 186 224 260
#     4  10  20  32  47  68  93 121 154 190 229 272
#
# _framework density 15.163769
#
# number of rings (size 3 to 8) (size 9 to 14) (size 15 to 20)
#    0.000    2.700    0.000    1.900    1.400    4.400 
#    0.000    0.000    0.000    8.300    0.000    0.000 
#    0.000    4.800    0.000    0.300    0.000    1.700 
#
# Total GULP energy -668632.503297 kJ/mol
# GULP energy per Si atom -5571.937527 kJ/mol
# Density = 1.512926 g / cm^3
# Si number density = 15.163769 Si / 1000 Ang^3
#
#
#
# Elastic Constant Matrix: (Units=GPa)
#
#
# Indices 1 2 3 4 5 6 
#
# 1 73.9235 45.2585 45.8079 0.0000 0.0000 0.0000
# 2 45.2585 73.9235 45.8079 0.0000 0.0000 0.0000
# 3 45.8079 45.8079 104.7302 0.0000 0.0000 0.0000
# 4 0.0000 0.0000 0.0000 14.4155 0.0000 0.0000
# 5 0.0000 0.0000 0.0000 0.0000 14.4155 0.0000
# 6 0.0000 0.0000 0.0000 0.0000 0.0000 14.3325
#
#
#
# Elastic Compliance Matrix: (Units=1/GPa)
#
#
# Indices 1 2 3 4 5 6 
#
# 1 0.023763 -0.011123 -0.005529 0.000000 0.000000 0.000000
# 2 -0.011123 0.023763 -0.005529 0.000000 0.000000 0.000000
# 3 -0.005529 -0.005529 0.014385 0.000000 0.000000 0.000000
# 4 0.000000 0.000000 0.000000 0.069370 0.000000 0.000000
# 5 0.000000 0.000000 0.000000 0.000000 0.069370 0.000000
# 6 0.000000 0.000000 0.000000 0.000000 0.000000 0.069771
#
#
# Mechanical properties :
#
#
# Convention : Reuss Voigt Hill
#
# Bulk Modulus (GPa) = 56.97806 58.48064 57.72935
# Shear Modulus (GPa) = 15.59415 16.34623 15.97019
#
# Velocity S-wave (km/s) = 3.21032 3.28682 3.24880
# Velocity P-wave (km/s) = 7.16926 7.28382 7.22676
#
# Compressibility (1/GPa) = 0.01755062
#
# Stress axis : x y z
#
# Youngs Moduli (GPa) = 42.08193 42.08193 69.51738
#
# Poissons Ratio (x) = 0.46806 0.38435
# Poissons Ratio (y) = 0.46806 0.38435
# Poissons Ratio (z) = 0.23267 0.23267
#
# Static dielectric constant tensor:
#      x y z
#    x 1.493360 0.000000 0.000000 
#    y 0.000000 1.493360 0.000000 
#    z 0.000000 0.000000 1.516760 
# 
# From -- ./inp_files/8613.got.cif
#   From: 2010.05.17/outbox.cif.g08.bks.cpg/sg191_5_cif.got.tgz:8613.got - 2010.05.20 12:20:32.
