data_PCOD9587252
_publ_section_title
;
Structure prediction by ZEFSAII (Michael W. Deem and Ramdas Pophale) SiO2 
 PCOD9587252
Probable space group: P 6/M M M
;
_chemical_formula_sum "Si O2"
_cell_formula_units_Z 132
_cell_length_a 26.672325
_cell_length_b 26.672325
_cell_length_c 13.885497
_cell_angle_alpha 90.000000
_cell_angle_beta 90.000000
_cell_angle_gamma 120.000000
_cell_volume 8554.877781
_symmetry_space_group_name_H-M "P 6/M M M"
_symmetry_group_IT_number 191
_symmetry_cell_setting 'hexagonal'
loop_
_space_group_symop_operation_xyz
x,y,z
x-y,x,z
-y,x-y,z
-x,-y,z
-x+y,-x,z
y,-x+y,z
x-y,-y,-z
-x,-x+y,-z
y,x,-z
-y,-x,-z
-x+y,y,-z
x,x-y,-z
-x,-y,-z
-x+y,-x,-z
y,-x+y,-z
x,y,-z
x-y,x,-z
-y,x-y,-z
-x+y,y,z
x,x-y,z
-y,-x,z
y,x,z
x-y,-y,z
-x,-x+y,z
loop_
_atom_site_type_symbol
_atom_site_label
_atom_site_fract_x
_atom_site_fract_y
_atom_site_fract_z
Si Si1 0.248630 0.932732 0.891799
Si Si2 0.066642 0.820200 0.708555
Si Si3 0.715019 0.065402 0.386685
Si Si4 0.714848 0.550578 0.106837
Si Si5 0.547124 0.333697 0.500000
Si Si6 0.532747 0.706084 0.316194
O O1 0.201968 0.922586 0.811000
O O2 0.273368 0.889218 0.881692
O O3 0.298209 0.000000 0.882532
O O4 0.224419 0.924544 0.000000
O O5 0.113758 0.886242 0.693094
O O6 0.074598 0.778394 0.633958
O O7 0.000000 0.803532 0.704889
O O8 0.706797 0.067950 0.500000
O O9 0.708191 0.115354 0.337349
O O10 0.670587 0.000000 0.351936
O O11 0.777530 0.555060 0.104886
O O12 0.685359 0.516230 0.205270
O O13 0.688339 0.528983 0.000000
O O14 0.607544 0.392457 0.500000
O O15 0.555882 0.277941 0.500000
O O16 0.511284 0.328342 0.402628
O O17 0.542233 0.771117 0.321413
#
# Coordination Sequence:
#
# PCOD9587252 Si02
#       6
#    24  24  24  24  12  24
#     4   9  16  24  36  58  88 120 151 182 223 275
#     4  10  19  29  41  58  83 115 151 191 237 287
#     4  10  19  29  43  66  95 124 148 181 228 283
#     4   9  16  25  39  62  92 122 151 185 226 276
#     4  10  21  36  55  77  99 125 158 199 237 265
#     4  10  18  29  48  71  94 125 161 195 232 277
#
# _framework density 15.429793999999999
#
# number of rings (size 3 to 8) (size 9 to 14) (size 15 to 20)
#    0.000    2.364    2.727    1.182    0.000    2.182 
#    0.000    0.000    0.000    1.818    0.000    0.000 
#    0.000    1.455    0.000   15.273    0.000    0.182 
#
# Total GULP energy -734897.934232 kJ/mol
# GULP energy per Si atom -5567.408593 kJ/mol
# Density = 1.539467 g / cm^3
# Si number density = 15.429794 Si / 1000 Ang^3
#
#
#
# Elastic Constant Matrix: (Units=GPa)
#
#
# Indices 1 2 3 4 5 6 
#
# 1 48.8047 18.3155 33.5692 0.0000 0.0000 0.0000
# 2 18.3155 48.8047 33.5692 0.0000 0.0000 0.0000
# 3 33.5692 33.5692 112.1156 0.0000 0.0000 0.0000
# 4 0.0000 0.0000 0.0000 11.5039 0.0000 0.0000
# 5 0.0000 0.0000 0.0000 0.0000 11.5039 0.0000
# 6 0.0000 0.0000 0.0000 0.0000 0.0000 15.2446
#
#
#
# Elastic Compliance Matrix: (Units=1/GPa)
#
#
# Indices 1 2 3 4 5 6 
#
# 1 0.027034 -0.005765 -0.006368 0.000000 0.000000 0.000000
# 2 -0.005765 0.027034 -0.006368 0.000000 0.000000 0.000000
# 3 -0.006368 -0.006368 0.012733 0.000000 0.000000 0.000000
# 4 0.000000 0.000000 0.000000 0.086927 0.000000 0.000000
# 5 0.000000 0.000000 0.000000 0.000000 0.086927 0.000000
# 6 0.000000 0.000000 0.000000 0.000000 0.000000 0.065597
#
#
# Mechanical properties :
#
#
# Convention : Reuss Voigt Hill
#
# Bulk Modulus (GPa) = 33.56011 42.29253 37.92632
# Shear Modulus (GPa) = 14.15685 15.93522 15.04604
#
# Velocity S-wave (km/s) = 3.03231 3.21714 3.12609
# Velocity P-wave (km/s) = 5.83587 6.42411 6.13704
#
# Compressibility (1/GPa) = 0.02979728
#
# Stress axis : x y z
#
# Youngs Moduli (GPa) = 36.99113 36.99113 78.53731
#
# Poissons Ratio (x) = 0.21325 0.50014
# Poissons Ratio (y) = 0.21325 0.50014
# Poissons Ratio (z) = 0.23556 0.23556
#
# Static dielectric constant tensor:
#      x y z
#    x 1.487770 0.000000 0.000000 
#    y 0.000000 1.487770 0.000000 
#    z 0.000000 0.000000 1.583510 
# 
# From -- ./inp_files/5160.got.cif
#   From: 2010.05.17/outbox.cif.g08.bks.cpg/sg191_3_cif.got.tgz:5160.got - 2010.05.20 12:20:32.
