data_PCOD9587108
_publ_section_title
;
Structure prediction by ZEFSAII (Michael W. Deem and Ramdas Pophale) SiO2 
 PCOD9587108
Probable space group: P 6/M M M
;
_chemical_formula_sum "Si O2"
_cell_formula_units_Z 132
_cell_length_a 18.409215
_cell_length_b 18.409215
_cell_length_c 27.667111
_cell_angle_alpha 90.000000
_cell_angle_beta 90.000000
_cell_angle_gamma 120.000000
_cell_volume 8120.167426
_symmetry_space_group_name_H-M "P 6/M M M"
_symmetry_group_IT_number 191
_symmetry_cell_setting 'hexagonal'
loop_
_space_group_symop_operation_xyz
x,y,z
x-y,x,z
-y,x-y,z
-x,-y,z
-x+y,-x,z
y,-x+y,z
x-y,-y,-z
-x,-x+y,-z
y,x,-z
-y,-x,-z
-x+y,y,-z
x,x-y,-z
-x,-y,-z
-x+y,-x,-z
y,-x+y,-z
x,y,-z
x-y,x,-z
-y,x-y,-z
-x+y,y,z
x,x-y,z
-y,-x,z
y,x,z
x-y,-y,z
-x,-x+y,z
loop_
_atom_site_type_symbol
_atom_site_label
_atom_site_fract_x
_atom_site_fract_y
_atom_site_fract_z
Si Si1 0.194398 0.388796 0.442084
Si Si2 0.899532 0.366285 0.897942
Si Si3 0.633837 0.533956 0.614611
Si Si4 0.903342 0.806684 0.558787
Si Si5 0.098027 0.362261 0.807731
Si Si6 0.503358 0.666476 0.275778
Si Si7 0.669055 0.168581 0.000000
O O1 0.196440 0.392879 0.500000
O O2 0.145914 0.433054 0.420136
O O3 0.145342 0.290684 0.427269
O O4 0.868319 0.434160 0.890749
O O5 0.878986 0.303640 0.853583
O O6 0.000000 0.420312 0.900422
O O7 0.867390 0.320666 0.949386
O O8 0.559275 0.440726 0.601846
O O9 0.594164 0.594164 0.612404
O O10 0.660404 0.529758 0.669615
O O11 0.854599 0.854599 0.574950
O O12 0.904382 0.808763 0.500000
O O13 0.165422 0.330844 0.805565
O O14 0.112601 0.420247 0.760901
O O15 0.000000 0.292374 0.811143
O O16 0.480454 0.740227 0.273309
O O17 0.423139 0.576862 0.263195
O O18 0.732875 0.267125 0.000000
O O19 0.573427 0.146853 0.000000
#
# Coordination Sequence:
#
# PCOD9587108 Si02
#       7
#    12  24  24  12  24  24  12
#     4  11  22  37  54  77 104 136 173 211 254 303
#     4   9  17  29  45  66  93 127 166 206 250 299
#     4  10  21  37  56  77 103 136 173 212 254 301
#     4   9  17  30  51  78 106 134 164 203 251 304
#     4  10  20  33  51  75 101 129 165 210 257 303
#     4  10  19  33  54  80 107 135 164 200 243 292
#     4  10  18  27  39  57  88 131 173 207 239 280
#
# _framework density 16.255822999999999
#
# number of rings (size 3 to 8) (size 9 to 14) (size 15 to 20)
#    0.000    2.182    0.909    2.818    0.000    4.727 
#    0.545    0.909    0.000    6.000    0.000    0.000 
#    0.000    0.000    0.000    0.000    0.000   18.909 
#
# Total GULP energy -736066.058808 kJ/mol
# GULP energy per Si atom -5576.258021 kJ/mol
# Density = 1.621882 g / cm^3
# Si number density = 16.255823 Si / 1000 Ang^3
#
#
#
# Elastic Constant Matrix: (Units=GPa)
#
#
# Indices 1 2 3 4 5 6 
#
# 1 90.8046 58.4143 45.2699 0.0000 0.0000 0.0000
# 2 58.4143 90.8046 45.2699 0.0000 0.0000 0.0000
# 3 45.2699 45.2699 74.9389 0.0000 0.0000 0.0000
# 4 0.0000 0.0000 0.0000 17.8188 0.0000 0.0000
# 5 0.0000 0.0000 0.0000 0.0000 17.8188 0.0000
# 6 0.0000 0.0000 0.0000 0.0000 0.0000 16.1951
#
#
#
# Elastic Compliance Matrix: (Units=1/GPa)
#
#
# Indices 1 2 3 4 5 6 
#
# 1 0.020726 -0.010147 -0.006391 0.000000 0.000000 0.000000
# 2 -0.010147 0.020726 -0.006391 0.000000 0.000000 0.000000
# 3 -0.006391 -0.006391 0.021065 0.000000 0.000000 0.000000
# 4 0.000000 0.000000 0.000000 0.056121 0.000000 0.000000
# 5 0.000000 0.000000 0.000000 0.000000 0.056121 0.000000
# 6 0.000000 0.000000 0.000000 0.000000 0.000000 0.061747
#
#
# Mechanical properties :
#
#
# Convention : Reuss Voigt Hill
#
# Bulk Modulus (GPa) = 60.02158 61.60626 60.81392
# Shear Modulus (GPa) = 17.36609 17.53947 17.45278
#
# Velocity S-wave (km/s) = 3.27203 3.28832 3.28019
# Velocity P-wave (km/s) = 7.16088 7.23862 7.19986
#
# Compressibility (1/GPa) = 0.01666067
#
# Stress axis : x y z
#
# Youngs Moduli (GPa) = 48.24773 48.24773 47.47102
#
# Poissons Ratio (x) = 0.48958 0.30338
# Poissons Ratio (y) = 0.48958 0.30338
# Poissons Ratio (z) = 0.30834 0.30834
#
# Static dielectric constant tensor:
#      x y z
#    x 1.532990 0.000000 0.000000 
#    y 0.000000 1.532990 0.000000 
#    z 0.000000 0.000000 1.545610 
# 
# From -- ./inp_files/8733.got.cif
#   From: 2010.05.17/outbox.cif.g08.bks.cpg/sg191_5_cif.got.tgz:8733.got - 2010.05.20 12:20:32.
