data_PCOD9587609
_publ_section_title
;
Structure prediction by ZEFSAII (Michael W. Deem and Ramdas Pophale) SiO2 
 PCOD9587609
Probable space group: P 6/M M M
;
_chemical_formula_sum "Si O2"
_cell_formula_units_Z 120
_cell_length_a 17.977898
_cell_length_b 17.977898
_cell_length_c 27.873313
_cell_angle_alpha 90.000000
_cell_angle_beta 90.000000
_cell_angle_gamma 120.000000
_cell_volume 7801.840143
_symmetry_space_group_name_H-M "P 6/M M M"
_symmetry_group_IT_number 191
_symmetry_cell_setting 'hexagonal'
loop_
_space_group_symop_operation_xyz
x,y,z
x-y,x,z
-y,x-y,z
-x,-y,z
-x+y,-x,z
y,-x+y,z
x-y,-y,-z
-x,-x+y,-z
y,x,-z
-y,-x,-z
-x+y,y,-z
x,x-y,-z
-x,-y,-z
-x+y,-x,-z
y,-x+y,-z
x,y,-z
x-y,x,-z
-y,x-y,-z
-x+y,y,z
x,x-y,z
-y,-x,z
y,x,z
x-y,-y,z
-x,-x+y,z
loop_
_atom_site_type_symbol
_atom_site_label
_atom_site_fract_x
_atom_site_fract_y
_atom_site_fract_z
Si Si1 0.729956 0.097940 0.283690
Si Si2 0.266439 0.360054 0.000000
Si Si3 0.333551 0.841673 0.915017
Si Si4 0.156783 0.488858 0.623882
Si Si5 0.000000 0.409948 0.445374
Si Si6 0.841399 0.508046 0.195470
O O1 0.830491 0.169510 0.284820
O O2 0.685295 0.123553 0.325929
O O3 0.691386 0.108667 0.233660
O O4 0.705595 0.000000 0.290024
O O5 0.311664 0.418352 0.046580
O O6 0.279347 0.279347 0.000000
O O7 0.169109 0.338217 0.000000
O O8 0.424388 0.848775 0.924984
O O9 0.257354 0.742647 0.919221
O O10 0.333586 0.868072 0.859751
O O11 0.249420 0.498840 0.613661
O O12 0.162845 0.581423 0.626575
O O13 0.085600 0.432318 0.584053
O O14 0.000000 0.500000 0.446980
O O15 0.000000 0.382305 0.500000
O O16 0.741563 0.483125 0.199202
O O17 0.850418 0.425209 0.205801
#
# Coordination Sequence:
#
# PCOD9587609 Si02
#       6
#    24  12  24  24  12  24
#     4  10  20  33  49  69  93 122 154 192 237 285
#     4  10  21  35  49  64  85 113 148 190 237 283
#     4   9  17  29  45  67  95 128 160 188 217 256
#     4  10  19  31  48  70  97 128 162 197 235 278
#     4   9  18  32  48  66  92 126 161 198 236 270
#     4   9  17  28  44  67  97 130 162 191 220 257
#
# _framework density 15.380986999999999
#
# number of rings (size 3 to 8) (size 9 to 14) (size 15 to 20)
#    0.000    2.500    1.000    1.500    0.000    4.800 
#    0.000    5.000    0.000    1.500    0.000    0.000 
#    0.000    0.000    0.000   10.000    0.000    9.100 
#
# Total GULP energy -669077.267776 kJ/mol
# GULP energy per Si atom -5575.643898 kJ/mol
# Density = 1.534598 g / cm^3
# Si number density = 15.380987 Si / 1000 Ang^3
#
#
#
# Elastic Constant Matrix: (Units=GPa)
#
#
# Indices 1 2 3 4 5 6 
#
# 1 81.1926 68.5413 47.9964 0.0000 0.0000 0.0000
# 2 68.5413 81.1926 47.9964 0.0000 0.0000 0.0000
# 3 47.9964 47.9964 79.1430 0.0000 0.0000 0.0000
# 4 0.0000 0.0000 0.0000 16.0188 0.0000 0.0000
# 5 0.0000 0.0000 0.0000 0.0000 16.0188 0.0000
# 6 0.0000 0.0000 0.0000 0.0000 0.0000 6.3256
#
#
#
# Elastic Compliance Matrix: (Units=1/GPa)
#
#
# Indices 1 2 3 4 5 6 
#
# 1 0.044985 -0.034058 -0.006627 0.000000 0.000000 0.000000
# 2 -0.034058 0.044985 -0.006627 0.000000 0.000000 0.000000
# 3 -0.006627 -0.006627 0.020673 0.000000 0.000000 0.000000
# 4 0.000000 0.000000 0.000000 0.062426 0.000000 0.000000
# 5 0.000000 0.000000 0.000000 0.000000 0.062426 0.000000
# 6 0.000000 0.000000 0.000000 0.000000 0.000000 0.158087
#
#
# Mechanical properties :
#
#
# Convention : Reuss Voigt Hill
#
# Bulk Modulus (GPa) = 62.42187 63.39958 62.91073
# Shear Modulus (GPa) = 10.13079 12.80561 11.46820
#
# Velocity S-wave (km/s) = 2.56922 2.88854 2.73355
# Velocity P-wave (km/s) = 7.03371 7.24112 7.13817
#
# Compressibility (1/GPa) = 0.01602003
#
# Stress axis : x y z
#
# Youngs Moduli (GPa) = 22.22964 22.22964 48.37308
#
# Poissons Ratio (x) = 0.75710 0.32054
# Poissons Ratio (y) = 0.75710 0.32054
# Poissons Ratio (z) = 0.14730 0.14730
#
# Static dielectric constant tensor:
#      x y z
#    x 1.493360 0.000000 0.000000 
#    y 0.000000 1.493360 0.000000 
#    z 0.000000 0.000000 1.524720 
# 
# From -- ./inp_files/8625.got.cif
#   From: 2010.05.17/outbox.cif.g08.bks.cpg/sg191_5_cif.got.tgz:8625.got - 2010.05.20 12:20:32.
