data_PCOD9587729
_publ_section_title
;
Structure prediction by ZEFSAII (Michael W. Deem and Ramdas Pophale) SiO2 
 PCOD9587729
Probable space group: P 6/M M M
;
_chemical_formula_sum "Si O2"
_cell_formula_units_Z 136
_cell_length_a 17.991524
_cell_length_b 17.991524
_cell_length_c 28.522951
_cell_angle_alpha 90.000000
_cell_angle_beta 90.000000
_cell_angle_gamma 120.000000
_cell_volume 7995.782878
_symmetry_space_group_name_H-M "P 6/M M M"
_symmetry_group_IT_number 191
_symmetry_cell_setting 'hexagonal'
loop_
_space_group_symop_operation_xyz
x,y,z
x-y,x,z
-y,x-y,z
-x,-y,z
-x+y,-x,z
y,-x+y,z
x-y,-y,-z
-x,-x+y,-z
y,x,-z
-y,-x,-z
-x+y,y,-z
x,x-y,-z
-x,-y,-z
-x+y,-x,-z
y,-x+y,-z
x,y,-z
x-y,x,-z
-y,x-y,-z
-x+y,y,z
x,x-y,z
-y,-x,z
y,x,z
x-y,-y,z
-x,-x+y,z
loop_
_atom_site_type_symbol
_atom_site_label
_atom_site_fract_x
_atom_site_fract_y
_atom_site_fract_z
Si Si1 0.738379 0.644759 0.699404
Si Si2 0.618493 0.900119 0.411198
Si Si3 0.535706 0.637388 0.118430
Si Si4 0.666668 0.333334 0.556897
Si Si5 0.098215 0.901786 0.943019
Si Si6 0.158992 0.491551 0.222164
Si Si7 0.568561 0.137122 0.556239
Si Si8 0.801535 0.603069 0.943948
O O1 0.833618 0.667235 0.710389
O O2 0.724022 0.724022 0.705246
O O3 0.719235 0.615739 0.645347
O O4 0.678302 0.571008 0.735440
O O5 0.625124 0.812562 0.425580
O O6 0.529765 0.895521 0.427959
O O7 0.694774 0.000000 0.423584
O O8 0.436585 0.563416 0.114946
O O9 0.592081 0.592081 0.112567
O O10 0.549362 0.675119 0.170978
O O11 0.560042 0.708714 0.079491
O O12 0.666667 0.333334 0.500000
O O13 0.617938 0.235875 0.572286
O O14 0.148132 0.851869 0.930868
O O15 0.000000 0.851652 0.926719
O O16 0.096273 0.903728 0.000000
O O17 0.256817 0.513633 0.226759
O O18 0.151709 0.575855 0.224594
O O19 0.565320 0.130640 0.500000
O O20 0.797822 0.595644 0.000000
#
# Coordination Sequence:
#
# PCOD9587729 Si02
#       8
#    24  24  24   4  12  24  12  12
#     4   9  19  34  53  78 107 140 177 221 272 322
#     4  10  21  36  54  79 111 147 189 236 283 332
#     4  10  21  37  56  77 102 133 171 215 259 306
#     4   9  18  33  54  72 105 147 183 234 279 318
#     4   9  17  30  51  78 105 131 160 200 252 311
#     4  10  19  33  53  78 106 137 170 209 255 308
#     4  11  21  36  55  78 111 154 196 233 277 328
#     4  11  22  37  54  76 103 136 173 213 256 308
#
# _framework density 17.008966000000001
#
# number of rings (size 3 to 8) (size 9 to 14) (size 15 to 20)
#    0.000    2.118    1.765    1.588    1.235    3.529 
#    0.529    0.882    0.000    0.353    0.000    2.471 
#    0.000    0.000    0.000    1.588    0.000    1.765 
#
# Total GULP energy -757217.793245 kJ/mol
# GULP energy per Si atom -5567.777892 kJ/mol
# Density = 1.697025 g / cm^3
# Si number density = 17.008966 Si / 1000 Ang^3
#
#
#
# Elastic Constant Matrix: (Units=GPa)
#
#
# Indices 1 2 3 4 5 6 
#
# 1 40.5625 102.0681 29.6521 0.0000 0.0000 0.0000
# 2 102.0681 40.5624 29.6521 0.0000 0.0000 0.0000
# 3 29.6521 29.6521 40.5566 0.0000 0.0000 0.0000
# 4 0.0000 0.0000 0.0000 16.9270 0.0000 0.0000
# 5 0.0000 0.0000 0.0000 0.0000 16.9271 0.0000
# 6 0.0000 0.0000 0.0000 0.0000 0.0000 -30.7529
#
#
#
# Elastic Compliance Matrix: (Units=1/GPa)
#
#
# Indices 1 2 3 4 5 6 
#
# 1 -0.003093 0.013166 -0.007365 0.000000 0.000000 0.000000
# 2 0.013166 -0.003093 -0.007365 0.000000 0.000000 0.000000
# 3 -0.007365 -0.007365 0.035426 0.000000 0.000000 0.000000
# 4 0.000000 0.000000 0.000000 0.059077 0.000000 0.000000
# 5 0.000000 0.000000 0.000000 0.000000 0.059077 0.000000
# 6 0.000000 0.000000 0.000000 0.000000 0.000000 -0.032517
#
#
# Mechanical properties :
#
#
# Convention : Reuss Voigt Hill
#
# Bulk Modulus (GPa) = 38.29458 49.38068 43.83763
# Shear Modulus (GPa) = 39.46011 -2.02582 18.71715
#
# Velocity S-wave (km/s) = 4.82182 -1.09253 3.32087
# Velocity P-wave (km/s) = 7.31869 5.24440 6.36659
#
# Compressibility (1/GPa) = 0.02611335
#
# Stress axis : x y z
#
# Youngs Moduli (GPa) = -323.34942 -323.34855 28.22752
#
# Poissons Ratio (x) = 4.25722 0.20789
# Poissons Ratio (y) = 4.25723 0.20789
# Poissons Ratio (z) = -2.38146 -2.38145
#
# Static dielectric constant tensor:
#      x y z
#    x 1.586150 0.000000 0.000000 
#    y 0.000000 1.586150 0.000000 
#    z 0.000000 0.000000 1.567810 
# 
# From -- ./inp_files/9898.got.cif
#   From: 2010.05.17/outbox.cif.g08.bks.cpg/sg191_5_cif.got.tgz:9898.got - 2010.05.20 12:20:32.
