data_PCOD9587385
_publ_section_title
;
Structure prediction by ZEFSAII (Michael W. Deem and Ramdas Pophale) SiO2 
 PCOD9587385
Probable space group: P 6/M M M
;
_chemical_formula_sum "Si O2"
_cell_formula_units_Z 168
_cell_length_a 31.272026
_cell_length_b 31.272026
_cell_length_c 14.601796
_cell_angle_alpha 90.000000
_cell_angle_beta 90.000000
_cell_angle_gamma 120.000000
_cell_volume 12366.561037
_symmetry_space_group_name_H-M "P 6/M M M"
_symmetry_group_IT_number 191
_symmetry_cell_setting 'hexagonal'
loop_
_space_group_symop_operation_xyz
x,y,z
x-y,x,z
-y,x-y,z
-x,-y,z
-x+y,-x,z
y,-x+y,z
x-y,-y,-z
-x,-x+y,-z
y,x,-z
-y,-x,-z
-x+y,y,-z
x,x-y,-z
-x,-y,-z
-x+y,-x,-z
y,-x+y,-z
x,y,-z
x-y,x,-z
-y,x-y,-z
-x+y,y,z
x,x-y,z
-y,-x,z
y,x,z
x-y,-y,z
-x,-x+y,z
loop_
_atom_site_type_symbol
_atom_site_label
_atom_site_fract_x
_atom_site_fract_y
_atom_site_fract_z
Si Si1 0.476280 0.668248 0.104350
Si Si2 0.943455 0.354989 0.601734
Si Si3 0.521971 0.380711 0.394060
Si Si4 0.490877 0.078446 0.891762
Si Si5 0.612044 0.943863 0.803885
Si Si6 0.252369 0.409375 0.890829
Si Si7 0.568533 0.235951 0.712580
O O1 0.481598 0.619655 0.113673
O O2 0.531396 0.713668 0.122447
O O3 0.439370 0.667786 0.178958
O O4 0.462769 0.671462 0.000000
O O5 0.934507 0.331027 0.500000
O O6 0.906541 0.375803 0.612082
O O7 0.937735 0.325048 0.694034
O O8 0.000000 0.398250 0.602405
O O9 0.530332 0.372848 0.500000
O O10 0.565211 0.434790 0.366072
O O11 0.526987 0.341739 0.331873
O O12 0.531365 0.062729 0.864656
O O13 0.440370 0.060265 0.835147
O O14 0.478551 0.065641 0.000000
O O15 0.613785 0.897757 0.848821
O O16 0.653719 0.000000 0.828239
O O17 0.197041 0.394082 0.858105
O O18 0.249927 0.401219 0.000000
O O19 0.620909 0.241818 0.686431
O O20 0.564652 0.282326 0.681907
#
# Coordination Sequence:
#
# PCOD9587385 Si02
#       7
#    24  24  24  24  24  24  24
#     4   9  17  29  44  59  74  95 124 154 184 223
#     4   9  18  31  45  63  86 105 120 144 181 225
#     4   9  18  32  48  62  73  89 116 147 179 219
#     4   9  17  28  41  58  80 103 125 151 187 232
#     4  10  19  29  43  62  83 109 137 161 189 230
#     4   9  17  29  45  64  84 106 133 164 198 234
#     4  11  22  33  44  57  74  95 120 153 191 227
#
# _framework density 13.585022
#
# number of rings (size 3 to 8) (size 9 to 14) (size 15 to 20)
#    0.000    2.571    0.000    4.000    0.000    5.429 
#    0.000    3.571    0.000    3.000    0.000    0.000 
#    0.000    0.000    0.000    0.000    0.000    0.000 
#
# Total GULP energy -936009.461589 kJ/mol
# GULP energy per Si atom -5571.484890 kJ/mol
# Density = 1.355410 g / cm^3
# Si number density = 13.585022 Si / 1000 Ang^3
#
#
#
# Elastic Constant Matrix: (Units=GPa)
#
#
# Indices 1 2 3 4 5 6 
#
# 1 47.0790 34.6447 23.4141 0.0000 0.0000 0.0000
# 2 34.6447 47.0790 23.4141 0.0000 0.0000 0.0000
# 3 23.4141 23.4141 47.0574 0.0000 0.0000 0.0000
# 4 0.0000 0.0000 0.0000 10.8185 0.0000 0.0000
# 5 0.0000 0.0000 0.0000 0.0000 10.8185 0.0000
# 6 0.0000 0.0000 0.0000 0.0000 0.0000 6.2171
#
#
#
# Elastic Compliance Matrix: (Units=1/GPa)
#
#
# Indices 1 2 3 4 5 6 
#
# 1 0.048770 -0.031653 -0.008517 0.000000 0.000000 0.000000
# 2 -0.031653 0.048770 -0.008517 0.000000 0.000000 0.000000
# 3 -0.008517 -0.008517 0.029726 0.000000 0.000000 0.000000
# 4 0.000000 0.000000 0.000000 0.092434 0.000000 0.000000
# 5 0.000000 0.000000 0.000000 0.000000 0.092434 0.000000
# 6 0.000000 0.000000 0.000000 0.000000 0.000000 0.160846
#
#
# Mechanical properties :
#
#
# Convention : Reuss Voigt Hill
#
# Bulk Modulus (GPa) = 33.45333 33.79569 33.62451
# Shear Modulus (GPa) = 8.61601 9.55367 9.08484
#
# Velocity S-wave (km/s) = 2.52112 2.65476 2.58880
# Velocity P-wave (km/s) = 5.75790 5.85903 5.80868
#
# Compressibility (1/GPa) = 0.02989239
#
# Stress axis : x y z
#
# Youngs Moduli (GPa) = 20.50459 20.50459 33.64091
#
# Poissons Ratio (x) = 0.64904 0.28650
# Poissons Ratio (y) = 0.64904 0.28650
# Poissons Ratio (z) = 0.17463 0.17463
#
# Static dielectric constant tensor:
#      x y z
#    x 1.441250 0.000000 0.000000 
#    y 0.000000 1.441250 0.000000 
#    z 0.000000 0.000000 1.502820 
# 
# From -- ./inp_files/5387.got.cif
#   From: 2010.05.17/outbox.cif.g08.bks.cpg/sg191_3_cif.got.tgz:5387.got - 2010.05.20 12:20:32.
