data_PCOD9587319
_publ_section_title
;
Structure prediction by ZEFSAII (Michael W. Deem and Ramdas Pophale) SiO2 
 PCOD9587319
Probable space group: P 6/M M M
;
_chemical_formula_sum "Si O2"
_cell_formula_units_Z 132
_cell_length_a 27.370477
_cell_length_b 27.370477
_cell_length_c 12.487249
_cell_angle_alpha 90.000000
_cell_angle_beta 90.000000
_cell_angle_gamma 120.000000
_cell_volume 8101.438431
_symmetry_space_group_name_H-M "P 6/M M M"
_symmetry_group_IT_number 191
_symmetry_cell_setting 'hexagonal'
loop_
_space_group_symop_operation_xyz
x,y,z
x-y,x,z
-y,x-y,z
-x,-y,z
-x+y,-x,z
y,-x+y,z
x-y,-y,-z
-x,-x+y,-z
y,x,-z
-y,-x,-z
-x+y,y,-z
x,x-y,-z
-x,-y,-z
-x+y,-x,-z
y,-x+y,-z
x,y,-z
x-y,x,-z
-y,x-y,-z
-x+y,y,z
x,x-y,z
-y,-x,z
y,x,z
x-y,-y,z
-x,-x+y,z
loop_
_atom_site_type_symbol
_atom_site_label
_atom_site_fract_x
_atom_site_fract_y
_atom_site_fract_z
Si Si1 0.000000 0.593921 0.872754
Si Si2 0.274098 0.838066 0.625770
Si Si3 0.900200 0.212090 0.718414
Si Si4 0.000000 0.711921 0.874787
Si Si5 0.440884 0.667136 0.872191
Si Si6 0.821990 0.758181 0.500000
Si Si7 0.386999 0.498994 0.248188
O O1 0.054761 0.601586 0.809349
O O2 0.000000 0.652824 0.868278
O O3 0.000000 0.579839 0.000000
O O4 0.271009 0.848085 0.500000
O O5 0.228848 0.771153 0.642552
O O6 0.249654 0.871475 0.691998
O O7 0.339131 0.864622 0.659985
O O8 0.849831 0.150170 0.748594
O O9 0.926444 0.205340 0.606977
O O10 0.945903 0.241353 0.810611
O O11 0.000000 0.725276 0.000000
O O12 0.458281 0.729141 0.832992
O O13 0.377866 0.622135 0.834681
O O14 0.479997 0.642634 0.837119
O O15 0.439946 0.668135 0.000000
O O16 0.808952 0.808952 0.500000
O O17 0.887268 0.774535 0.500000
O O18 0.446503 0.553498 0.280560
#
# Coordination Sequence:
#
# PCOD9587319 Si02
#       7
#    12  24  24  12  24  12  24
#     4  11  23  38  53  72 100 140 184 221 261 308
#     4  10  20  36  57  79 102 128 162 210 270 325
#     4  10  19  34  56  82 109 141 183 224 267 319
#     4  11  22  36  55  79 112 151 180 218 278 327
#     4   9  17  30  49  72  95 120 155 203 258 312
#     4  10  18  30  56  87 111 143 185 231 273 309
#     4  11  22  35  52  72  98 134 172 210 256 312
#
# _framework density 16.293403000000001
#
# number of rings (size 3 to 8) (size 9 to 14) (size 15 to 20)
#    0.000    1.818    3.636    1.545    0.000    2.909 
#    0.000    1.364    0.000    1.545    0.000    0.000 
#    0.000    0.000    0.000    0.000    0.000    8.273 
#
# Total GULP energy -735537.577095 kJ/mol
# GULP energy per Si atom -5572.254372 kJ/mol
# Density = 1.625632 g / cm^3
# Si number density = 16.293403 Si / 1000 Ang^3
#
#
#
# Elastic Constant Matrix: (Units=GPa)
#
#
# Indices 1 2 3 4 5 6 
#
# 1 111.3437 45.9011 48.6189 0.0000 0.0000 0.0000
# 2 45.9011 111.3437 48.6189 0.0000 0.0000 0.0000
# 3 48.6189 48.6189 94.2061 0.0000 0.0000 0.0000
# 4 0.0000 0.0000 0.0000 24.5291 0.0000 0.0000
# 5 0.0000 0.0000 0.0000 0.0000 24.5291 0.0000
# 6 0.0000 0.0000 0.0000 0.0000 0.0000 32.7213
#
#
#
# Elastic Compliance Matrix: (Units=1/GPa)
#
#
# Indices 1 2 3 4 5 6 
#
# 1 0.012311 -0.002970 -0.004821 0.000000 0.000000 0.000000
# 2 -0.002970 0.012311 -0.004821 0.000000 0.000000 0.000000
# 3 -0.004821 -0.004821 0.015591 0.000000 0.000000 0.000000
# 4 0.000000 0.000000 0.000000 0.040768 0.000000 0.000000
# 5 0.000000 0.000000 0.000000 0.000000 0.040768 0.000000
# 6 0.000000 0.000000 0.000000 0.000000 0.000000 0.030561
#
#
# Mechanical properties :
#
#
# Convention : Reuss Voigt Hill
#
# Bulk Modulus (GPa) = 66.71341 67.01904 66.86622
# Shear Modulus (GPa) = 27.39315 27.93953 27.66634
#
# Velocity S-wave (km/s) = 4.10474 4.14548 4.12516
# Velocity P-wave (km/s) = 7.96864 8.00845 7.98857
#
# Compressibility (1/GPa) = 0.01498949
#
# Stress axis : x y z
#
# Youngs Moduli (GPa) = 81.23141 81.23141 64.14086
#
# Poissons Ratio (x) = 0.24126 0.30919
# Poissons Ratio (y) = 0.24126 0.30919
# Poissons Ratio (z) = 0.39158 0.39158
#
# Static dielectric constant tensor:
#      x y z
#    x 1.554290 0.000000 0.000000 
#    y 0.000000 1.554290 0.000000 
#    z 0.000000 0.000000 1.531030 
# 
# From -- ./inp_files/3404.got.cif
#   From: 2010.05.17/outbox.cif.g08.bks.cpg/sg191_2_cif.got.tgz:3404.got - 2010.05.20 12:20:32.
