data_PCOD9587876
_publ_section_title
;
Structure prediction by ZEFSAII (Michael W. Deem and Ramdas Pophale) SiO2 
 PCOD9587876
Probable space group: P 6/M M M
;
_chemical_formula_sum "Si O2"
_cell_formula_units_Z 168
_cell_length_a 22.310387
_cell_length_b 22.310387
_cell_length_c 23.770301
_cell_angle_alpha 90.000000
_cell_angle_beta 90.000000
_cell_angle_gamma 120.000000
_cell_volume 10246.593805
_symmetry_space_group_name_H-M "P 6/M M M"
_symmetry_group_IT_number 191
_symmetry_cell_setting 'hexagonal'
loop_
_space_group_symop_operation_xyz
x,y,z
x-y,x,z
-y,x-y,z
-x,-y,z
-x+y,-x,z
y,-x+y,z
x-y,-y,-z
-x,-x+y,-z
y,x,-z
-y,-x,-z
-x+y,y,-z
x,x-y,-z
-x,-y,-z
-x+y,-x,-z
y,-x+y,-z
x,y,-z
x-y,x,-z
-y,x-y,-z
-x+y,y,z
x,x-y,z
-y,-x,z
y,x,z
x-y,-y,z
-x,-x+y,z
loop_
_atom_site_type_symbol
_atom_site_label
_atom_site_fract_x
_atom_site_fract_y
_atom_site_fract_z
Si Si1 0.209991 0.287679 0.068139
Si Si2 0.703210 0.920462 0.658047
Si Si3 0.472407 0.392150 0.161894
Si Si4 0.548348 0.704626 0.934078
Si Si5 0.191284 0.524257 0.635464
Si Si6 0.080185 0.681399 0.566149
Si Si7 0.719410 0.576438 0.258152
O O1 0.133717 0.267433 0.088982
O O2 0.242853 0.242853 0.090094
O O3 0.259452 0.369243 0.078243
O O4 0.205741 0.280782 0.000000
O O5 0.726328 0.863164 0.658501
O O6 0.657146 0.910384 0.602333
O O7 0.648691 0.902269 0.709129
O O8 0.762374 0.000000 0.660856
O O9 0.543752 0.456249 0.183907
O O10 0.423263 0.423263 0.146262
O O11 0.487413 0.358852 0.107812
O O12 0.436474 0.333380 0.208710
O O13 0.529158 0.764579 0.924878
O O14 0.537911 0.685876 0.000000
O O15 0.265389 0.530778 0.622906
O O16 0.196200 0.598100 0.637573
O O17 0.134645 0.473517 0.590401
O O18 0.165980 0.483449 0.694774
O O19 0.090363 0.696319 0.500000
O O20 0.000000 0.622153 0.575238
O O21 0.787282 0.574563 0.237417
#
# Coordination Sequence:
#
# PCOD9587876 Si02
#       7
#    24  24  24  24  24  24  24
#     4   8  13  22  38  59  81 106 137 172 208 247
#     4   9  17  30  50  74  99 128 161 199 240 279
#     4  11  22  32  46  71 100 124 144 176 228 286
#     4   9  18  33  51  67  85 115 154 191 224 261
#     4  10  20  33  49  68  92 123 158 197 241 291
#     4   9  18  32  49  69  93 123 162 206 247 286
#     4   9  18  34  53  69  89 121 161 200 232 265
#
# _framework density 16.395692
#
# number of rings (size 3 to 8) (size 9 to 14) (size 15 to 20)
#    0.000    2.714    0.000    4.000    0.000    3.429 
#    0.000    1.429    0.000    4.286    0.000    1.000 
#    0.000    0.000    0.000    3.571    0.000   29.714 
#
# Total GULP energy -936476.189152 kJ/mol
# GULP energy per Si atom -5574.263031 kJ/mol
# Density = 1.635837 g / cm^3
# Si number density = 16.395692 Si / 1000 Ang^3
#
#
#
# Elastic Constant Matrix: (Units=GPa)
#
#
# Indices 1 2 3 4 5 6 
#
# 1 81.1767 43.3720 22.8361 0.0000 0.0000 0.0000
# 2 43.3720 81.1767 22.8361 0.0000 0.0000 0.0000
# 3 22.8361 22.8361 48.8222 0.0000 0.0000 0.0000
# 4 0.0000 0.0000 0.0000 16.2425 0.0000 0.0000
# 5 0.0000 0.0000 0.0000 0.0000 16.2425 0.0000
# 6 0.0000 0.0000 0.0000 0.0000 0.0000 18.9023
#
#
#
# Elastic Compliance Matrix: (Units=1/GPa)
#
#
# Indices 1 2 3 4 5 6 
#
# 1 0.018071 -0.008380 -0.004533 0.000000 0.000000 0.000000
# 2 -0.008380 0.018071 -0.004533 0.000000 0.000000 0.000000
# 3 -0.004533 -0.004533 0.024723 0.000000 0.000000 0.000000
# 4 0.000000 0.000000 0.000000 0.061567 0.000000 0.000000
# 5 0.000000 0.000000 0.000000 0.000000 0.061567 0.000000
# 6 0.000000 0.000000 0.000000 0.000000 0.000000 0.052904
#
#
# Mechanical properties :
#
#
# Convention : Reuss Voigt Hill
#
# Bulk Modulus (GPa) = 38.50067 43.25154 40.87611
# Shear Modulus (GPa) = 17.82828 18.41957 18.12392
#
# Velocity S-wave (km/s) = 3.30112 3.35541 3.32837
# Velocity P-wave (km/s) = 6.16952 6.43807 6.30523
#
# Compressibility (1/GPa) = 0.02597357
#
# Stress axis : x y z
#
# Youngs Moduli (GPa) = 55.33577 55.33577 40.44815
#
# Poissons Ratio (x) = 0.46373 0.18335
# Poissons Ratio (y) = 0.46373 0.18335
# Poissons Ratio (z) = 0.25084 0.25084
#
# Static dielectric constant tensor:
#      x y z
#    x 1.541910 0.000000 0.000000 
#    y 0.000000 1.541910 0.000000 
#    z 0.000000 0.000000 1.551620 
# 
# From -- ./inp_files/8977.got.cif
#   From: 2010.05.17/outbox.cif.g08.bks.cpg/sg191_5_cif.got.tgz:8977.got - 2010.05.20 12:20:32.
