data_PCOD9587361
_publ_section_title
;
Structure prediction by ZEFSAII (Michael W. Deem and Ramdas Pophale) SiO2 
 PCOD9587361
Probable space group: P 6/M M M
;
_chemical_formula_sum "Si O2"
_cell_formula_units_Z 108
_cell_length_a 18.418513
_cell_length_b 18.418513
_cell_length_c 22.103564
_cell_angle_alpha 90.000000
_cell_angle_beta 90.000000
_cell_angle_gamma 120.000000
_cell_volume 6493.847223
_symmetry_space_group_name_H-M "P 6/M M M"
_symmetry_group_IT_number 191
_symmetry_cell_setting 'hexagonal'
loop_
_space_group_symop_operation_xyz
x,y,z
x-y,x,z
-y,x-y,z
-x,-y,z
-x+y,-x,z
y,-x+y,z
x-y,-y,-z
-x,-x+y,-z
y,x,-z
-y,-x,-z
-x+y,y,-z
x,x-y,-z
-x,-y,-z
-x+y,-x,-z
y,-x+y,-z
x,y,-z
x-y,x,-z
-y,x-y,-z
-x+y,y,z
x,x-y,z
-y,-x,z
y,x,z
x-y,-y,z
-x,-x+y,z
loop_
_atom_site_type_symbol
_atom_site_label
_atom_site_fract_x
_atom_site_fract_y
_atom_site_fract_z
Si Si1 0.175037 0.000000 0.799932
Si Si2 0.666747 0.000000 0.594240
Si Si3 0.837034 0.000000 0.572004
Si Si4 0.000000 0.670710 0.260469
Si Si5 0.834751 0.333245 0.259894
Si Si6 0.166126 0.666712 0.592471
Si Si7 0.826837 0.000000 0.935265
O O1 0.168084 0.084042 0.792521
O O2 0.244700 0.000000 0.756631
O O3 0.207662 0.000000 0.868706
O O4 0.663279 0.000000 0.667041
O O5 0.584706 0.916465 0.572559
O O6 0.751207 0.000000 0.579295
O O7 0.916134 0.083867 0.597605
O O8 0.850018 0.000000 0.500000
O O9 0.915775 0.587587 0.239338
O O10 0.838729 0.419365 0.241067
O O11 0.748671 0.251330 0.240834
O O12 0.834587 0.333228 0.333682
O O13 0.164955 0.582478 0.573512
O O14 0.250459 0.749542 0.573336
O O15 0.918092 0.081909 0.935728
O O16 0.785389 0.000000 0.000000
#
# Coordination Sequence:
#
# PCOD9587361 Si02
#       7
#    12  12  12  12  24  24  12
#     4  10  19  29  40  56  82 116 149 176 204 245
#     4  10  19  31  47  67  89 112 140 173 211 257
#     4  10  21  37  55  71  85 104 136 180 222 252
#     4  10  19  29  41  61  91 120 139 163 209 264
#     4   9  16  26  40  58  81 111 147 182 212 244
#     4   9  16  26  42  64  89 116 144 173 205 244
#     4   8  13  22  37  55  74 100 138 180 212 236
#
# _framework density 16.631126999999999
#
# number of rings (size 3 to 8) (size 9 to 14) (size 15 to 20)
#    0.000    2.667    0.000    2.778    0.000    8.889 
#    0.000    0.000    0.000    2.667    0.000    0.000 
#    0.000    3.556    0.000    0.444    0.000    5.556 
#
# Total GULP energy -601976.794063 kJ/mol
# GULP energy per Si atom -5573.859204 kJ/mol
# Density = 1.659327 g / cm^3
# Si number density = 16.631127 Si / 1000 Ang^3
#
#
#
# Elastic Constant Matrix: (Units=GPa)
#
#
# Indices 1 2 3 4 5 6 
#
# 1 166.3220 100.9117 9.9516 0.0000 0.0000 0.0000
# 2 100.9117 166.3220 9.9516 0.0000 0.0000 0.0000
# 3 9.9516 9.9516 25.4289 0.0000 0.0000 0.0000
# 4 0.0000 0.0000 0.0000 5.4557 0.0000 0.0000
# 5 0.0000 0.0000 0.0000 0.0000 5.4557 0.0000
# 6 0.0000 0.0000 0.0000 0.0000 0.0000 32.7051
#
#
#
# Elastic Compliance Matrix: (Units=1/GPa)
#
#
# Indices 1 2 3 4 5 6 
#
# 1 0.009571 -0.005717 -0.001508 0.000000 0.000000 0.000000
# 2 -0.005717 0.009571 -0.001508 0.000000 0.000000 0.000000
# 3 -0.001508 -0.001508 0.040506 0.000000 0.000000 0.000000
# 4 0.000000 0.000000 0.000000 0.183295 0.000000 0.000000
# 5 0.000000 0.000000 0.000000 0.000000 0.183295 0.000000
# 6 0.000000 0.000000 0.000000 0.000000 0.000000 0.030576
#
#
# Mechanical properties :
#
#
# Convention : Reuss Voigt Hill
#
# Bulk Modulus (GPa) = 23.70731 66.63363 45.17047
# Shear Modulus (GPa) = 10.23871 24.54049 17.38960
#
# Velocity S-wave (km/s) = 2.48389 3.84549 3.23709
# Velocity P-wave (km/s) = 4.74468 7.73755 6.41801
#
# Compressibility (1/GPa) = 0.04218108
#
# Stress axis : x y z
#
# Youngs Moduli (GPa) = 104.47951 104.47951 24.68771
#
# Poissons Ratio (x) = 0.59730 0.03724
# Poissons Ratio (y) = 0.59730 0.03724
# Poissons Ratio (z) = 0.15760 0.15760
#
# Static dielectric constant tensor:
#      x y z
#    x 1.549540 0.000000 0.000000 
#    y 0.000000 1.549540 0.000000 
#    z 0.000000 0.000000 1.593120 
# 
# From -- ./inp_files/7419.got.cif
#   From: 2010.05.17/outbox.cif.g08.bks.cpg/sg191_4_cif.got.tgz:7419.got - 2010.05.20 12:20:32.
