data_PCOD9587210
_publ_section_title
;
Structure prediction by ZEFSAII (Michael W. Deem and Ramdas Pophale) SiO2 
 PCOD9587210
Probable space group: P 6/M M M
;
_chemical_formula_sum "Si O2"
_cell_formula_units_Z 96
_cell_length_a 18.324104
_cell_length_b 18.324104
_cell_length_c 22.478713
_cell_angle_alpha 90.000000
_cell_angle_beta 90.000000
_cell_angle_gamma 120.000000
_cell_volume 6536.534686
_symmetry_space_group_name_H-M "P 6/M M M"
_symmetry_group_IT_number 191
_symmetry_cell_setting 'hexagonal'
loop_
_space_group_symop_operation_xyz
x,y,z
x-y,x,z
-y,x-y,z
-x,-y,z
-x+y,-x,z
y,-x+y,z
x-y,-y,-z
-x,-x+y,-z
y,x,-z
-y,-x,-z
-x+y,y,-z
x,x-y,-z
-x,-y,-z
-x+y,-x,-z
y,-x+y,-z
x,y,-z
x-y,x,-z
-y,x-y,-z
-x+y,y,z
x,x-y,z
-y,-x,z
y,x,z
x-y,-y,z
-x,-x+y,z
loop_
_atom_site_type_symbol
_atom_site_label
_atom_site_fract_x
_atom_site_fract_y
_atom_site_fract_z
Si Si1 0.494823 0.331042 0.357649
Si Si2 0.633905 0.101669 0.000000
Si Si3 0.588735 0.000000 0.431624
Si Si4 0.100472 0.735162 0.887627
Si Si5 0.899617 0.532999 0.225588
O O1 0.494819 0.247409 0.375724
O O2 0.587145 0.412856 0.365353
O O3 0.430623 0.347259 0.396034
O O4 0.473281 0.327987 0.287753
O O5 0.691052 0.122424 0.941579
O O6 0.567554 0.135107 0.000000
O O7 0.577246 0.000000 0.000000
O O8 0.500000 0.000000 0.431385
O O9 0.612838 0.000000 0.500000
O O10 0.165003 0.834998 0.890500
O O11 0.115845 0.698243 0.826732
O O12 0.000000 0.702390 0.891383
O O13 0.877570 0.438785 0.206915
O O14 0.000000 0.583448 0.237445
#
# Coordination Sequence:
#
# PCOD9587210 Si02
#       5
#    24  12  12  24  24
#     4  10  18  29  45  66  90 116 149 186 223 262
#     4   9  17  30  47  66  86 112 146 183 223 270
#     4   9  18  32  46  60  84 117 148 178 216 263
#     4  10  19  30  46  67  91 120 156 194 230 268
#     4   9  16  28  46  66  87 115 148 182 222 270
#
# _framework density 14.686681
#
# number of rings (size 3 to 8) (size 9 to 14) (size 15 to 20)
#    0.000    2.500    1.250    2.125    0.000    3.500 
#    0.000    0.000    0.000   10.250    0.000    0.000 
#    0.000    3.000    0.000    0.375    0.000    1.625 
#
# Total GULP energy -534831.084554 kJ/mol
# GULP energy per Si atom -5571.157131 kJ/mol
# Density = 1.465325 g / cm^3
# Si number density = 14.686681 Si / 1000 Ang^3
#
#
#
# Elastic Constant Matrix: (Units=GPa)
#
#
# Indices 1 2 3 4 5 6 
#
# 1 86.9539 43.4336 45.1336 0.0000 0.0000 0.0000
# 2 43.4336 86.9539 45.1336 0.0000 0.0000 0.0000
# 3 45.1336 45.1336 80.3958 0.0000 0.0000 0.0000
# 4 0.0000 0.0000 0.0000 4.4362 0.0000 0.0000
# 5 0.0000 0.0000 0.0000 0.0000 4.4362 0.0000
# 6 0.0000 0.0000 0.0000 0.0000 0.0000 21.7601
#
#
#
# Elastic Compliance Matrix: (Units=1/GPa)
#
#
# Indices 1 2 3 4 5 6 
#
# 1 0.017761 -0.005216 -0.007043 0.000000 0.000000 0.000000
# 2 -0.005216 0.017761 -0.007043 0.000000 0.000000 0.000000
# 3 -0.007043 -0.007043 0.020346 0.000000 0.000000 0.000000
# 4 0.000000 0.000000 0.000000 0.225420 0.000000 0.000000
# 5 0.000000 0.000000 0.000000 0.000000 0.225420 0.000000
# 6 0.000000 0.000000 0.000000 0.000000 0.000000 0.045956
#
#
# Mechanical properties :
#
#
# Convention : Reuss Voigt Hill
#
# Bulk Modulus (GPa) = 57.91985 57.96725 57.94355
# Shear Modulus (GPa) = 8.37487 14.16667 11.27077
#
# Velocity S-wave (km/s) = 2.39055 3.10916 2.77323
# Velocity P-wave (km/s) = 6.86602 7.24183 7.05643
#
# Compressibility (1/GPa) = 0.01726524
#
# Stress axis : x y z
#
# Youngs Moduli (GPa) = 56.30166 56.30166 49.14986
#
# Poissons Ratio (x) = 0.29369 0.34615
# Poissons Ratio (y) = 0.29369 0.34615
# Poissons Ratio (z) = 0.39652 0.39652
#
# Static dielectric constant tensor:
#      x y z
#    x 1.479150 0.000000 0.000000 
#    y 0.000000 1.479150 0.000000 
#    z 0.000000 0.000000 1.492740 
# 
# From -- ./inp_files/7116.got.cif
#   From: 2010.05.17/outbox.cif.g08.bks.cpg/sg191_4_cif.got.tgz:7116.got - 2010.05.20 12:20:32.
