data_PCOD9587668
_publ_section_title
;
Structure prediction by ZEFSAII (Michael W. Deem and Ramdas Pophale) SiO2 
 PCOD9587668
Probable space group: P 6/M M M
;
_chemical_formula_sum "Si O2"
_cell_formula_units_Z 132
_cell_length_a 28.015580
_cell_length_b 28.015580
_cell_length_c 13.060426
_cell_angle_alpha 90.000000
_cell_angle_beta 90.000000
_cell_angle_gamma 120.000000
_cell_volume 8877.429060
_symmetry_space_group_name_H-M "P 6/M M M"
_symmetry_group_IT_number 191
_symmetry_cell_setting 'hexagonal'
loop_
_space_group_symop_operation_xyz
x,y,z
x-y,x,z
-y,x-y,z
-x,-y,z
-x+y,-x,z
y,-x+y,z
x-y,-y,-z
-x,-x+y,-z
y,x,-z
-y,-x,-z
-x+y,y,-z
x,x-y,-z
-x,-y,-z
-x+y,-x,-z
y,-x+y,-z
x,y,-z
x-y,x,-z
-y,x-y,-z
-x+y,y,z
x,x-y,z
-y,-x,z
y,x,z
x-y,-y,z
-x,-x+y,z
loop_
_atom_site_type_symbol
_atom_site_label
_atom_site_fract_x
_atom_site_fract_y
_atom_site_fract_z
Si Si1 0.178608 0.708268 0.382833
Si Si2 0.330345 0.934652 0.120213
Si Si3 0.878383 0.233033 0.277861
Si Si4 0.555147 0.221345 0.000000
Si Si5 0.827584 0.764566 0.623316
Si Si6 0.141920 0.514809 0.195201
O O1 0.170176 0.688850 0.500000
O O2 0.240942 0.759059 0.371844
O O3 0.139675 0.734286 0.356699
O O4 0.166006 0.661720 0.299183
O O5 0.273630 0.906125 0.183084
O O6 0.367932 0.910887 0.164428
O O7 0.360594 0.000000 0.133176
O O8 0.320894 0.921568 0.000000
O O9 0.821861 0.178140 0.247594
O O10 0.917334 0.212624 0.328053
O O11 0.529275 0.184749 0.898492
O O12 0.619465 0.238930 0.000000
O O13 0.547106 0.273553 0.000000
O O14 0.823555 0.759067 0.500000
O O15 0.890149 0.780297 0.651035
O O16 0.807557 0.807557 0.652962
O O17 0.130773 0.565387 0.204794
#
# Coordination Sequence:
#
# PCOD9587668 Si02
#       6
#    24  24  24  12  24  24
#     4   9  17  30  48  70  94 118 145 182 232 284
#     4  10  20  33  47  66  92 122 154 189 229 271
#     4   9  17  29  46  69  92 117 148 185 229 276
#     4  10  19  32  49  69  91 113 142 183 232 278
#     4   9  16  26  42  64  90 120 153 188 224 264
#     4  10  20  33  48  68  90 118 155 192 225 266
#
# _framework density 14.869168999999999
#
# number of rings (size 3 to 8) (size 9 to 14) (size 15 to 20)
#    0.000    2.545    0.909    1.727    0.000    4.000 
#    0.000    0.909    0.000    5.455    0.000    6.364 
#    0.000    0.000    0.000    0.000    0.000    0.000 
#
# Total GULP energy -735540.826937 kJ/mol
# GULP energy per Si atom -5572.278992 kJ/mol
# Density = 1.483533 g / cm^3
# Si number density = 14.869169 Si / 1000 Ang^3
#
#
#
# Elastic Constant Matrix: (Units=GPa)
#
#
# Indices 1 2 3 4 5 6 
#
# 1 83.2034 56.6694 47.1094 0.0000 0.0000 0.0000
# 2 56.6694 83.2034 47.1094 0.0000 0.0000 0.0000
# 3 47.1094 47.1094 107.8867 0.0000 0.0000 0.0000
# 4 0.0000 0.0000 0.0000 19.6861 0.0000 0.0000
# 5 0.0000 0.0000 0.0000 0.0000 19.6861 0.0000
# 6 0.0000 0.0000 0.0000 0.0000 0.0000 13.2670
#
#
#
# Elastic Compliance Matrix: (Units=1/GPa)
#
#
# Indices 1 2 3 4 5 6 
#
# 1 0.023908 -0.013780 -0.004423 0.000000 0.000000 0.000000
# 2 -0.013780 0.023908 -0.004423 0.000000 0.000000 0.000000
# 3 -0.004423 -0.004423 0.013131 0.000000 0.000000 0.000000
# 4 0.000000 0.000000 0.000000 0.050797 0.000000 0.000000
# 5 0.000000 0.000000 0.000000 0.000000 0.050797 0.000000
# 6 0.000000 0.000000 0.000000 0.000000 0.000000 0.075375
#
#
# Mechanical properties :
#
#
# Convention : Reuss Voigt Hill
#
# Bulk Modulus (GPa) = 63.70378 64.00774 63.85576
# Shear Modulus (GPa) = 17.33708 18.75485 18.04596
#
# Velocity S-wave (km/s) = 3.41834 3.55537 3.48753
# Velocity P-wave (km/s) = 7.64957 7.74564 7.69775
#
# Compressibility (1/GPa) = 0.01569766
#
# Stress axis : x y z
#
# Youngs Moduli (GPa) = 41.82705 41.82705 76.15366
#
# Poissons Ratio (x) = 0.57636 0.33680
# Poissons Ratio (y) = 0.57636 0.33680
# Poissons Ratio (z) = 0.18499 0.18499
#
# Static dielectric constant tensor:
#      x y z
#    x 1.480470 0.000000 0.000000 
#    y 0.000000 1.480470 0.000000 
#    z 0.000000 0.000000 1.475890 
# 
# From -- ./inp_files/3336.got.cif
#   From: 2010.05.17/outbox.cif.g08.bks.cpg/sg191_2_cif.got.tgz:3336.got - 2010.05.20 12:20:32.
