data_PCOD9587907
_publ_section_title
;
Structure prediction by ZEFSAII (Michael W. Deem and Ramdas Pophale) SiO2 
 PCOD9587907
Probable space group: P 6/M M M
;
_chemical_formula_sum "Si O2"
_cell_formula_units_Z 168
_cell_length_a 17.926821
_cell_length_b 17.926821
_cell_length_c 35.460926
_cell_angle_alpha 90.000000
_cell_angle_beta 90.000000
_cell_angle_gamma 120.000000
_cell_volume 9869.320850
_symmetry_space_group_name_H-M "P 6/M M M"
_symmetry_group_IT_number 191
_symmetry_cell_setting 'hexagonal'
loop_
_space_group_symop_operation_xyz
x,y,z
x-y,x,z
-y,x-y,z
-x,-y,z
-x+y,-x,z
y,-x+y,z
x-y,-y,-z
-x,-x+y,-z
y,x,-z
-y,-x,-z
-x+y,y,-z
x,x-y,-z
-x,-y,-z
-x+y,-x,-z
y,-x+y,-z
x,y,-z
x-y,x,-z
-y,x-y,-z
-x+y,y,z
x,x-y,z
-y,-x,z
y,x,z
x-y,-y,z
-x,-x+y,z
loop_
_atom_site_type_symbol
_atom_site_label
_atom_site_fract_x
_atom_site_fract_y
_atom_site_fract_z
Si Si1 0.270787 0.902300 0.816413
Si Si2 0.099395 0.369925 0.328417
Si Si3 0.490289 0.157724 0.255726
Si Si4 0.841428 0.333152 0.112065
Si Si5 0.599693 0.799847 0.545045
Si Si6 0.099624 0.199248 0.454072
Si Si7 0.633355 0.902118 0.956065
Si Si8 0.534866 0.897704 0.404546
O O1 0.170488 0.829513 0.814895
O O2 0.316583 0.883553 0.781459
O O3 0.309665 0.886814 0.854619
O O4 0.292306 0.000000 0.814694
O O5 0.169669 0.339337 0.327110
O O6 0.115609 0.430223 0.292129
O O7 0.116763 0.428140 0.365582
O O8 0.000000 0.295585 0.329212
O O9 0.573669 0.147337 0.256371
O O10 0.516671 0.258335 0.255667
O O11 0.852129 0.426065 0.117241
O O12 0.741078 0.258922 0.113102
O O13 0.879385 0.323756 0.072416
O O14 0.596546 0.798273 0.500000
O O15 0.700656 0.850328 0.557083
O O16 0.554470 0.705192 0.562655
O O17 0.150012 0.150012 0.441664
O O18 0.098796 0.197591 0.500000
O O19 0.661154 0.830577 0.949068
O O20 0.707272 0.000000 0.949582
O O21 0.607161 0.894518 0.000000
O O22 0.435219 0.870438 0.401203
O O23 0.587496 0.000000 0.411817
#
# Coordination Sequence:
#
# PCOD9587907 Si02
#       8
#    24  24  24  24  12  12  24  24
#     4  10  21  35  51  74 104 137 171 209 257 310
#     4  10  20  36  58  82 107 137 173 213 258 306
#     4  10  20  33  52  80 112 144 176 212 253 299
#     4  10  20  33  49  70  99 135 171 207 250 300
#     4  11  22  37  56  79 106 140 177 216 259 306
#     4   9  17  30  51  80 112 142 172 209 256 311
#     4   9  18  32  49  69  93 124 165 212 260 307
#     4  10  21  38  58  79 104 136 175 216 258 305
#
# _framework density 17.022447
#
# number of rings (size 3 to 8) (size 9 to 14) (size 15 to 20)
#    0.000    2.143    0.714    2.500    0.000    5.143 
#    0.429    2.857    0.000    1.286    0.000    1.000 
#    0.000    6.857    0.000    0.143    0.000    0.571 
#
# Total GULP energy -937563.457178 kJ/mol
# GULP energy per Si atom -5580.734864 kJ/mol
# Density = 1.698370 g / cm^3
# Si number density = 17.022447 Si / 1000 Ang^3
#
#
#
# Elastic Constant Matrix: (Units=GPa)
#
#
# Indices 1 2 3 4 5 6 
#
# 1 103.2773 84.8309 39.8506 0.0000 0.0000 0.0000
# 2 84.8309 103.2773 39.8506 0.0000 0.0000 0.0000
# 3 39.8506 39.8506 81.2460 0.0000 0.0000 0.0000
# 4 0.0000 0.0000 0.0000 14.2681 0.0000 0.0000
# 5 0.0000 0.0000 0.0000 0.0000 14.2681 0.0000
# 6 0.0000 0.0000 0.0000 0.0000 0.0000 9.2232
#
#
#
# Elastic Compliance Matrix: (Units=1/GPa)
#
#
# Indices 1 2 3 4 5 6 
#
# 1 0.030461 -0.023750 -0.003292 0.000000 0.000000 0.000000
# 2 -0.023750 0.030461 -0.003292 0.000000 0.000000 0.000000
# 3 -0.003292 -0.003292 0.015537 0.000000 0.000000 0.000000
# 4 0.000000 0.000000 0.000000 0.070086 0.000000 0.000000
# 5 0.000000 0.000000 0.000000 0.000000 0.070086 0.000000
# 6 0.000000 0.000000 0.000000 0.000000 0.000000 0.108422
#
#
# Mechanical properties :
#
#
# Convention : Reuss Voigt Hill
#
# Bulk Modulus (GPa) = 63.32132 68.54053 65.93093
# Shear Modulus (GPa) = 12.78823 15.76980 14.27901
#
# Velocity S-wave (km/s) = 2.74388 3.04700 2.89941
# Velocity P-wave (km/s) = 6.87881 7.26162 7.07281
#
# Compressibility (1/GPa) = 0.01579247
#
# Stress axis : x y z
#
# Youngs Moduli (GPa) = 32.82898 32.82898 64.36137
#
# Poissons Ratio (x) = 0.77969 0.21185
# Poissons Ratio (y) = 0.77969 0.21185
# Poissons Ratio (z) = 0.10806 0.10806
#
# Static dielectric constant tensor:
#      x y z
#    x 1.560480 0.000000 0.000000 
#    y 0.000000 1.560480 0.000000 
#    z 0.000000 0.000000 1.575780 
# 
# From -- ./inp_files/10778.got.cif
#   From: 2010.05.17/outbox.cif.g08.bks.cpg/sg191_6_cif.got.tgz:10778.got - 2010.05.20 12:20:32.
