data_PCOD9587560
_publ_section_title
;
Structure prediction by ZEFSAII (Michael W. Deem and Ramdas Pophale) SiO2 
 PCOD9587560
Probable space group: P 6/M M M
;
_chemical_formula_sum "Si O2"
_cell_formula_units_Z 96
_cell_length_a 24.408824
_cell_length_b 24.408824
_cell_length_c 10.496574
_cell_angle_alpha 90.000000
_cell_angle_beta 90.000000
_cell_angle_gamma 120.000000
_cell_volume 5415.915944
_symmetry_space_group_name_H-M "P 6/M M M"
_symmetry_group_IT_number 191
_symmetry_cell_setting 'hexagonal'
loop_
_space_group_symop_operation_xyz
x,y,z
x-y,x,z
-y,x-y,z
-x,-y,z
-x+y,-x,z
y,-x+y,z
x-y,-y,-z
-x,-x+y,-z
y,x,-z
-y,-x,-z
-x+y,y,-z
x,x-y,-z
-x,-y,-z
-x+y,-x,-z
y,-x+y,-z
x,y,-z
x-y,x,-z
-y,x-y,-z
-x+y,y,z
x,x-y,z
-y,-x,z
y,x,z
x-y,-y,z
-x,-x+y,z
loop_
_atom_site_type_symbol
_atom_site_label
_atom_site_fract_x
_atom_site_fract_y
_atom_site_fract_z
Si Si1 0.148265 0.296529 0.155330
Si Si2 0.925759 0.074242 0.844886
Si Si3 0.622360 0.121762 0.752085
Si Si4 0.928004 0.634926 0.149368
Si Si5 0.545020 0.210313 0.000000
Si Si6 0.205915 0.540386 0.500000
O O1 0.111306 0.222612 0.195404
O O2 0.114816 0.336261 0.195014
O O3 0.147589 0.295177 0.000000
O O4 0.000000 0.111299 0.805932
O O5 0.925629 0.074372 0.000000
O O6 0.546193 0.092385 0.749457
O O7 0.653812 0.078751 0.774051
O O8 0.646847 0.168169 0.873873
O O9 0.649751 0.162691 0.624812
O O10 0.000000 0.690176 0.153511
O O11 0.912631 0.616027 0.000000
O O12 0.620754 0.241507 0.000000
O O13 0.523855 0.261928 0.000000
O O14 0.263896 0.527791 0.500000
O O15 0.230824 0.615412 0.500000
#
# Coordination Sequence:
#
# PCOD9587560 Si02
#       6
#    12  12  24  24  12  12
#     4   9  18  29  46  70 101 135 175 226 268 316
#     4   9  15  24  39  62  97 139 181 220 262 316
#     4  10  21  35  51  77 104 136 177 224 264 320
#     4  10  20  33  52  77 104 138 177 218 271 321
#     4  10  19  30  49  73 105 134 171 215 268 314
#     4  10  21  36  55  77 107 142 179 217 270 328
#
# _framework density 17.725532999999999
#
# number of rings (size 3 to 8) (size 9 to 14) (size 15 to 20)
#    0.000    2.250    1.250    1.875    3.500    4.000 
#    0.000    4.375    0.000    2.250    0.000    0.000 
#    0.000    0.000    0.000    0.000    0.000    0.375 
#
# Total GULP energy -534968.626843 kJ/mol
# GULP energy per Si atom -5572.589863 kJ/mol
# Density = 1.768519 g / cm^3
# Si number density = 17.725533 Si / 1000 Ang^3
#
#
#
# Elastic Constant Matrix: (Units=GPa)
#
#
# Indices 1 2 3 4 5 6 
#
# 1 107.4242 63.7491 14.5471 0.0000 0.0000 0.0000
# 2 63.7491 107.4242 14.5471 0.0000 0.0000 0.0000
# 3 14.5471 14.5471 74.4515 0.0000 0.0000 0.0000
# 4 0.0000 0.0000 0.0000 3.1481 0.0000 0.0000
# 5 0.0000 0.0000 0.0000 0.0000 3.1481 0.0000
# 6 0.0000 0.0000 0.0000 0.0000 0.0000 21.8376
#
#
#
# Elastic Compliance Matrix: (Units=1/GPa)
#
#
# Indices 1 2 3 4 5 6 
#
# 1 0.014470 -0.008427 -0.001181 0.000000 0.000000 0.000000
# 2 -0.008427 0.014470 -0.001181 0.000000 0.000000 0.000000
# 3 -0.001181 -0.001181 0.013893 0.000000 0.000000 0.000000
# 4 0.000000 0.000000 0.000000 0.317649 0.000000 0.000000
# 5 0.000000 0.000000 0.000000 0.000000 0.317649 0.000000
# 6 0.000000 0.000000 0.000000 0.000000 0.000000 0.045793
#
#
# Mechanical properties :
#
#
# Convention : Reuss Voigt Hill
#
# Bulk Modulus (GPa) = 47.04636 52.77628 49.91132
# Shear Modulus (GPa) = 6.64378 18.72386 12.68382
#
# Velocity S-wave (km/s) = 1.93811 3.25364 2.67791
# Velocity P-wave (km/s) = 5.62206 6.62976 6.14659
#
# Compressibility (1/GPa) = 0.02125563
#
# Stress axis : x y z
#
# Youngs Moduli (GPa) = 69.11077 69.11077 71.97888
#
# Poissons Ratio (x) = 0.58238 0.08498
# Poissons Ratio (y) = 0.58238 0.08498
# Poissons Ratio (z) = 0.08160 0.08160
#
# Static dielectric constant tensor:
#      x y z
#    x 1.622710 0.000000 0.000000 
#    y 0.000000 1.622710 0.000000 
#    z 0.000000 0.000000 1.565820 
# 
# From -- ./inp_files/2882.got.cif
#   From: 2010.05.17/outbox.cif.g08.bks.cpg/sg191_2_cif.got.tgz:2882.got - 2010.05.20 12:20:32.
