data_PCOD9587460
_publ_section_title
;
Structure prediction by ZEFSAII (Michael W. Deem and Ramdas Pophale) SiO2 
 PCOD9587460
Probable space group: P 6/M M M
;
_chemical_formula_sum "Si O2"
_cell_formula_units_Z 96
_cell_length_a 17.605128
_cell_length_b 17.605128
_cell_length_c 25.017619
_cell_angle_alpha 90.000000
_cell_angle_beta 90.000000
_cell_angle_gamma 120.000000
_cell_volume 6715.138585
_symmetry_space_group_name_H-M "P 6/M M M"
_symmetry_group_IT_number 191
_symmetry_cell_setting 'hexagonal'
loop_
_space_group_symop_operation_xyz
x,y,z
x-y,x,z
-y,x-y,z
-x,-y,z
-x+y,-x,z
y,-x+y,z
x-y,-y,-z
-x,-x+y,-z
y,x,-z
-y,-x,-z
-x+y,y,-z
x,x-y,-z
-x,-y,-z
-x+y,-x,-z
y,-x+y,-z
x,y,-z
x-y,x,-z
-y,x-y,-z
-x+y,y,z
x,x-y,z
-y,-x,z
y,x,z
x-y,-y,z
-x,-x+y,z
loop_
_atom_site_type_symbol
_atom_site_label
_atom_site_fract_x
_atom_site_fract_y
_atom_site_fract_z
Si Si1 0.000000 0.407861 0.294588
Si Si2 0.000000 0.408059 0.416283
Si Si3 0.667300 0.154945 0.000000
Si Si4 0.626269 0.725430 0.893594
Si Si5 0.150272 0.483016 0.500000
Si Si6 0.332147 0.485720 0.785878
O O1 0.914300 0.343383 0.260650
O O2 0.000000 0.500000 0.296546
O O3 0.000000 0.380038 0.355483
O O4 0.087759 0.431804 0.449401
O O5 0.000000 0.500000 0.415326
O O6 0.683497 0.113539 0.052890
O O7 0.742610 0.257391 0.000000
O O8 0.572184 0.144368 0.000000
O O9 0.654960 0.827480 0.893857
O O10 0.704038 0.704038 0.891457
O O11 0.564276 0.682659 0.842097
O O12 0.242502 0.485004 0.500000
O O13 0.164202 0.582101 0.500000
O O14 0.248811 0.497623 0.776438
O O15 0.420930 0.579071 0.788322
#
# Coordination Sequence:
#
# PCOD9587460 Si02
#       6
#    12  12  12  24  12  24
#     4   9  17  30  45  59  84 119 150 183 220 264
#     4   8  16  29  42  60  87 118 148 181 225 261
#     4  10  20  31  46  67  94 124 155 190 230 277
#     4  10  20  33  48  67  89 117 151 190 236 284
#     4   9  16  27  44  65  89 117 150 185 220 259
#     4  10  19  30  45  64  88 117 152 191 229 269
#
# _framework density 14.296056
#
# number of rings (size 3 to 8) (size 9 to 14) (size 15 to 20)
#    0.000    2.500    1.250    2.375    0.000    3.000 
#    0.000    2.500    0.000    3.250    0.000    0.000 
#    0.000    3.000    0.000   12.000    0.000   13.750 
#
# Total GULP energy -534966.574800 kJ/mol
# GULP energy per Si atom -5572.568488 kJ/mol
# Density = 1.426352 g / cm^3
# Si number density = 14.296056 Si / 1000 Ang^3
#
#
#
# Elastic Constant Matrix: (Units=GPa)
#
#
# Indices 1 2 3 4 5 6 
#
# 1 93.1099 66.0661 52.0023 0.0000 0.0000 0.0000
# 2 66.0661 93.1099 52.0023 0.0000 0.0000 0.0000
# 3 52.0023 52.0023 137.0090 0.0000 0.0000 0.0000
# 4 0.0000 0.0000 0.0000 10.0720 0.0000 0.0000
# 5 0.0000 0.0000 0.0000 0.0000 10.0720 0.0000
# 6 0.0000 0.0000 0.0000 0.0000 0.0000 13.5219
#
#
#
# Elastic Compliance Matrix: (Units=1/GPa)
#
#
# Indices 1 2 3 4 5 6 
#
# 1 0.022666 -0.014311 -0.003171 0.000000 0.000000 0.000000
# 2 -0.014311 0.022666 -0.003171 0.000000 0.000000 0.000000
# 3 -0.003171 -0.003171 0.009706 0.000000 0.000000 0.000000
# 4 0.000000 0.000000 0.000000 0.099285 0.000000 0.000000
# 5 0.000000 0.000000 0.000000 0.000000 0.099285 0.000000
# 6 0.000000 0.000000 0.000000 0.000000 0.000000 0.073954
#
#
# Mechanical properties :
#
#
# Convention : Reuss Voigt Hill
#
# Bulk Modulus (GPa) = 72.82935 73.70778 73.26857
# Shear Modulus (GPa) = 13.38884 16.94370 15.16627
#
# Velocity S-wave (km/s) = 3.06362 3.44641 3.26063
# Velocity P-wave (km/s) = 7.97299 8.21627 8.09554
#
# Compressibility (1/GPa) = 0.01373073
#
# Stress axis : x y z
#
# Youngs Moduli (GPa) = 44.11959 44.11959 103.03103
#
# Poissons Ratio (x) = 0.63142 0.32670
# Poissons Ratio (y) = 0.63142 0.32670
# Poissons Ratio (z) = 0.13990 0.13990
#
# Static dielectric constant tensor:
#      x y z
#    x 1.452360 0.000000 0.000000 
#    y 0.000000 1.452360 0.000000 
#    z 0.000000 0.000000 1.482340 
# 
# From -- ./inp_files/7258.got.cif
#   From: 2010.05.17/outbox.cif.g08.bks.cpg/sg191_4_cif.got.tgz:7258.got - 2010.05.20 12:20:32.
