data_PCOD9587745
_publ_section_title
;
Structure prediction by ZEFSAII (Michael W. Deem and Ramdas Pophale) SiO2 
 PCOD9587745
Probable space group: P 6/M M M
;
_chemical_formula_sum "Si O2"
_cell_formula_units_Z 72
_cell_length_a 22.178564
_cell_length_b 22.178564
_cell_length_c 10.398176
_cell_angle_alpha 90.000000
_cell_angle_beta 90.000000
_cell_angle_gamma 120.000000
_cell_volume 4429.499352
_symmetry_space_group_name_H-M "P 6/M M M"
_symmetry_group_IT_number 191
_symmetry_cell_setting 'hexagonal'
loop_
_space_group_symop_operation_xyz
x,y,z
x-y,x,z
-y,x-y,z
-x,-y,z
-x+y,-x,z
y,-x+y,z
x-y,-y,-z
-x,-x+y,-z
y,x,-z
-y,-x,-z
-x+y,y,-z
x,x-y,-z
-x,-y,-z
-x+y,-x,-z
y,-x+y,-z
x,y,-z
x-y,x,-z
-y,x-y,-z
-x+y,y,z
x,x-y,z
-y,-x,z
y,x,z
x-y,-y,z
-x,-x+y,z
loop_
_atom_site_type_symbol
_atom_site_label
_atom_site_fract_x
_atom_site_fract_y
_atom_site_fract_z
Si Si1 0.570483 0.918070 0.218100
Si Si2 0.524372 0.335433 0.000000
Si Si3 0.610484 0.526360 0.500000
Si Si4 0.789989 0.075668 0.844488
O O1 0.547193 0.897195 0.365078
O O2 0.641037 0.916629 0.193469
O O3 0.591841 0.000000 0.197628
O O4 0.513519 0.862438 0.121315
O O5 0.605469 0.394532 0.000000
O O6 0.514531 0.257266 0.000000
O O7 0.567231 0.567231 0.500000
O O8 0.555010 0.444990 0.500000
O O9 0.860945 0.139056 0.794827
O O10 0.773909 0.000000 0.801400
O O11 0.792138 0.077014 0.000000
#
# Coordination Sequence:
#
# PCOD9587745 Si02
#       4
#    24  12  12  24
#     4  10  19  33  55  79  99 124 159 207 259 304
#     4  12  24  37  51  69  98 133 171 207 241 288
#     4   9  18  32  49  74 105 128 152 194 254 315
#     4   9  16  28  47  72 101 130 163 203 247 292
#
# _framework density 16.254657999999999
#
# number of rings (size 3 to 8) (size 9 to 14) (size 15 to 20)
#    0.000    2.167    1.667    2.667    0.000    2.667 
#    0.000    3.333    0.000    0.333    0.000    4.667 
#    0.000    0.000    0.000    0.000    0.000   19.667 
#
# Total GULP energy -401059.933392 kJ/mol
# GULP energy per Si atom -5570.276853 kJ/mol
# Density = 1.621766 g / cm^3
# Si number density = 16.254658 Si / 1000 Ang^3
#
#
#
# Elastic Constant Matrix: (Units=GPa)
#
#
# Indices 1 2 3 4 5 6 
#
# 1 79.7527 46.2278 32.5738 0.0000 0.0000 0.0000
# 2 46.2278 79.7527 32.5738 0.0000 0.0000 0.0000
# 3 32.5738 32.5738 87.9690 0.0000 0.0000 0.0000
# 4 0.0000 0.0000 0.0000 -36.1543 0.0000 0.0000
# 5 0.0000 0.0000 0.0000 0.0000 -36.1543 0.0000
# 6 0.0000 0.0000 0.0000 0.0000 0.0000 16.7624
#
#
#
# Elastic Compliance Matrix: (Units=1/GPa)
#
#
# Indices 1 2 3 4 5 6 
#
# 1 0.019823 -0.010005 -0.003635 0.000000 0.000000 0.000000
# 2 -0.010005 0.019823 -0.003635 0.000000 0.000000 0.000000
# 3 -0.003635 -0.003635 0.014060 0.000000 0.000000 0.000000
# 4 0.000000 0.000000 0.000000 -0.027659 0.000000 0.000000
# 5 0.000000 0.000000 0.000000 0.000000 -0.027659 0.000000
# 6 0.000000 0.000000 0.000000 0.000000 0.000000 0.059657
#
#
# Mechanical properties :
#
#
# Convention : Reuss Voigt Hill
#
# Bulk Modulus (GPa) = 52.20896 52.24725 52.22811
# Shear Modulus (GPa) = 50.51427 -2.03597 24.23915
#
# Velocity S-wave (km/s) = 5.58070 -1.12039 3.86581
# Velocity P-wave (km/s) = 8.58573 5.52621 7.21990
#
# Compressibility (1/GPa) = 0.01915380
#
# Stress axis : x y z
#
# Youngs Moduli (GPa) = 50.44608 50.44608 71.12428
#
# Poissons Ratio (x) = 0.50474 0.25856
# Poissons Ratio (y) = 0.50474 0.25856
# Poissons Ratio (z) = 0.18339 0.18339
#
# Static dielectric constant tensor:
#      x y z
#    x 1.553470 0.000000 0.000000 
#    y 0.000000 1.553470 0.000000 
#    z 0.000000 0.000000 1.587030 
# 
# From -- ./inp_files/2566.got.cif
#   From: 2010.05.17/outbox.cif.g08.bks.cpg/sg191_2_cif.got.tgz:2566.got - 2010.05.20 12:20:32.
