data_PCOD9587106
_publ_section_title
;
Structure prediction by ZEFSAII (Michael W. Deem and Ramdas Pophale) SiO2 
 PCOD9587106
Probable space group: P 6/M M M
;
_chemical_formula_sum "Si O2"
_cell_formula_units_Z 120
_cell_length_a 17.895248
_cell_length_b 17.895248
_cell_length_c 26.452912
_cell_angle_alpha 90.000000
_cell_angle_beta 90.000000
_cell_angle_gamma 120.000000
_cell_volume 7336.341881
_symmetry_space_group_name_H-M "P 6/M M M"
_symmetry_group_IT_number 191
_symmetry_cell_setting 'hexagonal'
loop_
_space_group_symop_operation_xyz
x,y,z
x-y,x,z
-y,x-y,z
-x,-y,z
-x+y,-x,z
y,-x+y,z
x-y,-y,-z
-x,-x+y,-z
y,x,-z
-y,-x,-z
-x+y,y,-z
x,x-y,-z
-x,-y,-z
-x+y,-x,-z
y,-x+y,-z
x,y,-z
x-y,x,-z
-y,x-y,-z
-x+y,y,z
x,x-y,z
-y,-x,z
y,x,z
x-y,-y,z
-x,-x+y,z
loop_
_atom_site_type_symbol
_atom_site_label
_atom_site_fract_x
_atom_site_fract_y
_atom_site_fract_z
Si Si1 0.371104 0.272593 0.901664
Si Si2 0.730691 0.100523 0.293728
Si Si3 0.669431 0.166606 0.500000
Si Si4 0.636949 0.533728 0.392802
Si Si5 0.332461 0.489981 0.000000
Si Si6 0.510097 0.842710 0.196737
O O1 0.343286 0.171643 0.901891
O O2 0.294935 0.294935 0.902004
O O3 0.429941 0.314425 0.852158
O O4 0.431379 0.315197 0.950588
O O5 0.831960 0.168041 0.287572
O O6 0.697811 0.124587 0.344715
O O7 0.682494 0.115390 0.246652
O O8 0.702044 0.000000 0.296044
O O9 0.731143 0.268858 0.500000
O O10 0.569361 0.138722 0.500000
O O11 0.683715 0.132944 0.553147
O O12 0.568732 0.431269 0.387139
O O13 0.580610 0.580610 0.394281
O O14 0.426522 0.573479 0.000000
O O15 0.258548 0.517095 0.000000
O O16 0.426366 0.852732 0.195569
O O17 0.484035 0.742018 0.196849
#
# Coordination Sequence:
#
# PCOD9587106 Si02
#       6
#    24  24  12  24  12  24
#     4  10  21  35  51  72  97 127 162 201 244 285
#     4  10  20  33  49  69  92 119 152 191 234 277
#     4  10  18  27  39  57  84 117 151 183 215 254
#     4   9  17  29  45  64  86 114 148 185 225 269
#     4  10  20  33  50  73 102 134 165 196 232 277
#     4  10  20  33  50  73 101 131 160 190 225 267
#
# _framework density 16.356926000000001
#
# number of rings (size 3 to 8) (size 9 to 14) (size 15 to 20)
#    0.000    2.200    0.000    3.400    0.000    5.200 
#    0.000    2.000    0.000    6.800    0.000    0.000 
#    0.000    7.200    0.000    0.000    0.000   21.600 
#
# Total GULP energy -669167.462590 kJ/mol
# GULP energy per Si atom -5576.395522 kJ/mol
# Density = 1.631970 g / cm^3
# Si number density = 16.356926 Si / 1000 Ang^3
#
#
#
# Elastic Constant Matrix: (Units=GPa)
#
#
# Indices 1 2 3 4 5 6 
#
# 1 86.1480 68.7154 41.0665 0.0000 0.0000 0.0000
# 2 68.7154 86.1480 41.0665 0.0000 0.0000 0.0000
# 3 41.0665 41.0665 146.6135 0.0000 0.0000 0.0000
# 4 0.0000 0.0000 0.0000 19.0827 0.0000 0.0000
# 5 0.0000 0.0000 0.0000 0.0000 19.0827 0.0000
# 6 0.0000 0.0000 0.0000 0.0000 0.0000 8.7163
#
#
#
# Elastic Compliance Matrix: (Units=1/GPa)
#
#
# Indices 1 2 3 4 5 6 
#
# 1 0.032474 -0.024890 -0.002124 0.000000 0.000000 0.000000
# 2 -0.024890 0.032474 -0.002124 0.000000 0.000000 0.000000
# 3 -0.002124 -0.002124 0.008011 0.000000 0.000000 0.000000
# 4 0.000000 0.000000 0.000000 0.052404 0.000000 0.000000
# 5 0.000000 0.000000 0.000000 0.000000 0.052404 0.000000
# 6 0.000000 0.000000 0.000000 0.000000 0.000000 0.114727
#
#
# Mechanical properties :
#
#
# Convention : Reuss Voigt Hill
#
# Bulk Modulus (GPa) = 68.11308 68.95627 68.53468
# Shear Modulus (GPa) = 14.05823 20.58040 17.31931
#
# Velocity S-wave (km/s) = 2.93485 3.55097 3.25751
# Velocity P-wave (km/s) = 7.29497 7.68513 7.49259
#
# Compressibility (1/GPa) = 0.01468147
#
# Stress axis : x y z
#
# Youngs Moduli (GPa) = 30.79404 30.79404 124.83354
#
# Poissons Ratio (x) = 0.76646 0.26518
# Poissons Ratio (y) = 0.76646 0.26518
# Poissons Ratio (z) = 0.06541 0.06541
#
# Static dielectric constant tensor:
#      x y z
#    x 1.535950 0.000000 0.000000 
#    y 0.000000 1.535950 0.000000 
#    z 0.000000 0.000000 1.564340 
# 
# From -- ./inp_files/8566.got.cif
#   From: 2010.05.17/outbox.cif.g08.bks.cpg/sg191_5_cif.got.tgz:8566.got - 2010.05.20 12:20:32.
