data_PCOD9587146
_publ_section_title
;
Structure prediction by ZEFSAII (Michael W. Deem and Ramdas Pophale) SiO2 
 PCOD9587146
Probable space group: P 6/M M M
;
_chemical_formula_sum "Si O2"
_cell_formula_units_Z 96
_cell_length_a 31.847139
_cell_length_b 31.847139
_cell_length_c 7.512334
_cell_angle_alpha 90.000000
_cell_angle_beta 90.000000
_cell_angle_gamma 120.000000
_cell_volume 6598.517412
_symmetry_space_group_name_H-M "P 6/M M M"
_symmetry_group_IT_number 191
_symmetry_cell_setting 'hexagonal'
loop_
_space_group_symop_operation_xyz
x,y,z
x-y,x,z
-y,x-y,z
-x,-y,z
-x+y,-x,z
y,-x+y,z
x-y,-y,-z
-x,-x+y,-z
y,x,-z
-y,-x,-z
-x+y,y,-z
x,x-y,-z
-x,-y,-z
-x+y,-x,-z
y,-x+y,-z
x,y,-z
x-y,x,-z
-y,x-y,-z
-x+y,y,z
x,x-y,z
-y,-x,z
y,x,z
x-y,-y,z
-x,-x+y,z
loop_
_atom_site_type_symbol
_atom_site_label
_atom_site_fract_x
_atom_site_fract_y
_atom_site_fract_z
Si Si1 0.056438 0.278042 0.000000
Si Si2 0.055164 0.848996 0.710820
Si Si3 0.819391 0.536816 0.296826
Si Si4 0.142272 0.386348 0.000000
Si Si5 0.666210 0.236854 0.717385
O O1 0.064290 0.251828 0.829286
O O2 0.094514 0.334501 0.000000
O O3 0.000000 0.263104 0.000000
O O4 0.058247 0.841092 0.500000
O O5 0.096309 0.903692 0.752337
O O6 0.000000 0.835444 0.748947
O O7 0.837009 0.543522 0.500000
O O8 0.767554 0.535107 0.299304
O O9 0.853018 0.580805 0.169810
O O10 0.804873 0.483138 0.230056
O O11 0.189842 0.379684 0.000000
O O12 0.666752 0.237090 0.500000
O O13 0.615232 0.230463 0.775674
O O14 0.711048 0.288953 0.773385
#
# Coordination Sequence:
#
# PCOD9587146 Si02
#       5
#    12  24  24  12  24
#     4  10  20  32  45  63  84 105 135 174 211 248
#     4   9  17  29  45  65  89 115 141 169 200 233
#     4   8  15  26  38  55  79 105 133 164 195 229
#     4  10  18  28  43  59  77 104 132 158 196 245
#     4   8  12  19  33  53  78 108 139 167 194 226
#
# _framework density 14.548723000000001
#
# number of rings (size 3 to 8) (size 9 to 14) (size 15 to 20)
#    0.000    3.250    0.000    2.875    0.000    2.000 
#    0.000    3.125    0.000    0.250    0.000    3.500 
#    0.000    5.000    0.000    6.500    0.000    0.000 
#
# Total GULP energy -534536.453226 kJ/mol
# GULP energy per Si atom -5568.088054 kJ/mol
# Density = 1.451561 g / cm^3
# Si number density = 14.548723 Si / 1000 Ang^3
#
#
#
# Elastic Constant Matrix: (Units=GPa)
#
#
# Indices 1 2 3 4 5 6 
#
# 1 113.5386 68.0013 43.1174 0.0000 0.0000 0.0000
# 2 68.0013 113.5386 43.1174 0.0000 0.0000 0.0000
# 3 43.1174 43.1174 60.6308 0.0000 0.0000 0.0000
# 4 0.0000 0.0000 0.0000 28.9589 0.0000 0.0000
# 5 0.0000 0.0000 0.0000 0.0000 28.9589 0.0000
# 6 0.0000 0.0000 0.0000 0.0000 0.0000 22.7686
#
#
#
# Elastic Compliance Matrix: (Units=1/GPa)
#
#
# Indices 1 2 3 4 5 6 
#
# 1 0.015139 -0.006821 -0.005916 0.000000 0.000000 0.000000
# 2 -0.006821 0.015139 -0.005916 0.000000 0.000000 0.000000
# 3 -0.005916 -0.005916 0.024907 0.000000 0.000000 0.000000
# 4 0.000000 0.000000 0.000000 0.034532 0.000000 0.000000
# 5 0.000000 0.000000 0.000000 0.000000 0.034532 0.000000
# 6 0.000000 0.000000 0.000000 0.000000 0.000000 0.043920
#
#
# Mechanical properties :
#
#
# Convention : Reuss Voigt Hill
#
# Bulk Modulus (GPa) = 55.92407 66.24225 61.08316
# Shear Modulus (GPa) = 23.64805 25.03538 24.34171
#
# Velocity S-wave (km/s) = 4.03605 4.15275 4.09481
# Velocity P-wave (km/s) = 7.76158 8.28396 8.02702
#
# Compressibility (1/GPa) = 0.01788139
#
# Stress axis : x y z
#
# Youngs Moduli (GPa) = 66.05340 66.05340 40.14920
#
# Poissons Ratio (x) = 0.45054 0.23751
# Poissons Ratio (y) = 0.45054 0.23751
# Poissons Ratio (z) = 0.39075 0.39075
#
# Static dielectric constant tensor:
#      x y z
#    x 1.464480 0.000000 0.000000 
#    y 0.000000 1.464480 0.000000 
#    z 0.000000 0.000000 1.531240 
# 
# From -- ./inp_files/1516.got.cif
#   From: 2010.05.17/outbox.cif.g08.bks.cpg/sg191_1_cif.got.tgz:1516.got - 2010.05.20 12:20:32.
