data_PCOD9587005
_publ_section_title
;
Structure prediction by ZEFSAII (Michael W. Deem and Ramdas Pophale) SiO2 
 PCOD9587005
Probable space group: P -6 2 C
;
_chemical_formula_sum "Si O2"
_cell_formula_units_Z 44
_cell_length_a 12.334970
_cell_length_b 12.334970
_cell_length_c 15.521044
_cell_angle_alpha 90.000000
_cell_angle_beta 90.000000
_cell_angle_gamma 120.000000
_cell_volume 2045.162199
_symmetry_space_group_name_H-M "P -6 2 C"
_symmetry_group_IT_number 190
_symmetry_cell_setting 'hexagonal'
loop_
_space_group_symop_operation_xyz
x,y,z
-x+y,-x,1/2-z
-y,x-y,z
x,y,1/2-z
-x+y,-x,z
-y,x-y,1/2-z
x-y,-y,-z
-x,-x+y,-z
y,x,-z
y,x,1/2+z
x-y,-y,1/2+z
-x,-x+y,1/2+z
loop_
_atom_site_type_symbol
_atom_site_label
_atom_site_fract_x
_atom_site_fract_y
_atom_site_fract_z
Si Si1 0.915720 0.356132 0.416867
Si Si2 0.666668 0.333334 0.144813
Si Si3 0.085373 0.438303 0.250000
Si Si4 0.000000 0.000000 0.853902
Si Si5 0.059154 0.782654 0.590396
Si Si6 0.077997 0.684945 0.250000
O O1 0.805941 0.384835 0.391991
O O2 0.848571 0.206727 0.424278
O O3 0.000000 0.424676 0.500000
O O4 0.004157 0.387020 0.335191
O O5 0.666667 0.333334 0.250000
O O6 0.123284 0.583373 0.250000
O O7 0.185618 0.393161 0.250000
O O8 0.865857 0.976386 0.886512
O O9 0.000000 0.000000 0.750000
O O10 0.000000 0.721351 0.500000
O O11 0.004802 0.681320 0.667204
#
# Coordination Sequence:
#
# PCOD9587005 Si02
#       6
#    12   4   6   4  12   6
#     4  12  27  47  76 110 147 196 256 312 376 461
#     4  12  27  51  81 109 149 211 261 312 384 475
#     4  12  26  46  70 104 147 194 252 312 374 450
#     4  12  22  38  70 106 146 184 244 308 385 451
#     4  12  25  45  70 106 146 191 242 307 380 454
#     4  12  26  44  72 102 143 196 246 310 376 452
#
# _framework density 21.514187
#
# number of rings (size 3 to 8) (size 9 to 14) (size 15 to 20)
#    0.000    0.000    2.727    8.455    0.000    6.545 
#    0.000    0.000    0.000    0.000    0.000    0.000 
#    0.000    0.000    0.000    0.000    0.000    0.000 
#
# Total GULP energy -246468.778264 kJ/mol
# GULP energy per Si atom -5601.563142 kJ/mol
# Density = 2.146522 g / cm^3
# Si number density = 21.514187 Si / 1000 Ang^3
#
#
#
# Elastic Constant Matrix: (Units=GPa)
#
#
# Indices 1 2 3 4 5 6 
#
# 1 111.1046 26.6020 50.8295 -0.0001 0.0000 0.0001
# 2 26.6020 111.1033 50.8291 -0.0001 0.0002 -0.0003
# 3 50.8295 50.8291 207.4584 0.0000 0.0000 0.0001
# 4 -0.0001 -0.0001 0.0000 31.2440 0.0001 -0.0001
# 5 0.0000 0.0002 0.0000 0.0001 31.2440 0.0000
# 6 0.0001 -0.0003 0.0001 -0.0001 0.0000 42.2500
#
#
#
# Elastic Compliance Matrix: (Units=1/GPa)
#
#
# Indices 1 2 3 4 5 6 
#
# 1 0.010350 -0.001484 -0.002172 0.000000 0.000000 0.000000
# 2 -0.001484 0.010350 -0.002172 0.000000 0.000000 0.000000
# 3 -0.002172 -0.002172 0.005885 0.000000 0.000000 0.000000
# 4 0.000000 0.000000 0.000000 0.032006 0.000000 0.000000
# 5 0.000000 0.000000 0.000000 0.000000 0.032006 0.000000
# 6 0.000000 0.000000 0.000000 0.000000 0.000000 0.023669
#
#
# Mechanical properties :
#
#
# Convention : Reuss Voigt Hill
#
# Bulk Modulus (GPa) = 66.99296 76.24303 71.61800
# Shear Modulus (GPa) = 38.19779 41.04133 39.61956
#
# Velocity S-wave (km/s) = 4.21820 4.37239 4.29599
# Velocity P-wave (km/s) = 7.41154 7.81062 7.61370
#
# Compressibility (1/GPa) = 0.01492694
#
# Stress axis : x y z
#
# Youngs Moduli (GPa) = 96.62168 96.62066 169.93475
#
# Poissons Ratio (x) = 0.14342 0.36911
# Poissons Ratio (y) = 0.14342 0.36912
# Poissons Ratio (z) = 0.20987 0.20987
#
# Static dielectric constant tensor:
#      x y z
#    x 1.697790 0.000000 0.000000 
#    y 0.000000 1.697790 0.000000 
#    z 0.000000 0.000000 1.730900 
# 
# From -- ./inp_files/3543.got.cif
#   From: 2010.05.17/outbox.cif.g08.bks.cpg/sg190_2_cif.got.tgz:3543.got - 2010.05.20 12:16:56.
