data_PCOD9587363
_publ_section_title
;
Structure prediction by ZEFSAII (Michael W. Deem and Ramdas Pophale) SiO2 
 PCOD9587363
Probable space group: P 6/M M M
;
_chemical_formula_sum "Si O2"
_cell_formula_units_Z 144
_cell_length_a 21.446278
_cell_length_b 21.446278
_cell_length_c 27.585456
_cell_angle_alpha 90.000000
_cell_angle_beta 90.000000
_cell_angle_gamma 120.000000
_cell_volume 10987.899074
_symmetry_space_group_name_H-M "P 6/M M M"
_symmetry_group_IT_number 191
_symmetry_cell_setting 'hexagonal'
loop_
_space_group_symop_operation_xyz
x,y,z
x-y,x,z
-y,x-y,z
-x,-y,z
-x+y,-x,z
y,-x+y,z
x-y,-y,-z
-x,-x+y,-z
y,x,-z
-y,-x,-z
-x+y,y,-z
x,x-y,-z
-x,-y,-z
-x+y,-x,-z
y,-x+y,-z
x,y,-z
x-y,x,-z
-y,x-y,-z
-x+y,y,z
x,x-y,z
-y,-x,z
y,x,z
x-y,-y,z
-x,-x+y,z
loop_
_atom_site_type_symbol
_atom_site_label
_atom_site_fract_x
_atom_site_fract_y
_atom_site_fract_z
Si Si1 0.534501 0.616698 0.142970
Si Si2 0.664248 0.189750 0.500000
Si Si3 0.614220 0.531089 0.325500
Si Si4 0.137169 0.423016 0.416641
Si Si5 0.332947 0.518780 0.943446
Si Si6 0.333524 0.815676 0.767580
Si Si7 0.304749 0.080871 0.500000
O O1 0.460638 0.539363 0.144387
O O2 0.598509 0.598509 0.146380
O O3 0.531239 0.653546 0.093051
O O4 0.527170 0.660488 0.187641
O O5 0.745301 0.254700 0.500000
O O6 0.608557 0.217114 0.500000
O O7 0.659215 0.147344 0.451418
O O8 0.546022 0.453979 0.341478
O O9 0.579110 0.579110 0.309439
O O10 0.670907 0.571223 0.368428
O O11 0.651791 0.513619 0.281401
O O12 0.214991 0.429981 0.405834
O O13 0.095715 0.354395 0.452159
O O14 0.258745 0.517489 0.932808
O O15 0.400056 0.599945 0.936968
O O16 0.332711 0.499902 0.000000
O O17 0.400165 0.800329 0.772536
O O18 0.258284 0.741717 0.766774
O O19 0.281671 0.140836 0.500000
O O20 0.241643 0.000000 0.500000
#
# Coordination Sequence:
#
# PCOD9587363 Si02
#       7
#    24  12  24  24  24  24  12
#     4   9  17  28  40  54  73  96 122 152 187 228
#     4   9  16  25  37  53  74 100 128 158 191 223
#     4  10  19  29  41  56  75  99 125 154 189 227
#     4   9  17  28  41  57  76  98 125 155 184 216
#     4   9  16  25  38  56  77 100 126 157 192 227
#     4  10  19  30  43  57  73  94 122 156 193 231
#     4   9  17  29  45  62  79  98 119 145 177 215
#
# _framework density 13.105325000000001
#
# number of rings (size 3 to 8) (size 9 to 14) (size 15 to 20)
#    0.000    2.667    0.000    3.917    0.000    3.000 
#    0.000    3.333    0.000    9.417    0.000    0.000 
#    0.000    0.000    0.000    0.000    0.000    0.000 
#
# Total GULP energy -801785.888708 kJ/mol
# GULP energy per Si atom -5567.957560 kJ/mol
# Density = 1.307550 g / cm^3
# Si number density = 13.105325 Si / 1000 Ang^3
#
#
#
# Elastic Constant Matrix: (Units=GPa)
#
#
# Indices 1 2 3 4 5 6 
#
# 1 72.9074 41.8753 46.4432 0.0000 0.0000 0.0000
# 2 41.8753 72.9074 46.4432 0.0000 0.0000 0.0000
# 3 46.4432 46.4432 74.5958 0.0000 0.0000 0.0000
# 4 0.0000 0.0000 0.0000 13.2224 0.0000 0.0000
# 5 0.0000 0.0000 0.0000 0.0000 13.2224 0.0000
# 6 0.0000 0.0000 0.0000 0.0000 0.0000 15.5160
#
#
#
# Elastic Compliance Matrix: (Units=1/GPa)
#
#
# Indices 1 2 3 4 5 6 
#
# 1 0.024892 -0.007333 -0.010932 0.000000 0.000000 0.000000
# 2 -0.007333 0.024892 -0.010932 0.000000 0.000000 0.000000
# 3 -0.010932 -0.010932 0.027018 0.000000 0.000000 0.000000
# 4 0.000000 0.000000 0.000000 0.075629 0.000000 0.000000
# 5 0.000000 0.000000 0.000000 0.000000 0.075629 0.000000
# 6 0.000000 0.000000 0.000000 0.000000 0.000000 0.064449
#
#
# Mechanical properties :
#
#
# Convention : Reuss Voigt Hill
#
# Bulk Modulus (GPa) = 54.32586 54.43709 54.38147
# Shear Modulus (GPa) = 14.00404 14.10208 14.05306
#
# Velocity S-wave (km/s) = 3.27246 3.28389 3.27818
# Velocity P-wave (km/s) = 7.47140 7.48378 7.47759
#
# Compressibility (1/GPa) = 0.01840744
#
# Stress axis : x y z
#
# Youngs Moduli (GPa) = 40.17401 40.17401 37.01223
#
# Poissons Ratio (x) = 0.29460 0.40462
# Poissons Ratio (y) = 0.29460 0.40462
# Poissons Ratio (z) = 0.43918 0.43918
#
# Static dielectric constant tensor:
#      x y z
#    x 1.411640 0.000000 0.000000 
#    y 0.000000 1.411640 0.000000 
#    z 0.000000 0.000000 1.443030 
# 
# From -- ./inp_files/9960.got.cif
#   From: 2010.05.17/outbox.cif.g08.bks.cpg/sg191_5_cif.got.tgz:9960.got - 2010.05.20 12:20:32.
