data_PCOD9587823
_publ_section_title
;
Structure prediction by ZEFSAII (Michael W. Deem and Ramdas Pophale) SiO2 
 PCOD9587823
Probable space group: P 6/M M M
;
_chemical_formula_sum "Si O2"
_cell_formula_units_Z 168
_cell_length_a 18.131152
_cell_length_b 18.131152
_cell_length_c 36.628150
_cell_angle_alpha 90.000000
_cell_angle_beta 90.000000
_cell_angle_gamma 120.000000
_cell_volume 10427.889327
_symmetry_space_group_name_H-M "P 6/M M M"
_symmetry_group_IT_number 191
_symmetry_cell_setting 'hexagonal'
loop_
_space_group_symop_operation_xyz
x,y,z
x-y,x,z
-y,x-y,z
-x,-y,z
-x+y,-x,z
y,-x+y,z
x-y,-y,-z
-x,-x+y,-z
y,x,-z
-y,-x,-z
-x+y,y,-z
x,x-y,-z
-x,-y,-z
-x+y,-x,-z
y,-x+y,-z
x,y,-z
x-y,x,-z
-y,x-y,-z
-x+y,y,z
x,x-y,z
-y,-x,z
y,x,z
x-y,-y,z
-x,-x+y,z
loop_
_atom_site_type_symbol
_atom_site_label
_atom_site_fract_x
_atom_site_fract_y
_atom_site_fract_z
Si Si1 0.667418 0.159258 0.322020
Si Si2 0.094026 0.358051 0.958677
Si Si3 0.158824 0.666351 0.103487
Si Si4 0.532138 0.896812 0.541123
Si Si5 0.099842 0.366448 0.610084
Si Si6 0.366516 0.097066 0.253503
Si Si7 0.840764 0.333123 0.186764
O O1 0.574834 0.149668 0.321915
O O2 0.741417 0.258583 0.322397
O O3 0.683839 0.116161 0.357158
O O4 0.684906 0.118221 0.286461
O O5 0.167481 0.334962 0.953551
O O6 0.106603 0.425156 0.927658
O O7 0.000000 0.278985 0.956015
O O8 0.104048 0.393716 0.000000
O O9 0.156795 0.578398 0.098138
O O10 0.255157 0.744844 0.100580
O O11 0.130387 0.667413 0.145142
O O12 0.537405 0.868458 0.500000
O O13 0.433649 0.867298 0.549312
O O14 0.579112 0.876257 0.572723
O O15 0.581077 0.000000 0.540352
O O16 0.166595 0.333189 0.615304
O O17 0.000000 0.295997 0.609221
O O18 0.340082 0.170041 0.254725
O O19 0.419099 0.110158 0.216250
O O20 0.291638 0.000000 0.256572
O O21 0.848485 0.424243 0.193876
O O22 0.741693 0.258308 0.189132
#
# Coordination Sequence:
#
# PCOD9587823 Si02
#       7
#    24  24  24  24  24  24  24
#     4  10  20  33  50  73 101 130 156 182 216 263
#     4   9  18  32  48  65  86 113 145 182 226 274
#     4   9  17  29  45  66  93 125 158 188 217 252
#     4   8  14  26  45  68  92 117 146 181 222 271
#     4  10  20  32  47  68  93 122 157 198 241 280
#     4  10  21  35  50  69  93 122 155 192 233 273
#     4   9  17  29  46  68  95 126 157 187 219 258
#
# _framework density 16.110643
#
# number of rings (size 3 to 8) (size 9 to 14) (size 15 to 20)
#    0.000    2.714    0.000    2.143    0.000    5.143 
#    0.000    3.571    0.000    1.571    0.000    1.000 
#    0.000    3.429    0.000   10.714    0.000    3.714 
#
# Total GULP energy -936177.281809 kJ/mol
# GULP energy per Si atom -5572.483820 kJ/mol
# Density = 1.607397 g / cm^3
# Si number density = 16.110643 Si / 1000 Ang^3
#
#
#
# Elastic Constant Matrix: (Units=GPa)
#
#
# Indices 1 2 3 4 5 6 
#
# 1 72.6466 67.4511 48.9590 0.0000 0.0000 0.0000
# 2 67.4511 72.6466 48.9590 0.0000 0.0000 0.0000
# 3 48.9590 48.9590 96.4868 0.0000 0.0000 0.0000
# 4 0.0000 0.0000 0.0000 19.1942 0.0000 0.0000
# 5 0.0000 0.0000 0.0000 0.0000 19.1942 0.0000
# 6 0.0000 0.0000 0.0000 0.0000 0.0000 2.5978
#
#
#
# Elastic Compliance Matrix: (Units=1/GPa)
#
#
# Indices 1 2 3 4 5 6 
#
# 1 0.101767 -0.090707 -0.005612 0.000000 0.000000 0.000000
# 2 -0.090707 0.101767 -0.005612 0.000000 0.000000 0.000000
# 3 -0.005612 -0.005612 0.016060 0.000000 0.000000 0.000000
# 4 0.000000 0.000000 0.000000 0.052099 0.000000 0.000000
# 5 0.000000 0.000000 0.000000 0.000000 0.052099 0.000000
# 6 0.000000 0.000000 0.000000 0.000000 0.000000 0.384948
#
#
# Mechanical properties :
#
#
# Convention : Reuss Voigt Hill
#
# Bulk Modulus (GPa) = 63.56684 63.61316 63.59000
# Shear Modulus (GPa) = 5.44753 13.29130 9.36942
#
# Velocity S-wave (km/s) = 1.84083 2.87540 2.41419
# Velocity P-wave (km/s) = 6.63779 7.11300 6.87950
#
# Compressibility (1/GPa) = 0.01573147
#
# Stress axis : x y z
#
# Youngs Moduli (GPa) = 9.82634 9.82634 62.26798
#
# Poissons Ratio (x) = 0.89132 0.34946
# Poissons Ratio (y) = 0.89132 0.34946
# Poissons Ratio (z) = 0.05515 0.05515
#
# Static dielectric constant tensor:
#      x y z
#    x 1.523930 0.000000 0.000000 
#    y 0.000000 1.523930 0.000000 
#    z 0.000000 0.000000 1.563930 
# 
# From -- ./inp_files/10767.got.cif
#   From: 2010.05.17/outbox.cif.g08.bks.cpg/sg191_6_cif.got.tgz:10767.got - 2010.05.20 12:20:32.
