data_PCOD9587259
_publ_section_title
;
Structure prediction by ZEFSAII (Michael W. Deem and Ramdas Pophale) SiO2 
 PCOD9587259
Probable space group: P 6/M M M
;
_chemical_formula_sum "Si O2"
_cell_formula_units_Z 144
_cell_length_a 22.092917
_cell_length_b 22.092917
_cell_length_c 22.311306
_cell_angle_alpha 90.000000
_cell_angle_beta 90.000000
_cell_angle_gamma 120.000000
_cell_volume 9431.086894
_symmetry_space_group_name_H-M "P 6/M M M"
_symmetry_group_IT_number 191
_symmetry_cell_setting 'hexagonal'
loop_
_space_group_symop_operation_xyz
x,y,z
x-y,x,z
-y,x-y,z
-x,-y,z
-x+y,-x,z
y,-x+y,z
x-y,-y,-z
-x,-x+y,-z
y,x,-z
-y,-x,-z
-x+y,y,-z
x,x-y,-z
-x,-y,-z
-x+y,-x,-z
y,-x+y,-z
x,y,-z
x-y,x,-z
-y,x-y,-z
-x+y,y,z
x,x-y,z
-y,-x,z
y,x,z
x-y,-y,z
-x,-x+y,z
loop_
_atom_site_type_symbol
_atom_site_label
_atom_site_fract_x
_atom_site_fract_y
_atom_site_fract_z
Si Si1 0.915470 0.457735 0.067844
Si Si2 0.443398 0.150621 0.383796
Si Si3 0.783798 0.079128 0.680491
Si Si4 0.916569 0.529821 0.500000
Si Si5 0.808766 0.474585 0.263340
Si Si6 0.920271 0.218574 0.824603
Si Si7 0.917012 0.562425 0.160374
O O1 0.896695 0.507907 0.106031
O O2 0.000000 0.500000 0.064606
O O3 0.888320 0.444160 0.000000
O O4 0.448454 0.224227 0.399826
O O5 0.367079 0.102702 0.354468
O O6 0.455895 0.115650 0.440974
O O7 0.498220 0.165859 0.330540
O O8 0.863643 0.136358 0.666994
O O9 0.774024 0.082793 0.752189
O O10 0.760891 0.000000 0.665601
O O11 0.901379 0.450690 0.500000
O O12 0.000000 0.579577 0.500000
O O13 0.741843 0.483686 0.251451
O O14 0.789852 0.394926 0.257346
O O15 0.870285 0.521174 0.217122
O O16 0.858799 0.141202 0.840644
O O17 0.907270 0.278467 0.852098
O O18 0.000000 0.239240 0.838809
O O19 0.000000 0.595149 0.172938
#
# Coordination Sequence:
#
# PCOD9587259 Si02
#       7
#    12  24  24  12  24  24  24
#     4   9  18  32  48  72 104 133 163 199 245 298
#     4  10  20  34  51  67  89 120 158 200 240 284
#     4   9  16  27  45  69  95 123 153 194 241 284
#     4  11  23  36  48  66  92 123 151 183 238 298
#     4  11  21  33  49  71  95 122 156 200 245 287
#     4   9  16  27  45  71 100 127 161 204 251 295
#     4  10  18  29  49  74  96 124 161 203 248 290
#
# _framework density 15.268654
#
# number of rings (size 3 to 8) (size 9 to 14) (size 15 to 20)
#    0.000    2.167    2.500    1.917    0.000    0.667 
#    0.000    0.000    0.000    4.667    0.000    2.333 
#    0.000    0.000    0.000    0.000    0.000   17.333 
#
# Total GULP energy -802738.168693 kJ/mol
# GULP energy per Si atom -5574.570616 kJ/mol
# Density = 1.523390 g / cm^3
# Si number density = 15.268654 Si / 1000 Ang^3
#
#
#
# Elastic Constant Matrix: (Units=GPa)
#
#
# Indices 1 2 3 4 5 6 
#
# 1 92.4653 53.5750 43.2102 0.0000 0.0000 0.0000
# 2 53.5750 92.4653 43.2102 0.0000 0.0000 0.0000
# 3 43.2102 43.2102 62.6102 0.0000 0.0000 0.0000
# 4 0.0000 0.0000 0.0000 13.5606 0.0000 0.0000
# 5 0.0000 0.0000 0.0000 0.0000 13.5606 0.0000
# 6 0.0000 0.0000 0.0000 0.0000 0.0000 19.4451
#
#
#
# Elastic Compliance Matrix: (Units=1/GPa)
#
#
# Indices 1 2 3 4 5 6 
#
# 1 0.018644 -0.007069 -0.007988 0.000000 0.000000 0.000000
# 2 -0.007069 0.018644 -0.007988 0.000000 0.000000 0.000000
# 3 -0.007988 -0.007988 0.026998 0.000000 0.000000 0.000000
# 4 0.000000 0.000000 0.000000 0.073743 0.000000 0.000000
# 5 0.000000 0.000000 0.000000 0.000000 0.073743 0.000000
# 6 0.000000 0.000000 0.000000 0.000000 0.000000 0.051427
#
#
# Mechanical properties :
#
#
# Convention : Reuss Voigt Hill
#
# Bulk Modulus (GPa) = 54.96215 58.61464 56.78839
# Shear Modulus (GPa) = 15.85520 16.48296 16.16908
#
# Velocity S-wave (km/s) = 3.22594 3.28918 3.25772
# Velocity P-wave (km/s) = 7.06756 7.27304 7.17104
#
# Compressibility (1/GPa) = 0.01819434
#
# Stress axis : x y z
#
# Youngs Moduli (GPa) = 53.63685 53.63685 37.04019
#
# Poissons Ratio (x) = 0.37919 0.29588
# Poissons Ratio (y) = 0.37919 0.29588
# Poissons Ratio (z) = 0.42845 0.42845
#
# Static dielectric constant tensor:
#      x y z
#    x 1.506100 0.000000 0.000000 
#    y 0.000000 1.506100 0.000000 
#    z 0.000000 0.000000 1.485740 
# 
# From -- ./inp_files/7680.got.cif
#   From: 2010.05.17/outbox.cif.g08.bks.cpg/sg191_4_cif.got.tgz:7680.got - 2010.05.20 12:20:32.
