data_PCOD9587753
_publ_section_title
;
Structure prediction by ZEFSAII (Michael W. Deem and Ramdas Pophale) SiO2 
 PCOD9587753
Probable space group: P 6/M M M
;
_chemical_formula_sum "Si O2"
_cell_formula_units_Z 90
_cell_length_a 17.458131
_cell_length_b 17.458131
_cell_length_c 20.083673
_cell_angle_alpha 90.000000
_cell_angle_beta 90.000000
_cell_angle_gamma 120.000000
_cell_volume 5301.139944
_symmetry_space_group_name_H-M "P 6/M M M"
_symmetry_group_IT_number 191
_symmetry_cell_setting 'hexagonal'
loop_
_space_group_symop_operation_xyz
x,y,z
x-y,x,z
-y,x-y,z
-x,-y,z
-x+y,-x,z
y,-x+y,z
x-y,-y,-z
-x,-x+y,-z
y,x,-z
-y,-x,-z
-x+y,y,-z
x,x-y,-z
-x,-y,-z
-x+y,-x,-z
y,-x+y,-z
x,y,-z
x-y,x,-z
-y,x-y,-z
-x+y,y,z
x,x-y,z
-y,-x,z
y,x,z
x-y,-y,z
-x,-x+y,z
loop_
_atom_site_type_symbol
_atom_site_label
_atom_site_fract_x
_atom_site_fract_y
_atom_site_fract_z
Si Si1 0.466023 0.105702 0.770698
Si Si2 0.793126 0.586251 0.875734
Si Si3 0.207727 0.103864 0.919451
Si Si4 0.895637 0.271312 0.365515
Si Si5 0.274350 0.725651 0.000000
Si Si6 0.467398 0.106799 0.500000
O O1 0.570083 0.140165 0.773419
O O2 0.434539 0.144736 0.829281
O O3 0.437413 0.123778 0.698918
O O4 0.415491 0.000000 0.777340
O O5 0.844829 0.689658 0.896703
O O6 0.758519 0.517038 0.936959
O O7 0.155509 0.155509 0.898300
O O8 0.208025 0.104013 0.000000
O O9 0.833587 0.166414 0.361632
O O10 0.871720 0.305188 0.432570
O O11 0.000000 0.306578 0.366500
O O12 0.238193 0.619097 0.000000
O O13 0.571656 0.143311 0.500000
O O14 0.419594 0.000000 0.500000
#
# Coordination Sequence:
#
# PCOD9587753 Si02
#       6
#    24  12  12  24   6  12
#     4  10  21  36  55  80 110 145 186 230 273 326
#     4  12  20  39  60  81 112 146 190 223 274 340
#     4  10  21  38  62  90 117 143 177 227 285 341
#     4  10  19  34  54  80 110 145 190 231 278 334
#     4  10  24  40  56  82 112 146 182 232 286 328
#     4   9  17  30  53  78 106 142 176 223 277 322
#
# _framework density 16.977481000000001
#
# number of rings (size 3 to 8) (size 9 to 14) (size 15 to 20)
#    0.133    1.733    2.000    2.933    0.000    3.733 
#    0.800    0.000    0.000    7.200    0.000    0.000 
#    0.000    3.200    0.000    0.000    0.000    0.000 
#
# Total GULP energy -501702.580155 kJ/mol
# GULP energy per Si atom -5574.473113 kJ/mol
# Density = 1.693884 g / cm^3
# Si number density = 16.977481 Si / 1000 Ang^3
#
#
#
# Elastic Constant Matrix: (Units=GPa)
#
#
# Indices 1 2 3 4 5 6 
#
# 1 110.5242 75.4735 54.1965 0.0000 0.0000 0.0000
# 2 75.4735 110.5242 54.1965 0.0000 0.0000 0.0000
# 3 54.1965 54.1965 129.1774 0.0000 0.0000 0.0000
# 4 0.0000 0.0000 0.0000 25.6908 0.0000 0.0000
# 5 0.0000 0.0000 0.0000 0.0000 25.6908 0.0000
# 6 0.0000 0.0000 0.0000 0.0000 0.0000 17.5254
#
#
#
# Elastic Compliance Matrix: (Units=1/GPa)
#
#
# Indices 1 2 3 4 5 6 
#
# 1 0.017823 -0.010707 -0.002986 0.000000 0.000000 0.000000
# 2 -0.010707 0.017823 -0.002986 0.000000 0.000000 0.000000
# 3 -0.002986 -0.002986 0.010247 0.000000 0.000000 0.000000
# 4 0.000000 0.000000 0.000000 0.038924 0.000000 0.000000
# 5 0.000000 0.000000 0.000000 0.000000 0.038924 0.000000
# 6 0.000000 0.000000 0.000000 0.000000 0.000000 0.057060
#
#
# Mechanical properties :
#
#
# Convention : Reuss Voigt Hill
#
# Bulk Modulus (GPa) = 79.76647 79.77319 79.76983
# Shear Modulus (GPa) = 22.90037 24.87204 23.88620
#
# Velocity S-wave (km/s) = 3.67668 3.83169 3.75498
# Velocity P-wave (km/s) = 8.06905 8.16489 8.11711
#
# Compressibility (1/GPa) = 0.01253660
#
# Stress axis : x y z
#
# Youngs Moduli (GPa) = 56.10662 56.10662 97.59360
#
# Poissons Ratio (x) = 0.60073 0.29138
# Poissons Ratio (y) = 0.60073 0.29138
# Poissons Ratio (z) = 0.16752 0.16752
#
# Static dielectric constant tensor:
#      x y z
#    x 1.577280 0.000000 0.000000 
#    y 0.000000 1.577280 0.000000 
#    z 0.000000 0.000000 1.557060 
# 
# From -- ./inp_files/5871.got.cif
#   From: 2010.05.17/outbox.cif.g08.bks.cpg/sg191_3_cif.got.tgz:5871.got - 2010.05.20 12:20:32.
