data_PCOD9587829
_publ_section_title
;
Structure prediction by ZEFSAII (Michael W. Deem and Ramdas Pophale) SiO2 
 PCOD9587829
Probable space group: P 6/M M M
;
_chemical_formula_sum "Si O2"
_cell_formula_units_Z 144
_cell_length_a 33.430792
_cell_length_b 33.430792
_cell_length_c 8.940521
_cell_angle_alpha 90.000000
_cell_angle_beta 90.000000
_cell_angle_gamma 120.000000
_cell_volume 8653.400219
_symmetry_space_group_name_H-M "P 6/M M M"
_symmetry_group_IT_number 191
_symmetry_cell_setting 'hexagonal'
loop_
_space_group_symop_operation_xyz
x,y,z
x-y,x,z
-y,x-y,z
-x,-y,z
-x+y,-x,z
y,-x+y,z
x-y,-y,-z
-x,-x+y,-z
y,x,-z
-y,-x,-z
-x+y,y,-z
x,x-y,-z
-x,-y,-z
-x+y,-x,-z
y,-x+y,-z
x,y,-z
x-y,x,-z
-y,x-y,-z
-x+y,y,z
x,x-y,z
-y,-x,z
y,x,z
x-y,-y,z
-x,-x+y,z
loop_
_atom_site_type_symbol
_atom_site_label
_atom_site_fract_x
_atom_site_fract_y
_atom_site_fract_z
Si Si1 0.655821 0.708758 0.322729
Si Si2 0.475592 0.618576 0.179441
Si Si3 0.295086 0.193759 0.178092
Si Si4 0.431008 0.379148 0.180701
Si Si5 0.332935 0.573274 0.680412
Si Si6 0.805015 0.947791 0.320410
O O1 0.648698 0.708302 0.500000
O O2 0.696354 0.696354 0.296988
O O3 0.670608 0.758018 0.253771
O O4 0.610676 0.667901 0.245735
O O5 0.430850 0.569151 0.212564
O O6 0.521012 0.617068 0.229056
O O7 0.465033 0.656201 0.253261
O O8 0.478281 0.625205 0.000000
O O9 0.306824 0.153412 0.211528
O O10 0.243784 0.175257 0.241921
O O11 0.295081 0.199114 0.000000
O O12 0.419656 0.419656 0.224201
O O13 0.429932 0.377379 0.000000
O O14 0.332702 0.570630 0.500000
O O15 0.284520 0.569039 0.727836
O O16 0.376375 0.623626 0.722674
O O17 0.797971 0.946136 0.500000
O O18 0.819429 0.909715 0.282813
O O19 0.841546 0.000000 0.279007
#
# Coordination Sequence:
#
# PCOD9587829 Si02
#       6
#    24  24  24  24  24  24
#     4  10  20  33  50  71  94 121 154 192 232 275
#     4   9  18  32  50  74 102 128 157 197 242 284
#     4  10  20  32  47  69  95 121 151 188 230 277
#     4   9  18  33  52  72  95 126 162 197 235 280
#     4   9  17  30  49  72  98 129 164 199 235 279
#     4   9  17  29  45  65  90 120 153 189 230 276
#
# _framework density 16.640858000000001
#
# number of rings (size 3 to 8) (size 9 to 14) (size 15 to 20)
#    0.000    2.667    0.000    1.667    0.000    6.333 
#    0.000    2.500    0.000    2.167    0.000    5.833 
#    0.000    0.000    0.000    4.167    0.000    4.333 
#
# Total GULP energy -802611.936775 kJ/mol
# GULP energy per Si atom -5573.694005 kJ/mol
# Density = 1.660298 g / cm^3
# Si number density = 16.640858 Si / 1000 Ang^3
#
#
#
# Elastic Constant Matrix: (Units=GPa)
#
#
# Indices 1 2 3 4 5 6 
#
# 1 114.2960 73.5932 30.5810 0.0000 0.0000 0.0000
# 2 73.5932 114.2960 30.5810 0.0000 0.0000 0.0000
# 3 30.5810 30.5810 12.9825 0.0000 0.0000 0.0000
# 4 0.0000 0.0000 0.0000 23.3407 0.0000 0.0000
# 5 0.0000 0.0000 0.0000 0.0000 23.3407 0.0000
# 6 0.0000 0.0000 0.0000 0.0000 0.0000 20.3514
#
#
#
# Elastic Compliance Matrix: (Units=1/GPa)
#
#
# Indices 1 2 3 4 5 6 
#
# 1 0.023695 -0.000874 -0.053757 0.000000 0.000000 0.000000
# 2 -0.000874 0.023695 -0.053757 0.000000 0.000000 0.000000
# 3 -0.053757 -0.053757 0.330281 0.000000 0.000000 0.000000
# 4 0.000000 0.000000 0.000000 0.042844 0.000000 0.000000
# 5 0.000000 0.000000 0.000000 0.000000 0.042844 0.000000
# 6 0.000000 0.000000 0.000000 0.000000 0.000000 0.049137
#
#
# Mechanical properties :
#
#
# Convention : Reuss Voigt Hill
#
# Bulk Modulus (GPa) = 6.21519 56.78723 31.50121
# Shear Modulus (GPa) = 6.38650 20.52783 13.45717
#
# Velocity S-wave (km/s) = 1.96117 3.51605 2.84682
# Velocity P-wave (km/s) = 2.97846 7.11918 5.45683
#
# Compressibility (1/GPa) = 0.16089620
#
# Stress axis : x y z
#
# Youngs Moduli (GPa) = 42.20333 42.20333 3.02773
#
# Poissons Ratio (x) = 0.03686 0.16276
# Poissons Ratio (y) = 0.03686 0.16276
# Poissons Ratio (z) = 2.26872 2.26872
#
# Static dielectric constant tensor:
#      x y z
#    x 1.552960 0.000000 0.000000 
#    y 0.000000 1.552960 0.000000 
#    z 0.000000 0.000000 1.557750 
# 
# From -- ./inp_files/1945.got.cif
#   From: 2010.05.17/outbox.cif.g08.bks.cpg/sg191_1_cif.got.tgz:1945.got - 2010.05.20 12:20:32.
