data_PCOD9587203
_publ_section_title
;
Structure prediction by ZEFSAII (Michael W. Deem and Ramdas Pophale) SiO2 
 PCOD9587203
Probable space group: P 6/M M M
;
_chemical_formula_sum "Si O2"
_cell_formula_units_Z 120
_cell_length_a 18.664909
_cell_length_b 18.664909
_cell_length_c 27.169773
_cell_angle_alpha 90.000000
_cell_angle_beta 90.000000
_cell_angle_gamma 120.000000
_cell_volume 8197.254058
_symmetry_space_group_name_H-M "P 6/M M M"
_symmetry_group_IT_number 191
_symmetry_cell_setting 'hexagonal'
loop_
_space_group_symop_operation_xyz
x,y,z
x-y,x,z
-y,x-y,z
-x,-y,z
-x+y,-x,z
y,-x+y,z
x-y,-y,-z
-x,-x+y,-z
y,x,-z
-y,-x,-z
-x+y,y,-z
x,x-y,-z
-x,-y,-z
-x+y,-x,-z
y,-x+y,-z
x,y,-z
x-y,x,-z
-y,x-y,-z
-x+y,y,z
x,x-y,z
-y,-x,z
y,x,z
x-y,-y,z
-x,-x+y,z
loop_
_atom_site_type_symbol
_atom_site_label
_atom_site_fract_x
_atom_site_fract_y
_atom_site_fract_z
Si Si1 0.254140 0.348825 0.305469
Si Si2 0.355821 0.095341 0.579126
Si Si3 0.413010 0.000000 0.056695
Si Si4 0.631472 0.098849 0.776397
Si Si5 0.503137 0.667153 0.500000
Si Si6 0.331420 0.834684 0.884767
O O1 0.158086 0.316171 0.298225
O O2 0.281177 0.281177 0.296101
O O3 0.274078 0.374839 0.362609
O O4 0.305797 0.423456 0.267994
O O5 0.329777 0.164889 0.568495
O O6 0.437122 0.121342 0.546810
O O7 0.287854 0.000000 0.568362
O O8 0.433623 0.084022 0.084605
O O9 0.500000 0.000000 0.057597
O O10 0.389816 0.000000 0.000000
O O11 0.558750 0.117500 0.762584
O O12 0.670990 0.145234 0.827148
O O13 0.586067 0.000000 0.786283
O O14 0.422264 0.577737 0.500000
O O15 0.480023 0.740012 0.500000
O O16 0.411593 0.823185 0.891209
O O17 0.247785 0.752216 0.898968
#
# Coordination Sequence:
#
# PCOD9587203 Si02
#       6
#    24  24  12  24  12  24
#     4   9  17  29  45  65  89 116 147 181 219 262
#     4   9  18  31  46  65  88 115 146 182 222 262
#     4   9  18  32  46  60  84 116 145 176 218 260
#     4   9  16  27  43  63  87 116 146 177 215 259
#     4  10  20  33  48  65  88 116 147 180 218 261
#     4  10  18  29  45  65  88 115 149 184 218 257
#
# _framework density 14.639049
#
# number of rings (size 3 to 8) (size 9 to 14) (size 15 to 20)
#    0.000    2.700    1.000    1.200    0.000    2.000 
#    0.000    2.000    0.000    2.000    0.000    2.800 
#    0.000    2.400    0.000    0.500    0.000    1.300 
#
# Total GULP energy -668259.347037 kJ/mol
# GULP energy per Si atom -5568.827892 kJ/mol
# Density = 1.460573 g / cm^3
# Si number density = 14.639049 Si / 1000 Ang^3
#
#
#
# Elastic Constant Matrix: (Units=GPa)
#
#
# Indices 1 2 3 4 5 6 
#
# 1 98.6903 61.6298 54.1123 0.0000 0.0000 0.0000
# 2 61.6298 98.6903 54.1123 0.0000 0.0000 0.0000
# 3 54.1123 54.1123 73.7764 0.0000 0.0000 0.0000
# 4 0.0000 0.0000 0.0000 12.9368 0.0000 0.0000
# 5 0.0000 0.0000 0.0000 0.0000 12.9368 0.0000
# 6 0.0000 0.0000 0.0000 0.0000 0.0000 18.5302
#
#
#
# Elastic Compliance Matrix: (Units=1/GPa)
#
#
# Indices 1 2 3 4 5 6 
#
# 1 0.019669 -0.007314 -0.009062 0.000000 0.000000 0.000000
# 2 -0.007314 0.019669 -0.009062 0.000000 0.000000 0.000000
# 3 -0.009062 -0.009062 0.026847 0.000000 0.000000 0.000000
# 4 0.000000 0.000000 0.000000 0.077299 0.000000 0.000000
# 5 0.000000 0.000000 0.000000 0.000000 0.077299 0.000000
# 6 0.000000 0.000000 0.000000 0.000000 0.000000 0.053966
#
#
# Mechanical properties :
#
#
# Convention : Reuss Voigt Hill
#
# Bulk Modulus (GPa) = 65.31738 67.87396 66.59567
# Shear Modulus (GPa) = 15.11821 15.63427 15.37624
#
# Velocity S-wave (km/s) = 3.21710 3.27155 3.24444
# Velocity P-wave (km/s) = 7.64952 7.79335 7.72177
#
# Compressibility (1/GPa) = 0.01530986
#
# Stress axis : x y z
#
# Youngs Moduli (GPa) = 50.84204 50.84204 37.24782
#
# Poissons Ratio (x) = 0.37187 0.33753
# Poissons Ratio (y) = 0.37187 0.33753
# Poissons Ratio (z) = 0.46071 0.46071
#
# Static dielectric constant tensor:
#      x y z
#    x 1.473800 0.000000 0.000000 
#    y 0.000000 1.473800 0.000000 
#    z 0.000000 0.000000 1.492830 
# 
# From -- ./inp_files/9607.got.cif
#   From: 2010.05.17/outbox.cif.g08.bks.cpg/sg191_5_cif.got.tgz:9607.got - 2010.05.20 12:20:32.
