data_PCOD9587947
_publ_section_title
;
Structure prediction by ZEFSAII (Michael W. Deem and Ramdas Pophale) SiO2 
 PCOD9587947
Probable space group: P 6/M M M
;
_chemical_formula_sum "Si O2"
_cell_formula_units_Z 120
_cell_length_a 28.341748
_cell_length_b 28.341748
_cell_length_c 11.508140
_cell_angle_alpha 90.000000
_cell_angle_beta 90.000000
_cell_angle_gamma 120.000000
_cell_volume 8005.510522
_symmetry_space_group_name_H-M "P 6/M M M"
_symmetry_group_IT_number 191
_symmetry_cell_setting 'hexagonal'
loop_
_space_group_symop_operation_xyz
x,y,z
x-y,x,z
-y,x-y,z
-x,-y,z
-x+y,-x,z
y,-x+y,z
x-y,-y,-z
-x,-x+y,-z
y,x,-z
-y,-x,-z
-x+y,y,-z
x,x-y,-z
-x,-y,-z
-x+y,-x,-z
y,-x+y,-z
x,y,-z
x-y,x,-z
-y,x-y,-z
-x+y,y,z
x,x-y,z
-y,-x,z
y,x,z
x-y,-y,z
-x,-x+y,z
loop_
_atom_site_type_symbol
_atom_site_label
_atom_site_fract_x
_atom_site_fract_y
_atom_site_fract_z
Si Si1 0.503229 0.895814 0.757130
Si Si2 0.066342 0.630966 0.000000
Si Si3 0.401594 0.000000 0.637239
Si Si4 0.130578 0.762124 0.000000
Si Si5 0.171894 0.453711 0.637915
Si Si6 0.292655 0.000000 0.639183
Si Si7 0.668589 0.887156 0.259898
O O1 0.442656 0.885311 0.748996
O O2 0.544543 0.946757 0.678515
O O3 0.509574 0.845708 0.710783
O O4 0.527195 0.915267 0.885874
O O5 0.102257 0.696809 0.000000
O O6 0.000000 0.605305 0.000000
O O7 0.347494 0.000000 0.682542
O O8 0.398426 0.000000 0.500000
O O9 0.111632 0.776035 0.879518
O O10 0.197114 0.802887 0.000000
O O11 0.160556 0.453707 0.500000
O O12 0.234587 0.469174 0.651183
O O13 0.136345 0.392399 0.687962
O O14 0.295487 0.053936 0.687102
O O15 0.293104 0.000000 0.500000
O O16 0.685804 0.842902 0.291726
#
# Coordination Sequence:
#
# PCOD9587947 Si02
#       7
#    24  12  12  12  24  12  24
#     4  12  24  36  51  72 100 133 169 206 253 312
#     4  12  23  36  52  71 104 144 171 205 257 303
#     4  11  21  33  47  70 100 131 166 205 250 305
#     4  10  20  33  53  76  96 125 168 213 254 296
#     4  10  20  35  54  74  96 122 156 203 256 307
#     4  11  20  32  51  73 102 139 172 205 251 301
#     4  10  20  33  50  75 102 130 169 210 245 293
#
# _framework density 14.989675
#
# number of rings (size 3 to 8) (size 9 to 14) (size 15 to 20)
#    0.000    1.200    5.000    1.800    1.400    3.600 
#    0.000    0.000    0.000    0.400    0.000    0.000 
#    0.000    0.000    0.000    0.300    0.000    1.300 
#
# Total GULP energy -669652.977232 kJ/mol
# GULP energy per Si atom -5580.441477 kJ/mol
# Density = 1.495556 g / cm^3
# Si number density = 14.989675 Si / 1000 Ang^3
#
#
#
# Elastic Constant Matrix: (Units=GPa)
#
#
# Indices 1 2 3 4 5 6 
#
# 1 100.2822 61.2088 42.6250 0.0000 0.0000 0.0000
# 2 61.2088 100.2822 42.6250 0.0000 0.0000 0.0000
# 3 42.6250 42.6250 93.0298 0.0000 0.0000 0.0000
# 4 0.0000 0.0000 0.0000 139.5768 0.0000 0.0000
# 5 0.0000 0.0000 0.0000 0.0000 139.5768 0.0000
# 6 0.0000 0.0000 0.0000 0.0000 0.0000 19.5367
#
#
#
# Elastic Compliance Matrix: (Units=1/GPa)
#
#
# Indices 1 2 3 4 5 6 
#
# 1 0.016880 -0.008712 -0.003742 0.000000 0.000000 0.000000
# 2 -0.008712 0.016880 -0.003742 0.000000 0.000000 0.000000
# 3 -0.003742 -0.003742 0.014179 0.000000 0.000000 0.000000
# 4 0.000000 0.000000 0.000000 0.007165 0.000000 0.000000
# 5 0.000000 0.000000 0.000000 0.000000 0.007165 0.000000
# 6 0.000000 0.000000 0.000000 0.000000 0.000000 0.051186
#
#
# Mechanical properties :
#
#
# Convention : Reuss Voigt Hill
#
# Bulk Modulus (GPa) = 64.33018 65.16800 64.74909
# Shear Modulus (GPa) = 33.10592 69.54709 51.32650
#
# Velocity S-wave (km/s) = 4.70465 6.81890 5.85795
# Velocity P-wave (km/s) = 8.51594 10.27454 9.43630
#
# Compressibility (1/GPa) = 0.01554480
#
# Stress axis : x y z
#
# Youngs Moduli (GPa) = 59.24040 59.24040 70.52834
#
# Poissons Ratio (x) = 0.51613 0.26395
# Poissons Ratio (y) = 0.51613 0.26395
# Poissons Ratio (z) = 0.22170 0.22170
#
# Static dielectric constant tensor:
#      x y z
#    x 1.493280 0.000000 0.000000 
#    y 0.000000 1.493280 0.000000 
#    z 0.000000 0.000000 1.517560 
# 
# From -- ./inp_files/3287.got.cif
#   From: 2010.05.17/outbox.cif.g08.bks.cpg/sg191_2_cif.got.tgz:3287.got - 2010.05.20 12:20:32.
