data_PCOD9587384
_publ_section_title
;
Structure prediction by ZEFSAII (Michael W. Deem and Ramdas Pophale) SiO2 
 PCOD9587384
Probable space group: P 6/M M M
;
_chemical_formula_sum "Si O2"
_cell_formula_units_Z 132
_cell_length_a 18.278581
_cell_length_b 18.278581
_cell_length_c 27.913050
_cell_angle_alpha 90.000000
_cell_angle_beta 90.000000
_cell_angle_gamma 120.000000
_cell_volume 8076.494106
_symmetry_space_group_name_H-M "P 6/M M M"
_symmetry_group_IT_number 191
_symmetry_cell_setting 'hexagonal'
loop_
_space_group_symop_operation_xyz
x,y,z
x-y,x,z
-y,x-y,z
-x,-y,z
-x+y,-x,z
y,-x+y,z
x-y,-y,-z
-x,-x+y,-z
y,x,-z
-y,-x,-z
-x+y,y,-z
x,x-y,-z
-x,-y,-z
-x+y,-x,-z
y,-x+y,-z
x,y,-z
x-y,x,-z
-y,x-y,-z
-x+y,y,z
x,x-y,z
-y,-x,z
y,x,z
x-y,-y,z
-x,-x+y,z
loop_
_atom_site_type_symbol
_atom_site_label
_atom_site_fract_x
_atom_site_fract_y
_atom_site_fract_z
Si Si1 0.340212 0.340212 0.557444
Si Si2 0.638132 0.733582 0.000000
Si Si3 0.539619 0.637724 0.709177
Si Si4 0.834308 0.503382 0.082895
Si Si5 0.000000 0.830360 0.558299
Si Si6 0.493629 0.163167 0.605423
Si Si7 0.460899 0.362131 0.186018
O O1 0.342534 0.342534 0.500000
O O2 0.254743 0.254743 0.572632
O O3 0.338802 0.421849 0.577233
O O4 0.578171 0.690227 0.954027
O O5 0.713584 0.713584 0.000000
O O6 0.662990 0.831495 0.000000
O O7 0.451225 0.548776 0.710498
O O8 0.611512 0.611512 0.703903
O O9 0.533555 0.681649 0.661443
O O10 0.548938 0.678592 0.761529
O O11 0.736598 0.473195 0.073018
O O12 0.851377 0.425689 0.077431
O O13 0.854924 0.536998 0.137392
O O14 0.915034 0.830068 0.573833
O O15 0.000000 0.831378 0.500000
O O16 0.583154 0.166308 0.601153
O O17 0.500182 0.250091 0.589009
O O18 0.551462 0.448539 0.186904
O O19 0.391647 0.391647 0.182292
#
# Coordination Sequence:
#
# PCOD9587384 Si02
#       7
#    12  12  24  24  12  24  24
#     4  11  23  39  57  75  99 135 171 198 237 299
#     4  10  21  35  51  70  93 123 160 202 251 303
#     4   8  14  28  48  68  91 123 162 204 251 299
#     4  10  19  29  42  64  97 138 179 215 246 278
#     4   9  17  31  53  81 109 133 159 195 238 283
#     4  11  22  36  54  76 101 130 167 211 256 299
#     4   8  14  25  43  64  87 120 165 211 251 290
#
# _framework density 16.343724999999999
#
# number of rings (size 3 to 8) (size 9 to 14) (size 15 to 20)
#    0.000    2.545    0.909    3.182    0.000    4.364 
#    0.000    0.909    0.000    3.364    0.000    0.000 
#    0.000    0.000    0.000    0.000    0.000    0.000 
#
# Total GULP energy -735324.043206 kJ/mol
# GULP energy per Si atom -5570.636691 kJ/mol
# Density = 1.630653 g / cm^3
# Si number density = 16.343725 Si / 1000 Ang^3
#
#
#
# Elastic Constant Matrix: (Units=GPa)
#
#
# Indices 1 2 3 4 5 6 
#
# 1 97.9293 60.2256 38.9619 0.0000 0.0000 0.0000
# 2 60.2256 97.9293 38.9619 0.0000 0.0000 0.0000
# 3 38.9619 38.9619 80.0349 0.0000 0.0000 0.0000
# 4 0.0000 0.0000 0.0000 13.7490 0.0000 0.0000
# 5 0.0000 0.0000 0.0000 0.0000 13.7490 0.0000
# 6 0.0000 0.0000 0.0000 0.0000 0.0000 18.8518
#
#
#
# Elastic Compliance Matrix: (Units=1/GPa)
#
#
# Indices 1 2 3 4 5 6 
#
# 1 0.017420 -0.009102 -0.004049 0.000000 0.000000 0.000000
# 2 -0.009102 0.017420 -0.004049 0.000000 0.000000 0.000000
# 3 -0.004049 -0.004049 0.016437 0.000000 0.000000 0.000000
# 4 0.000000 0.000000 0.000000 0.072732 0.000000 0.000000
# 5 0.000000 0.000000 0.000000 0.000000 0.072732 0.000000
# 6 0.000000 0.000000 0.000000 0.000000 0.000000 0.053045
#
#
# Mechanical properties :
#
#
# Convention : Reuss Voigt Hill
#
# Bulk Modulus (GPa) = 59.25622 61.35471 60.30546
# Shear Modulus (GPa) = 17.25239 18.45292 17.85266
#
# Velocity S-wave (km/s) = 3.25252 3.36378 3.30862
# Velocity P-wave (km/s) = 7.10212 7.26006 7.18152
#
# Compressibility (1/GPa) = 0.01687587
#
# Stress axis : x y z
#
# Youngs Moduli (GPa) = 57.40422 57.40422 60.83813
#
# Poissons Ratio (x) = 0.52251 0.24635
# Poissons Ratio (y) = 0.52251 0.24635
# Poissons Ratio (z) = 0.23245 0.23245
#
# Static dielectric constant tensor:
#      x y z
#    x 1.536780 0.000000 0.000000 
#    y 0.000000 1.536780 0.000000 
#    z 0.000000 0.000000 1.584630 
# 
# From -- ./inp_files/9867.got.cif
#   From: 2010.05.17/outbox.cif.g08.bks.cpg/sg191_5_cif.got.tgz:9867.got - 2010.05.20 12:20:32.
