data_PCOD9587835
_publ_section_title
;
Structure prediction by ZEFSAII (Michael W. Deem and Ramdas Pophale) SiO2 
 PCOD9587835
Probable space group: P 6/M M M
;
_chemical_formula_sum "Si O2"
_cell_formula_units_Z 132
_cell_length_a 27.667277
_cell_length_b 27.667277
_cell_length_c 13.035996
_cell_angle_alpha 90.000000
_cell_angle_beta 90.000000
_cell_angle_gamma 120.000000
_cell_volume 8641.869158
_symmetry_space_group_name_H-M "P 6/M M M"
_symmetry_group_IT_number 191
_symmetry_cell_setting 'hexagonal'
loop_
_space_group_symop_operation_xyz
x,y,z
x-y,x,z
-y,x-y,z
-x,-y,z
-x+y,-x,z
y,-x+y,z
x-y,-y,-z
-x,-x+y,-z
y,x,-z
-y,-x,-z
-x+y,y,-z
x,x-y,-z
-x,-y,-z
-x+y,-x,-z
y,-x+y,-z
x,y,-z
x-y,x,-z
-y,x-y,-z
-x+y,y,z
x,x-y,z
-y,-x,z
y,x,z
x-y,-y,z
-x,-x+y,z
loop_
_atom_site_type_symbol
_atom_site_label
_atom_site_fract_x
_atom_site_fract_y
_atom_site_fract_z
Si Si1 0.757677 0.242324 0.376053
Si Si2 0.932334 0.410086 0.000000
Si Si3 0.320813 0.257254 0.268640
Si Si4 0.934071 0.369206 0.220573
Si Si5 0.153897 0.633682 0.378750
Si Si6 0.231609 0.170377 0.122732
Si Si7 0.822116 0.177885 0.622075
O O1 0.757988 0.242013 0.500000
O O2 0.793470 0.307010 0.346439
O O3 0.789849 0.210152 0.341073
O O4 0.915570 0.375893 0.893758
O O5 0.914490 0.457245 0.000000
O O6 0.000000 0.443280 0.000000
O O7 0.284681 0.284681 0.311517
O O8 0.380643 0.308815 0.237741
O O9 0.287119 0.220997 0.170395
O O10 0.328349 0.214001 0.339234
O O11 0.897747 0.377441 0.307113
O O12 0.000000 0.414082 0.230877
O O13 0.142023 0.637605 0.500000
O O14 0.165711 0.582856 0.368851
O O15 0.223861 0.111930 0.159374
O O16 0.181736 0.181736 0.151504
O O17 0.235796 0.171965 0.000000
O O18 0.822131 0.177870 0.500000
#
# Coordination Sequence:
#
# PCOD9587835 Si02
#       7
#    12  12  24  24  24  24  12
#     4   9  18  34  50  68  94 124 154 193 244 296
#     4   9  18  32  48  67  96 134 167 195 237 286
#     4  10  20  32  48  73 100 129 167 206 245 292
#     4  10  20  32  49  73 101 130 162 200 239 287
#     4  10  20  34  52  72  94 123 159 200 245 290
#     4   9  17  29  47  70  97 128 161 200 246 293
#     4  11  20  34  53  69  97 137 167 201 250 300
#
# _framework density 15.274473
#
# number of rings (size 3 to 8) (size 9 to 14) (size 15 to 20)
#    0.000    2.273    2.727    0.545    1.273    1.818 
#    0.545    2.727    0.000    1.818    0.000    1.273 
#    0.000    0.000    0.000    0.000    0.000    8.273 
#
# Total GULP energy -735043.735948 kJ/mol
# GULP energy per Si atom -5568.513151 kJ/mol
# Density = 1.523971 g / cm^3
# Si number density = 15.274473 Si / 1000 Ang^3
#
#
#
# Elastic Constant Matrix: (Units=GPa)
#
#
# Indices 1 2 3 4 5 6 
#
# 1 94.1661 60.2798 43.4225 0.0000 0.0000 0.0000
# 2 60.2798 94.1661 43.4225 0.0000 0.0000 0.0000
# 3 43.4225 43.4225 66.3401 0.0000 0.0000 0.0000
# 4 0.0000 0.0000 0.0000 19.3178 0.0000 0.0000
# 5 0.0000 0.0000 0.0000 0.0000 19.3178 0.0000
# 6 0.0000 0.0000 0.0000 0.0000 0.0000 16.9432
#
#
#
# Elastic Compliance Matrix: (Units=1/GPa)
#
#
# Indices 1 2 3 4 5 6 
#
# 1 0.019878 -0.009632 -0.006706 0.000000 0.000000 0.000000
# 2 -0.009632 0.019878 -0.006706 0.000000 0.000000 0.000000
# 3 -0.006706 -0.006706 0.023853 0.000000 0.000000 0.000000
# 4 0.000000 0.000000 0.000000 0.051766 0.000000 0.000000
# 5 0.000000 0.000000 0.000000 0.000000 0.051766 0.000000
# 6 0.000000 0.000000 0.000000 0.000000 0.000000 0.059021
#
#
# Mechanical properties :
#
#
# Convention : Reuss Voigt Hill
#
# Bulk Modulus (GPa) = 57.07998 60.99131 59.03564
# Shear Modulus (GPa) = 17.97975 18.28560 18.13268
#
# Velocity S-wave (km/s) = 3.43463 3.46372 3.44920
# Velocity P-wave (km/s) = 7.29243 7.48421 7.38894
#
# Compressibility (1/GPa) = 0.01751928
#
# Stress axis : x y z
#
# Youngs Moduli (GPa) = 50.30674 50.30674 41.92365
#
# Poissons Ratio (x) = 0.48457 0.28115
# Poissons Ratio (y) = 0.48457 0.28115
# Poissons Ratio (z) = 0.33737 0.33737
#
# Static dielectric constant tensor:
#      x y z
#    x 1.512190 0.000000 0.000000 
#    y 0.000000 1.512190 0.000000 
#    z 0.000000 0.000000 1.494540 
# 
# From -- ./inp_files/4994.got.cif
#   From: 2010.05.17/outbox.cif.g08.bks.cpg/sg191_3_cif.got.tgz:4994.got - 2010.05.20 12:20:32.
