data_PCOD9587369
_publ_section_title
;
Structure prediction by ZEFSAII (Michael W. Deem and Ramdas Pophale) SiO2 
 PCOD9587369
Probable space group: P 6/M M M
;
_chemical_formula_sum "Si O2"
_cell_formula_units_Z 132
_cell_length_a 18.994365
_cell_length_b 18.994365
_cell_length_c 27.906122
_cell_angle_alpha 90.000000
_cell_angle_beta 90.000000
_cell_angle_gamma 120.000000
_cell_volume 8719.261017
_symmetry_space_group_name_H-M "P 6/M M M"
_symmetry_group_IT_number 191
_symmetry_cell_setting 'hexagonal'
loop_
_space_group_symop_operation_xyz
x,y,z
x-y,x,z
-y,x-y,z
-x,-y,z
-x+y,-x,z
y,-x+y,z
x-y,-y,-z
-x,-x+y,-z
y,x,-z
-y,-x,-z
-x+y,y,-z
x,x-y,-z
-x,-y,-z
-x+y,-x,-z
y,-x+y,-z
x,y,-z
x-y,x,-z
-y,x-y,-z
-x+y,y,z
x,x-y,z
-y,-x,z
y,x,z
x-y,-y,z
-x,-x+y,z
loop_
_atom_site_type_symbol
_atom_site_label
_atom_site_fract_x
_atom_site_fract_y
_atom_site_fract_z
Si Si1 0.092465 0.746240 0.332362
Si Si2 0.092247 0.345832 0.782165
Si Si3 0.367363 0.461942 0.052744
Si Si4 0.332046 0.500864 0.602040
Si Si5 0.461252 0.368315 0.500000
Si Si6 0.501736 0.331625 0.153506
O O1 0.161379 0.838622 0.344373
O O2 0.096128 0.736628 0.275084
O O3 0.118141 0.688336 0.360027
O O4 0.000000 0.719938 0.344672
O O5 0.161414 0.322828 0.794219
O O6 0.117243 0.429129 0.809938
O O7 0.000000 0.279143 0.794326
O O8 0.452005 0.547995 0.051735
O O9 0.393944 0.393944 0.058329
O O10 0.322344 0.467017 0.099541
O O11 0.328991 0.452207 0.000000
O O12 0.262683 0.525365 0.606939
O O13 0.420961 0.579040 0.608145
O O14 0.326229 0.464630 0.548869
O O15 0.389001 0.389001 0.500000
O O16 0.545119 0.454882 0.500000
O O17 0.527488 0.263744 0.161121
O O18 0.578553 0.421448 0.159006
#
# Coordination Sequence:
#
# PCOD9587369 Si02
#       6
#    24  24  24  24  12  24
#     4   9  18  32  49  68  89 113 141 175 216 261
#     4   9  18  32  49  68  88 111 140 174 215 262
#     4   8  14  25  40  56  74 100 138 183 226 263
#     4  10  19  30  44  63  89 121 155 188 221 257
#     4   9  17  28  42  60  82 111 149 191 229 262
#     4  10  19  29  41  59  85 117 152 187 219 250
#
# _framework density 15.138897999999999
#
# number of rings (size 3 to 8) (size 9 to 14) (size 15 to 20)
#    0.000    2.818    0.000    2.273    0.000    3.273 
#    0.000    2.727    0.000    3.636    0.000    2.545 
#    0.000    0.000    0.000    0.000    0.000   18.909 
#
# Total GULP energy -734921.762691 kJ/mol
# GULP energy per Si atom -5567.589111 kJ/mol
# Density = 1.510444 g / cm^3
# Si number density = 15.138898 Si / 1000 Ang^3
#
#
#
# Elastic Constant Matrix: (Units=GPa)
#
#
# Indices 1 2 3 4 5 6 
#
# 1 80.9112 61.5549 38.3771 0.0000 0.0000 0.0000
# 2 61.5549 80.9112 38.3771 0.0000 0.0000 0.0000
# 3 38.3771 38.3771 43.1999 0.0000 0.0000 0.0000
# 4 0.0000 0.0000 0.0000 20.1495 0.0000 0.0000
# 5 0.0000 0.0000 0.0000 0.0000 20.1495 0.0000
# 6 0.0000 0.0000 0.0000 0.0000 0.0000 9.6782
#
#
#
# Elastic Compliance Matrix: (Units=1/GPa)
#
#
# Indices 1 2 3 4 5 6 
#
# 1 0.032563 -0.019100 -0.011960 0.000000 0.000000 0.000000
# 2 -0.019100 0.032563 -0.011960 0.000000 0.000000 0.000000
# 3 -0.011960 -0.011960 0.044397 0.000000 0.000000 0.000000
# 4 0.000000 0.000000 0.000000 0.049629 0.000000 0.000000
# 5 0.000000 0.000000 0.000000 0.000000 0.049629 0.000000
# 6 0.000000 0.000000 0.000000 0.000000 0.000000 0.103325
#
#
# Mechanical properties :
#
#
# Convention : Reuss Voigt Hill
#
# Bulk Modulus (GPa) = 42.58255 53.51559 48.04907
# Shear Modulus (GPa) = 12.31612 14.44297 13.37955
#
# Velocity S-wave (km/s) = 2.85536 3.09209 2.97608
# Velocity P-wave (km/s) = 6.24978 6.94078 6.60433
#
# Compressibility (1/GPa) = 0.02348380
#
# Stress axis : x y z
#
# Youngs Moduli (GPa) = 30.71009 30.71009 22.52407
#
# Poissons Ratio (x) = 0.58657 0.26938
# Poissons Ratio (y) = 0.58657 0.26938
# Poissons Ratio (z) = 0.36728 0.36728
#
# Static dielectric constant tensor:
#      x y z
#    x 1.496360 0.000000 0.000000 
#    y 0.000000 1.496360 0.000000 
#    z 0.000000 0.000000 1.513520 
# 
# From -- ./inp_files/10555.got.cif
#   From: 2010.05.17/outbox.cif.g08.bks.cpg/sg191_6_cif.got.tgz:10555.got - 2010.05.20 12:20:32.
