data_PCOD9587411
_publ_section_title
;
Structure prediction by ZEFSAII (Michael W. Deem and Ramdas Pophale) SiO2 
 PCOD9587411
Probable space group: P 6/M M M
;
_chemical_formula_sum "Si O2"
_cell_formula_units_Z 144
_cell_length_a 21.718719
_cell_length_b 21.718719
_cell_length_c 23.971598
_cell_angle_alpha 90.000000
_cell_angle_beta 90.000000
_cell_angle_gamma 120.000000
_cell_volume 9792.555249
_symmetry_space_group_name_H-M "P 6/M M M"
_symmetry_group_IT_number 191
_symmetry_cell_setting 'hexagonal'
loop_
_space_group_symop_operation_xyz
x,y,z
x-y,x,z
-y,x-y,z
-x,-y,z
-x+y,-x,z
y,-x+y,z
x-y,-y,-z
-x,-x+y,-z
y,x,-z
-y,-x,-z
-x+y,y,-z
x,x-y,-z
-x,-y,-z
-x+y,-x,-z
y,-x+y,-z
x,y,-z
x-y,x,-z
-y,x-y,-z
-x+y,y,z
x,x-y,z
-y,-x,z
y,x,z
x-y,-y,z
-x,-x+y,z
loop_
_atom_site_type_symbol
_atom_site_label
_atom_site_fract_x
_atom_site_fract_y
_atom_site_fract_z
Si Si1 0.812511 0.334044 0.000000
Si Si2 0.081382 0.469133 0.896885
Si Si3 0.527894 0.333349 0.298014
Si Si4 0.137495 0.416176 0.798456
Si Si5 0.576746 0.660719 0.379918
Si Si6 0.306162 0.081539 0.697800
Si Si7 0.614730 0.086177 0.500000
O O1 0.862085 0.348834 0.945953
O O2 0.743187 0.256814 0.000000
O O3 0.791197 0.395599 0.000000
O O4 0.090058 0.545029 0.877750
O O5 0.094954 0.427272 0.847695
O O6 0.000000 0.422857 0.917108
O O7 0.517340 0.258670 0.319031
O O8 0.609377 0.390624 0.291498
O O9 0.486615 0.317228 0.239772
O O10 0.490103 0.360456 0.340578
O O11 0.204462 0.408924 0.818876
O O12 0.094040 0.352269 0.754487
O O13 0.604950 0.604950 0.375590
O O14 0.639785 0.733509 0.353335
O O15 0.553737 0.660507 0.443521
O O16 0.285085 0.142543 0.696263
O O17 0.243924 0.000000 0.695785
O O18 0.555150 0.110299 0.500000
O O19 0.569849 0.000000 0.500000
#
# Coordination Sequence:
#
# PCOD9587411 Si02
#       7
#    12  24  24  24  24  24  12
#     4  10  20  33  47  61  80 109 144 178 209 244
#     4  10  19  30  44  63  86 110 137 172 214 254
#     4  10  19  30  42  58  82 111 141 172 208 249
#     4   9  17  29  45  64  85 109 140 175 208 247
#     4   9  17  29  45  63  82 105 137 177 216 254
#     4   9  17  30  47  67  90 114 140 172 212 256
#     4   9  16  26  41  62  85 108 136 172 214 255
#
# _framework density 14.705049000000001
#
# number of rings (size 3 to 8) (size 9 to 14) (size 15 to 20)
#    0.000    2.583    0.000    4.000    0.000    2.667 
#    0.000    1.667    0.000    5.500    0.000    1.167 
#    0.000    0.000    0.000    0.000    0.000    9.833 
#
# Total GULP energy -802027.909451 kJ/mol
# GULP energy per Si atom -5569.638260 kJ/mol
# Density = 1.467158 g / cm^3
# Si number density = 14.705049 Si / 1000 Ang^3
#
#
#
# Elastic Constant Matrix: (Units=GPa)
#
#
# Indices 1 2 3 4 5 6 
#
# 1 79.7732 46.4963 36.1391 0.0000 0.0000 0.0000
# 2 46.4963 79.7732 36.1391 0.0000 0.0000 0.0000
# 3 36.1391 36.1391 57.8544 0.0000 0.0000 0.0000
# 4 0.0000 0.0000 0.0000 12.4748 0.0000 0.0000
# 5 0.0000 0.0000 0.0000 0.0000 12.4748 0.0000
# 6 0.0000 0.0000 0.0000 0.0000 0.0000 16.6384
#
#
#
# Elastic Compliance Matrix: (Units=1/GPa)
#
#
# Indices 1 2 3 4 5 6 
#
# 1 0.021189 -0.008862 -0.007700 0.000000 0.000000 0.000000
# 2 -0.008862 0.021189 -0.007700 0.000000 0.000000 0.000000
# 3 -0.007700 -0.007700 0.026905 0.000000 0.000000 0.000000
# 4 0.000000 0.000000 0.000000 0.080162 0.000000 0.000000
# 5 0.000000 0.000000 0.000000 0.000000 0.080162 0.000000
# 6 0.000000 0.000000 0.000000 0.000000 0.000000 0.060102
#
#
# Mechanical properties :
#
#
# Convention : Reuss Voigt Hill
#
# Bulk Modulus (GPa) = 48.17375 50.54998 49.36187
# Shear Modulus (GPa) = 14.48635 14.89269 14.68952
#
# Velocity S-wave (km/s) = 3.14208 3.18584 3.16404
# Velocity P-wave (km/s) = 6.78194 6.92700 6.85485
#
# Compressibility (1/GPa) = 0.02075819
#
# Stress axis : x y z
#
# Youngs Moduli (GPa) = 47.19397 47.19397 37.16796
#
# Poissons Ratio (x) = 0.41822 0.28621
# Poissons Ratio (y) = 0.41822 0.28621
# Poissons Ratio (z) = 0.36341 0.36341
#
# Static dielectric constant tensor:
#      x y z
#    x 1.482790 0.000000 0.000000 
#    y 0.000000 1.482790 0.000000 
#    z 0.000000 0.000000 1.486240 
# 
# From -- ./inp_files/7650.got.cif
#   From: 2010.05.17/outbox.cif.g08.bks.cpg/sg191_4_cif.got.tgz:7650.got - 2010.05.20 12:20:32.
