data_PCOD9587471
_publ_section_title
;
Structure prediction by ZEFSAII (Michael W. Deem and Ramdas Pophale) SiO2 
 PCOD9587471
Probable space group: P 6/M M M
;
_chemical_formula_sum "Si O2"
_cell_formula_units_Z 132
_cell_length_a 18.222934
_cell_length_b 18.222934
_cell_length_c 28.792719
_cell_angle_alpha 90.000000
_cell_angle_beta 90.000000
_cell_angle_gamma 120.000000
_cell_volume 8280.373275
_symmetry_space_group_name_H-M "P 6/M M M"
_symmetry_group_IT_number 191
_symmetry_cell_setting 'hexagonal'
loop_
_space_group_symop_operation_xyz
x,y,z
x-y,x,z
-y,x-y,z
-x,-y,z
-x+y,-x,z
y,-x+y,z
x-y,-y,-z
-x,-x+y,-z
y,x,-z
-y,-x,-z
-x+y,y,-z
x,x-y,-z
-x,-y,-z
-x+y,-x,-z
y,-x+y,-z
x,y,-z
x-y,x,-z
-y,x-y,-z
-x+y,y,z
x,x-y,z
-y,-x,z
y,x,z
x-y,-y,z
-x,-x+y,z
loop_
_atom_site_type_symbol
_atom_site_label
_atom_site_fract_x
_atom_site_fract_y
_atom_site_fract_z
Si Si1 0.164080 0.668441 0.238612
Si Si2 0.102135 0.634608 0.409305
Si Si3 0.358230 0.098083 0.947491
Si Si4 0.634746 0.532874 0.863757
Si Si5 0.897964 0.629732 0.500000
Si Si6 0.901102 0.634029 0.678992
O O1 0.147319 0.573660 0.245370
O O2 0.262250 0.737751 0.246483
O O3 0.140846 0.676161 0.185567
O O4 0.111422 0.691624 0.274332
O O5 0.136018 0.568009 0.409960
O O6 0.121793 0.691736 0.454978
O O7 0.124108 0.691614 0.363475
O O8 0.000000 0.577622 0.408754
O O9 0.320778 0.160389 0.944207
O O10 0.427520 0.123147 0.907494
O O11 0.289974 0.000000 0.941219
O O12 0.393626 0.107231 0.000000
O O13 0.563908 0.436093 0.872948
O O14 0.585354 0.585354 0.858649
O O15 0.832857 0.665713 0.500000
O O16 0.000000 0.697836 0.500000
O O17 0.833017 0.666035 0.679810
O O18 0.000000 0.704637 0.673688
#
# Coordination Sequence:
#
# PCOD9587471 Si02
#       6
#    24  24  24  24  12  24
#     4  10  19  30  45  66  93 123 153 185 221 262
#     4   9  17  30  49  71  93 119 152 188 227 273
#     4   9  17  29  45  64  86 113 146 184 224 265
#     4   9  17  28  43  64  88 115 148 183 218 259
#     4  10  19  31  49  72  97 127 164 204 243 283
#     4  10  20  33  50  71  94 122 156 193 231 272
#
# _framework density 15.941311000000001
#
# number of rings (size 3 to 8) (size 9 to 14) (size 15 to 20)
#    0.000    2.545    0.000    2.636    0.000    3.273 
#    0.000    1.818    0.000    7.000    0.000    1.273 
#    0.000    4.364    0.000    5.818    0.000    4.364 
#
# Total GULP energy -735146.877893 kJ/mol
# GULP energy per Si atom -5569.294529 kJ/mol
# Density = 1.590503 g / cm^3
# Si number density = 15.941311 Si / 1000 Ang^3
#
#
#
# Elastic Constant Matrix: (Units=GPa)
#
#
# Indices 1 2 3 4 5 6 
#
# 1 75.6865 44.0682 43.5685 0.0000 0.0000 0.0000
# 2 44.0682 75.6865 43.5685 0.0000 0.0000 0.0000
# 3 43.5685 43.5685 103.5525 0.0000 0.0000 0.0000
# 4 0.0000 0.0000 0.0000 15.8306 0.0000 0.0000
# 5 0.0000 0.0000 0.0000 0.0000 15.8306 0.0000
# 6 0.0000 0.0000 0.0000 0.0000 0.0000 15.8091
#
#
#
# Elastic Compliance Matrix: (Units=1/GPa)
#
#
# Indices 1 2 3 4 5 6 
#
# 1 0.021831 -0.009796 -0.005063 0.000000 0.000000 0.000000
# 2 -0.009796 0.021831 -0.005063 0.000000 0.000000 0.000000
# 3 -0.005063 -0.005063 0.013918 0.000000 0.000000 0.000000
# 4 0.000000 0.000000 0.000000 0.063169 0.000000 0.000000
# 5 0.000000 0.000000 0.000000 0.000000 0.063169 0.000000
# 6 0.000000 0.000000 0.000000 0.000000 0.000000 0.063255
#
#
# Mechanical properties :
#
#
# Convention : Reuss Voigt Hill
#
# Bulk Modulus (GPa) = 56.39106 57.48176 56.93641
# Shear Modulus (GPa) = 17.06893 17.74206 17.40550
#
# Velocity S-wave (km/s) = 3.27576 3.33973 3.30790
# Velocity P-wave (km/s) = 7.05397 7.14201 7.09813
#
# Compressibility (1/GPa) = 0.01773331
#
# Stress axis : x y z
#
# Youngs Moduli (GPa) = 45.80636 45.80636 71.85073
#
# Poissons Ratio (x) = 0.44873 0.36381
# Poissons Ratio (y) = 0.44873 0.36381
# Poissons Ratio (z) = 0.23194 0.23194
#
# Static dielectric constant tensor:
#      x y z
#    x 1.527740 0.000000 0.000000 
#    y 0.000000 1.527740 0.000000 
#    z 0.000000 0.000000 1.545510 
# 
# From -- ./inp_files/8695.got.cif
#   From: 2010.05.17/outbox.cif.g08.bks.cpg/sg191_5_cif.got.tgz:8695.got - 2010.05.20 12:20:32.
