data_PCOD9587576
_publ_section_title
;
Structure prediction by ZEFSAII (Michael W. Deem and Ramdas Pophale) SiO2 
 PCOD9587576
Probable space group: P 6/M M M
;
_chemical_formula_sum "Si O2"
_cell_formula_units_Z 108
_cell_length_a 17.794943
_cell_length_b 17.794943
_cell_length_c 27.657403
_cell_angle_alpha 90.000000
_cell_angle_beta 90.000000
_cell_angle_gamma 120.000000
_cell_volume 7584.644540
_symmetry_space_group_name_H-M "P 6/M M M"
_symmetry_group_IT_number 191
_symmetry_cell_setting 'hexagonal'
loop_
_space_group_symop_operation_xyz
x,y,z
x-y,x,z
-y,x-y,z
-x,-y,z
-x+y,-x,z
y,-x+y,z
x-y,-y,-z
-x,-x+y,-z
y,x,-z
-y,-x,-z
-x+y,y,-z
x,x-y,-z
-x,-y,-z
-x+y,-x,-z
y,-x+y,-z
x,y,-z
x-y,x,-z
-y,x-y,-z
-x+y,y,z
x,x-y,z
-y,-x,z
y,x,z
x-y,-y,z
-x,-x+y,z
loop_
_atom_site_type_symbol
_atom_site_label
_atom_site_fract_x
_atom_site_fract_y
_atom_site_fract_z
Si Si1 0.154835 0.667862 0.193091
Si Si2 0.104629 0.637192 0.000000
Si Si3 0.591518 0.591518 0.624892
Si Si4 0.373744 0.102032 0.903523
Si Si5 0.000000 0.590967 0.264690
Si Si6 0.845024 0.511963 0.555293
O O1 0.159710 0.579855 0.190316
O O2 0.249053 0.750947 0.202101
O O3 0.119412 0.684108 0.142785
O O4 0.085813 0.654897 0.234629
O O5 0.126023 0.693325 0.048413
O O6 0.140266 0.570133 0.000000
O O7 0.000000 0.579132 0.000000
O O8 0.500000 0.500000 0.625491
O O9 0.618079 0.618079 0.680131
O O10 0.571725 0.656131 0.594405
O O11 0.337836 0.168918 0.900109
O O12 0.302871 0.000000 0.905602
O O13 0.000000 0.500000 0.266301
O O14 0.876420 0.539387 0.500000
O O15 0.755159 0.510318 0.561203
O O16 0.830332 0.415166 0.560673
#
# Coordination Sequence:
#
# PCOD9587576 Si02
#       6
#    24  12  12  24  12  24
#     4  10  19  31  47  65  86 113 147 185 225 267
#     4   9  17  28  45  68  92 118 148 181 223 274
#     4   9  17  28  41  58  81 112 146 179 217 258
#     4  10  19  31  48  69  92 120 152 188 230 278
#     4   9  18  31  44  58  82 113 143 180 222 260
#     4   9  16  26  41  61  85 113 145 180 216 255
#
# _framework density 14.239297000000001
#
# number of rings (size 3 to 8) (size 9 to 14) (size 15 to 20)
#    0.000    2.556    1.111    1.778    0.000    4.000 
#    0.000    0.000    0.000    6.000    0.000    0.000 
#    0.000    2.667    0.000    0.333    0.000    7.667 
#
# Total GULP energy -601611.117773 kJ/mol
# GULP energy per Si atom -5570.473313 kJ/mol
# Density = 1.420689 g / cm^3
# Si number density = 14.239297 Si / 1000 Ang^3
#
#
#
# Elastic Constant Matrix: (Units=GPa)
#
#
# Indices 1 2 3 4 5 6 
#
# 1 78.9364 47.0587 51.2212 0.0000 0.0000 0.0000
# 2 47.0587 78.9364 51.2212 0.0000 0.0000 0.0000
# 3 51.2212 51.2212 138.2581 0.0000 0.0000 0.0000
# 4 0.0000 0.0000 0.0000 12.8582 0.0000 0.0000
# 5 0.0000 0.0000 0.0000 0.0000 12.8582 0.0000
# 6 0.0000 0.0000 0.0000 0.0000 0.0000 15.9389
#
#
#
# Elastic Compliance Matrix: (Units=1/GPa)
#
#
# Indices 1 2 3 4 5 6 
#
# 1 0.021364 -0.010006 -0.004208 0.000000 0.000000 0.000000
# 2 -0.010006 0.021364 -0.004208 0.000000 0.000000 0.000000
# 3 -0.004208 -0.004208 0.010351 0.000000 0.000000 0.000000
# 4 0.000000 0.000000 0.000000 0.077771 0.000000 0.000000
# 5 0.000000 0.000000 0.000000 0.000000 0.077771 0.000000
# 6 0.000000 0.000000 0.000000 0.000000 0.000000 0.062740
#
#
# Mechanical properties :
#
#
# Convention : Reuss Voigt Hill
#
# Bulk Modulus (GPa) = 61.59409 66.12592 63.86000
# Shear Modulus (GPa) = 15.94306 18.10639 17.02473
#
# Velocity S-wave (km/s) = 3.34975 3.56979 3.46152
# Velocity P-wave (km/s) = 7.63619 7.97064 7.80521
#
# Compressibility (1/GPa) = 0.01623532
#
# Stress axis : x y z
#
# Youngs Moduli (GPa) = 46.80776 46.80776 96.61185
#
# Poissons Ratio (x) = 0.46835 0.40653
# Poissons Ratio (y) = 0.46835 0.40653
# Poissons Ratio (z) = 0.19696 0.19696
#
# Static dielectric constant tensor:
#      x y z
#    x 1.453330 0.000000 0.000000 
#    y 0.000000 1.453330 0.000000 
#    z 0.000000 0.000000 1.479080 
# 
# From -- ./inp_files/8451.got.cif
#   From: 2010.05.17/outbox.cif.g08.bks.cpg/sg191_5_cif.got.tgz:8451.got - 2010.05.20 12:20:32.
