data_PCOD9587459
_publ_section_title
;
Structure prediction by ZEFSAII (Michael W. Deem and Ramdas Pophale) SiO2 
 PCOD9587459
Probable space group: P 6/M M M
;
_chemical_formula_sum "Si O2"
_cell_formula_units_Z 132
_cell_length_a 17.728879
_cell_length_b 17.728879
_cell_length_c 34.885564
_cell_angle_alpha 90.000000
_cell_angle_beta 90.000000
_cell_angle_gamma 120.000000
_cell_volume 9495.961218
_symmetry_space_group_name_H-M "P 6/M M M"
_symmetry_group_IT_number 191
_symmetry_cell_setting 'hexagonal'
loop_
_space_group_symop_operation_xyz
x,y,z
x-y,x,z
-y,x-y,z
-x,-y,z
-x+y,-x,z
y,-x+y,z
x-y,-y,-z
-x,-x+y,-z
y,x,-z
-y,-x,-z
-x+y,y,-z
x,x-y,-z
-x,-y,-z
-x+y,-x,-z
y,-x+y,-z
x,y,-z
x-y,x,-z
-y,x-y,-z
-x+y,y,z
x,x-y,z
-y,-x,z
y,x,z
x-y,-y,z
-x,-x+y,z
loop_
_atom_site_type_symbol
_atom_site_label
_atom_site_fract_x
_atom_site_fract_y
_atom_site_fract_z
Si Si1 0.000000 0.591350 0.186994
Si Si2 0.591867 0.591867 0.099456
Si Si3 0.513458 0.667919 0.600736
Si Si4 0.845729 0.333039 0.956296
Si Si5 0.274985 0.899400 0.321649
Si Si6 0.000000 0.591396 0.543647
Si Si7 0.667928 0.513464 0.755965
O O1 0.914213 0.569711 0.210982
O O2 0.000000 0.500000 0.185714
O O3 0.000000 0.618511 0.143246
O O4 0.500000 0.500000 0.099958
O O5 0.572162 0.656662 0.075159
O O6 0.501717 0.750859 0.593590
O O7 0.420386 0.579615 0.602918
O O8 0.564475 0.684066 0.640803
O O9 0.569643 0.655421 0.567678
O O10 0.831305 0.415653 0.952232
O O11 0.755268 0.244732 0.951900
O O12 0.878024 0.337051 0.000000
O O13 0.172422 0.827579 0.321647
O O14 0.315949 0.880395 0.284108
O O15 0.301010 0.000000 0.321644
O O16 0.000000 0.500000 0.542316
O O17 0.000000 0.619309 0.500000
O O18 0.750838 0.501677 0.763107
O O19 0.579591 0.420410 0.753810
#
# Coordination Sequence:
#
# PCOD9587459 Si02
#       7
#    12  12  24  24  24  12  24
#     4   9  18  30  42  56  80 114 146 178 215 253
#     4   9  17  28  40  56  79 109 143 177 215 255
#     4  10  19  30  46  67  92 120 152 188 228 271
#     4   9  16  26  41  60  81 106 138 177 219 261
#     4  10  19  31  49  71  93 118 146 182 225 268
#     4   9  18  31  45  61  85 119 153 186 226 266
#     4  10  19  30  45  64  88 116 148 182 218 257
#
# _framework density 13.900646999999999
#
# number of rings (size 3 to 8) (size 9 to 14) (size 15 to 20)
#    0.000    2.455    1.818    1.364    0.000    3.636 
#    0.000    1.818    0.000    3.455    0.000    0.000 
#    0.000    0.000    0.000    0.273    0.000   14.545 
#
# Total GULP energy -735457.143917 kJ/mol
# GULP energy per Si atom -5571.645030 kJ/mol
# Density = 1.386901 g / cm^3
# Si number density = 13.900647 Si / 1000 Ang^3
#
#
#
# Elastic Constant Matrix: (Units=GPa)
#
#
# Indices 1 2 3 4 5 6 
#
# 1 84.2723 52.7246 54.2677 0.0000 0.0000 0.0000
# 2 52.7246 84.2723 54.2677 0.0000 0.0000 0.0000
# 3 54.2677 54.2677 135.0919 0.0000 0.0000 0.0000
# 4 0.0000 0.0000 0.0000 12.4539 0.0000 0.0000
# 5 0.0000 0.0000 0.0000 0.0000 12.4539 0.0000
# 6 0.0000 0.0000 0.0000 0.0000 0.0000 15.7739
#
#
#
# Elastic Compliance Matrix: (Units=1/GPa)
#
#
# Indices 1 2 3 4 5 6 
#
# 1 0.021202 -0.010496 -0.004301 0.000000 0.000000 0.000000
# 2 -0.010496 0.021202 -0.004301 0.000000 0.000000 0.000000
# 3 -0.004301 -0.004301 0.010858 0.000000 0.000000 0.000000
# 4 0.000000 0.000000 0.000000 0.080296 0.000000 0.000000
# 5 0.000000 0.000000 0.000000 0.000000 0.080296 0.000000
# 6 0.000000 0.000000 0.000000 0.000000 0.000000 0.063396
#
#
# Mechanical properties :
#
#
# Convention : Reuss Voigt Hill
#
# Bulk Modulus (GPa) = 66.36794 69.57294 67.97044
# Shear Modulus (GPa) = 15.60214 17.62811 16.61512
#
# Velocity S-wave (km/s) = 3.35386 3.56497 3.46103
# Velocity P-wave (km/s) = 7.92755 8.19171 8.06071
#
# Compressibility (1/GPa) = 0.01506752
#
# Stress axis : x y z
#
# Youngs Moduli (GPa) = 47.16429 47.16429 92.09848
#
# Poissons Ratio (x) = 0.49501 0.39612
# Poissons Ratio (y) = 0.49501 0.39612
# Poissons Ratio (z) = 0.20286 0.20286
#
# Static dielectric constant tensor:
#      x y z
#    x 1.437110 0.000000 0.000000 
#    y 0.000000 1.437110 0.000000 
#    z 0.000000 0.000000 1.465370 
# 
# From -- ./inp_files/10587.got.cif
#   From: 2010.05.17/outbox.cif.g08.bks.cpg/sg191_6_cif.got.tgz:10587.got - 2010.05.20 12:20:32.
