data_PCOD9587469
_publ_section_title
;
Structure prediction by ZEFSAII (Michael W. Deem and Ramdas Pophale) SiO2 
 PCOD9587469
Probable space group: P 6/M M M
;
_chemical_formula_sum "Si O2"
_cell_formula_units_Z 132
_cell_length_a 18.135974
_cell_length_b 18.135974
_cell_length_c 29.104704
_cell_angle_alpha 90.000000
_cell_angle_beta 90.000000
_cell_angle_gamma 120.000000
_cell_volume 8290.401954
_symmetry_space_group_name_H-M "P 6/M M M"
_symmetry_group_IT_number 191
_symmetry_cell_setting 'hexagonal'
loop_
_space_group_symop_operation_xyz
x,y,z
x-y,x,z
-y,x-y,z
-x,-y,z
-x+y,-x,z
y,-x+y,z
x-y,-y,-z
-x,-x+y,-z
y,x,-z
-y,-x,-z
-x+y,y,-z
x,x-y,-z
-x,-y,-z
-x+y,-x,-z
y,-x+y,-z
x,y,-z
x-y,x,-z
-y,x-y,-z
-x+y,y,z
x,x-y,z
-y,-x,z
y,x,z
x-y,-y,z
-x,-x+y,z
loop_
_atom_site_type_symbol
_atom_site_label
_atom_site_fract_x
_atom_site_fract_y
_atom_site_fract_z
Si Si1 0.362859 0.904268 0.647539
Si Si2 0.097188 0.730757 0.173951
Si Si3 0.833787 0.503021 0.745487
Si Si4 0.667622 0.159556 0.088076
Si Si5 0.507333 0.668663 0.549769
Si Si6 0.901279 0.271769 0.000000
O O1 0.451461 0.902921 0.644219
O O2 0.318419 0.849222 0.692231
O O3 0.321544 0.877418 0.597264
O O4 0.387022 0.000000 0.657288
O O5 0.169787 0.830214 0.171507
O O6 0.111287 0.693136 0.221250
O O7 0.118741 0.683871 0.133295
O O8 0.000000 0.707844 0.169899
O O9 0.735696 0.471391 0.756986
O O10 0.853934 0.426967 0.751815
O O11 0.574660 0.149320 0.086921
O O12 0.740798 0.259203 0.087753
O O13 0.686692 0.117261 0.044395
O O14 0.551181 0.678340 0.500000
O O15 0.479281 0.739641 0.550917
O O16 0.424376 0.575625 0.549827
O O17 0.828723 0.171278 0.000000
O O18 0.000000 0.296664 0.000000
#
# Coordination Sequence:
#
# PCOD9587469 Si02
#       6
#    24  24  24  24  24  12
#     4   9  17  27  38  53  74 102 136 173 211 251
#     4  10  21  35  51  71  94 122 154 190 232 274
#     4  10  19  30  45  65  90 119 150 183 219 261
#     4  10  20  33  50  73 102 134 165 195 228 269
#     4   9  16  25  37  52  70  93 123 162 209 259
#     4  10  21  35  51  72  97 127 162 202 247 289
#
# _framework density 15.922026000000001
#
# number of rings (size 3 to 8) (size 9 to 14) (size 15 to 20)
#    0.000    2.364    0.000    3.000    0.000    4.727 
#    0.000    6.364    0.000    0.273    0.000    0.000 
#    0.000    4.364    0.000    0.000    0.000    0.364 
#
# Total GULP energy -735265.462578 kJ/mol
# GULP energy per Si atom -5570.192898 kJ/mol
# Density = 1.588579 g / cm^3
# Si number density = 15.922026 Si / 1000 Ang^3
#
#
#
# Elastic Constant Matrix: (Units=GPa)
#
#
# Indices 1 2 3 4 5 6 
#
# 1 69.5831 55.7511 28.6236 0.0000 0.0000 0.0000
# 2 55.7511 69.5831 28.6236 0.0000 0.0000 0.0000
# 3 28.6236 28.6236 96.9169 0.0000 0.0000 0.0000
# 4 0.0000 0.0000 0.0000 12.0329 0.0000 0.0000
# 5 0.0000 0.0000 0.0000 0.0000 12.0329 0.0000
# 6 0.0000 0.0000 0.0000 0.0000 0.0000 6.9160
#
#
#
# Elastic Compliance Matrix: (Units=1/GPa)
#
#
# Indices 1 2 3 4 5 6 
#
# 1 0.040760 -0.031537 -0.002724 0.000000 0.000000 0.000000
# 2 -0.031537 0.040760 -0.002724 0.000000 0.000000 0.000000
# 3 -0.002724 -0.002724 0.011927 0.000000 0.000000 0.000000
# 4 0.000000 0.000000 0.000000 0.083105 0.000000 0.000000
# 5 0.000000 0.000000 0.000000 0.000000 0.083105 0.000000
# 6 0.000000 0.000000 0.000000 0.000000 0.000000 0.144593
#
#
# Mechanical properties :
#
#
# Convention : Reuss Voigt Hill
#
# Bulk Modulus (GPa) = 51.34212 51.34217 51.34215
# Shear Modulus (GPa) = 10.31543 14.40202 12.35872
#
# Velocity S-wave (km/s) = 2.54809 3.01081 2.78906
# Velocity P-wave (km/s) = 6.40102 6.66353 6.53359
#
# Compressibility (1/GPa) = 0.01947718
#
# Stress axis : x y z
#
# Youngs Moduli (GPa) = 24.53413 24.53413 83.84294
#
# Poissons Ratio (x) = 0.77373 0.22838
# Poissons Ratio (y) = 0.77373 0.22838
# Poissons Ratio (z) = 0.06683 0.06683
#
# Static dielectric constant tensor:
#      x y z
#    x 1.521150 0.000000 0.000000 
#    y 0.000000 1.521150 0.000000 
#    z 0.000000 0.000000 1.581060 
# 
# From -- ./inp_files/9705.got.cif
#   From: 2010.05.17/outbox.cif.g08.bks.cpg/sg191_5_cif.got.tgz:9705.got - 2010.05.20 12:20:32.
