data_PCOD9587892
_publ_section_title
;
Structure prediction by ZEFSAII (Michael W. Deem and Ramdas Pophale) SiO2 
 PCOD9587892
Probable space group: P 6/M M M
;
_chemical_formula_sum "Si O2"
_cell_formula_units_Z 168
_cell_length_a 18.257736
_cell_length_b 18.257736
_cell_length_c 36.080115
_cell_angle_alpha 90.000000
_cell_angle_beta 90.000000
_cell_angle_gamma 120.000000
_cell_volume 10415.794214
_symmetry_space_group_name_H-M "P 6/M M M"
_symmetry_group_IT_number 191
_symmetry_cell_setting 'hexagonal'
loop_
_space_group_symop_operation_xyz
x,y,z
x-y,x,z
-y,x-y,z
-x,-y,z
-x+y,-x,z
y,-x+y,z
x-y,-y,-z
-x,-x+y,-z
y,x,-z
-y,-x,-z
-x+y,y,-z
x,x-y,-z
-x,-y,-z
-x+y,-x,-z
y,-x+y,-z
x,y,-z
x-y,x,-z
-y,x-y,-z
-x+y,y,z
x,x-y,z
-y,-x,z
y,x,z
x-y,-y,z
-x,-x+y,z
loop_
_atom_site_type_symbol
_atom_site_label
_atom_site_fract_x
_atom_site_fract_y
_atom_site_fract_z
Si Si1 0.492928 0.159471 0.541854
Si Si2 0.737927 0.093860 0.396484
Si Si3 0.160926 0.667049 0.893777
Si Si4 0.266528 0.900734 0.174224
Si Si5 0.096375 0.736202 0.956014
Si Si6 0.361993 0.098289 0.689091
Si Si7 0.366363 0.897935 0.755495
O O1 0.460238 0.129302 0.500000
O O2 0.578743 0.157485 0.546392
O O3 0.510968 0.255484 0.544502
O O4 0.426513 0.107905 0.573713
O O5 0.833647 0.166354 0.403051
O O6 0.715968 0.103775 0.354011
O O7 0.721694 0.000000 0.399933
O O8 0.150914 0.575457 0.889831
O O9 0.259258 0.740743 0.892536
O O10 0.114758 0.688880 0.861121
O O11 0.122497 0.678952 0.931993
O O12 0.166638 0.833363 0.171773
O O13 0.303501 0.877084 0.210149
O O14 0.295660 0.000000 0.176381
O O15 0.166872 0.833128 0.947226
O O16 0.000000 0.709527 0.947198
O O17 0.101194 0.723951 0.000000
O O18 0.329124 0.164562 0.694303
O O19 0.439217 0.124013 0.717159
O O20 0.293483 0.000000 0.696591
O O21 0.431891 0.863782 0.758804
O O22 0.422786 0.000000 0.755865
#
# Coordination Sequence:
#
# PCOD9587892 Si02
#       7
#    24  24  24  24  24  24  24
#     4   9  17  29  45  65  90 119 148 177 212 258
#     4   9  18  31  46  65  89 117 149 186 228 270
#     4  10  20  33  49  70  96 125 156 191 232 276
#     4  10  20  33  50  72  97 125 157 193 233 276
#     4   9  18  32  49  69  93 122 156 193 233 276
#     4   9  17  30  48  68  90 118 152 188 226 269
#     4   9  17  29  46  68  92 118 149 184 220 260
#
# _framework density 16.129351
#
# number of rings (size 3 to 8) (size 9 to 14) (size 15 to 20)
#    0.000    2.714    0.000    1.571    0.000    3.714 
#    0.000    2.857    0.000    4.571    0.000    3.000 
#    0.000    6.857    0.000    3.857    0.000    4.286 
#
# Total GULP energy -935686.057080 kJ/mol
# GULP energy per Si atom -5569.559864 kJ/mol
# Density = 1.609264 g / cm^3
# Si number density = 16.129351 Si / 1000 Ang^3
#
#
#
# Elastic Constant Matrix: (Units=GPa)
#
#
# Indices 1 2 3 4 5 6 
#
# 1 77.5854 59.7714 40.7745 0.0000 0.0000 0.0000
# 2 59.7714 77.5854 40.7745 0.0000 0.0000 0.0000
# 3 40.7745 40.7745 64.2191 0.0000 0.0000 0.0000
# 4 0.0000 0.0000 0.0000 20.9309 0.0000 0.0000
# 5 0.0000 0.0000 0.0000 0.0000 20.9309 0.0000
# 6 0.0000 0.0000 0.0000 0.0000 0.0000 8.9070
#
#
#
# Elastic Compliance Matrix: (Units=1/GPa)
#
#
# Indices 1 2 3 4 5 6 
#
# 1 0.033910 -0.022225 -0.007419 0.000000 0.000000 0.000000
# 2 -0.022225 0.033910 -0.007419 0.000000 0.000000 0.000000
# 3 -0.007419 -0.007419 0.024993 0.000000 0.000000 0.000000
# 4 0.000000 0.000000 0.000000 0.047776 0.000000 0.000000
# 5 0.000000 0.000000 0.000000 0.000000 0.047776 0.000000
# 6 0.000000 0.000000 0.000000 0.000000 0.000000 0.112271
#
#
# Mechanical properties :
#
#
# Convention : Reuss Voigt Hill
#
# Bulk Modulus (GPa) = 53.51481 55.78120 54.64800
# Shear Modulus (GPa) = 13.12360 15.35841 14.24100
#
# Velocity S-wave (km/s) = 2.85554 3.08913 2.97463
# Velocity P-wave (km/s) = 6.64249 6.88348 6.76406
#
# Compressibility (1/GPa) = 0.01868642
#
# Stress axis : x y z
#
# Youngs Moduli (GPa) = 29.48956 29.48956 40.01114
#
# Poissons Ratio (x) = 0.65541 0.29685
# Poissons Ratio (y) = 0.65541 0.29685
# Poissons Ratio (z) = 0.21879 0.21879
#
# Static dielectric constant tensor:
#      x y z
#    x 1.530670 0.000000 0.000000 
#    y 0.000000 1.530670 0.000000 
#    z 0.000000 0.000000 1.562500 
# 
# From -- ./inp_files/10745.got.cif
#   From: 2010.05.17/outbox.cif.g08.bks.cpg/sg191_6_cif.got.tgz:10745.got - 2010.05.20 12:20:32.
