data_PCOD9587292
_publ_section_title
;
Structure prediction by ZEFSAII (Michael W. Deem and Ramdas Pophale) SiO2 
 PCOD9587292
Probable space group: P 6/M M M
;
_chemical_formula_sum "Si O2"
_cell_formula_units_Z 144
_cell_length_a 21.867893
_cell_length_b 21.867893
_cell_length_c 24.075874
_cell_angle_alpha 90.000000
_cell_angle_beta 90.000000
_cell_angle_gamma 120.000000
_cell_volume 9970.721227
_symmetry_space_group_name_H-M "P 6/M M M"
_symmetry_group_IT_number 191
_symmetry_cell_setting 'hexagonal'
loop_
_space_group_symop_operation_xyz
x,y,z
x-y,x,z
-y,x-y,z
-x,-y,z
-x+y,-x,z
y,-x+y,z
x-y,-y,-z
-x,-x+y,-z
y,x,-z
-y,-x,-z
-x+y,y,-z
x,x-y,-z
-x,-y,-z
-x+y,-x,-z
y,-x+y,-z
x,y,-z
x-y,x,-z
-y,x-y,-z
-x+y,y,z
x,x-y,z
-y,-x,z
y,x,z
x-y,-y,z
-x,-x+y,z
loop_
_atom_site_type_symbol
_atom_site_label
_atom_site_fract_x
_atom_site_fract_y
_atom_site_fract_z
Si Si1 0.773456 0.694797 0.500000
Si Si2 0.881270 0.616045 0.613397
Si Si3 0.921777 0.703492 0.275972
Si Si4 0.478394 0.665713 0.324892
Si Si5 0.081566 0.467287 0.102276
Si Si6 0.480954 0.814254 0.000000
Si Si7 0.291296 0.440835 0.209647
O O1 0.762803 0.762803 0.500000
O O2 0.854501 0.709001 0.500000
O O3 0.734378 0.648919 0.445449
O O4 0.804206 0.608411 0.611924
O O5 0.919900 0.669430 0.664004
O O6 0.865505 0.539040 0.632356
O O7 0.863624 0.727248 0.276879
O O8 0.894860 0.638612 0.233150
O O9 0.000000 0.763554 0.263000
O O10 0.469418 0.734709 0.330899
O O11 0.405281 0.594720 0.332565
O O12 0.509071 0.670902 0.262749
O O13 0.081728 0.540864 0.107417
O O14 0.109751 0.452472 0.159193
O O15 0.000000 0.408175 0.090604
O O16 0.136654 0.479799 0.053246
O O17 0.400382 0.800764 0.000000
O O18 0.481033 0.740516 0.000000
O O19 0.226550 0.453099 0.193080
#
# Coordination Sequence:
#
# PCOD9587292 Si02
#       7
#    12  24  24  24  24  12  24
#     4  10  18  30  49  68  85 107 137 171 205 247
#     4   8  16  28  42  61  83 109 139 170 204 242
#     4   9  16  27  43  62  83 106 133 165 200 240
#     4   9  16  27  43  63  86 112 143 179 217 251
#     4  10  19  30  44  62  84 110 139 171 208 249
#     4  10  20  33  47  61  80 107 140 176 211 248
#     4   9  17  28  43  63  86 111 139 171 206 245
#
# _framework density 14.442285
#
# number of rings (size 3 to 8) (size 9 to 14) (size 15 to 20)
#    0.000    2.833    0.000    4.500    0.000    1.000 
#    0.000    0.417    0.000   16.083    0.000    1.167 
#    0.000    4.000    0.000    0.000    0.000    0.333 
#
# Total GULP energy -801644.036062 kJ/mol
# GULP energy per Si atom -5566.972473 kJ/mol
# Density = 1.440941 g / cm^3
# Si number density = 14.442285 Si / 1000 Ang^3
#
#
#
# Elastic Constant Matrix: (Units=GPa)
#
#
# Indices 1 2 3 4 5 6 
#
# 1 81.5825 51.9844 36.2621 0.0000 0.0000 0.0000
# 2 51.9844 81.5825 36.2621 0.0000 0.0000 0.0000
# 3 36.2621 36.2621 77.5825 0.0000 0.0000 0.0000
# 4 0.0000 0.0000 0.0000 8.1536 0.0000 0.0000
# 5 0.0000 0.0000 0.0000 0.0000 8.1536 0.0000
# 6 0.0000 0.0000 0.0000 0.0000 0.0000 14.7990
#
#
#
# Elastic Compliance Matrix: (Units=1/GPa)
#
#
# Indices 1 2 3 4 5 6 
#
# 1 0.021910 -0.011876 -0.004690 0.000000 0.000000 0.000000
# 2 -0.011876 0.021910 -0.004690 0.000000 0.000000 0.000000
# 3 -0.004690 -0.004690 0.017273 0.000000 0.000000 0.000000
# 4 0.000000 0.000000 0.000000 0.122646 0.000000 0.000000
# 5 0.000000 0.000000 0.000000 0.000000 0.122646 0.000000
# 6 0.000000 0.000000 0.000000 0.000000 0.000000 0.067572
#
#
# Mechanical properties :
#
#
# Convention : Reuss Voigt Hill
#
# Bulk Modulus (GPa) = 53.81670 54.41828 54.11749
# Shear Modulus (GPa) = 11.82981 13.97049 12.90015
#
# Velocity S-wave (km/s) = 2.86511 3.11357 2.99192
# Velocity P-wave (km/s) = 6.94905 7.11951 7.03480
#
# Compressibility (1/GPa) = 0.01858159
#
# Stress axis : x y z
#
# Youngs Moduli (GPa) = 45.64210 45.64210 57.89288
#
# Poissons Ratio (x) = 0.54206 0.27149
# Poissons Ratio (y) = 0.54206 0.27149
# Poissons Ratio (z) = 0.21404 0.21404
#
# Static dielectric constant tensor:
#      x y z
#    x 1.469840 0.000000 0.000000 
#    y 0.000000 1.469840 0.000000 
#    z 0.000000 0.000000 1.478580 
# 
# From -- ./inp_files/8912.got.cif
#   From: 2010.05.17/outbox.cif.g08.bks.cpg/sg191_5_cif.got.tgz:8912.got - 2010.05.20 12:20:32.
