data_PCOD9587101
_publ_section_title
;
Structure prediction by ZEFSAII (Michael W. Deem and Ramdas Pophale) SiO2 
 PCOD9587101
Probable space group: P 6/M M M
;
_chemical_formula_sum "Si O2"
_cell_formula_units_Z 132
_cell_length_a 18.602476
_cell_length_b 18.602476
_cell_length_c 28.570585
_cell_angle_alpha 90.000000
_cell_angle_beta 90.000000
_cell_angle_gamma 120.000000
_cell_volume 8562.316367
_symmetry_space_group_name_H-M "P 6/M M M"
_symmetry_group_IT_number 191
_symmetry_cell_setting 'hexagonal'
loop_
_space_group_symop_operation_xyz
x,y,z
x-y,x,z
-y,x-y,z
-x,-y,z
-x+y,-x,z
y,-x+y,z
x-y,-y,-z
-x,-x+y,-z
y,x,-z
-y,-x,-z
-x+y,y,-z
x,x-y,-z
-x,-y,-z
-x+y,-x,-z
y,-x+y,-z
x,y,-z
x-y,x,-z
-y,x-y,-z
-x+y,y,z
x,x-y,z
-y,-x,z
y,x,z
x-y,-y,z
-x,-x+y,z
loop_
_atom_site_type_symbol
_atom_site_label
_atom_site_fract_x
_atom_site_fract_y
_atom_site_fract_z
Si Si1 0.332248 0.833256 0.263445
Si Si2 0.900623 0.367519 0.098697
Si Si3 0.902341 0.264021 0.185400
Si Si4 0.900712 0.368278 0.366487
Si Si5 0.499666 0.668885 0.000000
Si Si6 0.743776 0.095858 0.553664
O O1 0.423985 0.847969 0.253749
O O2 0.262342 0.737659 0.255633
O O3 0.307545 0.887050 0.230277
O O4 0.330015 0.856383 0.317528
O O5 0.870328 0.435164 0.106468
O O6 0.880935 0.304213 0.140975
O O7 0.000000 0.420956 0.095794
O O8 0.867670 0.322528 0.048943
O O9 0.833968 0.166033 0.187214
O O10 0.000000 0.292102 0.182827
O O11 0.880459 0.440230 0.379593
O O12 0.880910 0.304661 0.408476
O O13 0.000000 0.414092 0.358464
O O14 0.424865 0.575136 0.000000
O O15 0.467538 0.733769 0.000000
O O16 0.720668 0.103491 0.500000
O O17 0.840939 0.159062 0.558800
O O18 0.715811 0.000000 0.560929
#
# Coordination Sequence:
#
# PCOD9587101 Si02
#       6
#    24  24  24  24  12  24
#     4  10  19  30  45  66  93 123 152 181 212 248
#     4   9  17  29  45  64  86 114 147 181 218 259
#     4  10  20  33  49  68  89 114 145 182 223 266
#     4   9  17  28  43  64  88 115 148 183 217 254
#     4  10  18  27  39  57  84 117 151 183 213 246
#     4   9  17  29  45  64  86 113 146 184 224 265
#
# _framework density 15.416389000000001
#
# number of rings (size 3 to 8) (size 9 to 14) (size 15 to 20)
#    0.000    2.545    0.000    2.727    0.000    3.273 
#    0.000    1.818    0.000    6.545    0.000    1.273 
#    0.000    0.000    0.000    5.818    0.000   22.909 
#
# Total GULP energy -735134.116875 kJ/mol
# GULP energy per Si atom -5569.197855 kJ/mol
# Density = 1.538130 g / cm^3
# Si number density = 15.416389 Si / 1000 Ang^3
#
#
#
# Elastic Constant Matrix: (Units=GPa)
#
#
# Indices 1 2 3 4 5 6 
#
# 1 64.8621 38.9610 40.8376 0.0000 0.0000 0.0000
# 2 38.9610 64.8621 40.8376 0.0000 0.0000 0.0000
# 3 40.8376 40.8376 81.8882 0.0000 0.0000 0.0000
# 4 0.0000 0.0000 0.0000 17.3423 0.0000 0.0000
# 5 0.0000 0.0000 0.0000 0.0000 17.3423 0.0000
# 6 0.0000 0.0000 0.0000 0.0000 0.0000 12.9505
#
#
#
# Elastic Compliance Matrix: (Units=1/GPa)
#
#
# Indices 1 2 3 4 5 6 
#
# 1 0.027229 -0.011379 -0.007904 0.000000 0.000000 0.000000
# 2 -0.011379 0.027229 -0.007904 0.000000 0.000000 0.000000
# 3 -0.007904 -0.007904 0.020096 0.000000 0.000000 0.000000
# 4 0.000000 0.000000 0.000000 0.057662 0.000000 0.000000
# 5 0.000000 0.000000 0.000000 0.000000 0.057662 0.000000
# 6 0.000000 0.000000 0.000000 0.000000 0.000000 0.077217
#
#
# Mechanical properties :
#
#
# Convention : Reuss Voigt Hill
#
# Bulk Modulus (GPa) = 49.55886 50.32053 49.93970
# Shear Modulus (GPa) = 15.23471 15.59210 15.41341
#
# Velocity S-wave (km/s) = 3.14700 3.18370 3.16540
# Velocity P-wave (km/s) = 6.73954 6.79900 6.76934
#
# Compressibility (1/GPa) = 0.02017803
#
# Stress axis : x y z
#
# Youngs Moduli (GPa) = 36.72524 36.72524 49.76226
#
# Poissons Ratio (x) = 0.41791 0.39334
# Poissons Ratio (y) = 0.41791 0.39334
# Poissons Ratio (z) = 0.29029 0.29029
#
# Static dielectric constant tensor:
#      x y z
#    x 1.504550 0.000000 0.000000 
#    y 0.000000 1.504550 0.000000 
#    z 0.000000 0.000000 1.526210 
# 
# From -- ./inp_files/9714.got.cif
#   From: 2010.05.17/outbox.cif.g08.bks.cpg/sg191_5_cif.got.tgz:9714.got - 2010.05.20 12:20:32.
