data_PCOD9587283
_publ_section_title
;
Structure prediction by ZEFSAII (Michael W. Deem and Ramdas Pophale) SiO2 
 PCOD9587283
Probable space group: P 6/M M M
;
_chemical_formula_sum "Si O2"
_cell_formula_units_Z 180
_cell_length_a 27.303172
_cell_length_b 27.303172
_cell_length_c 17.906992
_cell_angle_alpha 90.000000
_cell_angle_beta 90.000000
_cell_angle_gamma 120.000000
_cell_volume 11560.576217
_symmetry_space_group_name_H-M "P 6/M M M"
_symmetry_group_IT_number 191
_symmetry_cell_setting 'hexagonal'
loop_
_space_group_symop_operation_xyz
x,y,z
x-y,x,z
-y,x-y,z
-x,-y,z
-x+y,-x,z
y,-x+y,z
x-y,-y,-z
-x,-x+y,-z
y,x,-z
-y,-x,-z
-x+y,y,-z
x,x-y,-z
-x,-y,-z
-x+y,-x,-z
y,-x+y,-z
x,y,-z
x-y,x,-z
-y,x-y,-z
-x+y,y,z
x,x-y,z
-y,-x,z
y,x,z
x-y,-y,z
-x,-x+y,z
loop_
_atom_site_type_symbol
_atom_site_label
_atom_site_fract_x
_atom_site_fract_y
_atom_site_fract_z
Si Si1 0.934188 0.757830 0.216353
Si Si2 0.747497 0.065946 0.912770
Si Si3 0.780585 0.333927 0.823156
Si Si4 0.780705 0.333888 0.356602
Si Si5 0.726430 0.155895 0.413027
Si Si6 0.755769 0.821551 0.500000
Si Si7 0.720716 0.162315 0.087881
Si Si8 0.065880 0.752279 0.355770
O O1 0.889474 0.778947 0.222914
O O2 0.924854 0.723670 0.139526
O O3 0.923295 0.713354 0.282514
O O4 0.000000 0.805586 0.221198
O O5 0.723967 0.107163 0.890544
O O6 0.700701 0.000000 0.905263
O O7 0.764167 0.077302 0.000000
O O8 0.786005 0.393003 0.846007
O O9 0.718203 0.281798 0.841923
O O10 0.785960 0.334057 0.733422
O O11 0.824882 0.320414 0.863092
O O12 0.786475 0.393238 0.379696
O O13 0.718325 0.281676 0.375865
O O14 0.825932 0.319177 0.390987
O O15 0.720008 0.139482 0.500000
O O16 0.787470 0.212531 0.403622
O O17 0.727074 0.107216 0.364366
O O18 0.804907 0.804907 0.500000
O O19 0.774867 0.887434 0.500000
O O20 0.717210 0.792026 0.572628
O O21 0.783485 0.216516 0.096886
O O22 0.706052 0.158473 0.000000
O O23 0.000000 0.704560 0.355324
#
# Coordination Sequence:
#
# PCOD9587283 Si02
#       8
#    24  24  24  24  24  12  24  24
#     4  10  20  32  49  73 100 129 161 197 235 277
#     4   9  18  32  49  70  97 128 159 192 233 280
#     4   9  17  29  45  65  89 118 152 189 231 279
#     4   9  18  31  47  67  91 121 155 193 237 284
#     4  10  19  30  47  70  94 120 153 194 236 280
#     4  10  18  30  48  69  97 129 159 191 231 277
#     4   9  17  28  43  65  91 118 150 189 232 278
#     4  10  20  32  48  72  99 128 157 191 236 283
#
# _framework density 15.570159
#
# number of rings (size 3 to 8) (size 9 to 14) (size 15 to 20)
#    0.000    2.533    0.667    1.867    1.867    2.400 
#    0.000    0.000    0.000    2.600    0.000    4.667 
#    0.000    3.200    0.000    3.333    0.000    0.267 
#
# Total GULP energy -1003625.277832 kJ/mol
# GULP energy per Si atom -5575.695988 kJ/mol
# Density = 1.553472 g / cm^3
# Si number density = 15.570159 Si / 1000 Ang^3
#
#
#
# Elastic Constant Matrix: (Units=GPa)
#
#
# Indices 1 2 3 4 5 6 
#
# 1 100.2313 53.8831 30.8777 0.0000 0.0000 0.0000
# 2 53.8831 100.2313 30.8777 0.0000 0.0000 0.0000
# 3 30.8777 30.8777 39.7980 0.0000 0.0000 0.0000
# 4 0.0000 0.0000 0.0000 15.7462 0.0000 0.0000
# 5 0.0000 0.0000 0.0000 0.0000 15.7462 0.0000
# 6 0.0000 0.0000 0.0000 0.0000 0.0000 23.1741
#
#
#
# Elastic Compliance Matrix: (Units=1/GPa)
#
#
# Indices 1 2 3 4 5 6 
#
# 1 0.015496 -0.006080 -0.007306 0.000000 0.000000 0.000000
# 2 -0.006080 0.015496 -0.007306 0.000000 0.000000 0.000000
# 3 -0.007306 -0.007306 0.036463 0.000000 0.000000 0.000000
# 4 0.000000 0.000000 0.000000 0.063507 0.000000 0.000000
# 5 0.000000 0.000000 0.000000 0.000000 0.063507 0.000000
# 6 0.000000 0.000000 0.000000 0.000000 0.000000 0.043152
#
#
# Mechanical properties :
#
#
# Convention : Reuss Voigt Hill
#
# Bulk Modulus (GPa) = 38.35390 52.39307 45.37349
# Shear Modulus (GPa) = 17.37955 19.24144 18.31050
#
# Velocity S-wave (km/s) = 3.34460 3.51919 3.43301
# Velocity P-wave (km/s) = 6.29297 7.08771 6.70213
#
# Compressibility (1/GPa) = 0.02607297
#
# Stress axis : x y z
#
# Youngs Moduli (GPa) = 64.53290 64.53290 27.42500
#
# Poissons Ratio (x) = 0.39235 0.20036
# Poissons Ratio (y) = 0.39235 0.20036
# Poissons Ratio (z) = 0.47145 0.47145
#
# Static dielectric constant tensor:
#      x y z
#    x 1.503190 0.000000 0.000000 
#    y 0.000000 1.503190 0.000000 
#    z 0.000000 0.000000 1.535200 
# 
# From -- ./inp_files/6920.got.cif
#   From: 2010.05.17/outbox.cif.g08.bks.cpg/sg191_4_cif.got.tgz:6920.got - 2010.05.20 12:20:32.
