data_PCOD9587783
_publ_section_title
;
Structure prediction by ZEFSAII (Michael W. Deem and Ramdas Pophale) SiO2 
 PCOD9587783
Probable space group: P 6/M M M
;
_chemical_formula_sum "Si O2"
_cell_formula_units_Z 112
_cell_length_a 31.001080
_cell_length_b 31.001080
_cell_length_c 8.865523
_cell_angle_alpha 90.000000
_cell_angle_beta 90.000000
_cell_angle_gamma 120.000000
_cell_volume 7378.849291
_symmetry_space_group_name_H-M "P 6/M M M"
_symmetry_group_IT_number 191
_symmetry_cell_setting 'hexagonal'
loop_
_space_group_symop_operation_xyz
x,y,z
x-y,x,z
-y,x-y,z
-x,-y,z
-x+y,-x,z
y,-x+y,z
x-y,-y,-z
-x,-x+y,-z
y,x,-z
-y,-x,-z
-x+y,y,-z
x,x-y,-z
-x,-y,-z
-x+y,-x,-z
y,-x+y,-z
x,y,-z
x-y,x,-z
-y,x-y,-z
-x+y,y,z
x,x-y,z
-y,-x,z
y,x,z
x-y,-y,z
-x,-x+y,z
loop_
_atom_site_type_symbol
_atom_site_label
_atom_site_fract_x
_atom_site_fract_y
_atom_site_fract_z
Si Si1 0.149075 0.750689 0.681526
Si Si2 0.206400 0.693317 0.318424
Si Si3 0.333334 0.666668 0.817098
Si Si4 0.942875 0.248052 0.180291
Si Si5 0.781874 0.390937 0.819288
Si Si6 0.056440 0.845907 0.681956
O O1 0.144425 0.750087 0.500000
O O2 0.194277 0.805724 0.723430
O O3 0.167970 0.712206 0.721867
O O4 0.098116 0.740006 0.756113
O O5 0.206408 0.689158 0.500000
O O6 0.261334 0.738667 0.273896
O O7 0.195821 0.642231 0.243789
O O8 0.361928 0.723856 0.768036
O O9 0.333334 0.666667 0.000000
O O10 0.933058 0.195709 0.248387
O O11 0.000000 0.288149 0.221234
O O12 0.939538 0.244291 0.000000
O O13 0.783483 0.391742 0.000000
O O14 0.057919 0.842693 0.500000
O O15 0.099305 0.900696 0.727715
O O16 0.000000 0.830222 0.724900
#
# Coordination Sequence:
#
# PCOD9587783 Si02
#       6
#    24  24   4  24  12  24
#     4   9  18  32  48  66  90 118 149 184 219 260
#     4   9  18  31  45  63  87 117 152 185 218 258
#     4   9  18  27  37  59  91 120 148 185 217 243
#     4  10  20  31  44  66  93 117 144 179 220 268
#     4  11  19  29  43  63  92 122 153 187 219 254
#     4   9  17  29  45  64  87 117 151 184 219 261
#
# _framework density 15.178519
#
# number of rings (size 3 to 8) (size 9 to 14) (size 15 to 20)
#    0.000    2.571    1.071    2.893    0.000    5.571 
#    0.000    2.143    0.000    0.214    0.000    2.250 
#    0.000    6.000    0.000    5.357    0.000    5.571 
#
# Total GULP energy -624365.681696 kJ/mol
# GULP energy per Si atom -5574.693587 kJ/mol
# Density = 1.514397 g / cm^3
# Si number density = 15.178519 Si / 1000 Ang^3
#
#
#
# Elastic Constant Matrix: (Units=GPa)
#
#
# Indices 1 2 3 4 5 6 
#
# 1 118.1147 71.0136 35.1256 0.0000 0.0000 0.0000
# 2 71.0136 118.1149 35.1256 0.0000 0.0000 0.0000
# 3 35.1256 35.1256 21.2764 0.0000 0.0000 0.0000
# 4 0.0000 0.0000 0.0000 14.6344 0.0000 0.0000
# 5 0.0000 0.0000 0.0000 0.0000 14.6343 0.0000
# 6 0.0000 0.0000 0.0000 0.0000 0.0000 23.5505
#
#
#
# Elastic Compliance Matrix: (Units=1/GPa)
#
#
# Indices 1 2 3 4 5 6 
#
# 1 0.017451 -0.003780 -0.022569 0.000000 0.000000 0.000000
# 2 -0.003780 0.017451 -0.022569 0.000000 0.000000 0.000000
# 3 -0.022569 -0.022569 0.121520 0.000000 0.000000 0.000000
# 4 0.000000 0.000000 0.000000 0.068332 0.000000 0.000000
# 5 0.000000 0.000000 0.000000 0.000000 0.068333 0.000000
# 6 0.000000 0.000000 0.000000 0.000000 0.000000 0.042462
#
#
# Mechanical properties :
#
#
# Convention : Reuss Voigt Hill
#
# Bulk Modulus (GPa) = 17.06929 60.00396 38.53663
# Shear Modulus (GPa) = 11.03965 18.31326 14.67646
#
# Velocity S-wave (km/s) = 2.69981 3.47728 3.11291
# Velocity P-wave (km/s) = 4.58135 7.46592 6.19389
#
# Compressibility (1/GPa) = 0.05858474
#
# Stress axis : x y z
#
# Youngs Moduli (GPa) = 57.30397 57.30421 8.22910
#
# Poissons Ratio (x) = 0.21662 0.18572
# Poissons Ratio (y) = 0.21661 0.18572
# Poissons Ratio (z) = 1.29330 1.29330
#
# Static dielectric constant tensor:
#      x y z
#    x 1.496860 0.000000 0.000000 
#    y 0.000000 1.496860 0.000000 
#    z 0.000000 0.000000 1.503400 
# 
# From -- ./inp_files/1774.got.cif
#   From: 2010.05.17/outbox.cif.g08.bks.cpg/sg191_1_cif.got.tgz:1774.got - 2010.05.20 12:20:32.
