data_PCOD9587058
_publ_section_title
;
Structure prediction by ZEFSAII (Michael W. Deem and Ramdas Pophale) SiO2 
 PCOD9587058
Probable space group: P 6/M M M
;
_chemical_formula_sum "Si O2"
_cell_formula_units_Z 168
_cell_length_a 23.042682
_cell_length_b 23.042682
_cell_length_c 21.921270
_cell_angle_alpha 90.000000
_cell_angle_beta 90.000000
_cell_angle_gamma 120.000000
_cell_volume 10080.043255
_symmetry_space_group_name_H-M "P 6/M M M"
_symmetry_group_IT_number 191
_symmetry_cell_setting 'hexagonal'
loop_
_space_group_symop_operation_xyz
x,y,z
x-y,x,z
-y,x-y,z
-x,-y,z
-x+y,-x,z
y,-x+y,z
x-y,-y,-z
-x,-x+y,-z
y,x,-z
-y,-x,-z
-x+y,y,-z
x,x-y,-z
-x,-y,-z
-x+y,-x,-z
y,-x+y,-z
x,y,-z
x-y,x,-z
-y,x-y,-z
-x+y,y,z
x,x-y,z
-y,-x,z
y,x,z
x-y,-y,z
-x,-x+y,z
loop_
_atom_site_type_symbol
_atom_site_label
_atom_site_fract_x
_atom_site_fract_y
_atom_site_fract_z
Si Si1 0.076011 0.281540 0.425880
Si Si2 0.138235 0.727983 0.784065
Si Si3 0.394087 0.919034 0.309135
Si Si4 0.789122 0.713340 0.127941
Si Si5 0.461550 0.665728 0.868447
Si Si6 0.918765 0.335962 0.431284
Si Si7 0.365483 0.507269 0.000000
Si Si8 0.250357 0.885198 0.000000
O O1 0.073841 0.276924 0.500000
O O2 0.132988 0.265975 0.403900
O O3 0.096428 0.358242 0.412975
O O4 0.000000 0.233156 0.403822
O O5 0.203667 0.796334 0.761925
O O6 0.106726 0.670967 0.733100
O O7 0.090354 0.749441 0.818684
O O8 0.163939 0.696337 0.835706
O O9 0.448816 0.897632 0.291821
O O10 0.368836 0.897468 0.378459
O O11 0.433604 0.000000 0.307072
O O12 0.866419 0.732837 0.132844
O O13 0.772626 0.772626 0.132097
O O14 0.763899 0.677292 0.061895
O O15 0.436060 0.718030 0.859296
O O16 0.407032 0.592969 0.845052
O O17 0.472294 0.658835 0.939571
O O18 0.893767 0.334700 0.500000
O O19 0.000000 0.378954 0.434192
O O20 0.446659 0.553341 0.000000
O O21 0.325959 0.427018 0.000000
O O22 0.195082 0.804919 0.000000
#
# Coordination Sequence:
#
# PCOD9587058 Si02
#       8
#    24  24  24  24  24  24  12  12
#     4   8  13  22  38  61  89 120 153 190 233 280
#     4  10  20  33  49  67  93 131 167 198 234 280
#     4  10  20  33  49  70  97 125 154 193 241 291
#     4  10  20  34  55  78 100 128 164 206 249 297
#     4  10  18  28  43  63  89 122 163 209 250 284
#     4   8  15  28  45  66  91 118 150 190 237 288
#     4  10  18  27  44  66  95 129 165 212 255 288
#     4  10  17  31  51  72  99 131 168 211 256 299
#
# _framework density 16.666594
#
# number of rings (size 3 to 8) (size 9 to 14) (size 15 to 20)
#    0.000    2.571    1.429    2.714    0.000    0.857 
#    0.000    2.143    0.000    2.429    0.000    1.000 
#    0.000    1.714    0.000    0.000    0.000   18.571 
#
# Total GULP energy -935568.786878 kJ/mol
# GULP energy per Si atom -5568.861827 kJ/mol
# Density = 1.662866 g / cm^3
# Si number density = 16.666594 Si / 1000 Ang^3
#
#
#
# Elastic Constant Matrix: (Units=GPa)
#
#
# Indices 1 2 3 4 5 6 
#
# 1 77.5468 45.3031 29.1649 0.0000 0.0000 0.0000
# 2 45.3031 77.5468 29.1649 0.0000 0.0000 0.0000
# 3 29.1649 29.1649 68.2053 0.0000 0.0000 0.0000
# 4 0.0000 0.0000 0.0000 17.7419 0.0000 0.0000
# 5 0.0000 0.0000 0.0000 0.0000 17.7419 0.0000
# 6 0.0000 0.0000 0.0000 0.0000 0.0000 16.1219
#
#
#
# Elastic Compliance Matrix: (Units=1/GPa)
#
#
# Indices 1 2 3 4 5 6 
#
# 1 0.020614 -0.010400 -0.004367 0.000000 0.000000 0.000000
# 2 -0.010400 0.020614 -0.004367 0.000000 0.000000 0.000000
# 3 -0.004367 -0.004367 0.018397 0.000000 0.000000 0.000000
# 4 0.000000 0.000000 0.000000 0.056364 0.000000 0.000000
# 5 0.000000 0.000000 0.000000 0.000000 0.056364 0.000000
# 6 0.000000 0.000000 0.000000 0.000000 0.000000 0.062028
#
#
# Mechanical properties :
#
#
# Convention : Reuss Voigt Hill
#
# Bulk Modulus (GPa) = 46.82881 47.84051 47.33466
# Shear Modulus (GPa) = 17.87201 18.29887 18.08544
#
# Velocity S-wave (km/s) = 3.27819 3.31711 3.29771
# Velocity P-wave (km/s) = 6.51821 6.59073 6.55457
#
# Compressibility (1/GPa) = 0.02135438
#
# Stress axis : x y z
#
# Youngs Moduli (GPa) = 48.51134 48.51134 54.35769
#
# Poissons Ratio (x) = 0.50452 0.23740
# Poissons Ratio (y) = 0.50452 0.23740
# Poissons Ratio (z) = 0.21187 0.21187
#
# Static dielectric constant tensor:
#      x y z
#    x 1.564820 0.000000 0.000000 
#    y 0.000000 1.564820 0.000000 
#    z 0.000000 0.000000 1.571740 
# 
# From -- ./inp_files/8056.got.cif
#   From: 2010.05.17/outbox.cif.g08.bks.cpg/sg191_5_cif.got.tgz:8056.got - 2010.05.20 12:20:32.
