data_PCOD9587187
_publ_section_title
;
Structure prediction by ZEFSAII (Michael W. Deem and Ramdas Pophale) SiO2 
 PCOD9587187
Probable space group: P 6/M M M
;
_chemical_formula_sum "Si O2"
_cell_formula_units_Z 168
_cell_length_a 22.581616
_cell_length_b 22.581616
_cell_length_c 26.278687
_cell_angle_alpha 90.000000
_cell_angle_beta 90.000000
_cell_angle_gamma 120.000000
_cell_volume 11604.978221
_symmetry_space_group_name_H-M "P 6/M M M"
_symmetry_group_IT_number 191
_symmetry_cell_setting 'hexagonal'
loop_
_space_group_symop_operation_xyz
x,y,z
x-y,x,z
-y,x-y,z
-x,-y,z
-x+y,-x,z
y,-x+y,z
x-y,-y,-z
-x,-x+y,-z
y,x,-z
-y,-x,-z
-x+y,y,-z
x,x-y,-z
-x,-y,-z
-x+y,-x,-z
y,-x+y,-z
x,y,-z
x-y,x,-z
-y,x-y,-z
-x+y,y,z
x,x-y,z
-y,-x,z
y,x,z
x-y,-y,z
-x,-x+y,z
loop_
_atom_site_type_symbol
_atom_site_label
_atom_site_fract_x
_atom_site_fract_y
_atom_site_fract_z
Si Si1 0.527720 0.610501 0.444383
Si Si2 0.080991 0.657104 0.335122
Si Si3 0.922826 0.210824 0.816672
Si Si4 0.808281 0.334190 0.255256
Si Si5 0.555739 0.847579 0.848731
Si Si6 0.924505 0.715633 0.693588
Si Si7 0.469036 0.388739 0.942694
O O1 0.537716 0.644474 0.500000
O O2 0.448926 0.551075 0.439993
O O3 0.571074 0.571074 0.445497
O O4 0.550823 0.653295 0.392911
O O5 0.132749 0.651408 0.296298
O O6 0.085429 0.729306 0.325334
O O7 0.000000 0.599572 0.328081
O O8 0.864876 0.135125 0.833490
O O9 0.897870 0.263107 0.833696
O O10 0.922628 0.210567 0.755122
O O11 0.000000 0.236998 0.833890
O O12 0.793068 0.396534 0.256003
O O13 0.739090 0.260911 0.264441
O O14 0.837250 0.328788 0.200142
O O15 0.548460 0.774230 0.859385
O O16 0.537498 0.876409 0.897820
O O17 0.863393 0.726786 0.676139
O O18 0.000000 0.773959 0.678193
O O19 0.542912 0.457089 0.940446
O O20 0.414157 0.414157 0.936103
O O21 0.460590 0.359943 0.000000
#
# Coordination Sequence:
#
# PCOD9587187 Si02
#       7
#    24  24  24  24  24  24  24
#     4   8  14  25  40  60  88 117 143 175 218 267
#     4  10  18  28  46  70  91 112 143 184 227 269
#     4   9  16  27  43  64  90 118 146 176 216 262
#     4  11  22  34  46  62  88 120 150 182 221 265
#     4  10  19  30  46  66  87 113 146 184 221 259
#     4   9  16  27  43  63  89 118 145 177 218 263
#     4   9  18  32  48  65  86 112 141 175 217 263
#
# _framework density 14.476546000000001
#
# number of rings (size 3 to 8) (size 9 to 14) (size 15 to 20)
#    0.000    2.571    1.429    2.714    0.000    1.714 
#    0.000    0.000    0.000    2.286    0.000    2.000 
#    0.000    1.143    0.000    0.000    0.000    0.000 
#
# Total GULP energy -935482.697167 kJ/mol
# GULP energy per Si atom -5568.349388 kJ/mol
# Density = 1.444360 g / cm^3
# Si number density = 14.476546 Si / 1000 Ang^3
#
#
#
# Elastic Constant Matrix: (Units=GPa)
#
#
# Indices 1 2 3 4 5 6 
#
# 1 72.2507 40.0605 45.3682 0.0000 0.0000 0.0000
# 2 40.0605 72.2507 45.3682 0.0000 0.0000 0.0000
# 3 45.3682 45.3682 97.0022 0.0000 0.0000 0.0000
# 4 0.0000 0.0000 0.0000 15.1226 0.0000 0.0000
# 5 0.0000 0.0000 0.0000 0.0000 15.1226 0.0000
# 6 0.0000 0.0000 0.0000 0.0000 0.0000 16.0951
#
#
#
# Elastic Compliance Matrix: (Units=1/GPa)
#
#
# Indices 1 2 3 4 5 6 
#
# 1 0.022688 -0.008377 -0.006694 0.000000 0.000000 0.000000
# 2 -0.008377 0.022688 -0.006694 0.000000 0.000000 0.000000
# 3 -0.006694 -0.006694 0.016570 0.000000 0.000000 0.000000
# 4 0.000000 0.000000 0.000000 0.066126 0.000000 0.000000
# 5 0.000000 0.000000 0.000000 0.000000 0.066126 0.000000
# 6 0.000000 0.000000 0.000000 0.000000 0.000000 0.062131
#
#
# Mechanical properties :
#
#
# Convention : Reuss Voigt Hill
#
# Bulk Modulus (GPa) = 54.29138 55.89971 55.09554
# Shear Modulus (GPa) = 16.34000 16.64853 16.49426
#
# Velocity S-wave (km/s) = 3.36329 3.39490 3.37913
# Velocity P-wave (km/s) = 7.25718 7.35288 7.30519
#
# Compressibility (1/GPa) = 0.01841913
#
# Stress axis : x y z
#
# Youngs Moduli (GPa) = 44.07529 44.07529 60.34927
#
# Poissons Ratio (x) = 0.36921 0.40395
# Poissons Ratio (y) = 0.36921 0.40395
# Poissons Ratio (z) = 0.29502 0.29502
#
# Static dielectric constant tensor:
#      x y z
#    x 1.474530 0.000000 0.000000 
#    y 0.000000 1.474530 0.000000 
#    z 0.000000 0.000000 1.474480 
# 
# From -- ./inp_files/10048.got.cif
#   From: 2010.05.17/outbox.cif.g08.bks.cpg/sg191_6_cif.got.tgz:10048.got - 2010.05.20 12:20:32.
