data_PCOD9587444
_publ_section_title
;
Structure prediction by ZEFSAII (Michael W. Deem and Ramdas Pophale) SiO2 
 PCOD9587444
Probable space group: P 6/M M M
;
_chemical_formula_sum "Si O2"
_cell_formula_units_Z 168
_cell_length_a 18.233872
_cell_length_b 18.233872
_cell_length_c 36.479347
_cell_angle_alpha 90.000000
_cell_angle_beta 90.000000
_cell_angle_gamma 120.000000
_cell_volume 10503.535095
_symmetry_space_group_name_H-M "P 6/M M M"
_symmetry_group_IT_number 191
_symmetry_cell_setting 'hexagonal'
loop_
_space_group_symop_operation_xyz
x,y,z
x-y,x,z
-y,x-y,z
-x,-y,z
-x+y,-x,z
y,-x+y,z
x-y,-y,-z
-x,-x+y,-z
y,x,-z
-y,-x,-z
-x+y,y,-z
x,x-y,-z
-x,-y,-z
-x+y,-x,-z
y,-x+y,-z
x,y,-z
x-y,x,-z
-y,x-y,-z
-x+y,y,z
x,x-y,z
-y,-x,z
y,x,z
x-y,-y,z
-x,-x+y,z
loop_
_atom_site_type_symbol
_atom_site_label
_atom_site_fract_x
_atom_site_fract_y
_atom_site_fract_z
Si Si1 0.667633 0.159853 0.570187
Si Si2 0.261935 0.905840 0.850533
Si Si3 0.365428 0.898592 0.709595
Si Si4 0.332077 0.836340 0.209799
Si Si5 0.901929 0.639858 0.065515
Si Si6 0.102559 0.469008 0.000000
Si Si7 0.631986 0.900186 0.361248
Si Si8 0.901086 0.271931 0.500000
O O1 0.575169 0.150338 0.569230
O O2 0.741129 0.258872 0.570111
O O3 0.683404 0.118103 0.606049
O O4 0.686713 0.117726 0.535331
O O5 0.165516 0.834485 0.844795
O O6 0.315850 0.890192 0.820306
O O7 0.285404 0.895733 0.892309
O O8 0.279059 0.000000 0.847327
O O9 0.434937 0.869873 0.701408
O O10 0.323687 0.860886 0.748648
O O11 0.301497 0.880654 0.676491
O O12 0.418327 0.000000 0.713648
O O13 0.424833 0.849665 0.206230
O O14 0.260711 0.739289 0.203679
O O15 0.837521 0.675041 0.061646
O O16 0.875195 0.565195 0.036326
O O17 0.000000 0.708041 0.058557
O O18 0.136641 0.568321 0.000000
O O19 0.000000 0.422136 0.000000
O O20 0.663166 0.831583 0.365397
O O21 0.702647 0.000000 0.361700
O O22 0.828447 0.171554 0.500000
O O23 0.000000 0.297733 0.500000
#
# Coordination Sequence:
#
# PCOD9587444 Si02
#       8
#    24  24  24  24  24  12  24  12
#     4  10  20  33  50  73 101 131 160 190 226 271
#     4   9  18  31  47  67  90 117 149 186 227 270
#     4   9  17  29  46  68  92 118 150 187 224 266
#     4  10  19  30  44  64  92 124 156 188 223 264
#     4   9  17  30  48  69  92 118 149 184 223 268
#     4   9  17  28  43  64  88 114 146 183 217 250
#     4  10  20  33  49  69  93 122 156 194 235 276
#     4  10  21  35  51  72  97 127 162 200 241 281
#
# _framework density 15.994614
#
# number of rings (size 3 to 8) (size 9 to 14) (size 15 to 20)
#    0.000    2.500    0.000    2.429    0.000    3.429 
#    0.000    2.143    0.000    6.214    0.000    2.000 
#    0.000    5.143    0.000    4.714    0.000    3.429 
#
# Total GULP energy -935991.991646 kJ/mol
# GULP energy per Si atom -5571.380903 kJ/mol
# Density = 1.595821 g / cm^3
# Si number density = 15.994614 Si / 1000 Ang^3
#
#
#
# Elastic Constant Matrix: (Units=GPa)
#
#
# Indices 1 2 3 4 5 6 
#
# 1 82.4957 59.1353 51.1484 0.0000 0.0000 0.0000
# 2 59.1353 82.4957 51.1484 0.0000 0.0000 0.0000
# 3 51.1484 51.1484 100.4087 0.0000 0.0000 0.0000
# 4 0.0000 0.0000 0.0000 20.8701 0.0000 0.0000
# 5 0.0000 0.0000 0.0000 0.0000 20.8701 0.0000
# 6 0.0000 0.0000 0.0000 0.0000 0.0000 11.6802
#
#
#
# Elastic Compliance Matrix: (Units=1/GPa)
#
#
# Indices 1 2 3 4 5 6 
#
# 1 0.026989 -0.015818 -0.005690 0.000000 0.000000 0.000000
# 2 -0.015818 0.026989 -0.005690 0.000000 0.000000 0.000000
# 3 -0.005690 -0.005690 0.015757 0.000000 0.000000 0.000000
# 4 0.000000 0.000000 0.000000 0.047915 0.000000 0.000000
# 5 0.000000 0.000000 0.000000 0.000000 0.047915 0.000000
# 6 0.000000 0.000000 0.000000 0.000000 0.000000 0.085615
#
#
# Mechanical properties :
#
#
# Convention : Reuss Voigt Hill
#
# Bulk Modulus (GPa) = 65.20386 65.36269 65.28328
# Shear Modulus (GPa) = 16.09317 17.61530 16.85423
#
# Velocity S-wave (km/s) = 3.17545 3.32222 3.24966
# Velocity P-wave (km/s) = 7.36880 7.46126 7.41517
#
# Compressibility (1/GPa) = 0.01533651
#
# Stress axis : x y z
#
# Youngs Moduli (GPa) = 37.05208 37.05208 63.46548
#
# Poissons Ratio (x) = 0.58611 0.36114
# Poissons Ratio (y) = 0.58611 0.36114
# Poissons Ratio (z) = 0.21084 0.21084
#
# Static dielectric constant tensor:
#      x y z
#    x 1.524870 0.000000 0.000000 
#    y 0.000000 1.524870 0.000000 
#    z 0.000000 0.000000 1.548850 
# 
# From -- ./inp_files/10771.got.cif
#   From: 2010.05.17/outbox.cif.g08.bks.cpg/sg191_6_cif.got.tgz:10771.got - 2010.05.20 12:20:32.
