data_PCOD9587504
_publ_section_title
;
Structure prediction by ZEFSAII (Michael W. Deem and Ramdas Pophale) SiO2 
 PCOD9587504
Probable space group: P 6/M M M
;
_chemical_formula_sum "Si O2"
_cell_formula_units_Z 132
_cell_length_a 18.331493
_cell_length_b 18.331493
_cell_length_c 28.152705
_cell_angle_alpha 90.000000
_cell_angle_beta 90.000000
_cell_angle_gamma 120.000000
_cell_volume 8193.065670
_symmetry_space_group_name_H-M "P 6/M M M"
_symmetry_group_IT_number 191
_symmetry_cell_setting 'hexagonal'
loop_
_space_group_symop_operation_xyz
x,y,z
x-y,x,z
-y,x-y,z
-x,-y,z
-x+y,-x,z
y,-x+y,z
x-y,-y,-z
-x,-x+y,-z
y,x,-z
-y,-x,-z
-x+y,y,-z
x,x-y,-z
-x,-y,-z
-x+y,-x,-z
y,-x+y,-z
x,y,-z
x-y,x,-z
-y,x-y,-z
-x+y,y,z
x,x-y,z
-y,-x,z
y,x,z
x-y,-y,z
-x,-x+y,z
loop_
_atom_site_type_symbol
_atom_site_label
_atom_site_fract_x
_atom_site_fract_y
_atom_site_fract_z
Si Si1 0.531360 0.633087 0.861006
Si Si2 0.633193 0.532506 0.587412
Si Si3 0.099592 0.739313 0.500000
Si Si4 0.097514 0.359336 0.944349
Si Si5 0.637883 0.735842 0.226820
Si Si6 0.834713 0.332440 0.307050
O O1 0.432151 0.567850 0.857350
O O2 0.576973 0.576973 0.860040
O O3 0.561816 0.684589 0.909936
O O4 0.572562 0.695943 0.817023
O O5 0.561388 0.438613 0.572417
O O6 0.584377 0.584377 0.595299
O O7 0.699535 0.580610 0.546123
O O8 0.669691 0.525497 0.637672
O O9 0.161143 0.838858 0.500000
O O10 0.000000 0.706214 0.500000
O O11 0.163693 0.327385 0.936208
O O12 0.000000 0.291196 0.934068
O O13 0.102401 0.382047 0.000000
O O14 0.670186 0.835093 0.228471
O O15 0.707840 0.707840 0.221673
O O16 0.582342 0.693188 0.273778
O O17 0.851170 0.425585 0.296489
O O18 0.737776 0.262225 0.298499
#
# Coordination Sequence:
#
# PCOD9587504 Si02
#       6
#    24  24  12  24  24  24
#     4   9  17  29  46  68  91 115 146 183 222 266
#     4   9  17  29  46  67  90 118 151 185 222 267
#     4  10  19  31  47  66  89 117 152 192 231 271
#     4   9  17  29  46  68  93 122 157 196 236 277
#     4  10  20  33  50  71  94 121 154 192 231 271
#     4  10  19  30  45  67  96 127 157 188 223 263
#
# _framework density 16.111184999999999
#
# number of rings (size 3 to 8) (size 9 to 14) (size 15 to 20)
#    0.000    2.545    0.000    2.636    0.000    3.273 
#    0.000    1.818    0.000    7.000    0.000    1.273 
#    0.000    4.364    0.000    6.000    0.000    0.000 
#
# Total GULP energy -735472.257825 kJ/mol
# GULP energy per Si atom -5571.759529 kJ/mol
# Density = 1.607451 g / cm^3
# Si number density = 16.111185 Si / 1000 Ang^3
#
#
#
# Elastic Constant Matrix: (Units=GPa)
#
#
# Indices 1 2 3 4 5 6 
#
# 1 83.0138 48.9250 34.7240 0.0000 0.0000 0.0000
# 2 48.9250 83.0138 34.7240 0.0000 0.0000 0.0000
# 3 34.7240 34.7240 57.6741 0.0000 0.0000 0.0000
# 4 0.0000 0.0000 0.0000 18.8947 0.0000 0.0000
# 5 0.0000 0.0000 0.0000 0.0000 18.8947 0.0000
# 6 0.0000 0.0000 0.0000 0.0000 0.0000 17.0444
#
#
#
# Elastic Compliance Matrix: (Units=1/GPa)
#
#
# Indices 1 2 3 4 5 6 
#
# 1 0.020215 -0.009120 -0.006680 0.000000 0.000000 0.000000
# 2 -0.009120 0.020215 -0.006680 0.000000 0.000000 0.000000
# 3 -0.006680 -0.006680 0.025383 0.000000 0.000000 0.000000
# 4 0.000000 0.000000 0.000000 0.052925 0.000000 0.000000
# 5 0.000000 0.000000 0.000000 0.000000 0.052925 0.000000
# 6 0.000000 0.000000 0.000000 0.000000 0.000000 0.058670
#
#
# Mechanical properties :
#
#
# Convention : Reuss Voigt Hill
#
# Bulk Modulus (GPa) = 47.95546 51.16088 49.55817
# Shear Modulus (GPa) = 17.71508 17.98868 17.85188
#
# Velocity S-wave (km/s) = 3.31955 3.34508 3.33234
# Velocity P-wave (km/s) = 6.67251 6.83690 6.75521
#
# Compressibility (1/GPa) = 0.02085268
#
# Stress axis : x y z
#
# Youngs Moduli (GPa) = 49.46735 49.46735 39.39655
#
# Poissons Ratio (x) = 0.45113 0.26318
# Poissons Ratio (y) = 0.45113 0.26318
# Poissons Ratio (z) = 0.33046 0.33046
#
# Static dielectric constant tensor:
#      x y z
#    x 1.534430 0.000000 0.000000 
#    y 0.000000 1.534430 0.000000 
#    z 0.000000 0.000000 1.548110 
# 
# From -- ./inp_files/8688.got.cif
#   From: 2010.05.17/outbox.cif.g08.bks.cpg/sg191_5_cif.got.tgz:8688.got - 2010.05.20 12:20:32.
