data_PCOD9587671
_publ_section_title
;
Structure prediction by ZEFSAII (Michael W. Deem and Ramdas Pophale) SiO2 
 PCOD9587671
Probable space group: P 6/M M M
;
_chemical_formula_sum "Si O2"
_cell_formula_units_Z 78
_cell_length_a 17.601918
_cell_length_b 17.601918
_cell_length_c 19.594627
_cell_angle_alpha 90.000000
_cell_angle_beta 90.000000
_cell_angle_gamma 120.000000
_cell_volume 5257.600939
_symmetry_space_group_name_H-M "P 6/M M M"
_symmetry_group_IT_number 191
_symmetry_cell_setting 'hexagonal'
loop_
_space_group_symop_operation_xyz
x,y,z
x-y,x,z
-y,x-y,z
-x,-y,z
-x+y,-x,z
y,-x+y,z
x-y,-y,-z
-x,-x+y,-z
y,x,-z
-y,-x,-z
-x+y,y,-z
x,x-y,-z
-x,-y,-z
-x+y,-x,-z
y,-x+y,-z
x,y,-z
x-y,x,-z
-y,x-y,-z
-x+y,y,z
x,x-y,z
-y,-x,z
y,x,z
x-y,-y,z
-x,-x+y,z
loop_
_atom_site_type_symbol
_atom_site_label
_atom_site_fract_x
_atom_site_fract_y
_atom_site_fract_z
Si Si1 0.334444 0.000000 0.922870
Si Si2 0.487069 0.154194 0.322271
Si Si3 0.183016 0.000000 0.000000
Si Si4 0.333370 0.485744 0.835606
Si Si5 0.592521 0.000000 0.421897
O O1 0.321924 0.914900 0.883283
O O2 0.366659 0.000000 0.000000
O O3 0.243322 0.000000 0.936534
O O4 0.584214 0.168427 0.330508
O O5 0.488944 0.244472 0.331456
O O6 0.461486 0.124769 0.243738
O O7 0.426337 0.084042 0.377876
O O8 0.176467 0.088234 0.000000
O O9 0.250398 0.500796 0.842632
O O10 0.424406 0.575595 0.849910
O O11 0.500000 0.000000 0.422872
O O12 0.618607 0.000000 0.500000
#
# Coordination Sequence:
#
# PCOD9587671 Si02
#       5
#    12  24   6  24  12
#     4  10  22  34  51  69  96 124 154 192 238 290
#     4   9  17  29  46  66  90 121 158 195 231 273
#     4  10  21  38  57  74  92 116 150 190 233 280
#     4  10  19  32  49  70  95 125 160 197 236 282
#     4   9  17  28  41  60  88 119 151 190 233 274
#
# _framework density 14.835664
#
# number of rings (size 3 to 8) (size 9 to 14) (size 15 to 20)
#    0.462    2.000    0.000    3.000    0.000    6.769 
#    0.000    0.000    0.000    3.692    0.000    0.000 
#    0.000    0.000    0.000    0.462    0.000    2.000 
#
# Total GULP energy -434433.792651 kJ/mol
# GULP energy per Si atom -5569.664008 kJ/mol
# Density = 1.480190 g / cm^3
# Si number density = 14.835664 Si / 1000 Ang^3
#
#
#
# Elastic Constant Matrix: (Units=GPa)
#
#
# Indices 1 2 3 4 5 6 
#
# 1 96.0060 49.2518 67.0690 0.0000 0.0000 0.0000
# 2 49.2518 96.0060 67.0690 0.0000 0.0000 0.0000
# 3 67.0690 67.0690 114.4416 0.0000 0.0000 0.0000
# 4 0.0000 0.0000 0.0000 18.7604 0.0000 0.0000
# 5 0.0000 0.0000 0.0000 0.0000 18.7604 0.0000
# 6 0.0000 0.0000 0.0000 0.0000 0.0000 23.3771
#
#
#
# Elastic Compliance Matrix: (Units=1/GPa)
#
#
# Indices 1 2 3 4 5 6 
#
# 1 0.018197 -0.003192 -0.008794 0.000000 0.000000 0.000000
# 2 -0.003192 0.018197 -0.008794 0.000000 0.000000 0.000000
# 3 -0.008794 -0.008794 0.019045 0.000000 0.000000 0.000000
# 4 0.000000 0.000000 0.000000 0.053304 0.000000 0.000000
# 5 0.000000 0.000000 0.000000 0.000000 0.053304 0.000000
# 6 0.000000 0.000000 0.000000 0.000000 0.000000 0.042777
#
#
# Mechanical properties :
#
#
# Convention : Reuss Voigt Hill
#
# Bulk Modulus (GPa) = 72.04491 74.80370 73.42431
# Shear Modulus (GPa) = 19.91972 20.38383 20.15177
#
# Velocity S-wave (km/s) = 3.66825 3.71074 3.68956
# Velocity P-wave (km/s) = 8.16142 8.30003 8.23102
#
# Compressibility (1/GPa) = 0.01388023
#
# Stress axis : x y z
#
# Youngs Moduli (GPa) = 54.95530 54.95530 52.50682
#
# Poissons Ratio (x) = 0.17541 0.46172
# Poissons Ratio (y) = 0.17541 0.46172
# Poissons Ratio (z) = 0.48325 0.48325
#
# Static dielectric constant tensor:
#      x y z
#    x 1.474230 0.000000 0.000000 
#    y 0.000000 1.474230 0.000000 
#    z 0.000000 0.000000 1.498560 
# 
# From -- ./inp_files/5755.got.cif
#   From: 2010.05.17/outbox.cif.g08.bks.cpg/sg191_3_cif.got.tgz:5755.got - 2010.05.20 12:20:32.
