data_PCOD9587571
_publ_section_title
;
Structure prediction by ZEFSAII (Michael W. Deem and Ramdas Pophale) SiO2 
 PCOD9587571
Probable space group: P 6/M M M
;
_chemical_formula_sum "Si O2"
_cell_formula_units_Z 132
_cell_length_a 27.300622
_cell_length_b 27.300622
_cell_length_c 13.756120
_cell_angle_alpha 90.000000
_cell_angle_beta 90.000000
_cell_angle_gamma 120.000000
_cell_volume 8879.155689
_symmetry_space_group_name_H-M "P 6/M M M"
_symmetry_group_IT_number 191
_symmetry_cell_setting 'hexagonal'
loop_
_space_group_symop_operation_xyz
x,y,z
x-y,x,z
-y,x-y,z
-x,-y,z
-x+y,-x,z
y,-x+y,z
x-y,-y,-z
-x,-x+y,-z
y,x,-z
-y,-x,-z
-x+y,y,-z
x,x-y,-z
-x,-y,-z
-x+y,-x,-z
y,-x+y,-z
x,y,-z
x-y,x,-z
-y,x-y,-z
-x+y,y,z
x,x-y,z
-y,-x,z
y,x,z
x-y,-y,z
-x,-x+y,z
loop_
_atom_site_type_symbol
_atom_site_label
_atom_site_fract_x
_atom_site_fract_y
_atom_site_fract_z
Si Si1 0.559131 0.559131 0.390993
Si Si2 0.881047 0.384338 0.294044
Si Si3 0.065093 0.242606 0.885382
Si Si4 0.065628 0.439929 0.886263
Si Si5 0.845067 0.271859 0.386412
Si Si6 0.724056 0.658940 0.236174
O O1 0.500000 0.500000 0.395053
O O2 0.578684 0.578684 0.500000
O O3 0.600807 0.543302 0.337150
O O4 0.869325 0.434663 0.320583
O O5 0.891650 0.384218 0.179270
O O6 0.840103 0.323520 0.339219
O O7 0.112901 0.225801 0.867033
O O8 0.076173 0.295476 0.818496
O O9 0.000000 0.194162 0.868718
O O10 0.069151 0.258421 0.000000
O O11 0.069410 0.386942 0.843021
O O12 0.000000 0.423758 0.873442
O O13 0.078032 0.447210 0.000000
O O14 0.861200 0.284014 0.500000
O O15 0.786151 0.213850 0.380325
O O16 0.891551 0.266450 0.322158
O O17 0.691650 0.691650 0.271167
#
# Coordination Sequence:
#
# PCOD9587571 Si02
#       6
#    12  24  24  24  24  24
#     4   9  16  26  41  63  87 109 138 176 213 253
#     4  10  19  31  46  66  89 116 149 181 217 261
#     4   9  16  26  42  63  86 114 149 187 223 260
#     4   9  16  26  41  64  96 124 143 170 211 261
#     4  10  21  34  47  64  88 117 148 184 226 267
#     4   9  17  29  45  65  89 118 151 180 214 265
#
# _framework density 14.866279
#
# number of rings (size 3 to 8) (size 9 to 14) (size 15 to 20)
#    0.000    2.636    0.909    1.636    1.273    4.000 
#    0.000    0.909    0.000    5.455    0.000    1.273 
#    0.000    0.000    0.000    0.545    0.000    0.727 
#
# Total GULP energy -735370.968312 kJ/mol
# GULP energy per Si atom -5570.992184 kJ/mol
# Density = 1.483244 g / cm^3
# Si number density = 14.866279 Si / 1000 Ang^3
#
#
#
# Elastic Constant Matrix: (Units=GPa)
#
#
# Indices 1 2 3 4 5 6 
#
# 1 71.7963 41.2912 35.2235 0.0000 0.0000 0.0000
# 2 41.2912 71.7963 35.2235 0.0000 0.0000 0.0000
# 3 35.2235 35.2235 100.4626 0.0000 0.0000 0.0000
# 4 0.0000 0.0000 0.0000 17.2011 0.0000 0.0000
# 5 0.0000 0.0000 0.0000 0.0000 17.2011 0.0000
# 6 0.0000 0.0000 0.0000 0.0000 0.0000 15.2526
#
#
#
# Elastic Compliance Matrix: (Units=1/GPa)
#
#
# Indices 1 2 3 4 5 6 
#
# 1 0.022048 -0.010734 -0.003967 0.000000 0.000000 0.000000
# 2 -0.010734 0.022048 -0.003967 0.000000 0.000000 0.000000
# 3 -0.003967 -0.003967 0.012736 0.000000 0.000000 0.000000
# 4 0.000000 0.000000 0.000000 0.058136 0.000000 0.000000
# 5 0.000000 0.000000 0.000000 0.000000 0.058136 0.000000
# 6 0.000000 0.000000 0.000000 0.000000 0.000000 0.065563
#
#
# Mechanical properties :
#
#
# Convention : Reuss Voigt Hill
#
# Bulk Modulus (GPa) = 51.29239 51.94795 51.62017
# Shear Modulus (GPa) = 17.69925 18.75212 18.22568
#
# Velocity S-wave (km/s) = 3.45420 3.55545 3.50519
# Velocity P-wave (km/s) = 7.10535 7.20238 7.15403
#
# Compressibility (1/GPa) = 0.01949607
#
# Stress axis : x y z
#
# Youngs Moduli (GPa) = 45.35653 45.35653 78.52045
#
# Poissons Ratio (x) = 0.48685 0.31147
# Poissons Ratio (y) = 0.48685 0.31147
# Poissons Ratio (z) = 0.17992 0.17992
#
# Static dielectric constant tensor:
#      x y z
#    x 1.493670 0.000000 0.000000 
#    y 0.000000 1.493670 0.000000 
#    z 0.000000 0.000000 1.510920 
# 
# From -- ./inp_files/3358.got.cif
#   From: 2010.05.17/outbox.cif.g08.bks.cpg/sg191_2_cif.got.tgz:3358.got - 2010.05.20 12:20:32.
