data_PCOD9587963
_publ_section_title
;
Structure prediction by ZEFSAII (Michael W. Deem and Ramdas Pophale) SiO2 
 PCOD9587963
Probable space group: P 6/M M M
;
_chemical_formula_sum "Si O2"
_cell_formula_units_Z 138
_cell_length_a 30.949611
_cell_length_b 30.949611
_cell_length_c 7.466963
_cell_angle_alpha 90.000000
_cell_angle_beta 90.000000
_cell_angle_gamma 120.000000
_cell_volume 6194.197102
_symmetry_space_group_name_H-M "P 6/M M M"
_symmetry_group_IT_number 191
_symmetry_cell_setting 'hexagonal'
loop_
_space_group_symop_operation_xyz
x,y,z
x-y,x,z
-y,x-y,z
-x,-y,z
-x+y,-x,z
y,-x+y,z
x-y,-y,-z
-x,-x+y,-z
y,x,-z
-y,-x,-z
-x+y,y,-z
x,x-y,-z
-x,-y,-z
-x+y,-x,-z
y,-x+y,-z
x,y,-z
x-y,x,-z
-y,x-y,-z
-x+y,y,z
x,x-y,z
-y,-x,z
y,x,z
x-y,-y,z
-x,-x+y,z
loop_
_atom_site_type_symbol
_atom_site_label
_atom_site_fract_x
_atom_site_fract_y
_atom_site_fract_z
Si Si1 0.000000 0.826846 0.713574
Si Si2 0.091588 0.280736 0.716074
Si Si3 0.524134 0.946169 0.712297
Si Si4 0.566576 0.333369 0.781485
Si Si5 0.899390 0.000000 0.000000
Si Si6 0.697889 0.056897 0.208539
Si Si7 0.678083 0.141728 0.799836
O O1 0.950673 0.775146 0.761856
O O2 0.000000 0.869810 0.825081
O O3 0.000000 0.833462 0.500000
O O4 0.093182 0.284335 0.500000
O O5 0.145839 0.291678 0.777920
O O6 0.072711 0.317206 0.783207
O O7 0.531719 0.942311 0.500000
O O8 0.473728 0.947456 0.731312
O O9 0.517751 0.898171 0.808302
O O10 0.568295 0.000000 0.775401
O O11 0.576194 0.288097 0.733640
O O12 0.612682 0.387319 0.723721
O O13 0.510833 0.319714 0.719938
O O14 0.565418 0.335227 0.000000
O O15 0.951895 0.048106 0.000000
O O16 0.695448 0.104650 0.286317
O O17 0.664834 0.000000 0.282784
O O18 0.683273 0.054350 0.000000
O O19 0.700711 0.155698 0.000000
#
# Coordination Sequence:
#
# PCOD9587963 Si02
#       7
#    12  24  24  24   6  24  24
#     4  10  22  43  67  95 128 164 215 271 317 373
#     4  10  21  37  59  86 114 148 195 249 300 352
#     4   9  18  32  49  71 100 136 178 218 259 317
#     4   9  17  30  50  76 106 140 181 231 289 354
#     4  12  27  44  68 100 136 176 216 262 323 388
#     4  10  21  35  51  76 112 151 191 235 287 355
#     4  10  20  33  51  77 107 139 179 229 285 342
#
# _framework density 22.278918000000001
#
# number of rings (size 3 to 8) (size 9 to 14) (size 15 to 20)
#    0.000    2.261    0.870    2.304    1.217    5.565 
#    0.000    2.609    0.000    1.043    0.000    0.000 
#    0.000    1.391    0.000    0.000    0.000    0.000 
#
# Total GULP energy -769951.945431 kJ/mol
# GULP energy per Si atom -5579.361923 kJ/mol
# Density = 2.222821 g / cm^3
# Si number density = 22.278918 Si / 1000 Ang^3
#
#
#
# Elastic Constant Matrix: (Units=GPa)
#
#
# Indices 1 2 3 4 5 6 
#
# 1 161.1989 68.6024 16.7919 0.0000 0.0000 0.0000
# 2 68.6024 161.1989 16.7919 0.0000 0.0000 0.0000
# 3 16.7919 16.7919 52.1677 0.0000 0.0000 0.0000
# 4 0.0000 0.0000 0.0000 16.0720 0.0000 0.0000
# 5 0.0000 0.0000 0.0000 0.0000 16.0720 0.0000
# 6 0.0000 0.0000 0.0000 0.0000 0.0000 46.2982
#
#
#
# Elastic Compliance Matrix: (Units=1/GPa)
#
#
# Indices 1 2 3 4 5 6 
#
# 1 0.007683 -0.003117 -0.001470 0.000000 0.000000 0.000000
# 2 -0.003117 0.007683 -0.001470 0.000000 0.000000 0.000000
# 3 -0.001470 -0.001470 0.020115 0.000000 0.000000 0.000000
# 4 0.000000 0.000000 0.000000 0.062220 0.000000 0.000000
# 5 0.000000 0.000000 0.000000 0.000000 0.062220 0.000000
# 6 0.000000 0.000000 0.000000 0.000000 0.000000 0.021599
#
#
# Mechanical properties :
#
#
# Convention : Reuss Voigt Hill
#
# Bulk Modulus (GPa) = 42.79251 64.32645 53.55948
# Shear Modulus (GPa) = 24.82348 33.84707 29.33528
#
# Velocity S-wave (km/s) = 3.34161 3.90197 3.63261
# Velocity P-wave (km/s) = 5.84275 7.01687 6.45656
#
# Compressibility (1/GPa) = 0.02336858
#
# Stress axis : x y z
#
# Youngs Moduli (GPa) = 130.15800 130.15800 49.71373
#
# Poissons Ratio (x) = 0.40565 0.07307
# Poissons Ratio (y) = 0.40565 0.07307
# Poissons Ratio (z) = 0.19131 0.19131
#
# Static dielectric constant tensor:
#      x y z
#    x 1.815770 0.000000 0.000000 
#    y 0.000000 1.815770 0.000000 
#    z 0.000000 0.000000 1.798690 
# 
# From -- ./inp_files/2014.got.cif
#   From: 2010.05.17/outbox.cif.g08.bks.cpg/sg191_2_cif.got.tgz:2014.got - 2010.05.20 12:20:32.
