data_PCOD9587577
_publ_section_title
;
Structure prediction by ZEFSAII (Michael W. Deem and Ramdas Pophale) SiO2 
 PCOD9587577
Probable space group: P 6/M M M
;
_chemical_formula_sum "Si O2"
_cell_formula_units_Z 168
_cell_length_a 29.745285
_cell_length_b 29.745285
_cell_length_c 14.338730
_cell_angle_alpha 90.000000
_cell_angle_beta 90.000000
_cell_angle_gamma 120.000000
_cell_volume 10986.961116
_symmetry_space_group_name_H-M "P 6/M M M"
_symmetry_group_IT_number 191
_symmetry_cell_setting 'hexagonal'
loop_
_space_group_symop_operation_xyz
x,y,z
x-y,x,z
-y,x-y,z
-x,-y,z
-x+y,-x,z
y,-x+y,z
x-y,-y,-z
-x,-x+y,-z
y,x,-z
-y,-x,-z
-x+y,y,-z
x,x-y,-z
-x,-y,-z
-x+y,-x,-z
y,-x+y,-z
x,y,-z
x-y,x,-z
-y,x-y,-z
-x+y,y,z
x,x-y,z
-y,-x,z
y,x,z
x-y,-y,z
-x,-x+y,z
loop_
_atom_site_type_symbol
_atom_site_label
_atom_site_fract_x
_atom_site_fract_y
_atom_site_fract_z
Si Si1 0.234933 0.368714 0.269946
Si Si2 0.061662 0.578858 0.298005
Si Si3 0.060486 0.388810 0.389348
Si Si4 0.805429 0.509633 0.784376
Si Si5 0.531952 0.901690 0.894087
Si Si6 0.559309 0.225877 0.396020
Si Si7 0.715082 0.654351 0.106802
O O1 0.175930 0.351860 0.292552
O O2 0.270631 0.365959 0.350687
O O3 0.263514 0.429794 0.243435
O O4 0.242441 0.340556 0.180421
O O5 0.083673 0.541837 0.331612
O O6 0.079560 0.633775 0.346280
O O7 0.072168 0.588953 0.188026
O O8 0.000000 0.546980 0.314504
O O9 0.062734 0.392756 0.500000
O O10 0.000000 0.352591 0.360934
O O11 0.747062 0.494124 0.813292
O O12 0.841374 0.506224 0.863976
O O13 0.802111 0.477167 0.692217
O O14 0.594493 0.926490 0.887815
O O15 0.519182 0.907997 0.000000
O O16 0.536929 0.204773 0.500000
O O17 0.613077 0.226154 0.387627
O O18 0.569039 0.284520 0.393748
O O19 0.690986 0.690986 0.127513
O O20 0.733737 0.662985 0.000000
#
# Coordination Sequence:
#
# PCOD9587577 Si02
#       7
#    24  24  24  24  24  24  24
#     4  10  19  31  47  68  95 122 147 179 219 264
#     4  10  20  34  50  67  89 113 142 184 227 270
#     4  10  20  35  53  69  89 120 155 188 226 274
#     4   9  18  31  44  63  89 113 136 165 208 258
#     4  10  19  31  47  66  87 111 140 173 209 255
#     4   9  17  30  48  66  81  98 125 164 210 261
#     4   9  16  28  49  72  93 119 150 183 217 256
#
# _framework density 15.290851999999999
#
# number of rings (size 3 to 8) (size 9 to 14) (size 15 to 20)
#    0.000    2.429    2.857    1.000    0.000    4.000 
#    0.000    6.429    0.000    0.000    0.000    0.000 
#    0.000    1.143    0.000    0.000    0.000    0.000 
#
# Total GULP energy -936303.104200 kJ/mol
# GULP energy per Si atom -5573.232763 kJ/mol
# Density = 1.525605 g / cm^3
# Si number density = 15.290852 Si / 1000 Ang^3
#
#
#
# Elastic Constant Matrix: (Units=GPa)
#
#
# Indices 1 2 3 4 5 6 
#
# 1 54.3616 29.3409 25.1038 0.0000 0.0000 0.0000
# 2 29.3409 54.3616 25.1038 0.0000 0.0000 0.0000
# 3 25.1038 25.1038 61.1816 0.0000 0.0000 0.0000
# 4 0.0000 0.0000 0.0000 9.8245 0.0000 0.0000
# 5 0.0000 0.0000 0.0000 0.0000 9.8245 0.0000
# 6 0.0000 0.0000 0.0000 0.0000 0.0000 12.5104
#
#
#
# Elastic Compliance Matrix: (Units=1/GPa)
#
#
# Indices 1 2 3 4 5 6 
#
# 1 0.027907 -0.012060 -0.006502 0.000000 0.000000 0.000000
# 2 -0.012060 0.027907 -0.006502 0.000000 0.000000 0.000000
# 3 -0.006502 -0.006502 0.021681 0.000000 0.000000 0.000000
# 4 0.000000 0.000000 0.000000 0.101786 0.000000 0.000000
# 5 0.000000 0.000000 0.000000 0.000000 0.101786 0.000000
# 6 0.000000 0.000000 0.000000 0.000000 0.000000 0.079934
#
#
# Mechanical properties :
#
#
# Convention : Reuss Voigt Hill
#
# Bulk Modulus (GPa) = 36.54174 36.55577 36.54876
# Shear Modulus (GPa) = 11.89762 12.45564 12.17663
#
# Velocity S-wave (km/s) = 2.79245 2.85718 2.82500
# Velocity P-wave (km/s) = 5.86060 5.90284 5.88176
#
# Compressibility (1/GPa) = 0.02736596
#
# Stress axis : x y z
#
# Youngs Moduli (GPa) = 35.83308 35.83308 46.12346
#
# Poissons Ratio (x) = 0.43214 0.29992
# Poissons Ratio (y) = 0.43214 0.29992
# Poissons Ratio (z) = 0.23300 0.23300
#
# Static dielectric constant tensor:
#      x y z
#    x 1.522570 0.000000 0.000000 
#    y 0.000000 1.522570 0.000000 
#    z 0.000000 0.000000 1.526930 
# 
# From -- ./inp_files/5459.got.cif
#   From: 2010.05.17/outbox.cif.g08.bks.cpg/sg191_3_cif.got.tgz:5459.got - 2010.05.20 12:20:32.
