data_PCOD9587124
_publ_section_title
;
Structure prediction by ZEFSAII (Michael W. Deem and Ramdas Pophale) SiO2 
 PCOD9587124
Probable space group: P 6/M M M
;
_chemical_formula_sum "Si O2"
_cell_formula_units_Z 120
_cell_length_a 25.955416
_cell_length_b 25.955416
_cell_length_c 13.753391
_cell_angle_alpha 90.000000
_cell_angle_beta 90.000000
_cell_angle_gamma 120.000000
_cell_volume 8024.101422
_symmetry_space_group_name_H-M "P 6/M M M"
_symmetry_group_IT_number 191
_symmetry_cell_setting 'hexagonal'
loop_
_space_group_symop_operation_xyz
x,y,z
x-y,x,z
-y,x-y,z
-x,-y,z
-x+y,-x,z
y,-x+y,z
x-y,-y,-z
-x,-x+y,-z
y,x,-z
-y,-x,-z
-x+y,y,-z
x,x-y,-z
-x,-y,-z
-x+y,-x,-z
y,-x+y,-z
x,y,-z
x-y,x,-z
-y,x-y,-z
-x+y,y,z
x,x-y,z
-y,-x,z
y,x,z
x-y,-y,z
-x,-x+y,z
loop_
_atom_site_type_symbol
_atom_site_label
_atom_site_fract_x
_atom_site_fract_y
_atom_site_fract_z
Si Si1 0.816801 0.750428 0.116749
Si Si2 0.547691 0.213753 0.304742
Si Si3 0.477075 0.178096 0.111193
Si Si4 0.269783 0.417658 0.612324
Si Si5 0.364969 0.069281 0.796869
O O1 0.881152 0.762303 0.146352
O O2 0.802790 0.802790 0.139612
O O3 0.765197 0.690987 0.165477
O O4 0.811373 0.741554 0.000000
O O5 0.602519 0.205038 0.330299
O O6 0.564191 0.282096 0.316507
O O7 0.527538 0.195710 0.192429
O O8 0.487768 0.174506 0.366269
O O9 0.458072 0.229036 0.120976
O O10 0.421749 0.114168 0.138795
O O11 0.495941 0.179580 0.000000
O O12 0.273186 0.404189 0.500000
O O13 0.203389 0.406777 0.632489
O O14 0.286156 0.381467 0.688031
O O15 0.345628 0.000000 0.802884
#
# Coordination Sequence:
#
# PCOD9587124 Si02
#       5
#    24  24  24  24  24
#     4   9  16  25  39  61  88 115 142 174 211 248
#     4   9  17  29  46  68  90 110 134 166 204 245
#     4   9  17  29  44  62  87 117 143 167 201 248
#     4   9  18  32  47  62  83 111 139 167 205 254
#     4  10  18  27  43  65  85 107 139 177 214 250
#
# _framework density 14.954945
#
# number of rings (size 3 to 8) (size 9 to 14) (size 15 to 20)
#    0.000    2.800    0.000    3.800    0.000    4.000 
#    0.000    0.000    0.000   12.200    0.000   12.600 
#    0.000    0.000    0.000    0.000    0.000    0.000 
#
# Total GULP energy -668510.593711 kJ/mol
# GULP energy per Si atom -5570.921614 kJ/mol
# Density = 1.492091 g / cm^3
# Si number density = 14.954945 Si / 1000 Ang^3
#
#
#
# Elastic Constant Matrix: (Units=GPa)
#
#
# Indices 1 2 3 4 5 6 
#
# 1 51.1788 20.2410 -14.2436 0.0000 0.0000 0.0000
# 2 20.2410 51.1788 -14.2436 0.0000 0.0000 0.0000
# 3 -14.2436 -14.2436 23.3702 0.0000 0.0000 0.0000
# 4 0.0000 0.0000 0.0000 8.4090 0.0000 0.0000
# 5 0.0000 0.0000 0.0000 0.0000 8.4090 0.0000
# 6 0.0000 0.0000 0.0000 0.0000 0.0000 15.4689
#
#
#
# Elastic Compliance Matrix: (Units=1/GPa)
#
#
# Indices 1 2 3 4 5 6 
#
# 1 0.025411 -0.006912 0.011275 0.000000 0.000000 0.000000
# 2 -0.006912 0.025411 0.011275 0.000000 0.000000 0.000000
# 3 0.011275 0.011275 0.056533 0.000000 0.000000 0.000000
# 4 0.000000 0.000000 0.000000 0.118920 0.000000 0.000000
# 5 0.000000 0.000000 0.000000 0.000000 0.118920 0.000000
# 6 0.000000 0.000000 0.000000 0.000000 0.000000 0.064646
#
#
# Mechanical properties :
#
#
# Convention : Reuss Voigt Hill
#
# Bulk Modulus (GPa) = 7.21350 12.13726 9.67538
# Shear Modulus (GPa) = 11.77093 15.38900 13.57997
#
# Velocity S-wave (km/s) = 2.80856 3.21132 3.01667
# Velocity P-wave (km/s) = 3.91808 4.67799 4.31480
#
# Compressibility (1/GPa) = 0.13862894
#
# Stress axis : x y z
#
# Youngs Moduli (GPa) = 39.35329 39.35329 17.68885
#
# Poissons Ratio (x) = 0.27201 -0.19944
# Poissons Ratio (y) = 0.27201 -0.19944
# Poissons Ratio (z) = -0.44369 -0.44369
#
# Static dielectric constant tensor:
#      x y z
#    x 1.483380 0.000000 0.000000 
#    y 0.000000 1.483380 0.000000 
#    z 0.000000 0.000000 1.505810 
# 
# From -- ./inp_files/4649.got.cif
#   From: 2010.05.17/outbox.cif.g08.bks.cpg/sg191_3_cif.got.tgz:4649.got - 2010.05.20 12:20:32.
