data_PCOD9587247
_publ_section_title
;
Structure prediction by ZEFSAII (Michael W. Deem and Ramdas Pophale) SiO2 
 PCOD9587247
Probable space group: P 6/M M M
;
_chemical_formula_sum "Si O2"
_cell_formula_units_Z 180
_cell_length_a 26.081145
_cell_length_b 26.081145
_cell_length_c 19.125262
_cell_angle_alpha 90.000000
_cell_angle_beta 90.000000
_cell_angle_gamma 120.000000
_cell_volume 11266.559959
_symmetry_space_group_name_H-M "P 6/M M M"
_symmetry_group_IT_number 191
_symmetry_cell_setting 'hexagonal'
loop_
_space_group_symop_operation_xyz
x,y,z
x-y,x,z
-y,x-y,z
-x,-y,z
-x+y,-x,z
y,-x+y,z
x-y,-y,-z
-x,-x+y,-z
y,x,-z
-y,-x,-z
-x+y,y,-z
x,x-y,-z
-x,-y,-z
-x+y,-x,-z
y,-x+y,-z
x,y,-z
x-y,x,-z
-y,x-y,-z
-x+y,y,z
x,x-y,z
-y,-x,z
y,x,z
x-y,-y,z
-x,-x+y,z
loop_
_atom_site_type_symbol
_atom_site_label
_atom_site_fract_x
_atom_site_fract_y
_atom_site_fract_z
Si Si1 0.333012 0.551190 0.782104
Si Si2 0.215772 0.666148 0.385338
Si Si3 0.742538 0.931317 0.792754
Si Si4 0.551857 0.890189 0.845180
Si Si5 0.342076 0.111210 0.919664
Si Si6 0.535356 0.464645 0.918641
Si Si7 0.931057 0.636012 0.713124
Si Si8 0.852759 0.269739 0.423337
O O1 0.286484 0.572968 0.793739
O O2 0.398218 0.601783 0.802458
O O3 0.333395 0.540759 0.698835
O O4 0.314188 0.491950 0.824251
O O5 0.205239 0.602620 0.405820
O O6 0.283173 0.716828 0.399825
O O7 0.173610 0.686200 0.420486
O O8 0.759156 0.879578 0.783498
O O9 0.714356 0.924480 0.869877
O O10 0.685698 0.917568 0.744804
O O11 0.792747 0.000000 0.781274
O O12 0.603739 0.897897 0.896795
O O13 0.508729 0.911829 0.878090
O O14 0.586843 0.918950 0.772641
O O15 0.360230 0.180115 0.910519
O O16 0.327268 0.095150 0.000000
O O17 0.500000 0.500000 0.921801
O O18 0.546531 0.453469 0.000000
O O19 0.894010 0.609780 0.643267
O O20 0.000000 0.669082 0.696747
O O21 0.879833 0.273950 0.500000
O O22 0.795862 0.204139 0.415926
#
# Coordination Sequence:
#
# PCOD9587247 Si02
#       8
#    24  24  24  24  24  12  24  24
#     4  10  18  29  47  72  95 119 155 202 250 301
#     4   9  17  29  46  68  93 120 153 197 247 301
#     4   9  18  32  53  79 106 135 166 201 239 282
#     4  11  19  33  51  72  92 125 162 206 255 306
#     4   9  18  31  48  72  99 127 161 202 248 295
#     4  11  24  38  50  68  95 125 161 207 258 314
#     4  10  20  34  53  74  97 128 169 210 245 288
#     4  10  20  33  50  72  99 129 160 199 250 303
#
# _framework density 15.976482000000001
#
# number of rings (size 3 to 8) (size 9 to 14) (size 15 to 20)
#    0.000    2.200    2.000    1.867    0.000    3.467 
#    0.000    0.000    0.000    0.933    0.000    0.933 
#    0.000    0.000    0.000    3.333    0.000    0.000 
#
# Total GULP energy -1002954.072509 kJ/mol
# GULP energy per Si atom -5571.967069 kJ/mol
# Density = 1.594012 g / cm^3
# Si number density = 15.976482 Si / 1000 Ang^3
#
#
#
# Elastic Constant Matrix: (Units=GPa)
#
#
# Indices 1 2 3 4 5 6 
#
# 1 71.9107 36.9066 40.7078 0.0000 0.0000 0.0000
# 2 36.9066 71.9107 40.7078 0.0000 0.0000 0.0000
# 3 40.7078 40.7078 102.4163 0.0000 0.0000 0.0000
# 4 0.0000 0.0000 0.0000 -163.8462 0.0000 0.0000
# 5 0.0000 0.0000 0.0000 0.0000 -163.8462 0.0000
# 6 0.0000 0.0000 0.0000 0.0000 0.0000 17.5020
#
#
#
# Elastic Compliance Matrix: (Units=1/GPa)
#
#
# Indices 1 2 3 4 5 6 
#
# 1 0.020824 -0.007744 -0.005199 0.000000 0.000000 0.000000
# 2 -0.007744 0.020824 -0.005199 0.000000 0.000000 0.000000
# 3 -0.005199 -0.005199 0.013897 0.000000 0.000000 0.000000
# 4 0.000000 0.000000 0.000000 -0.006103 0.000000 0.000000
# 5 0.000000 0.000000 0.000000 0.000000 -0.006103 0.000000
# 6 0.000000 0.000000 0.000000 0.000000 0.000000 0.057136
#
#
# Mechanical properties :
#
#
# Convention : Reuss Voigt Hill
#
# Bulk Modulus (GPa) = 51.91939 53.65356 52.78647
# Shear Modulus (GPa) = 34.92169 -53.51036 -9.29433
#
# Velocity S-wave (km/s) = 4.68035 -5.79361 -2.41457
# Velocity P-wave (km/s) = 7.85974 3.33149 5.03372
#
# Compressibility (1/GPa) = 0.01926063
#
# Stress axis : x y z
#
# Youngs Moduli (GPa) = 48.02222 48.02222 71.95930
#
# Poissons Ratio (x) = 0.37190 0.37409
# Poissons Ratio (y) = 0.37190 0.37409
# Poissons Ratio (z) = 0.24965 0.24965
#
# Static dielectric constant tensor:
#      x y z
#    x 1.524570 0.000000 0.000000 
#    y 0.000000 1.524570 0.000000 
#    z 0.000000 0.000000 1.559360 
# 
# From -- ./inp_files/6882.got.cif
#   From: 2010.05.17/outbox.cif.g08.bks.cpg/sg191_4_cif.got.tgz:6882.got - 2010.05.20 12:20:32.
