data_PCOD9587521
_publ_section_title
;
Structure prediction by ZEFSAII (Michael W. Deem and Ramdas Pophale) SiO2 
 PCOD9587521
Probable space group: P 6/M M M
;
_chemical_formula_sum "Si O2"
_cell_formula_units_Z 132
_cell_length_a 18.361633
_cell_length_b 18.361633
_cell_length_c 26.743969
_cell_angle_alpha 90.000000
_cell_angle_beta 90.000000
_cell_angle_gamma 120.000000
_cell_volume 7808.706460
_symmetry_space_group_name_H-M "P 6/M M M"
_symmetry_group_IT_number 191
_symmetry_cell_setting 'hexagonal'
loop_
_space_group_symop_operation_xyz
x,y,z
x-y,x,z
-y,x-y,z
-x,-y,z
-x+y,-x,z
y,-x+y,z
x-y,-y,-z
-x,-x+y,-z
y,x,-z
-y,-x,-z
-x+y,y,-z
x,x-y,-z
-x,-y,-z
-x+y,-x,-z
y,-x+y,-z
x,y,-z
x-y,x,-z
-y,x-y,-z
-x+y,y,z
x,x-y,z
-y,-x,z
y,x,z
x-y,-y,z
-x,-x+y,z
loop_
_atom_site_type_symbol
_atom_site_label
_atom_site_fract_x
_atom_site_fract_y
_atom_site_fract_z
Si Si1 0.636029 0.095851 0.500000
Si Si2 0.165288 0.668575 0.608175
Si Si3 0.831663 0.831663 0.939129
Si Si4 0.905313 0.264318 0.693319
Si Si5 0.834855 0.500874 0.774294
Si Si6 0.000000 0.337462 0.940013
Si Si7 0.162066 0.666419 0.106284
O O1 0.546723 0.093446 0.500000
O O2 0.678262 0.141017 0.448401
O O3 0.614906 0.000000 0.500000
O O4 0.150088 0.575044 0.614647
O O5 0.262721 0.737280 0.616638
O O6 0.112853 0.690304 0.647129
O O7 0.831423 0.915712 0.922826
O O8 0.747294 0.747294 0.923838
O O9 0.832575 0.832575 0.000000
O O10 0.832953 0.167048 0.692301
O O11 0.890035 0.305812 0.742564
O O12 0.000000 0.283968 0.691574
O O13 0.737951 0.475903 0.765218
O O14 0.848949 0.424475 0.759026
O O15 0.849790 0.514534 0.833589
O O16 0.082911 0.418846 0.919902
O O17 0.000000 0.339320 0.000000
O O18 0.168383 0.584192 0.093214
O O19 0.248438 0.751563 0.093948
#
# Coordination Sequence:
#
# PCOD9587521 Si02
#       7
#    12  24  12  24  24  12  24
#     4   9  17  28  42  60  88 131 183 229 261 290
#     4  10  19  30  45  68 100 139 178 215 254 301
#     4   9  17  31  53  79 105 133 165 203 248 299
#     4  10  21  35  52  75 101 130 165 208 258 306
#     4   9  18  32  52  77 105 135 167 203 244 290
#     4  11  23  37  53  77 107 137 169 210 259 305
#     4  10  21  37  56  77 103 137 176 215 256 304
#
# _framework density 16.904208000000001
#
# number of rings (size 3 to 8) (size 9 to 14) (size 15 to 20)
#    0.000    2.273    0.000    2.818    1.273    5.818 
#    0.000    2.727    0.000    1.273    0.000    0.000 
#    0.000    0.000    0.000    0.000    0.000   18.909 
#
# Total GULP energy -736594.939605 kJ/mol
# GULP energy per Si atom -5580.264694 kJ/mol
# Density = 1.686573 g / cm^3
# Si number density = 16.904208 Si / 1000 Ang^3
#
#
#
# Elastic Constant Matrix: (Units=GPa)
#
#
# Indices 1 2 3 4 5 6 
#
# 1 125.8954 86.6170 42.8221 0.0000 0.0000 0.0000
# 2 86.6170 125.8954 42.8221 0.0000 0.0000 0.0000
# 3 42.8221 42.8221 36.8925 0.0000 0.0000 0.0000
# 4 0.0000 0.0000 0.0000 18.0291 0.0000 0.0000
# 5 0.0000 0.0000 0.0000 0.0000 18.0291 0.0000
# 6 0.0000 0.0000 0.0000 0.0000 0.0000 19.6392
#
#
#
# Elastic Compliance Matrix: (Units=1/GPa)
#
#
# Indices 1 2 3 4 5 6 
#
# 1 0.017150 -0.008309 -0.010263 0.000000 0.000000 0.000000
# 2 -0.008309 0.017150 -0.010263 0.000000 0.000000 0.000000
# 3 -0.010263 -0.010263 0.050930 0.000000 0.000000 0.000000
# 4 0.000000 0.000000 0.000000 0.055466 0.000000 0.000000
# 5 0.000000 0.000000 0.000000 0.000000 0.055466 0.000000
# 6 0.000000 0.000000 0.000000 0.000000 0.000000 0.050918
#
#
# Mechanical properties :
#
#
# Convention : Reuss Voigt Hill
#
# Bulk Modulus (GPa) = 36.28108 70.35617 53.31862
# Shear Modulus (GPa) = 15.92679 18.90096 17.41388
#
# Velocity S-wave (km/s) = 3.07282 3.34746 3.21308
# Velocity P-wave (km/s) = 5.83944 7.52672 6.73612
#
# Compressibility (1/GPa) = 0.02756258
#
# Stress axis : x y z
#
# Youngs Moduli (GPa) = 58.30777 58.30777 19.63488
#
# Poissons Ratio (x) = 0.48447 0.20150
# Poissons Ratio (y) = 0.48447 0.20150
# Poissons Ratio (z) = 0.59839 0.59839
#
# Static dielectric constant tensor:
#      x y z
#    x 1.555610 0.000000 0.000000 
#    y 0.000000 1.555610 0.000000 
#    z 0.000000 0.000000 1.579090 
# 
# From -- ./inp_files/8741.got.cif
#   From: 2010.05.17/outbox.cif.g08.bks.cpg/sg191_5_cif.got.tgz:8741.got - 2010.05.20 12:20:32.
