data_PCOD9587638
_publ_section_title
;
Structure prediction by ZEFSAII (Michael W. Deem and Ramdas Pophale) SiO2 
 PCOD9587638
Probable space group: P 6/M M M
;
_chemical_formula_sum "Si O2"
_cell_formula_units_Z 120
_cell_length_a 17.792976
_cell_length_b 17.792976
_cell_length_c 26.302411
_cell_angle_alpha 90.000000
_cell_angle_beta 90.000000
_cell_angle_gamma 120.000000
_cell_volume 7211.462963
_symmetry_space_group_name_H-M "P 6/M M M"
_symmetry_group_IT_number 191
_symmetry_cell_setting 'hexagonal'
loop_
_space_group_symop_operation_xyz
x,y,z
x-y,x,z
-y,x-y,z
-x,-y,z
-x+y,-x,z
y,-x+y,z
x-y,-y,-z
-x,-x+y,-z
y,x,-z
-y,-x,-z
-x+y,y,-z
x,x-y,-z
-x,-y,-z
-x+y,-x,-z
y,-x+y,-z
x,y,-z
x-y,x,-z
-y,x-y,-z
-x+y,y,z
x,x-y,z
-y,-x,z
y,x,z
x-y,-y,z
-x,-x+y,z
loop_
_atom_site_type_symbol
_atom_site_label
_atom_site_fract_x
_atom_site_fract_y
_atom_site_fract_z
Si Si1 0.532543 0.895297 0.399254
Si Si2 0.627851 0.896548 0.500000
Si Si3 0.488885 0.156175 0.199690
Si Si4 0.362774 0.895284 0.000000
Si Si5 0.270825 0.371679 0.100508
Si Si6 0.628372 0.729240 0.701164
O O1 0.429960 0.859920 0.399346
O O2 0.567731 0.874524 0.450204
O O3 0.567230 0.873428 0.348506
O O4 0.579205 0.000000 0.398980
O O5 0.669353 0.834677 0.500000
O O6 0.695274 0.000000 0.500000
O O7 0.573114 0.146228 0.199694
O O8 0.514354 0.257177 0.199705
O O9 0.430510 0.114027 0.149831
O O10 0.430463 0.113975 0.249527
O O11 0.306439 0.873647 0.949162
O O12 0.429898 0.859796 0.000000
O O13 0.420674 0.000000 0.000000
O O14 0.168605 0.337210 0.104874
O O15 0.299161 0.299161 0.096281
O O16 0.662936 0.831468 0.705615
O O17 0.700833 0.700833 0.696858
#
# Coordination Sequence:
#
# PCOD9587638 Si02
#       6
#    24  12  24  12  24  24
#     4   9  17  30  49  71  93 119 153 192 234 283
#     4  10  19  31  49  72  97 127 164 204 243 283
#     4  10  20  33  50  73 100 128 157 192 236 285
#     4   9  17  30  49  72  96 122 154 191 231 280
#     4  10  20  33  50  72  97 127 163 202 242 283
#     4  10  20  33  50  72  97 127 163 201 239 280
#
# _framework density 16.640173999999998
#
# number of rings (size 3 to 8) (size 9 to 14) (size 15 to 20)
#    0.000    2.300    0.000    3.200    0.000    4.400 
#    0.000    0.000    0.000   10.100    0.000    0.000 
#    0.000   12.000    0.000    0.000    0.000    2.000 
#
# Total GULP energy -669147.984578 kJ/mol
# GULP energy per Si atom -5576.233205 kJ/mol
# Density = 1.660230 g / cm^3
# Si number density = 16.640174 Si / 1000 Ang^3
#
#
#
# Elastic Constant Matrix: (Units=GPa)
#
#
# Indices 1 2 3 4 5 6 
#
# 1 95.4209 69.6688 37.6979 0.0000 0.0000 0.0000
# 2 69.6688 95.4209 37.6979 0.0000 0.0000 0.0000
# 3 37.6979 37.6979 147.1055 0.0000 0.0000 0.0000
# 4 0.0000 0.0000 0.0000 16.2838 0.0000 0.0000
# 5 0.0000 0.0000 0.0000 0.0000 16.2838 0.0000
# 6 0.0000 0.0000 0.0000 0.0000 0.0000 12.8761
#
#
#
# Elastic Compliance Matrix: (Units=1/GPa)
#
#
# Indices 1 2 3 4 5 6 
#
# 1 0.022846 -0.015986 -0.001758 0.000000 0.000000 0.000000
# 2 -0.015986 0.022846 -0.001758 0.000000 0.000000 0.000000
# 3 -0.001758 -0.001758 0.007699 0.000000 0.000000 0.000000
# 4 0.000000 0.000000 0.000000 0.061411 0.000000 0.000000
# 5 0.000000 0.000000 0.000000 0.000000 0.061411 0.000000
# 6 0.000000 0.000000 0.000000 0.000000 0.000000 0.077664
#
#
# Mechanical properties :
#
#
# Convention : Reuss Voigt Hill
#
# Bulk Modulus (GPa) = 69.50632 69.78626 69.64629
# Shear Modulus (GPa) = 16.79684 21.94760 19.37222
#
# Velocity S-wave (km/s) = 3.18058 3.63568 3.41572
# Velocity P-wave (km/s) = 7.43969 7.72358 7.58296
#
# Compressibility (1/GPa) = 0.01438718
#
# Stress axis : x y z
#
# Youngs Moduli (GPa) = 43.77137 43.77137 129.88905
#
# Poissons Ratio (x) = 0.69972 0.22835
# Poissons Ratio (y) = 0.69972 0.22835
# Poissons Ratio (z) = 0.07695 0.07695
#
# Static dielectric constant tensor:
#      x y z
#    x 1.554090 0.000000 0.000000 
#    y 0.000000 1.554090 0.000000 
#    z 0.000000 0.000000 1.561840 
# 
# From -- ./inp_files/8584.got.cif
#   From: 2010.05.17/outbox.cif.g08.bks.cpg/sg191_5_cif.got.tgz:8584.got - 2010.05.20 12:20:32.
