data_PCOD9587380
_publ_section_title
;
Structure prediction by ZEFSAII (Michael W. Deem and Ramdas Pophale) SiO2 
 PCOD9587380
Probable space group: P 6/M M M
;
_chemical_formula_sum "Si O2"
_cell_formula_units_Z 132
_cell_length_a 17.935828
_cell_length_b 17.935828
_cell_length_c 29.039805
_cell_angle_alpha 90.000000
_cell_angle_beta 90.000000
_cell_angle_gamma 120.000000
_cell_volume 8090.347732
_symmetry_space_group_name_H-M "P 6/M M M"
_symmetry_group_IT_number 191
_symmetry_cell_setting 'hexagonal'
loop_
_space_group_symop_operation_xyz
x,y,z
x-y,x,z
-y,x-y,z
-x,-y,z
-x+y,-x,z
y,-x+y,z
x-y,-y,-z
-x,-x+y,-z
y,x,-z
-y,-x,-z
-x+y,y,-z
x,x-y,-z
-x,-y,-z
-x+y,-x,-z
y,-x+y,-z
x,y,-z
x-y,x,-z
-y,x-y,-z
-x+y,y,z
x,x-y,z
-y,-x,z
y,x,z
x-y,-y,z
-x,-x+y,z
loop_
_atom_site_type_symbol
_atom_site_label
_atom_site_fract_x
_atom_site_fract_y
_atom_site_fract_z
Si Si1 0.370782 0.098512 0.089268
Si Si2 0.157854 0.667563 0.000000
Si Si3 0.359346 0.898862 0.449961
Si Si4 0.494197 0.163481 0.650107
Si Si5 0.490542 0.157995 0.821513
Si Si6 0.367643 0.097184 0.265928
O O1 0.342835 0.171418 0.088864
O O2 0.431595 0.116506 0.044942
O O3 0.429318 0.115769 0.134475
O O4 0.295095 0.000000 0.088816
O O5 0.258667 0.741334 0.000000
O O6 0.147355 0.573678 0.000000
O O7 0.316352 0.865978 0.500000
O O8 0.445986 0.891972 0.450842
O O9 0.315558 0.856083 0.402167
O O10 0.391712 0.000000 0.447481
O O11 0.572092 0.144184 0.654565
O O12 0.527100 0.263550 0.659725
O O13 0.419753 0.110651 0.686735
O O14 0.573765 0.147530 0.823031
O O15 0.517290 0.258645 0.821711
O O16 0.434552 0.117196 0.775707
O O17 0.341057 0.170529 0.263817
O O18 0.291243 0.000000 0.262269
#
# Coordination Sequence:
#
# PCOD9587380 Si02
#       6
#    24  12  24  24  24  24
#     4  10  21  35  51  72  97 127 162 202 247 289
#     4  10  20  33  50  73 102 134 165 196 232 277
#     4   8  14  25  40  56  75 105 149 197 237 269
#     4  10  19  29  42  62  90 123 157 191 226 265
#     4  10  20  33  50  73 102 134 165 195 227 265
#     4  10  21  35  51  71  93 119 151 189 233 277
#
# _framework density 16.315739000000001
#
# number of rings (size 3 to 8) (size 9 to 14) (size 15 to 20)
#    0.000    2.364    0.000    3.455    0.000    5.091 
#    0.000    3.636    0.000    1.455    0.000    0.000 
#    0.000    6.545    0.000    0.000    0.000    0.727 
#
# Total GULP energy -736036.712416 kJ/mol
# GULP energy per Si atom -5576.035700 kJ/mol
# Density = 1.627860 g / cm^3
# Si number density = 16.315739 Si / 1000 Ang^3
#
#
#
# Elastic Constant Matrix: (Units=GPa)
#
#
# Indices 1 2 3 4 5 6 
#
# 1 88.5063 72.3941 38.7041 0.0000 0.0000 0.0000
# 2 72.3941 88.5063 38.7041 0.0000 0.0000 0.0000
# 3 38.7041 38.7041 115.8642 0.0000 0.0000 0.0000
# 4 0.0000 0.0000 0.0000 -62.3618 0.0000 0.0000
# 5 0.0000 0.0000 0.0000 0.0000 -62.3618 0.0000
# 6 0.0000 0.0000 0.0000 0.0000 0.0000 8.0561
#
#
#
# Elastic Compliance Matrix: (Units=1/GPa)
#
#
# Indices 1 2 3 4 5 6 
#
# 1 0.034735 -0.027330 -0.002474 0.000000 0.000000 0.000000
# 2 -0.027330 0.034735 -0.002474 0.000000 0.000000 0.000000
# 3 -0.002474 -0.002474 0.010283 0.000000 0.000000 0.000000
# 4 0.000000 0.000000 0.000000 -0.016035 0.000000 0.000000
# 5 0.000000 0.000000 0.000000 0.000000 -0.016035 0.000000
# 6 0.000000 0.000000 0.000000 0.000000 0.000000 0.124130
#
#
# Mechanical properties :
#
#
# Convention : Reuss Voigt Hill
#
# Bulk Modulus (GPa) = 65.79377 65.83124 65.81250
# Shear Modulus (GPa) = 20.70967 -13.79519 3.45724
#
# Velocity S-wave (km/s) = 3.56660 -2.91093 1.45724
# Velocity P-wave (km/s) = 7.57454 5.39795 6.57691
#
# Compressibility (1/GPa) = 0.01519901
#
# Stress axis : x y z
#
# Youngs Moduli (GPa) = 28.78940 28.78940 97.24391
#
# Poissons Ratio (x) = 0.78681 0.24055
# Poissons Ratio (y) = 0.78681 0.24055
# Poissons Ratio (z) = 0.07121 0.07121
#
# Static dielectric constant tensor:
#      x y z
#    x 1.534510 0.000000 0.000000 
#    y 0.000000 1.534510 0.000000 
#    z 0.000000 0.000000 1.582620 
# 
# From -- ./inp_files/9702.got.cif
#   From: 2010.05.17/outbox.cif.g08.bks.cpg/sg191_5_cif.got.tgz:9702.got - 2010.05.20 12:20:32.
