data_PCOD9587715
_publ_section_title
;
Structure prediction by ZEFSAII (Michael W. Deem and Ramdas Pophale) SiO2 
 PCOD9587715
Probable space group: P 6/M M M
;
_chemical_formula_sum "Si O2"
_cell_formula_units_Z 78
_cell_length_a 27.538976
_cell_length_b 27.538976
_cell_length_c 7.733871
_cell_angle_alpha 90.000000
_cell_angle_beta 90.000000
_cell_angle_gamma 120.000000
_cell_volume 5079.525333
_symmetry_space_group_name_H-M "P 6/M M M"
_symmetry_group_IT_number 191
_symmetry_cell_setting 'hexagonal'
loop_
_space_group_symop_operation_xyz
x,y,z
x-y,x,z
-y,x-y,z
-x,-y,z
-x+y,-x,z
y,-x+y,z
x-y,-y,-z
-x,-x+y,-z
y,x,-z
-y,-x,-z
-x+y,y,-z
x,x-y,-z
-x,-y,-z
-x+y,-x,-z
y,-x+y,-z
x,y,-z
x-y,x,-z
-y,x-y,-z
-x+y,y,z
x,x-y,z
-y,-x,z
y,x,z
x-y,-y,z
-x,-x+y,z
loop_
_atom_site_type_symbol
_atom_site_label
_atom_site_fract_x
_atom_site_fract_y
_atom_site_fract_z
Si Si1 0.337520 0.405281 0.200610
Si Si2 0.685912 0.898658 0.790842
Si Si3 0.521439 0.589671 0.500000
Si Si4 0.883910 0.000000 0.000000
Si Si5 0.806481 0.000000 0.692272
O O1 0.367528 0.367528 0.206344
O O2 0.273571 0.364796 0.258184
O O3 0.371546 0.456539 0.330274
O O4 0.338524 0.421905 0.000000
O O5 0.675641 0.837821 0.742896
O O6 0.744997 0.946128 0.717331
O O7 0.690756 0.904149 0.000000
O O8 0.554356 0.554356 0.500000
O O9 0.456072 0.543929 0.500000
O O10 0.888452 0.944226 0.000000
O O11 0.848284 0.000000 0.834881
O O12 0.827210 0.000000 0.500000
#
# Coordination Sequence:
#
# PCOD9587715 Si02
#       5
#    24  24  12   6  12
#     4   9  17  29  45  66  94 125 162 202 237 281
#     4  10  19  33  52  74 101 134 167 207 259 311
#     4   9  18  30  45  64  90 125 161 194 224 262
#     4  12  27  48  64  76  96 124 165 222 284 342
#     4  12  24  37  57  81 104 127 165 211 262 329
#
# _framework density 15.355765999999999
#
# number of rings (size 3 to 8) (size 9 to 14) (size 15 to 20)
#    0.000    2.000    3.077    1.000    2.154    3.077 
#    0.000    3.077    0.000    0.923    0.000    0.000 
#    0.000    0.000    0.000    3.692    0.000   24.000 
#
# Total GULP energy -435323.494230 kJ/mol
# GULP energy per Si atom -5581.070439 kJ/mol
# Density = 1.532082 g / cm^3
# Si number density = 15.355766 Si / 1000 Ang^3
#
#
#
# Elastic Constant Matrix: (Units=GPa)
#
#
# Indices 1 2 3 4 5 6 
#
# 1 87.5868 63.6873 58.2382 0.0000 0.0000 0.0000
# 2 63.6873 87.5868 58.2382 0.0000 0.0000 0.0000
# 3 58.2382 58.2382 99.1263 0.0000 0.0000 0.0000
# 4 0.0000 0.0000 0.0000 -25.6671 0.0000 0.0000
# 5 0.0000 0.0000 0.0000 0.0000 -25.6671 0.0000
# 6 0.0000 0.0000 0.0000 0.0000 0.0000 11.9498
#
#
#
# Elastic Compliance Matrix: (Units=1/GPa)
#
#
# Indices 1 2 3 4 5 6 
#
# 1 0.026956 -0.014885 -0.007092 0.000000 0.000000 0.000000
# 2 -0.014885 0.026956 -0.007092 0.000000 0.000000 0.000000
# 3 -0.007092 -0.007092 0.018421 0.000000 0.000000 0.000000
# 4 0.000000 0.000000 0.000000 -0.038960 0.000000 0.000000
# 5 0.000000 0.000000 0.000000 0.000000 -0.038960 0.000000
# 6 0.000000 0.000000 0.000000 0.000000 0.000000 0.083684
#
#
# Mechanical properties :
#
#
# Convention : Reuss Voigt Hill
#
# Bulk Modulus (GPa) = 70.44344 70.51414 70.47879
# Shear Modulus (GPa) = 35.46913 -1.60111 16.93401
#
# Velocity S-wave (km/s) = 4.81128 -1.02222 3.32441
# Velocity P-wave (km/s) = 8.76575 6.68032 7.79311
#
# Compressibility (1/GPa) = 0.01419579
#
# Stress axis : x y z
#
# Youngs Moduli (GPa) = 37.09684 37.09684 54.28478
#
# Poissons Ratio (x) = 0.55220 0.38498
# Poissons Ratio (y) = 0.55220 0.38498
# Poissons Ratio (z) = 0.26309 0.26309
#
# Static dielectric constant tensor:
#      x y z
#    x 1.485690 0.000000 0.000000 
#    y 0.000000 1.485690 0.000000 
#    z 0.000000 0.000000 1.548120 
# 
# From -- ./inp_files/1096.got.cif
#   From: 2010.05.17/outbox.cif.g08.bks.cpg/sg191_1_cif.got.tgz:1096.got - 2010.05.20 12:20:32.
