data_PCOD9587415
_publ_section_title
;
Structure prediction by ZEFSAII (Michael W. Deem and Ramdas Pophale) SiO2 
 PCOD9587415
Probable space group: P 6/M M M
;
_chemical_formula_sum "Si O2"
_cell_formula_units_Z 120
_cell_length_a 18.352830
_cell_length_b 18.352830
_cell_length_c 27.732460
_cell_angle_alpha 90.000000
_cell_angle_beta 90.000000
_cell_angle_gamma 120.000000
_cell_volume 8089.563913
_symmetry_space_group_name_H-M "P 6/M M M"
_symmetry_group_IT_number 191
_symmetry_cell_setting 'hexagonal'
loop_
_space_group_symop_operation_xyz
x,y,z
x-y,x,z
-y,x-y,z
-x,-y,z
-x+y,-x,z
y,-x+y,z
x-y,-y,-z
-x,-x+y,-z
y,x,-z
-y,-x,-z
-x+y,y,-z
x,x-y,-z
-x,-y,-z
-x+y,-x,-z
y,-x+y,-z
x,y,-z
x-y,x,-z
-y,x-y,-z
-x+y,y,z
x,x-y,z
-y,-x,z
y,x,z
x-y,-y,z
-x,-x+y,z
loop_
_atom_site_type_symbol
_atom_site_label
_atom_site_fract_x
_atom_site_fract_y
_atom_site_fract_z
Si Si1 0.503375 0.668344 0.603860
Si Si2 0.332339 0.492079 0.878962
Si Si3 0.459867 0.363250 0.500000
Si Si4 0.902213 0.264826 0.206016
Si Si5 0.000000 0.588192 0.054998
Si Si6 0.094071 0.739282 0.318276
O O1 0.476051 0.738026 0.611478
O O2 0.424283 0.575718 0.607431
O O3 0.540917 0.680351 0.549997
O O4 0.572064 0.684325 0.644087
O O5 0.249156 0.498311 0.890161
O O6 0.415879 0.584122 0.877793
O O7 0.315773 0.443535 0.827996
O O8 0.349171 0.434574 0.916590
O O9 0.387953 0.387953 0.500000
O O10 0.549163 0.450838 0.500000
O O11 0.833998 0.166003 0.197917
O O12 0.897031 0.281649 0.262712
O O13 0.000000 0.295442 0.195643
O O14 0.000000 0.500000 0.053833
O O15 0.000000 0.614918 0.000000
O O16 0.164831 0.835170 0.326652
O O17 0.000000 0.720251 0.324450
#
# Coordination Sequence:
#
# PCOD9587415 Si02
#       6
#    24  24  12  24  12  24
#     4  10  19  30  43  61  86 118 153 188 224 264
#     4  10  19  31  47  68  94 124 157 192 231 273
#     4   9  17  28  42  58  78 107 147 191 229 264
#     4   9  17  30  48  69  92 119 150 185 226 273
#     4   9  18  32  48  66  90 120 153 190 230 268
#     4   9  18  31  47  67  90 116 147 183 226 272
#
# _framework density 14.833926999999999
#
# number of rings (size 3 to 8) (size 9 to 14) (size 15 to 20)
#    0.000    2.600    1.000    1.300    0.000    2.400 
#    0.000    3.000    0.000    4.000    0.000    2.800 
#    0.000    0.000    0.000    0.000    0.000   29.900 
#
# Total GULP energy -668015.192225 kJ/mol
# GULP energy per Si atom -5566.793269 kJ/mol
# Density = 1.480016 g / cm^3
# Si number density = 14.833927 Si / 1000 Ang^3
#
#
#
# Elastic Constant Matrix: (Units=GPa)
#
#
# Indices 1 2 3 4 5 6 
#
# 1 84.4431 60.7900 52.0378 0.0000 0.0000 0.0000
# 2 60.7900 84.4431 52.0378 0.0000 0.0000 0.0000
# 3 52.0378 52.0378 83.5548 0.0000 0.0000 0.0000
# 4 0.0000 0.0000 0.0000 19.2814 0.0000 0.0000
# 5 0.0000 0.0000 0.0000 0.0000 19.2814 0.0000
# 6 0.0000 0.0000 0.0000 0.0000 0.0000 11.8265
#
#
#
# Elastic Compliance Matrix: (Units=1/GPa)
#
#
# Indices 1 2 3 4 5 6 
#
# 1 0.027357 -0.014921 -0.007745 0.000000 0.000000 0.000000
# 2 -0.014921 0.027357 -0.007745 0.000000 0.000000 0.000000
# 3 -0.007745 -0.007745 0.021615 0.000000 0.000000 0.000000
# 4 0.000000 0.000000 0.000000 0.051864 0.000000 0.000000
# 5 0.000000 0.000000 0.000000 0.000000 0.051864 0.000000
# 6 0.000000 0.000000 0.000000 0.000000 0.000000 0.084556
#
#
# Mechanical properties :
#
#
# Convention : Reuss Voigt Hill
#
# Bulk Modulus (GPa) = 64.48757 64.68580 64.58668
# Shear Modulus (GPa) = 15.12396 15.91623 15.52009
#
# Velocity S-wave (km/s) = 3.19651 3.27916 3.23810
# Velocity P-wave (km/s) = 7.56247 7.61830 7.59044
#
# Compressibility (1/GPa) = 0.01550686
#
# Stress axis : x y z
#
# Youngs Moduli (GPa) = 36.55422 36.55422 46.26399
#
# Poissons Ratio (x) = 0.54543 0.35831
# Poissons Ratio (y) = 0.54543 0.35831
# Poissons Ratio (z) = 0.28311 0.28311
#
# Static dielectric constant tensor:
#      x y z
#    x 1.481400 0.000000 0.000000 
#    y 0.000000 1.481400 0.000000 
#    z 0.000000 0.000000 1.501710 
# 
# From -- ./inp_files/9630.got.cif
#   From: 2010.05.17/outbox.cif.g08.bks.cpg/sg191_5_cif.got.tgz:9630.got - 2010.05.20 12:20:32.
