data_PCOD9587338
_publ_section_title
;
Structure prediction by ZEFSAII (Michael W. Deem and Ramdas Pophale) SiO2 
 PCOD9587338
Probable space group: P 6/M M M
;
_chemical_formula_sum "Si O2"
_cell_formula_units_Z 112
_cell_length_a 30.879620
_cell_length_b 30.879620
_cell_length_c 9.017509
_cell_angle_alpha 90.000000
_cell_angle_beta 90.000000
_cell_angle_gamma 120.000000
_cell_volume 7446.652894
_symmetry_space_group_name_H-M "P 6/M M M"
_symmetry_group_IT_number 191
_symmetry_cell_setting 'hexagonal'
loop_
_space_group_symop_operation_xyz
x,y,z
x-y,x,z
-y,x-y,z
-x,-y,z
-x+y,-x,z
y,-x+y,z
x-y,-y,-z
-x,-x+y,-z
y,x,-z
-y,-x,-z
-x+y,y,-z
x,x-y,-z
-x,-y,-z
-x+y,-x,-z
y,-x+y,-z
x,y,-z
x-y,x,-z
-y,x-y,-z
-x+y,y,z
x,x-y,z
-y,-x,z
y,x,z
x-y,-y,z
-x,-x+y,z
loop_
_atom_site_type_symbol
_atom_site_label
_atom_site_fract_x
_atom_site_fract_y
_atom_site_fract_z
Si Si1 0.148977 0.749504 0.677001
Si Si2 0.201575 0.696522 0.176031
Si Si3 0.333334 0.666667 0.676787
Si Si4 0.942277 0.248165 0.177195
Si Si5 0.775427 0.387714 0.821631
Si Si6 0.056678 0.844960 0.677928
O O1 0.143927 0.746885 0.500000
O O2 0.195013 0.804988 0.715806
O O3 0.166169 0.711222 0.735056
O O4 0.098440 0.740699 0.751910
O O5 0.258733 0.741267 0.202821
O O6 0.197426 0.643862 0.214336
O O7 0.192369 0.697086 0.000000
O O8 0.333334 0.666667 0.500000
O O9 0.361314 0.722628 0.739636
O O10 0.933734 0.195857 0.242340
O O11 0.000000 0.288732 0.212685
O O12 0.936927 0.244769 0.000000
O O13 0.766384 0.383192 0.000000
O O14 0.059241 0.839230 0.500000
O O15 0.099526 0.900475 0.718150
O O16 0.000000 0.830533 0.713702
#
# Coordination Sequence:
#
# PCOD9587338 Si02
#       6
#    24  24   4  24  12  24
#     4  10  20  32  46  66  95 124 150 181 221 271
#     4   9  17  29  47  66  88 120 157 192 223 261
#     4  12  22  26  40  66  94 125 157 198 238 266
#     4  10  20  32  47  68  91 115 148 187 225 269
#     4  10  18  32  48  64  89 125 164 194 226 271
#     4   9  17  29  45  65  90 120 152 185 224 268
#
# _framework density 15.040315
#
# number of rings (size 3 to 8) (size 9 to 14) (size 15 to 20)
#    0.000    2.357    1.071    2.250    0.000    6.429 
#    0.000    0.000    0.000    0.214    0.000    2.250 
#    0.000    6.000    0.000    5.357    0.000    5.571 
#
# Total GULP energy -624545.843569 kJ/mol
# GULP energy per Si atom -5576.302175 kJ/mol
# Density = 1.500608 g / cm^3
# Si number density = 15.040315 Si / 1000 Ang^3
#
#
#
# Elastic Constant Matrix: (Units=GPa)
#
#
# Indices 1 2 3 4 5 6 
#
# 1 116.8357 70.1179 48.0921 0.0000 0.0000 0.0000
# 2 70.1179 116.8358 48.0921 0.0000 0.0000 0.0000
# 3 48.0921 48.0921 36.6263 0.0001 0.0000 0.0000
# 4 0.0000 0.0000 0.0001 19.8913 0.0000 0.0000
# 5 0.0000 0.0000 0.0000 0.0000 19.8913 0.0000
# 6 0.0000 0.0000 0.0000 0.0000 0.0000 23.3589
#
#
#
# Elastic Compliance Matrix: (Units=1/GPa)
#
#
# Indices 1 2 3 4 5 6 
#
# 1 0.018945 -0.002460 -0.021646 0.000000 0.000000 0.000000
# 2 -0.002460 0.018945 -0.021646 0.000000 0.000000 0.000000
# 3 -0.021646 -0.021646 0.084148 0.000000 0.000000 0.000000
# 4 0.000000 0.000000 0.000000 0.050273 0.000000 0.000000
# 5 0.000000 0.000000 0.000000 0.000000 0.050273 0.000000
# 6 0.000000 0.000000 0.000000 0.000000 0.000000 0.042810
#
#
# Mechanical properties :
#
#
# Convention : Reuss Voigt Hill
#
# Bulk Modulus (GPa) = 32.75053 66.98913 49.86983
# Shear Modulus (GPa) = 13.62110 19.56136 16.59123
#
# Velocity S-wave (km/s) = 3.01265 3.61029 3.32492
# Velocity P-wave (km/s) = 5.82442 7.87498 6.92601
#
# Compressibility (1/GPa) = 0.03053386
#
# Stress axis : x y z
#
# Youngs Moduli (GPa) = 52.78352 52.78354 11.88385
#
# Poissons Ratio (x) = 0.12984 0.25724
# Poissons Ratio (y) = 0.12984 0.25724
# Poissons Ratio (z) = 1.14256 1.14257
#
# Static dielectric constant tensor:
#      x y z
#    x 1.488330 0.000000 0.000000 
#    y 0.000000 1.488330 0.000000 
#    z 0.000000 0.000000 1.500470 
# 
# From -- ./inp_files/1775.got.cif
#   From: 2010.05.17/outbox.cif.g08.bks.cpg/sg191_1_cif.got.tgz:1775.got - 2010.05.20 12:20:32.
