data_PCOD9587069
_publ_section_title
;
Structure prediction by ZEFSAII (Michael W. Deem and Ramdas Pophale) SiO2 
 PCOD9587069
Probable space group: P 6/M M M
;
_chemical_formula_sum "Si O2"
_cell_formula_units_Z 168
_cell_length_a 23.756454
_cell_length_b 23.756454
_cell_length_c 22.127641
_cell_angle_alpha 90.000000
_cell_angle_beta 90.000000
_cell_angle_gamma 120.000000
_cell_volume 10815.061194
_symmetry_space_group_name_H-M "P 6/M M M"
_symmetry_group_IT_number 191
_symmetry_cell_setting 'hexagonal'
loop_
_space_group_symop_operation_xyz
x,y,z
x-y,x,z
-y,x-y,z
-x,-y,z
-x+y,-x,z
y,-x+y,z
x-y,-y,-z
-x,-x+y,-z
y,x,-z
-y,-x,-z
-x+y,y,-z
x,x-y,-z
-x,-y,-z
-x+y,-x,-z
y,-x+y,-z
x,y,-z
x-y,x,-z
-y,x-y,-z
-x+y,y,z
x,x-y,z
-y,-x,z
y,x,z
x-y,-y,z
-x,-x+y,z
loop_
_atom_site_type_symbol
_atom_site_label
_atom_site_fract_x
_atom_site_fract_y
_atom_site_fract_z
Si Si1 0.464968 0.666169 0.928833
Si Si2 0.076220 0.601389 0.402245
Si Si3 0.924515 0.397635 0.742955
Si Si4 0.125378 0.382427 0.433152
Si Si5 0.927465 0.201936 0.664866
Si Si6 0.719822 0.925018 0.808215
Si Si7 0.146917 0.720623 0.830470
O O1 0.448320 0.724160 0.921126
O O2 0.402750 0.597251 0.911918
O O3 0.527886 0.686003 0.887995
O O4 0.478255 0.664045 0.000000
O O5 0.094898 0.547449 0.420336
O O6 0.081160 0.607686 0.329441
O O7 0.117161 0.672324 0.429085
O O8 0.000000 0.571079 0.417890
O O9 0.910386 0.455193 0.761064
O O10 0.879295 0.331113 0.776627
O O11 0.000000 0.423450 0.758039
O O12 0.103023 0.352389 0.500000
O O13 0.199266 0.398532 0.426076
O O14 0.085337 0.333211 0.379387
O O15 0.871152 0.128849 0.651838
O O16 0.921786 0.214960 0.735636
O O17 0.000000 0.216355 0.655194
O O18 0.739684 0.869842 0.820656
O O19 0.650502 0.901886 0.839600
O O20 0.771868 0.000000 0.822353
O O21 0.216173 0.783828 0.815462
#
# Coordination Sequence:
#
# PCOD9587069 Si02
#       7
#    24  24  24  24  24  24  24
#     4   9  17  29  44  61  84 117 156 193 224 253
#     4   9  18  31  46  64  83 104 134 172 212 253
#     4   9  17  29  44  61  83 111 140 170 207 253
#     4  10  20  31  43  61  84 109 137 170 210 255
#     4   9  17  29  45  65  89 115 141 170 205 246
#     4   9  17  29  46  67  89 113 141 173 209 250
#     4  10  18  26  41  66  90 112 142 179 217 255
#
# _framework density 15.533892
#
# number of rings (size 3 to 8) (size 9 to 14) (size 15 to 20)
#    0.000    2.714    0.000    3.143    0.000    6.000 
#    0.000    0.714    0.000    2.571    0.000    7.000 
#    0.000    0.000    0.000    3.571    0.000    3.714 
#
# Total GULP energy -936021.117899 kJ/mol
# GULP energy per Si atom -5571.554273 kJ/mol
# Density = 1.549854 g / cm^3
# Si number density = 15.533892 Si / 1000 Ang^3
#
#
#
# Elastic Constant Matrix: (Units=GPa)
#
#
# Indices 1 2 3 4 5 6 
#
# 1 84.2165 52.6081 30.3649 0.0000 0.0000 0.0000
# 2 52.6081 84.2165 30.3649 0.0000 0.0000 0.0000
# 3 30.3649 30.3649 30.6738 0.0000 0.0000 0.0000
# 4 0.0000 0.0000 0.0000 9.9363 0.0000 0.0000
# 5 0.0000 0.0000 0.0000 0.0000 9.9363 0.0000
# 6 0.0000 0.0000 0.0000 0.0000 0.0000 15.8042
#
#
#
# Elastic Compliance Matrix: (Units=1/GPa)
#
#
# Indices 1 2 3 4 5 6 
#
# 1 0.022337 -0.009300 -0.012906 0.000000 0.000000 0.000000
# 2 -0.009300 0.022337 -0.012906 0.000000 0.000000 0.000000
# 3 -0.012906 -0.012906 0.058152 0.000000 0.000000 0.000000
# 4 0.000000 0.000000 0.000000 0.100641 0.000000 0.000000
# 5 0.000000 0.000000 0.000000 0.000000 0.100641 0.000000
# 6 0.000000 0.000000 0.000000 0.000000 0.000000 0.063274
#
#
# Mechanical properties :
#
#
# Convention : Reuss Voigt Hill
#
# Bulk Modulus (GPa) = 30.67128 47.30918 38.99023
# Shear Modulus (GPa) = 11.14892 12.85325 12.00109
#
# Velocity S-wave (km/s) = 2.68193 2.87963 2.78254
# Velocity P-wave (km/s) = 5.42014 6.44810 5.95634
#
# Compressibility (1/GPa) = 0.03260379
#
# Stress axis : x y z
#
# Youngs Moduli (GPa) = 44.76879 44.76879 17.19623
#
# Poissons Ratio (x) = 0.41636 0.22193
# Poissons Ratio (y) = 0.41636 0.22193
# Poissons Ratio (z) = 0.57776 0.57776
#
# Static dielectric constant tensor:
#      x y z
#    x 1.513320 0.000000 0.000000 
#    y 0.000000 1.513320 0.000000 
#    z 0.000000 0.000000 1.524640 
# 
# From -- ./inp_files/7920.got.cif
#   From: 2010.05.17/outbox.cif.g08.bks.cpg/sg191_4_cif.got.tgz:7920.got - 2010.05.20 12:20:32.
