data_PCOD9587858
_publ_section_title
;
Structure prediction by ZEFSAII (Michael W. Deem and Ramdas Pophale) SiO2 
 PCOD9587858
Probable space group: P 6/M M M
;
_chemical_formula_sum "Si O2"
_cell_formula_units_Z 72
_cell_length_a 17.447558
_cell_length_b 17.447558
_cell_length_c 16.607395
_cell_angle_alpha 90.000000
_cell_angle_beta 90.000000
_cell_angle_gamma 120.000000
_cell_volume 4378.258993
_symmetry_space_group_name_H-M "P 6/M M M"
_symmetry_group_IT_number 191
_symmetry_cell_setting 'hexagonal'
loop_
_space_group_symop_operation_xyz
x,y,z
x-y,x,z
-y,x-y,z
-x,-y,z
-x+y,-x,z
y,-x+y,z
x-y,-y,-z
-x,-x+y,-z
y,x,-z
-y,-x,-z
-x+y,y,-z
x,x-y,-z
-x,-y,-z
-x+y,-x,-z
y,-x+y,-z
x,y,-z
x-y,x,-z
-y,x-y,-z
-x+y,y,z
x,x-y,z
-y,-x,z
y,x,z
x-y,-y,z
-x,-x+y,z
loop_
_atom_site_type_symbol
_atom_site_label
_atom_site_fract_x
_atom_site_fract_y
_atom_site_fract_z
Si Si1 0.375957 0.096431 0.000000
Si Si2 0.000000 0.817091 0.408212
Si Si3 0.667011 0.152477 0.591973
Si Si4 0.000000 0.333276 0.306604
Si Si5 0.591577 0.000000 0.133832
O O1 0.423993 0.083390 0.921916
O O2 0.368847 0.184424 0.000000
O O3 0.283425 0.000000 0.000000
O O4 0.912304 0.824608 0.402158
O O5 0.000000 0.753837 0.338168
O O6 0.000000 0.783049 0.500000
O O7 0.668546 0.123337 0.500000
O O8 0.577049 0.154098 0.602600
O O9 0.750454 0.249547 0.601344
O O10 0.671570 0.085754 0.653338
O O11 0.000000 0.356718 0.213519
O O12 0.500000 0.000000 0.148976
#
# Coordination Sequence:
#
# PCOD9587858 Si02
#       5
#    12  12  24  12  12
#     4   8  18  36  62  85 110 140 182 223 274 338
#     4  10  21  37  55  77 107 146 193 243 290 334
#     4  10  20  33  48  68  99 141 186 230 274 320
#     4  12  21  32  52  79 111 136 179 227 273 328
#     4   9  20  36  57  82 113 144 180 219 273 331
#
# _framework density 16.444893
#
# number of rings (size 3 to 8) (size 9 to 14) (size 15 to 20)
#    1.000    1.000    0.000    5.500    0.000    8.667 
#    0.000    0.000    0.000    2.833    0.000    0.000 
#    0.000    0.000    0.000    0.000    0.000    0.000 
#
# Total GULP energy -400856.203095 kJ/mol
# GULP energy per Si atom -5567.447265 kJ/mol
# Density = 1.640746 g / cm^3
# Si number density = 16.444893 Si / 1000 Ang^3
#
#
#
# Elastic Constant Matrix: (Units=GPa)
#
#
# Indices 1 2 3 4 5 6 
#
# 1 95.6921 28.9137 48.3159 0.0000 0.0000 0.0000
# 2 28.9137 95.6921 48.3159 0.0000 0.0000 0.0000
# 3 48.3159 48.3159 109.9975 0.0000 0.0000 0.0000
# 4 0.0000 0.0000 0.0000 17.5285 0.0000 0.0000
# 5 0.0000 0.0000 0.0000 0.0000 17.5285 0.0000
# 6 0.0000 0.0000 0.0000 0.0000 0.0000 33.3892
#
#
#
# Elastic Compliance Matrix: (Units=1/GPa)
#
#
# Indices 1 2 3 4 5 6 
#
# 1 0.013573 -0.001402 -0.005346 0.000000 0.000000 0.000000
# 2 -0.001402 0.013573 -0.005346 0.000000 0.000000 0.000000
# 3 -0.005346 -0.005346 0.013788 0.000000 0.000000 0.000000
# 4 0.000000 0.000000 0.000000 0.057050 0.000000 0.000000
# 5 0.000000 0.000000 0.000000 0.000000 0.057050 0.000000
# 6 0.000000 0.000000 0.000000 0.000000 0.000000 0.029950
#
#
# Mechanical properties :
#
#
# Convention : Reuss Voigt Hill
#
# Bulk Modulus (GPa) = 59.71748 61.38588 60.55168
# Shear Modulus (GPa) = 23.28244 25.41161 24.34703
#
# Velocity S-wave (km/s) = 3.76677 3.93524 3.85193
# Velocity P-wave (km/s) = 7.43711 7.61954 7.52888
#
# Compressibility (1/GPa) = 0.01674552
#
# Stress axis : x y z
#
# Youngs Moduli (GPa) = 73.67514 73.67514 72.52846
#
# Poissons Ratio (x) = 0.10328 0.38775
# Poissons Ratio (y) = 0.10328 0.38775
# Poissons Ratio (z) = 0.39388 0.39388
#
# Static dielectric constant tensor:
#      x y z
#    x 1.544490 0.000000 0.000000 
#    y 0.000000 1.544490 0.000000 
#    z 0.000000 0.000000 1.571430 
# 
# From -- ./inp_files/5689.got.cif
#   From: 2010.05.17/outbox.cif.g08.bks.cpg/sg191_3_cif.got.tgz:5689.got - 2010.05.20 12:20:32.
