data_PCOD9587343
_publ_section_title
;
Structure prediction by ZEFSAII (Michael W. Deem and Ramdas Pophale) SiO2 
 PCOD9587343
Probable space group: P 6/M M M
;
_chemical_formula_sum "Si O2"
_cell_formula_units_Z 168
_cell_length_a 28.084184
_cell_length_b 28.084184
_cell_length_c 13.391714
_cell_angle_alpha 90.000000
_cell_angle_beta 90.000000
_cell_angle_gamma 120.000000
_cell_volume 9147.247223
_symmetry_space_group_name_H-M "P 6/M M M"
_symmetry_group_IT_number 191
_symmetry_cell_setting 'hexagonal'
loop_
_space_group_symop_operation_xyz
x,y,z
x-y,x,z
-y,x-y,z
-x,-y,z
-x+y,-x,z
y,-x+y,z
x-y,-y,-z
-x,-x+y,-z
y,x,-z
-y,-x,-z
-x+y,y,-z
x,x-y,-z
-x,-y,-z
-x+y,-x,-z
y,-x+y,-z
x,y,-z
x-y,x,-z
-y,x-y,-z
-x+y,y,z
x,x-y,z
-y,-x,z
y,x,z
x-y,-y,z
-x,-x+y,z
loop_
_atom_site_type_symbol
_atom_site_label
_atom_site_fract_x
_atom_site_fract_y
_atom_site_fract_z
Si Si1 0.667194 0.446726 0.500000
Si Si2 0.523611 0.588052 0.187826
Si Si3 0.067012 0.642588 0.611017
Si Si4 0.161223 0.692311 0.109111
Si Si5 0.659274 0.884277 0.111418
Si Si6 0.253018 0.318386 0.326832
Si Si7 0.823416 0.756208 0.500000
Si Si8 0.222712 0.667760 0.282281
O O1 0.609929 0.390072 0.500000
O O2 0.717235 0.434470 0.500000
O O3 0.671012 0.472202 0.391051
O O4 0.462860 0.537141 0.176918
O O5 0.565362 0.565362 0.171980
O O6 0.533335 0.612652 0.299674
O O7 0.534631 0.636994 0.115408
O O8 0.085195 0.637704 0.500000
O O9 0.087161 0.705987 0.638076
O O10 0.000000 0.610962 0.608227
O O11 0.148327 0.741354 0.121963
O O12 0.196445 0.686009 0.195514
O O13 0.186174 0.697241 0.000000
O O14 0.677833 0.838917 0.111489
O O15 0.682020 0.919669 0.211304
O O16 0.671601 0.910771 0.000000
O O17 0.289216 0.289216 0.334429
O O18 0.203362 0.283642 0.403379
O O19 0.800011 0.800011 0.500000
O O20 0.889130 0.778260 0.500000
O O21 0.213582 0.606791 0.267399
O O22 0.287560 0.712441 0.283834
#
# Coordination Sequence:
#
# PCOD9587343 Si02
#       8
#    12  24  24  24  24  24  12  24
#     4   8  15  30  53  77  96 113 139 181 236 297
#     4  10  21  36  53  73  96 127 169 213 261 319
#     4   9  16  30  51  74 102 132 164 207 260 316
#     4  11  23  38  54  71  98 134 169 210 261 317
#     4  10  21  36  53  73 100 137 179 222 270 327
#     4  10  18  32  55  82 110 141 180 227 276 322
#     4  10  20  34  57  90 126 163 199 237 280 323
#     4  10  20  36  57  78  98 122 156 201 256 318
#
# _framework density 18.366181999999998
#
# number of rings (size 3 to 8) (size 9 to 14) (size 15 to 20)
#    0.000    2.143    2.143    1.500    0.000    4.000 
#    1.286    4.286    0.000    1.786    0.000    0.000 
#    0.000    0.000    0.000    0.000    0.000    0.000 
#
# Total GULP energy -936855.598226 kJ/mol
# GULP energy per Si atom -5576.521418 kJ/mol
# Density = 1.832438 g / cm^3
# Si number density = 18.366182 Si / 1000 Ang^3
#
#
#
# Elastic Constant Matrix: (Units=GPa)
#
#
# Indices 1 2 3 4 5 6 
#
# 1 35.0461 7.0121 8.6298 0.0000 0.0000 0.0000
# 2 7.0121 35.0461 8.6298 0.0000 0.0000 0.0000
# 3 8.6298 8.6298 124.2868 0.0000 0.0000 0.0000
# 4 0.0000 0.0000 0.0000 14.1141 0.0000 0.0000
# 5 0.0000 0.0000 0.0000 0.0000 14.1141 0.0000
# 6 0.0000 0.0000 0.0000 0.0000 0.0000 14.0170
#
#
#
# Elastic Compliance Matrix: (Units=1/GPa)
#
#
# Indices 1 2 3 4 5 6 
#
# 1 0.030072 -0.005599 -0.001699 0.000000 0.000000 0.000000
# 2 -0.005599 0.030072 -0.001699 0.000000 0.000000 0.000000
# 3 -0.001699 -0.001699 0.008282 0.000000 0.000000 0.000000
# 4 0.000000 0.000000 0.000000 0.070851 0.000000 0.000000
# 5 0.000000 0.000000 0.000000 0.000000 0.070851 0.000000
# 6 0.000000 0.000000 0.000000 0.000000 0.000000 0.071342
#
#
# Mechanical properties :
#
#
# Convention : Reuss Voigt Hill
#
# Bulk Modulus (GPa) = 19.82854 26.99138 23.40996
# Shear Modulus (GPa) = 15.80899 19.78955 17.79927
#
# Velocity S-wave (km/s) = 2.93706 3.28609 3.11647
# Velocity P-wave (km/s) = 4.72456 5.39685 5.07186
#
# Compressibility (1/GPa) = 0.05043237
#
# Stress axis : x y z
#
# Youngs Moduli (GPa) = 33.25307 33.25307 120.74538
#
# Poissons Ratio (x) = 0.18617 0.20519
# Poissons Ratio (y) = 0.18617 0.20519
# Poissons Ratio (z) = 0.05651 0.05651
#
# Static dielectric constant tensor:
#      x y z
#    x 1.652040 0.000000 0.000000 
#    y 0.000000 1.652040 0.000000 
#    z 0.000000 0.000000 1.677700 
# 
# From -- ./inp_files/3664.got.cif
#   From: 2010.05.17/outbox.cif.g08.bks.cpg/sg191_2_cif.got.tgz:3664.got - 2010.05.20 12:20:32.
