data_PCOD9587731
_publ_section_title
;
Structure prediction by ZEFSAII (Michael W. Deem and Ramdas Pophale) SiO2 
 PCOD9587731
Probable space group: P 6/M M M
;
_chemical_formula_sum "Si O2"
_cell_formula_units_Z 192
_cell_length_a 28.201578
_cell_length_b 28.201578
_cell_length_c 15.862041
_cell_angle_alpha 90.000000
_cell_angle_beta 90.000000
_cell_angle_gamma 120.000000
_cell_volume 10925.379191
_symmetry_space_group_name_H-M "P 6/M M M"
_symmetry_group_IT_number 191
_symmetry_cell_setting 'hexagonal'
loop_
_space_group_symop_operation_xyz
x,y,z
x-y,x,z
-y,x-y,z
-x,-y,z
-x+y,-x,z
y,-x+y,z
x-y,-y,-z
-x,-x+y,-z
y,x,-z
-y,-x,-z
-x+y,y,-z
x,x-y,-z
-x,-y,-z
-x+y,-x,-z
y,-x+y,-z
x,y,-z
x-y,x,-z
-y,x-y,-z
-x+y,y,z
x,x-y,z
-y,-x,z
y,x,z
x-y,-y,z
-x,-x+y,z
loop_
_atom_site_type_symbol
_atom_site_label
_atom_site_fract_x
_atom_site_fract_y
_atom_site_fract_z
Si Si1 0.483264 0.627848 0.093309
Si Si2 0.937249 0.766742 0.097703
Si Si3 0.520522 0.835609 0.407565
Si Si4 0.223975 0.888708 0.222680
Si Si5 0.061371 0.585694 0.658459
Si Si6 0.667833 0.223520 0.250479
Si Si7 0.230920 0.350138 0.592025
Si Si8 0.589047 0.652528 0.175169
O O1 0.435073 0.564928 0.101316
O O2 0.473479 0.659903 0.168738
O O3 0.542396 0.634209 0.105379
O O4 0.478332 0.646830 0.000000
O O5 0.893514 0.787027 0.108305
O O6 0.919655 0.717060 0.162416
O O7 0.000000 0.812033 0.111262
O O8 0.932107 0.747546 0.000000
O O9 0.502092 0.809991 0.500000
O O10 0.517506 0.891036 0.402364
O O11 0.484549 0.799341 0.330446
O O12 0.584260 0.853780 0.398197
O O13 0.175355 0.824646 0.223420
O O14 0.234507 0.910065 0.319714
O O15 0.282527 0.900849 0.189093
O O16 0.069464 0.534732 0.682529
O O17 0.065107 0.621203 0.740181
O O18 0.000000 0.559767 0.623216
O O19 0.609832 0.219663 0.267478
O O20 0.714713 0.285288 0.234481
O O21 0.244659 0.335240 0.500000
O O22 0.169050 0.338099 0.587463
O O23 0.632671 0.632671 0.158407
#
# Coordination Sequence:
#
# PCOD9587731 Si02
#       8
#    24  24  24  24  24  24  24  24
#     4  10  22  40  60  81 103 130 168 214 267 327
#     4   9  18  33  54  80 111 147 184 221 262 308
#     4  11  21  35  56  78 102 134 172 218 269 322
#     4  10  19  33  53  78 109 143 179 219 260 308
#     4  10  20  34  51  71  99 135 172 213 262 314
#     4  11  23  40  59  80 106 136 171 215 267 327
#     4   9  17  30  49  73 101 136 176 215 261 317
#     4  11  21  34  54  80 109 140 174 214 262 315
#
# _framework density 17.573761000000001
#
# number of rings (size 3 to 8) (size 9 to 14) (size 15 to 20)
#    0.000    1.875    2.500    1.625    0.000    5.250 
#    0.000    1.250    0.000    3.125    0.000    0.875 
#    0.000    0.000    0.000    0.000    0.000    0.000 
#
# Total GULP energy -1070767.390610 kJ/mol
# GULP energy per Si atom -5576.913493 kJ/mol
# Density = 1.753376 g / cm^3
# Si number density = 17.573761 Si / 1000 Ang^3
#
#
#
# Elastic Constant Matrix: (Units=GPa)
#
#
# Indices 1 2 3 4 5 6 
#
# 1 64.0915 26.7609 41.4334 0.0000 0.0000 0.0000
# 2 26.7609 64.0915 41.4334 0.0000 0.0000 0.0000
# 3 41.4334 41.4334 126.4270 0.0000 0.0000 0.0000
# 4 0.0000 0.0000 0.0000 16.3971 0.0000 0.0000
# 5 0.0000 0.0000 0.0000 0.0000 16.3971 0.0000
# 6 0.0000 0.0000 0.0000 0.0000 0.0000 18.6653
#
#
#
# Elastic Compliance Matrix: (Units=1/GPa)
#
#
# Indices 1 2 3 4 5 6 
#
# 1 0.021244 -0.005544 -0.005145 0.000000 0.000000 0.000000
# 2 -0.005544 0.021244 -0.005145 0.000000 0.000000 0.000000
# 3 -0.005145 -0.005145 0.011282 0.000000 0.000000 0.000000
# 4 0.000000 0.000000 0.000000 0.060986 0.000000 0.000000
# 5 0.000000 0.000000 0.000000 0.000000 0.060986 0.000000
# 6 0.000000 0.000000 0.000000 0.000000 0.000000 0.053575
#
#
# Mechanical properties :
#
#
# Convention : Reuss Voigt Hill
#
# Bulk Modulus (GPa) = 45.24704 52.65172 48.94938
# Shear Modulus (GPa) = 18.63214 19.95740 19.29477
#
# Velocity S-wave (km/s) = 3.25964 3.37358 3.31710
# Velocity P-wave (km/s) = 6.32217 6.72311 6.52572
#
# Compressibility (1/GPa) = 0.02210089
#
# Stress axis : x y z
#
# Youngs Moduli (GPa) = 47.07260 47.07260 88.63545
#
# Poissons Ratio (x) = 0.26097 0.45605
# Poissons Ratio (y) = 0.26097 0.45605
# Poissons Ratio (z) = 0.24220 0.24220
#
# Static dielectric constant tensor:
#      x y z
#    x 1.590980 0.000000 0.000000 
#    y 0.000000 1.590980 0.000000 
#    z 0.000000 0.000000 1.644580 
# 
# From -- ./inp_files/5515.got.cif
#   From: 2010.05.17/outbox.cif.g08.bks.cpg/sg191_3_cif.got.tgz:5515.got - 2010.05.20 12:20:32.
