data_PCOD9587128
_publ_section_title
;
Structure prediction by ZEFSAII (Michael W. Deem and Ramdas Pophale) SiO2 
 PCOD9587128
Probable space group: P 6/M M M
;
_chemical_formula_sum "Si O2"
_cell_formula_units_Z 168
_cell_length_a 23.516540
_cell_length_b 23.516540
_cell_length_c 24.834522
_cell_angle_alpha 90.000000
_cell_angle_beta 90.000000
_cell_angle_gamma 120.000000
_cell_volume 11894.146554
_symmetry_space_group_name_H-M "P 6/M M M"
_symmetry_group_IT_number 191
_symmetry_cell_setting 'hexagonal'
loop_
_space_group_symop_operation_xyz
x,y,z
x-y,x,z
-y,x-y,z
-x,-y,z
-x+y,-x,z
y,-x+y,z
x-y,-y,-z
-x,-x+y,-z
y,x,-z
-y,-x,-z
-x+y,y,-z
x,x-y,-z
-x,-y,-z
-x+y,-x,-z
y,-x+y,-z
x,y,-z
x-y,x,-z
-y,x-y,-z
-x+y,y,z
x,x-y,z
-y,-x,z
y,x,z
x-y,-y,z
-x,-x+y,z
loop_
_atom_site_type_symbol
_atom_site_label
_atom_site_fract_x
_atom_site_fract_y
_atom_site_fract_z
Si Si1 0.716958 0.924301 0.755681
Si Si2 0.257018 0.875493 0.654985
Si Si3 0.152632 0.305263 0.064315
Si Si4 0.721368 0.643765 0.865589
Si Si5 0.395885 0.474826 0.696599
Si Si6 0.795911 0.074359 0.436407
Si Si7 0.476685 0.079717 0.176981
Si Si8 0.076017 0.152034 0.934416
O O1 0.738536 0.869268 0.755443
O O2 0.669392 0.909944 0.704456
O O3 0.674435 0.915050 0.809392
O O4 0.774179 0.000000 0.754206
O O5 0.200440 0.799561 0.655809
O O6 0.329131 0.887137 0.663637
O O7 0.248194 0.907012 0.600507
O O8 0.115056 0.340056 0.089124
O O9 0.114155 0.228310 0.081753
O O10 0.153497 0.306993 0.000000
O O11 0.681099 0.681099 0.877876
O O12 0.669119 0.567236 0.856005
O O13 0.452658 0.547343 0.680227
O O14 0.428295 0.428295 0.692842
O O15 0.381245 0.477620 0.759932
O O16 0.785024 0.078788 0.500000
O O17 0.871014 0.128987 0.424189
O O18 0.776885 0.000000 0.424669
O O19 0.550765 0.101530 0.159593
O O20 0.436554 0.000000 0.174941
O O21 0.114424 0.114424 0.916772
O O22 0.075439 0.150877 0.000000
#
# Coordination Sequence:
#
# PCOD9587128 Si02
#       8
#    24  24  12  24  24  24  24  12
#     4  10  18  28  43  64  88 114 145 185 231 271
#     4  10  18  27  43  66  91 117 149 186 224 270
#     4  11  22  33  44  61  88 120 151 183 225 277
#     4  10  18  29  45  64  89 114 139 177 219 263
#     4   9  15  24  41  65  92 116 139 170 210 257
#     4   9  17  28  42  61  87 121 158 196 237 278
#     4   8  14  25  43  66  89 111 132 160 205 259
#     4   9  17  30  47  64  82 110 156 207 245 275
#
# _framework density 14.124594
#
# number of rings (size 3 to 8) (size 9 to 14) (size 15 to 20)
#    0.000    2.571    2.143    2.643    0.000    1.143 
#    0.000    0.000    0.000    1.429    0.000    5.000 
#    0.714    3.429    0.000    0.143    0.000    0.000 
#
# Total GULP energy -935745.190911 kJ/mol
# GULP energy per Si atom -5569.911851 kJ/mol
# Density = 1.409245 g / cm^3
# Si number density = 14.124594 Si / 1000 Ang^3
#
#
#
# Elastic Constant Matrix: (Units=GPa)
#
#
# Indices 1 2 3 4 5 6 
#
# 1 104.7468 60.8415 35.0758 0.0000 0.0000 0.0000
# 2 60.8415 104.7468 35.0758 0.0000 0.0000 0.0000
# 3 35.0758 35.0758 43.0195 0.0000 0.0000 0.0000
# 4 0.0000 0.0000 0.0000 17.7395 0.0000 0.0000
# 5 0.0000 0.0000 0.0000 0.0000 17.7395 0.0000
# 6 0.0000 0.0000 0.0000 0.0000 0.0000 21.9526
#
#
#
# Elastic Compliance Matrix: (Units=1/GPa)
#
#
# Indices 1 2 3 4 5 6 
#
# 1 0.016001 -0.006775 -0.007522 0.000000 0.000000 0.000000
# 2 -0.006775 0.016001 -0.007522 0.000000 0.000000 0.000000
# 3 -0.007522 -0.007522 0.035512 0.000000 0.000000 0.000000
# 4 0.000000 0.000000 0.000000 0.056371 0.000000 0.000000
# 5 0.000000 0.000000 0.000000 0.000000 0.056371 0.000000
# 6 0.000000 0.000000 0.000000 0.000000 0.000000 0.045553
#
#
# Mechanical properties :
#
#
# Convention : Reuss Voigt Hill
#
# Bulk Modulus (GPa) = 41.88583 57.16660 49.52621
# Shear Modulus (GPa) = 18.02402 19.58764 18.80583
#
# Velocity S-wave (km/s) = 3.57609 3.72798 3.65283
# Velocity P-wave (km/s) = 6.83887 7.68710 7.27536
#
# Compressibility (1/GPa) = 0.02387442
#
# Stress axis : x y z
#
# Youngs Moduli (GPa) = 62.49562 62.49562 28.15956
#
# Poissons Ratio (x) = 0.42342 0.21183
# Poissons Ratio (y) = 0.42342 0.21183
# Poissons Ratio (z) = 0.47011 0.47011
#
# Static dielectric constant tensor:
#      x y z
#    x 1.464550 0.000000 0.000000 
#    y 0.000000 1.464550 0.000000 
#    z 0.000000 0.000000 1.465140 
# 
# From -- ./inp_files/9250.got.cif
#   From: 2010.05.17/outbox.cif.g08.bks.cpg/sg191_5_cif.got.tgz:9250.got - 2010.05.20 12:20:32.
