data_PCOD9587649
_publ_section_title
;
Structure prediction by ZEFSAII (Michael W. Deem and Ramdas Pophale) SiO2 
 PCOD9587649
Probable space group: P 6/M M M
;
_chemical_formula_sum "Si O2"
_cell_formula_units_Z 108
_cell_length_a 17.682609
_cell_length_b 17.682609
_cell_length_c 24.518537
_cell_angle_alpha 90.000000
_cell_angle_beta 90.000000
_cell_angle_gamma 120.000000
_cell_volume 6639.232417
_symmetry_space_group_name_H-M "P 6/M M M"
_symmetry_group_IT_number 191
_symmetry_cell_setting 'hexagonal'
loop_
_space_group_symop_operation_xyz
x,y,z
x-y,x,z
-y,x-y,z
-x,-y,z
-x+y,-x,z
y,-x+y,z
x-y,-y,-z
-x,-x+y,-z
y,x,-z
-y,-x,-z
-x+y,y,-z
x,x-y,-z
-x,-y,-z
-x+y,-x,-z
y,-x+y,-z
x,y,-z
x-y,x,-z
-y,x-y,-z
-x+y,y,z
x,x-y,z
-y,-x,z
y,x,z
x-y,-y,z
-x,-x+y,z
loop_
_atom_site_type_symbol
_atom_site_label
_atom_site_fract_x
_atom_site_fract_y
_atom_site_fract_z
Si Si1 0.726008 0.625805 0.746040
Si Si2 0.000000 0.825568 0.433566
Si Si3 0.512125 0.845074 0.636519
Si Si4 0.000000 0.350637 0.565168
Si Si5 0.332050 0.845907 0.143790
Si Si6 0.000000 0.408367 0.937918
O O1 0.828545 0.657090 0.745925
O O2 0.700948 0.700948 0.745769
O O3 0.684806 0.565723 0.692777
O O4 0.684778 0.565775 0.799463
O O5 0.912404 0.824807 0.415461
O O6 0.000000 0.827194 0.500000
O O7 0.000000 0.737833 0.417603
O O8 0.418075 0.836150 0.641886
O O9 0.504536 0.752268 0.625021
O O10 0.567811 0.914767 0.590194
O O11 0.000000 0.354240 0.500000
O O12 0.420903 0.841806 0.147280
O O13 0.249335 0.750665 0.133765
O O14 0.344271 0.914111 0.096393
O O15 0.000000 0.500000 0.939880
O O16 0.000000 0.380313 0.000000
#
# Coordination Sequence:
#
# PCOD9587649 Si02
#       6
#    24  12  24  12  24  12
#     4  10  20  35  57  83 108 136 170 213 264 317
#     4   9  17  31  52  76 100 125 158 203 253 302
#     4  11  23  38  57  80 107 137 172 215 263 314
#     4  11  23  38  56  76 102 139 179 215 257 315
#     4  10  19  31  50  75 105 138 176 221 269 318
#     4   9  18  31  46  66  98 142 184 221 262 307
#
# _framework density 16.266940000000002
#
# number of rings (size 3 to 8) (size 9 to 14) (size 15 to 20)
#    0.000    1.889    2.222    2.222    0.000    4.000 
#    0.000    2.222    0.000    2.889    0.000    0.000 
#    0.000    0.000    0.000    0.000    0.000   10.111 
#
# Total GULP energy -602837.473126 kJ/mol
# GULP energy per Si atom -5581.828455 kJ/mol
# Density = 1.622992 g / cm^3
# Si number density = 16.266940 Si / 1000 Ang^3
#
#
#
# Elastic Constant Matrix: (Units=GPa)
#
#
# Indices 1 2 3 4 5 6 
#
# 1 120.9940 81.4658 48.9591 0.0000 0.0000 0.0000
# 2 81.4658 120.9940 48.9591 0.0000 0.0000 0.0000
# 3 48.9591 48.9591 102.4468 0.0000 0.0000 0.0000
# 4 0.0000 0.0000 0.0000 16.9200 0.0000 0.0000
# 5 0.0000 0.0000 0.0000 0.0000 16.9200 0.0000
# 6 0.0000 0.0000 0.0000 0.0000 0.0000 19.7641
#
#
#
# Elastic Compliance Matrix: (Units=1/GPa)
#
#
# Indices 1 2 3 4 5 6 
#
# 1 0.015861 -0.009437 -0.003070 0.000000 0.000000 0.000000
# 2 -0.009437 0.015861 -0.003070 0.000000 0.000000 0.000000
# 3 -0.003070 -0.003070 0.012695 0.000000 0.000000 0.000000
# 4 0.000000 0.000000 0.000000 0.059102 0.000000 0.000000
# 5 0.000000 0.000000 0.000000 0.000000 0.059102 0.000000
# 6 0.000000 0.000000 0.000000 0.000000 0.000000 0.050597
#
#
# Mechanical properties :
#
#
# Convention : Reuss Voigt Hill
#
# Bulk Modulus (GPa) = 75.39521 78.13363 76.76442
# Shear Modulus (GPa) = 20.09700 21.72423 20.91061
#
# Velocity S-wave (km/s) = 3.51871 3.65839 3.58923
# Velocity P-wave (km/s) = 7.93459 8.12290 8.02930
#
# Compressibility (1/GPa) = 0.01326344
#
# Stress axis : x y z
#
# Youngs Moduli (GPa) = 63.04691 63.04691 78.76813
#
# Poissons Ratio (x) = 0.59498 0.24182
# Poissons Ratio (y) = 0.59498 0.24182
# Poissons Ratio (z) = 0.19356 0.19356
#
# Static dielectric constant tensor:
#      x y z
#    x 1.530150 0.000000 0.000000 
#    y 0.000000 1.530150 0.000000 
#    z 0.000000 0.000000 1.541180 
# 
# From -- ./inp_files/7365.got.cif
#   From: 2010.05.17/outbox.cif.g08.bks.cpg/sg191_4_cif.got.tgz:7365.got - 2010.05.20 12:20:32.
