data_PCOD9587118
_publ_section_title
;
Structure prediction by ZEFSAII (Michael W. Deem and Ramdas Pophale) SiO2 
 PCOD9587118
Probable space group: P 6/M M M
;
_chemical_formula_sum "Si O2"
_cell_formula_units_Z 168
_cell_length_a 22.324632
_cell_length_b 22.324632
_cell_length_c 28.998196
_cell_angle_alpha 90.000000
_cell_angle_beta 90.000000
_cell_angle_gamma 120.000000
_cell_volume 12516.134746
_symmetry_space_group_name_H-M "P 6/M M M"
_symmetry_group_IT_number 191
_symmetry_cell_setting 'hexagonal'
loop_
_space_group_symop_operation_xyz
x,y,z
x-y,x,z
-y,x-y,z
-x,-y,z
-x+y,-x,z
y,-x+y,z
x-y,-y,-z
-x,-x+y,-z
y,x,-z
-y,-x,-z
-x+y,y,-z
x,x-y,-z
-x,-y,-z
-x+y,-x,-z
y,-x+y,-z
x,y,-z
x-y,x,-z
-y,x-y,-z
-x+y,y,z
x,x-y,z
-y,-x,z
y,x,z
x-y,-y,z
-x,-x+y,z
loop_
_atom_site_type_symbol
_atom_site_label
_atom_site_fract_x
_atom_site_fract_y
_atom_site_fract_z
Si Si1 0.784702 0.706178 0.553463
Si Si2 0.263830 0.874062 0.638793
Si Si3 0.145763 0.432483 0.218120
Si Si4 0.806557 0.473577 0.945749
Si Si5 0.611325 0.530162 0.301118
Si Si6 0.530299 0.612068 0.131994
Si Si7 0.291884 0.212704 0.271977
O O1 0.768648 0.683826 0.500000
O O2 0.864684 0.729367 0.561275
O O3 0.765441 0.765441 0.561046
O O4 0.742289 0.645244 0.589712
O O5 0.207577 0.792424 0.640360
O O6 0.340259 0.894347 0.653963
O O7 0.239101 0.907732 0.678891
O O8 0.225828 0.451655 0.215208
O O9 0.128904 0.470116 0.259496
O O10 0.116054 0.447283 0.172095
O O11 0.103404 0.352222 0.233771
O O12 0.740807 0.481614 0.932889
O O13 0.787461 0.393731 0.940100
O O14 0.873289 0.518057 0.914108
O O15 0.821283 0.490270 0.000000
O O16 0.543119 0.456882 0.306156
O O17 0.585691 0.585691 0.291313
O O18 0.456283 0.543718 0.143473
O O19 0.584225 0.584225 0.126926
O O20 0.262973 0.131487 0.269762
O O21 0.236811 0.236811 0.266867
#
# Coordination Sequence:
#
# PCOD9587118 Si02
#       7
#    24  24  24  24  24  24  24
#     4   9  16  25  39  59  81 104 130 162 197 230
#     4   9  16  27  42  58  77 101 130 161 191 226
#     4  10  18  28  42  58  78 103 130 159 190 226
#     4   9  17  29  44  60  78 102 133 166 197 229
#     4  10  18  27  42  61  81 104 127 155 193 238
#     4  10  19  29  42  59  80 104 128 159 197 235
#     4   9  16  25  39  57  76  99 126 157 188 221
#
# _framework density 13.422674000000001
#
# number of rings (size 3 to 8) (size 9 to 14) (size 15 to 20)
#    0.000    2.571    0.000    5.714    0.000    2.000 
#    0.000    1.429    0.000    6.714    0.000    3.000 
#    0.000    3.429    0.000    0.143    0.000    0.000 
#
# Total GULP energy -935545.614312 kJ/mol
# GULP energy per Si atom -5568.723895 kJ/mol
# Density = 1.339212 g / cm^3
# Si number density = 13.422674 Si / 1000 Ang^3
#
#
#
# Elastic Constant Matrix: (Units=GPa)
#
#
# Indices 1 2 3 4 5 6 
#
# 1 93.1077 53.5655 42.5589 0.0000 0.0000 0.0000
# 2 53.5655 93.1077 42.5589 0.0000 0.0000 0.0000
# 3 42.5589 42.5589 68.5257 0.0000 0.0000 0.0000
# 4 0.0000 0.0000 0.0000 16.7907 0.0000 0.0000
# 5 0.0000 0.0000 0.0000 0.0000 16.7907 0.0000
# 6 0.0000 0.0000 0.0000 0.0000 0.0000 19.7711
#
#
#
# Elastic Compliance Matrix: (Units=1/GPa)
#
#
# Indices 1 2 3 4 5 6 
#
# 1 0.017975 -0.007315 -0.006620 0.000000 0.000000 0.000000
# 2 -0.007315 0.017975 -0.006620 0.000000 0.000000 0.000000
# 3 -0.006620 -0.006620 0.022817 0.000000 0.000000 0.000000
# 4 0.000000 0.000000 0.000000 0.059557 0.000000 0.000000
# 5 0.000000 0.000000 0.000000 0.000000 0.059557 0.000000
# 6 0.000000 0.000000 0.000000 0.000000 0.000000 0.050579
#
#
# Mechanical properties :
#
#
# Convention : Reuss Voigt Hill
#
# Bulk Modulus (GPa) = 56.64308 59.12310 57.88309
# Shear Modulus (GPa) = 18.15182 18.40770 18.27976
#
# Velocity S-wave (km/s) = 3.68139 3.70724 3.69434
# Velocity P-wave (km/s) = 7.76925 7.90365 7.83674
#
# Compressibility (1/GPa) = 0.01765441
#
# Stress axis : x y z
#
# Youngs Moduli (GPa) = 55.63391 55.63391 43.82777
#
# Poissons Ratio (x) = 0.40695 0.29016
# Poissons Ratio (y) = 0.40695 0.29016
# Poissons Ratio (z) = 0.36832 0.36832
#
# Static dielectric constant tensor:
#      x y z
#    x 1.433920 0.000000 0.000000 
#    y 0.000000 1.433920 0.000000 
#    z 0.000000 0.000000 1.444310 
# 
# From -- ./inp_files/10044.got.cif
#   From: 2010.05.17/outbox.cif.g08.bks.cpg/sg191_6_cif.got.tgz:10044.got - 2010.05.20 12:20:32.
