data_PCOD9587958
_publ_section_title
;
Structure prediction by ZEFSAII (Michael W. Deem and Ramdas Pophale) SiO2 
 PCOD9587958
Probable space group: P 6/M M M
;
_chemical_formula_sum "Si O2"
_cell_formula_units_Z 144
_cell_length_a 32.697332
_cell_length_b 32.697332
_cell_length_c 7.820269
_cell_angle_alpha 90.000000
_cell_angle_beta 90.000000
_cell_angle_gamma 120.000000
_cell_volume 7240.640045
_symmetry_space_group_name_H-M "P 6/M M M"
_symmetry_group_IT_number 191
_symmetry_cell_setting 'hexagonal'
loop_
_space_group_symop_operation_xyz
x,y,z
x-y,x,z
-y,x-y,z
-x,-y,z
-x+y,-x,z
y,-x+y,z
x-y,-y,-z
-x,-x+y,-z
y,x,-z
-y,-x,-z
-x+y,y,-z
x,x-y,-z
-x,-y,-z
-x+y,-x,-z
y,-x+y,-z
x,y,-z
x-y,x,-z
-y,x-y,-z
-x+y,y,z
x,x-y,z
-y,-x,z
y,x,z
x-y,-y,z
-x,-x+y,z
loop_
_atom_site_type_symbol
_atom_site_label
_atom_site_fract_x
_atom_site_fract_y
_atom_site_fract_z
Si Si1 0.520606 0.573456 0.793723
Si Si2 0.947463 0.803791 0.705480
Si Si3 0.666527 0.238862 0.709308
Si Si4 0.709441 0.762230 0.204225
Si Si5 0.668795 0.146581 0.704875
Si Si6 0.761126 0.146260 0.295040
O O1 0.469736 0.530265 0.736574
O O2 0.559720 0.559720 0.736443
O O3 0.527237 0.623240 0.739584
O O4 0.520607 0.572800 0.000000
O O5 0.948625 0.809004 0.500000
O O6 0.905432 0.810863 0.773463
O O7 0.937465 0.751229 0.741390
O O8 0.000000 0.839282 0.772301
O O9 0.666300 0.238645 0.500000
O O10 0.621043 0.242085 0.764193
O O11 0.715401 0.284600 0.762210
O O12 0.663052 0.190166 0.768080
O O13 0.724898 0.724898 0.268891
O O14 0.659605 0.754858 0.261116
O O15 0.709097 0.760414 0.000000
O O16 0.673482 0.151862 0.500000
O O17 0.716459 0.149401 0.772311
O O18 0.761721 0.151397 0.500000
O O19 0.810890 0.189111 0.229320
#
# Coordination Sequence:
#
# PCOD9587958 Si02
#       6
#    24  24  24  24  24  24
#     4   9  19  36  55  74  99 132 167 203 247 297
#     4   9  17  30  49  72  98 129 164 201 243 292
#     4   9  16  27  46  73 103 131 159 194 238 286
#     4  10  21  35  51  73  99 126 161 208 255 295
#     4  10  20  33  51  76 103 130 164 206 246 285
#     4  10  21  36  52  71 100 137 170 201 244 298
#
# _framework density 19.887744999999999
#
# number of rings (size 3 to 8) (size 9 to 14) (size 15 to 20)
#    0.000    2.500    0.000    2.667    0.000    9.000 
#    0.000    4.167    0.000    1.667    0.000    1.167 
#    0.000    1.333    0.000    4.167    0.000    4.333 
#
# Total GULP energy -803732.089137 kJ/mol
# GULP energy per Si atom -5581.472841 kJ/mol
# Density = 1.984248 g / cm^3
# Si number density = 19.887745 Si / 1000 Ang^3
#
#
#
# Elastic Constant Matrix: (Units=GPa)
#
#
# Indices 1 2 3 4 5 6 
#
# 1 168.0611 110.1217 4.5814 0.0000 0.0000 0.0000
# 2 110.1217 168.0611 4.5814 0.0000 0.0000 0.0000
# 3 4.5814 4.5814 23.2074 0.0000 0.0000 0.0000
# 4 0.0000 0.0000 0.0000 0.1136 0.0000 0.0000
# 5 0.0000 0.0000 0.0000 0.0000 0.1136 0.0000
# 6 0.0000 0.0000 0.0000 0.0000 0.0000 28.9697
#
#
#
# Elastic Compliance Matrix: (Units=1/GPa)
#
#
# Indices 1 2 3 4 5 6 
#
# 1 0.010439 -0.006821 -0.000714 0.000000 0.000000 0.000000
# 2 -0.006821 0.010439 -0.000714 0.000000 0.000000 0.000000
# 3 -0.000714 -0.000714 0.043372 0.000000 0.000000 0.000000
# 4 0.000000 0.000000 0.000000 8.803418 0.000004 0.000000
# 5 0.000000 0.000000 0.000000 0.000004 8.803413 0.000000
# 6 0.000000 0.000000 0.000000 0.000000 0.000000 0.034519
#
#
# Mechanical properties :
#
#
# Convention : Reuss Voigt Hill
#
# Bulk Modulus (GPa) = 20.94193 66.43315 43.68754
# Shear Modulus (GPa) = 0.28188 21.84238 11.06213
#
# Velocity S-wave (km/s) = 0.37689 3.31763 2.36101
# Velocity P-wave (km/s) = 3.27755 6.93918 5.42653
#
# Compressibility (1/GPa) = 0.04775110
#
# Stress axis : x y z
#
# Youngs Moduli (GPa) = 95.79594 95.79594 23.05653
#
# Poissons Ratio (x) = 0.65338 0.01647
# Poissons Ratio (y) = 0.65338 0.01647
# Poissons Ratio (z) = 0.06843 0.06843
#
# Static dielectric constant tensor:
#      x y z
#    x 1.683320 0.000000 0.000000 
#    y 0.000000 1.683320 0.000000 
#    z 0.000000 0.000000 1.727750 
# 
# From -- ./inp_files/1974.got.cif
#   From: 2010.05.17/outbox.cif.g08.bks.cpg/sg191_1_cif.got.tgz:1974.got - 2010.05.20 12:20:32.
