data_PCOD9587811
_publ_section_title
;
Structure prediction by ZEFSAII (Michael W. Deem and Ramdas Pophale) SiO2 
 PCOD9587811
Probable space group: P 6/M M M
;
_chemical_formula_sum "Si O2"
_cell_formula_units_Z 192
_cell_length_a 29.996839
_cell_length_b 29.996839
_cell_length_c 14.241193
_cell_angle_alpha 90.000000
_cell_angle_beta 90.000000
_cell_angle_gamma 120.000000
_cell_volume 11097.572428
_symmetry_space_group_name_H-M "P 6/M M M"
_symmetry_group_IT_number 191
_symmetry_cell_setting 'hexagonal'
loop_
_space_group_symop_operation_xyz
x,y,z
x-y,x,z
-y,x-y,z
-x,-y,z
-x+y,-x,z
y,-x+y,z
x-y,-y,-z
-x,-x+y,-z
y,x,-z
-y,-x,-z
-x+y,y,-z
x,x-y,-z
-x,-y,-z
-x+y,-x,-z
y,-x+y,-z
x,y,-z
x-y,x,-z
-y,x-y,-z
-x+y,y,z
x,x-y,z
-y,-x,z
y,x,z
x-y,-y,z
-x,-x+y,z
loop_
_atom_site_type_symbol
_atom_site_label
_atom_site_fract_x
_atom_site_fract_y
_atom_site_fract_z
Si Si1 0.382284 0.137162 0.716856
Si Si2 0.912006 0.195765 0.603745
Si Si3 0.230170 0.563980 0.610950
Si Si4 0.489564 0.150463 0.244877
Si Si5 0.212794 0.895159 0.896749
Si Si6 0.768235 0.435040 0.111577
Si Si7 0.476252 0.060186 0.891911
Si Si8 0.839418 0.055616 0.214505
O O1 0.386930 0.193465 0.714296
O O2 0.340319 0.102499 0.639173
O O3 0.437059 0.142081 0.711111
O O4 0.357326 0.111088 0.816661
O O5 0.934913 0.206493 0.500000
O O6 0.857327 0.142673 0.600091
O O7 0.941696 0.184783 0.685533
O O8 0.219841 0.551785 0.500000
O O9 0.276933 0.553865 0.638282
O O10 0.248166 0.624083 0.622308
O O11 0.178949 0.531786 0.673141
O O12 0.512615 0.194098 0.164001
O O13 0.479602 0.099213 0.189344
O O14 0.160187 0.839814 0.899312
O O15 0.193965 0.933836 0.861596
O O16 0.235916 0.907578 0.000000
O O17 0.709437 0.418874 0.130760
O O18 0.779260 0.389630 0.140921
O O19 0.776024 0.441465 0.000000
O O20 0.531295 0.062590 0.891482
O O21 0.433542 0.000000 0.876230
O O22 0.469379 0.074226 0.000000
O O23 0.897147 0.102854 0.210437
O O24 0.832374 0.000000 0.201384
#
# Coordination Sequence:
#
# PCOD9587811 Si02
#       8
#    24  24  24  24  24  24  24  24
#     4   9  18  30  44  68 100 127 152 187 237 294
#     4   8  15  30  50  67  86 118 157 193 230 274
#     4  10  21  36  53  74 103 140 180 220 260 300
#     4  12  21  31  50  76 102 127 163 208 249 300
#     4   8  15  29  46  62  86 124 164 196 228 272
#     4  10  20  32  46  67  98 135 172 210 253 299
#     4   9  19  37  58  75  92 120 160 205 253 303
#     4   9  17  29  47  73 101 128 163 204 241 279
#
# _framework density 17.301081
#
# number of rings (size 3 to 8) (size 9 to 14) (size 15 to 20)
#    0.000    2.625    0.000    4.750    0.000    4.000 
#    0.000    6.250    0.000    0.500    0.000    1.750 
#    0.000    0.000    0.000    6.250    0.000    0.000 
#
# Total GULP energy -1069370.470505 kJ/mol
# GULP energy per Si atom -5569.637867 kJ/mol
# Density = 1.726170 g / cm^3
# Si number density = 17.301081 Si / 1000 Ang^3
#
#
#
# Elastic Constant Matrix: (Units=GPa)
#
#
# Indices 1 2 3 4 5 6 
#
# 1 46.0551 16.4776 0.4871 0.0000 0.0000 0.0000
# 2 16.4776 46.0551 0.4871 0.0000 0.0000 0.0000
# 3 0.4871 0.4871 60.3636 0.0000 0.0000 0.0000
# 4 0.0000 0.0000 0.0000 9.8693 0.0000 0.0000
# 5 0.0000 0.0000 0.0000 0.0000 9.8693 0.0000
# 6 0.0000 0.0000 0.0000 0.0000 0.0000 14.7887
#
#
#
# Elastic Compliance Matrix: (Units=1/GPa)
#
#
# Indices 1 2 3 4 5 6 
#
# 1 0.024902 -0.008908 -0.000129 0.000000 0.000000 0.000000
# 2 -0.008908 0.024902 -0.000129 0.000000 0.000000 0.000000
# 3 -0.000129 -0.000129 0.016568 0.000000 0.000000 0.000000
# 4 0.000000 0.000000 0.000000 0.101324 0.000000 0.000000
# 5 0.000000 0.000000 0.000000 0.000000 0.101324 0.000000
# 6 0.000000 0.000000 0.000000 0.000000 0.000000 0.067619
#
#
# Mechanical properties :
#
#
# Convention : Reuss Voigt Hill
#
# Bulk Modulus (GPa) = 20.81624 20.81970 20.81797
# Shear Modulus (GPa) = 13.47768 15.90695 14.69231
#
# Velocity S-wave (km/s) = 2.79410 3.03548 2.91729
# Velocity P-wave (km/s) = 4.73996 4.93411 4.83801
#
# Compressibility (1/GPa) = 0.04803943
#
# Stress axis : x y z
#
# Youngs Moduli (GPa) = 40.15811 40.15811 60.35598
#
# Poissons Ratio (x) = 0.35773 0.00779
# Poissons Ratio (y) = 0.35773 0.00779
# Poissons Ratio (z) = 0.00518 0.00518
#
# Static dielectric constant tensor:
#      x y z
#    x 1.589860 0.000000 0.000000 
#    y 0.000000 1.589860 0.000000 
#    z 0.000000 0.000000 1.619790 
# 
# From -- ./inp_files/5526.got.cif
#   From: 2010.05.17/outbox.cif.g08.bks.cpg/sg191_3_cif.got.tgz:5526.got - 2010.05.20 12:20:32.
