data_PCOD9587591
_publ_section_title
;
Structure prediction by ZEFSAII (Michael W. Deem and Ramdas Pophale) SiO2 
 PCOD9587591
Probable space group: P 6/M M M
;
_chemical_formula_sum "Si O2"
_cell_formula_units_Z 180
_cell_length_a 22.540528
_cell_length_b 22.540528
_cell_length_c 28.005109
_cell_angle_alpha 90.000000
_cell_angle_beta 90.000000
_cell_angle_gamma 120.000000
_cell_volume 12322.421749
_symmetry_space_group_name_H-M "P 6/M M M"
_symmetry_group_IT_number 191
_symmetry_cell_setting 'hexagonal'
loop_
_space_group_symop_operation_xyz
x,y,z
x-y,x,z
-y,x-y,z
-x,-y,z
-x+y,-x,z
y,-x+y,z
x-y,-y,-z
-x,-x+y,-z
y,x,-z
-y,-x,-z
-x+y,y,-z
x,x-y,-z
-x,-y,-z
-x+y,-x,-z
y,-x+y,-z
x,y,-z
x-y,x,-z
-y,x-y,-z
-x+y,y,z
x,x-y,z
-y,-x,z
y,x,z
x-y,-y,z
-x,-x+y,z
loop_
_atom_site_type_symbol
_atom_site_label
_atom_site_fract_x
_atom_site_fract_y
_atom_site_fract_z
Si Si1 0.291371 0.846614 0.088741
Si Si2 0.711772 0.922315 0.878833
Si Si3 0.080188 0.469124 0.000000
Si Si4 0.923692 0.713069 0.763288
Si Si5 0.573961 0.919936 0.261606
Si Si6 0.807224 0.474355 0.444495
Si Si7 0.467404 0.077908 0.368762
Si Si8 0.526355 0.333722 0.187355
O O1 0.227237 0.772764 0.074519
O O2 0.259136 0.894075 0.102650
O O3 0.344714 0.882014 0.046506
O O4 0.324503 0.834341 0.135976
O O5 0.733585 0.866793 0.893213
O O6 0.708532 0.921757 0.821077
O O7 0.761579 0.000000 0.894488
O O8 0.083675 0.541838 0.000000
O O9 0.000000 0.411568 0.000000
O O10 0.862678 0.725355 0.747709
O O11 0.912833 0.641079 0.744687
O O12 0.000000 0.771132 0.749412
O O13 0.548934 0.906318 0.316105
O O14 0.516685 0.866350 0.226040
O O15 0.598709 0.000000 0.250779
O O16 0.826628 0.493566 0.500000
O O17 0.737113 0.474226 0.435179
O O18 0.795419 0.397710 0.438686
O O19 0.866928 0.522830 0.408341
O O20 0.539523 0.079046 0.366146
O O21 0.410496 0.000000 0.381167
O O22 0.523357 0.261679 0.198088
O O23 0.603727 0.396274 0.186125
#
# Coordination Sequence:
#
# PCOD9587591 Si02
#       8
#    24  24  12  24  24  24  24  24
#     4  10  20  35  53  69  88 116 150 187 222 261
#     4   9  16  28  47  70  93 117 147 181 217 258
#     4  11  23  36  50  70  94 115 139 177 226 274
#     4   9  16  27  44  66  90 116 147 180 215 256
#     4  10  19  31  48  68  91 118 150 189 228 266
#     4   9  17  29  45  64  85 112 147 186 226 268
#     4   9  18  31  44  62  88 115 146 184 227 272
#     4  11  22  35  50  68  92 120 151 184 222 271
#
# _framework density 14.607518000000001
#
# number of rings (size 3 to 8) (size 9 to 14) (size 15 to 20)
#    0.000    2.333    1.333    2.067    0.000    3.200 
#    0.000    1.333    0.000    3.733    0.000    1.867 
#    0.000    0.000    0.000    0.000    0.000   13.867 
#
# Total GULP energy -1003481.101780 kJ/mol
# GULP energy per Si atom -5574.895010 kJ/mol
# Density = 1.457427 g / cm^3
# Si number density = 14.607518 Si / 1000 Ang^3
#
#
#
# Elastic Constant Matrix: (Units=GPa)
#
#
# Indices 1 2 3 4 5 6 
#
# 1 95.6130 54.4109 59.0985 0.0000 0.0000 0.0000
# 2 54.4109 95.6130 59.0985 0.0000 0.0000 0.0000
# 3 59.0985 59.0985 82.0169 0.0000 0.0000 0.0000
# 4 0.0000 0.0000 0.0000 15.0410 0.0000 0.0000
# 5 0.0000 0.0000 0.0000 0.0000 15.0410 0.0000
# 6 0.0000 0.0000 0.0000 0.0000 0.0000 20.6010
#
#
#
# Elastic Compliance Matrix: (Units=1/GPa)
#
#
# Indices 1 2 3 4 5 6 
#
# 1 0.019845 -0.004426 -0.011110 0.000000 0.000000 0.000000
# 2 -0.004426 0.019845 -0.011110 0.000000 0.000000 0.000000
# 3 -0.011110 -0.011110 0.028204 0.000000 0.000000 0.000000
# 4 0.000000 0.000000 0.000000 0.066485 0.000000 0.000000
# 5 0.000000 0.000000 0.000000 0.000000 0.066485 0.000000
# 6 0.000000 0.000000 0.000000 0.000000 0.000000 0.048541
#
#
# Mechanical properties :
#
#
# Convention : Reuss Voigt Hill
#
# Bulk Modulus (GPa) = 68.49055 68.71763 68.60409
# Shear Modulus (GPa) = 16.25674 16.84560 16.55117
#
# Velocity S-wave (km/s) = 3.33964 3.39959 3.36974
# Velocity P-wave (km/s) = 7.86511 7.90913 7.88715
#
# Compressibility (1/GPa) = 0.01460055
#
# Stress axis : x y z
#
# Youngs Moduli (GPa) = 50.39110 50.39110 35.45593
#
# Poissons Ratio (x) = 0.22302 0.39393
# Poissons Ratio (y) = 0.22302 0.39393
# Poissons Ratio (z) = 0.55986 0.55986
#
# Static dielectric constant tensor:
#      x y z
#    x 1.478370 0.000000 0.000000 
#    y 0.000000 1.478370 0.000000 
#    z 0.000000 0.000000 1.463300 
# 
# From -- ./inp_files/10843.got.cif
#   From: 2010.05.17/outbox.cif.g08.bks.cpg/sg191_6_cif.got.tgz:10843.got - 2010.05.20 12:20:32.
