data_PCOD9587727
_publ_section_title
;
Structure prediction by ZEFSAII (Michael W. Deem and Ramdas Pophale) SiO2 
 PCOD9587727
Probable space group: P 6/M M M
;
_chemical_formula_sum "Si O2"
_cell_formula_units_Z 96
_cell_length_a 18.686741
_cell_length_b 18.686741
_cell_length_c 19.232041
_cell_angle_alpha 90.000000
_cell_angle_beta 90.000000
_cell_angle_gamma 120.000000
_cell_volume 5815.983161
_symmetry_space_group_name_H-M "P 6/M M M"
_symmetry_group_IT_number 191
_symmetry_cell_setting 'hexagonal'
loop_
_space_group_symop_operation_xyz
x,y,z
x-y,x,z
-y,x-y,z
-x,-y,z
-x+y,-x,z
y,-x+y,z
x-y,-y,-z
-x,-x+y,-z
y,x,-z
-y,-x,-z
-x+y,y,-z
x,x-y,-z
-x,-y,-z
-x+y,-x,-z
y,-x+y,-z
x,y,-z
x-y,x,-z
-y,x-y,-z
-x+y,y,z
x,x-y,z
-y,-x,z
y,x,z
x-y,-y,z
-x,-x+y,z
loop_
_atom_site_type_symbol
_atom_site_label
_atom_site_fract_x
_atom_site_fract_y
_atom_site_fract_z
Si Si1 0.096057 0.903944 0.415375
Si Si2 0.901781 0.368633 0.343637
Si Si3 0.807465 0.614930 0.583333
Si Si4 0.835808 0.334298 0.812644
Si Si5 0.350133 0.256739 0.918265
O O1 0.095626 0.904375 0.500000
O O2 0.144188 0.855813 0.394236
O O3 0.000000 0.855717 0.393064
O O4 0.879589 0.439795 0.362508
O O5 0.854347 0.285389 0.387514
O O6 0.877905 0.347002 0.262728
O O7 0.000000 0.409659 0.352211
O O8 0.806602 0.613203 0.500000
O O9 0.834986 0.417493 0.830191
O O10 0.743265 0.256736 0.808477
O O11 0.883734 0.312157 0.869997
O O12 0.324118 0.162059 0.904382
O O13 0.279800 0.279800 0.904636
O O14 0.372549 0.272779 0.000000
#
# Coordination Sequence:
#
# PCOD9587727 Si02
#       5
#    12  24  12  24  24
#     4   9  17  30  51  78 106 133 161 198 250 318
#     4  10  21  37  56  77 102 135 176 221 265 312
#     4  11  22  37  54  77 103 135 172 217 272 324
#     4  10  19  33  53  77 105 139 175 212 251 300
#     4   9  18  32  51  77 108 141 177 217 260 305
#
# _framework density 16.506238
#
# number of rings (size 3 to 8) (size 9 to 14) (size 15 to 20)
#    0.000    2.250    1.250    1.875    0.000    4.500 
#    0.750    2.500    0.000    1.750    0.000    1.750 
#    0.000    0.000    0.000    0.000    0.000    0.000 
#
# Total GULP energy -535428.784975 kJ/mol
# GULP energy per Si atom -5577.383177 kJ/mol
# Density = 1.646867 g / cm^3
# Si number density = 16.506238 Si / 1000 Ang^3
#
#
#
# Elastic Constant Matrix: (Units=GPa)
#
#
# Indices 1 2 3 4 5 6 
#
# 1 139.8454 101.1064 58.1886 0.0000 0.0000 0.0000
# 2 101.1064 139.8454 58.1886 0.0000 0.0000 0.0000
# 3 58.1886 58.1886 50.1290 0.0000 0.0000 0.0000
# 4 0.0000 0.0000 0.0000 22.3499 0.0000 0.0000
# 5 0.0000 0.0000 0.0000 0.0000 22.3499 0.0000
# 6 0.0000 0.0000 0.0000 0.0000 0.0000 19.3695
#
#
#
# Elastic Compliance Matrix: (Units=1/GPa)
#
#
# Indices 1 2 3 4 5 6 
#
# 1 0.017630 -0.008184 -0.010965 0.000000 0.000000 0.000000
# 2 -0.008184 0.017630 -0.010965 0.000000 0.000000 0.000000
# 3 -0.010965 -0.010965 0.045404 0.000000 0.000000 0.000000
# 4 0.000000 0.000000 0.000000 0.044743 0.000000 0.000000
# 5 0.000000 0.000000 0.000000 0.000000 0.044743 0.000000
# 6 0.000000 0.000000 0.000000 0.000000 0.000000 0.051627
#
#
# Mechanical properties :
#
#
# Convention : Reuss Voigt Hill
#
# Bulk Modulus (GPa) = 48.93110 84.97631 66.95370
# Shear Modulus (GPa) = 17.31204 20.30296 18.80750
#
# Velocity S-wave (km/s) = 3.24206 3.51097 3.37919
# Velocity P-wave (km/s) = 6.61233 8.24796 7.47502
#
# Compressibility (1/GPa) = 0.02043690
#
# Stress axis : x y z
#
# Youngs Moduli (GPa) = 56.72176 56.72176 22.02451
#
# Poissons Ratio (x) = 0.46420 0.24149
# Poissons Ratio (y) = 0.46420 0.24149
# Poissons Ratio (z) = 0.62194 0.62194
#
# Static dielectric constant tensor:
#      x y z
#    x 1.542260 0.000000 0.000000 
#    y 0.000000 1.542260 0.000000 
#    z 0.000000 0.000000 1.536820 
# 
# From -- ./inp_files/7147.got.cif
#   From: 2010.05.17/outbox.cif.g08.bks.cpg/sg191_4_cif.got.tgz:7147.got - 2010.05.20 12:20:32.
