data_PCOD9587079
_publ_section_title
;
Structure prediction by ZEFSAII (Michael W. Deem and Ramdas Pophale) SiO2 
 PCOD9587079
Probable space group: P 6/M M M
;
_chemical_formula_sum "Si O2"
_cell_formula_units_Z 108
_cell_length_a 19.368658
_cell_length_b 19.368658
_cell_length_c 22.873157
_cell_angle_alpha 90.000000
_cell_angle_beta 90.000000
_cell_angle_gamma 120.000000
_cell_volume 7431.146173
_symmetry_space_group_name_H-M "P 6/M M M"
_symmetry_group_IT_number 191
_symmetry_cell_setting 'hexagonal'
loop_
_space_group_symop_operation_xyz
x,y,z
x-y,x,z
-y,x-y,z
-x,-y,z
-x+y,-x,z
y,-x+y,z
x-y,-y,-z
-x,-x+y,-z
y,x,-z
-y,-x,-z
-x+y,y,-z
x,x-y,-z
-x,-y,-z
-x+y,-x,-z
y,-x+y,-z
x,y,-z
x-y,x,-z
-y,x-y,-z
-x+y,y,z
x,x-y,z
-y,-x,z
y,x,z
x-y,-y,z
-x,-x+y,z
loop_
_atom_site_type_symbol
_atom_site_label
_atom_site_fract_x
_atom_site_fract_y
_atom_site_fract_z
Si Si1 0.249789 0.908819 0.570446
Si Si2 0.170836 0.668548 0.878547
Si Si3 0.630006 0.538198 0.000000
Si Si4 0.538538 0.628609 0.758768
Si Si5 0.827711 0.332031 0.637309
O O1 0.252729 0.907739 0.500000
O O2 0.160224 0.839777 0.588081
O O3 0.309363 0.880782 0.596265
O O4 0.279518 0.000000 0.588542
O O5 0.169407 0.584704 0.878476
O O6 0.260244 0.739757 0.874112
O O7 0.133631 0.673378 0.940100
O O8 0.122820 0.668802 0.821350
O O9 0.605196 0.605196 0.000000
O O10 0.546851 0.453150 0.000000
O O11 0.456351 0.543650 0.761772
O O12 0.608235 0.608235 0.748398
O O13 0.526218 0.672079 0.703738
O O14 0.839276 0.419638 0.627592
O O15 0.736058 0.263942 0.628934
#
# Coordination Sequence:
#
# PCOD9587079 Si02
#       5
#    24  24  12  24  24
#     4   9  18  32  49  68  89 114 144 178 217 261
#     4  10  18  27  39  55  75  97 123 158 202 248
#     4   9  17  28  40  52  68  93 124 156 190 232
#     4   9  17  28  41  56  75 102 136 172 209 249
#     4  10  19  30  44  63  88 117 149 184 220 255
#
# _framework density 14.533424
#
# number of rings (size 3 to 8) (size 9 to 14) (size 15 to 20)
#    0.000    2.556    0.000    2.778    0.000    4.444 
#    0.000    4.444    0.000    1.556    0.000    1.556 
#    0.000    0.000    0.000    0.000    0.000    0.000 
#
# Total GULP energy -601408.799209 kJ/mol
# GULP energy per Si atom -5568.599993 kJ/mol
# Density = 1.450035 g / cm^3
# Si number density = 14.533424 Si / 1000 Ang^3
#
#
#
# Elastic Constant Matrix: (Units=GPa)
#
#
# Indices 1 2 3 4 5 6 
#
# 1 60.2502 44.3302 22.2919 0.0000 0.0000 0.0000
# 2 44.3302 60.2502 22.2919 0.0000 0.0000 0.0000
# 3 22.2919 22.2919 35.8194 0.0000 0.0000 0.0000
# 4 0.0000 0.0000 0.0000 17.6597 0.0000 0.0000
# 5 0.0000 0.0000 0.0000 0.0000 17.6597 0.0000
# 6 0.0000 0.0000 0.0000 0.0000 0.0000 7.9600
#
#
#
# Elastic Compliance Matrix: (Units=1/GPa)
#
#
# Indices 1 2 3 4 5 6 
#
# 1 0.037915 -0.024900 -0.008100 0.000000 0.000000 0.000000
# 2 -0.024900 0.037915 -0.008100 0.000000 0.000000 0.000000
# 3 -0.008100 -0.008100 0.038000 0.000000 0.000000 0.000000
# 4 0.000000 0.000000 0.000000 0.056626 0.000000 0.000000
# 5 0.000000 0.000000 0.000000 0.000000 0.056626 0.000000
# 6 0.000000 0.000000 0.000000 0.000000 0.000000 0.125628
#
#
# Mechanical properties :
#
#
# Convention : Reuss Voigt Hill
#
# Bulk Modulus (GPa) = 31.61515 37.12753 34.37134
# Shear Modulus (GPa) = 11.22457 13.14959 12.18708
#
# Velocity S-wave (km/s) = 2.78209 3.01122 2.89892
# Velocity P-wave (km/s) = 5.66751 6.13936 5.90815
#
# Compressibility (1/GPa) = 0.03163040
#
# Stress axis : x y z
#
# Youngs Moduli (GPa) = 26.37504 26.37504 26.31608
#
# Poissons Ratio (x) = 0.65673 0.21316
# Poissons Ratio (y) = 0.65673 0.21316
# Poissons Ratio (z) = 0.21363 0.21363
#
# Static dielectric constant tensor:
#      x y z
#    x 1.469850 0.000000 0.000000 
#    y 0.000000 1.469850 0.000000 
#    z 0.000000 0.000000 1.499730 
# 
# From -- ./inp_files/6120.got.cif
#   From: 2010.05.17/outbox.cif.g08.bks.cpg/sg191_4_cif.got.tgz:6120.got - 2010.05.20 12:20:32.
