data_PCOD9587497
_publ_section_title
;
Structure prediction by ZEFSAII (Michael W. Deem and Ramdas Pophale) SiO2 
 PCOD9587497
Probable space group: P 6/M M M
;
_chemical_formula_sum "Si O2"
_cell_formula_units_Z 96
_cell_length_a 17.985580
_cell_length_b 17.985580
_cell_length_c 20.909854
_cell_angle_alpha 90.000000
_cell_angle_beta 90.000000
_cell_angle_gamma 120.000000
_cell_volume 5857.745879
_symmetry_space_group_name_H-M "P 6/M M M"
_symmetry_group_IT_number 191
_symmetry_cell_setting 'hexagonal'
loop_
_space_group_symop_operation_xyz
x,y,z
x-y,x,z
-y,x-y,z
-x,-y,z
-x+y,-x,z
y,-x+y,z
x-y,-y,-z
-x,-x+y,-z
y,x,-z
-y,-x,-z
-x+y,y,-z
x,x-y,-z
-x,-y,-z
-x+y,-x,-z
y,-x+y,-z
x,y,-z
x-y,x,-z
-y,x-y,-z
-x+y,y,z
x,x-y,z
-y,-x,z
y,x,z
x-y,-y,z
-x,-x+y,z
loop_
_atom_site_type_symbol
_atom_site_label
_atom_site_fract_x
_atom_site_fract_y
_atom_site_fract_z
Si Si1 0.370172 0.271764 0.000000
Si Si2 0.668956 0.505740 0.360655
Si Si3 0.361140 0.458852 0.500000
Si Si4 0.490910 0.332512 0.876743
Si Si5 0.270159 0.902781 0.244293
O O1 0.429933 0.313711 0.937916
O O2 0.294911 0.294911 0.000000
O O3 0.342203 0.171102 0.000000
O O4 0.736909 0.473817 0.348615
O O5 0.572533 0.427468 0.353051
O O6 0.681240 0.539560 0.433317
O O7 0.691337 0.580448 0.309986
O O8 0.383208 0.383208 0.500000
O O9 0.451654 0.548347 0.500000
O O10 0.517599 0.258800 0.877042
O O11 0.574003 0.425998 0.878528
O O12 0.434449 0.316885 0.813387
O O13 0.170338 0.829663 0.241325
O O14 0.291540 0.000000 0.239186
#
# Coordination Sequence:
#
# PCOD9587497 Si02
#       5
#    12  24  12  24  24
#     4  10  21  35  51  72  97 127 162 202 247 289
#     4  10  19  30  45  66  94 127 161 195 231 273
#     4   9  17  28  42  60  84 119 163 205 237 266
#     4  10  20  33  50  73 102 134 165 195 228 269
#     4  10  21  35  51  71  94 122 155 194 239 283
#
# _framework density 16.388556000000001
#
# number of rings (size 3 to 8) (size 9 to 14) (size 15 to 20)
#    0.000    2.125    0.000    3.500    0.000    5.000 
#    0.000    5.000    0.000    0.375    0.000    0.000 
#    0.000    6.000    0.000    0.000    0.000   26.500 
#
# Total GULP energy -535630.729089 kJ/mol
# GULP energy per Si atom -5579.486761 kJ/mol
# Density = 1.635125 g / cm^3
# Si number density = 16.388556 Si / 1000 Ang^3
#
#
#
# Elastic Constant Matrix: (Units=GPa)
#
#
# Indices 1 2 3 4 5 6 
#
# 1 93.0195 76.1730 35.1958 0.0000 0.0000 0.0000
# 2 76.1730 93.0195 35.1958 0.0000 0.0000 0.0000
# 3 35.1958 35.1958 113.6284 0.0000 0.0000 0.0000
# 4 0.0000 0.0000 0.0000 6.8889 0.0000 0.0000
# 5 0.0000 0.0000 0.0000 0.0000 6.8889 0.0000
# 6 0.0000 0.0000 0.0000 0.0000 0.0000 8.4232
#
#
#
# Elastic Compliance Matrix: (Units=1/GPa)
#
#
# Indices 1 2 3 4 5 6 
#
# 1 0.033072 -0.026287 -0.002102 0.000000 0.000000 0.000000
# 2 -0.026287 0.033072 -0.002102 0.000000 0.000000 0.000000
# 3 -0.002102 -0.002102 0.010102 0.000000 0.000000 0.000000
# 4 0.000000 0.000000 0.000000 0.145160 0.000000 0.000000
# 5 0.000000 0.000000 0.000000 0.000000 0.145160 0.000000
# 6 0.000000 0.000000 0.000000 0.000000 0.000000 0.118719
#
#
# Mechanical properties :
#
#
# Convention : Reuss Voigt Hill
#
# Bulk Modulus (GPa) = 65.50568 65.86629 65.68599
# Shear Modulus (GPa) = 9.06855 14.64708 11.85782
#
# Velocity S-wave (km/s) = 2.35488 2.99279 2.69279
# Velocity P-wave (km/s) = 6.88848 7.22634 7.05943
#
# Compressibility (1/GPa) = 0.01526585
#
# Stress axis : x y z
#
# Youngs Moduli (GPa) = 30.23692 30.23692 98.98541
#
# Poissons Ratio (x) = 0.79485 0.20802
# Poissons Ratio (y) = 0.79485 0.20802
# Poissons Ratio (z) = 0.06354 0.06354
#
# Static dielectric constant tensor:
#      x y z
#    x 1.538530 0.000000 0.000000 
#    y 0.000000 1.538530 0.000000 
#    z 0.000000 0.000000 1.562200 
# 
# From -- ./inp_files/7210.got.cif
#   From: 2010.05.17/outbox.cif.g08.bks.cpg/sg191_4_cif.got.tgz:7210.got - 2010.05.20 12:20:32.
