data_PCOD9587468
_publ_section_title
;
Structure prediction by ZEFSAII (Michael W. Deem and Ramdas Pophale) SiO2 
 PCOD9587468
Probable space group: P 6/M M M
;
_chemical_formula_sum "Si O2"
_cell_formula_units_Z 108
_cell_length_a 18.299432
_cell_length_b 18.299432
_cell_length_c 23.814753
_cell_angle_alpha 90.000000
_cell_angle_beta 90.000000
_cell_angle_gamma 120.000000
_cell_volume 6906.403258
_symmetry_space_group_name_H-M "P 6/M M M"
_symmetry_group_IT_number 191
_symmetry_cell_setting 'hexagonal'
loop_
_space_group_symop_operation_xyz
x,y,z
x-y,x,z
-y,x-y,z
-x,-y,z
-x+y,-x,z
y,-x+y,z
x-y,-y,-z
-x,-x+y,-z
y,x,-z
-y,-x,-z
-x+y,y,-z
x,x-y,-z
-x,-y,-z
-x+y,-x,-z
y,-x+y,-z
x,y,-z
x-y,x,-z
-y,x-y,-z
-x+y,y,z
x,x-y,z
-y,-x,z
y,x,z
x-y,-y,z
-x,-x+y,z
loop_
_atom_site_type_symbol
_atom_site_label
_atom_site_fract_x
_atom_site_fract_y
_atom_site_fract_z
Si Si1 0.506507 0.668463 0.560939
Si Si2 0.635766 0.094616 0.679973
Si Si3 0.493280 0.160951 0.000000
Si Si4 0.669132 0.502046 0.799094
Si Si5 0.731377 0.634156 0.896160
O O1 0.549104 0.676530 0.500000
O O2 0.481287 0.740644 0.562583
O O3 0.422611 0.577390 0.561299
O O4 0.555048 0.676567 0.618536
O O5 0.547350 0.094700 0.675942
O O6 0.680139 0.150914 0.733935
O O7 0.612735 0.000000 0.692370
O O8 0.433682 0.119227 0.946022
O O9 0.575452 0.150903 0.000000
O O10 0.519274 0.259637 0.000000
O O11 0.735809 0.471618 0.812908
O O12 0.574023 0.425978 0.807478
O O13 0.693270 0.581211 0.838959
O O14 0.830472 0.660944 0.898723
O O15 0.707133 0.707133 0.900678
#
# Coordination Sequence:
#
# PCOD9587468 Si02
#       5
#    24  24  12  24  24
#     4   9  16  25  37  52  70  93 123 162 209 259
#     4   9  17  27  38  53  74 102 136 173 211 251
#     4  10  20  33  50  73 102 134 165 194 224 261
#     4  10  19  30  45  65  90 119 150 183 219 261
#     4  10  21  35  51  71  94 122 154 190 232 274
#
# _framework density 15.637663
#
# number of rings (size 3 to 8) (size 9 to 14) (size 15 to 20)
#    0.000    2.444    0.000    2.889    0.000    4.444 
#    0.000    6.667    0.000    0.222    0.000    0.000 
#    0.000    2.667    0.000    0.000    0.000    0.000 
#
# Total GULP energy -601324.956866 kJ/mol
# GULP energy per Si atom -5567.823675 kJ/mol
# Density = 1.560207 g / cm^3
# Si number density = 15.637663 Si / 1000 Ang^3
#
#
#
# Elastic Constant Matrix: (Units=GPa)
#
#
# Indices 1 2 3 4 5 6 
#
# 1 60.7971 46.6305 25.8575 0.0000 0.0000 0.0000
# 2 46.6305 60.7971 25.8575 0.0000 0.0000 0.0000
# 3 25.8575 25.8575 91.3618 0.0000 0.0000 0.0000
# 4 0.0000 0.0000 0.0000 14.8674 0.0000 0.0000
# 5 0.0000 0.0000 0.0000 0.0000 14.8674 0.0000
# 6 0.0000 0.0000 0.0000 0.0000 0.0000 7.0833
#
#
#
# Elastic Compliance Matrix: (Units=1/GPa)
#
#
# Indices 1 2 3 4 5 6 
#
# 1 0.040683 -0.029906 -0.003050 0.000000 0.000000 0.000000
# 2 -0.029906 0.040683 -0.003050 0.000000 0.000000 0.000000
# 3 -0.003050 -0.003050 0.012672 0.000000 0.000000 0.000000
# 4 0.000000 0.000000 0.000000 0.067261 0.000000 0.000000
# 5 0.000000 0.000000 0.000000 0.000000 0.067261 0.000000
# 6 0.000000 0.000000 0.000000 0.000000 0.000000 0.141177
#
#
# Mechanical properties :
#
#
# Convention : Reuss Voigt Hill
#
# Bulk Modulus (GPa) = 45.40225 45.51635 45.45930
# Shear Modulus (GPa) = 11.13360 15.00431 13.06895
#
# Velocity S-wave (km/s) = 2.67118 3.10094 2.89405
# Velocity P-wave (km/s) = 6.21374 6.48006 6.34829
#
# Compressibility (1/GPa) = 0.02202534
#
# Stress axis : x y z
#
# Youngs Moduli (GPa) = 24.58047 24.58047 78.91412
#
# Poissons Ratio (x) = 0.73510 0.24070
# Poissons Ratio (y) = 0.73510 0.24070
# Poissons Ratio (z) = 0.07497 0.07497
#
# Static dielectric constant tensor:
#      x y z
#    x 1.510980 0.000000 0.000000 
#    y 0.000000 1.510980 0.000000 
#    z 0.000000 0.000000 1.577810 
# 
# From -- ./inp_files/8375.got.cif
#   From: 2010.05.17/outbox.cif.g08.bks.cpg/sg191_5_cif.got.tgz:8375.got - 2010.05.20 12:20:32.
