data_PCOD9587930
_publ_section_title
;
Structure prediction by ZEFSAII (Michael W. Deem and Ramdas Pophale) SiO2 
 PCOD9587930
Probable space group: P 6/M M M
;
_chemical_formula_sum "Si O2"
_cell_formula_units_Z 96
_cell_length_a 17.030454
_cell_length_b 17.030454
_cell_length_c 24.799667
_cell_angle_alpha 90.000000
_cell_angle_beta 90.000000
_cell_angle_gamma 120.000000
_cell_volume 6229.152055
_symmetry_space_group_name_H-M "P 6/M M M"
_symmetry_group_IT_number 191
_symmetry_cell_setting 'hexagonal'
loop_
_space_group_symop_operation_xyz
x,y,z
x-y,x,z
-y,x-y,z
-x,-y,z
-x+y,-x,z
y,-x+y,z
x-y,-y,-z
-x,-x+y,-z
y,x,-z
-y,-x,-z
-x+y,y,-z
x,x-y,-z
-x,-y,-z
-x+y,-x,-z
y,-x+y,-z
x,y,-z
x-y,x,-z
-y,x-y,-z
-x+y,y,z
x,x-y,z
-y,-x,z
y,x,z
x-y,-y,z
-x,-x+y,z
loop_
_atom_site_type_symbol
_atom_site_label
_atom_site_fract_x
_atom_site_fract_y
_atom_site_fract_z
Si Si1 0.389969 0.285373 0.620634
Si Si2 0.554919 0.109838 0.438393
Si Si3 0.667675 0.149832 0.733062
Si Si4 0.000000 0.404259 0.061586
Si Si5 0.331795 0.480076 0.146572
O O1 0.362501 0.181251 0.609802
O O2 0.319150 0.319150 0.605277
O O3 0.486328 0.351744 0.591415
O O4 0.412668 0.305264 0.684152
O O5 0.571157 0.142313 0.500000
O O6 0.500000 0.000000 0.438738
O O7 0.567907 0.135814 0.724365
O O8 0.743017 0.256983 0.733043
O O9 0.671567 0.114980 0.792856
O O10 0.914642 0.337158 0.097626
O O11 0.000000 0.500000 0.060203
O O12 0.000000 0.376885 0.000000
O O13 0.246609 0.493218 0.140106
O O14 0.423472 0.576529 0.145562
#
# Coordination Sequence:
#
# PCOD9587930 Si02
#       5
#    24  12  24  12  24
#     4  10  20  33  50  72  98 131 167 206 246 290
#     4   9  18  34  52  72 100 132 162 196 234 282
#     4   9  16  26  43  66  92 117 149 189 231 274
#     4   9  18  30  40  56  82 110 141 181 223 265
#     4   9  17  28  43  62  83 113 148 185 222 266
#
# _framework density 15.411407000000001
#
# number of rings (size 3 to 8) (size 9 to 14) (size 15 to 20)
#    0.000    2.750    1.250    0.500    1.750    3.000 
#    0.750    0.000    0.000    1.750    0.000    0.000 
#    0.000    0.000    0.000    6.625    0.000    1.625 
#
# Total GULP energy -534485.461763 kJ/mol
# GULP energy per Si atom -5567.556893 kJ/mol
# Density = 1.537633 g / cm^3
# Si number density = 15.411407 Si / 1000 Ang^3
#
#
#
# Elastic Constant Matrix: (Units=GPa)
#
#
# Indices 1 2 3 4 5 6 
#
# 1 83.6881 0.2335 24.9336 0.0000 0.0000 0.0000
# 2 0.2335 83.6881 24.9336 0.0000 0.0000 0.0000
# 3 24.9336 24.9336 100.8522 0.0000 0.0000 0.0000
# 4 0.0000 0.0000 0.0000 13.0330 0.0000 0.0000
# 5 0.0000 0.0000 0.0000 0.0000 13.0330 0.0000
# 6 0.0000 0.0000 0.0000 0.0000 0.0000 41.7273
#
#
#
# Elastic Compliance Matrix: (Units=1/GPa)
#
#
# Indices 1 2 3 4 5 6 
#
# 1 0.012975 0.000993 -0.003453 0.000000 0.000000 0.000000
# 2 0.000993 0.012975 -0.003453 0.000000 0.000000 0.000000
# 3 -0.003453 -0.003453 0.011623 0.000000 0.000000 0.000000
# 4 0.000000 0.000000 0.000000 0.076728 0.000000 0.000000
# 5 0.000000 0.000000 0.000000 0.000000 0.076728 0.000000
# 6 0.000000 0.000000 0.000000 0.000000 0.000000 0.023965
#
#
# Mechanical properties :
#
#
# Convention : Reuss Voigt Hill
#
# Bulk Modulus (GPa) = 38.84148 40.93661 39.88904
# Shear Modulus (GPa) = 21.24004 28.10053 24.67028
#
# Velocity S-wave (km/s) = 3.71644 4.27471 4.00532
# Velocity P-wave (km/s) = 6.60861 7.14034 6.87961
#
# Compressibility (1/GPa) = 0.02574567
#
# Stress axis : x y z
#
# Youngs Moduli (GPa) = 77.07009 77.07009 86.03638
#
# Poissons Ratio (x) = -0.07650 0.29711
# Poissons Ratio (y) = -0.07650 0.29711
# Poissons Ratio (z) = 0.26614 0.26614
#
# Static dielectric constant tensor:
#      x y z
#    x 1.511890 0.000000 0.000000 
#    y 0.000000 1.511890 0.000000 
#    z 0.000000 0.000000 1.548010 
# 
# From -- ./inp_files/8259.got.cif
#   From: 2010.05.17/outbox.cif.g08.bks.cpg/sg191_5_cif.got.tgz:8259.got - 2010.05.20 12:20:32.
