data_PCOD9587169
_publ_section_title
;
Structure prediction by ZEFSAII (Michael W. Deem and Ramdas Pophale) SiO2 
 PCOD9587169
Probable space group: P 6/M M M
;
_chemical_formula_sum "Si O2"
_cell_formula_units_Z 168
_cell_length_a 23.713888
_cell_length_b 23.713888
_cell_length_c 20.688023
_cell_angle_alpha 90.000000
_cell_angle_beta 90.000000
_cell_angle_gamma 120.000000
_cell_volume 10075.234215
_symmetry_space_group_name_H-M "P 6/M M M"
_symmetry_group_IT_number 191
_symmetry_cell_setting 'hexagonal'
loop_
_space_group_symop_operation_xyz
x,y,z
x-y,x,z
-y,x-y,z
-x,-y,z
-x+y,-x,z
y,-x+y,z
x-y,-y,-z
-x,-x+y,-z
y,x,-z
-y,-x,-z
-x+y,y,-z
x,x-y,-z
-x,-y,-z
-x+y,-x,-z
y,-x+y,-z
x,y,-z
x-y,x,-z
-y,x-y,-z
-x+y,y,z
x,x-y,z
-y,-x,z
y,x,z
x-y,-y,z
-x,-x+y,z
loop_
_atom_site_type_symbol
_atom_site_label
_atom_site_fract_x
_atom_site_fract_y
_atom_site_fract_z
Si Si1 0.607345 0.735286 0.927256
Si Si2 0.718107 0.924537 0.823592
Si Si3 0.333611 0.793491 0.403451
Si Si4 0.609367 0.872501 0.570558
Si Si5 0.074986 0.366863 0.288627
Si Si6 0.837804 0.356478 0.740206
Si Si7 0.333387 0.796463 0.114355
O O1 0.605100 0.802550 0.926080
O O2 0.663553 0.748487 0.876581
O O3 0.533901 0.680758 0.908857
O O4 0.622888 0.724637 0.000000
O O5 0.737300 0.868650 0.834669
O O6 0.679768 0.910148 0.755562
O O7 0.775129 0.000000 0.824626
O O8 0.403860 0.807719 0.424475
O O9 0.277103 0.722898 0.424443
O O10 0.313775 0.845672 0.426050
O O11 0.334004 0.795795 0.325158
O O12 0.634194 0.903495 0.500000
O O13 0.615784 0.807892 0.574374
O O14 0.638421 0.912503 0.635755
O O15 0.116744 0.441422 0.266025
O O16 0.000000 0.343219 0.278278
O O17 0.870725 0.435363 0.740194
O O18 0.799662 0.333742 0.807409
O O19 0.402119 0.804237 0.093613
O O20 0.272929 0.727072 0.093242
#
# Coordination Sequence:
#
# PCOD9587169 Si02
#       7
#    24  24  24  24  24  24  24
#     4   9  18  32  50  72 101 136 170 206 248 293
#     4  10  20  35  57  83 107 131 162 199 237 282
#     4   9  16  25  39  58  81 109 147 196 250 304
#     4   9  18  31  45  62  88 121 152 186 234 290
#     4  10  19  31  50  73  94 122 160 201 243 287
#     4   9  17  28  42  62  89 123 160 205 257 306
#     4  10  18  28  44  67  97 133 174 219 266 311
#
# _framework density 16.674551000000001
#
# number of rings (size 3 to 8) (size 9 to 14) (size 15 to 20)
#    0.000    2.571    1.429    1.143    0.000    2.571 
#    0.000    1.429    0.000    2.286    0.000    5.000 
#    0.000    0.000    0.000    3.571    0.000    0.000 
#
# Total GULP energy -935852.049621 kJ/mol
# GULP energy per Si atom -5570.547914 kJ/mol
# Density = 1.663660 g / cm^3
# Si number density = 16.674551 Si / 1000 Ang^3
#
#
#
# Elastic Constant Matrix: (Units=GPa)
#
#
# Indices 1 2 3 4 5 6 
#
# 1 66.4207 38.3811 13.6741 0.0000 0.0000 0.0000
# 2 38.3811 66.4207 13.6741 0.0000 0.0000 0.0000
# 3 13.6741 13.6741 81.1699 0.0000 0.0000 0.0000
# 4 0.0000 0.0000 0.0000 71.2960 0.0000 0.0000
# 5 0.0000 0.0000 0.0000 0.0000 71.2960 0.0000
# 6 0.0000 0.0000 0.0000 0.0000 0.0000 14.0198
#
#
#
# Elastic Compliance Matrix: (Units=1/GPa)
#
#
# Indices 1 2 3 4 5 6 
#
# 1 0.022822 -0.012842 -0.001681 0.000000 0.000000 0.000000
# 2 -0.012842 0.022822 -0.001681 0.000000 0.000000 0.000000
# 3 -0.001681 -0.001681 0.012886 0.000000 0.000000 0.000000
# 4 0.000000 0.000000 0.000000 0.014026 0.000000 0.000000
# 5 0.000000 0.000000 0.000000 0.000000 0.014026 0.000000
# 6 0.000000 0.000000 0.000000 0.000000 0.000000 0.071328
#
#
# Mechanical properties :
#
#
# Convention : Reuss Voigt Hill
#
# Bulk Modulus (GPa) = 38.28180 38.38552 38.33366
# Shear Modulus (GPa) = 25.12226 41.20784 33.16505
#
# Velocity S-wave (km/s) = 3.88573 4.97661 4.46462
# Velocity P-wave (km/s) = 6.56810 7.48950 7.04388
#
# Compressibility (1/GPa) = 0.02612207
#
# Stress axis : x y z
#
# Youngs Moduli (GPa) = 43.81692 43.81692 77.60166
#
# Poissons Ratio (x) = 0.56268 0.13048
# Poissons Ratio (y) = 0.56268 0.13048
# Poissons Ratio (z) = 0.07367 0.07367
#
# Static dielectric constant tensor:
#      x y z
#    x 1.548780 0.000000 0.000000 
#    y 0.000000 1.548780 0.000000 
#    z 0.000000 0.000000 1.606660 
# 
# From -- ./inp_files/7912.got.cif
#   From: 2010.05.17/outbox.cif.g08.bks.cpg/sg191_4_cif.got.tgz:7912.got - 2010.05.20 12:20:32.
