data_PCOD9587710
_publ_section_title
;
Structure prediction by ZEFSAII (Michael W. Deem and Ramdas Pophale) SiO2 
 PCOD9587710
Probable space group: P 6/M M M
;
_chemical_formula_sum "Si O2"
_cell_formula_units_Z 132
_cell_length_a 26.644330
_cell_length_b 26.644330
_cell_length_c 15.456485
_cell_angle_alpha 90.000000
_cell_angle_beta 90.000000
_cell_angle_gamma 120.000000
_cell_volume 9502.786593
_symmetry_space_group_name_H-M "P 6/M M M"
_symmetry_group_IT_number 191
_symmetry_cell_setting 'hexagonal'
loop_
_space_group_symop_operation_xyz
x,y,z
x-y,x,z
-y,x-y,z
-x,-y,z
-x+y,-x,z
y,-x+y,z
x-y,-y,-z
-x,-x+y,-z
y,x,-z
-y,-x,-z
-x+y,y,-z
x,x-y,-z
-x,-y,-z
-x+y,-x,-z
y,-x+y,-z
x,y,-z
x-y,x,-z
-y,x-y,-z
-x+y,y,z
x,x-y,z
-y,-x,z
y,x,z
x-y,-y,z
-x,-x+y,z
loop_
_atom_site_type_symbol
_atom_site_label
_atom_site_fract_x
_atom_site_fract_y
_atom_site_fract_z
Si Si1 0.787630 0.333784 0.500000
Si Si2 0.438963 0.000000 0.601352
Si Si3 0.355310 0.290659 0.104207
Si Si4 0.548969 0.216206 0.000000
Si Si5 0.937386 0.763348 0.105053
Si Si6 0.825026 0.294822 0.829943
Si Si7 0.871554 0.375627 0.663571
O O1 0.728352 0.271649 0.500000
O O2 0.773575 0.386788 0.500000
O O3 0.828903 0.344310 0.582583
O O4 0.392546 0.938400 0.644161
O O5 0.500000 0.000000 0.602876
O O6 0.424136 0.000000 0.500000
O O7 0.341206 0.341206 0.129091
O O8 0.298035 0.229979 0.125234
O O9 0.409436 0.291011 0.146449
O O10 0.362210 0.293186 0.000000
O O11 0.510885 0.189310 0.086149
O O12 0.603947 0.207894 0.000000
O O13 0.567764 0.283882 0.000000
O O14 0.884033 0.768065 0.139177
O O15 0.000000 0.813038 0.134592
O O16 0.936672 0.765664 0.000000
O O17 0.768227 0.231774 0.814981
O O18 0.842733 0.335993 0.746925
O O19 0.873568 0.436784 0.675181
#
# Coordination Sequence:
#
# PCOD9587710 Si02
#       7
#    12  12  24  12  24  24  24
#     4  10  19  33  51  71  93 115 140 180 230 280
#     4   9  16  32  54  73  87 113 147 178 222 275
#     4   9  17  29  44  62  85 112 145 185 225 263
#     4  10  21  36  51  65  87 121 160 193 223 265
#     4   8  13  21  35  53  73  99 132 169 206 245
#     4  11  21  32  48  69  92 121 153 188 228 267
#     4  10  20  33  50  70  94 116 145 184 224 273
#
# _framework density 13.890662000000001
#
# number of rings (size 3 to 8) (size 9 to 14) (size 15 to 20)
#    0.000    2.455    1.818    2.909    1.273    0.727 
#    0.000    0.000    0.000    6.545    0.000    1.273 
#    0.000    0.000    0.000    0.000    0.000    0.000 
#
# Total GULP energy -734973.379414 kJ/mol
# GULP energy per Si atom -5567.980147 kJ/mol
# Density = 1.385905 g / cm^3
# Si number density = 13.890662 Si / 1000 Ang^3
#
#
#
# Elastic Constant Matrix: (Units=GPa)
#
#
# Indices 1 2 3 4 5 6 
#
# 1 103.1626 63.1262 49.2539 0.0000 0.0000 0.0000
# 2 63.1262 103.1626 49.2539 0.0000 0.0000 0.0000
# 3 49.2539 49.2539 86.1655 0.0000 0.0000 0.0000
# 4 0.0000 0.0000 0.0000 12.1013 0.0000 0.0000
# 5 0.0000 0.0000 0.0000 0.0000 12.1013 0.0000
# 6 0.0000 0.0000 0.0000 0.0000 0.0000 20.0182
#
#
#
# Elastic Compliance Matrix: (Units=1/GPa)
#
#
# Indices 1 2 3 4 5 6 
#
# 1 0.017035 -0.007942 -0.005197 0.000000 0.000000 0.000000
# 2 -0.007942 0.017035 -0.005197 0.000000 0.000000 0.000000
# 3 -0.005197 -0.005197 0.017548 0.000000 0.000000 0.000000
# 4 0.000000 0.000000 0.000000 0.082636 0.000000 0.000000
# 5 0.000000 0.000000 0.000000 0.000000 0.082636 0.000000
# 6 0.000000 0.000000 0.000000 0.000000 0.000000 0.049955
#
#
# Mechanical properties :
#
#
# Convention : Reuss Voigt Hill
#
# Bulk Modulus (GPa) = 66.92218 68.41762 67.66990
# Shear Modulus (GPa) = 16.20748 17.56793 16.88770
#
# Velocity S-wave (km/s) = 3.41954 3.56016 3.49056
# Velocity P-wave (km/s) = 7.99208 8.14009 8.06642
#
# Compressibility (1/GPa) = 0.01494273
#
# Stress axis : x y z
#
# Youngs Moduli (GPa) = 58.70297 58.70297 56.98803
#
# Poissons Ratio (x) = 0.46624 0.29619
# Poissons Ratio (y) = 0.46624 0.29619
# Poissons Ratio (z) = 0.30511 0.30511
#
# Static dielectric constant tensor:
#      x y z
#    x 1.456650 0.000000 0.000000 
#    y 0.000000 1.456650 0.000000 
#    z 0.000000 0.000000 1.448120 
# 
# From -- ./inp_files/5228.got.cif
#   From: 2010.05.17/outbox.cif.g08.bks.cpg/sg191_3_cif.got.tgz:5228.got - 2010.05.20 12:20:32.
