data_PCOD9587634
_publ_section_title
;
Structure prediction by ZEFSAII (Michael W. Deem and Ramdas Pophale) SiO2 
 PCOD9587634
Probable space group: P 6/M M M
;
_chemical_formula_sum "Si O2"
_cell_formula_units_Z 168
_cell_length_a 17.982538
_cell_length_b 17.982538
_cell_length_c 36.509346
_cell_angle_alpha 90.000000
_cell_angle_beta 90.000000
_cell_angle_gamma 120.000000
_cell_volume 10224.372381
_symmetry_space_group_name_H-M "P 6/M M M"
_symmetry_group_IT_number 191
_symmetry_cell_setting 'hexagonal'
loop_
_space_group_symop_operation_xyz
x,y,z
x-y,x,z
-y,x-y,z
-x,-y,z
-x+y,-x,z
y,-x+y,z
x-y,-y,-z
-x,-x+y,-z
y,x,-z
-y,-x,-z
-x+y,y,-z
x,x-y,-z
-x,-y,-z
-x+y,-x,-z
y,-x+y,-z
x,y,-z
x-y,x,-z
-y,x-y,-z
-x+y,y,z
x,x-y,z
-y,-x,z
y,x,z
x-y,-y,z
-x,-x+y,z
loop_
_atom_site_type_symbol
_atom_site_label
_atom_site_fract_x
_atom_site_fract_y
_atom_site_fract_z
Si Si1 0.266901 0.365589 0.608504
Si Si2 0.635982 0.532336 0.678096
Si Si3 0.666426 0.507775 0.957751
Si Si4 0.841350 0.333575 0.457751
Si Si5 0.897407 0.267947 0.750000
Si Si6 0.364018 0.896353 0.178095
Si Si7 0.634413 0.733100 0.108504
O O1 0.166004 0.332007 0.607377
O O2 0.294157 0.294157 0.614281
O O3 0.307688 0.434164 0.641566
O O4 0.308813 0.416873 0.571088
O O5 0.569129 0.430872 0.678922
O O6 0.578549 0.578549 0.677541
O O7 0.693038 0.569472 0.714292
O O8 0.741877 0.483754 0.955050
O O9 0.574757 0.425244 0.949433
O O10 0.691189 0.583128 0.928912
O O11 0.665239 0.533236 0.000000
O O12 0.867998 0.334762 0.500000
O O13 0.850487 0.425244 0.449433
O O14 0.741878 0.258122 0.455050
O O15 0.834281 0.165720 0.750001
O O16 0.876434 0.306964 0.785709
O O17 0.000000 0.302879 0.750001
O O18 0.430871 0.861742 0.178921
O O19 0.307687 0.873524 0.141566
O O20 0.421452 0.000000 0.177541
O O21 0.667996 0.833998 0.107377
O O22 0.705844 0.705844 0.114281
#
# Coordination Sequence:
#
# PCOD9587634 Si02
#       7
#    24  24  24  24  24  24  24
#     4  10  20  33  49  69  93 122 157 196 236 277
#     4   9  17  30  49  71  93 118 149 185 226 275
#     4   9  17  29  46  69  97 127 156 186 223 270
#     4   9  17  29  46  69  97 127 156 186 223 270
#     4  10  19  31  49  72  97 127 164 204 243 281
#     4   9  17  30  49  71  93 118 149 185 226 275
#     4  10  20  33  49  69  93 122 157 196 236 277
#
# _framework density 16.431325999999999
#
# number of rings (size 3 to 8) (size 9 to 14) (size 15 to 20)
#    0.000    2.571    0.000    2.429    0.000    5.143 
#    0.000    1.429    0.000   10.143    0.000    0.000 
#    0.000    6.857    0.000    7.143    0.000    0.571 
#
# Total GULP energy -936358.843015 kJ/mol
# GULP energy per Si atom -5573.564542 kJ/mol
# Density = 1.639393 g / cm^3
# Si number density = 16.431326 Si / 1000 Ang^3
#
#
#
# Elastic Constant Matrix: (Units=GPa)
#
#
# Indices 1 2 3 4 5 6 
#
# 1 78.4316 55.1828 35.2902 0.0000 0.0000 0.0000
# 2 55.1828 78.4316 35.2902 0.0000 0.0000 0.0000
# 3 35.2902 35.2902 82.9762 0.0000 0.0000 0.0000
# 4 0.0000 0.0000 0.0000 15.3028 0.0000 0.0000
# 5 0.0000 0.0000 0.0000 0.0000 15.3028 0.0000
# 6 0.0000 0.0000 0.0000 0.0000 0.0000 11.6244
#
#
#
# Elastic Compliance Matrix: (Units=1/GPa)
#
#
# Indices 1 2 3 4 5 6 
#
# 1 0.026333 -0.016680 -0.004105 0.000000 0.000000 0.000000
# 2 -0.016680 0.026333 -0.004105 0.000000 0.000000 0.000000
# 3 -0.004105 -0.004105 0.015544 0.000000 0.000000 0.000000
# 4 0.000000 0.000000 0.000000 0.065347 0.000000 0.000000
# 5 0.000000 0.000000 0.000000 0.000000 0.065347 0.000000
# 6 0.000000 0.000000 0.000000 0.000000 0.000000 0.086026
#
#
# Mechanical properties :
#
#
# Convention : Reuss Voigt Hill
#
# Bulk Modulus (GPa) = 54.26573 54.59620 54.43096
# Shear Modulus (GPa) = 14.66901 16.05109 15.36005
#
# Velocity S-wave (km/s) = 2.99113 3.12887 3.06077
# Velocity P-wave (km/s) = 6.71019 6.80824 6.75939
#
# Compressibility (1/GPa) = 0.01842784
#
# Stress axis : x y z
#
# Youngs Moduli (GPa) = 37.97535 37.97535 64.33448
#
# Poissons Ratio (x) = 0.63343 0.26412
# Poissons Ratio (y) = 0.63343 0.26412
# Poissons Ratio (z) = 0.15590 0.15590
#
# Static dielectric constant tensor:
#      x y z
#    x 1.547870 0.000000 0.000000 
#    y 0.000000 1.547870 0.000000 
#    z 0.000000 0.000000 1.563950 
# 
# From -- ./inp_files/10749.got.cif
#   From: 2010.05.17/outbox.cif.g08.bks.cpg/sg191_6_cif.got.tgz:10749.got - 2010.05.20 12:20:32.
