data_PCOD9587034
_publ_section_title
;
Structure prediction by ZEFSAII (Michael W. Deem and Ramdas Pophale) SiO2 
 PCOD9587034
Probable space group: P 6/M M M
;
_chemical_formula_sum "Si O2"
_cell_formula_units_Z 168
_cell_length_a 23.126355
_cell_length_b 23.126355
_cell_length_c 24.282029
_cell_angle_alpha 90.000000
_cell_angle_beta 90.000000
_cell_angle_gamma 120.000000
_cell_volume 11246.826127
_symmetry_space_group_name_H-M "P 6/M M M"
_symmetry_group_IT_number 191
_symmetry_cell_setting 'hexagonal'
loop_
_space_group_symop_operation_xyz
x,y,z
x-y,x,z
-y,x-y,z
-x,-y,z
-x+y,-x,z
y,-x+y,z
x-y,-y,-z
-x,-x+y,-z
y,x,-z
-y,-x,-z
-x+y,y,-z
x,x-y,-z
-x,-y,-z
-x+y,-x,-z
y,-x+y,-z
x,y,-z
x-y,x,-z
-y,x-y,-z
-x+y,y,z
x,x-y,z
-y,-x,z
y,x,z
x-y,-y,z
-x,-x+y,z
loop_
_atom_site_type_symbol
_atom_site_label
_atom_site_fract_x
_atom_site_fract_y
_atom_site_fract_z
Si Si1 0.472722 0.080862 0.939435
Si Si2 0.528683 0.919586 0.351033
Si Si3 0.410528 0.272636 0.565200
Si Si4 0.280715 0.074956 0.062048
Si Si5 0.863859 0.594287 0.728780
Si Si6 0.790960 0.077181 0.356521
Si Si7 0.616258 0.920733 0.150571
O O1 0.547639 0.095278 0.934581
O O2 0.449433 0.104446 0.886752
O O3 0.425684 0.000000 0.939966
O O4 0.464779 0.104616 0.000000
O O5 0.454352 0.908703 0.350299
O O6 0.543859 0.885847 0.403270
O O7 0.545917 0.886823 0.299323
O O8 0.579033 0.000000 0.351395
O O9 0.409896 0.281479 0.500000
O O10 0.430367 0.215184 0.575937
O O11 0.336999 0.242172 0.592052
O O12 0.258691 0.129346 0.066931
O O13 0.332933 0.085712 0.109351
O O14 0.221108 0.000000 0.066967
O O15 0.309601 0.081199 0.000000
O O16 0.786292 0.572583 0.720422
O O17 0.905082 0.664562 0.696100
O O18 0.882279 0.604060 0.792698
O O19 0.869536 0.130465 0.357116
O O20 0.768745 0.000000 0.356486
O O21 0.648456 0.000000 0.162819
#
# Coordination Sequence:
#
# PCOD9587034 Si02
#       7
#    24  24  24  24  24  24  24
#     4   8  14  24  37  56  84 115 143 169 202 249
#     4  10  20  32  47  68  93 119 145 177 219 264
#     4   9  17  30  49  71  94 120 149 181 215 251
#     4   9  17  28  41  58  81 108 138 174 217 263
#     4  10  19  31  46  63  86 115 146 181 219 259
#     4   9  17  29  45  65  90 120 151 183 219 258
#     4  10  17  25  41  63  85 110 140 175 215 256
#
# _framework density 14.937548
#
# number of rings (size 3 to 8) (size 9 to 14) (size 15 to 20)
#    0.000    2.714    0.000    5.143    0.000    3.714 
#    0.000    2.143    0.000    2.571    0.000    1.000 
#    0.000    0.000    0.000    8.143    0.000   10.143 
#
# Total GULP energy -935412.937999 kJ/mol
# GULP energy per Si atom -5567.934155 kJ/mol
# Density = 1.490355 g / cm^3
# Si number density = 14.937548 Si / 1000 Ang^3
#
#
#
# Elastic Constant Matrix: (Units=GPa)
#
#
# Indices 1 2 3 4 5 6 
#
# 1 88.3956 56.5271 47.1845 0.0000 0.0000 0.0000
# 2 56.5271 88.3956 47.1845 0.0000 0.0000 0.0000
# 3 47.1845 47.1845 121.9816 0.0000 0.0000 0.0000
# 4 0.0000 0.0000 0.0000 12.3285 0.0000 0.0000
# 5 0.0000 0.0000 0.0000 0.0000 12.3285 0.0000
# 6 0.0000 0.0000 0.0000 0.0000 0.0000 15.9342
#
#
#
# Elastic Compliance Matrix: (Units=1/GPa)
#
#
# Indices 1 2 3 4 5 6 
#
# 1 0.020301 -0.011078 -0.003568 0.000000 0.000000 0.000000
# 2 -0.011078 0.020301 -0.003568 0.000000 0.000000 0.000000
# 3 -0.003568 -0.003568 0.010958 0.000000 0.000000 0.000000
# 4 0.000000 0.000000 0.000000 0.081113 0.000000 0.000000
# 5 0.000000 0.000000 0.000000 0.000000 0.081113 0.000000
# 6 0.000000 0.000000 0.000000 0.000000 0.000000 0.062758
#
#
# Mechanical properties :
#
#
# Convention : Reuss Voigt Hill
#
# Bulk Modulus (GPa) = 66.07689 66.72946 66.40318
# Shear Modulus (GPa) = 15.72249 17.97668 16.84959
#
# Velocity S-wave (km/s) = 3.24782 3.47285 3.36222
# Velocity P-wave (km/s) = 7.64172 7.80065 7.72160
#
# Compressibility (1/GPa) = 0.01513388
#
# Stress axis : x y z
#
# Youngs Moduli (GPa) = 49.25816 49.25816 91.25653
#
# Poissons Ratio (x) = 0.54567 0.32558
# Poissons Ratio (y) = 0.54567 0.32558
# Poissons Ratio (z) = 0.17574 0.17574
#
# Static dielectric constant tensor:
#      x y z
#    x 1.488940 0.000000 0.000000 
#    y 0.000000 1.488940 0.000000 
#    z 0.000000 0.000000 1.513080 
# 
# From -- ./inp_files/7901.got.cif
#   From: 2010.05.17/outbox.cif.g08.bks.cpg/sg191_4_cif.got.tgz:7901.got - 2010.05.20 12:20:32.
