data_PCOD9587545
_publ_section_title
;
Structure prediction by ZEFSAII (Michael W. Deem and Ramdas Pophale) SiO2 
 PCOD9587545
Probable space group: P 6/M M M
;
_chemical_formula_sum "Si O2"
_cell_formula_units_Z 192
_cell_length_a 25.615411
_cell_length_b 25.615411
_cell_length_c 19.590654
_cell_angle_alpha 90.000000
_cell_angle_beta 90.000000
_cell_angle_gamma 120.000000
_cell_volume 11132.231348
_symmetry_space_group_name_H-M "P 6/M M M"
_symmetry_group_IT_number 191
_symmetry_cell_setting 'hexagonal'
loop_
_space_group_symop_operation_xyz
x,y,z
x-y,x,z
-y,x-y,z
-x,-y,z
-x+y,-x,z
y,-x+y,z
x-y,-y,-z
-x,-x+y,-z
y,x,-z
-y,-x,-z
-x+y,y,-z
x,x-y,-z
-x,-y,-z
-x+y,-x,-z
y,-x+y,-z
x,y,-z
x-y,x,-z
-y,x-y,-z
-x+y,y,z
x,x-y,z
-y,-x,z
y,x,z
x-y,-y,z
-x,-x+y,z
loop_
_atom_site_type_symbol
_atom_site_label
_atom_site_fract_x
_atom_site_fract_y
_atom_site_fract_z
Si Si1 0.071145 0.708989 0.576895
Si Si2 0.213376 0.665455 0.661406
Si Si3 0.542172 0.333370 0.922358
Si Si4 0.743889 0.812913 0.919772
Si Si5 0.191279 0.263076 0.332780
Si Si6 0.393991 0.491239 0.580729
Si Si7 0.930317 0.261007 0.798995
Si Si8 0.829990 0.295709 0.790660
O O1 0.097651 0.723070 0.500000
O O2 0.091772 0.768354 0.621688
O O3 0.076979 0.653040 0.606326
O O4 0.000000 0.681729 0.571134
O O5 0.234476 0.617238 0.674979
O O6 0.269312 0.730689 0.648991
O O7 0.167833 0.641842 0.598237
O O8 0.177876 0.668673 0.727738
O O9 0.553137 0.276569 0.915994
O O10 0.604968 0.395033 0.913776
O O11 0.496335 0.325715 0.862577
O O12 0.520193 0.331909 0.000000
O O13 0.764106 0.882053 0.906017
O O14 0.793876 0.793876 0.904387
O O15 0.687186 0.770839 0.872572
O O16 0.729162 0.801733 0.000000
O O17 0.120806 0.241612 0.343159
O O18 0.215136 0.215136 0.345381
O O19 0.211220 0.287674 0.255980
O O20 0.400292 0.484449 0.500000
O O21 0.462450 0.537551 0.606813
O O22 0.886779 0.286728 0.782782
O O23 0.000000 0.312395 0.796669
O O24 0.770415 0.229586 0.790119
#
# Coordination Sequence:
#
# PCOD9587545 Si02
#       8
#    24  24  24  24  24  24  24  24
#     4   9  18  32  50  73 100 130 164 200 238 281
#     4  10  20  33  48  65  87 116 150 189 234 283
#     4   9  17  29  46  68  93 120 150 188 236 287
#     4   9  17  29  46  68  94 124 156 189 224 263
#     4  10  20  34  53  76 102 131 163 201 246 297
#     4   9  18  31  46  67  95 126 162 202 242 285
#     4  10  20  33  49  70  96 125 156 190 230 275
#     4  10  19  30  47  70  92 115 147 188 232 276
#
# _framework density 17.247216000000002
#
# number of rings (size 3 to 8) (size 9 to 14) (size 15 to 20)
#    0.000    2.500    0.000    2.500    0.000    3.250 
#    0.000    5.000    0.000    3.250    0.000    1.750 
#    0.000    3.000    0.000    3.250    0.000    0.000 
#
# Total GULP energy -1069022.646841 kJ/mol
# GULP energy per Si atom -5567.826286 kJ/mol
# Density = 1.720796 g / cm^3
# Si number density = 17.247216 Si / 1000 Ang^3
#
#
#
# Elastic Constant Matrix: (Units=GPa)
#
#
# Indices 1 2 3 4 5 6 
#
# 1 54.1647 20.1154 5.5940 0.0000 0.0000 0.0000
# 2 20.1154 54.1647 5.5940 0.0000 0.0000 0.0000
# 3 5.5940 5.5940 20.1070 0.0000 0.0000 0.0000
# 4 0.0000 0.0000 0.0000 18.2179 0.0000 0.0000
# 5 0.0000 0.0000 0.0000 0.0000 18.2179 0.0000
# 6 0.0000 0.0000 0.0000 0.0000 0.0000 17.0246
#
#
#
# Elastic Compliance Matrix: (Units=1/GPa)
#
#
# Indices 1 2 3 4 5 6 
#
# 1 0.021710 -0.007659 -0.003909 0.000000 0.000000 0.000000
# 2 -0.007659 0.021710 -0.003909 0.000000 0.000000 0.000000
# 3 -0.003909 -0.003909 0.051909 0.000000 0.000000 0.000000
# 4 0.000000 0.000000 0.000000 0.054891 0.000000 0.000000
# 5 0.000000 0.000000 0.000000 0.000000 0.054891 0.000000
# 6 0.000000 0.000000 0.000000 0.000000 0.000000 0.058738
#
#
# Mechanical properties :
#
#
# Convention : Reuss Voigt Hill
#
# Bulk Modulus (GPa) = 15.53399 21.22701 18.38050
# Shear Modulus (GPa) = 15.80958 17.16759 16.48859
#
# Velocity S-wave (km/s) = 3.03090 3.15839 3.09530
# Velocity P-wave (km/s) = 4.61245 5.06308 4.84301
#
# Compressibility (1/GPa) = 0.06437496
#
# Stress axis : x y z
#
# Youngs Moduli (GPa) = 46.06109 46.06109 19.26440
#
# Poissons Ratio (x) = 0.35278 0.07531
# Poissons Ratio (y) = 0.35278 0.07531
# Poissons Ratio (z) = 0.18006 0.18006
#
# Static dielectric constant tensor:
#      x y z
#    x 1.586150 0.000000 0.000000 
#    y 0.000000 1.586150 0.000000 
#    z 0.000000 0.000000 1.625540 
# 
# From -- ./inp_files/8146.got.cif
#   From: 2010.05.17/outbox.cif.g08.bks.cpg/sg191_5_cif.got.tgz:8146.got - 2010.05.20 12:20:32.
