data_PCOD9587332
_publ_section_title
;
Structure prediction by ZEFSAII (Michael W. Deem and Ramdas Pophale) SiO2 
 PCOD9587332
Probable space group: P 6/M M M
;
_chemical_formula_sum "Si O2"
_cell_formula_units_Z 168
_cell_length_a 27.057369
_cell_length_b 27.057369
_cell_length_c 15.481336
_cell_angle_alpha 90.000000
_cell_angle_beta 90.000000
_cell_angle_gamma 120.000000
_cell_volume 9815.449593
_symmetry_space_group_name_H-M "P 6/M M M"
_symmetry_group_IT_number 191
_symmetry_cell_setting 'hexagonal'
loop_
_space_group_symop_operation_xyz
x,y,z
x-y,x,z
-y,x-y,z
-x,-y,z
-x+y,-x,z
y,-x+y,z
x-y,-y,-z
-x,-x+y,-z
y,x,-z
-y,-x,-z
-x+y,y,-z
x,x-y,-z
-x,-y,-z
-x+y,-x,-z
y,-x+y,-z
x,y,-z
x-y,x,-z
-y,x-y,-z
-x+y,y,z
x,x-y,z
-y,-x,z
y,x,z
x-y,-y,z
-x,-x+y,z
loop_
_atom_site_type_symbol
_atom_site_label
_atom_site_fract_x
_atom_site_fract_y
_atom_site_fract_z
Si Si1 0.279047 0.344992 0.336537
Si Si2 0.449712 0.667604 0.746177
Si Si3 0.935984 0.467992 0.395757
Si Si4 0.665170 0.525814 0.397102
Si Si5 0.824162 0.295497 0.095044
Si Si6 0.183670 0.250453 0.000000
Si Si7 0.769694 0.112792 0.150924
Si Si8 0.828537 0.062760 0.397675
O O1 0.327329 0.327329 0.348875
O O2 0.300154 0.408284 0.369666
O O3 0.259389 0.337667 0.237232
O O4 0.223120 0.298202 0.386421
O O5 0.434595 0.717298 0.761692
O O6 0.392966 0.607035 0.737452
O O7 0.488223 0.682996 0.660402
O O8 0.488706 0.668487 0.826101
O O9 0.939424 0.469712 0.500000
O O10 0.901992 0.401475 0.373502
O O11 0.000000 0.500000 0.360530
O O12 0.669872 0.520164 0.500000
O O13 0.762892 0.237109 0.094805
O O14 0.869121 0.273921 0.110402
O O15 0.832788 0.322124 0.000000
O O16 0.211845 0.292015 0.917022
O O17 0.201832 0.201832 0.000000
O O18 0.116242 0.232484 0.000000
O O19 0.827726 0.172275 0.172890
O O20 0.837003 0.060187 0.500000
O O21 0.886355 0.113646 0.359303
O O22 0.807083 0.000000 0.360053
#
# Coordination Sequence:
#
# PCOD9587332 Si02
#       8
#    24  24  12  24  24  12  24  24
#     4  11  21  32  50  79 111 140 176 222 270 325
#     4  11  23  39  58  80 107 140 182 231 280 332
#     4   9  18  34  54  72  95 133 181 231 276 320
#     4  11  22  36  54  76 105 142 185 227 274 334
#     4   9  17  33  57  81 104 134 170 215 272 328
#     4  10  20  34  54  81 115 151 189 233 279 331
#     4  10  18  31  52  78 109 143 180 220 268 328
#     4   9  18  32  49  70 100 137 173 211 259 312
#
# _framework density 17.115874999999999
#
# number of rings (size 3 to 8) (size 9 to 14) (size 15 to 20)
#    0.000    1.929    2.857    1.857    0.000    2.571 
#    0.000    0.000    0.000    1.929    0.000    1.000 
#    0.000    2.286    0.000    4.571    0.000    3.143 
#
# Total GULP energy -936727.871371 kJ/mol
# GULP energy per Si atom -5575.761139 kJ/mol
# Density = 1.707692 g / cm^3
# Si number density = 17.115875 Si / 1000 Ang^3
#
#
#
# Elastic Constant Matrix: (Units=GPa)
#
#
# Indices 1 2 3 4 5 6 
#
# 1 90.7278 52.3608 22.4540 0.0000 0.0000 0.0000
# 2 52.3608 90.7278 22.4540 0.0000 0.0000 0.0000
# 3 22.4540 22.4540 75.7266 0.0000 0.0000 0.0000
# 4 0.0000 0.0000 0.0000 18.8865 0.0000 0.0000
# 5 0.0000 0.0000 0.0000 0.0000 18.8865 0.0000
# 6 0.0000 0.0000 0.0000 0.0000 0.0000 19.1835
#
#
#
# Elastic Compliance Matrix: (Units=1/GPa)
#
#
# Indices 1 2 3 4 5 6 
#
# 1 0.016885 -0.009179 -0.002285 0.000000 0.000000 0.000000
# 2 -0.009179 0.016885 -0.002285 0.000000 0.000000 0.000000
# 3 -0.002285 -0.002285 0.014560 0.000000 0.000000 0.000000
# 4 0.000000 0.000000 0.000000 0.052948 0.000000 0.000000
# 5 0.000000 0.000000 0.000000 0.000000 0.052948 0.000000
# 6 0.000000 0.000000 0.000000 0.000000 0.000000 0.052128
#
#
# Mechanical properties :
#
#
# Convention : Reuss Voigt Hill
#
# Bulk Modulus (GPa) = 48.00202 50.19110 49.09656
# Shear Modulus (GPa) = 20.76443 22.05217 21.40830
#
# Velocity S-wave (km/s) = 3.48683 3.59333 3.54048
# Velocity P-wave (km/s) = 6.65709 6.82671 6.74244
#
# Compressibility (1/GPa) = 0.02083245
#
# Stress axis : x y z
#
# Youngs Moduli (GPa) = 59.22441 59.22441 68.67948
#
# Poissons Ratio (x) = 0.54363 0.15692
# Poissons Ratio (y) = 0.54363 0.15692
# Poissons Ratio (z) = 0.13532 0.13532
#
# Static dielectric constant tensor:
#      x y z
#    x 1.579670 0.000000 0.000000 
#    y 0.000000 1.579670 0.000000 
#    z 0.000000 0.000000 1.600510 
# 
# From -- ./inp_files/5328.got.cif
#   From: 2010.05.17/outbox.cif.g08.bks.cpg/sg191_3_cif.got.tgz:5328.got - 2010.05.20 12:20:32.
