data_PCOD9587421
_publ_section_title
;
Structure prediction by ZEFSAII (Michael W. Deem and Ramdas Pophale) SiO2 
 PCOD9587421
Probable space group: P 6/M M M
;
_chemical_formula_sum "Si O2"
_cell_formula_units_Z 144
_cell_length_a 22.109940
_cell_length_b 22.109940
_cell_length_c 24.226473
_cell_angle_alpha 90.000000
_cell_angle_beta 90.000000
_cell_angle_gamma 120.000000
_cell_volume 10256.423662
_symmetry_space_group_name_H-M "P 6/M M M"
_symmetry_group_IT_number 191
_symmetry_cell_setting 'hexagonal'
loop_
_space_group_symop_operation_xyz
x,y,z
x-y,x,z
-y,x-y,z
-x,-y,z
-x+y,-x,z
y,-x+y,z
x-y,-y,-z
-x,-x+y,-z
y,x,-z
-y,-x,-z
-x+y,y,-z
x,x-y,-z
-x,-y,-z
-x+y,-x,-z
y,-x+y,-z
x,y,-z
x-y,x,-z
-y,x-y,-z
-x+y,y,z
x,x-y,z
-y,-x,z
y,x,z
x-y,-y,z
-x,-x+y,z
loop_
_atom_site_type_symbol
_atom_site_label
_atom_site_fract_x
_atom_site_fract_y
_atom_site_fract_z
Si Si1 0.188406 0.665886 0.223164
Si Si2 0.436044 0.146503 0.666773
Si Si3 0.080794 0.691752 0.839233
Si Si4 0.297849 0.217969 0.065400
Si Si5 0.079386 0.780792 0.264041
Si Si6 0.916173 0.386705 0.438055
O O1 0.195479 0.597740 0.217925
O O2 0.262979 0.737022 0.218722
O O3 0.156556 0.668047 0.283051
O O4 0.135452 0.668171 0.178539
O O5 0.443113 0.221557 0.657401
O O6 0.358035 0.096580 0.689965
O O7 0.451954 0.118423 0.611593
O O8 0.094223 0.730060 0.897843
O O9 0.087714 0.748639 0.793629
O O10 0.000000 0.630314 0.837054
O O11 0.277445 0.138723 0.078130
O O12 0.238777 0.238777 0.078102
O O13 0.312478 0.228887 0.000000
O O14 0.138759 0.861241 0.267278
O O15 0.000000 0.762499 0.268634
O O16 0.894884 0.356612 0.500000
O O17 0.900269 0.450135 0.432924
O O18 0.000000 0.422463 0.434493
#
# Coordination Sequence:
#
# PCOD9587421 Si02
#       6
#    24  24  24  24  24  24
#     4  10  19  30  44  62  85 110 135 166 205 250
#     4   9  17  28  42  60  80 103 133 167 201 237
#     4   9  17  29  44  63  85 106 134 172 208 241
#     4   9  16  26  42  63  86 112 141 173 208 245
#     4   9  16  26  41  60  82 106 131 163 202 241
#     4   9  17  28  41  57  78 104 133 164 196 231
#
# _framework density 14.039982
#
# number of rings (size 3 to 8) (size 9 to 14) (size 15 to 20)
#    0.000    2.833    0.000    4.167    0.000    1.333 
#    0.000    0.000    0.000    1.167    0.000    3.500 
#    0.000    5.333    0.000    0.167    0.000    0.000 
#
# Total GULP energy -801977.792652 kJ/mol
# GULP energy per Si atom -5569.290227 kJ/mol
# Density = 1.400803 g / cm^3
# Si number density = 14.039982 Si / 1000 Ang^3
#
#
#
# Elastic Constant Matrix: (Units=GPa)
#
#
# Indices 1 2 3 4 5 6 
#
# 1 78.7065 48.5609 30.2016 0.0000 0.0000 0.0000
# 2 48.5609 78.7065 30.2016 0.0000 0.0000 0.0000
# 3 30.2016 30.2016 57.3359 0.0000 0.0000 0.0000
# 4 0.0000 0.0000 0.0000 20.0464 0.0000 0.0000
# 5 0.0000 0.0000 0.0000 0.0000 20.0464 0.0000
# 6 0.0000 0.0000 0.0000 0.0000 0.0000 15.0728
#
#
#
# Elastic Compliance Matrix: (Units=1/GPa)
#
#
# Indices 1 2 3 4 5 6 
#
# 1 0.021824 -0.011348 -0.005519 0.000000 0.000000 0.000000
# 2 -0.011348 0.021824 -0.005519 0.000000 0.000000 0.000000
# 3 -0.005519 -0.005519 0.023255 0.000000 0.000000 0.000000
# 4 0.000000 0.000000 0.000000 0.049884 0.000000 0.000000
# 5 0.000000 0.000000 0.000000 0.000000 0.049884 0.000000
# 6 0.000000 0.000000 0.000000 0.000000 0.000000 0.066345
#
#
# Mechanical properties :
#
#
# Convention : Reuss Voigt Hill
#
# Bulk Modulus (GPa) = 45.17948 48.07524 46.62736
# Shear Modulus (GPa) = 17.53371 18.08545 17.80958
#
# Velocity S-wave (km/s) = 3.53773 3.59296 3.56545
# Velocity P-wave (km/s) = 6.99545 7.17833 7.08748
#
# Compressibility (1/GPa) = 0.02213394
#
# Stress axis : x y z
#
# Youngs Moduli (GPa) = 45.82009 45.82009 43.00166
#
# Poissons Ratio (x) = 0.51996 0.23731
# Poissons Ratio (y) = 0.51996 0.23731
# Poissons Ratio (z) = 0.25286 0.25286
#
# Static dielectric constant tensor:
#      x y z
#    x 1.452590 0.000000 0.000000 
#    y 0.000000 1.452590 0.000000 
#    z 0.000000 0.000000 1.464220 
# 
# From -- ./inp_files/9056.got.cif
#   From: 2010.05.17/outbox.cif.g08.bks.cpg/sg191_5_cif.got.tgz:9056.got - 2010.05.20 12:20:32.
