data_PCOD9587437
_publ_section_title
;
Structure prediction by ZEFSAII (Michael W. Deem and Ramdas Pophale) SiO2 
 PCOD9587437
Probable space group: P 6/M M M
;
_chemical_formula_sum "Si O2"
_cell_formula_units_Z 120
_cell_length_a 18.381078
_cell_length_b 18.381078
_cell_length_c 27.627268
_cell_angle_alpha 90.000000
_cell_angle_beta 90.000000
_cell_angle_gamma 120.000000
_cell_volume 8083.706339
_symmetry_space_group_name_H-M "P 6/M M M"
_symmetry_group_IT_number 191
_symmetry_cell_setting 'hexagonal'
loop_
_space_group_symop_operation_xyz
x,y,z
x-y,x,z
-y,x-y,z
-x,-y,z
-x+y,-x,z
y,-x+y,z
x-y,-y,-z
-x,-x+y,-z
y,x,-z
-y,-x,-z
-x+y,y,-z
x,x-y,-z
-x,-y,-z
-x+y,-x,-z
y,-x+y,-z
x,y,-z
x-y,x,-z
-y,x-y,-z
-x+y,y,z
x,x-y,z
-y,-x,z
y,x,z
x-y,-y,z
-x,-x+y,z
loop_
_atom_site_type_symbol
_atom_site_label
_atom_site_fract_x
_atom_site_fract_y
_atom_site_fract_z
Si Si1 0.505156 0.666992 0.616974
Si Si2 0.588440 0.000000 0.555603
Si Si3 0.904259 0.540127 0.000000
Si Si4 0.333865 0.497289 0.269363
Si Si5 0.331410 0.834667 0.895292
Si Si6 0.639718 0.904808 0.187683
O O1 0.508353 0.754177 0.606947
O O2 0.411121 0.588880 0.608546
O O3 0.568260 0.651985 0.584356
O O4 0.522714 0.663937 0.674088
O O5 0.500000 0.000000 0.555663
O O6 0.612778 0.000000 0.500000
O O7 0.858993 0.537026 0.950073
O O8 0.906819 0.453410 0.000000
O O9 0.000000 0.614862 0.000000
O O10 0.260964 0.521928 0.264236
O O11 0.423660 0.576341 0.255994
O O12 0.306729 0.418221 0.234942
O O13 0.424823 0.849645 0.888897
O O14 0.262693 0.737307 0.887091
O O15 0.309645 0.887062 0.857625
O O16 0.664870 0.832435 0.186861
O O17 0.714254 0.000000 0.186671
#
# Coordination Sequence:
#
# PCOD9587437 Si02
#       6
#    24  12  12  24  24  24
#     4   9  17  29  45  64  87 118 154 189 223 262
#     4   9  18  30  42  60  86 114 147 188 230 264
#     4   9  17  28  42  58  80 115 161 205 235 258
#     4   9  17  28  44  66  92 121 151 182 214 253
#     4  10  19  30  44  64  91 124 158 191 225 265
#     4  10  21  34  48  67  90 116 146 182 226 272
#
# _framework density 14.844676
#
# number of rings (size 3 to 8) (size 9 to 14) (size 15 to 20)
#    0.000    2.600    0.000    2.100    1.400    4.400 
#    0.000    3.000    0.000    1.400    0.000    0.000 
#    0.000    0.000    0.000    0.300    0.000   22.100 
#
# Total GULP energy -668973.294843 kJ/mol
# GULP energy per Si atom -5574.777457 kJ/mol
# Density = 1.481089 g / cm^3
# Si number density = 14.844676 Si / 1000 Ang^3
#
#
#
# Elastic Constant Matrix: (Units=GPa)
#
#
# Indices 1 2 3 4 5 6 
#
# 1 76.0076 53.9613 45.9852 0.0000 0.0000 0.0000
# 2 53.9613 76.0076 45.9852 0.0000 0.0000 0.0000
# 3 45.9852 45.9852 77.8870 0.0000 0.0000 0.0000
# 4 0.0000 0.0000 0.0000 17.7148 0.0000 0.0000
# 5 0.0000 0.0000 0.0000 0.0000 17.7148 0.0000
# 6 0.0000 0.0000 0.0000 0.0000 0.0000 11.0231
#
#
#
# Elastic Compliance Matrix: (Units=1/GPa)
#
#
# Indices 1 2 3 4 5 6 
#
# 1 0.029287 -0.016072 -0.007803 0.000000 0.000000 0.000000
# 2 -0.016072 0.029287 -0.007803 0.000000 0.000000 0.000000
# 3 -0.007803 -0.007803 0.022053 0.000000 0.000000 0.000000
# 4 0.000000 0.000000 0.000000 0.056450 0.000000 0.000000
# 5 0.000000 0.000000 0.000000 0.000000 0.056450 0.000000
# 6 0.000000 0.000000 0.000000 0.000000 0.000000 0.090718
#
#
# Mechanical properties :
#
#
# Convention : Reuss Voigt Hill
#
# Bulk Modulus (GPa) = 57.89283 57.97397 57.93340
# Shear Modulus (GPa) = 14.15001 14.88860 14.51930
#
# Velocity S-wave (km/s) = 3.09075 3.17039 3.13082
# Velocity P-wave (km/s) = 7.19866 7.24847 7.22361
#
# Compressibility (1/GPa) = 0.01727330
#
# Stress axis : x y z
#
# Youngs Moduli (GPa) = 34.14448 34.14448 45.34629
#
# Poissons Ratio (x) = 0.54876 0.35382
# Poissons Ratio (y) = 0.54876 0.35382
# Poissons Ratio (z) = 0.26641 0.26641
#
# Static dielectric constant tensor:
#      x y z
#    x 1.476130 0.000000 0.000000 
#    y 0.000000 1.476130 0.000000 
#    z 0.000000 0.000000 1.507270 
# 
# From -- ./inp_files/8622.got.cif
#   From: 2010.05.17/outbox.cif.g08.bks.cpg/sg191_5_cif.got.tgz:8622.got - 2010.05.20 12:20:32.
