data_PCOD9587592
_publ_section_title
;
Structure prediction by ZEFSAII (Michael W. Deem and Ramdas Pophale) SiO2 
 PCOD9587592
Probable space group: P 6/M M M
;
_chemical_formula_sum "Si O2"
_cell_formula_units_Z 192
_cell_length_a 23.327059
_cell_length_b 23.327059
_cell_length_c 24.662678
_cell_angle_alpha 90.000000
_cell_angle_beta 90.000000
_cell_angle_gamma 120.000000
_cell_volume 11622.266778
_symmetry_space_group_name_H-M "P 6/M M M"
_symmetry_group_IT_number 191
_symmetry_cell_setting 'hexagonal'
loop_
_space_group_symop_operation_xyz
x,y,z
x-y,x,z
-y,x-y,z
-x,-y,z
-x+y,-x,z
y,-x+y,z
x-y,-y,-z
-x,-x+y,-z
y,x,-z
-y,-x,-z
-x+y,y,-z
x,x-y,-z
-x,-y,-z
-x+y,-x,-z
y,-x+y,-z
x,y,-z
x-y,x,-z
-y,x-y,-z
-x+y,y,z
x,x-y,z
-y,-x,z
y,x,z
x-y,-y,z
-x,-x+y,z
loop_
_atom_site_type_symbol
_atom_site_label
_atom_site_fract_x
_atom_site_fract_y
_atom_site_fract_z
Si Si1 0.075635 0.281882 0.753134
Si Si2 0.468881 0.801942 0.850088
Si Si3 0.473394 0.079829 0.659504
Si Si4 0.425576 0.143060 0.938144
Si Si5 0.277382 0.203850 0.933733
Si Si6 0.919776 0.602110 0.561363
Si Si7 0.721835 0.924534 0.378112
Si Si8 0.281994 0.850520 0.749851
O O1 0.131400 0.262799 0.768311
O O2 0.076475 0.286679 0.687086
O O3 0.101982 0.357110 0.771828
O O4 0.000000 0.232406 0.769683
O O5 0.402452 0.804904 0.845393
O O6 0.452975 0.726488 0.858236
O O7 0.515205 0.845476 0.899555
O O8 0.514614 0.828846 0.797009
O O9 0.548527 0.097053 0.667151
O O10 0.459953 0.099156 0.600027
O O11 0.449386 0.113883 0.703146
O O12 0.427926 0.000000 0.664596
O O13 0.425763 0.212882 0.938643
O O14 0.351640 0.091338 0.918488
O O15 0.433942 0.127544 0.000000
O O16 0.265632 0.132816 0.915115
O O17 0.224474 0.224474 0.916028
O O18 0.277389 0.202431 0.000000
O O19 0.894343 0.587314 0.500000
O O20 0.903059 0.652652 0.592316
O O21 0.000000 0.641497 0.558664
O O22 0.745019 0.872510 0.391803
O O23 0.772357 0.000000 0.393887
O O24 0.215825 0.784176 0.730206
#
# Coordination Sequence:
#
# PCOD9587592 Si02
#       8
#    24  24  24  24  24  24  24  24
#     4   9  16  28  48  70  93 123 159 197 235 276
#     4  10  20  33  49  70  96 125 157 195 238 282
#     4  10  19  31  48  68  92 121 151 190 240 288
#     4   8  15  29  48  69  93 123 160 199 238 279
#     4   8  13  23  42  66  90 119 156 195 232 272
#     4   9  17  28  42  63  91 120 150 186 231 283
#     4   9  16  27  44  66  92 122 156 193 234 278
#     4  10  19  31  48  68  93 126 162 196 228 272
#
# _framework density 16.520012999999999
#
# number of rings (size 3 to 8) (size 9 to 14) (size 15 to 20)
#    0.000    2.875    1.250    1.625    0.000    0.750 
#    0.000    2.500    0.000    3.250    0.000    4.375 
#    0.000    0.000    0.000    3.125    0.000   18.000 
#
# Total GULP energy -1069664.209587 kJ/mol
# GULP energy per Si atom -5571.167758 kJ/mol
# Density = 1.648241 g / cm^3
# Si number density = 16.520013 Si / 1000 Ang^3
#
#
#
# Elastic Constant Matrix: (Units=GPa)
#
#
# Indices 1 2 3 4 5 6 
#
# 1 102.9776 59.8916 23.0283 0.0000 0.0000 0.0000
# 2 59.8916 102.9776 23.0283 0.0000 0.0000 0.0000
# 3 23.0283 23.0283 37.0452 0.0000 0.0000 0.0000
# 4 0.0000 0.0000 0.0000 11.5420 0.0000 0.0000
# 5 0.0000 0.0000 0.0000 0.0000 11.5420 0.0000
# 6 0.0000 0.0000 0.0000 0.0000 0.0000 21.5430
#
#
#
# Elastic Compliance Matrix: (Units=1/GPa)
#
#
# Indices 1 2 3 4 5 6 
#
# 1 0.015329 -0.007880 -0.004631 0.000000 0.000000 0.000000
# 2 -0.007880 0.015329 -0.004631 0.000000 0.000000 0.000000
# 3 -0.004631 -0.004631 0.032751 0.000000 0.000000 0.000000
# 4 0.000000 0.000000 0.000000 0.086640 0.000000 0.000000
# 5 0.000000 0.000000 0.000000 0.000000 0.086640 0.000000
# 6 0.000000 0.000000 0.000000 0.000000 0.000000 0.046419
#
#
# Mechanical properties :
#
#
# Convention : Reuss Voigt Hill
#
# Bulk Modulus (GPa) = 34.33231 50.54407 42.43819
# Shear Modulus (GPa) = 15.28578 18.06221 16.67399
#
# Velocity S-wave (km/s) = 3.04516 3.31018 3.18043
# Velocity P-wave (km/s) = 5.76119 6.72843 6.26351
#
# Compressibility (1/GPa) = 0.02912708
#
# Stress axis : x y z
#
# Youngs Moduli (GPa) = 65.23418 65.23418 30.53316
#
# Poissons Ratio (x) = 0.51405 0.14139
# Poissons Ratio (y) = 0.51405 0.14139
# Poissons Ratio (z) = 0.30208 0.30208
#
# Static dielectric constant tensor:
#      x y z
#    x 1.549000 0.000000 0.000000 
#    y 0.000000 1.549000 0.000000 
#    z 0.000000 0.000000 1.585430 
# 
# From -- ./inp_files/9297.got.cif
#   From: 2010.05.17/outbox.cif.g08.bks.cpg/sg191_5_cif.got.tgz:9297.got - 2010.05.20 12:20:32.
