data_PCOD9587974
_publ_section_title
;
Structure prediction by ZEFSAII (Michael W. Deem and Ramdas Pophale) SiO2 
 PCOD9587974
Probable space group: P 6/M M M
;
_chemical_formula_sum "Si O2"
_cell_formula_units_Z 96
_cell_length_a 29.580655
_cell_length_b 29.580655
_cell_length_c 7.812234
_cell_angle_alpha 90.000000
_cell_angle_beta 90.000000
_cell_angle_gamma 120.000000
_cell_volume 5919.996467
_symmetry_space_group_name_H-M "P 6/M M M"
_symmetry_group_IT_number 191
_symmetry_cell_setting 'hexagonal'
loop_
_space_group_symop_operation_xyz
x,y,z
x-y,x,z
-y,x-y,z
-x,-y,z
-x+y,-x,z
y,-x+y,z
x-y,-y,-z
-x,-x+y,-z
y,x,-z
-y,-x,-z
-x+y,y,-z
x,x-y,-z
-x,-y,-z
-x+y,-x,-z
y,-x+y,-z
x,y,-z
x-y,x,-z
-y,x-y,-z
-x+y,y,z
x,x-y,z
-y,-x,z
y,x,z
x-y,-y,z
-x,-x+y,z
loop_
_atom_site_type_symbol
_atom_site_label
_atom_site_fract_x
_atom_site_fract_y
_atom_site_fract_z
Si Si1 0.207377 0.207377 0.205275
Si Si2 0.060070 0.383025 0.295287
Si Si3 0.000000 0.896145 0.790570
Si Si4 0.481750 0.420841 0.205995
Si Si5 0.792228 0.105277 0.295125
O O1 0.155652 0.155652 0.266324
O O2 0.258570 0.206113 0.263511
O O3 0.207237 0.207237 0.000000
O O4 0.056535 0.376326 0.500000
O O5 0.082525 0.444164 0.261093
O O6 0.093828 0.357942 0.228556
O O7 0.000000 0.350414 0.228015
O O8 0.948093 0.896185 0.735287
O O9 0.000000 0.896050 0.000000
O O10 0.541525 0.458476 0.264253
O O11 0.450714 0.450714 0.261827
O O12 0.482295 0.420972 0.000000
O O13 0.792310 0.111851 0.500000
O O14 0.843436 0.156565 0.226111
#
# Coordination Sequence:
#
# PCOD9587974 Si02
#       5
#    12  24  12  24  24
#     4  11  21  32  47  66  87 105 134 182 225 271
#     4   9  16  27  42  60  82 107 142 180 211 248
#     4   9  17  29  44  61  80  99 119 152 207 272
#     4   8  14  24  38  58  84 112 139 164 195 236
#     4  10  20  34  49  63  84 115 149 183 223 273
#
# _framework density 16.216225999999999
#
# number of rings (size 3 to 8) (size 9 to 14) (size 15 to 20)
#    0.000    2.750    1.250    2.000    0.000    3.500 
#    0.000    2.500    0.000    0.000    0.000    0.000 
#    0.000    6.000    0.000    0.750    0.000   11.500 
#
# Total GULP energy -534717.606606 kJ/mol
# GULP energy per Si atom -5569.975069 kJ/mol
# Density = 1.617932 g / cm^3
# Si number density = 16.216226 Si / 1000 Ang^3
#
#
#
# Elastic Constant Matrix: (Units=GPa)
#
#
# Indices 1 2 3 4 5 6 
#
# 1 114.7325 97.2952 3.6020 0.0000 0.0000 0.0000
# 2 97.2952 114.7325 3.6020 0.0000 0.0000 0.0000
# 3 3.6020 3.6020 17.2743 0.0000 0.0000 0.0000
# 4 0.0000 0.0000 0.0000 34.3809 0.0000 0.0000
# 5 0.0000 0.0000 0.0000 0.0000 34.3809 0.0000
# 6 0.0000 0.0000 0.0000 0.0000 0.0000 8.7186
#
#
#
# Elastic Compliance Matrix: (Units=1/GPa)
#
#
# Indices 1 2 3 4 5 6 
#
# 1 0.031049 -0.026299 -0.000990 0.000000 0.000000 0.000000
# 2 -0.026299 0.031049 -0.000990 0.000000 0.000000 0.000000
# 3 -0.000990 -0.000990 0.058303 0.000000 0.000000 0.000000
# 4 0.000000 0.000000 0.000000 0.029086 0.000000 0.000000
# 5 0.000000 0.000000 0.000000 0.000000 0.029086 0.000000
# 6 0.000000 0.000000 0.000000 0.000000 0.000000 0.114697
#
#
# Mechanical properties :
#
#
# Convention : Reuss Voigt Hill
#
# Bulk Modulus (GPa) = 15.66396 50.63749 33.15072
# Shear Modulus (GPa) = 13.47310 24.97878 19.22594
#
# Velocity S-wave (km/s) = 2.88556 3.92900 3.44699
# Velocity P-wave (km/s) = 4.55876 7.20256 6.02741
#
# Compressibility (1/GPa) = 0.06384082
#
# Stress axis : x y z
#
# Youngs Moduli (GPa) = 32.20697 32.20697 17.15189
#
# Poissons Ratio (x) = 0.84702 0.01699
# Poissons Ratio (y) = 0.84702 0.01699
# Poissons Ratio (z) = 0.03190 0.03190
#
# Static dielectric constant tensor:
#      x y z
#    x 1.537660 0.000000 0.000000 
#    y 0.000000 1.537660 0.000000 
#    z 0.000000 0.000000 1.586140 
# 
# From -- ./inp_files/2841.got.cif
#   From: 2010.05.17/outbox.cif.g08.bks.cpg/sg191_2_cif.got.tgz:2841.got - 2010.05.20 12:20:32.
