data_PCOD9587337
_publ_section_title
;
Structure prediction by ZEFSAII (Michael W. Deem and Ramdas Pophale) SiO2 
 PCOD9587337
Probable space group: P 6/M M M
;
_chemical_formula_sum "Si O2"
_cell_formula_units_Z 108
_cell_length_a 30.736859
_cell_length_b 30.736859
_cell_length_c 7.846798
_cell_angle_alpha 90.000000
_cell_angle_beta 90.000000
_cell_angle_gamma 120.000000
_cell_volume 6420.104160
_symmetry_space_group_name_H-M "P 6/M M M"
_symmetry_group_IT_number 191
_symmetry_cell_setting 'hexagonal'
loop_
_space_group_symop_operation_xyz
x,y,z
x-y,x,z
-y,x-y,z
-x,-y,z
-x+y,-x,z
y,-x+y,z
x-y,-y,-z
-x,-x+y,-z
y,x,-z
-y,-x,-z
-x+y,y,-z
x,x-y,-z
-x,-y,-z
-x+y,-x,-z
y,-x+y,-z
x,y,-z
x-y,x,-z
-y,x-y,-z
-x+y,y,z
x,x-y,z
-y,-x,z
y,x,z
x-y,-y,z
-x,-x+y,z
loop_
_atom_site_type_symbol
_atom_site_label
_atom_site_fract_x
_atom_site_fract_y
_atom_site_fract_z
Si Si1 0.512119 0.705102 0.807483
Si Si2 0.000000 0.805263 0.790027
Si Si3 0.791243 0.895622 0.803559
Si Si4 0.000000 0.703195 0.203674
Si Si5 0.436777 0.770155 0.500000
Si Si6 0.838778 0.677555 0.706467
Si Si7 0.384659 0.107556 0.298134
O O1 0.527419 0.763710 0.778416
O O2 0.470757 0.674203 0.665884
O O3 0.561122 0.699586 0.787388
O O4 0.492630 0.692197 0.000000
O O5 0.950200 0.806041 0.731102
O O6 0.000000 0.754129 0.735342
O O7 0.000000 0.804373 0.000000
O O8 0.731118 0.865559 0.793881
O O9 0.808363 0.904181 0.000000
O O10 0.950668 0.652591 0.261366
O O11 0.000000 0.705366 0.000000
O O12 0.385967 0.771933 0.500000
O O13 0.425752 0.712876 0.500000
O O14 0.842184 0.684368 0.500000
O O15 0.865898 0.646865 0.756078
O O16 0.393458 0.115042 0.500000
#
# Coordination Sequence:
#
# PCOD9587337 Si02
#       7
#    24  12  12  12  12  12  24
#     4  10  20  34  56  83 112 149 190 230 274 327
#     4   9  18  29  45  64  89 122 164 212 260 323
#     4  10  18  32  46  63  88 124 168 208 260 324
#     4  11  21  31  45  73 104 138 180 219 268 328
#     4  10  21  38  60  87 121 153 189 228 271 317
#     4  10  20  28  46  70  99 135 171 214 260 316
#     4  11  20  33  49  73 108 146 182 221 268 323
#
# _framework density 16.822157000000001
#
# number of rings (size 3 to 8) (size 9 to 14) (size 15 to 20)
#    0.000    1.778    4.444    1.111    0.000    1.333 
#    0.000    0.556    0.000    1.556    0.000    3.111 
#    0.000    2.667    0.000    1.000    0.000    1.111 
#
# Total GULP energy -602510.303796 kJ/mol
# GULP energy per Si atom -5578.799109 kJ/mol
# Density = 1.678387 g / cm^3
# Si number density = 16.822157 Si / 1000 Ang^3
#
#
#
# Elastic Constant Matrix: (Units=GPa)
#
#
# Indices 1 2 3 4 5 6 
#
# 1 28.8437 135.5660 34.6957 0.0000 0.0000 0.0000
# 2 135.5660 28.8437 34.6957 0.0000 0.0000 0.0000
# 3 34.6957 34.6957 63.3877 0.0000 0.0000 0.0000
# 4 0.0000 0.0000 0.0000 13.7255 0.0000 0.0000
# 5 0.0000 0.0000 0.0000 0.0000 13.7255 0.0000
# 6 0.0000 0.0000 0.0000 0.0000 0.0000 -53.3612
#
#
#
# Elastic Compliance Matrix: (Units=1/GPa)
#
#
# Indices 1 2 3 4 5 6 
#
# 1 -0.000730 0.008640 -0.004329 0.000000 0.000000 0.000000
# 2 0.008640 -0.000730 -0.004329 0.000000 0.000000 0.000000
# 3 -0.004329 -0.004329 0.020515 0.000000 0.000000 0.000000
# 4 0.000000 0.000000 0.000000 0.072857 0.000000 0.000000
# 5 0.000000 0.000000 0.000000 0.000000 0.072857 0.000000
# 6 0.000000 0.000000 0.000000 0.000000 0.000000 -0.018740
#
#
# Mechanical properties :
#
#
# Convention : Reuss Voigt Hill
#
# Bulk Modulus (GPa) = 52.58432 58.99889 55.79160
# Shear Modulus (GPa) = 32.80709 -10.77420 11.01645
#
# Velocity S-wave (km/s) = 4.42093 -2.53351 2.56183
# Velocity P-wave (km/s) = 7.57538 5.15655 6.47983
#
# Compressibility (1/GPa) = 0.01901708
#
# Stress axis : x y z
#
# Youngs Moduli (GPa) = -1369.42966 -1369.42973 48.74389
#
# Poissons Ratio (x) = 11.83171 0.21103
# Poissons Ratio (y) = 11.83171 0.21103
# Poissons Ratio (z) = -5.92882 -5.92882
#
# Static dielectric constant tensor:
#      x y z
#    x 1.539680 0.000000 0.000000 
#    y 0.000000 1.539680 0.000000 
#    z 0.000000 0.000000 1.605060 
# 
# From -- ./inp_files/1806.got.cif
#   From: 2010.05.17/outbox.cif.g08.bks.cpg/sg191_1_cif.got.tgz:1806.got - 2010.05.20 12:20:32.
