data_PCOD9587260
_publ_section_title
;
Structure prediction by ZEFSAII (Michael W. Deem and Ramdas Pophale) SiO2 
 PCOD9587260
Probable space group: P 6/M M M
;
_chemical_formula_sum "Si O2"
_cell_formula_units_Z 192
_cell_length_a 23.832505
_cell_length_b 23.832505
_cell_length_c 23.888788
_cell_angle_alpha 90.000000
_cell_angle_beta 90.000000
_cell_angle_gamma 120.000000
_cell_volume 11750.710686
_symmetry_space_group_name_H-M "P 6/M M M"
_symmetry_group_IT_number 191
_symmetry_cell_setting 'hexagonal'
loop_
_space_group_symop_operation_xyz
x,y,z
x-y,x,z
-y,x-y,z
-x,-y,z
-x+y,-x,z
y,-x+y,z
x-y,-y,-z
-x,-x+y,-z
y,x,-z
-y,-x,-z
-x+y,y,-z
x,x-y,-z
-x,-y,-z
-x+y,-x,-z
y,-x+y,-z
x,y,-z
x-y,x,-z
-y,x-y,-z
-x+y,y,z
x,x-y,z
-y,-x,z
y,x,z
x-y,-y,z
-x,-x+y,z
loop_
_atom_site_type_symbol
_atom_site_label
_atom_site_fract_x
_atom_site_fract_y
_atom_site_fract_z
Si Si1 0.676896 0.749696 0.265448
Si Si2 0.273619 0.862619 0.435810
Si Si3 0.528288 0.923649 0.847726
Si Si4 0.927523 0.200012 0.384910
Si Si5 0.921706 0.302062 0.936779
Si Si6 0.725893 0.800968 0.858934
Si Si7 0.798839 0.334151 0.635957
Si Si8 0.299085 0.829268 0.246433
O O1 0.688165 0.688165 0.266583
O O2 0.716656 0.793177 0.317842
O O3 0.702574 0.782684 0.205280
O O4 0.602979 0.731215 0.270386
O O5 0.294791 0.878374 0.500000
O O6 0.205876 0.794125 0.434831
O O7 0.254245 0.912848 0.410295
O O8 0.322230 0.849678 0.399149
O O9 0.459285 0.918570 0.856231
O O10 0.555556 0.906602 0.902875
O O11 0.523947 0.874602 0.799636
O O12 0.579005 0.000000 0.834033
O O13 0.870237 0.129764 0.402967
O O14 0.000000 0.218184 0.399786
O O15 0.903474 0.239900 0.898520
O O16 0.000000 0.339176 0.940050
O O17 0.896101 0.287270 0.000000
O O18 0.752471 0.876236 0.867728
O O19 0.776200 0.776200 0.870285
O O20 0.801490 0.400745 0.622013
O O21 0.727378 0.272623 0.625004
O O22 0.813130 0.331134 0.701596
O O23 0.238552 0.761449 0.224975
#
# Coordination Sequence:
#
# PCOD9587260 Si02
#       8
#    24  24  24  24  24  24  24  24
#     4  10  18  29  49  75 100 126 161 204 250 294
#     4   9  18  33  51  71  96 127 164 205 247 289
#     4  10  20  33  49  71  99 129 162 202 249 301
#     4  10  19  32  52  77 103 131 165 204 245 291
#     4   9  18  31  46  67  95 127 162 199 242 291
#     4  10  19  31  49  73 102 132 163 202 247 293
#     4  10  20  33  50  72  99 131 167 208 251 294
#     4  11  19  30  49  71  99 132 166 202 245 297
#
# _framework density 16.339437
#
# number of rings (size 3 to 8) (size 9 to 14) (size 15 to 20)
#    0.000    2.125    2.500    2.000    0.000    1.000 
#    0.000    1.250    0.000    2.375    0.000    0.875 
#    0.000    3.000    0.000    6.250    0.000    0.000 
#
# Total GULP energy -1070265.630994 kJ/mol
# GULP energy per Si atom -5574.300161 kJ/mol
# Density = 1.630225 g / cm^3
# Si number density = 16.339437 Si / 1000 Ang^3
#
#
#
# Elastic Constant Matrix: (Units=GPa)
#
#
# Indices 1 2 3 4 5 6 
#
# 1 85.7964 44.0707 28.5240 0.0000 0.0000 0.0000
# 2 44.0707 85.7964 28.5240 0.0000 0.0000 0.0000
# 3 28.5240 28.5240 81.6490 0.0000 0.0000 0.0000
# 4 0.0000 0.0000 0.0000 9.6247 0.0000 0.0000
# 5 0.0000 0.0000 0.0000 0.0000 9.6247 0.0000
# 6 0.0000 0.0000 0.0000 0.0000 0.0000 20.8628
#
#
#
# Elastic Compliance Matrix: (Units=1/GPa)
#
#
# Indices 1 2 3 4 5 6 
#
# 1 0.016531 -0.007435 -0.003178 0.000000 0.000000 0.000000
# 2 -0.007435 0.016531 -0.003178 0.000000 0.000000 0.000000
# 3 -0.003178 -0.003178 0.014468 0.000000 0.000000 0.000000
# 4 0.000000 0.000000 0.000000 0.103899 0.000000 0.000000
# 5 0.000000 0.000000 0.000000 0.000000 0.103899 0.000000
# 6 0.000000 0.000000 0.000000 0.000000 0.000000 0.047932
#
#
# Mechanical properties :
#
#
# Convention : Reuss Voigt Hill
#
# Bulk Modulus (GPa) = 50.12748 50.60881 50.36814
# Shear Modulus (GPa) = 14.81519 18.16398 16.48959
#
# Velocity S-wave (km/s) = 3.01444 3.33778 3.18022
# Velocity P-wave (km/s) = 6.54685 6.77459 6.66169
#
# Compressibility (1/GPa) = 0.01994914
#
# Stress axis : x y z
#
# Youngs Moduli (GPa) = 60.49213 60.49213 69.11898
#
# Poissons Ratio (x) = 0.44976 0.21964
# Poissons Ratio (y) = 0.44976 0.21964
# Poissons Ratio (z) = 0.19223 0.19223
#
# Static dielectric constant tensor:
#      x y z
#    x 1.546080 0.000000 0.000000 
#    y 0.000000 1.546080 0.000000 
#    z 0.000000 0.000000 1.564290 
# 
# From -- ./inp_files/9374.got.cif
#   From: 2010.05.17/outbox.cif.g08.bks.cpg/sg191_5_cif.got.tgz:9374.got - 2010.05.20 12:20:32.
