data_PCOD9587586
_publ_section_title
;
Structure prediction by ZEFSAII (Michael W. Deem and Ramdas Pophale) SiO2 
 PCOD9587586
Probable space group: P 6/M M M
;
_chemical_formula_sum "Si O2"
_cell_formula_units_Z 96
_cell_length_a 17.669654
_cell_length_b 17.669654
_cell_length_c 22.605044
_cell_angle_alpha 90.000000
_cell_angle_beta 90.000000
_cell_angle_gamma 120.000000
_cell_volume 6112.122914
_symmetry_space_group_name_H-M "P 6/M M M"
_symmetry_group_IT_number 191
_symmetry_cell_setting 'hexagonal'
loop_
_space_group_symop_operation_xyz
x,y,z
x-y,x,z
-y,x-y,z
-x,-y,z
-x+y,-x,z
y,-x+y,z
x-y,-y,-z
-x,-x+y,-z
y,x,-z
-y,-x,-z
-x+y,y,-z
x,x-y,-z
-x,-y,-z
-x+y,-x,-z
y,-x+y,-z
x,y,-z
x-y,x,-z
-y,x-y,-z
-x+y,y,z
x,x-y,z
-y,-x,z
y,x,z
x-y,-y,z
-x,-x+y,z
loop_
_atom_site_type_symbol
_atom_site_label
_atom_site_fract_x
_atom_site_fract_y
_atom_site_fract_z
Si Si1 0.000000 0.825652 0.071537
Si Si2 0.840778 0.511438 0.306284
Si Si3 0.353806 0.353806 0.910552
Si Si4 0.000000 0.591441 0.223447
Si Si5 0.516818 0.850942 0.000000
Si Si6 0.104655 0.642330 0.564160
O O1 0.912250 0.824500 0.092137
O O2 0.000000 0.737166 0.086557
O O3 0.000000 0.829345 0.000000
O O4 0.747874 0.495748 0.286954
O O5 0.841325 0.420663 0.307492
O O6 0.859361 0.547665 0.373480
O O7 0.915877 0.573619 0.261293
O O8 0.379343 0.379343 0.842964
O O9 0.341849 0.428198 0.944737
O O10 0.000000 0.500000 0.221544
O O11 0.418485 0.836970 0.000000
O O12 0.516893 0.758447 0.000000
O O13 0.133893 0.687564 0.500000
O O14 0.123911 0.561956 0.563018
O O15 0.000000 0.597498 0.566630
#
# Coordination Sequence:
#
# PCOD9587586 Si02
#       6
#    12  24  12  12  12  24
#     4  10  19  33  54  82 110 131 152 188 239 292
#     4  10  19  31  47  68  94 125 164 206 246 287
#     4  11  21  36  58  77 100 132 173 207 238 292
#     4  10  21  37  51  67  94 131 167 201 244 288
#     4  11  22  37  56  80 106 131 162 205 256 302
#     4   8  13  24  43  64  88 120 157 196 241 291
#
# _framework density 15.706491
#
# number of rings (size 3 to 8) (size 9 to 14) (size 15 to 20)
#    0.000    2.250    2.500    3.500    0.000    3.000 
#    0.000    0.000    0.000    4.500    0.000    0.000 
#    0.000    0.000    0.000    0.000    0.000    0.000 
#
# Total GULP energy -534524.324483 kJ/mol
# GULP energy per Si atom -5567.961713 kJ/mol
# Density = 1.567074 g / cm^3
# Si number density = 15.706491 Si / 1000 Ang^3
#
#
#
# Elastic Constant Matrix: (Units=GPa)
#
#
# Indices 1 2 3 4 5 6 
#
# 1 84.5545 29.7765 51.4982 0.0000 0.0000 0.0000
# 2 29.7765 84.5545 51.4982 0.0000 0.0000 0.0000
# 3 51.4982 51.4982 132.4540 0.0000 0.0000 0.0000
# 4 0.0000 0.0000 0.0000 -29.4815 0.0000 0.0000
# 5 0.0000 0.0000 0.0000 0.0000 -29.4815 0.0000
# 6 0.0000 0.0000 0.0000 0.0000 0.0000 27.3890
#
#
#
# Elastic Compliance Matrix: (Units=1/GPa)
#
#
# Indices 1 2 3 4 5 6 
#
# 1 0.015858 -0.002397 -0.005234 0.000000 0.000000 0.000000
# 2 -0.002397 0.015858 -0.005234 0.000000 0.000000 0.000000
# 3 -0.005234 -0.005234 0.011620 0.000000 0.000000 0.000000
# 4 0.000000 0.000000 0.000000 -0.033920 0.000000 0.000000
# 5 0.000000 0.000000 0.000000 0.000000 -0.033920 0.000000
# 6 0.000000 0.000000 0.000000 0.000000 0.000000 0.036511
#
#
# Mechanical properties :
#
#
# Convention : Reuss Voigt Hill
#
# Bulk Modulus (GPa) = 56.79471 63.01209 59.90340
# Shear Modulus (GPa) = 114.66085 4.93789 59.79937
#
# Velocity S-wave (km/s) = 8.55340 1.77501 6.17703
# Velocity P-wave (km/s) = 11.56659 6.66382 9.43908
#
# Compressibility (1/GPa) = 0.01760727
#
# Stress axis : x y z
#
# Youngs Moduli (GPa) = 63.05770 63.05770 86.06121
#
# Poissons Ratio (x) = 0.15115 0.45043
# Poissons Ratio (y) = 0.15115 0.45043
# Poissons Ratio (z) = 0.33003 0.33003
#
# Static dielectric constant tensor:
#      x y z
#    x 1.514880 0.000000 0.000000 
#    y 0.000000 1.514880 0.000000 
#    z 0.000000 0.000000 1.540330 
# 
# From -- ./inp_files/8296.got.cif
#   From: 2010.05.17/outbox.cif.g08.bks.cpg/sg191_5_cif.got.tgz:8296.got - 2010.05.20 12:20:32.
