data_PCOD9587672
_publ_section_title
;
Structure prediction by ZEFSAII (Michael W. Deem and Ramdas Pophale) SiO2 
 PCOD9587672
Probable space group: P 6/M M M
;
_chemical_formula_sum "Si O2"
_cell_formula_units_Z 144
_cell_length_a 21.620709
_cell_length_b 21.620709
_cell_length_c 20.688437
_cell_angle_alpha 90.000000
_cell_angle_beta 90.000000
_cell_angle_gamma 120.000000
_cell_volume 8375.257644
_symmetry_space_group_name_H-M "P 6/M M M"
_symmetry_group_IT_number 191
_symmetry_cell_setting 'hexagonal'
loop_
_space_group_symop_operation_xyz
x,y,z
x-y,x,z
-y,x-y,z
-x,-y,z
-x+y,-x,z
y,-x+y,z
x-y,-y,-z
-x,-x+y,-z
y,x,-z
-y,-x,-z
-x+y,y,-z
x,x-y,-z
-x,-y,-z
-x+y,-x,-z
y,-x+y,-z
x,y,-z
x-y,x,-z
-y,x-y,-z
-x+y,y,z
x,x-y,z
-y,-x,z
y,x,z
x-y,-y,z
-x,-x+y,z
loop_
_atom_site_type_symbol
_atom_site_label
_atom_site_fract_x
_atom_site_fract_y
_atom_site_fract_z
Si Si1 0.474977 0.810339 0.232314
Si Si2 0.299914 0.450569 0.366283
Si Si3 0.220839 0.299719 0.311412
Si Si4 0.523004 0.335740 0.000000
Si Si5 0.298344 0.219476 0.843063
Si Si6 0.480322 0.665141 0.500000
Si Si7 0.356858 0.916240 0.118868
O O1 0.391494 0.782987 0.224477
O O2 0.491049 0.745525 0.219550
O O3 0.498819 0.837433 0.305346
O O4 0.517999 0.876369 0.184021
O O5 0.223904 0.447808 0.369974
O O6 0.279102 0.370606 0.347702
O O7 0.336527 0.479988 0.434800
O O8 0.142381 0.284761 0.328738
O O9 0.235795 0.235795 0.324346
O O10 0.229632 0.314624 0.234150
O O11 0.487759 0.352832 0.061182
O O12 0.607203 0.392798 0.000000
O O13 0.510268 0.255134 0.000000
O O14 0.285279 0.142640 0.861385
O O15 0.232617 0.232617 0.854172
O O16 0.366467 0.281918 0.878735
O O17 0.400588 0.599413 0.500000
O O18 0.478552 0.739276 0.500000
O O19 0.417962 0.000000 0.114373
#
# Coordination Sequence:
#
# PCOD9587672 Si02
#       7
#    24  24  24  12  24  12  24
#     4  11  21  34  52  75 104 137 177 222 268 318
#     4   9  18  31  49  72 100 135 176 221 264 309
#     4   9  16  29  51  76 101 130 168 212 256 304
#     4  12  26  43  61  79 106 139 173 213 265 326
#     4   9  16  29  51  77 103 131 168 210 253 299
#     4  10  19  32  49  71 100 135 176 222 275 327
#     4  11  23  38  57  79 104 136 173 217 263 310
#
# _framework density 17.193501000000001
#
# number of rings (size 3 to 8) (size 9 to 14) (size 15 to 20)
#    0.000    2.000    1.667    3.083    0.000    1.667 
#    0.000    3.750    0.000    2.333    0.000    2.333 
#    0.000    0.000    0.000    0.000    0.000   27.167 
#
# Total GULP energy -802913.511245 kJ/mol
# GULP energy per Si atom -5575.788273 kJ/mol
# Density = 1.715437 g / cm^3
# Si number density = 17.193501 Si / 1000 Ang^3
#
#
#
# Elastic Constant Matrix: (Units=GPa)
#
#
# Indices 1 2 3 4 5 6 
#
# 1 86.0942 42.4832 26.5111 0.0000 0.0000 0.0000
# 2 42.4832 86.0942 26.5111 0.0000 0.0000 0.0000
# 3 26.5111 26.5111 70.9072 0.0000 0.0000 0.0000
# 4 0.0000 0.0000 0.0000 23.9135 0.0000 0.0000
# 5 0.0000 0.0000 0.0000 0.0000 23.9135 0.0000
# 6 0.0000 0.0000 0.0000 0.0000 0.0000 21.8055
#
#
#
# Elastic Compliance Matrix: (Units=1/GPa)
#
#
# Indices 1 2 3 4 5 6 
#
# 1 0.016063 -0.006867 -0.003438 0.000000 0.000000 0.000000
# 2 -0.006867 0.016063 -0.003438 0.000000 0.000000 0.000000
# 3 -0.003438 -0.003438 0.016674 0.000000 0.000000 0.000000
# 4 0.000000 0.000000 0.000000 0.041817 0.000000 0.000000
# 5 0.000000 0.000000 0.000000 0.000000 0.041817 0.000000
# 6 0.000000 0.000000 0.000000 0.000000 0.000000 0.045860
#
#
# Mechanical properties :
#
#
# Convention : Reuss Voigt Hill
#
# Bulk Modulus (GPa) = 46.92127 48.23407 47.57767
# Shear Modulus (GPa) = 23.48695 23.76585 23.62640
#
# Velocity S-wave (km/s) = 3.70000 3.72191 3.71097
# Velocity P-wave (km/s) = 6.75298 6.82530 6.78923
#
# Compressibility (1/GPa) = 0.02131229
#
# Stress axis : x y z
#
# Youngs Moduli (GPa) = 62.25658 62.25658 59.97466
#
# Poissons Ratio (x) = 0.42754 0.20619
# Poissons Ratio (y) = 0.42754 0.20619
# Poissons Ratio (z) = 0.21403 0.21403
#
# Static dielectric constant tensor:
#      x y z
#    x 1.581810 0.000000 0.000000 
#    y 0.000000 1.581810 0.000000 
#    z 0.000000 0.000000 1.595900 
# 
# From -- ./inp_files/7678.got.cif
#   From: 2010.05.17/outbox.cif.g08.bks.cpg/sg191_4_cif.got.tgz:7678.got - 2010.05.20 12:20:32.
