data_PCOD9587854
_publ_section_title
;
Structure prediction by ZEFSAII (Michael W. Deem and Ramdas Pophale) SiO2 
 PCOD9587854
Probable space group: P 6/M M M
;
_chemical_formula_sum "Si O2"
_cell_formula_units_Z 168
_cell_length_a 18.995291
_cell_length_b 18.995291
_cell_length_c 31.067318
_cell_angle_alpha 90.000000
_cell_angle_beta 90.000000
_cell_angle_gamma 120.000000
_cell_volume 9707.922415
_symmetry_space_group_name_H-M "P 6/M M M"
_symmetry_group_IT_number 191
_symmetry_cell_setting 'hexagonal'
loop_
_space_group_symop_operation_xyz
x,y,z
x-y,x,z
-y,x-y,z
-x,-y,z
-x+y,-x,z
y,-x+y,z
x-y,-y,-z
-x,-x+y,-z
y,x,-z
-y,-x,-z
-x+y,y,-z
x,x-y,-z
-x,-y,-z
-x+y,-x,-z
y,-x+y,-z
x,y,-z
x-y,x,-z
-y,x-y,-z
-x+y,y,z
x,x-y,z
-y,-x,z
y,x,z
x-y,-y,z
-x,-x+y,z
loop_
_atom_site_type_symbol
_atom_site_label
_atom_site_fract_x
_atom_site_fract_y
_atom_site_fract_z
Si Si1 0.256409 0.905856 0.320291
Si Si2 0.241145 0.327304 0.949106
Si Si3 0.172171 0.665347 0.173907
Si Si4 0.833998 0.332426 0.616759
Si Si5 0.647651 0.742245 0.448615
Si Si6 0.172320 0.507212 0.070093
Si Si7 0.089613 0.339305 0.217463
O O1 0.163509 0.836492 0.332151
O O2 0.313868 0.876366 0.342779
O O3 0.261155 0.904054 0.268592
O O4 0.287722 0.000000 0.332398
O O5 0.161928 0.323856 0.929469
O O6 0.266251 0.266251 0.929287
O O7 0.313580 0.419094 0.945253
O O8 0.226981 0.310410 0.000000
O O9 0.159826 0.579913 0.189119
O O10 0.261014 0.738987 0.186723
O O11 0.170069 0.664236 0.122062
O O12 0.107774 0.687517 0.192461
O O13 0.842422 0.421211 0.616580
O O14 0.739243 0.260758 0.616646
O O15 0.876737 0.313562 0.576563
O O16 0.635018 0.732952 0.500000
O O17 0.672237 0.836119 0.438296
O O18 0.711913 0.711913 0.437800
O O19 0.259921 0.519841 0.056820
O O20 0.161405 0.580703 0.054764
O O21 0.160235 0.320469 0.205583
O O22 0.000000 0.267850 0.208047
#
# Coordination Sequence:
#
# PCOD9587854 Si02
#       7
#    24  24  24  24  24  24  24
#     4   9  18  32  49  68  90 117 148 182 222 267
#     4   9  18  32  48  65  86 113 144 178 218 263
#     4   9  17  29  45  65  90 120 152 184 217 254
#     4  10  20  33  48  67  92 122 155 189 224 261
#     4   9  18  32  49  69  93 121 152 186 226 271
#     4   9  17  29  45  65  90 120 152 183 214 250
#     4   9  18  32  48  66  89 117 148 182 222 267
#
# _framework density 17.305454000000001
#
# number of rings (size 3 to 8) (size 9 to 14) (size 15 to 20)
#    0.000    2.857    0.000    0.857    0.000    4.571 
#    0.000    4.286    0.000    4.000    0.000    4.000 
#    0.000    3.429    0.000    7.429    0.000    7.429 
#
# Total GULP energy -935631.201910 kJ/mol
# GULP energy per Si atom -5569.233345 kJ/mol
# Density = 1.726607 g / cm^3
# Si number density = 17.305454 Si / 1000 Ang^3
#
#
#
# Elastic Constant Matrix: (Units=GPa)
#
#
# Indices 1 2 3 4 5 6 
#
# 1 97.5354 95.6109 12.8960 0.0000 0.0000 0.0000
# 2 95.6109 97.5354 12.8960 0.0000 0.0000 0.0000
# 3 12.8960 12.8960 15.4378 0.0000 0.0000 0.0000
# 4 0.0000 0.0000 0.0000 19.0491 0.0000 0.0000
# 5 0.0000 0.0000 0.0000 0.0000 19.0491 0.0000
# 6 0.0000 0.0000 0.0000 0.0000 0.0000 0.9622
#
#
#
# Elastic Compliance Matrix: (Units=1/GPa)
#
#
# Indices 1 2 3 4 5 6 
#
# 1 0.262733 -0.256905 -0.004868 0.000000 0.000000 0.000000
# 2 -0.256905 0.262733 -0.004868 0.000000 0.000000 0.000000
# 3 -0.004868 -0.004868 0.072909 0.000000 0.000000 0.000000
# 4 0.000000 0.000000 0.000000 0.052496 0.000000 0.000000
# 5 0.000000 0.000000 0.000000 0.000000 0.052496 0.000000
# 6 0.000000 0.000000 0.000000 0.000000 0.000000 1.039277
#
#
# Mechanical properties :
#
#
# Convention : Reuss Voigt Hill
#
# Bulk Modulus (GPa) = 15.36287 50.36826 32.86556
# Shear Modulus (GPa) = 2.17616 13.75244 7.96430
#
# Velocity S-wave (km/s) = 1.12260 2.82208 2.14760
# Velocity P-wave (km/s) = 3.25224 6.30773 5.01819
#
# Compressibility (1/GPa) = 0.06509201
#
# Stress axis : x y z
#
# Youngs Moduli (GPa) = 3.80615 3.80615 13.71573
#
# Poissons Ratio (x) = 0.97782 0.06677
# Poissons Ratio (y) = 0.97782 0.06677
# Poissons Ratio (z) = 0.01853 0.01853
#
# Static dielectric constant tensor:
#      x y z
#    x 1.589670 0.000000 0.000000 
#    y 0.000000 1.589670 0.000000 
#    z 0.000000 0.000000 1.620370 
# 
# From -- ./inp_files/10765.got.cif
#   From: 2010.05.17/outbox.cif.g08.bks.cpg/sg191_6_cif.got.tgz:10765.got - 2010.05.20 12:20:32.
