data_PCOD9587714
_publ_section_title
;
Structure prediction by ZEFSAII (Michael W. Deem and Ramdas Pophale) SiO2 
 PCOD9587714
Probable space group: P 6/M M M
;
_chemical_formula_sum "Si O2"
_cell_formula_units_Z 132
_cell_length_a 18.384450
_cell_length_b 18.384450
_cell_length_c 28.132914
_cell_angle_alpha 90.000000
_cell_angle_beta 90.000000
_cell_angle_gamma 120.000000
_cell_volume 8234.678232
_symmetry_space_group_name_H-M "P 6/M M M"
_symmetry_group_IT_number 191
_symmetry_cell_setting 'hexagonal'
loop_
_space_group_symop_operation_xyz
x,y,z
x-y,x,z
-y,x-y,z
-x,-y,z
-x+y,-x,z
y,-x+y,z
x-y,-y,-z
-x,-x+y,-z
y,x,-z
-y,-x,-z
-x+y,y,-z
x,x-y,-z
-x,-y,-z
-x+y,-x,-z
y,-x+y,-z
x,y,-z
x-y,x,-z
-y,x-y,-z
-x+y,y,z
x,x-y,z
-y,-x,z
y,x,z
x-y,-y,z
-x,-x+y,z
loop_
_atom_site_type_symbol
_atom_site_label
_atom_site_fract_x
_atom_site_fract_y
_atom_site_fract_z
Si Si1 0.498497 0.165057 0.557426
Si Si2 0.097068 0.741037 0.945957
Si Si3 0.668842 0.166234 0.757073
Si Si4 0.000000 0.415009 0.693938
Si Si5 0.664510 0.000000 0.404194
Si Si6 0.533432 0.899358 0.861243
Si Si7 0.000000 0.826997 0.443073
O O1 0.499841 0.165779 0.500000
O O2 0.581202 0.162403 0.573845
O O3 0.501243 0.250622 0.573214
O O4 0.413824 0.083307 0.573711
O O5 0.160421 0.839580 0.941718
O O6 0.120375 0.694364 0.905925
O O7 0.000000 0.712652 0.939345
O O8 0.105611 0.716039 0.000000
O O9 0.594067 0.188134 0.755534
O O10 0.755840 0.244161 0.740489
O O11 0.636651 0.082846 0.725811
O O12 0.676191 0.144358 0.811838
O O13 0.000000 0.500000 0.677207
O O14 0.000000 0.359112 0.650665
O O15 0.750258 0.000000 0.415652
O O16 0.439061 0.878121 0.871843
O O17 0.587253 0.000000 0.853431
O O18 0.915779 0.831557 0.432999
O O19 0.000000 0.811321 0.500000
#
# Coordination Sequence:
#
# PCOD9587714 Si02
#       7
#    24  24  24  12  12  24  12
#     4  10  20  34  52  75 104 137 170 203 242 290
#     4   9  17  28  43  66  96 128 162 198 239 289
#     4  10  19  33  52  72  93 122 162 205 246 291
#     4  10  22  38  51  68  99 134 164 202 255 298
#     4  12  22  34  54  78 103 131 170 213 249 291
#     4   9  16  28  47  69  94 123 155 193 239 290
#     4  10  21  38  60  85 112 139 166 199 243 295
#
# _framework density 16.029769999999999
#
# number of rings (size 3 to 8) (size 9 to 14) (size 15 to 20)
#    0.000    2.182    0.909    3.182    0.000    5.091 
#    0.000    1.818    0.000    2.727    0.000    1.273 
#    0.000    0.000    0.000    0.000    0.000    0.000 
#
# Total GULP energy -736052.250078 kJ/mol
# GULP energy per Si atom -5576.153410 kJ/mol
# Density = 1.599329 g / cm^3
# Si number density = 16.029770 Si / 1000 Ang^3
#
#
#
# Elastic Constant Matrix: (Units=GPa)
#
#
# Indices 1 2 3 4 5 6 
#
# 1 118.2812 70.5648 48.1998 0.0000 0.0000 0.0000
# 2 70.5648 118.2812 48.1998 0.0000 0.0000 0.0000
# 3 48.1998 48.1998 64.2783 0.0000 0.0000 0.0000
# 4 0.0000 0.0000 0.0000 -33.0190 0.0000 0.0000
# 5 0.0000 0.0000 0.0000 0.0000 -33.0190 0.0000
# 6 0.0000 0.0000 0.0000 0.0000 0.0000 23.8582
#
#
#
# Elastic Compliance Matrix: (Units=1/GPa)
#
#
# Indices 1 2 3 4 5 6 
#
# 1 0.014768 -0.006189 -0.006433 0.000000 0.000000 0.000000
# 2 -0.006189 0.014768 -0.006433 0.000000 0.000000 0.000000
# 3 -0.006433 -0.006433 0.025206 0.000000 0.000000 0.000000
# 4 0.000000 0.000000 0.000000 -0.030286 0.000000 0.000000
# 5 0.000000 0.000000 0.000000 0.000000 -0.030286 0.000000
# 6 0.000000 0.000000 0.000000 0.000000 0.000000 0.041914
#
#
# Mechanical properties :
#
#
# Convention : Reuss Voigt Hill
#
# Bulk Modulus (GPa) = 60.12882 70.52996 65.32939
# Shear Modulus (GPa) = 62.70403 0.48914 31.59658
#
# Velocity S-wave (km/s) = 6.26116 0.55300 4.44454
# Velocity P-wave (km/s) = 9.47954 6.67103 8.19647
#
# Compressibility (1/GPa) = 0.01663096
#
# Stress axis : x y z
#
# Youngs Moduli (GPa) = 67.71293 67.71293 39.67387
#
# Poissons Ratio (x) = 0.41907 0.25523
# Poissons Ratio (y) = 0.41907 0.25523
# Poissons Ratio (z) = 0.43562 0.43562
#
# Static dielectric constant tensor:
#      x y z
#    x 1.525030 0.000000 0.000000 
#    y 0.000000 1.525030 0.000000 
#    z 0.000000 0.000000 1.537300 
# 
# From -- ./inp_files/9855.got.cif
#   From: 2010.05.17/outbox.cif.g08.bks.cpg/sg191_5_cif.got.tgz:9855.got - 2010.05.20 12:20:32.
