data_PCOD9587691
_publ_section_title
;
Structure prediction by ZEFSAII (Michael W. Deem and Ramdas Pophale) SiO2 
 PCOD9587691
Probable space group: P 6/M M M
;
_chemical_formula_sum "Si O2"
_cell_formula_units_Z 76
_cell_length_a 18.061349
_cell_length_b 18.061349
_cell_length_c 17.662051
_cell_angle_alpha 90.000000
_cell_angle_beta 90.000000
_cell_angle_gamma 120.000000
_cell_volume 4989.673580
_symmetry_space_group_name_H-M "P 6/M M M"
_symmetry_group_IT_number 191
_symmetry_cell_setting 'hexagonal'
loop_
_space_group_symop_operation_xyz
x,y,z
x-y,x,z
-y,x-y,z
-x,-y,z
-x+y,-x,z
y,-x+y,z
x-y,-y,-z
-x,-x+y,-z
y,x,-z
-y,-x,-z
-x+y,y,-z
x,x-y,-z
-x,-y,-z
-x+y,-x,-z
y,-x+y,-z
x,y,-z
x-y,x,-z
-y,x-y,-z
-x+y,y,z
x,x-y,z
-y,-x,z
y,x,z
x-y,-y,z
-x,-x+y,z
loop_
_atom_site_type_symbol
_atom_site_label
_atom_site_fract_x
_atom_site_fract_y
_atom_site_fract_z
Si Si1 0.666667 0.333334 0.409414
Si Si2 0.897761 0.627369 0.850385
Si Si3 0.898772 0.362920 0.697342
Si Si4 0.234245 0.765755 0.590442
Si Si5 0.364316 0.467384 0.000000
O O1 0.666667 0.333334 0.500000
O O2 0.568758 0.284379 0.388051
O O3 0.831163 0.662326 0.847171
O O4 0.882133 0.567570 0.777336
O O5 0.000000 0.697109 0.852279
O O6 0.876159 0.568382 0.924839
O O7 0.871044 0.435522 0.697888
O O8 0.855183 0.292870 0.631579
O O9 0.000000 0.414141 0.686009
O O10 0.228769 0.771232 0.500000
O O11 0.421854 0.421854 0.000000
O O12 0.431295 0.568706 0.000000
#
# Coordination Sequence:
#
# PCOD9587691 Si02
#       5
#     4  24  24  12  12
#     4   9  18  30  45  66  90 121 152 187 243 291
#     4  10  19  32  51  73  98 129 163 200 240 284
#     4  10  20  33  49  69  94 125 161 198 238 286
#     4  11  20  32  48  66  93 124 156 197 241 288
#     4   9  17  30  49  72  98 128 160 191 225 268
#
# _framework density 15.231457000000001
#
# number of rings (size 3 to 8) (size 9 to 14) (size 15 to 20)
#    0.000    2.053    3.158    1.421    0.000    4.421 
#    0.000    1.579    0.000    4.737    0.000    0.000 
#    0.000    3.789    0.000    0.000    0.000   14.368 
#
# Total GULP energy -423102.061748 kJ/mol
# GULP energy per Si atom -5567.132391 kJ/mol
# Density = 1.519679 g / cm^3
# Si number density = 15.231457 Si / 1000 Ang^3
#
#
#
# Elastic Constant Matrix: (Units=GPa)
#
#
# Indices 1 2 3 4 5 6 
#
# 1 73.6489 38.3646 43.5965 0.0001 0.0000 0.0000
# 2 38.3646 73.6491 43.5965 -0.0001 0.0000 0.0001
# 3 43.5965 43.5965 129.8686 0.0000 0.0000 -0.0002
# 4 0.0001 -0.0001 0.0000 22.6805 0.0000 0.0000
# 5 0.0000 0.0000 0.0000 0.0000 22.6805 -0.0001
# 6 0.0000 0.0001 -0.0002 0.0000 -0.0001 17.6428
#
#
#
# Elastic Compliance Matrix: (Units=1/GPa)
#
#
# Indices 1 2 3 4 5 6 
#
# 1 0.020213 -0.008128 -0.004057 0.000000 0.000000 0.000000
# 2 -0.008128 0.020213 -0.004057 0.000000 0.000000 0.000000
# 3 -0.004057 -0.004057 0.010424 0.000000 0.000000 0.000000
# 4 0.000000 0.000000 0.000000 0.044091 0.000000 0.000000
# 5 0.000000 0.000000 0.000000 0.000000 0.044091 0.000000
# 6 0.000000 0.000000 0.000000 0.000000 0.000000 0.056680
#
#
# Mechanical properties :
#
#
# Convention : Reuss Voigt Hill
#
# Bulk Modulus (GPa) = 54.44611 58.69800 56.57206
# Shear Modulus (GPa) = 21.33845 22.70803 22.02324
#
# Velocity S-wave (km/s) = 3.74698 3.86536 3.80663
# Velocity P-wave (km/s) = 7.38534 7.65130 7.51950
#
# Compressibility (1/GPa) = 0.01836678
#
# Stress axis : x y z
#
# Youngs Moduli (GPa) = 49.47210 49.47228 95.93238
#
# Poissons Ratio (x) = 0.40210 0.38921
# Poissons Ratio (y) = 0.40210 0.38921
# Poissons Ratio (z) = 0.20071 0.20071
#
# Static dielectric constant tensor:
#      x y z
#    x 1.600490 0.000020 0.000000 
#    y 0.000020 1.600530 0.000000 
#    z 0.000000 0.000000 1.497590 
# 
# From -- ./inp_files/3958.got.cif
#   From: 2010.05.17/outbox.cif.g08.bks.cpg/sg191_2_cif.got.tgz:3958.got - 2010.05.20 12:20:32.
