data_PCOD9587174
_publ_section_title
;
Structure prediction by ZEFSAII (Michael W. Deem and Ramdas Pophale) SiO2 
 PCOD9587174
Probable space group: P 6/M M M
;
_chemical_formula_sum "Si O2"
_cell_formula_units_Z 192
_cell_length_a 24.038900
_cell_length_b 24.038900
_cell_length_c 24.518898
_cell_angle_alpha 90.000000
_cell_angle_beta 90.000000
_cell_angle_gamma 120.000000
_cell_volume 12270.457634
_symmetry_space_group_name_H-M "P 6/M M M"
_symmetry_group_IT_number 191
_symmetry_cell_setting 'hexagonal'
loop_
_space_group_symop_operation_xyz
x,y,z
x-y,x,z
-y,x-y,z
-x,-y,z
-x+y,-x,z
y,-x+y,z
x-y,-y,-z
-x,-x+y,-z
y,x,-z
-y,-x,-z
-x+y,y,-z
x,x-y,-z
-x,-y,-z
-x+y,-x,-z
y,-x+y,-z
x,y,-z
x-y,x,-z
-y,x-y,-z
-x+y,y,z
x,x-y,z
-y,-x,z
y,x,z
x-y,-y,z
-x,-x+y,z
loop_
_atom_site_type_symbol
_atom_site_label
_atom_site_fract_x
_atom_site_fract_y
_atom_site_fract_z
Si Si1 0.536673 0.200920 0.177435
Si Si2 0.602607 0.524493 0.438456
Si Si3 0.274548 0.074061 0.436962
Si Si4 0.379492 0.302360 0.357598
Si Si5 0.515469 0.824710 0.939535
Si Si6 0.925831 0.260980 0.061235
Si Si7 0.135646 0.404770 0.237935
Si Si8 0.201290 0.275248 0.172656
O O1 0.600971 0.201942 0.196423
O O2 0.543884 0.271942 0.181406
O O3 0.524580 0.180173 0.113774
O O4 0.471860 0.151722 0.209906
O O5 0.627753 0.529507 0.500000
O O6 0.548669 0.451332 0.427538
O O7 0.564870 0.564870 0.438441
O O8 0.656945 0.556976 0.393616
O O9 0.297848 0.079159 0.500000
O O10 0.251863 0.125932 0.430638
O O11 0.330498 0.089057 0.393857
O O12 0.220269 0.000000 0.429139
O O13 0.344683 0.344683 0.350677
O O14 0.395904 0.286508 0.298903
O O15 0.515053 0.757526 0.941069
O O16 0.589361 0.879021 0.930663
O O17 0.494848 0.834276 0.000000
O O18 0.917616 0.212391 0.108926
O O19 0.000000 0.316664 0.063848
O O20 0.913732 0.233166 0.000000
O O21 0.203211 0.406422 0.238495
O O22 0.088967 0.340868 0.203627
O O23 0.129342 0.258683 0.188215
O O24 0.221483 0.221483 0.182683
#
# Coordination Sequence:
#
# PCOD9587174 Si02
#       8
#    24  24  24  24  24  24  24  24
#     4  10  20  34  50  68  90 119 155 196 242 289
#     4   8  14  25  41  62  89 119 148 177 212 259
#     4   9  17  29  46  69  96 125 157 194 237 282
#     4  10  18  28  45  67  91 119 151 189 230 274
#     4   9  16  28  47  68  90 117 151 191 235 282
#     4   9  16  26  45  71  96 121 150 187 230 277
#     4  10  20  33  47  65  90 122 157 194 235 278
#     4  10  19  32  50  71  96 124 156 193 233 278
#
# _framework density 15.647338
#
# number of rings (size 3 to 8) (size 9 to 14) (size 15 to 20)
#    0.000    2.625    1.250    2.000    0.000    3.000 
#    0.000    0.000    0.000    4.000    0.000    2.625 
#    0.000    0.000    0.000    7.125    0.000    9.375 
#
# Total GULP energy -1069085.147256 kJ/mol
# GULP energy per Si atom -5568.151809 kJ/mol
# Density = 1.561172 g / cm^3
# Si number density = 15.647338 Si / 1000 Ang^3
#
#
#
# Elastic Constant Matrix: (Units=GPa)
#
#
# Indices 1 2 3 4 5 6 
#
# 1 69.0724 36.3588 39.0123 0.0000 0.0000 0.0000
# 2 36.3588 69.0724 39.0123 0.0000 0.0000 0.0000
# 3 39.0123 39.0123 88.9806 0.0000 0.0000 0.0000
# 4 0.0000 0.0000 0.0000 16.4880 0.0000 0.0000
# 5 0.0000 0.0000 0.0000 0.0000 16.4880 0.0000
# 6 0.0000 0.0000 0.0000 0.0000 0.0000 16.3568
#
#
#
# Elastic Compliance Matrix: (Units=1/GPa)
#
#
# Indices 1 2 3 4 5 6 
#
# 1 0.022304 -0.008264 -0.006156 0.000000 0.000000 0.000000
# 2 -0.008264 0.022304 -0.006156 0.000000 0.000000 0.000000
# 3 -0.006156 -0.006156 0.016636 0.000000 0.000000 0.000000
# 4 0.000000 0.000000 0.000000 0.060650 0.000000 0.000000
# 5 0.000000 0.000000 0.000000 0.000000 0.060650 0.000000
# 6 0.000000 0.000000 0.000000 0.000000 0.000000 0.061137
#
#
# Mechanical properties :
#
#
# Convention : Reuss Voigt Hill
#
# Bulk Modulus (GPa) = 49.76641 50.65471 50.21056
# Shear Modulus (GPa) = 17.15077 17.38266 17.26672
#
# Velocity S-wave (km/s) = 3.31431 3.33664 3.32549
# Velocity P-wave (km/s) = 6.82057 6.87657 6.84863
#
# Compressibility (1/GPa) = 0.02009387
#
# Stress axis : x y z
#
# Youngs Moduli (GPa) = 44.83407 44.83407 60.10944
#
# Poissons Ratio (x) = 0.37051 0.37003
# Poissons Ratio (y) = 0.37051 0.37003
# Poissons Ratio (z) = 0.27599 0.27599
#
# Static dielectric constant tensor:
#      x y z
#    x 1.513560 0.000000 0.000000 
#    y 0.000000 1.513560 0.000000 
#    z 0.000000 0.000000 1.546890 
# 
# From -- ./inp_files/9355.got.cif
#   From: 2010.05.17/outbox.cif.g08.bks.cpg/sg191_5_cif.got.tgz:9355.got - 2010.05.20 12:20:32.
