data_PCOD9587163
_publ_section_title
;
Structure prediction by ZEFSAII (Michael W. Deem and Ramdas Pophale) SiO2 
 PCOD9587163
Probable space group: P 6/M M M
;
_chemical_formula_sum "Si O2"
_cell_formula_units_Z 120
_cell_length_a 24.189897
_cell_length_b 24.189897
_cell_length_c 14.752428
_cell_angle_alpha 90.000000
_cell_angle_beta 90.000000
_cell_angle_gamma 120.000000
_cell_volume 7475.877454
_symmetry_space_group_name_H-M "P 6/M M M"
_symmetry_group_IT_number 191
_symmetry_cell_setting 'hexagonal'
loop_
_space_group_symop_operation_xyz
x,y,z
x-y,x,z
-y,x-y,z
-x,-y,z
-x+y,-x,z
y,-x+y,z
x-y,-y,-z
-x,-x+y,-z
y,x,-z
-y,-x,-z
-x+y,y,-z
x,x-y,-z
-x,-y,-z
-x+y,-x,-z
y,-x+y,-z
x,y,-z
x-y,x,-z
-y,x-y,-z
-x+y,y,z
x,x-y,z
-y,-x,z
y,x,z
x-y,-y,z
-x,-x+y,z
loop_
_atom_site_type_symbol
_atom_site_label
_atom_site_fract_x
_atom_site_fract_y
_atom_site_fract_z
Si Si1 0.743100 0.613368 0.857346
Si Si2 0.283760 0.923032 0.344342
Si Si3 0.926692 0.201791 0.000000
Si Si4 0.596161 0.521820 0.361258
Si Si5 0.925769 0.196627 0.500000
Si Si6 0.524211 0.598550 0.140936
O O1 0.796906 0.593811 0.871228
O O2 0.739966 0.629273 0.752053
O O3 0.672249 0.558820 0.886114
O O4 0.765890 0.677626 0.914701
O O5 0.331138 0.900666 0.387419
O O6 0.228788 0.912983 0.412784
O O7 0.327054 0.000000 0.329031
O O8 0.873058 0.126943 0.000000
O O9 0.000000 0.220165 0.000000
O O10 0.551657 0.448344 0.389972
O O11 0.557627 0.557627 0.388793
O O12 0.597920 0.522281 0.251170
O O13 0.878025 0.121976 0.500000
O O14 0.000000 0.218593 0.500000
O O15 0.452446 0.547555 0.110465
O O16 0.568575 0.568575 0.114941
#
# Coordination Sequence:
#
# PCOD9587163 Si02
#       6
#    24  24  12  24  12  24
#     4  10  18  28  44  65  89 116 144 177 218 259
#     4   9  16  27  43  62  86 115 143 171 207 253
#     4  10  20  32  47  68  93 117 141 173 213 259
#     4   7  10  18  34  56  81 109 137 163 193 228
#     4  10  20  32  45  62  83 107 137 173 215 265
#     4   8  13  23  40  59  80 108 140 173 207 243
#
# _framework density 16.051627
#
# number of rings (size 3 to 8) (size 9 to 14) (size 15 to 20)
#    0.000    3.200    0.000    4.800    0.000    0.000 
#    0.000    1.000    0.000    5.400    0.000    0.000 
#    0.000    0.000    0.000    8.400    0.000    3.600 
#
# Total GULP energy -668006.174579 kJ/mol
# GULP energy per Si atom -5566.718121 kJ/mol
# Density = 1.601509 g / cm^3
# Si number density = 16.051627 Si / 1000 Ang^3
#
#
#
# Elastic Constant Matrix: (Units=GPa)
#
#
# Indices 1 2 3 4 5 6 
#
# 1 103.3627 62.7840 20.2702 0.0000 0.0000 0.0000
# 2 62.7840 103.3627 20.2702 0.0000 0.0000 0.0000
# 3 20.2702 20.2702 62.6318 0.0000 0.0000 0.0000
# 4 0.0000 0.0000 0.0000 16.8155 0.0000 0.0000
# 5 0.0000 0.0000 0.0000 0.0000 16.8155 0.0000
# 6 0.0000 0.0000 0.0000 0.0000 0.0000 20.2894
#
#
#
# Elastic Compliance Matrix: (Units=1/GPa)
#
#
# Indices 1 2 3 4 5 6 
#
# 1 0.015589 -0.009054 -0.002115 0.000000 0.000000 0.000000
# 2 -0.009054 0.015589 -0.002115 0.000000 0.000000 0.000000
# 3 -0.002115 -0.002115 0.017335 0.000000 0.000000 0.000000
# 4 0.000000 0.000000 0.000000 0.059469 0.000000 0.000000
# 5 0.000000 0.000000 0.000000 0.000000 0.059469 0.000000
# 6 0.000000 0.000000 0.000000 0.000000 0.000000 0.049287
#
#
# Mechanical properties :
#
#
# Convention : Reuss Voigt Hill
#
# Bulk Modulus (GPa) = 45.56804 52.88954 49.22879
# Shear Modulus (GPa) = 19.95040 21.85295 20.90167
#
# Velocity S-wave (km/s) = 3.52929 3.69374 3.61245
# Velocity P-wave (km/s) = 6.71252 7.15631 6.93796
#
# Compressibility (1/GPa) = 0.02194520
#
# Stress axis : x y z
#
# Youngs Moduli (GPa) = 64.14721 64.14721 57.68580
#
# Poissons Ratio (x) = 0.58081 0.12200
# Poissons Ratio (y) = 0.58081 0.12200
# Poissons Ratio (z) = 0.13567 0.13567
#
# Static dielectric constant tensor:
#      x y z
#    x 1.540080 0.000000 0.000000 
#    y 0.000000 1.540080 0.000000 
#    z 0.000000 0.000000 1.584950 
# 
# From -- ./inp_files/4759.got.cif
#   From: 2010.05.17/outbox.cif.g08.bks.cpg/sg191_3_cif.got.tgz:4759.got - 2010.05.20 12:20:32.
