data_PCOD9587053
_publ_section_title
;
Structure prediction by ZEFSAII (Michael W. Deem and Ramdas Pophale) SiO2 
 PCOD9587053
Probable space group: P 6/M M M
;
_chemical_formula_sum "Si O2"
_cell_formula_units_Z 192
_cell_length_a 23.646115
_cell_length_b 23.646115
_cell_length_c 21.580110
_cell_angle_alpha 90.000000
_cell_angle_beta 90.000000
_cell_angle_gamma 120.000000
_cell_volume 10449.701397
_symmetry_space_group_name_H-M "P 6/M M M"
_symmetry_group_IT_number 191
_symmetry_cell_setting 'hexagonal'
loop_
_space_group_symop_operation_xyz
x,y,z
x-y,x,z
-y,x-y,z
-x,-y,z
-x+y,-x,z
y,-x+y,z
x-y,-y,-z
-x,-x+y,-z
y,x,-z
-y,-x,-z
-x+y,y,-z
x,x-y,-z
-x,-y,-z
-x+y,-x,-z
y,-x+y,-z
x,y,-z
x-y,x,-z
-y,x-y,-z
-x+y,y,z
x,x-y,z
-y,-x,z
y,x,z
x-y,-y,z
-x,-x+y,z
loop_
_atom_site_type_symbol
_atom_site_label
_atom_site_fract_x
_atom_site_fract_y
_atom_site_fract_z
Si Si1 0.379724 0.928390 0.071501
Si Si2 0.076533 0.328872 0.796490
Si Si3 0.273896 0.199491 0.662405
Si Si4 0.471836 0.393821 0.365212
Si Si5 0.333726 0.791496 0.134787
Si Si6 0.262691 0.867628 0.569823
Si Si7 0.829836 0.299775 0.257476
Si Si8 0.242123 0.925904 0.931829
O O1 0.365919 0.863293 0.105557
O O2 0.310731 0.926615 0.070896
O O3 0.432260 0.000000 0.097187
O O4 0.396938 0.925903 0.000000
O O5 0.079893 0.292196 0.735159
O O6 0.124828 0.404392 0.781649
O O7 0.096203 0.312100 0.862461
O O8 0.000000 0.308586 0.801692
O O9 0.249769 0.124885 0.647909
O O10 0.223752 0.223752 0.648076
O O11 0.339417 0.241783 0.622060
O O12 0.542048 0.457953 0.376240
O O13 0.420691 0.420691 0.356351
O O14 0.446541 0.338437 0.418248
O O15 0.475625 0.352765 0.306900
O O16 0.382252 0.764504 0.121654
O O17 0.260231 0.739770 0.113191
O O18 0.329237 0.801158 0.208041
O O19 0.254803 0.886454 0.500000
O O20 0.209973 0.790028 0.575112
O O21 0.767760 0.232241 0.282636
O O22 0.258090 0.000000 0.934020
O O23 0.214680 0.898147 0.000000
#
# Coordination Sequence:
#
# PCOD9587053 Si02
#       8
#    24  24  24  24  24  24  24  24
#     4   9  18  34  55  76  96 120 158 212 271 329
#     4  10  17  28  51  80 110 139 174 222 277 335
#     4  10  20  34  55  83 115 150 188 230 274 324
#     4  11  23  37  55  82 114 144 178 223 278 336
#     4  11  24  39  54  71  96 133 175 221 270 326
#     4  10  21  38  60  85 114 150 189 226 269 325
#     4  11  21  35  54  74 100 136 180 225 271 323
#     4   8  14  26  46  73 105 136 165 207 267 332
#
# _framework density 18.373732
#
# number of rings (size 3 to 8) (size 9 to 14) (size 15 to 20)
#    0.000    2.000    2.500    2.750    0.000    2.500 
#    0.000    1.250    0.000    5.125    0.000    0.000 
#    0.000    0.000    0.000    3.125    0.000    0.000 
#
# Total GULP energy -1069440.315507 kJ/mol
# GULP energy per Si atom -5570.001643 kJ/mol
# Density = 1.833191 g / cm^3
# Si number density = 18.373732 Si / 1000 Ang^3
#
#
#
# Elastic Constant Matrix: (Units=GPa)
#
#
# Indices 1 2 3 4 5 6 
#
# 1 99.2311 64.4596 30.1939 0.0000 0.0000 0.0000
# 2 64.4596 99.2311 30.1939 0.0000 0.0000 0.0000
# 3 30.1939 30.1939 106.8954 0.0000 0.0000 0.0000
# 4 0.0000 0.0000 0.0000 -102.7056 0.0000 0.0000
# 5 0.0000 0.0000 0.0000 0.0000 -102.7056 0.0000
# 6 0.0000 0.0000 0.0000 0.0000 0.0000 17.3858
#
#
#
# Elastic Compliance Matrix: (Units=1/GPa)
#
#
# Indices 1 2 3 4 5 6 
#
# 1 0.017789 -0.010970 -0.001926 0.000000 0.000000 0.000000
# 2 -0.010970 0.017789 -0.001926 0.000000 0.000000 0.000000
# 3 -0.001926 -0.001926 0.010443 0.000000 0.000000 0.000000
# 4 0.000000 0.000000 0.000000 -0.009737 0.000000 0.000000
# 5 0.000000 0.000000 0.000000 0.000000 -0.009737 0.000000
# 6 0.000000 0.000000 0.000000 0.000000 0.000000 0.057518
#
#
# Mechanical properties :
#
#
# Convention : Reuss Voigt Hill
#
# Bulk Modulus (GPa) = 61.05993 61.67250 61.36622
# Shear Modulus (GPa) = 41.95652 -25.57109 8.19272
#
# Velocity S-wave (km/s) = 4.78379 -3.73462 2.11391
# Velocity P-wave (km/s) = 7.98856 3.87839 6.27929
#
# Compressibility (1/GPa) = 0.01637735
#
# Stress axis : x y z
#
# Youngs Moduli (GPa) = 56.21313 56.21313 95.75647
#
# Poissons Ratio (x) = 0.61664 0.18446
# Poissons Ratio (y) = 0.61664 0.18446
# Poissons Ratio (z) = 0.10828 0.10828
#
# Static dielectric constant tensor:
#      x y z
#    x 1.645660 0.000000 0.000000 
#    y 0.000000 1.645660 0.000000 
#    z 0.000000 0.000000 1.676030 
# 
# From -- ./inp_files/8089.got.cif
#   From: 2010.05.17/outbox.cif.g08.bks.cpg/sg191_5_cif.got.tgz:8089.got - 2010.05.20 12:20:32.
