data_PCOD9587792
_publ_section_title
;
Structure prediction by ZEFSAII (Michael W. Deem and Ramdas Pophale) SiO2 
 PCOD9587792
Probable space group: P 6/M M M
;
_chemical_formula_sum "Si O2"
_cell_formula_units_Z 96
_cell_length_a 29.333485
_cell_length_b 29.333485
_cell_length_c 7.569569
_cell_angle_alpha 90.000000
_cell_angle_beta 90.000000
_cell_angle_gamma 120.000000
_cell_volume 5640.649440
_symmetry_space_group_name_H-M "P 6/M M M"
_symmetry_group_IT_number 191
_symmetry_cell_setting 'hexagonal'
loop_
_space_group_symop_operation_xyz
x,y,z
x-y,x,z
-y,x-y,z
-x,-y,z
-x+y,-x,z
y,-x+y,z
x-y,-y,-z
-x,-x+y,-z
y,x,-z
-y,-x,-z
-x+y,y,-z
x,x-y,-z
-x,-y,-z
-x+y,-x,-z
y,-x+y,-z
x,y,-z
x-y,x,-z
-y,x-y,-z
-x+y,y,z
x,x-y,z
-y,-x,z
y,x,z
x-y,-y,z
-x,-x+y,z
loop_
_atom_site_type_symbol
_atom_site_label
_atom_site_fract_x
_atom_site_fract_y
_atom_site_fract_z
Si Si1 0.704400 0.000000 0.217141
Si Si2 0.785233 0.671500 0.209989
Si Si3 0.401186 0.000000 0.211074
Si Si4 0.451911 0.175162 0.713719
Si Si5 0.110178 0.503933 0.709819
O O1 0.754955 0.054097 0.277453
O O2 0.651289 0.000000 0.273959
O O3 0.704226 0.000000 0.000000
O O4 0.841952 0.683904 0.282913
O O5 0.746256 0.609017 0.235806
O O6 0.791716 0.680930 0.000000
O O7 0.401718 0.947816 0.267588
O O8 0.399515 0.000000 0.000000
O O9 0.453667 0.175794 0.500000
O O10 0.467060 0.233530 0.774026
O O11 0.487232 0.151303 0.781063
O O12 0.119644 0.511735 0.500000
O O13 0.113366 0.556683 0.783119
#
# Coordination Sequence:
#
# PCOD9587792 Si02
#       5
#    12  24  12  24  24
#     4   9  16  26  40  61  86 106 131 166 197 229
#     4   9  16  27  43  60  80 107 134 161 196 234
#     4  11  20  30  43  62  86 110 136 169 202 237
#     4   9  17  29  44  60  77  98 129 167 200 236
#     4  10  20  32  44  59  82 110 136 164 205 254
#
# _framework density 17.019317000000001
#
# number of rings (size 3 to 8) (size 9 to 14) (size 15 to 20)
#    0.000    2.500    2.500    0.750    0.000    2.000 
#    0.000    0.625    0.000    0.500    0.000    3.500 
#    0.000    0.000    0.000    6.125    0.000   19.000 
#
# Total GULP energy -535338.618732 kJ/mol
# GULP energy per Si atom -5576.443945 kJ/mol
# Density = 1.698058 g / cm^3
# Si number density = 17.019317 Si / 1000 Ang^3
#
#
#
# Elastic Constant Matrix: (Units=GPa)
#
#
# Indices 1 2 3 4 5 6 
#
# 1 147.3072 91.3397 1.9441 0.0000 0.0000 0.0000
# 2 91.3397 147.3072 1.9441 0.0000 0.0000 0.0000
# 3 1.9441 1.9441 39.8868 0.0000 0.0000 0.0000
# 4 0.0000 0.0000 0.0000 5.1022 0.0000 0.0000
# 5 0.0000 0.0000 0.0000 0.0000 5.1022 0.0000
# 6 0.0000 0.0000 0.0000 0.0000 0.0000 27.9838
#
#
#
# Elastic Compliance Matrix: (Units=1/GPa)
#
#
# Indices 1 2 3 4 5 6 
#
# 1 0.011031 -0.006837 -0.000204 0.000000 0.000000 0.000000
# 2 -0.006837 0.011031 -0.000204 0.000000 0.000000 0.000000
# 3 -0.000204 -0.000204 0.025091 0.000000 0.000000 0.000000
# 4 0.000000 0.000000 0.000000 0.195993 0.000000 0.000000
# 5 0.000000 0.000000 0.000000 0.000000 0.195993 0.000000
# 6 0.000000 0.000000 0.000000 0.000000 0.000000 0.035735
#
#
# Mechanical properties :
#
#
# Convention : Reuss Voigt Hill
#
# Bulk Modulus (GPa) = 30.61798 58.32855 44.47326
# Shear Modulus (GPa) = 9.99497 23.58919 16.79208
#
# Velocity S-wave (km/s) = 2.42600 3.72697 3.14450
# Velocity P-wave (km/s) = 5.08689 7.27096 6.27468
#
# Compressibility (1/GPa) = 0.03266055
#
# Stress axis : x y z
#
# Youngs Moduli (GPa) = 90.65717 90.65717 39.85508
#
# Poissons Ratio (x) = 0.61982 0.00815
# Poissons Ratio (y) = 0.61982 0.00815
# Poissons Ratio (z) = 0.01853 0.01853
#
# Static dielectric constant tensor:
#      x y z
#    x 1.585350 0.000000 0.000000 
#    y 0.000000 1.585350 0.000000 
#    z 0.000000 0.000000 1.645240 
# 
# From -- ./inp_files/1557.got.cif
#   From: 2010.05.17/outbox.cif.g08.bks.cpg/sg191_1_cif.got.tgz:1557.got - 2010.05.20 12:20:32.
