data_PCOD9587622
_publ_section_title
;
Structure prediction by ZEFSAII (Michael W. Deem and Ramdas Pophale) SiO2 
 PCOD9587622
Probable space group: P 6/M M M
;
_chemical_formula_sum "Si O2"
_cell_formula_units_Z 168
_cell_length_a 29.522556
_cell_length_b 29.522556
_cell_length_c 14.695463
_cell_angle_alpha 90.000000
_cell_angle_beta 90.000000
_cell_angle_gamma 120.000000
_cell_volume 11092.305327
_symmetry_space_group_name_H-M "P 6/M M M"
_symmetry_group_IT_number 191
_symmetry_cell_setting 'hexagonal'
loop_
_space_group_symop_operation_xyz
x,y,z
x-y,x,z
-y,x-y,z
-x,-y,z
-x+y,-x,z
y,-x+y,z
x-y,-y,-z
-x,-x+y,-z
y,x,-z
-y,-x,-z
-x+y,y,-z
x,x-y,-z
-x,-y,-z
-x+y,-x,-z
y,-x+y,-z
x,y,-z
x-y,x,-z
-y,x-y,-z
-x+y,y,z
x,x-y,z
-y,-x,z
y,x,z
x-y,-y,z
-x,-x+y,z
loop_
_atom_site_type_symbol
_atom_site_label
_atom_site_fract_x
_atom_site_fract_y
_atom_site_fract_z
Si Si1 0.504622 0.703271 0.228081
Si Si2 0.763386 0.630117 0.228492
Si Si3 0.768963 0.435211 0.396867
Si Si4 0.396486 0.938134 0.602911
Si Si5 0.897261 0.499723 0.799085
Si Si6 0.938794 0.287305 0.604644
Si Si7 0.061214 0.671275 0.895014
O O1 0.488366 0.744183 0.189200
O O2 0.566937 0.733533 0.234025
O O3 0.483295 0.689981 0.330100
O O4 0.484717 0.647401 0.182077
O O5 0.824108 0.648215 0.212341
O O6 0.752632 0.652327 0.321125
O O7 0.728455 0.635830 0.150253
O O8 0.786870 0.450107 0.500000
O O9 0.706774 0.413547 0.395850
O O10 0.780393 0.390197 0.366454
O O11 0.401614 0.921498 0.500000
O O12 0.401155 0.908369 0.690150
O O13 0.339681 0.933872 0.609183
O O14 0.438679 0.000000 0.611086
O O15 0.908831 0.454416 0.830411
O O16 0.929151 0.557351 0.843316
O O17 0.927627 0.268607 0.500000
O O18 0.000000 0.307699 0.623968
O O19 0.000000 0.650413 0.889663
O O20 0.077060 0.673577 0.000000
#
# Coordination Sequence:
#
# PCOD9587622 Si02
#       7
#    24  24  24  24  24  24  24
#     4   9  18  30  41  54  76 105 132 163 212 269
#     4  10  19  31  49  71  93 116 148 188 226 263
#     4   9  16  25  36  49  67  94 128 162 195 237
#     4   9  17  29  44  63  89 120 149 174 207 259
#     4  11  21  32  48  69  91 110 140 188 233 278
#     4   9  16  28  47  67  92 128 160 182 212 261
#     4  10  21  37  54  70  92 122 152 182 228 291
#
# _framework density 15.145633999999999
#
# number of rings (size 3 to 8) (size 9 to 14) (size 15 to 20)
#    0.000    2.429    2.857    2.286    0.000    4.000 
#    0.000    2.857    0.000    0.286    0.000    0.000 
#    0.000    0.000    0.000    0.857    0.000    0.000 
#
# Total GULP energy -935664.458700 kJ/mol
# GULP energy per Si atom -5569.431302 kJ/mol
# Density = 1.511116 g / cm^3
# Si number density = 15.145634 Si / 1000 Ang^3
#
#
#
# Elastic Constant Matrix: (Units=GPa)
#
#
# Indices 1 2 3 4 5 6 
#
# 1 33.6085 30.1264 22.2508 0.0000 0.0000 0.0000
# 2 30.1264 33.6085 22.2508 0.0000 0.0000 0.0000
# 3 22.2508 22.2508 61.1992 0.0000 0.0000 0.0000
# 4 0.0000 0.0000 0.0000 6.3597 0.0000 0.0000
# 5 0.0000 0.0000 0.0000 0.0000 6.3597 0.0000
# 6 0.0000 0.0000 0.0000 0.0000 0.0000 1.7411
#
#
#
# Elastic Compliance Matrix: (Units=1/GPa)
#
#
# Indices 1 2 3 4 5 6 
#
# 1 0.154104 -0.133075 -0.007645 0.000000 0.000000 0.000000
# 2 -0.133075 0.154104 -0.007645 0.000000 0.000000 0.000000
# 3 -0.007645 -0.007645 0.021900 0.000000 0.000000 0.000000
# 4 0.000000 0.000000 0.000000 0.157240 0.000000 0.000000
# 5 0.000000 0.000000 0.000000 0.000000 0.157240 0.000000
# 6 0.000000 0.000000 0.000000 0.000000 0.000000 0.574358
#
#
# Mechanical properties :
#
#
# Convention : Reuss Voigt Hill
#
# Bulk Modulus (GPa) = 29.96320 30.85247 30.40783
# Shear Modulus (GPa) = 3.27482 6.47798 4.87640
#
# Velocity S-wave (km/s) = 1.47204 2.07037 1.79629
# Velocity P-wave (km/s) = 4.76608 5.11175 4.94194
#
# Compressibility (1/GPa) = 0.03337427
#
# Stress axis : x y z
#
# Youngs Moduli (GPa) = 6.48914 6.48914 45.66307
#
# Poissons Ratio (x) = 0.86354 0.34911
# Poissons Ratio (y) = 0.86354 0.34911
# Poissons Ratio (z) = 0.04961 0.04961
#
# Static dielectric constant tensor:
#      x y z
#    x 1.526210 0.000000 0.000000 
#    y 0.000000 1.526210 0.000000 
#    z 0.000000 0.000000 1.518060 
# 
# From -- ./inp_files/5441.got.cif
#   From: 2010.05.17/outbox.cif.g08.bks.cpg/sg191_3_cif.got.tgz:5441.got - 2010.05.20 12:20:32.
