data_PCOD9587594
_publ_section_title
;
Structure prediction by ZEFSAII (Michael W. Deem and Ramdas Pophale) SiO2 
 PCOD9587594
Probable space group: P 6/M M M
;
_chemical_formula_sum "Si O2"
_cell_formula_units_Z 96
_cell_length_a 28.398474
_cell_length_b 28.398474
_cell_length_c 7.710466
_cell_angle_alpha 90.000000
_cell_angle_beta 90.000000
_cell_angle_gamma 120.000000
_cell_volume 5385.192913
_symmetry_space_group_name_H-M "P 6/M M M"
_symmetry_group_IT_number 191
_symmetry_cell_setting 'hexagonal'
loop_
_space_group_symop_operation_xyz
x,y,z
x-y,x,z
-y,x-y,z
-x,-y,z
-x+y,-x,z
y,-x+y,z
x-y,-y,-z
-x,-x+y,-z
y,x,-z
-y,-x,-z
-x+y,y,-z
x,x-y,-z
-x,-y,-z
-x+y,-x,-z
y,-x+y,-z
x,y,-z
x-y,x,-z
-y,x-y,-z
-x+y,y,z
x,x-y,z
-y,-x,z
y,x,z
x-y,-y,z
-x,-x+y,z
loop_
_atom_site_type_symbol
_atom_site_label
_atom_site_fract_x
_atom_site_fract_y
_atom_site_fract_z
Si Si1 0.597716 0.597716 0.300022
Si Si2 0.223655 0.881653 0.793926
Si Si3 0.707460 0.707460 0.787543
Si Si4 0.116671 0.665704 0.293186
Si Si5 0.773566 0.333292 0.791068
O O1 0.581292 0.581292 0.500000
O O2 0.654733 0.654733 0.288882
O O3 0.616009 0.556647 0.223022
O O4 0.169388 0.830612 0.719711
O O5 0.241664 0.942603 0.731997
O O6 0.276341 0.874668 0.769019
O O7 0.215890 0.882017 0.000000
O O8 0.703554 0.703554 0.000000
O O9 0.110614 0.665515 0.500000
O O10 0.168768 0.660773 0.251761
O O11 0.769448 0.384724 0.726681
O O12 0.723491 0.276510 0.726556
O O13 0.769597 0.332726 0.000000
#
# Coordination Sequence:
#
# PCOD9587594 Si02
#       5
#    12  24  12  24  24
#     4   8  16  30  45  63  90 119 140 161 197 245
#     4   9  16  26  41  61  85 113 143 174 208 247
#     4   8  14  24  38  57  81 110 143 175 206 242
#     4  10  19  31  48  69  91 114 140 170 204 245
#     4  10  21  37  54  69  86 110 140 174 213 255
#
# _framework density 17.82666
#
# number of rings (size 3 to 8) (size 9 to 14) (size 15 to 20)
#    0.000    2.750    0.000    1.750    0.000    6.500 
#    0.000    0.625    0.000    5.250    0.000    0.000 
#    0.000    0.000    0.000    0.375    0.000   12.000 
#
# Total GULP energy -534778.024717 kJ/mol
# GULP energy per Si atom -5570.604424 kJ/mol
# Density = 1.778609 g / cm^3
# Si number density = 17.826660 Si / 1000 Ang^3
#
#
#
# Elastic Constant Matrix: (Units=GPa)
#
#
# Indices 1 2 3 4 5 6 
#
# 1 94.6818 111.1198 -1.7760 0.0000 0.0000 0.0000
# 2 111.1198 94.6818 -1.7760 0.0000 0.0000 0.0000
# 3 -1.7760 -1.7760 29.3692 0.0000 0.0000 0.0000
# 4 0.0000 0.0000 0.0000 -23.7669 0.0000 0.0000
# 5 0.0000 0.0000 0.0000 0.0000 -23.7669 0.0000
# 6 0.0000 0.0000 0.0000 0.0000 0.0000 -8.2190
#
#
#
# Elastic Compliance Matrix: (Units=1/GPa)
#
#
# Indices 1 2 3 4 5 6 
#
# 1 -0.027985 0.032849 0.000294 0.000000 0.000000 0.000000
# 2 0.032849 -0.027985 0.000294 0.000000 0.000000 0.000000
# 3 0.000294 0.000294 0.034085 0.000000 0.000000 0.000000
# 4 0.000000 0.000000 0.000000 -0.042075 0.000000 0.000000
# 5 0.000000 0.000000 0.000000 0.000000 -0.042075 0.000000
# 6 0.000000 0.000000 0.000000 0.000000 0.000000 -0.121669
#
#
# Mechanical properties :
#
#
# Convention : Reuss Voigt Hill
#
# Bulk Modulus (GPa) = 22.22733 48.20762 35.21748
# Shear Modulus (GPa) = -17.88374 -3.73958 -10.81166
#
# Velocity S-wave (km/s) = -3.17077 -1.44993 -2.46537
# Velocity P-wave (km/s) = 0.95363 4.92931 3.41970
#
# Compressibility (1/GPa) = 0.04498966
#
# Stress axis : x y z
#
# Youngs Moduli (GPa) = -35.73321 -35.73321 29.33853
#
# Poissons Ratio (x) = 1.17381 -0.00863
# Poissons Ratio (y) = 1.17381 -0.00863
# Poissons Ratio (z) = 0.01051 0.01051
#
# Static dielectric constant tensor:
#      x y z
#    x 1.633150 0.000000 0.000000 
#    y 0.000000 1.633150 0.000000 
#    z 0.000000 0.000000 1.671590 
# 
# From -- ./inp_files/1593.got.cif
#   From: 2010.05.17/outbox.cif.g08.bks.cpg/sg191_1_cif.got.tgz:1593.got - 2010.05.20 12:20:32.
