data_PCOD9587245
_publ_section_title
;
Structure prediction by ZEFSAII (Michael W. Deem and Ramdas Pophale) SiO2 
 PCOD9587245
Probable space group: P 6/M M M
;
_chemical_formula_sum "Si O2"
_cell_formula_units_Z 108
_cell_length_a 21.372301
_cell_length_b 21.372301
_cell_length_c 18.147483
_cell_angle_alpha 90.000000
_cell_angle_beta 90.000000
_cell_angle_gamma 120.000000
_cell_volume 7178.762640
_symmetry_space_group_name_H-M "P 6/M M M"
_symmetry_group_IT_number 191
_symmetry_cell_setting 'hexagonal'
loop_
_space_group_symop_operation_xyz
x,y,z
x-y,x,z
-y,x-y,z
-x,-y,z
-x+y,-x,z
y,-x+y,z
x-y,-y,-z
-x,-x+y,-z
y,x,-z
-y,-x,-z
-x+y,y,-z
x,x-y,-z
-x,-y,-z
-x+y,-x,-z
y,-x+y,-z
x,y,-z
x-y,x,-z
-y,x-y,-z
-x+y,y,z
x,x-y,z
-y,-x,z
y,x,z
x-y,-y,z
-x,-x+y,z
loop_
_atom_site_type_symbol
_atom_site_label
_atom_site_fract_x
_atom_site_fract_y
_atom_site_fract_z
Si Si1 0.142751 0.434743 0.584485
Si Si2 0.332874 0.817292 0.000000
Si Si3 0.712295 0.712295 0.410858
Si Si4 0.617078 0.534494 0.139282
Si Si5 0.855327 0.000000 0.410065
Si Si6 0.814284 0.334024 0.271308
O O1 0.133463 0.452666 0.500000
O O2 0.210776 0.421551 0.584258
O O3 0.160516 0.495620 0.644901
O O4 0.071738 0.361542 0.608500
O O5 0.340054 0.865520 0.071287
O O6 0.259380 0.740621 0.000000
O O7 0.403060 0.806120 0.000000
O O8 0.716081 0.716081 0.500000
O O9 0.783622 0.783622 0.384080
O O10 0.539245 0.460756 0.138129
O O11 0.598976 0.598976 0.133422
O O12 0.654453 0.531636 0.214935
O O13 0.927812 0.072188 0.387274
O O14 0.854546 0.000000 0.500000
O O15 0.798831 0.399416 0.258973
O O16 0.742152 0.257849 0.258365
#
# Coordination Sequence:
#
# PCOD9587245 Si02
#       6
#    24  12  12  24  12  24
#     4   9  18  31  45  63  86 113 151 196 238 282
#     4  10  18  29  47  71  98 125 154 186 221 264
#     4   9  16  27  43  59  79 111 145 181 225 271
#     4   9  18  31  47  67  92 121 149 180 221 270
#     4   9  15  22  35  57  84 111 138 171 215 268
#     4  10  20  33  49  67  89 116 150 193 241 288
#
# _framework density 15.044375
#
# number of rings (size 3 to 8) (size 9 to 14) (size 15 to 20)
#    0.000    2.667    0.000    2.111    1.556    4.889 
#    0.000    2.222    0.000    3.333    0.000    0.000 
#    0.000    0.000    0.000    0.000    0.000    0.000 
#
# Total GULP energy -601518.097647 kJ/mol
# GULP energy per Si atom -5569.612015 kJ/mol
# Density = 1.501013 g / cm^3
# Si number density = 15.044375 Si / 1000 Ang^3
#
#
#
# Elastic Constant Matrix: (Units=GPa)
#
#
# Indices 1 2 3 4 5 6 
#
# 1 62.6287 43.0645 31.7806 0.0000 0.0000 0.0000
# 2 43.0645 62.6287 31.7806 0.0000 0.0000 0.0000
# 3 31.7806 31.7806 80.4822 0.0000 0.0000 0.0000
# 4 0.0000 0.0000 0.0000 14.8652 0.0000 0.0000
# 5 0.0000 0.0000 0.0000 0.0000 14.8652 0.0000
# 6 0.0000 0.0000 0.0000 0.0000 0.0000 9.7821
#
#
#
# Elastic Compliance Matrix: (Units=1/GPa)
#
#
# Indices 1 2 3 4 5 6 
#
# 1 0.031761 -0.019353 -0.004900 0.000000 0.000000 0.000000
# 2 -0.019353 0.031761 -0.004900 0.000000 0.000000 0.000000
# 3 -0.004900 -0.004900 0.016295 0.000000 0.000000 0.000000
# 4 0.000000 0.000000 0.000000 0.067271 0.000000 0.000000
# 5 0.000000 0.000000 0.000000 0.000000 0.067271 0.000000
# 6 0.000000 0.000000 0.000000 0.000000 0.000000 0.102228
#
#
# Mechanical properties :
#
#
# Convention : Reuss Voigt Hill
#
# Bulk Modulus (GPa) = 46.48582 46.55455 46.52019
# Shear Modulus (GPa) = 13.08690 14.51009 13.79849
#
# Velocity S-wave (km/s) = 2.95258 3.10899 3.03179
# Velocity P-wave (km/s) = 6.52609 6.62569 6.57608
#
# Compressibility (1/GPa) = 0.02151194
#
# Stress axis : x y z
#
# Youngs Moduli (GPa) = 31.48528 31.48528 61.37022
#
# Poissons Ratio (x) = 0.60934 0.30069
# Poissons Ratio (y) = 0.60934 0.30069
# Poissons Ratio (z) = 0.15426 0.15426
#
# Static dielectric constant tensor:
#      x y z
#    x 1.489560 0.000000 0.000000 
#    y 0.000000 1.489560 0.000000 
#    z 0.000000 0.000000 1.506960 
# 
# From -- ./inp_files/6172.got.cif
#   From: 2010.05.17/outbox.cif.g08.bks.cpg/sg191_4_cif.got.tgz:6172.got - 2010.05.20 12:20:32.
