data_PCOD9587217
_publ_section_title
;
Structure prediction by ZEFSAII (Michael W. Deem and Ramdas Pophale) SiO2 
 PCOD9587217
Probable space group: P 6/M M M
;
_chemical_formula_sum "Si O2"
_cell_formula_units_Z 120
_cell_length_a 18.074280
_cell_length_b 18.074280
_cell_length_c 27.897582
_cell_angle_alpha 90.000000
_cell_angle_beta 90.000000
_cell_angle_gamma 120.000000
_cell_volume 7892.583884
_symmetry_space_group_name_H-M "P 6/M M M"
_symmetry_group_IT_number 191
_symmetry_cell_setting 'hexagonal'
loop_
_space_group_symop_operation_xyz
x,y,z
x-y,x,z
-y,x-y,z
-x,-y,z
-x+y,-x,z
y,-x+y,z
x-y,-y,-z
-x,-x+y,-z
y,x,-z
-y,-x,-z
-x+y,y,-z
x,x-y,-z
-x,-y,-z
-x+y,-x,-z
y,-x+y,-z
x,y,-z
x-y,x,-z
-y,x-y,-z
-x+y,y,z
x,x-y,z
-y,-x,z
y,x,z
x-y,-y,z
-x,-x+y,z
loop_
_atom_site_type_symbol
_atom_site_label
_atom_site_fract_x
_atom_site_fract_y
_atom_site_fract_z
Si Si1 0.507860 0.838347 0.382110
Si Si2 0.271721 0.901465 0.000000
Si Si3 0.158771 0.667475 0.907859
Si Si4 0.364509 0.466802 0.275387
Si Si5 0.000000 0.409955 0.444983
Si Si6 0.632103 0.900256 0.182282
O O1 0.415413 0.830826 0.385682
O O2 0.503132 0.751566 0.396945
O O3 0.534016 0.857786 0.326336
O O4 0.571175 0.916564 0.415468
O O5 0.313523 0.883391 0.953583
O O6 0.171203 0.828797 0.000000
O O7 0.295699 0.000000 0.000000
O O8 0.148937 0.574469 0.909385
O O9 0.258555 0.741445 0.907938
O O10 0.117178 0.682596 0.860564
O O11 0.435286 0.564715 0.263305
O O12 0.417165 0.417165 0.282283
O O13 0.300776 0.420265 0.231921
O O14 0.000000 0.500000 0.445219
O O15 0.000000 0.385171 0.500000
O O16 0.663894 0.831947 0.176267
O O17 0.703730 0.000000 0.181928
#
# Coordination Sequence:
#
# PCOD9587217 Si02
#       6
#    24  12  24  24  12  24
#     4  10  18  29  45  66  90 118 153 190 226 265
#     4  10  21  35  51  70  93 123 160 200 241 281
#     4  10  20  33  49  71  98 128 158 190 228 273
#     4   9  16  28  46  67  91 120 150 180 218 269
#     4   9  18  32  46  60  84 118 151 184 226 268
#     4  10  20  32  47  68  93 121 154 192 234 276
#
# _framework density 15.204147000000001
#
# number of rings (size 3 to 8) (size 9 to 14) (size 15 to 20)
#    0.000    2.300    1.000    2.500    0.000    3.200 
#    0.000    1.000    0.000    7.900    0.000    0.000 
#    0.000    4.800    0.000    0.300    0.000    1.700 
#
# Total GULP energy -669117.965824 kJ/mol
# GULP energy per Si atom -5575.983049 kJ/mol
# Density = 1.516954 g / cm^3
# Si number density = 15.204147 Si / 1000 Ang^3
#
#
#
# Elastic Constant Matrix: (Units=GPa)
#
#
# Indices 1 2 3 4 5 6 
#
# 1 89.5636 56.2513 48.3490 0.0000 0.0000 0.0000
# 2 56.2513 89.5636 48.3490 0.0000 0.0000 0.0000
# 3 48.3490 48.3490 104.6023 0.0000 0.0000 0.0000
# 4 0.0000 0.0000 0.0000 7.1214 0.0000 0.0000
# 5 0.0000 0.0000 0.0000 0.0000 7.1214 0.0000
# 6 0.0000 0.0000 0.0000 0.0000 0.0000 16.6562
#
#
#
# Elastic Compliance Matrix: (Units=1/GPa)
#
#
# Indices 1 2 3 4 5 6 
#
# 1 0.019954 -0.010065 -0.004571 0.000000 0.000000 0.000000
# 2 -0.010065 0.019954 -0.004571 0.000000 0.000000 0.000000
# 3 -0.004571 -0.004571 0.013786 0.000000 0.000000 0.000000
# 4 0.000000 0.000000 0.000000 0.140421 0.000000 0.000000
# 5 0.000000 0.000000 0.000000 0.000000 0.140421 0.000000
# 6 0.000000 0.000000 0.000000 0.000000 0.000000 0.060038
#
#
# Mechanical properties :
#
#
# Convention : Reuss Voigt Hill
#
# Bulk Modulus (GPa) = 65.44420 65.51423 65.47922
# Shear Modulus (GPa) = 11.41340 14.89847 13.15593
#
# Velocity S-wave (km/s) = 2.74282 3.13372 2.94477
# Velocity P-wave (km/s) = 7.29163 7.50179 7.39746
#
# Compressibility (1/GPa) = 0.01528019
#
# Stress axis : x y z
#
# Youngs Moduli (GPa) = 50.11494 50.11494 72.53926
#
# Poissons Ratio (x) = 0.50440 0.33158
# Poissons Ratio (y) = 0.50440 0.33158
# Poissons Ratio (z) = 0.22908 0.22908
#
# Static dielectric constant tensor:
#      x y z
#    x 1.490210 0.000000 0.000000 
#    y 0.000000 1.490210 0.000000 
#    z 0.000000 0.000000 1.511360 
# 
# From -- ./inp_files/8614.got.cif
#   From: 2010.05.17/outbox.cif.g08.bks.cpg/sg191_5_cif.got.tgz:8614.got - 2010.05.20 12:20:32.
