data_PCOD9587969
_publ_section_title
;
Structure prediction by ZEFSAII (Michael W. Deem and Ramdas Pophale) SiO2 
 PCOD9587969
Probable space group: P 6/M M M
;
_chemical_formula_sum "Si O2"
_cell_formula_units_Z 90
_cell_length_a 17.461026
_cell_length_b 17.461026
_cell_length_c 20.004503
_cell_angle_alpha 90.000000
_cell_angle_beta 90.000000
_cell_angle_gamma 120.000000
_cell_volume 5281.994149
_symmetry_space_group_name_H-M "P 6/M M M"
_symmetry_group_IT_number 191
_symmetry_cell_setting 'hexagonal'
loop_
_space_group_symop_operation_xyz
x,y,z
x-y,x,z
-y,x-y,z
-x,-y,z
-x+y,-x,z
y,-x+y,z
x-y,-y,-z
-x,-x+y,-z
y,x,-z
-y,-x,-z
-x+y,y,-z
x,x-y,-z
-x,-y,-z
-x+y,-x,-z
y,-x+y,-z
x,y,-z
x-y,x,-z
-y,x-y,-z
-x+y,y,z
x,x-y,z
-y,-x,z
y,x,z
x-y,-y,z
-x,-x+y,z
loop_
_atom_site_type_symbol
_atom_site_label
_atom_site_fract_x
_atom_site_fract_y
_atom_site_fract_z
Si Si1 0.466168 0.105789 0.770092
Si Si2 0.793261 0.586521 0.875393
Si Si3 0.103759 0.207518 0.919144
Si Si4 0.899004 0.273772 0.365957
Si Si5 0.274354 0.725647 0.000000
Si Si6 0.486504 0.153706 0.500000
O O1 0.570178 0.140355 0.773686
O O2 0.433998 0.144412 0.828749
O O3 0.438980 0.125044 0.697880
O O4 0.415504 0.000000 0.776124
O O5 0.844899 0.689798 0.896607
O O6 0.758519 0.517038 0.936701
O O7 0.155437 0.155437 0.897776
O O8 0.103745 0.207490 0.000000
O O9 0.829758 0.170243 0.368891
O O10 0.887880 0.316747 0.433614
O O11 0.000000 0.299363 0.358600
O O12 0.238208 0.619104 0.000000
O O13 0.571171 0.142342 0.500000
O O14 0.513495 0.256748 0.500000
#
# Coordination Sequence:
#
# PCOD9587969 Si02
#       6
#    24  12  12  24   6  12
#     4  10  21  36  55  81 112 146 187 231 272 326
#     4  12  20  39  60  81 112 148 190 225 278 336
#     4  10  21  38  62  90 117 143 177 227 287 349
#     4  10  20  36  55  80 110 145 189 230 280 336
#     4  10  24  40  56  82 112 146 186 236 278 328
#     4  10  20  33  54  81 114 152 183 228 276 323
#
# _framework density 17.039020000000001
#
# number of rings (size 3 to 8) (size 9 to 14) (size 15 to 20)
#    0.133    1.600    2.000    3.067    0.000    2.667 
#    0.800    0.000    0.000    3.467    0.000    0.000 
#    0.000    3.200    0.000    0.000    0.000    0.000 
#
# Total GULP energy -502072.623946 kJ/mol
# GULP energy per Si atom -5578.584711 kJ/mol
# Density = 1.700024 g / cm^3
# Si number density = 17.039020 Si / 1000 Ang^3
#
#
#
# Elastic Constant Matrix: (Units=GPa)
#
#
# Indices 1 2 3 4 5 6 
#
# 1 109.8695 81.8589 48.1661 0.0000 0.0000 0.0000
# 2 81.8589 109.8695 48.1661 0.0000 0.0000 0.0000
# 3 48.1661 48.1661 124.4605 0.0000 0.0000 0.0000
# 4 0.0000 0.0000 0.0000 27.0257 0.0000 0.0000
# 5 0.0000 0.0000 0.0000 0.0000 27.0257 0.0000
# 6 0.0000 0.0000 0.0000 0.0000 0.0000 14.0053
#
#
#
# Elastic Compliance Matrix: (Units=1/GPa)
#
#
# Indices 1 2 3 4 5 6 
#
# 1 0.021088 -0.014613 -0.002506 0.000000 0.000000 0.000000
# 2 -0.014613 0.021088 -0.002506 0.000000 0.000000 0.000000
# 3 -0.002506 -0.002506 0.009974 0.000000 0.000000 0.000000
# 4 0.000000 0.000000 0.000000 0.037002 0.000000 0.000000
# 5 0.000000 0.000000 0.000000 0.000000 0.037002 0.000000
# 6 0.000000 0.000000 0.000000 0.000000 0.000000 0.071401
#
#
# Mechanical properties :
#
#
# Convention : Reuss Voigt Hill
#
# Bulk Modulus (GPa) = 77.51544 77.84242 77.67893
# Shear Modulus (GPa) = 20.73797 24.67859 22.70828
#
# Velocity S-wave (km/s) = 3.49246 3.80986 3.65461
# Velocity P-wave (km/s) = 7.86478 8.07077 7.96844
#
# Compressibility (1/GPa) = 0.01290065
#
# Stress axis : x y z
#
# Youngs Moduli (GPa) = 47.42099 47.42099 100.25996
#
# Poissons Ratio (x) = 0.69296 0.25122
# Poissons Ratio (y) = 0.69296 0.25122
# Poissons Ratio (z) = 0.11882 0.11882
#
# Static dielectric constant tensor:
#      x y z
#    x 1.568800 0.000000 0.000000 
#    y 0.000000 1.568800 0.000000 
#    z 0.000000 0.000000 1.559870 
# 
# From -- ./inp_files/5872.got.cif
#   From: 2010.05.17/outbox.cif.g08.bks.cpg/sg191_3_cif.got.tgz:5872.got - 2010.05.20 12:20:32.
