data_PCOD9587936
_publ_section_title
;
Structure prediction by ZEFSAII (Michael W. Deem and Ramdas Pophale) SiO2 
 PCOD9587936
Probable space group: P 6/M M M
;
_chemical_formula_sum "Si O2"
_cell_formula_units_Z 168
_cell_length_a 18.147786
_cell_length_b 18.147786
_cell_length_c 36.342455
_cell_angle_alpha 90.000000
_cell_angle_beta 90.000000
_cell_angle_gamma 120.000000
_cell_volume 10365.546204
_symmetry_space_group_name_H-M "P 6/M M M"
_symmetry_group_IT_number 191
_symmetry_cell_setting 'hexagonal'
loop_
_space_group_symop_operation_xyz
x,y,z
x-y,x,z
-y,x-y,z
-x,-y,z
-x+y,-x,z
y,-x+y,z
x-y,-y,-z
-x,-x+y,-z
y,x,-z
-y,-x,-z
-x+y,y,-z
x,x-y,-z
-x,-y,-z
-x+y,-x,-z
y,-x+y,-z
x,y,-z
x-y,x,-z
-y,x-y,-z
-x+y,y,z
x,x-y,z
-y,-x,z
y,x,z
x-y,-y,z
-x,-x+y,z
loop_
_atom_site_type_symbol
_atom_site_label
_atom_site_fract_x
_atom_site_fract_y
_atom_site_fract_z
Si Si1 0.333667 0.492678 0.395900
Si Si2 0.333143 0.492572 0.688109
Si Si3 0.096680 0.731648 0.892138
Si Si4 0.505238 0.666250 0.042929
Si Si5 0.667539 0.159939 0.823940
Si Si6 0.097030 0.730784 0.755165
Si Si7 0.263797 0.906022 0.541674
O O1 0.255274 0.510548 0.398852
O O2 0.421561 0.578440 0.401430
O O3 0.332743 0.463513 0.353877
O O4 0.318359 0.425061 0.427152
O O5 0.258404 0.516807 0.690539
O O6 0.424169 0.575832 0.695388
O O7 0.308832 0.419088 0.717695
O O8 0.169197 0.830803 0.890406
O O9 0.109468 0.693392 0.930095
O O10 0.118590 0.685014 0.859629
O O11 0.000000 0.709513 0.888505
O O12 0.480358 0.740179 0.046725
O O13 0.424656 0.575345 0.052648
O O14 0.526157 0.664074 0.000000
O O15 0.574736 0.149471 0.823762
O O16 0.740495 0.259505 0.823913
O O17 0.685440 0.118381 0.788425
O O18 0.169857 0.830144 0.756332
O O19 0.000000 0.708425 0.758201
O O20 0.289274 0.896025 0.500000
O O21 0.167326 0.832675 0.546879
O O22 0.278861 0.000000 0.544415
#
# Coordination Sequence:
#
# PCOD9587936 Si02
#       7
#    24  24  24  24  24  24  24
#     4   9  17  29  45  66  93 125 158 188 217 252
#     4   9  17  29  46  68  95 126 157 187 219 258
#     4  10  21  35  50  69  93 122 156 196 242 285
#     4   9  17  29  46  69  98 131 163 192 223 264
#     4  10  20  33  50  73 102 134 163 188 216 257
#     4  10  21  35  50  69  93 122 155 193 237 279
#     4   9  18  32  48  65  86 113 145 182 226 274
#
# _framework density 16.207539000000001
#
# number of rings (size 3 to 8) (size 9 to 14) (size 15 to 20)
#    0.000    2.571    0.000    1.857    0.000    6.000 
#    0.000    5.714    0.000    1.286    0.000    1.000 
#    0.000    3.429    0.000   10.714    0.000    3.714 
#
# Total GULP energy -936743.485513 kJ/mol
# GULP energy per Si atom -5575.854080 kJ/mol
# Density = 1.617065 g / cm^3
# Si number density = 16.207539 Si / 1000 Ang^3
#
#
#
# Elastic Constant Matrix: (Units=GPa)
#
#
# Indices 1 2 3 4 5 6 
#
# 1 76.7013 74.7562 47.1963 0.0000 0.0000 0.0000
# 2 74.7562 76.7013 47.1963 0.0000 0.0000 0.0000
# 3 47.1963 47.1963 79.0196 0.0000 0.0000 0.0000
# 4 0.0000 0.0000 0.0000 13.7080 0.0000 0.0000
# 5 0.0000 0.0000 0.0000 0.0000 13.7080 0.0000
# 6 0.0000 0.0000 0.0000 0.0000 0.0000 0.9726
#
#
#
# Elastic Compliance Matrix: (Units=1/GPa)
#
#
# Indices 1 2 3 4 5 6 
#
# 1 0.262314 -0.251797 -0.006282 0.000000 0.000000 0.000000
# 2 -0.251797 0.262314 -0.006282 0.000000 0.000000 0.000000
# 3 -0.006282 -0.006282 0.020159 0.000000 0.000000 0.000000
# 4 0.000000 0.000000 0.000000 0.072950 0.000000 0.000000
# 5 0.000000 0.000000 0.000000 0.000000 0.072950 0.000000
# 6 0.000000 0.000000 0.000000 0.000000 0.000000 1.028222
#
#
# Mechanical properties :
#
#
# Convention : Reuss Voigt Hill
#
# Bulk Modulus (GPa) = 62.24039 63.41330 62.82685
# Shear Modulus (GPa) = 2.21928 9.89592 6.05760
#
# Velocity S-wave (km/s) = 1.17143 2.47366 1.93536
# Velocity P-wave (km/s) = 6.34942 6.88254 6.62135
#
# Compressibility (1/GPa) = 0.01606674
#
# Stress axis : x y z
#
# Youngs Moduli (GPa) = 3.81222 3.81222 49.60552
#
# Poissons Ratio (x) = 0.95990 0.31161
# Poissons Ratio (y) = 0.95990 0.31161
# Poissons Ratio (z) = 0.02395 0.02395
#
# Static dielectric constant tensor:
#      x y z
#    x 1.524350 0.000000 0.000000 
#    y 0.000000 1.524350 0.000000 
#    z 0.000000 0.000000 1.566170 
# 
# From -- ./inp_files/10747.got.cif
#   From: 2010.05.17/outbox.cif.g08.bks.cpg/sg191_6_cif.got.tgz:10747.got - 2010.05.20 12:20:32.
