data_PCOD9587011
_publ_section_title
;
Structure prediction by ZEFSAII (Michael W. Deem and Ramdas Pophale) SiO2 
 PCOD9587011
Probable space group: P -6 2 C
;
_chemical_formula_sum "Si O2"
_cell_formula_units_Z 96
_cell_length_a 17.402822
_cell_length_b 17.402822
_cell_length_c 28.022628
_cell_angle_alpha 90.000000
_cell_angle_beta 90.000000
_cell_angle_gamma 120.000000
_cell_volume 7349.856325
_symmetry_space_group_name_H-M "P -6 2 C"
_symmetry_group_IT_number 190
_symmetry_cell_setting 'hexagonal'
loop_
_space_group_symop_operation_xyz
x,y,z
-x+y,-x,1/2-z
-y,x-y,z
x,y,1/2-z
-x+y,-x,z
-y,x-y,1/2-z
x-y,-y,-z
-x,-x+y,-z
y,x,-z
y,x,1/2+z
x-y,-y,1/2+z
-x,-x+y,1/2+z
loop_
_atom_site_type_symbol
_atom_site_label
_atom_site_fract_x
_atom_site_fract_y
_atom_site_fract_z
Si Si1 0.666636 0.151454 0.695008
Si Si2 0.062698 0.305548 0.956211
Si Si3 0.484817 0.151453 0.804992
Si Si4 0.725212 0.093456 0.605195
Si Si5 0.666966 0.154216 0.988200
Si Si6 0.631756 0.725212 0.105195
Si Si7 0.305548 0.242850 0.456211
Si Si8 0.666966 0.512750 0.511800
O O1 0.668222 0.125295 0.750000
O O2 0.573985 0.147969 0.686446
O O3 0.747486 0.252514 0.689530
O O4 0.684561 0.095312 0.656007
O O5 0.145252 0.290505 0.949207
O O6 0.102714 0.407185 0.974299
O O7 0.999568 0.286012 0.911065
O O8 0.000000 0.247316 0.000000
O O9 0.457073 0.125295 0.750000
O O10 0.410751 0.095312 0.843993
O O11 0.677550 0.120081 0.563771
O O12 0.827687 0.172314 0.604378
O O13 0.713988 0.000432 0.588935
O O14 0.695529 0.102714 0.025701
O O15 0.742343 0.257657 0.990856
O O16 0.570062 0.140124 0.995483
O O17 0.557469 0.677550 0.063771
O O18 0.247316 0.247316 0.500000
#
# Coordination Sequence:
#
# PCOD9587011 Si02
#       8
#    12  12  12  12  12  12  12  12
#     4   9  16  25  38  58  84 111 135 157 182 215
#     4   9  17  28  41  56  75 100 127 157 195 233
#     4   9  16  25  38  58  84 111 135 157 182 215
#     4   9  17  27  39  55  75 100 127 156 192 230
#     4   9  16  24  35  53  77 104 130 153 178 213
#     4   9  17  27  39  55  75 100 127 156 192 230
#     4   9  17  28  41  56  75 100 127 157 195 233
#     4   9  16  24  35  53  77 104 130 153 178 213
#
# _framework density 13.06148
#
# number of rings (size 3 to 8) (size 9 to 14) (size 15 to 20)
#    0.000    3.000    0.000    3.500    0.000    6.500 
#    0.000    2.500    0.000    5.250    0.000    0.000 
#    0.000    0.000    0.000    0.000    0.000    0.000 
#
# Total GULP energy -534579.978639 kJ/mol
# GULP energy per Si atom -5568.541444 kJ/mol
# Density = 1.303175 g / cm^3
# Si number density = 13.061480 Si / 1000 Ang^3
#
#
#
# Elastic Constant Matrix: (Units=GPa)
#
#
# Indices 1 2 3 4 5 6 
#
# 1 79.6971 57.9555 49.3423 0.0000 0.0000 0.0000
# 2 57.9555 79.6971 49.3423 0.0000 0.0000 0.0000
# 3 49.3423 49.3423 82.8703 0.0000 0.0000 0.0000
# 4 0.0000 0.0000 0.0000 17.7931 0.0000 0.0000
# 5 0.0000 0.0000 0.0000 0.0000 17.7931 0.0000
# 6 0.0000 0.0000 0.0000 0.0000 0.0000 10.8708
#
#
#
# Elastic Compliance Matrix: (Units=1/GPa)
#
#
# Indices 1 2 3 4 5 6 
#
# 1 0.029335 -0.016660 -0.007547 0.000000 0.000000 0.000000
# 2 -0.016660 0.029335 -0.007547 0.000000 0.000000 0.000000
# 3 -0.007547 -0.007547 0.021054 0.000000 0.000000 0.000000
# 4 0.000000 0.000000 0.000000 0.056202 0.000000 0.000000
# 5 0.000000 0.000000 0.000000 0.000000 0.056202 0.000000
# 6 0.000000 0.000000 0.000000 0.000000 0.000000 0.091990
#
#
# Mechanical properties :
#
#
# Convention : Reuss Voigt Hill
#
# Bulk Modulus (GPa) = 61.66516 61.72719 61.69618
# Shear Modulus (GPa) = 14.16309 14.99968 14.58138
#
# Velocity S-wave (km/s) = 3.29650 3.39247 3.34483
# Velocity P-wave (km/s) = 7.86150 7.91875 7.89018
#
# Compressibility (1/GPa) = 0.01621661
#
# Stress axis : x y z
#
# Youngs Moduli (GPa) = 34.08898 34.08898 47.49633
#
# Poissons Ratio (x) = 0.56792 0.35846
# Poissons Ratio (y) = 0.56792 0.35846
# Poissons Ratio (z) = 0.25727 0.25727
#
# Static dielectric constant tensor:
#      x y z
#    x 1.421260 0.000000 0.000000 
#    y 0.000000 1.421260 0.000000 
#    z 0.000000 0.000000 1.424860 
# 
# From -- ./inp_files/4767.got.cif
#   From: 2010.05.17/outbox.cif.g08.bks.cpg/sg190_3_cif.got.tgz:4767.got - 2010.05.20 12:16:56.
