data_PCOD9587111
_publ_section_title
;
Structure prediction by ZEFSAII (Michael W. Deem and Ramdas Pophale) SiO2 
 PCOD9587111
Probable space group: P 6/M M M
;
_chemical_formula_sum "Si O2"
_cell_formula_units_Z 96
_cell_length_a 31.820874
_cell_length_b 31.820874
_cell_length_c 8.084494
_cell_angle_alpha 90.000000
_cell_angle_beta 90.000000
_cell_angle_gamma 120.000000
_cell_volume 7089.370644
_symmetry_space_group_name_H-M "P 6/M M M"
_symmetry_group_IT_number 191
_symmetry_cell_setting 'hexagonal'
loop_
_space_group_symop_operation_xyz
x,y,z
x-y,x,z
-y,x-y,z
-x,-y,z
-x+y,-x,z
y,-x+y,z
x-y,-y,-z
-x,-x+y,-z
y,x,-z
-y,-x,-z
-x+y,y,-z
x,x-y,-z
-x,-y,-z
-x+y,-x,-z
y,-x+y,-z
x,y,-z
x-y,x,-z
-y,x-y,-z
-x+y,y,z
x,x-y,z
-y,-x,z
y,x,z
x-y,-y,z
-x,-x+y,z
loop_
_atom_site_type_symbol
_atom_site_label
_atom_site_fract_x
_atom_site_fract_y
_atom_site_fract_z
Si Si1 0.945504 0.792036 0.500000
Si Si2 0.944039 0.382867 0.802826
Si Si3 0.055779 0.527890 0.697068
Si Si4 0.089369 0.811806 0.186136
Si Si5 0.707920 0.650911 0.696201
O O1 0.902300 0.804599 0.500000
O O2 0.938069 0.759780 0.664286
O O3 0.000000 0.836450 0.500000
O O4 0.921826 0.416628 0.753168
O O5 0.923405 0.328844 0.735574
O O6 0.000000 0.411923 0.738471
O O7 0.945130 0.380928 0.000000
O O8 0.053688 0.526844 0.500000
O O9 0.000000 0.500000 0.765248
O O10 0.144885 0.855116 0.197971
O O11 0.083545 0.759352 0.214460
O O12 0.071980 0.813829 0.000000
O O13 0.715891 0.656762 0.500000
O O14 0.680601 0.680601 0.747068
#
# Coordination Sequence:
#
# PCOD9587111 Si02
#       5
#    12  24  12  24  24
#     4  10  20  34  50  69  90 111 135 163 199 243
#     4   9  16  24  34  49  69  95 127 163 201 237
#     4   9  15  23  33  45  65  93 125 163 203 237
#     4  10  20  32  46  64  86 111 137 167 204 246
#     4  10  18  27  40  58  78 101 131 166 202 240
#
# _framework density 13.541399
#
# number of rings (size 3 to 8) (size 9 to 14) (size 15 to 20)
#    0.000    2.375    1.250    2.625    0.000    7.500 
#    0.000    0.000    0.000    0.125    0.000    0.000 
#    0.000    0.000    0.000    6.250    0.000    0.000 
#
# Total GULP energy -534537.317101 kJ/mol
# GULP energy per Si atom -5568.097053 kJ/mol
# Density = 1.351058 g / cm^3
# Si number density = 13.541399 Si / 1000 Ang^3
#
#
#
# Elastic Constant Matrix: (Units=GPa)
#
#
# Indices 1 2 3 4 5 6 
#
# 1 62.5576 27.7313 24.9601 0.0000 0.0000 0.0000
# 2 27.7313 62.5576 24.9601 0.0000 0.0000 0.0000
# 3 24.9601 24.9601 72.0924 0.0000 0.0000 0.0000
# 4 0.0000 0.0000 0.0000 12.0147 0.0000 0.0000
# 5 0.0000 0.0000 0.0000 0.0000 12.0147 0.0000
# 6 0.0000 0.0000 0.0000 0.0000 0.0000 17.4132
#
#
#
# Elastic Compliance Matrix: (Units=1/GPa)
#
#
# Indices 1 2 3 4 5 6 
#
# 1 0.021206 -0.007508 -0.004742 0.000000 0.000000 0.000000
# 2 -0.007508 0.021206 -0.004742 0.000000 0.000000 0.000000
# 3 -0.004742 -0.004742 0.017155 0.000000 0.000000 0.000000
# 4 0.000000 0.000000 0.000000 0.083231 0.000000 0.000000
# 5 0.000000 0.000000 0.000000 0.000000 0.083231 0.000000
# 6 0.000000 0.000000 0.000000 0.000000 0.000000 0.057428
#
#
# Mechanical properties :
#
#
# Convention : Reuss Voigt Hill
#
# Bulk Modulus (GPa) = 39.09237 39.16788 39.13013
# Shear Modulus (GPa) = 15.33886 16.25893 15.79890
#
# Velocity S-wave (km/s) = 3.36927 3.46885 3.41942
# Velocity P-wave (km/s) = 6.63833 6.71053 6.67453
#
# Compressibility (1/GPa) = 0.02558044
#
# Stress axis : x y z
#
# Youngs Moduli (GPa) = 47.15696 47.15696 58.29210
#
# Poissons Ratio (x) = 0.35406 0.27645
# Poissons Ratio (y) = 0.35406 0.27645
# Poissons Ratio (z) = 0.22364 0.22364
#
# Static dielectric constant tensor:
#      x y z
#    x 1.447780 0.000000 0.000000 
#    y 0.000000 1.447780 0.000000 
#    z 0.000000 0.000000 1.471050 
# 
# From -- ./inp_files/1569.got.cif
#   From: 2010.05.17/outbox.cif.g08.bks.cpg/sg191_1_cif.got.tgz:1569.got - 2010.05.20 12:20:32.
