data_PCOD9587183
_publ_section_title
;
Structure prediction by ZEFSAII (Michael W. Deem and Ramdas Pophale) SiO2 
 PCOD9587183
Probable space group: P 6/M M M
;
_chemical_formula_sum "Si O2"
_cell_formula_units_Z 108
_cell_length_a 31.147926
_cell_length_b 31.147926
_cell_length_c 9.028347
_cell_angle_alpha 90.000000
_cell_angle_beta 90.000000
_cell_angle_gamma 120.000000
_cell_volume 7585.725844
_symmetry_space_group_name_H-M "P 6/M M M"
_symmetry_group_IT_number 191
_symmetry_cell_setting 'hexagonal'
loop_
_space_group_symop_operation_xyz
x,y,z
x-y,x,z
-y,x-y,z
-x,-y,z
-x+y,-x,z
y,-x+y,z
x-y,-y,-z
-x,-x+y,-z
y,x,-z
-y,-x,-z
-x+y,y,-z
x,x-y,-z
-x,-y,-z
-x+y,-x,-z
y,-x+y,-z
x,y,-z
x-y,x,-z
-y,x-y,-z
-x+y,y,z
x,x-y,z
-y,-x,z
y,x,z
x-y,-y,z
-x,-x+y,z
loop_
_atom_site_type_symbol
_atom_site_label
_atom_site_fract_x
_atom_site_fract_y
_atom_site_fract_z
Si Si1 0.469927 0.939853 0.170102
Si Si2 0.000000 0.272484 0.167594
Si Si3 0.833773 0.166228 0.179814
Si Si4 0.000000 0.816169 0.323809
Si Si5 0.889048 0.110953 0.680752
Si Si6 0.720838 0.621996 0.173121
Si Si7 0.058359 0.618043 0.676751
O O1 0.418941 0.925382 0.252258
O O2 0.500000 0.000000 0.170883
O O3 0.461653 0.923305 0.000000
O O4 0.047874 0.325829 0.183762
O O5 0.000000 0.233871 0.281759
O O6 0.000000 0.254215 0.000000
O O7 0.861144 0.138857 0.252649
O O8 0.860147 0.224076 0.220688
O O9 0.837131 0.162870 0.000000
O O10 0.053243 0.860569 0.271308
O O11 0.000000 0.821618 0.500000
O O12 0.887015 0.112986 0.500000
O O13 0.673696 0.582780 0.264480
O O14 0.714092 0.607204 0.000000
O O15 0.060355 0.616314 0.500000
O O16 0.000000 0.596163 0.718533
#
# Coordination Sequence:
#
# PCOD9587183 Si02
#       7
#    12  12  12  12  12  24  24
#     4   9  17  29  45  63  85 113 146 183 218 249
#     4  10  18  28  46  65  84 111 145 182 219 265
#     4  10  20  32  46  64  87 115 148 185 222 266
#     4  10  20  32  46  63  83 107 136 176 226 279
#     4  10  20  32  46  63  84 108 136 175 225 280
#     4  10  19  30  43  62  87 116 148 182 221 264
#     4  10  19  29  43  63  87 115 148 184 218 253
#
# _framework density 14.237266999999999
#
# number of rings (size 3 to 8) (size 9 to 14) (size 15 to 20)
#    0.000    2.111    3.333    1.000    0.000    4.000 
#    0.000    0.000    0.000    0.222    0.000    1.556 
#    0.000    0.000    0.000    2.667    0.000   13.111 
#
# Total GULP energy -601867.702472 kJ/mol
# GULP energy per Si atom -5572.849097 kJ/mol
# Density = 1.420486 g / cm^3
# Si number density = 14.237267 Si / 1000 Ang^3
#
#
#
# Elastic Constant Matrix: (Units=GPa)
#
#
# Indices 1 2 3 4 5 6 
#
# 1 97.1707 56.0478 36.5239 0.0000 0.0000 0.0000
# 2 56.0478 97.1707 36.5239 0.0000 0.0000 0.0000
# 3 36.5239 36.5239 34.2015 0.0000 0.0000 0.0000
# 4 0.0000 0.0000 0.0000 18.1847 0.0000 0.0000
# 5 0.0000 0.0000 0.0000 0.0000 18.1847 0.0000
# 6 0.0000 0.0000 0.0000 0.0000 0.0000 20.5614
#
#
#
# Elastic Compliance Matrix: (Units=1/GPa)
#
#
# Indices 1 2 3 4 5 6 
#
# 1 0.018807 -0.005511 -0.014199 0.000000 0.000000 0.000000
# 2 -0.005511 0.018807 -0.014199 0.000000 0.000000 0.000000
# 3 -0.014199 -0.014199 0.059565 0.000000 0.000000 0.000000
# 4 0.000000 0.000000 0.000000 0.054991 0.000000 0.000000
# 5 0.000000 0.000000 0.000000 0.000000 0.054991 0.000000
# 6 0.000000 0.000000 0.000000 0.000000 0.000000 0.048635
#
#
# Mechanical properties :
#
#
# Convention : Reuss Voigt Hill
#
# Bulk Modulus (GPa) = 34.05866 54.08158 44.07012
# Shear Modulus (GPa) = 14.99703 18.01597 16.50650
#
# Velocity S-wave (km/s) = 3.24908 3.56112 3.40867
# Velocity P-wave (km/s) = 6.16843 7.41466 6.82007
#
# Compressibility (1/GPa) = 0.02936111
#
# Stress axis : x y z
#
# Youngs Moduli (GPa) = 53.17252 53.17252 16.78850
#
# Poissons Ratio (x) = 0.29302 0.23838
# Poissons Ratio (y) = 0.29302 0.23838
# Poissons Ratio (z) = 0.75499 0.75499
#
# Static dielectric constant tensor:
#      x y z
#    x 1.460000 0.000000 0.000000 
#    y 0.000000 1.460000 0.000000 
#    z 0.000000 0.000000 1.488640 
# 
# From -- ./inp_files/1799.got.cif
#   From: 2010.05.17/outbox.cif.g08.bks.cpg/sg191_1_cif.got.tgz:1799.got - 2010.05.20 12:20:32.
