data_PCOD9587498
_publ_section_title
;
Structure prediction by ZEFSAII (Michael W. Deem and Ramdas Pophale) SiO2 
 PCOD9587498
Probable space group: P 6/M M M
;
_chemical_formula_sum "Si O2"
_cell_formula_units_Z 132
_cell_length_a 23.459589
_cell_length_b 23.459589
_cell_length_c 15.381581
_cell_angle_alpha 90.000000
_cell_angle_beta 90.000000
_cell_angle_gamma 120.000000
_cell_volume 7331.155089
_symmetry_space_group_name_H-M "P 6/M M M"
_symmetry_group_IT_number 191
_symmetry_cell_setting 'hexagonal'
loop_
_space_group_symop_operation_xyz
x,y,z
x-y,x,z
-y,x-y,z
-x,-y,z
-x+y,-x,z
y,-x+y,z
x-y,-y,-z
-x,-x+y,-z
y,x,-z
-y,-x,-z
-x+y,y,-z
x,x-y,-z
-x,-y,-z
-x+y,-x,-z
y,-x+y,-z
x,y,-z
x-y,x,-z
-y,x-y,-z
-x+y,y,z
x,x-y,z
-y,-x,z
y,x,z
x-y,-y,z
-x,-x+y,z
loop_
_atom_site_type_symbol
_atom_site_label
_atom_site_fract_x
_atom_site_fract_y
_atom_site_fract_z
Si Si1 0.334302 0.794908 0.895840
Si Si2 0.629200 0.000000 0.905790
Si Si3 0.389895 0.257860 0.847359
Si Si4 0.921111 0.701952 0.500000
Si Si5 0.666527 0.456067 0.604604
Si Si6 0.400412 0.291151 0.343365
Si Si7 0.568195 0.568195 0.278143
O O1 0.406236 0.812472 0.866556
O O2 0.281924 0.718077 0.882680
O O3 0.304335 0.835148 0.851285
O O4 0.336268 0.806853 0.000000
O O5 0.700725 0.064145 0.896904
O O6 0.585888 0.000000 0.824213
O O7 0.600261 0.000000 0.000000
O O8 0.374421 0.187211 0.881985
O O9 0.371016 0.253492 0.746755
O O10 0.858679 0.717357 0.500000
O O11 0.910948 0.654429 0.417411
O O12 0.000000 0.760421 0.500000
O O13 0.662856 0.456903 0.500000
O O14 0.713724 0.427448 0.629065
O O15 0.592928 0.407073 0.637925
O O16 0.704180 0.531338 0.632591
O O17 0.427387 0.367926 0.323022
O O18 0.500000 0.500000 0.288951
#
# Coordination Sequence:
#
# PCOD9587498 Si02
#       7
#    24  12  24  12  24  24  12
#     4   9  17  30  49  72  98 132 179 236 295 351
#     4  10  22  37  55  79 106 142 192 242 295 359
#     4  10  21  36  54  76 106 142 179 227 286 345
#     4  12  24  42  68  95 120 148 186 230 274 333
#     4  10  19  30  45  66  95 135 184 237 288 334
#     4  11  21  38  56  81 109 146 191 232 284 334
#     4  10  22  38  56  80 117 153 194 246 292 343
#
# _framework density 18.005348000000001
#
# number of rings (size 3 to 8) (size 9 to 14) (size 15 to 20)
#    0.000    1.818    1.818    3.091    0.000    6.364 
#    0.000    0.455    0.000    2.273    0.000    0.000 
#    0.000    0.000    0.000    0.273    0.000    1.182 
#
# Total GULP energy -735857.248182 kJ/mol
# GULP energy per Si atom -5574.676123 kJ/mol
# Density = 1.796437 g / cm^3
# Si number density = 18.005348 Si / 1000 Ang^3
#
#
#
# Elastic Constant Matrix: (Units=GPa)
#
#
# Indices 1 2 3 4 5 6 
#
# 1 90.2828 50.9464 19.6308 0.0000 0.0000 0.0000
# 2 50.9464 90.2828 19.6308 0.0000 0.0000 0.0000
# 3 19.6308 19.6308 76.1222 0.0000 0.0000 0.0000
# 4 0.0000 0.0000 0.0000 -3.3390 0.0000 0.0000
# 5 0.0000 0.0000 0.0000 0.0000 -3.3390 0.0000
# 6 0.0000 0.0000 0.0000 0.0000 0.0000 19.6682
#
#
#
# Elastic Compliance Matrix: (Units=1/GPa)
#
#
# Indices 1 2 3 4 5 6 
#
# 1 0.016525 -0.008897 -0.001967 0.000000 0.000000 0.000000
# 2 -0.008897 0.016525 -0.001967 0.000000 0.000000 0.000000
# 3 -0.001967 -0.001967 0.014151 0.000000 0.000000 0.000000
# 4 0.000000 0.000000 0.000000 -0.299487 0.000000 0.000000
# 5 0.000000 0.000000 0.000000 0.000000 -0.299487 0.000000
# 6 0.000000 0.000000 0.000000 0.000000 0.000000 0.050843
#
#
# Mechanical properties :
#
#
# Convention : Reuss Voigt Hill
#
# Bulk Modulus (GPa) = 46.42902 48.56707 47.49804
# Shear Modulus (GPa) = -10.68174 13.69667 1.50747
#
# Velocity S-wave (km/s) = -2.43832 2.76107 0.91600
# Velocity P-wave (km/s) = 4.23261 6.09893 5.24938
#
# Compressibility (1/GPa) = 0.02153826
#
# Stress axis : x y z
#
# Youngs Moduli (GPa) = 60.51571 60.51571 70.66481
#
# Poissons Ratio (x) = 0.53842 0.13900
# Poissons Ratio (y) = 0.53842 0.13900
# Poissons Ratio (z) = 0.11904 0.11904
#
# Static dielectric constant tensor:
#      x y z
#    x 1.659070 0.000000 0.000000 
#    y 0.000000 1.659070 0.000000 
#    z 0.000000 0.000000 1.664180 
# 
# From -- ./inp_files/4990.got.cif
#   From: 2010.05.17/outbox.cif.g08.bks.cpg/sg191_3_cif.got.tgz:4990.got - 2010.05.20 12:20:32.
