data_PCOD9587033
_publ_section_title
;
Structure prediction by ZEFSAII (Michael W. Deem and Ramdas Pophale) SiO2 
 PCOD9587033
Probable space group: P 6/M M M
;
_chemical_formula_sum "Si O2"
_cell_formula_units_Z 168
_cell_length_a 26.252323
_cell_length_b 26.252323
_cell_length_c 19.414337
_cell_angle_alpha 90.000000
_cell_angle_beta 90.000000
_cell_angle_gamma 120.000000
_cell_volume 11587.471360
_symmetry_space_group_name_H-M "P 6/M M M"
_symmetry_group_IT_number 191
_symmetry_cell_setting 'hexagonal'
loop_
_space_group_symop_operation_xyz
x,y,z
x-y,x,z
-y,x-y,z
-x,-y,z
-x+y,-x,z
y,-x+y,z
x-y,-y,-z
-x,-x+y,-z
y,x,-z
-y,-x,-z
-x+y,y,-z
x,x-y,-z
-x,-y,-z
-x+y,-x,-z
y,-x+y,-z
x,y,-z
x-y,x,-z
-y,x-y,-z
-x+y,y,z
x,x-y,z
-y,-x,z
y,x,z
x-y,-y,z
-x,-x+y,z
loop_
_atom_site_type_symbol
_atom_site_label
_atom_site_fract_x
_atom_site_fract_y
_atom_site_fract_z
Si Si1 0.179733 0.696607 0.576198
Si Si2 0.292353 0.361037 0.919318
Si Si3 0.065965 0.317950 0.723042
Si Si4 0.844723 0.568389 0.804296
Si Si5 0.234344 0.888589 0.576445
Si Si6 0.665605 0.453365 0.716335
Si Si7 0.817306 0.066586 0.148033
O O1 0.174040 0.669987 0.500000
O O2 0.241654 0.758347 0.576859
O O3 0.130496 0.715889 0.583041
O O4 0.183047 0.661741 0.641563
O O5 0.339926 0.339926 0.906343
O O6 0.299899 0.413860 0.871139
O O7 0.229824 0.304961 0.896967
O O8 0.292446 0.372930 0.000000
O O9 0.115874 0.382014 0.747923
O O10 0.074130 0.311835 0.642610
O O11 0.072259 0.272590 0.773294
O O12 0.000000 0.305140 0.736101
O O13 0.786924 0.573847 0.818376
O O14 0.822677 0.504739 0.771959
O O15 0.239968 0.914493 0.500000
O O16 0.172120 0.827881 0.579044
O O17 0.721612 0.443224 0.713875
O O18 0.606377 0.393624 0.731662
O O19 0.882651 0.117350 0.133033
O O20 0.802205 0.000000 0.137155
#
# Coordination Sequence:
#
# PCOD9587033 Si02
#       7
#    24  24  24  24  24  24  24
#     4   8  14  25  41  60  81 107 140 176 215 256
#     4   9  17  29  47  72  97 115 134 168 212 252
#     4  10  17  25  40  61  85 110 141 178 214 256
#     4  10  18  29  46  65  87 116 145 170 203 255
#     4   9  15  24  39  57  79 109 143 176 210 252
#     4  10  19  30  45  65  88 112 142 181 221 258
#     4   9  17  27  41  62  89 119 146 176 214 253
#
# _framework density 14.498417
#
# number of rings (size 3 to 8) (size 9 to 14) (size 15 to 20)
#    0.000    2.714    1.429    4.857    0.000    1.714 
#    0.000    0.000    0.000    3.143    0.000    1.000 
#    0.000    3.429    0.000    3.571    0.000    0.000 
#
# Total GULP energy -935275.562269 kJ/mol
# GULP energy per Si atom -5567.116442 kJ/mol
# Density = 1.446542 g / cm^3
# Si number density = 14.498417 Si / 1000 Ang^3
#
#
#
# Elastic Constant Matrix: (Units=GPa)
#
#
# Indices 1 2 3 4 5 6 
#
# 1 59.8056 25.7940 30.5763 0.0000 0.0000 0.0000
# 2 25.7940 59.8056 30.5763 0.0000 0.0000 0.0000
# 3 30.5763 30.5763 111.6196 0.0000 0.0000 0.0000
# 4 0.0000 0.0000 0.0000 16.0774 0.0000 0.0000
# 5 0.0000 0.0000 0.0000 0.0000 16.0774 0.0000
# 6 0.0000 0.0000 0.0000 0.0000 0.0000 17.0058
#
#
#
# Elastic Compliance Matrix: (Units=1/GPa)
#
#
# Indices 1 2 3 4 5 6 
#
# 1 0.021963 -0.007438 -0.003979 0.000000 0.000000 0.000000
# 2 -0.007438 0.021963 -0.003979 0.000000 0.000000 0.000000
# 3 -0.003979 -0.003979 0.011139 0.000000 0.000000 0.000000
# 4 0.000000 0.000000 0.000000 0.062199 0.000000 0.000000
# 5 0.000000 0.000000 0.000000 0.000000 0.062199 0.000000
# 6 0.000000 0.000000 0.000000 0.000000 0.000000 0.058803
#
#
# Mechanical properties :
#
#
# Convention : Reuss Voigt Hill
#
# Bulk Modulus (GPa) = 41.19777 45.01376 43.10576
# Shear Modulus (GPa) = 18.04074 19.45106 18.74590
#
# Velocity S-wave (km/s) = 3.53133 3.66676 3.59968
# Velocity P-wave (km/s) = 6.71596 7.00297 6.86096
#
# Compressibility (1/GPa) = 0.02427316
#
# Stress axis : x y z
#
# Youngs Moduli (GPa) = 45.53060 45.53060 89.77577
#
# Poissons Ratio (x) = 0.33868 0.35720
# Poissons Ratio (y) = 0.33868 0.35720
# Poissons Ratio (z) = 0.18116 0.18116
#
# Static dielectric constant tensor:
#      x y z
#    x 1.468290 0.000000 0.000000 
#    y 0.000000 1.468290 0.000000 
#    z 0.000000 0.000000 1.510060 
# 
# From -- ./inp_files/7995.got.cif
#   From: 2010.05.17/outbox.cif.g08.bks.cpg/sg191_4_cif.got.tgz:7995.got - 2010.05.20 12:20:32.
