data_PCOD9587379
_publ_section_title
;
Structure prediction by ZEFSAII (Michael W. Deem and Ramdas Pophale) SiO2 
 PCOD9587379
Probable space group: P 6/M M M
;
_chemical_formula_sum "Si O2"
_cell_formula_units_Z 84
_cell_length_a 18.095713
_cell_length_b 18.095713
_cell_length_c 18.523934
_cell_angle_alpha 90.000000
_cell_angle_beta 90.000000
_cell_angle_gamma 120.000000
_cell_volume 5253.095013
_symmetry_space_group_name_H-M "P 6/M M M"
_symmetry_group_IT_number 191
_symmetry_cell_setting 'hexagonal'
loop_
_space_group_symop_operation_xyz
x,y,z
x-y,x,z
-y,x-y,z
-x,-y,z
-x+y,-x,z
y,-x+y,z
x-y,-y,-z
-x,-x+y,-z
y,x,-z
-y,-x,-z
-x+y,y,-z
x,x-y,-z
-x,-y,-z
-x+y,-x,-z
y,-x+y,-z
x,y,-z
x-y,x,-z
-y,x-y,-z
-x+y,y,z
x,x-y,z
-y,-x,z
y,x,z
x-y,-y,z
-x,-x+y,z
loop_
_atom_site_type_symbol
_atom_site_label
_atom_site_fract_x
_atom_site_fract_y
_atom_site_fract_z
Si Si1 0.460497 0.099830 0.078590
Si Si2 0.495287 0.330791 0.234946
Si Si3 0.902866 0.269505 0.364468
Si Si4 0.667507 0.159400 0.500000
O O1 0.552122 0.104244 0.077058
O O2 0.461755 0.144712 0.152738
O O3 0.390703 0.000000 0.083365
O O4 0.451013 0.132490 0.000000
O O5 0.526949 0.263475 0.250131
O O6 0.573096 0.426905 0.242912
O O7 0.420034 0.308773 0.291070
O O8 0.830030 0.169971 0.367081
O O9 0.882254 0.315196 0.429994
O O10 0.000000 0.291618 0.369718
O O11 0.740900 0.259101 0.500000
O O12 0.574566 0.149132 0.500000
#
# Coordination Sequence:
#
# PCOD9587379 Si02
#       4
#    24  24  24  12
#     4   8  14  25  40  56  75 105 149 197 237 269
#     4  10  19  29  42  62  90 123 157 191 226 265
#     4  10  21  35  51  71  93 119 151 189 233 277
#     4  10  20  33  50  73 102 134 165 194 222 253
#
# _framework density 15.990572999999999
#
# number of rings (size 3 to 8) (size 9 to 14) (size 15 to 20)
#    0.000    2.571    0.000    3.429    0.000    4.571 
#    0.000    2.857    0.000    2.000    0.000    0.000 
#    0.000    3.429    0.000    0.000    0.000    0.000 
#
# Total GULP energy -468015.237157 kJ/mol
# GULP energy per Si atom -5571.609966 kJ/mol
# Density = 1.595418 g / cm^3
# Si number density = 15.990573 Si / 1000 Ang^3
#
#
#
# Elastic Constant Matrix: (Units=GPa)
#
#
# Indices 1 2 3 4 5 6 
#
# 1 76.2456 57.9640 34.8115 0.0000 0.0000 0.0000
# 2 57.9640 76.2456 34.8115 0.0000 0.0000 0.0000
# 3 34.8115 34.8115 106.3595 0.0000 0.0000 0.0000
# 4 0.0000 0.0000 0.0000 18.7785 0.0000 0.0000
# 5 0.0000 0.0000 0.0000 0.0000 18.7785 0.0000
# 6 0.0000 0.0000 0.0000 0.0000 0.0000 9.1408
#
#
#
# Elastic Compliance Matrix: (Units=1/GPa)
#
#
# Indices 1 2 3 4 5 6 
#
# 1 0.031837 -0.022862 -0.002937 0.000000 0.000000 0.000000
# 2 -0.022862 0.031837 -0.002937 0.000000 0.000000 0.000000
# 3 -0.002937 -0.002937 0.011325 0.000000 0.000000 0.000000
# 4 0.000000 0.000000 0.000000 0.053252 0.000000 0.000000
# 5 0.000000 0.000000 0.000000 0.000000 0.053252 0.000000
# 6 0.000000 0.000000 0.000000 0.000000 0.000000 0.109399
#
#
# Mechanical properties :
#
#
# Convention : Reuss Voigt Hill
#
# Bulk Modulus (GPa) = 57.06199 57.11384 57.08791
# Shear Modulus (GPa) = 14.11551 18.09046 16.10299
#
# Velocity S-wave (km/s) = 2.97432 3.36716 3.17682
# Velocity P-wave (km/s) = 6.89620 7.13525 7.01674
#
# Compressibility (1/GPa) = 0.01752480
#
# Stress axis : x y z
#
# Youngs Moduli (GPa) = 31.40969 31.40969 88.30054
#
# Poissons Ratio (x) = 0.71810 0.25938
# Poissons Ratio (y) = 0.71810 0.25938
# Poissons Ratio (z) = 0.09227 0.09227
#
# Static dielectric constant tensor:
#      x y z
#    x 1.522310 0.000000 0.000000 
#    y 0.000000 1.522310 0.000000 
#    z 0.000000 0.000000 1.573410 
# 
# From -- ./inp_files/6987.got.cif
#   From: 2010.05.17/outbox.cif.g08.bks.cpg/sg191_4_cif.got.tgz:6987.got - 2010.05.20 12:20:32.
