data_PCOD9587372
_publ_section_title
;
Structure prediction by ZEFSAII (Michael W. Deem and Ramdas Pophale) SiO2 
 PCOD9587372
Probable space group: P 6/M M M
;
_chemical_formula_sum "Si O2"
_cell_formula_units_Z 132
_cell_length_a 18.397589
_cell_length_b 18.397589
_cell_length_c 30.425697
_cell_angle_alpha 90.000000
_cell_angle_beta 90.000000
_cell_angle_gamma 120.000000
_cell_volume 8918.524152
_symmetry_space_group_name_H-M "P 6/M M M"
_symmetry_group_IT_number 191
_symmetry_cell_setting 'hexagonal'
loop_
_space_group_symop_operation_xyz
x,y,z
x-y,x,z
-y,x-y,z
-x,-y,z
-x+y,-x,z
y,-x+y,z
x-y,-y,-z
-x,-x+y,-z
y,x,-z
-y,-x,-z
-x+y,y,-z
x,x-y,-z
-x,-y,-z
-x+y,-x,-z
y,-x+y,-z
x,y,-z
x-y,x,-z
-y,x-y,-z
-x+y,y,z
x,x-y,z
-y,-x,z
y,x,z
x-y,-y,z
-x,-x+y,z
loop_
_atom_site_type_symbol
_atom_site_label
_atom_site_fract_x
_atom_site_fract_y
_atom_site_fract_z
Si Si1 0.495064 0.333030 0.105960
Si Si2 0.666114 0.502459 0.209254
Si Si3 0.539088 0.902129 0.548036
Si Si4 0.904895 0.264957 0.283116
Si Si5 0.588359 0.588359 0.949503
Si Si6 0.502524 0.833564 0.642386
O O1 0.491687 0.245843 0.096801
O O2 0.588995 0.411006 0.098144
O O3 0.477898 0.336183 0.157862
O O4 0.431824 0.348107 0.076548
O O5 0.738920 0.477840 0.213984
O O6 0.576380 0.423621 0.221534
O O7 0.693408 0.581801 0.240284
O O8 0.548550 0.870794 0.500000
O O9 0.449869 0.899738 0.547002
O O10 0.535371 0.854459 0.592302
O O11 0.608897 0.000000 0.551902
O O12 0.832477 0.167524 0.283932
O O13 0.887363 0.309634 0.324256
O O14 0.000000 0.285544 0.283905
O O15 0.500000 0.500000 0.949416
O O16 0.612633 0.612633 0.000000
O O17 0.424957 0.849913 0.647663
O O18 0.473269 0.736635 0.651511
#
# Coordination Sequence:
#
# PCOD9587372 Si02
#       6
#    24  24  24  24  12  24
#     4   9  17  29  45  64  87 118 154 190 224 262
#     4   9  17  28  44  66  92 121 152 183 213 248
#     4   8  14  25  40  55  72 101 146 196 236 264
#     4  10  21  34  48  67  89 114 143 177 219 265
#     4   9  18  30  42  60  86 114 147 189 232 266
#     4  10  19  29  41  60  88 121 154 186 219 257
#
# _framework density 14.800654
#
# number of rings (size 3 to 8) (size 9 to 14) (size 15 to 20)
#    0.000    2.818    0.000    2.182    1.273    4.364 
#    0.000    1.818    0.000    2.364    0.000    0.000 
#    0.000    0.000    0.000    0.273    0.000    1.182 
#
# Total GULP energy -735372.573842 kJ/mol
# GULP energy per Si atom -5571.004347 kJ/mol
# Density = 1.476697 g / cm^3
# Si number density = 14.800654 Si / 1000 Ang^3
#
#
#
# Elastic Constant Matrix: (Units=GPa)
#
#
# Indices 1 2 3 4 5 6 
#
# 1 69.7611 48.2263 44.4378 0.0000 0.0000 0.0000
# 2 48.2263 69.7611 44.4378 0.0000 0.0000 0.0000
# 3 44.4378 44.4378 77.8376 0.0000 0.0000 0.0000
# 4 0.0000 0.0000 0.0000 17.4642 0.0000 0.0000
# 5 0.0000 0.0000 0.0000 0.0000 17.4642 0.0000
# 6 0.0000 0.0000 0.0000 0.0000 0.0000 10.7674
#
#
#
# Elastic Compliance Matrix: (Units=1/GPa)
#
#
# Indices 1 2 3 4 5 6 
#
# 1 0.030653 -0.015783 -0.008490 0.000000 0.000000 0.000000
# 2 -0.015783 0.030653 -0.008490 0.000000 0.000000 0.000000
# 3 -0.008490 -0.008490 0.022541 0.000000 0.000000 0.000000
# 4 0.000000 0.000000 0.000000 0.057260 0.000000 0.000000
# 5 0.000000 0.000000 0.000000 0.000000 0.057260 0.000000
# 6 0.000000 0.000000 0.000000 0.000000 0.000000 0.092873
#
#
# Mechanical properties :
#
#
# Convention : Reuss Voigt Hill
#
# Bulk Modulus (GPa) = 54.57556 54.61817 54.59686
# Shear Modulus (GPa) = 13.77895 14.48968 14.13432
#
# Velocity S-wave (km/s) = 3.05449 3.13227 3.09363
# Velocity P-wave (km/s) = 7.02806 7.07560 7.05187
#
# Compressibility (1/GPa) = 0.01832322
#
# Stress axis : x y z
#
# Youngs Moduli (GPa) = 32.62287 32.62287 44.36422
#
# Poissons Ratio (x) = 0.51489 0.37663
# Poissons Ratio (y) = 0.51489 0.37663
# Poissons Ratio (z) = 0.27695 0.27695
#
# Static dielectric constant tensor:
#      x y z
#    x 1.474380 0.000000 0.000000 
#    y 0.000000 1.474380 0.000000 
#    z 0.000000 0.000000 1.518000 
# 
# From -- ./inp_files/10488.got.cif
#   From: 2010.05.17/outbox.cif.g08.bks.cpg/sg191_6_cif.got.tgz:10488.got - 2010.05.20 12:20:32.
