data_PCOD9587679
_publ_section_title
;
Structure prediction by ZEFSAII (Michael W. Deem and Ramdas Pophale) SiO2 
 PCOD9587679
Probable space group: P 6/M M M
;
_chemical_formula_sum "Si O2"
_cell_formula_units_Z 120
_cell_length_a 17.859038
_cell_length_b 17.859038
_cell_length_c 27.652576
_cell_angle_alpha 90.000000
_cell_angle_beta 90.000000
_cell_angle_gamma 120.000000
_cell_volume 7638.047397
_symmetry_space_group_name_H-M "P 6/M M M"
_symmetry_group_IT_number 191
_symmetry_cell_setting 'hexagonal'
loop_
_space_group_symop_operation_xyz
x,y,z
x-y,x,z
-y,x-y,z
-x,-y,z
-x+y,-x,z
y,-x+y,z
x-y,-y,-z
-x,-x+y,-z
y,x,-z
-y,-x,-z
-x+y,y,-z
x,x-y,-z
-x,-y,-z
-x+y,-x,-z
y,-x+y,-z
x,y,-z
x-y,x,-z
-y,x-y,-z
-x+y,y,z
x,x-y,z
-y,-x,z
y,x,z
x-y,-y,z
-x,-x+y,z
loop_
_atom_site_type_symbol
_atom_site_label
_atom_site_fract_x
_atom_site_fract_y
_atom_site_fract_z
Si Si1 0.533275 0.895859 0.145416
Si Si2 0.665951 0.149117 0.500000
Si Si3 0.264329 0.364535 0.054047
Si Si4 0.000000 0.409578 0.319191
Si Si5 0.159692 0.489650 0.748052
Si Si6 0.352018 0.000000 0.572002
Si Si7 0.173299 0.173299 0.558394
O O1 0.432961 0.865922 0.139369
O O2 0.568504 0.874025 0.097708
O O3 0.544151 0.861221 0.196758
O O4 0.584595 0.000000 0.149322
O O5 0.757607 0.242394 0.500000
O O6 0.580535 0.161070 0.500000
O O7 0.659418 0.086256 0.544755
O O8 0.162297 0.324593 0.056202
O O9 0.295652 0.295652 0.059628
O O10 0.292832 0.403794 0.000000
O O11 0.916314 0.345176 0.288153
O O12 0.000000 0.377577 0.372766
O O13 0.000000 0.500000 0.322232
O O14 0.250049 0.500099 0.732944
O O15 0.163240 0.581620 0.748153
O O16 0.261667 0.000000 0.569608
O O17 0.087410 0.174820 0.575306
O O18 0.168603 0.168603 0.500000
#
# Coordination Sequence:
#
# PCOD9587679 Si02
#       7
#    24  12  24  12  24  12  12
#     4   9  16  28  46  67  92 121 156 195 239 290
#     4  11  22  37  56  80 108 139 172 207 248 294
#     4   9  17  28  43  65  93 124 158 196 241 291
#     4  10  21  37  52  71  99 132 165 204 250 287
#     4  10  19  32  50  71  95 125 163 205 248 291
#     4  11  21  36  58  78 104 136 176 209 243 295
#     4  10  19  33  54  82 111 136 163 199 242 288
#
# _framework density 15.710822
#
# number of rings (size 3 to 8) (size 9 to 14) (size 15 to 20)
#    0.000    2.200    2.000    2.800    0.000    2.400 
#    0.000    2.000    0.000    3.000    0.000    1.400 
#    0.000    0.000    0.000    0.000    0.000    0.000 
#
# Total GULP energy -668161.643469 kJ/mol
# GULP energy per Si atom -5568.013696 kJ/mol
# Density = 1.567506 g / cm^3
# Si number density = 15.710822 Si / 1000 Ang^3
#
#
#
# Elastic Constant Matrix: (Units=GPa)
#
#
# Indices 1 2 3 4 5 6 
#
# 1 92.1470 45.1380 53.2602 0.0000 0.0000 0.0000
# 2 45.1380 92.1470 53.2602 0.0000 0.0000 0.0000
# 3 53.2602 53.2602 130.3430 0.0000 0.0000 0.0000
# 4 0.0000 0.0000 0.0000 12.3859 0.0000 0.0000
# 5 0.0000 0.0000 0.0000 0.0000 12.3859 0.0000
# 6 0.0000 0.0000 0.0000 0.0000 0.0000 23.5045
#
#
#
# Elastic Compliance Matrix: (Units=1/GPa)
#
#
# Indices 1 2 3 4 5 6 
#
# 1 0.015969 -0.005303 -0.004358 0.000000 0.000000 0.000000
# 2 -0.005303 0.015969 -0.004358 0.000000 0.000000 0.000000
# 3 -0.004358 -0.004358 0.011234 0.000000 0.000000 0.000000
# 4 0.000000 0.000000 0.000000 0.080737 0.000000 0.000000
# 5 0.000000 0.000000 0.000000 0.000000 0.080737 0.000000
# 6 0.000000 0.000000 0.000000 0.000000 0.000000 0.042545
#
#
# Mechanical properties :
#
#
# Convention : Reuss Voigt Hill
#
# Bulk Modulus (GPa) = 66.08354 68.66154 67.37254
# Shear Modulus (GPa) = 17.83964 20.52048 19.18006
#
# Velocity S-wave (km/s) = 3.37337 3.61797 3.49781
# Velocity P-wave (km/s) = 7.57143 7.82631 7.69993
#
# Compressibility (1/GPa) = 0.01513236
#
# Stress axis : x y z
#
# Youngs Moduli (GPa) = 62.62098 62.62098 89.01795
#
# Poissons Ratio (x) = 0.33211 0.38795
# Poissons Ratio (y) = 0.33211 0.38795
# Poissons Ratio (z) = 0.27291 0.27291
#
# Static dielectric constant tensor:
#      x y z
#    x 1.518300 0.000000 0.000000 
#    y 0.000000 1.518300 0.000000 
#    z 0.000000 0.000000 1.528040 
# 
# From -- ./inp_files/9682.got.cif
#   From: 2010.05.17/outbox.cif.g08.bks.cpg/sg191_5_cif.got.tgz:9682.got - 2010.05.20 12:20:32.
