data_PCOD9587039
_publ_section_title
;
Structure prediction by ZEFSAII (Michael W. Deem and Ramdas Pophale) SiO2 
 PCOD9587039
Probable space group: P 6/M M M
;
_chemical_formula_sum "Si O2"
_cell_formula_units_Z 96
_cell_length_a 28.974610
_cell_length_b 28.974610
_cell_length_c 7.480396
_cell_angle_alpha 90.000000
_cell_angle_beta 90.000000
_cell_angle_gamma 120.000000
_cell_volume 5438.641335
_symmetry_space_group_name_H-M "P 6/M M M"
_symmetry_group_IT_number 191
_symmetry_cell_setting 'hexagonal'
loop_
_space_group_symop_operation_xyz
x,y,z
x-y,x,z
-y,x-y,z
-x,-y,z
-x+y,-x,z
y,-x+y,z
x-y,-y,-z
-x,-x+y,-z
y,x,-z
-y,-x,-z
-x+y,y,-z
x,x-y,-z
-x,-y,-z
-x+y,-x,-z
y,-x+y,-z
x,y,-z
x-y,x,-z
-y,x-y,-z
-x+y,y,z
x,x-y,z
-y,-x,z
y,x,z
x-y,-y,z
-x,-x+y,z
loop_
_atom_site_type_symbol
_atom_site_label
_atom_site_fract_x
_atom_site_fract_y
_atom_site_fract_z
Si Si1 0.407660 0.107148 0.786890
Si Si2 0.880747 0.761494 0.218401
Si Si3 0.306620 0.000000 0.781532
Si Si4 0.060266 0.582032 0.285995
Si Si5 0.364339 0.182170 0.781012
Si Si6 0.800368 0.800368 0.217582
O O1 0.459943 0.102808 0.755204
O O2 0.396458 0.152978 0.720818
O O3 0.358628 0.052177 0.717463
O O4 0.402285 0.107278 0.000000
O O5 0.849271 0.698541 0.272365
O O6 0.849093 0.791816 0.275292
O O7 0.880280 0.760559 0.000000
O O8 0.253357 0.000000 0.730646
O O9 0.307473 0.000000 0.000000
O O10 0.057067 0.578489 0.500000
O O11 0.072713 0.536357 0.222179
O O12 0.000000 0.563921 0.220076
O O13 0.362842 0.181421 0.000000
O O14 0.802497 0.802497 0.000000
#
# Coordination Sequence:
#
# PCOD9587039 Si02
#       6
#    24  12  12  24  12  12
#     4  10  17  26  41  63  87 110 138 174 212 250
#     4   9  14  20  30  46  71 102 135 171 214 260
#     4   9  14  20  34  56  80 106 133 166 206 245
#     4   9  18  31  44  59  83 115 145 170 199 237
#     4   9  16  24  37  59  86 109 130 169 220 258
#     4   9  14  20  30  45  70 102 136 172 212 257
#
# _framework density 17.651468999999999
#
# number of rings (size 3 to 8) (size 9 to 14) (size 15 to 20)
#    0.000    2.750    3.750    0.750    0.000    0.500 
#    0.000    1.875    0.000    0.250    0.000    1.750 
#    1.250    0.000    0.750    0.000    1.000    0.000 
#
# Total GULP energy -534916.337006 kJ/mol
# GULP energy per Si atom -5572.045177 kJ/mol
# Density = 1.761129 g / cm^3
# Si number density = 17.651469 Si / 1000 Ang^3
#
#
#
# Elastic Constant Matrix: (Units=GPa)
#
#
# Indices 1 2 3 4 5 6 
#
# 1 142.7361 85.7529 3.1384 0.0000 0.0000 0.0000
# 2 85.7529 142.7361 3.1384 0.0000 0.0000 0.0000
# 3 3.1384 3.1384 47.7646 0.0000 0.0000 0.0000
# 4 0.0000 0.0000 0.0000 184.7912 0.0000 0.0000
# 5 0.0000 0.0000 0.0000 0.0000 184.7912 0.0000
# 6 0.0000 0.0000 0.0000 0.0000 0.0000 28.4916
#
#
#
# Elastic Compliance Matrix: (Units=1/GPa)
#
#
# Indices 1 2 3 4 5 6 
#
# 1 0.010967 -0.006582 -0.000288 0.000000 0.000000 0.000000
# 2 -0.006582 0.010967 -0.000288 0.000000 0.000000 0.000000
# 3 -0.000288 -0.000288 0.020974 0.000000 0.000000 0.000000
# 4 0.000000 0.000000 0.000000 0.005412 0.000000 0.000000
# 5 0.000000 0.000000 0.000000 0.000000 0.005412 0.000000
# 6 0.000000 0.000000 0.000000 0.000000 0.000000 0.035098
#
#
# Mechanical properties :
#
#
# Convention : Reuss Voigt Hill
#
# Bulk Modulus (GPa) = 34.97665 57.47735 46.22700
# Shear Modulus (GPa) = 44.37525 95.69528 70.03527
#
# Velocity S-wave (km/s) = 5.01939 7.37099 6.30578
# Velocity P-wave (km/s) = 7.31099 10.25061 8.90296
#
# Compressibility (1/GPa) = 0.02859051
#
# Stress axis : x y z
#
# Youngs Moduli (GPa) = 91.18473 91.18473 47.67840
#
# Poissons Ratio (x) = 0.60020 0.01374
# Poissons Ratio (y) = 0.60020 0.01374
# Poissons Ratio (z) = 0.02627 0.02627
#
# Static dielectric constant tensor:
#      x y z
#    x 1.612940 0.000000 0.000000 
#    y 0.000000 1.612940 0.000000 
#    z 0.000000 0.000000 1.690270 
# 
# From -- ./inp_files/1639.got.cif
#   From: 2010.05.17/outbox.cif.g08.bks.cpg/sg191_1_cif.got.tgz:1639.got - 2010.05.20 12:20:32.
