data_PCOD9587825
_publ_section_title
;
Structure prediction by ZEFSAII (Michael W. Deem and Ramdas Pophale) SiO2 
 PCOD9587825
Probable space group: P 6/M M M
;
_chemical_formula_sum "Si O2"
_cell_formula_units_Z 132
_cell_length_a 17.842441
_cell_length_b 17.842441
_cell_length_c 28.892396
_cell_angle_alpha 90.000000
_cell_angle_beta 90.000000
_cell_angle_gamma 120.000000
_cell_volume 7965.677675
_symmetry_space_group_name_H-M "P 6/M M M"
_symmetry_group_IT_number 191
_symmetry_cell_setting 'hexagonal'
loop_
_space_group_symop_operation_xyz
x,y,z
x-y,x,z
-y,x-y,z
-x,-y,z
-x+y,-x,z
y,-x+y,z
x-y,-y,-z
-x,-x+y,-z
y,x,-z
-y,-x,-z
-x+y,y,-z
x,x-y,-z
-x,-y,-z
-x+y,-x,-z
y,-x+y,-z
x,y,-z
x-y,x,-z
-y,x-y,-z
-x+y,y,z
x,x-y,z
-y,-x,z
y,x,z
x-y,-y,z
-x,-x+y,z
loop_
_atom_site_type_symbol
_atom_site_label
_atom_site_fract_x
_atom_site_fract_y
_atom_site_fract_z
Si Si1 0.842903 0.332508 0.590370
Si Si2 0.510471 0.843200 0.229191
Si Si3 0.727134 0.628608 0.500000
Si Si4 0.631696 0.732056 0.858863
Si Si5 0.362195 0.467065 0.948270
Si Si6 0.371000 0.098378 0.680541
O O1 0.853519 0.426760 0.590186
O O2 0.741617 0.258384 0.590379
O O3 0.884291 0.315164 0.545132
O O4 0.884194 0.315646 0.635800
O O5 0.426487 0.852973 0.230621
O O6 0.484720 0.742360 0.228918
O O7 0.566970 0.885409 0.183334
O O8 0.570616 0.884999 0.273941
O O9 0.705212 0.705212 0.500000
O O10 0.828230 0.656460 0.500000
O O11 0.666291 0.833146 0.851457
O O12 0.703729 0.703729 0.861173
O O13 0.576475 0.702500 0.906199
O O14 0.432340 0.567661 0.940003
O O15 0.417337 0.417337 0.949085
O O16 0.325147 0.458126 0.000000
O O17 0.343270 0.171635 0.680196
O O18 0.294253 0.000000 0.680120
#
# Coordination Sequence:
#
# PCOD9587825 Si02
#       6
#    24  24  12  24  24  24
#     4  10  20  33  50  73 102 134 165 196 232 277
#     4  10  20  33  50  73 101 130 157 186 224 273
#     4  10  21  35  51  72  97 127 162 202 247 289
#     4  10  20  32  47  68  93 122 157 198 241 281
#     4   8  14  26  45  68  92 117 146 181 222 271
#     4  10  21  35  51  72  97 127 162 201 243 282
#
# _framework density 16.571095
#
# number of rings (size 3 to 8) (size 9 to 14) (size 15 to 20)
#    0.000    2.364    0.000    3.364    0.000    5.091 
#    0.000    2.727    0.000    0.818    0.000    0.000 
#    0.000    8.727    0.000    4.545    0.000    1.091 
#
# Total GULP energy -736371.142271 kJ/mol
# GULP energy per Si atom -5578.569260 kJ/mol
# Density = 1.653338 g / cm^3
# Si number density = 16.571095 Si / 1000 Ang^3
#
#
#
# Elastic Constant Matrix: (Units=GPa)
#
#
# Indices 1 2 3 4 5 6 
#
# 1 97.7021 82.7594 43.8556 0.0000 0.0000 0.0000
# 2 82.7594 97.7021 43.8556 0.0000 0.0000 0.0000
# 3 43.8556 43.8556 125.7422 0.0000 0.0000 0.0000
# 4 0.0000 0.0000 0.0000 77.7612 0.0000 0.0000
# 5 0.0000 0.0000 0.0000 0.0000 77.7612 0.0000
# 6 0.0000 0.0000 0.0000 0.0000 0.0000 7.4714
#
#
#
# Elastic Compliance Matrix: (Units=1/GPa)
#
#
# Indices 1 2 3 4 5 6 
#
# 1 0.036797 -0.030125 -0.002327 0.000000 0.000000 0.000000
# 2 -0.030125 0.036797 -0.002327 0.000000 0.000000 0.000000
# 3 -0.002327 -0.002327 0.009576 0.000000 0.000000 0.000000
# 4 0.000000 0.000000 0.000000 0.012860 0.000000 0.000000
# 5 0.000000 0.000000 0.000000 0.000000 0.012860 0.000000
# 6 0.000000 0.000000 0.000000 0.000000 0.000000 0.133844
#
#
# Mechanical properties :
#
#
# Convention : Reuss Voigt Hill
#
# Bulk Modulus (GPa) = 73.46304 73.56528 73.51416
# Shear Modulus (GPa) = 15.78131 42.64380 29.21255
#
# Velocity S-wave (km/s) = 3.08935 5.07836 4.20320
# Velocity P-wave (km/s) = 7.56001 8.88124 8.24712
#
# Compressibility (1/GPa) = 0.01361229
#
# Stress axis : x y z
#
# Youngs Moduli (GPa) = 27.17592 27.17592 104.42672
#
# Poissons Ratio (x) = 0.81867 0.24302
# Poissons Ratio (y) = 0.81867 0.24302
# Poissons Ratio (z) = 0.06324 0.06324
#
# Static dielectric constant tensor:
#      x y z
#    x 1.542850 0.000000 0.000000 
#    y 0.000000 1.542850 0.000000 
#    z 0.000000 0.000000 1.564710 
# 
# From -- ./inp_files/8718.got.cif
#   From: 2010.05.17/outbox.cif.g08.bks.cpg/sg191_5_cif.got.tgz:8718.got - 2010.05.20 12:20:32.
