data_PCOD9587170
_publ_section_title
;
Structure prediction by ZEFSAII (Michael W. Deem and Ramdas Pophale) SiO2 
 PCOD9587170
Probable space group: P 6/M M M
;
_chemical_formula_sum "Si O2"
_cell_formula_units_Z 78
_cell_length_a 28.011086
_cell_length_b 28.011086
_cell_length_c 7.282572
_cell_angle_alpha 90.000000
_cell_angle_beta 90.000000
_cell_angle_gamma 120.000000
_cell_volume 4948.519803
_symmetry_space_group_name_H-M "P 6/M M M"
_symmetry_group_IT_number 191
_symmetry_cell_setting 'hexagonal'
loop_
_space_group_symop_operation_xyz
x,y,z
x-y,x,z
-y,x-y,z
-x,-y,z
-x+y,-x,z
y,-x+y,z
x-y,-y,-z
-x,-x+y,-z
y,x,-z
-y,-x,-z
-x+y,y,-z
x,x-y,-z
-x,-y,-z
-x+y,-x,-z
y,-x+y,-z
x,y,-z
x-y,x,-z
-y,x-y,-z
-x+y,y,z
x,x-y,z
-y,-x,z
y,x,z
x-y,-y,z
-x,-x+y,z
loop_
_atom_site_type_symbol
_atom_site_label
_atom_site_fract_x
_atom_site_fract_y
_atom_site_fract_z
Si Si1 0.878584 0.645672 0.000000
Si Si2 0.319556 0.879142 0.720079
Si Si3 0.556910 0.223365 0.276504
Si Si4 0.377166 0.377166 0.282814
Si Si5 0.000000 0.292039 0.000000
O O1 0.873994 0.606965 0.172729
O O2 0.828680 0.657359 0.000000
O O3 0.939286 0.700300 0.000000
O O4 0.310333 0.875028 0.500000
O O5 0.330756 0.830588 0.777233
O O6 0.370435 0.940727 0.761682
O O7 0.557728 0.223877 0.500000
O O8 0.611147 0.222294 0.215965
O O9 0.557600 0.278800 0.217844
O O10 0.369124 0.369124 0.500000
O O11 0.327489 0.327489 0.174547
#
# Coordination Sequence:
#
# PCOD9587170 Si02
#       5
#    12  24  24  12   6
#     4  10  18  28  45  65  84 109 136 162 195 232
#     4   9  17  29  44  62  82 103 130 163 197 237
#     4   9  16  26  40  57  77 101 129 162 200 240
#     4   8  14  26  43  60  80 104 126 155 197 237
#     4   8  16  28  40  60  87 108 131 162 192 228
#
# _framework density 15.762288
#
# number of rings (size 3 to 8) (size 9 to 14) (size 15 to 20)
#    0.000    3.077    0.000    1.231    0.000    3.077 
#    0.000    1.538    0.000    4.615    0.000    8.615 
#    0.000    0.000    0.000    0.231    0.000    0.000 
#
# Total GULP energy -434261.436716 kJ/mol
# GULP energy per Si atom -5567.454317 kJ/mol
# Density = 1.572641 g / cm^3
# Si number density = 15.762288 Si / 1000 Ang^3
#
#
#
# Elastic Constant Matrix: (Units=GPa)
#
#
# Indices 1 2 3 4 5 6 
#
# 1 109.1669 100.2092 16.3789 0.0000 0.0000 0.0000
# 2 100.2092 109.1669 16.3789 0.0000 0.0000 0.0000
# 3 16.3789 16.3789 59.5988 0.0000 0.0000 0.0000
# 4 0.0000 0.0000 0.0000 6.5933 0.0000 0.0000
# 5 0.0000 0.0000 0.0000 0.0000 6.5933 0.0000
# 6 0.0000 0.0000 0.0000 0.0000 0.0000 4.4788
#
#
#
# Elastic Compliance Matrix: (Units=1/GPa)
#
#
# Indices 1 2 3 4 5 6 
#
# 1 0.058313 -0.053323 -0.001372 0.000000 0.000000 0.000000
# 2 -0.053323 0.058313 -0.001372 0.000000 0.000000 0.000000
# 3 -0.001372 -0.001372 0.017533 0.000000 0.000000 0.000000
# 4 0.000000 0.000000 0.000000 0.151669 0.000000 0.000000
# 5 0.000000 0.000000 0.000000 0.000000 0.151669 0.000000
# 6 0.000000 0.000000 0.000000 0.000000 0.000000 0.223272
#
#
# Mechanical properties :
#
#
# Convention : Reuss Voigt Hill
#
# Bulk Modulus (GPa) = 45.39692 60.42962 52.91327
# Shear Modulus (GPa) = 6.40826 13.19746 9.80286
#
# Velocity S-wave (km/s) = 2.01851 2.89672 2.49653
# Velocity P-wave (km/s) = 5.85628 7.04339 6.47709
#
# Compressibility (1/GPa) = 0.02202792
#
# Stress axis : x y z
#
# Youngs Moduli (GPa) = 17.14876 17.14876 57.03626
#
# Poissons Ratio (x) = 0.91442 0.07823
# Poissons Ratio (y) = 0.91442 0.07823
# Poissons Ratio (z) = 0.02352 0.02352
#
# Static dielectric constant tensor:
#      x y z
#    x 1.525720 0.000000 0.000000 
#    y 0.000000 1.525720 0.000000 
#    z 0.000000 0.000000 1.566750 
# 
# From -- ./inp_files/1100.got.cif
#   From: 2010.05.17/outbox.cif.g08.bks.cpg/sg191_1_cif.got.tgz:1100.got - 2010.05.20 12:20:32.
