data_PCOD9587050
_publ_section_title
;
Structure prediction by ZEFSAII (Michael W. Deem and Ramdas Pophale) SiO2 
 PCOD9587050
Probable space group: P 6/M M M
;
_chemical_formula_sum "Si O2"
_cell_formula_units_Z 108
_cell_length_a 31.875089
_cell_length_b 31.875089
_cell_length_c 7.998770
_cell_angle_alpha 90.000000
_cell_angle_beta 90.000000
_cell_angle_gamma 120.000000
_cell_volume 7038.119767
_symmetry_space_group_name_H-M "P 6/M M M"
_symmetry_group_IT_number 191
_symmetry_cell_setting 'hexagonal'
loop_
_space_group_symop_operation_xyz
x,y,z
x-y,x,z
-y,x-y,z
-x,-y,z
-x+y,-x,z
y,-x+y,z
x-y,-y,-z
-x,-x+y,-z
y,x,-z
-y,-x,-z
-x+y,y,-z
x,x-y,-z
-x,-y,-z
-x+y,-x,-z
y,-x+y,-z
x,y,-z
x-y,x,-z
-y,x-y,-z
-x+y,y,z
x,x-y,z
-y,-x,z
y,x,z
x-y,-y,z
-x,-x+y,z
loop_
_atom_site_type_symbol
_atom_site_label
_atom_site_fract_x
_atom_site_fract_y
_atom_site_fract_z
Si Si1 0.400755 0.295540 0.199367
Si Si2 0.000000 0.250721 0.698784
Si Si3 0.104150 0.800994 0.799294
Si Si4 0.198788 0.496595 0.689568
Si Si5 0.666581 0.233379 0.000000
Si Si6 0.000000 0.347345 0.299339
O O1 0.353193 0.245889 0.260344
O O2 0.448494 0.300967 0.282920
O O3 0.390546 0.339353 0.237207
O O4 0.404842 0.291747 0.000000
O O5 0.051445 0.258513 0.755240
O O6 0.000000 0.298915 0.763716
O O7 0.000000 0.252031 0.500000
O O8 0.149417 0.850584 0.736069
O O9 0.107109 0.800808 0.000000
O O10 0.202071 0.514957 0.500000
O O11 0.242007 0.484013 0.708967
O O12 0.208131 0.535075 0.834543
O O13 0.711653 0.288348 0.000000
O O14 0.616176 0.232352 0.000000
O O15 0.000000 0.347628 0.500000
#
# Coordination Sequence:
#
# PCOD9587050 Si02
#       6
#    24  12  24  24  12  12
#     4  10  17  28  45  67  96 128 162 198 235 275
#     4   9  17  27  37  53  81 113 149 193 230 270
#     4   9  17  27  41  59  82 117 156 191 229 272
#     4  10  20  33  51  76 103 129 158 196 240 283
#     4  10  21  38  58  79 103 129 157 189 230 282
#     4   9  17  27  39  61  93 128 164 197 232 273
#
# _framework density 15.345008
#
# number of rings (size 3 to 8) (size 9 to 14) (size 15 to 20)
#    0.000    2.444    1.111    2.111    0.000    5.333 
#    0.000    0.000    0.000    1.333    0.000    1.556 
#    0.000    2.667    0.000    0.333    0.000    6.444 
#
# Total GULP energy -601782.567407 kJ/mol
# GULP energy per Si atom -5572.060809 kJ/mol
# Density = 1.531008 g / cm^3
# Si number density = 15.345008 Si / 1000 Ang^3
#
#
#
# Elastic Constant Matrix: (Units=GPa)
#
#
# Indices 1 2 3 4 5 6 
#
# 1 92.8080 50.9582 33.3216 0.0000 0.0000 0.0000
# 2 50.9582 92.8080 33.3216 0.0000 0.0000 0.0000
# 3 33.3216 33.3216 72.6897 0.0000 0.0000 0.0000
# 4 0.0000 0.0000 0.0000 13.1528 0.0000 0.0000
# 5 0.0000 0.0000 0.0000 0.0000 13.1528 0.0000
# 6 0.0000 0.0000 0.0000 0.0000 0.0000 20.9249
#
#
#
# Elastic Compliance Matrix: (Units=1/GPa)
#
#
# Indices 1 2 3 4 5 6 
#
# 1 0.016364 -0.007531 -0.004049 0.000000 0.000000 0.000000
# 2 -0.007531 0.016364 -0.004049 0.000000 0.000000 0.000000
# 3 -0.004049 -0.004049 0.017469 0.000000 0.000000 0.000000
# 4 0.000000 0.000000 0.000000 0.076029 0.000000 0.000000
# 5 0.000000 0.000000 0.000000 0.000000 0.076029 0.000000
# 6 0.000000 0.000000 0.000000 0.000000 0.000000 0.047790
#
#
# Mechanical properties :
#
#
# Convention : Reuss Voigt Hill
#
# Bulk Modulus (GPa) = 52.80188 54.83426 53.81807
# Shear Modulus (GPa) = 17.38424 18.82638 18.10531
#
# Velocity S-wave (km/s) = 3.36950 3.50647 3.43867
# Velocity P-wave (km/s) = 7.04433 7.22535 7.13541
#
# Compressibility (1/GPa) = 0.01893872
#
# Stress axis : x y z
#
# Youngs Moduli (GPa) = 61.11040 61.11040 57.24340
#
# Poissons Ratio (x) = 0.46023 0.23178
# Poissons Ratio (y) = 0.46023 0.23178
# Poissons Ratio (z) = 0.24743 0.24743
#
# Static dielectric constant tensor:
#      x y z
#    x 1.505640 0.000000 0.000000 
#    y 0.000000 1.505640 0.000000 
#    z 0.000000 0.000000 1.535440 
# 
# From -- ./inp_files/1766.got.cif
#   From: 2010.05.17/outbox.cif.g08.bks.cpg/sg191_1_cif.got.tgz:1766.got - 2010.05.20 12:20:32.
