data_PCOD9587102
_publ_section_title
;
Structure prediction by ZEFSAII (Michael W. Deem and Ramdas Pophale) SiO2 
 PCOD9587102
Probable space group: P 6/M M M
;
_chemical_formula_sum "Si O2"
_cell_formula_units_Z 120
_cell_length_a 18.443529
_cell_length_b 18.443529
_cell_length_c 25.874103
_cell_angle_alpha 90.000000
_cell_angle_beta 90.000000
_cell_angle_gamma 120.000000
_cell_volume 7622.263887
_symmetry_space_group_name_H-M "P 6/M M M"
_symmetry_group_IT_number 191
_symmetry_cell_setting 'hexagonal'
loop_
_space_group_symop_operation_xyz
x,y,z
x-y,x,z
-y,x-y,z
-x,-y,z
-x+y,-x,z
y,-x+y,z
x-y,-y,-z
-x,-x+y,-z
y,x,-z
-y,-x,-z
-x+y,y,-z
x,x-y,-z
-x,-y,-z
-x+y,-x,-z
y,-x+y,-z
x,y,-z
x-y,x,-z
-y,x-y,-z
-x+y,y,z
x,x-y,z
-y,-x,z
y,x,z
x-y,-y,z
-x,-x+y,z
loop_
_atom_site_type_symbol
_atom_site_label
_atom_site_fract_x
_atom_site_fract_y
_atom_site_fract_z
Si Si1 0.263677 0.902352 0.704953
Si Si2 0.669021 0.168663 0.500000
Si Si3 0.166121 0.498722 0.791014
Si Si4 0.367715 0.900086 0.905538
Si Si5 0.900913 0.640339 0.000000
Si Si6 0.633475 0.100298 0.609111
O O1 0.165132 0.834869 0.707077
O O2 0.306941 0.888311 0.755252
O O3 0.303702 0.879201 0.656385
O O4 0.291365 0.000000 0.700896
O O5 0.733076 0.266924 0.500000
O O6 0.573734 0.147468 0.500000
O O7 0.678970 0.132482 0.554100
O O8 0.262393 0.524786 0.781897
O O9 0.150282 0.575141 0.778975
O O10 0.144684 0.476278 0.851195
O O11 0.439587 0.879173 0.922608
O O12 0.301052 0.882417 0.949954
O O13 0.415863 0.000000 0.896174
O O14 0.838297 0.676594 0.000000
O O15 0.000000 0.707289 0.000000
O O16 0.565668 0.131335 0.616931
O O17 0.579592 0.000000 0.606442
#
# Coordination Sequence:
#
# PCOD9587102 Si02
#       6
#    24  12  24  24  12  24
#     4  10  20  33  49  68  89 114 146 185 227 270
#     4  10  18  27  39  57  84 117 151 183 213 246
#     4  10  19  30  45  67  96 127 156 184 214 250
#     4   9  17  29  46  67  90 118 151 185 221 262
#     4  10  19  31  47  66  89 117 152 192 231 271
#     4   9  17  29  45  64  86 114 147 181 218 260
#
# _framework density 15.743354
#
# number of rings (size 3 to 8) (size 9 to 14) (size 15 to 20)
#    0.000    2.400    0.000    3.300    0.000    4.400 
#    0.000    0.000    0.000    9.500    0.000    0.000 
#    0.000    0.000    0.000    6.400    0.000   20.800 
#
# Total GULP energy -668735.613939 kJ/mol
# GULP energy per Si atom -5572.796783 kJ/mol
# Density = 1.570752 g / cm^3
# Si number density = 15.743354 Si / 1000 Ang^3
#
#
#
# Elastic Constant Matrix: (Units=GPa)
#
#
# Indices 1 2 3 4 5 6 
#
# 1 66.8345 40.1745 30.9974 0.0000 0.0000 0.0000
# 2 40.1745 66.8345 30.9974 0.0000 0.0000 0.0000
# 3 30.9974 30.9974 68.4530 0.0000 0.0000 0.0000
# 4 0.0000 0.0000 0.0000 13.6928 0.0000 0.0000
# 5 0.0000 0.0000 0.0000 0.0000 13.6928 0.0000
# 6 0.0000 0.0000 0.0000 0.0000 0.0000 13.3300
#
#
#
# Elastic Compliance Matrix: (Units=1/GPa)
#
#
# Indices 1 2 3 4 5 6 
#
# 1 0.025089 -0.012420 -0.005737 0.000000 0.000000 0.000000
# 2 -0.012420 0.025089 -0.005737 0.000000 0.000000 0.000000
# 3 -0.005737 -0.005737 0.019804 0.000000 0.000000 0.000000
# 4 0.000000 0.000000 0.000000 0.073031 0.000000 0.000000
# 5 0.000000 0.000000 0.000000 0.000000 0.073031 0.000000
# 6 0.000000 0.000000 0.000000 0.000000 0.000000 0.075019
#
#
# Mechanical properties :
#
#
# Convention : Reuss Voigt Hill
#
# Bulk Modulus (GPa) = 45.05641 45.16227 45.10934
# Shear Modulus (GPa) = 14.44052 14.80665 14.62359
#
# Velocity S-wave (km/s) = 3.03189 3.07009 3.05105
# Velocity P-wave (km/s) = 6.39828 6.42776 6.41303
#
# Compressibility (1/GPa) = 0.02219440
#
# Stress axis : x y z
#
# Youngs Moduli (GPa) = 39.85821 39.85821 50.49488
#
# Poissons Ratio (x) = 0.49506 0.28967
# Poissons Ratio (y) = 0.49506 0.28967
# Poissons Ratio (z) = 0.22865 0.22865
#
# Static dielectric constant tensor:
#      x y z
#    x 1.515650 0.000000 0.000000 
#    y 0.000000 1.515650 0.000000 
#    z 0.000000 0.000000 1.538390 
# 
# From -- ./inp_files/8513.got.cif
#   From: 2010.05.17/outbox.cif.g08.bks.cpg/sg191_5_cif.got.tgz:8513.got - 2010.05.20 12:20:32.
