data_PCOD9587065
_publ_section_title
;
Structure prediction by ZEFSAII (Michael W. Deem and Ramdas Pophale) SiO2 
 PCOD9587065
Probable space group: P 6/M M M
;
_chemical_formula_sum "Si O2"
_cell_formula_units_Z 132
_cell_length_a 18.022547
_cell_length_b 18.022547
_cell_length_c 29.646598
_cell_angle_alpha 90.000000
_cell_angle_beta 90.000000
_cell_angle_gamma 120.000000
_cell_volume 8339.458076
_symmetry_space_group_name_H-M "P 6/M M M"
_symmetry_group_IT_number 191
_symmetry_cell_setting 'hexagonal'
loop_
_space_group_symop_operation_xyz
x,y,z
x-y,x,z
-y,x-y,z
-x,-y,z
-x+y,-x,z
y,-x+y,z
x-y,-y,-z
-x,-x+y,-z
y,x,-z
-y,-x,-z
-x+y,y,-z
x,x-y,-z
-x,-y,-z
-x+y,-x,-z
y,-x+y,-z
x,y,-z
x-y,x,-z
-y,x-y,-z
-x+y,y,z
x,x-y,z
-y,-x,z
y,x,z
x-y,-y,z
-x,-x+y,z
loop_
_atom_site_type_symbol
_atom_site_label
_atom_site_fract_x
_atom_site_fract_y
_atom_site_fract_z
Si Si1 0.330347 0.498379 0.356775
Si Si2 0.466270 0.102508 0.738637
Si Si3 0.509197 0.841707 0.087161
Si Si4 0.269158 0.899656 0.826896
Si Si5 0.727854 0.098601 0.000000
Si Si6 0.361211 0.897175 0.451137
O O1 0.269653 0.539305 0.356770
O O2 0.429880 0.570121 0.356578
O O3 0.316829 0.450981 0.309355
O O4 0.312955 0.448232 0.403853
O O5 0.567788 0.135575 0.744506
O O6 0.425539 0.122844 0.781243
O O7 0.419364 0.000000 0.736379
O O8 0.425795 0.851590 0.086172
O O9 0.483272 0.741636 0.087201
O O10 0.566575 0.883578 0.131489
O O11 0.569465 0.883534 0.043748
O O12 0.168373 0.831628 0.831972
O O13 0.298095 0.000000 0.825673
O O14 0.828544 0.171457 0.000000
O O15 0.704262 0.000000 0.000000
O O16 0.316296 0.869149 0.500000
O O17 0.435884 0.871767 0.451373
O O18 0.410304 0.000000 0.450178
#
# Coordination Sequence:
#
# PCOD9587065 Si02
#       6
#    24  24  24  24  12  24
#     4  10  18  26  36  52  76 103 129 158 195 240
#     4   9  17  29  45  63  82 107 140 175 209 248
#     4  10  20  33  50  73 101 131 160 190 225 266
#     4  10  20  33  49  69  92 118 149 186 227 268
#     4  10  21  35  51  72  97 127 162 200 241 281
#     4   8  14  25  39  51  63  85 121 162 199 234
#
# _framework density 15.828366000000001
#
# number of rings (size 3 to 8) (size 9 to 14) (size 15 to 20)
#    0.000    2.545    0.000    3.364    0.000    5.091 
#    0.000    0.909    0.000    7.182    0.000    0.000 
#    0.000    4.364    0.000    0.000    0.000    0.364 
#
# Total GULP energy -734824.084396 kJ/mol
# GULP energy per Si atom -5566.849124 kJ/mol
# Density = 1.579234 g / cm^3
# Si number density = 15.828366 Si / 1000 Ang^3
#
#
#
# Elastic Constant Matrix: (Units=GPa)
#
#
# Indices 1 2 3 4 5 6 
#
# 1 62.9029 42.2114 35.5075 0.0000 0.0000 0.0000
# 2 42.2114 62.9029 35.5075 0.0000 0.0000 0.0000
# 3 35.5075 35.5075 158.0458 0.0000 0.0000 0.0000
# 4 0.0000 0.0000 0.0000 32.0990 0.0000 0.0000
# 5 0.0000 0.0000 0.0000 0.0000 32.0990 0.0000
# 6 0.0000 0.0000 0.0000 0.0000 0.0000 10.3458
#
#
#
# Elastic Compliance Matrix: (Units=1/GPa)
#
#
# Indices 1 2 3 4 5 6 
#
# 1 0.029772 -0.018557 -0.002520 0.000000 0.000000 0.000000
# 2 -0.018557 0.029772 -0.002520 0.000000 0.000000 0.000000
# 3 -0.002520 -0.002520 0.007460 0.000000 0.000000 0.000000
# 4 0.000000 0.000000 0.000000 0.031154 0.000000 0.000000
# 5 0.000000 0.000000 0.000000 0.000000 0.031154 0.000000
# 6 0.000000 0.000000 0.000000 0.000000 0.000000 0.096658
#
#
# Mechanical properties :
#
#
# Convention : Reuss Voigt Hill
#
# Bulk Modulus (GPa) = 50.47468 56.70050 53.58759
# Shear Modulus (GPa) = 17.87208 26.28377 22.07792
#
# Velocity S-wave (km/s) = 3.36388 4.07940 3.73880
# Velocity P-wave (km/s) = 6.85898 7.62158 7.25031
#
# Compressibility (1/GPa) = 0.01981191
#
# Stress axis : x y z
#
# Youngs Moduli (GPa) = 33.58815 33.58815 134.05707
#
# Poissons Ratio (x) = 0.62328 0.33780
# Poissons Ratio (y) = 0.62328 0.33780
# Poissons Ratio (z) = 0.08464 0.08464
#
# Static dielectric constant tensor:
#      x y z
#    x 1.517890 0.000000 0.000000 
#    y 0.000000 1.517890 0.000000 
#    z 0.000000 0.000000 1.578120 
# 
# From -- ./inp_files/9806.got.cif
#   From: 2010.05.17/outbox.cif.g08.bks.cpg/sg191_5_cif.got.tgz:9806.got - 2010.05.20 12:20:32.
