data_PCOD9587434
_publ_section_title
;
Structure prediction by ZEFSAII (Michael W. Deem and Ramdas Pophale) SiO2 
 PCOD9587434
Probable space group: P 6/M M M
;
_chemical_formula_sum "Si O2"
_cell_formula_units_Z 168
_cell_length_a 18.390252
_cell_length_b 18.390252
_cell_length_c 35.990550
_cell_angle_alpha 90.000000
_cell_angle_beta 90.000000
_cell_angle_gamma 120.000000
_cell_volume 10541.307346
_symmetry_space_group_name_H-M "P 6/M M M"
_symmetry_group_IT_number 191
_symmetry_cell_setting 'hexagonal'
loop_
_space_group_symop_operation_xyz
x,y,z
x-y,x,z
-y,x-y,z
-x,-y,z
-x+y,-x,z
y,-x+y,z
x-y,-y,-z
-x,-x+y,-z
y,x,-z
-y,-x,-z
-x+y,y,-z
x,x-y,-z
-x,-y,-z
-x+y,-x,-z
y,-x+y,-z
x,y,-z
x-y,x,-z
-y,x-y,-z
-x+y,y,z
x,x-y,z
-y,-x,z
y,x,z
x-y,-y,z
-x,-x+y,z
loop_
_atom_site_type_symbol
_atom_site_label
_atom_site_fract_x
_atom_site_fract_y
_atom_site_fract_z
Si Si1 0.644316 0.738774 0.957152
Si Si2 0.904247 0.540168 0.816517
Si Si3 0.331260 0.497078 0.263797
Si Si4 0.503447 0.668235 0.103521
Si Si5 0.903325 0.636190 0.328258
Si Si6 0.837666 0.332768 0.395503
Si Si7 0.095815 0.738145 0.544332
O O1 0.670119 0.835060 0.951260
O O2 0.718354 0.718354 0.952127
O O3 0.571071 0.684961 0.928090
O O4 0.614537 0.717448 0.000000
O O5 0.905671 0.452836 0.817692
O O6 0.856160 0.533947 0.778677
O O7 0.863513 0.542695 0.855373
O O8 0.000000 0.613946 0.814320
O O9 0.263030 0.526059 0.270895
O O10 0.425047 0.574954 0.269311
O O11 0.308106 0.420685 0.291628
O O12 0.476242 0.738121 0.098803
O O13 0.424014 0.575987 0.100638
O O14 0.831351 0.662701 0.328802
O O15 0.882648 0.572125 0.362590
O O16 0.000000 0.709053 0.330012
O O17 0.847879 0.423940 0.391917
O O18 0.739755 0.260246 0.394354
O O19 0.876611 0.319700 0.433321
O O20 0.099600 0.728506 0.500000
O O21 0.165947 0.834054 0.553945
O O22 0.000000 0.710063 0.554040
#
# Coordination Sequence:
#
# PCOD9587434 Si02
#       7
#    24  24  24  24  24  24  24
#     4   9  18  32  49  68  89 114 144 179 221 268
#     4   9  17  28  42  60  83 115 156 198 233 264
#     4  10  19  30  45  66  94 127 160 191 224 265
#     4  10  19  30  44  63  89 121 156 192 228 265
#     4  10  21  35  51  71  94 121 152 189 233 277
#     4  10  20  33  49  70  97 128 160 192 226 265
#     4   9  18  32  49  69  93 122 156 194 237 282
#
# _framework density 15.937302000000001
#
# number of rings (size 3 to 8) (size 9 to 14) (size 15 to 20)
#    0.000    2.429    0.000    2.571    0.000    4.000 
#    0.000    4.286    0.000    2.143    0.000    2.000 
#    0.000    3.429    0.000    0.143    0.000   29.714 
#
# Total GULP energy -936323.354485 kJ/mol
# GULP energy per Si atom -5573.353301 kJ/mol
# Density = 1.590103 g / cm^3
# Si number density = 15.937302 Si / 1000 Ang^3
#
#
#
# Elastic Constant Matrix: (Units=GPa)
#
#
# Indices 1 2 3 4 5 6 
#
# 1 82.7579 65.6517 36.5548 0.0000 0.0000 0.0000
# 2 65.6517 82.7579 36.5548 0.0000 0.0000 0.0000
# 3 36.5548 36.5548 62.9065 0.0000 0.0000 0.0000
# 4 0.0000 0.0000 0.0000 20.4248 0.0000 0.0000
# 5 0.0000 0.0000 0.0000 0.0000 20.4248 0.0000
# 6 0.0000 0.0000 0.0000 0.0000 0.0000 8.5531
#
#
#
# Elastic Compliance Matrix: (Units=1/GPa)
#
#
# Indices 1 2 3 4 5 6 
#
# 1 0.033949 -0.024509 -0.005486 0.000000 0.000000 0.000000
# 2 -0.024509 0.033949 -0.005486 0.000000 0.000000 0.000000
# 3 -0.005486 -0.005486 0.022272 0.000000 0.000000 0.000000
# 4 0.000000 0.000000 0.000000 0.048960 0.000000 0.000000
# 5 0.000000 0.000000 0.000000 0.000000 0.048960 0.000000
# 6 0.000000 0.000000 0.000000 0.000000 0.000000 0.116917
#
#
# Mechanical properties :
#
#
# Convention : Reuss Voigt Hill
#
# Bulk Modulus (GPa) = 52.05658 56.21607 54.13632
# Shear Modulus (GPa) = 13.07625 15.85796 14.46710
#
# Velocity S-wave (km/s) = 2.86751 3.15782 3.01616
# Velocity P-wave (km/s) = 6.61043 6.97464 6.79497
#
# Compressibility (1/GPa) = 0.01920987
#
# Stress axis : x y z
#
# Youngs Moduli (GPa) = 29.45553 29.45553 44.89891
#
# Poissons Ratio (x) = 0.72192 0.24631
# Poissons Ratio (y) = 0.72192 0.24631
# Poissons Ratio (z) = 0.16159 0.16159
#
# Static dielectric constant tensor:
#      x y z
#    x 1.522740 0.000000 0.000000 
#    y 0.000000 1.522740 0.000000 
#    z 0.000000 0.000000 1.552900 
# 
# From -- ./inp_files/10742.got.cif
#   From: 2010.05.17/outbox.cif.g08.bks.cpg/sg191_6_cif.got.tgz:10742.got - 2010.05.20 12:20:32.
