data_PCOD9587516
_publ_section_title
;
Structure prediction by ZEFSAII (Michael W. Deem and Ramdas Pophale) SiO2 
 PCOD9587516
Probable space group: P 6/M M M
;
_chemical_formula_sum "Si O2"
_cell_formula_units_Z 132
_cell_length_a 18.267524
_cell_length_b 18.267524
_cell_length_c 28.971732
_cell_angle_alpha 90.000000
_cell_angle_beta 90.000000
_cell_angle_gamma 120.000000
_cell_volume 8372.679442
_symmetry_space_group_name_H-M "P 6/M M M"
_symmetry_group_IT_number 191
_symmetry_cell_setting 'hexagonal'
loop_
_space_group_symop_operation_xyz
x,y,z
x-y,x,z
-y,x-y,z
-x,-y,z
-x+y,-x,z
y,-x+y,z
x-y,-y,-z
-x,-x+y,-z
y,x,-z
-y,-x,-z
-x+y,y,-z
x,x-y,-z
-x,-y,-z
-x+y,-x,-z
y,-x+y,-z
x,y,-z
x-y,x,-z
-y,x-y,-z
-x+y,y,z
x,x-y,z
-y,-x,z
y,x,z
x-y,-y,z
-x,-x+y,z
loop_
_atom_site_type_symbol
_atom_site_label
_atom_site_fract_x
_atom_site_fract_y
_atom_site_fract_z
Si Si1 0.164972 0.667716 0.922559
Si Si2 0.467408 0.366293 0.820062
Si Si3 0.735671 0.641212 0.000000
Si Si4 0.507920 0.841723 0.549518
Si Si5 0.666398 0.508186 0.651026
Si Si6 0.097709 0.735539 0.266245
O O1 0.148951 0.574476 0.932002
O O2 0.262245 0.737756 0.931290
O O3 0.143859 0.671221 0.868994
O O4 0.110658 0.692181 0.955703
O O5 0.562606 0.437395 0.806214
O O6 0.416232 0.416232 0.827278
O O7 0.419644 0.300277 0.779636
O O8 0.717467 0.717467 0.000000
O O9 0.833141 0.666281 0.000000
O O10 0.545725 0.885423 0.500000
O O11 0.412745 0.825489 0.550340
O O12 0.505975 0.752988 0.548489
O O13 0.543260 0.879644 0.599866
O O14 0.744648 0.489295 0.651103
O O15 0.577933 0.422068 0.658818
O O16 0.687294 0.576331 0.690718
O O17 0.165794 0.834207 0.270830
O O18 0.000000 0.709718 0.263838
#
# Coordination Sequence:
#
# PCOD9587516 Si02
#       6
#    24  24  12  24  24  24
#     4  10  19  30  45  67  97 131 164 193 218 245
#     4   9  17  29  46  68  93 121 152 183 213 249
#     4  10  21  35  51  70  91 117 150 190 235 281
#     4   8  12  18  30  50  78 112 148 181 208 234
#     4   9  16  25  39  61  89 120 151 180 208 240
#     4  10  20  33  48  65  85 110 142 180 223 269
#
# _framework density 15.765563
#
# number of rings (size 3 to 8) (size 9 to 14) (size 15 to 20)
#    0.000    2.727    0.000    2.455    0.000    4.727 
#    0.000    0.909    0.000    6.636    0.000    2.545 
#    0.000    0.000    0.000    5.818    0.000    0.000 
#
# Total GULP energy -735175.597844 kJ/mol
# GULP energy per Si atom -5569.512105 kJ/mol
# Density = 1.572968 g / cm^3
# Si number density = 15.765563 Si / 1000 Ang^3
#
#
#
# Elastic Constant Matrix: (Units=GPa)
#
#
# Indices 1 2 3 4 5 6 
#
# 1 61.4545 42.7718 35.8302 0.0000 0.0000 0.0000
# 2 42.7718 61.4545 35.8302 0.0000 0.0000 0.0000
# 3 35.8302 35.8302 80.7216 0.0000 0.0000 0.0000
# 4 0.0000 0.0000 0.0000 13.2620 0.0000 0.0000
# 5 0.0000 0.0000 0.0000 0.0000 13.2620 0.0000
# 6 0.0000 0.0000 0.0000 0.0000 0.0000 9.3413
#
#
#
# Elastic Compliance Matrix: (Units=1/GPa)
#
#
# Indices 1 2 3 4 5 6 
#
# 1 0.033667 -0.019858 -0.006129 0.000000 0.000000 0.000000
# 2 -0.019858 0.033667 -0.006129 0.000000 0.000000 0.000000
# 3 -0.006129 -0.006129 0.017830 0.000000 0.000000 0.000000
# 4 0.000000 0.000000 0.000000 0.075403 0.000000 0.000000
# 5 0.000000 0.000000 0.000000 0.000000 0.075403 0.000000
# 6 0.000000 0.000000 0.000000 0.000000 0.000000 0.107051
#
#
# Mechanical properties :
#
#
# Convention : Reuss Voigt Hill
#
# Bulk Modulus (GPa) = 47.77905 48.05498 47.91702
# Shear Modulus (GPa) = 12.07052 13.11963 12.59508
#
# Velocity S-wave (km/s) = 2.77000 2.88787 2.82954
# Velocity P-wave (km/s) = 6.37199 6.45499 6.41362
#
# Compressibility (1/GPa) = 0.02092967
#
# Stress axis : x y z
#
# Youngs Moduli (GPa) = 29.70255 29.70255 56.08667
#
# Poissons Ratio (x) = 0.58985 0.34377
# Poissons Ratio (y) = 0.58985 0.34377
# Poissons Ratio (z) = 0.18206 0.18206
#
# Static dielectric constant tensor:
#      x y z
#    x 1.505670 0.000000 0.000000 
#    y 0.000000 1.505670 0.000000 
#    z 0.000000 0.000000 1.571530 
# 
# From -- ./inp_files/9760.got.cif
#   From: 2010.05.17/outbox.cif.g08.bks.cpg/sg191_5_cif.got.tgz:9760.got - 2010.05.20 12:20:32.
