data_PCOD9587357
_publ_section_title
;
Structure prediction by ZEFSAII (Michael W. Deem and Ramdas Pophale) SiO2 
 PCOD9587357
Probable space group: P 6/M M M
;
_chemical_formula_sum "Si O2"
_cell_formula_units_Z 108
_cell_length_a 17.585383
_cell_length_b 17.585383
_cell_length_c 26.665030
_cell_angle_alpha 90.000000
_cell_angle_beta 90.000000
_cell_angle_gamma 120.000000
_cell_volume 7141.285093
_symmetry_space_group_name_H-M "P 6/M M M"
_symmetry_group_IT_number 191
_symmetry_cell_setting 'hexagonal'
loop_
_space_group_symop_operation_xyz
x,y,z
x-y,x,z
-y,x-y,z
-x,-y,z
-x+y,-x,z
y,-x+y,z
x-y,-y,-z
-x,-x+y,-z
y,x,-z
-y,-x,-z
-x+y,y,-z
x,x-y,-z
-x,-y,-z
-x+y,-x,-z
y,-x+y,-z
x,y,-z
x-y,x,-z
-y,x-y,-z
-x+y,y,z
x,x-y,z
-y,-x,z
y,x,z
x-y,-y,z
-x,-x+y,z
loop_
_atom_site_type_symbol
_atom_site_label
_atom_site_fract_x
_atom_site_fract_y
_atom_site_fract_z
Si Si1 0.827354 0.172647 0.243673
Si Si2 0.468832 0.105395 0.208009
Si Si3 0.636394 0.530956 0.908185
Si Si4 0.344481 0.172241 0.055184
Si Si5 0.104865 0.895136 0.553826
Si Si6 0.105731 0.211461 0.335167
Si Si7 0.788174 0.894087 0.851044
O O1 0.866530 0.276645 0.239201
O O2 0.857357 0.142644 0.292706
O O3 0.860624 0.139377 0.196098
O O4 0.567968 0.135935 0.225005
O O5 0.473433 0.134101 0.149918
O O6 0.417476 0.000000 0.207251
O O7 0.568113 0.431888 0.925584
O O8 0.581846 0.581846 0.908169
O O9 0.723978 0.590564 0.938266
O O10 0.271960 0.135980 0.098959
O O11 0.303738 0.151869 0.000000
O O12 0.129607 0.870394 0.500000
O O13 0.126600 0.873401 0.608682
O O14 0.000000 0.851182 0.553644
O O15 0.151268 0.151268 0.330111
O O16 0.847236 0.847236 0.849433
#
# Coordination Sequence:
#
# PCOD9587357 Si02
#       7
#    12  24  24  12  12  12  12
#     4  12  20  32  53  76  98 128 158 197 245 303
#     4   9  17  31  51  72  92 116 147 185 229 283
#     4   9  18  35  56  73  90 114 145 184 232 283
#     4  12  24  37  55  77  96 122 158 194 233 288
#     4   8  13  22  36  56  88 134 184 226 258 285
#     4  10  19  28  42  68 104 144 184 220 249 281
#     4  12  25  40  56  74  98 130 166 204 240 279
#
# _framework density 15.123329
#
# number of rings (size 3 to 8) (size 9 to 14) (size 15 to 20)
#    0.000    2.000    2.222    4.333    0.000    3.556 
#    1.333    2.222    0.000    0.667    0.000    0.000 
#    0.000    0.889    0.000    8.222    0.000    0.000 
#
# Total GULP energy -601735.653097 kJ/mol
# GULP energy per Si atom -5571.626418 kJ/mol
# Density = 1.508891 g / cm^3
# Si number density = 15.123329 Si / 1000 Ang^3
#
#
#
# Elastic Constant Matrix: (Units=GPa)
#
#
# Indices 1 2 3 4 5 6 
#
# 1 96.4058 16.8943 40.9604 0.0000 0.0000 0.0000
# 2 16.8943 96.4058 40.9604 0.0000 0.0000 0.0000
# 3 40.9604 40.9604 117.4639 0.0000 0.0000 0.0000
# 4 0.0000 0.0000 0.0000 15.8931 0.0000 0.0000
# 5 0.0000 0.0000 0.0000 0.0000 15.8931 0.0000
# 6 0.0000 0.0000 0.0000 0.0000 0.0000 39.7557
#
#
#
# Elastic Compliance Matrix: (Units=1/GPa)
#
#
# Indices 1 2 3 4 5 6 
#
# 1 0.012189 -0.000388 -0.004115 0.000000 0.000000 0.000000
# 2 -0.000388 0.012189 -0.004115 0.000000 0.000000 0.000000
# 3 -0.004115 -0.004115 0.011383 0.000000 0.000000 0.000000
# 4 0.000000 0.000000 0.000000 0.062920 0.000000 0.000000
# 5 0.000000 0.000000 0.000000 0.000000 0.062920 0.000000
# 6 0.000000 0.000000 0.000000 0.000000 0.000000 0.025154
#
#
# Mechanical properties :
#
#
# Convention : Reuss Voigt Hill
#
# Bulk Modulus (GPa) = 53.97992 56.43395 55.20693
# Shear Modulus (GPa) = 23.79051 28.40574 26.09812
#
# Velocity S-wave (km/s) = 3.97054 4.33861 4.15864
# Velocity P-wave (km/s) = 7.53597 7.90537 7.72288
#
# Compressibility (1/GPa) = 0.01852541
#
# Stress axis : x y z
#
# Youngs Moduli (GPa) = 82.03959 82.03959 87.84781
#
# Poissons Ratio (x) = 0.03180 0.36152
# Poissons Ratio (y) = 0.03180 0.36152
# Poissons Ratio (z) = 0.33762 0.33762
#
# Static dielectric constant tensor:
#      x y z
#    x 1.520970 0.000000 0.000000 
#    y 0.000000 1.520970 0.000000 
#    z 0.000000 0.000000 1.521810 
# 
# From -- ./inp_files/8490.got.cif
#   From: 2010.05.17/outbox.cif.g08.bks.cpg/sg191_5_cif.got.tgz:8490.got - 2010.05.20 12:20:32.
