data_PCOD9587362
_publ_section_title
;
Structure prediction by ZEFSAII (Michael W. Deem and Ramdas Pophale) SiO2 
 PCOD9587362
Probable space group: P 6/M M M
;
_chemical_formula_sum "Si O2"
_cell_formula_units_Z 96
_cell_length_a 29.657478
_cell_length_b 29.657478
_cell_length_c 7.449449
_cell_angle_alpha 90.000000
_cell_angle_beta 90.000000
_cell_angle_gamma 120.000000
_cell_volume 5674.442724
_symmetry_space_group_name_H-M "P 6/M M M"
_symmetry_group_IT_number 191
_symmetry_cell_setting 'hexagonal'
loop_
_space_group_symop_operation_xyz
x,y,z
x-y,x,z
-y,x-y,z
-x,-y,z
-x+y,-x,z
y,-x+y,z
x-y,-y,-z
-x,-x+y,-z
y,x,-z
-y,-x,-z
-x+y,y,-z
x,x-y,-z
-x,-y,-z
-x+y,-x,-z
y,-x+y,-z
x,y,-z
x-y,x,-z
-y,x-y,-z
-x+y,y,z
x,x-y,z
-y,-x,z
y,x,z
x-y,-y,z
-x,-x+y,z
loop_
_atom_site_type_symbol
_atom_site_label
_atom_site_fract_x
_atom_site_fract_y
_atom_site_fract_z
Si Si1 0.937246 0.517139 0.785570
Si Si2 0.895967 0.690041 0.713720
Si Si3 0.896346 0.896346 0.719121
Si Si4 0.207750 0.207750 0.719838
Si Si5 0.059820 0.383295 0.784266
O O1 0.918354 0.459177 0.713646
O O2 0.920569 0.557989 0.717445
O O3 0.000000 0.548932 0.763396
O O4 0.927382 0.511488 0.000000
O O5 0.895902 0.697078 0.500000
O O6 0.842469 0.684937 0.784043
O O7 0.947762 0.741111 0.782419
O O8 0.904382 0.641238 0.742407
O O9 0.896228 0.948114 0.777197
O O10 0.896647 0.896647 0.500000
O O11 0.844340 0.844340 0.773992
O O12 0.208954 0.208954 0.500000
O O13 0.000000 0.345387 0.720075
O O14 0.056728 0.384937 0.000000
#
# Coordination Sequence:
#
# PCOD9587362 Si02
#       5
#    24  24  12  12  24
#     4   7  10  18  34  56  79 101 125 151 176 208
#     4  10  19  29  41  56  74 102 138 170 204 244
#     4   9  15  22  33  49  67  84 105 142 196 253
#     4   9  16  27  39  50  66  92 126 161 194 239
#     4   9  16  26  41  60  80 102 129 160 196 234
#
# _framework density 16.917960000000001
#
# number of rings (size 3 to 8) (size 9 to 14) (size 15 to 20)
#    0.000    3.250    1.250    3.125    0.000    4.000 
#    0.000    0.000    0.000    0.750    0.000    3.500 
#    0.000    0.000    0.000    0.750    0.000   20.375 
#
# Total GULP energy -534716.488736 kJ/mol
# GULP energy per Si atom -5569.963424 kJ/mol
# Density = 1.687945 g / cm^3
# Si number density = 16.917960 Si / 1000 Ang^3
#
#
#
# Elastic Constant Matrix: (Units=GPa)
#
#
# Indices 1 2 3 4 5 6 
#
# 1 130.0637 102.2777 4.5680 0.0000 0.0000 0.0000
# 2 102.2777 130.0637 4.5680 0.0000 0.0000 0.0000
# 3 4.5680 4.5680 49.6205 0.0000 0.0000 0.0000
# 4 0.0000 0.0000 0.0000 18.2170 0.0000 0.0000
# 5 0.0000 0.0000 0.0000 0.0000 18.2170 0.0000
# 6 0.0000 0.0000 0.0000 0.0000 0.0000 13.8930
#
#
#
# Elastic Compliance Matrix: (Units=1/GPa)
#
#
# Indices 1 2 3 4 5 6 
#
# 1 0.020155 -0.015835 -0.000398 0.000000 0.000000 0.000000
# 2 -0.015835 0.020155 -0.000398 0.000000 0.000000 0.000000
# 3 -0.000398 -0.000398 0.020226 0.000000 0.000000 0.000000
# 4 0.000000 0.000000 0.000000 0.054894 0.000000 0.000000
# 5 0.000000 0.000000 0.000000 0.000000 0.054894 0.000000
# 6 0.000000 0.000000 0.000000 0.000000 0.000000 0.071979
#
#
# Mechanical properties :
#
#
# Convention : Reuss Voigt Hill
#
# Bulk Modulus (GPa) = 36.66385 59.17503 47.91944
# Shear Modulus (GPa) = 17.56521 23.28768 20.42644
#
# Velocity S-wave (km/s) = 3.22570 3.71415 3.47851
# Velocity P-wave (km/s) = 5.96591 7.31073 6.67229
#
# Compressibility (1/GPa) = 0.02727482
#
# Stress axis : x y z
#
# Youngs Moduli (GPa) = 49.61659 49.61659 49.44091
#
# Poissons Ratio (x) = 0.78567 0.01966
# Poissons Ratio (y) = 0.78567 0.01966
# Poissons Ratio (z) = 0.01973 0.01973
#
# Static dielectric constant tensor:
#      x y z
#    x 1.584190 0.000000 0.000000 
#    y 0.000000 1.584190 0.000000 
#    z 0.000000 0.000000 1.683630 
# 
# From -- ./inp_files/1608.got.cif
#   From: 2010.05.17/outbox.cif.g08.bks.cpg/sg191_1_cif.got.tgz:1608.got - 2010.05.20 12:20:32.
