data_PCOD9587802
_publ_section_title
;
Structure prediction by ZEFSAII (Michael W. Deem and Ramdas Pophale) SiO2 
 PCOD9587802
Probable space group: P 6/M M M
;
_chemical_formula_sum "Si O2"
_cell_formula_units_Z 120
_cell_length_a 18.566563
_cell_length_b 18.566563
_cell_length_c 25.592702
_cell_angle_alpha 90.000000
_cell_angle_beta 90.000000
_cell_angle_gamma 120.000000
_cell_volume 7640.289285
_symmetry_space_group_name_H-M "P 6/M M M"
_symmetry_group_IT_number 191
_symmetry_cell_setting 'hexagonal'
loop_
_space_group_symop_operation_xyz
x,y,z
x-y,x,z
-y,x-y,z
-x,-y,z
-x+y,-x,z
y,-x+y,z
x-y,-y,-z
-x,-x+y,-z
y,x,-z
-y,-x,-z
-x+y,y,-z
x,x-y,-z
-x,-y,-z
-x+y,-x,-z
y,-x+y,-z
x,y,-z
x-y,x,-z
-y,x-y,-z
-x+y,y,z
x,x-y,z
-y,-x,z
y,x,z
x-y,-y,z
-x,-x+y,z
loop_
_atom_site_type_symbol
_atom_site_label
_atom_site_fract_x
_atom_site_fract_y
_atom_site_fract_z
Si Si1 0.497453 0.163757 0.261542
Si Si2 0.902697 0.261743 0.652028
Si Si3 0.665934 0.502142 0.860136
Si Si4 0.092827 0.741878 0.939596
Si Si5 0.368271 0.899147 0.559438
O O1 0.577521 0.155042 0.274521
O O2 0.519620 0.259810 0.266794
O O3 0.419632 0.111168 0.299042
O O4 0.475704 0.140234 0.200685
O O5 0.836122 0.163879 0.656592
O O6 0.877996 0.297564 0.601584
O O7 0.000000 0.289850 0.648325
O O8 0.741590 0.483179 0.865419
O O9 0.579316 0.420685 0.872044
O O10 0.686026 0.576182 0.899581
O O11 0.163554 0.836447 0.930334
O O12 0.000000 0.723752 0.932855
O O13 0.101534 0.721643 0.000000
O O14 0.339086 0.871726 0.500000
O O15 0.435443 0.870885 0.573501
O O16 0.420888 0.000000 0.558762
#
# Coordination Sequence:
#
# PCOD9587802 Si02
#       5
#    24  24  24  24  24
#     4   9  17  29  46  68  94 122 149 177 211 254
#     4  10  20  32  46  65  89 117 150 189 231 272
#     4   9  17  29  45  66  93 124 154 180 207 244
#     4   9  18  32  48  65  86 113 145 182 225 269
#     4   8  14  26  45  68  92 116 141 170 207 254
#
# _framework density 15.706212000000001
#
# number of rings (size 3 to 8) (size 9 to 14) (size 15 to 20)
#    0.000    3.000    0.000    1.600    0.000    4.800 
#    0.000    3.000    0.000    2.000    0.000    1.400 
#    0.000    0.000    0.000   15.000    0.000    5.200 
#
# Total GULP energy -668312.082519 kJ/mol
# GULP energy per Si atom -5569.267354 kJ/mol
# Density = 1.567046 g / cm^3
# Si number density = 15.706212 Si / 1000 Ang^3
#
#
#
# Elastic Constant Matrix: (Units=GPa)
#
#
# Indices 1 2 3 4 5 6 
#
# 1 68.4275 56.3606 45.0496 0.0000 0.0000 0.0000
# 2 56.3606 68.4275 45.0496 0.0000 0.0000 0.0000
# 3 45.0496 45.0496 61.5663 0.0000 0.0000 0.0000
# 4 0.0000 0.0000 0.0000 19.2463 0.0000 0.0000
# 5 0.0000 0.0000 0.0000 0.0000 19.2463 0.0000
# 6 0.0000 0.0000 0.0000 0.0000 0.0000 6.0335
#
#
#
# Elastic Compliance Matrix: (Units=1/GPa)
#
#
# Indices 1 2 3 4 5 6 
#
# 1 0.049930 -0.032941 -0.012432 0.000000 0.000000 0.000000
# 2 -0.032941 0.049930 -0.012432 0.000000 0.000000 0.000000
# 3 -0.012432 -0.012432 0.034436 0.000000 0.000000 0.000000
# 4 0.000000 0.000000 0.000000 0.051958 0.000000 0.000000
# 5 0.000000 0.000000 0.000000 0.000000 0.051958 0.000000
# 6 0.000000 0.000000 0.000000 0.000000 0.000000 0.165743
#
#
# Mechanical properties :
#
#
# Convention : Reuss Voigt Hill
#
# Bulk Modulus (GPa) = 53.50981 54.59341 54.05161
# Shear Modulus (GPa) = 9.50946 12.36932 10.93939
#
# Velocity S-wave (km/s) = 2.46328 2.80936 2.64199
# Velocity P-wave (km/s) = 6.49873 6.73483 6.61783
#
# Compressibility (1/GPa) = 0.01868816
#
# Stress axis : x y z
#
# Youngs Moduli (GPa) = 20.02790 20.02790 29.03971
#
# Poissons Ratio (x) = 0.65974 0.36101
# Poissons Ratio (y) = 0.65974 0.36101
# Poissons Ratio (z) = 0.24898 0.24898
#
# Static dielectric constant tensor:
#      x y z
#    x 1.512100 0.000000 0.000000 
#    y 0.000000 1.512100 0.000000 
#    z 0.000000 0.000000 1.543100 
# 
# From -- ./inp_files/10282.got.cif
#   From: 2010.05.17/outbox.cif.g08.bks.cpg/sg191_6_cif.got.tgz:10282.got - 2010.05.20 12:20:32.
