data_PCOD9587813
_publ_section_title
;
Structure prediction by ZEFSAII (Michael W. Deem and Ramdas Pophale) SiO2 
 PCOD9587813
Probable space group: P 6/M M M
;
_chemical_formula_sum "Si O2"
_cell_formula_units_Z 168
_cell_length_a 21.335586
_cell_length_b 21.335586
_cell_length_c 29.648089
_cell_angle_alpha 90.000000
_cell_angle_beta 90.000000
_cell_angle_gamma 120.000000
_cell_volume 11687.900039
_symmetry_space_group_name_H-M "P 6/M M M"
_symmetry_group_IT_number 191
_symmetry_cell_setting 'hexagonal'
loop_
_space_group_symop_operation_xyz
x,y,z
x-y,x,z
-y,x-y,z
-x,-y,z
-x+y,-x,z
y,-x+y,z
x-y,-y,-z
-x,-x+y,-z
y,x,-z
-y,-x,-z
-x+y,y,-z
x,x-y,-z
-x,-y,-z
-x+y,-x,-z
y,-x+y,-z
x,y,-z
x-y,x,-z
-y,x-y,-z
-x+y,y,z
x,x-y,z
-y,-x,z
y,x,z
x-y,-y,z
-x,-x+y,z
loop_
_atom_site_type_symbol
_atom_site_label
_atom_site_fract_x
_atom_site_fract_y
_atom_site_fract_z
Si Si1 0.309020 0.227089 0.302305
Si Si2 0.186524 0.519190 0.554012
Si Si3 0.809147 0.472997 0.300928
Si Si4 0.916158 0.577683 0.767923
Si Si5 0.666781 0.184206 0.949545
Si Si6 0.915184 0.578299 0.372645
Si Si7 0.615959 0.084791 0.134823
O O1 0.290032 0.145016 0.301673
O O2 0.243309 0.243309 0.302001
O O3 0.359522 0.269899 0.259070
O O4 0.357633 0.267701 0.346558
O O5 0.179169 0.510232 0.500000
O O6 0.264789 0.529577 0.566829
O O7 0.182935 0.591468 0.565264
O O8 0.124536 0.449368 0.579738
O O9 0.747146 0.494292 0.304480
O O10 0.775643 0.387822 0.302784
O O11 0.856245 0.505350 0.255991
O O12 0.867776 0.510341 0.340328
O O13 0.902688 0.567545 0.821168
O O14 0.000000 0.598168 0.760725
O O15 0.598638 0.197276 0.947157
O O16 0.740571 0.259430 0.945024
O O17 0.656834 0.131570 0.908541
O O18 0.665003 0.154594 0.000000
O O19 0.000000 0.604342 0.374692
O O20 0.549829 0.099658 0.146442
O O21 0.577311 0.000000 0.123588
#
# Coordination Sequence:
#
# PCOD9587813 Si02
#       7
#    24  24  24  24  24  24  24
#     4   9  17  30  48  68  89 112 138 166 197 237
#     4  10  20  33  48  64  84 111 142 175 210 249
#     4  11  21  31  43  59  82 109 137 169 204 245
#     4   9  17  29  45  62  80 105 135 168 204 240
#     4   9  17  28  41  56  74  99 131 165 201 241
#     4  10  20  32  47  65  83 107 139 174 210 244
#     4   9  17  28  41  58  79 101 129 166 206 245
#
# _framework density 14.373839
#
# number of rings (size 3 to 8) (size 9 to 14) (size 15 to 20)
#    0.000    2.429    0.000    5.143    0.000    5.429 
#    0.000    3.571    0.000    1.857    0.000    0.000 
#    0.000    0.000    0.000    0.000    0.000    0.000 
#
# Total GULP energy -935738.593814 kJ/mol
# GULP energy per Si atom -5569.872582 kJ/mol
# Density = 1.434112 g / cm^3
# Si number density = 14.373839 Si / 1000 Ang^3
#
#
#
# Elastic Constant Matrix: (Units=GPa)
#
#
# Indices 1 2 3 4 5 6 
#
# 1 75.3277 40.1275 41.1448 0.0000 0.0000 0.0000
# 2 40.1275 75.3277 41.1448 0.0000 0.0000 0.0000
# 3 41.1448 41.1448 82.3254 0.0000 0.0000 0.0000
# 4 0.0000 0.0000 0.0000 12.6835 0.0000 0.0000
# 5 0.0000 0.0000 0.0000 0.0000 12.6835 0.0000
# 6 0.0000 0.0000 0.0000 0.0000 0.0000 17.6001
#
#
#
# Elastic Compliance Matrix: (Units=1/GPa)
#
#
# Indices 1 2 3 4 5 6 
#
# 1 0.020931 -0.007478 -0.006724 0.000000 0.000000 0.000000
# 2 -0.007478 0.020931 -0.006724 0.000000 0.000000 0.000000
# 3 -0.006724 -0.006724 0.018868 0.000000 0.000000 0.000000
# 4 0.000000 0.000000 0.000000 0.078843 0.000000 0.000000
# 5 0.000000 0.000000 0.000000 0.000000 0.078843 0.000000
# 6 0.000000 0.000000 0.000000 0.000000 0.000000 0.056818
#
#
# Mechanical properties :
#
#
# Convention : Reuss Voigt Hill
#
# Bulk Modulus (GPa) = 52.96701 53.09058 53.02879
# Shear Modulus (GPa) = 15.46174 15.96430 15.71302
#
# Velocity S-wave (km/s) = 3.28332 3.33626 3.30990
# Velocity P-wave (km/s) = 7.16263 7.20115 7.18191
#
# Compressibility (1/GPa) = 0.01887968
#
# Stress axis : x y z
#
# Youngs Moduli (GPa) = 47.77509 47.77509 52.99974
#
# Poissons Ratio (x) = 0.35724 0.35637
# Poissons Ratio (y) = 0.35724 0.35637
# Poissons Ratio (z) = 0.32124 0.32124
#
# Static dielectric constant tensor:
#      x y z
#    x 1.465250 0.000000 0.000000 
#    y 0.000000 1.465250 0.000000 
#    z 0.000000 0.000000 1.503230 
# 
# From -- ./inp_files/10043.got.cif
#   From: 2010.05.17/outbox.cif.g08.bks.cpg/sg191_6_cif.got.tgz:10043.got - 2010.05.20 12:20:32.
