data_PCOD9587669
_publ_section_title
;
Structure prediction by ZEFSAII (Michael W. Deem and Ramdas Pophale) SiO2 
 PCOD9587669
Probable space group: P 6/M M M
;
_chemical_formula_sum "Si O2"
_cell_formula_units_Z 180
_cell_length_a 21.603677
_cell_length_b 21.603677
_cell_length_c 28.411784
_cell_angle_alpha 90.000000
_cell_angle_beta 90.000000
_cell_angle_gamma 120.000000
_cell_volume 11483.770030
_symmetry_space_group_name_H-M "P 6/M M M"
_symmetry_group_IT_number 191
_symmetry_cell_setting 'hexagonal'
loop_
_space_group_symop_operation_xyz
x,y,z
x-y,x,z
-y,x-y,z
-x,-y,z
-x+y,-x,z
y,-x+y,z
x-y,-y,-z
-x,-x+y,-z
y,x,-z
-y,-x,-z
-x+y,y,-z
x,x-y,-z
-x,-y,-z
-x+y,-x,-z
y,-x+y,-z
x,y,-z
x-y,x,-z
-y,x-y,-z
-x+y,y,z
x,x-y,z
-y,-x,z
y,x,z
x-y,-y,z
-x,-x+y,z
loop_
_atom_site_type_symbol
_atom_site_label
_atom_site_fract_x
_atom_site_fract_y
_atom_site_fract_z
Si Si1 0.078893 0.779066 0.637421
Si Si2 0.665129 0.184811 0.500000
Si Si3 0.641767 0.083671 0.777928
Si Si4 0.810026 0.335421 0.694778
Si Si5 0.300051 0.849536 0.597404
Si Si6 0.666055 0.478992 0.864335
Si Si7 0.465167 0.080675 0.054301
Si Si8 0.779517 0.700152 0.250255
O O1 0.142274 0.857727 0.625130
O O2 0.091457 0.721290 0.610253
O O3 0.085337 0.769206 0.693502
O O4 0.000000 0.764398 0.628463
O O5 0.739436 0.260565 0.500000
O O6 0.599559 0.199118 0.500000
O O7 0.663340 0.143510 0.547534
O O8 0.641012 0.125543 0.731332
O O9 0.642571 0.130612 0.821659
O O10 0.717471 0.085796 0.775838
O O11 0.581157 0.000000 0.779406
O O12 0.781387 0.390694 0.699411
O O13 0.745676 0.254325 0.703671
O O14 0.838987 0.339223 0.642069
O O15 0.224341 0.775660 0.595133
O O16 0.742035 0.484070 0.856062
O O17 0.603495 0.396506 0.869919
O O18 0.665867 0.522915 0.910320
O O19 0.540125 0.080249 0.055447
O O20 0.405083 0.000000 0.068460
O O21 0.452671 0.092426 0.000000
O O22 0.856933 0.713866 0.237381
O O23 0.765471 0.765471 0.242191
#
# Coordination Sequence:
#
# PCOD9587669 Si02
#       8
#    24  12  24  24  24  24  24  24
#     4   9  16  29  50  72  93 118 150 186 224 268
#     4  10  19  32  49  69  92 119 154 194 237 283
#     4  11  22  34  49  67  88 119 159 202 242 282
#     4  11  21  33  48  67  93 122 153 190 237 292
#     4   9  18  31  48  68  91 120 154 191 227 269
#     4  11  22  34  48  67  95 126 157 196 245 297
#     4   8  15  30  51  71  91 119 156 195 231 271
#     4   9  16  28  47  69  92 117 148 184 223 268
#
# _framework density 15.674295000000001
#
# number of rings (size 3 to 8) (size 9 to 14) (size 15 to 20)
#    0.000    2.267    1.333    3.133    0.000    1.867 
#    0.000    3.000    0.000    2.667    0.000    1.867 
#    0.000    0.000    0.000    0.000    0.000    7.867 
#
# Total GULP energy -1003173.371944 kJ/mol
# GULP energy per Si atom -5573.185400 kJ/mol
# Density = 1.563862 g / cm^3
# Si number density = 15.674295 Si / 1000 Ang^3
#
#
#
# Elastic Constant Matrix: (Units=GPa)
#
#
# Indices 1 2 3 4 5 6 
#
# 1 73.2803 38.8578 26.6137 0.0000 0.0000 0.0000
# 2 38.8578 73.2803 26.6137 0.0000 0.0000 0.0000
# 3 26.6137 26.6137 65.3402 0.0000 0.0000 0.0000
# 4 0.0000 0.0000 0.0000 16.5692 0.0000 0.0000
# 5 0.0000 0.0000 0.0000 0.0000 16.5692 0.0000
# 6 0.0000 0.0000 0.0000 0.0000 0.0000 17.2112
#
#
#
# Elastic Compliance Matrix: (Units=1/GPa)
#
#
# Indices 1 2 3 4 5 6 
#
# 1 0.020053 -0.008998 -0.004503 0.000000 0.000000 0.000000
# 2 -0.008998 0.020053 -0.004503 0.000000 0.000000 0.000000
# 3 -0.004503 -0.004503 0.018973 0.000000 0.000000 0.000000
# 4 0.000000 0.000000 0.000000 0.060353 0.000000 0.000000
# 5 0.000000 0.000000 0.000000 0.000000 0.060353 0.000000
# 6 0.000000 0.000000 0.000000 0.000000 0.000000 0.058102
#
#
# Mechanical properties :
#
#
# Convention : Reuss Voigt Hill
#
# Bulk Modulus (GPa) = 43.34402 44.00794 43.67598
# Shear Modulus (GPa) = 17.75675 18.05762 17.90719
#
# Velocity S-wave (km/s) = 3.36945 3.39787 3.38369
# Velocity P-wave (km/s) = 6.54603 6.59784 6.57199
#
# Compressibility (1/GPa) = 0.02307123
#
# Stress axis : x y z
#
# Youngs Moduli (GPa) = 49.86828 49.86828 52.70773
#
# Poissons Ratio (x) = 0.44871 0.23733
# Poissons Ratio (y) = 0.44871 0.23733
# Poissons Ratio (z) = 0.22454 0.22454
#
# Static dielectric constant tensor:
#      x y z
#    x 1.523690 0.000000 0.000000 
#    y 0.000000 1.523690 0.000000 
#    z 0.000000 0.000000 1.535610 
# 
# From -- ./inp_files/10866.got.cif
#   From: 2010.05.17/outbox.cif.g08.bks.cpg/sg191_6_cif.got.tgz:10866.got - 2010.05.20 12:20:32.
