data_PCOD9587267
_publ_section_title
;
Structure prediction by ZEFSAII (Michael W. Deem and Ramdas Pophale) SiO2 
 PCOD9587267
Probable space group: P 6/M M M
;
_chemical_formula_sum "Si O2"
_cell_formula_units_Z 192
_cell_length_a 23.466671
_cell_length_b 23.466671
_cell_length_c 23.715813
_cell_angle_alpha 90.000000
_cell_angle_beta 90.000000
_cell_angle_gamma 120.000000
_cell_volume 11310.234728
_symmetry_space_group_name_H-M "P 6/M M M"
_symmetry_group_IT_number 191
_symmetry_cell_setting 'hexagonal'
loop_
_space_group_symop_operation_xyz
x,y,z
x-y,x,z
-y,x-y,z
-x,-y,z
-x+y,-x,z
y,-x+y,z
x-y,-y,-z
-x,-x+y,-z
y,x,-z
-y,-x,-z
-x+y,y,-z
x,x-y,-z
-x,-y,-z
-x+y,-x,-z
y,-x+y,-z
x,y,-z
x-y,x,-z
-y,x-y,-z
-x+y,y,z
x,x-y,z
-y,-x,z
y,x,z
x-y,-y,z
-x,-x+y,z
loop_
_atom_site_type_symbol
_atom_site_label
_atom_site_fract_x
_atom_site_fract_y
_atom_site_fract_z
Si Si1 0.335116 0.800473 0.618990
Si Si2 0.489211 0.311816 0.256306
Si Si3 0.737189 0.076350 0.262706
Si Si4 0.729235 0.132496 0.935704
Si Si5 0.335937 0.534134 0.132155
Si Si6 0.205354 0.280756 0.142626
Si Si7 0.924915 0.593233 0.567140
Si Si8 0.923635 0.717958 0.382889
O O1 0.396441 0.792882 0.599196
O O2 0.264795 0.735206 0.606313
O O3 0.339562 0.809253 0.686859
O O4 0.338677 0.866102 0.594169
O O5 0.477142 0.238571 0.249758
O O6 0.417254 0.301037 0.265288
O O7 0.521014 0.345636 0.197449
O O8 0.777440 0.090336 0.204935
O O9 0.781011 0.087722 0.317929
O O10 0.684567 0.000000 0.262443
O O11 0.797886 0.202115 0.936778
O O12 0.679030 0.149067 0.903705
O O13 0.746791 0.085373 0.900025
O O14 0.709832 0.110808 0.000000
O O15 0.270786 0.541572 0.129099
O O16 0.399568 0.600433 0.112436
O O17 0.130450 0.260900 0.129512
O O18 0.223056 0.223056 0.141010
O O19 0.922660 0.585031 0.500000
O O20 0.915028 0.654800 0.582631
O O21 0.000000 0.615926 0.586356
O O22 0.867880 0.735759 0.398445
O O23 0.000000 0.774545 0.389170
#
# Coordination Sequence:
#
# PCOD9587267 Si02
#       8
#    24  24  24  24  24  24  24  24
#     4  11  23  37  55  78 107 141 176 214 258 313
#     4  10  18  31  51  73 100 133 170 211 256 303
#     4  10  18  29  51  80 106 130 163 210 261 307
#     4   9  18  32  49  70  97 130 168 210 253 295
#     4  10  19  31  49  72 100 132 169 212 259 307
#     4  10  19  32  53  79 106 134 167 208 252 300
#     4  10  22  39  58  80 103 131 172 222 272 313
#     4  10  19  32  53  80 109 137 168 208 254 304
#
# _framework density 16.975774999999999
#
# number of rings (size 3 to 8) (size 9 to 14) (size 15 to 20)
#    0.000    2.000    2.500    2.125    0.000    2.000 
#    0.000    1.875    0.000    4.000    0.000    0.875 
#    0.000    3.000    0.000    6.250    0.000    0.000 
#
# Total GULP energy -1070555.561717 kJ/mol
# GULP energy per Si atom -5575.810217 kJ/mol
# Density = 1.693714 g / cm^3
# Si number density = 16.975775 Si / 1000 Ang^3
#
#
#
# Elastic Constant Matrix: (Units=GPa)
#
#
# Indices 1 2 3 4 5 6 
#
# 1 130.1905 30.9024 13.8540 0.0000 0.0000 0.0000
# 2 30.9024 130.1905 13.8540 0.0000 0.0000 0.0000
# 3 13.8540 13.8540 51.1986 0.0000 0.0000 0.0000
# 4 0.0000 0.0000 0.0000 -2.5753 0.0000 0.0000
# 5 0.0000 0.0000 0.0000 0.0000 -2.5753 0.0000
# 6 0.0000 0.0000 0.0000 0.0000 0.0000 49.6441
#
#
#
# Elastic Compliance Matrix: (Units=1/GPa)
#
#
# Indices 1 2 3 4 5 6 
#
# 1 0.008291 -0.001781 -0.001762 0.000000 0.000000 0.000000
# 2 -0.001781 0.008291 -0.001762 0.000000 0.000000 0.000000
# 3 -0.001762 -0.001762 0.020485 0.000000 0.000000 0.000000
# 4 0.000000 0.000000 0.000000 -0.388298 0.000000 0.000000
# 5 0.000000 0.000000 0.000000 0.000000 -0.388298 0.000000
# 6 0.000000 0.000000 0.000000 0.000000 0.000000 0.020143
#
#
# Mechanical properties :
#
#
# Convention : Reuss Voigt Hill
#
# Bulk Modulus (GPa) = 37.79355 47.64447 42.71901
# Shear Modulus (GPa) = -7.14329 25.76330 9.31000
#
# Velocity S-wave (km/s) = -2.05355 3.89993 2.34440
# Velocity P-wave (km/s) = 4.08519 6.95747 5.70505
#
# Compressibility (1/GPa) = 0.02645954
#
# Stress axis : x y z
#
# Youngs Moduli (GPa) = 120.61046 120.61046 48.81568
#
# Poissons Ratio (x) = 0.21475 0.08600
# Poissons Ratio (y) = 0.21475 0.08600
# Poissons Ratio (z) = 0.21248 0.21248
#
# Static dielectric constant tensor:
#      x y z
#    x 1.587660 0.000000 0.000000 
#    y 0.000000 1.587660 0.000000 
#    z 0.000000 0.000000 1.600420 
# 
# From -- ./inp_files/8092.got.cif
#   From: 2010.05.17/outbox.cif.g08.bks.cpg/sg191_5_cif.got.tgz:8092.got - 2010.05.20 12:20:32.
