data_PCOD9587536
_publ_section_title
;
Structure prediction by ZEFSAII (Michael W. Deem and Ramdas Pophale) SiO2 
 PCOD9587536
Probable space group: P 6/M M M
;
_chemical_formula_sum "Si O2"
_cell_formula_units_Z 108
_cell_length_a 17.802058
_cell_length_b 17.802058
_cell_length_c 27.499620
_cell_angle_alpha 90.000000
_cell_angle_beta 90.000000
_cell_angle_gamma 120.000000
_cell_volume 7547.406606
_symmetry_space_group_name_H-M "P 6/M M M"
_symmetry_group_IT_number 191
_symmetry_cell_setting 'hexagonal'
loop_
_space_group_symop_operation_xyz
x,y,z
x-y,x,z
-y,x-y,z
-x,-y,z
-x+y,-x,z
y,-x+y,z
x-y,-y,-z
-x,-x+y,-z
y,x,-z
-y,-x,-z
-x+y,y,-z
x,x-y,-z
-x,-y,-z
-x+y,-x,-z
y,-x+y,-z
x,y,-z
x-y,x,-z
-y,x-y,-z
-x+y,y,z
x,x-y,z
-y,-x,z
y,x,z
x-y,-y,z
-x,-x+y,z
loop_
_atom_site_type_symbol
_atom_site_label
_atom_site_fract_x
_atom_site_fract_y
_atom_site_fract_z
Si Si1 0.332594 0.844385 0.851727
Si Si2 0.590947 0.000000 0.670111
Si Si3 0.487061 0.332060 0.401796
Si Si4 0.629758 0.900931 0.944268
Si Si5 0.624522 0.899237 0.500000
Si Si6 0.591254 0.000000 0.218999
O O1 0.417910 0.835820 0.850879
O O2 0.247323 0.752678 0.842792
O O3 0.322361 0.878542 0.904276
O O4 0.344350 0.915030 0.811480
O O5 0.568946 0.914206 0.639860
O O6 0.500000 0.000000 0.671810
O O7 0.618452 0.000000 0.725539
O O8 0.498566 0.249283 0.392468
O O9 0.579992 0.420009 0.404764
O O10 0.435646 0.315320 0.452482
O O11 0.659619 0.829810 0.937950
O O12 0.704243 0.000000 0.937610
O O13 0.597646 0.892225 0.000000
O O14 0.655532 0.827766 0.500000
O O15 0.698174 0.000000 0.500000
O O16 0.500000 0.000000 0.220139
#
# Coordination Sequence:
#
# PCOD9587536 Si02
#       6
#    24  12  24  24  12  12
#     4  10  19  31  46  65  89 118 151 188 229 272
#     4   9  18  31  46  62  86 119 152 191 232 266
#     4  10  19  30  46  68  95 125 156 188 226 271
#     4   9  17  29  46  68  92 118 147 180 221 270
#     4  10  19  31  49  72  97 124 152 186 227 273
#     4   9  18  32  46  62  84 114 153 192 230 268
#
# _framework density 14.309551000000001
#
# number of rings (size 3 to 8) (size 9 to 14) (size 15 to 20)
#    0.000    2.444    2.222    0.778    0.000    1.778 
#    0.000    2.222    0.000    4.333    0.000    1.556 
#    0.000    0.000    0.000    0.000    0.000   20.222 
#
# Total GULP energy -601541.916496 kJ/mol
# GULP energy per Si atom -5569.832560 kJ/mol
# Density = 1.427698 g / cm^3
# Si number density = 14.309551 Si / 1000 Ang^3
#
#
#
# Elastic Constant Matrix: (Units=GPa)
#
#
# Indices 1 2 3 4 5 6 
#
# 1 92.8428 60.9898 58.3997 0.0000 0.0000 0.0000
# 2 60.9898 92.8428 58.3997 0.0000 0.0000 0.0000
# 3 58.3997 58.3997 121.9465 0.0000 0.0000 0.0000
# 4 0.0000 0.0000 0.0000 13.7272 0.0000 0.0000
# 5 0.0000 0.0000 0.0000 0.0000 13.7272 0.0000
# 6 0.0000 0.0000 0.0000 0.0000 0.0000 15.9265
#
#
#
# Elastic Compliance Matrix: (Units=1/GPa)
#
#
# Indices 1 2 3 4 5 6 
#
# 1 0.020804 -0.010590 -0.004892 0.000000 0.000000 0.000000
# 2 -0.010590 0.020804 -0.004892 0.000000 0.000000 0.000000
# 3 -0.004892 -0.004892 0.012886 0.000000 0.000000 0.000000
# 4 0.000000 0.000000 0.000000 0.072848 0.000000 0.000000
# 5 0.000000 0.000000 0.000000 0.000000 0.072848 0.000000
# 6 0.000000 0.000000 0.000000 0.000000 0.000000 0.062788
#
#
# Mechanical properties :
#
#
# Convention : Reuss Voigt Hill
#
# Bulk Modulus (GPa) = 72.73828 73.69008 73.21418
# Shear Modulus (GPa) = 16.21752 17.33237 16.77495
#
# Velocity S-wave (km/s) = 3.37016 3.48407 3.42759
# Velocity P-wave (km/s) = 8.12935 8.23371 8.18169
#
# Compressibility (1/GPa) = 0.01374792
#
# Stress axis : x y z
#
# Youngs Moduli (GPa) = 48.06662 48.06662 77.60574
#
# Poissons Ratio (x) = 0.50901 0.37963
# Poissons Ratio (y) = 0.50901 0.37963
# Poissons Ratio (z) = 0.23513 0.23513
#
# Static dielectric constant tensor:
#      x y z
#    x 1.454590 0.000000 0.000000 
#    y 0.000000 1.454590 0.000000 
#    z 0.000000 0.000000 1.479610 
# 
# From -- ./inp_files/8459.got.cif
#   From: 2010.05.17/outbox.cif.g08.bks.cpg/sg191_5_cif.got.tgz:8459.got - 2010.05.20 12:20:32.
