data_PCOD9587295
_publ_section_title
;
Structure prediction by ZEFSAII (Michael W. Deem and Ramdas Pophale) SiO2 
 PCOD9587295
Probable space group: P 6/M M M
;
_chemical_formula_sum "Si O2"
_cell_formula_units_Z 144
_cell_length_a 21.803696
_cell_length_b 21.803696
_cell_length_c 24.017679
_cell_angle_alpha 90.000000
_cell_angle_beta 90.000000
_cell_angle_gamma 120.000000
_cell_volume 9888.306154
_symmetry_space_group_name_H-M "P 6/M M M"
_symmetry_group_IT_number 191
_symmetry_cell_setting 'hexagonal'
loop_
_space_group_symop_operation_xyz
x,y,z
x-y,x,z
-y,x-y,z
-x,-y,z
-x+y,-x,z
y,-x+y,z
x-y,-y,-z
-x,-x+y,-z
y,x,-z
-y,-x,-z
-x+y,y,-z
x,x-y,-z
-x,-y,-z
-x+y,-x,-z
y,-x+y,-z
x,y,-z
x-y,x,-z
-y,x-y,-z
-x+y,y,z
x,x-y,z
-y,-x,z
y,x,z
x-y,-y,z
-x,-x+y,z
loop_
_atom_site_type_symbol
_atom_site_label
_atom_site_fract_x
_atom_site_fract_y
_atom_site_fract_z
Si Si1 0.776456 0.693291 0.500000
Si Si2 0.918383 0.619619 0.613171
Si Si3 0.919424 0.702008 0.277072
Si Si4 0.478508 0.665952 0.327585
Si Si5 0.081785 0.467126 0.102894
Si Si6 0.481476 0.814690 0.000000
Si Si7 0.292939 0.443153 0.211690
O O1 0.753797 0.753797 0.500000
O O2 0.859611 0.719222 0.500000
O O3 0.740891 0.645584 0.445365
O O4 0.911880 0.666762 0.662244
O O5 0.864519 0.539199 0.629673
O O6 0.000000 0.638466 0.613721
O O7 0.865068 0.730136 0.272922
O O8 0.894408 0.636920 0.234390
O O9 0.000000 0.759327 0.267987
O O10 0.470653 0.735327 0.332113
O O11 0.405137 0.594864 0.336520
O O12 0.507775 0.667601 0.265099
O O13 0.081364 0.540682 0.106949
O O14 0.111232 0.454431 0.160227
O O15 0.000000 0.407076 0.092221
O O16 0.136409 0.478912 0.053453
O O17 0.400872 0.801743 0.000000
O O18 0.480942 0.740471 0.000000
O O19 0.228271 0.456542 0.196568
#
# Coordination Sequence:
#
# PCOD9587295 Si02
#       7
#    12  24  24  24  24  12  24
#     4  10  18  30  49  70  91 115 145 181 220 262
#     4   9  18  31  47  66  86 110 143 183 221 256
#     4   9  16  27  43  63  86 110 137 170 208 249
#     4  10  19  31  46  65  90 118 147 179 218 263
#     4  10  19  30  44  63  86 110 137 171 212 254
#     4  10  20  33  47  61  80 109 144 178 209 244
#     4   9  17  29  45  64  86 111 141 176 210 249
#
# _framework density 14.562656
#
# number of rings (size 3 to 8) (size 9 to 14) (size 15 to 20)
#    0.000    2.500    0.000    4.500    0.000    2.000 
#    0.000    0.417    0.000    7.083    0.000    1.167 
#    0.000    4.000    0.000    0.000    0.000    0.333 
#
# Total GULP energy -802643.325627 kJ/mol
# GULP energy per Si atom -5573.911984 kJ/mol
# Density = 1.452951 g / cm^3
# Si number density = 14.562656 Si / 1000 Ang^3
#
#
#
# Elastic Constant Matrix: (Units=GPa)
#
#
# Indices 1 2 3 4 5 6 
#
# 1 101.1463 70.7132 43.9236 0.0000 0.0000 0.0000
# 2 70.7132 101.1463 43.9236 0.0000 0.0000 0.0000
# 3 43.9236 43.9236 87.0536 0.0000 0.0000 0.0000
# 4 0.0000 0.0000 0.0000 16.6486 0.0000 0.0000
# 5 0.0000 0.0000 0.0000 0.0000 16.6486 0.0000
# 6 0.0000 0.0000 0.0000 0.0000 0.0000 15.2165
#
#
#
# Elastic Compliance Matrix: (Units=1/GPa)
#
#
# Indices 1 2 3 4 5 6 
#
# 1 0.020350 -0.012509 -0.003956 0.000000 0.000000 0.000000
# 2 -0.012509 0.020350 -0.003956 0.000000 0.000000 0.000000
# 3 -0.003956 -0.003956 0.015479 0.000000 0.000000 0.000000
# 4 0.000000 0.000000 0.000000 0.060065 0.000000 0.000000
# 5 0.000000 0.000000 0.000000 0.000000 0.060065 0.000000
# 6 0.000000 0.000000 0.000000 0.000000 0.000000 0.065718
#
#
# Mechanical properties :
#
#
# Convention : Reuss Voigt Hill
#
# Bulk Modulus (GPa) = 65.20392 67.38521 66.29457
# Shear Modulus (GPa) = 17.36212 18.42177 17.89195
#
# Velocity S-wave (km/s) = 3.45662 3.56054 3.50897
# Velocity P-wave (km/s) = 7.79762 7.95464 7.87653
#
# Compressibility (1/GPa) = 0.01533650
#
# Stress axis : x y z
#
# Youngs Moduli (GPa) = 49.14005 49.14005 64.60177
#
# Poissons Ratio (x) = 0.61470 0.25558
# Poissons Ratio (y) = 0.61470 0.25558
# Poissons Ratio (z) = 0.19441 0.19441
#
# Static dielectric constant tensor:
#      x y z
#    x 1.470310 0.000000 0.000000 
#    y 0.000000 1.470310 0.000000 
#    z 0.000000 0.000000 1.474090 
# 
# From -- ./inp_files/8913.got.cif
#   From: 2010.05.17/outbox.cif.g08.bks.cpg/sg191_5_cif.got.tgz:8913.got - 2010.05.20 12:20:32.
