data_PCOD9587741
_publ_section_title
;
Structure prediction by ZEFSAII (Michael W. Deem and Ramdas Pophale) SiO2 
 PCOD9587741
Probable space group: P 6/M M M
;
_chemical_formula_sum "Si O2"
_cell_formula_units_Z 144
_cell_length_a 21.438692
_cell_length_b 21.438692
_cell_length_c 22.152451
_cell_angle_alpha 90.000000
_cell_angle_beta 90.000000
_cell_angle_gamma 120.000000
_cell_volume 8817.571426
_symmetry_space_group_name_H-M "P 6/M M M"
_symmetry_group_IT_number 191
_symmetry_cell_setting 'hexagonal'
loop_
_space_group_symop_operation_xyz
x,y,z
x-y,x,z
-y,x-y,z
-x,-y,z
-x+y,-x,z
y,-x+y,z
x-y,-y,-z
-x,-x+y,-z
y,x,-z
-y,-x,-z
-x+y,y,-z
x,x-y,-z
-x,-y,-z
-x+y,-x,-z
y,-x+y,-z
x,y,-z
x-y,x,-z
-y,x-y,-z
-x+y,y,z
x,x-y,z
-y,-x,z
y,x,z
x-y,-y,z
-x,-x+y,z
loop_
_atom_site_type_symbol
_atom_site_label
_atom_site_fract_x
_atom_site_fract_y
_atom_site_fract_z
Si Si1 0.913206 0.456603 0.567134
Si Si2 0.610984 0.524306 0.000000
Si Si3 0.571225 0.657105 0.653252
Si Si4 0.332923 0.818196 0.232338
Si Si5 0.917705 0.692451 0.430520
Si Si6 0.408983 0.321947 0.124813
Si Si7 0.164351 0.328701 0.073372
Si Si8 0.840876 0.920438 0.072195
O O1 0.882679 0.441340 0.500000
O O2 0.895011 0.508511 0.604828
O O3 0.000000 0.500000 0.562502
O O4 0.652535 0.548477 0.938075
O O5 0.563598 0.563598 0.000000
O O6 0.560099 0.439902 0.000000
O O7 0.607784 0.607784 0.669328
O O8 0.533000 0.670907 0.709539
O O9 0.632291 0.726891 0.618617
O O10 0.407347 0.814694 0.233422
O O11 0.261701 0.738300 0.229769
O O12 0.333030 0.867134 0.176551
O O13 0.911286 0.664536 0.500000
O O14 0.857488 0.714975 0.423501
O O15 0.000000 0.755707 0.423971
O O16 0.366272 0.366272 0.135707
O O17 0.356007 0.238574 0.109345
O O18 0.121765 0.243530 0.077814
O O19 0.173524 0.347048 0.000000
O O20 0.876993 0.876993 0.098038
O O21 0.853722 0.926861 0.000000
#
# Coordination Sequence:
#
# PCOD9587741 Si02
#       8
#    12  12  24  24  24  24  12  12
#     4   9  16  28  50  81 112 139 171 215 267 318
#     4   9  18  33  54  82 105 130 172 227 282 326
#     4  10  19  33  54  81 110 139 176 223 271 318
#     4  12  25  41  57  77 106 146 186 227 275 331
#     4   9  17  30  50  78 111 145 181 222 269 318
#     4  11  22  37  59  82 108 141 182 230 279 328
#     4  11  20  35  56  84 115 143 176 223 281 332
#     4   9  17  28  47  76 113 151 181 209 252 321
#
# _framework density 16.331028
#
# number of rings (size 3 to 8) (size 9 to 14) (size 15 to 20)
#    0.000    1.833    2.500    2.750    0.000    4.667 
#    0.000    0.000    0.000    0.167    0.000    1.167 
#    0.000    0.000    0.000    0.000    0.000    0.000 
#
# Total GULP energy -801933.393781 kJ/mol
# GULP energy per Si atom -5568.981901 kJ/mol
# Density = 1.629386 g / cm^3
# Si number density = 16.331028 Si / 1000 Ang^3
#
#
#
# Elastic Constant Matrix: (Units=GPa)
#
#
# Indices 1 2 3 4 5 6 
#
# 1 117.6790 75.5291 61.2594 0.0000 0.0000 0.0000
# 2 75.5291 117.6790 61.2594 0.0000 0.0000 0.0000
# 3 61.2594 61.2594 119.5209 0.0000 0.0000 0.0000
# 4 0.0000 0.0000 0.0000 29.5763 0.0000 0.0000
# 5 0.0000 0.0000 0.0000 0.0000 29.5763 0.0000
# 6 0.0000 0.0000 0.0000 0.0000 0.0000 21.0749
#
#
#
# Elastic Compliance Matrix: (Units=1/GPa)
#
#
# Indices 1 2 3 4 5 6 
#
# 1 0.015696 -0.008028 -0.003930 0.000000 0.000000 0.000000
# 2 -0.008028 0.015696 -0.003930 0.000000 0.000000 0.000000
# 3 -0.003930 -0.003930 0.012395 0.000000 0.000000 0.000000
# 4 0.000000 0.000000 0.000000 0.033811 0.000000 0.000000
# 5 0.000000 0.000000 0.000000 0.000000 0.033811 0.000000
# 6 0.000000 0.000000 0.000000 0.000000 0.000000 0.047450
#
#
# Mechanical properties :
#
#
# Convention : Reuss Voigt Hill
#
# Bulk Modulus (GPa) = 83.25831 83.44164 83.34997
# Shear Modulus (GPa) = 25.68833 26.50091 26.09462
#
# Velocity S-wave (km/s) = 3.97038 4.03269 4.00165
# Velocity P-wave (km/s) = 8.49181 8.53746 8.51467
#
# Compressibility (1/GPa) = 0.01201081
#
# Stress axis : x y z
#
# Youngs Moduli (GPa) = 63.70874 63.70874 80.67453
#
# Poissons Ratio (x) = 0.51148 0.31706
# Poissons Ratio (y) = 0.51148 0.31706
# Poissons Ratio (z) = 0.25039 0.25039
#
# Static dielectric constant tensor:
#      x y z
#    x 1.556890 0.000000 0.000000 
#    y 0.000000 1.556890 0.000000 
#    z 0.000000 0.000000 1.549020 
# 
# From -- ./inp_files/7694.got.cif
#   From: 2010.05.17/outbox.cif.g08.bks.cpg/sg191_4_cif.got.tgz:7694.got - 2010.05.20 12:20:32.
