data_PCOD9587583
_publ_section_title
;
Structure prediction by ZEFSAII (Michael W. Deem and Ramdas Pophale) SiO2 
 PCOD9587583
Probable space group: P 6/M M M
;
_chemical_formula_sum "Si O2"
_cell_formula_units_Z 96
_cell_length_a 16.684613
_cell_length_b 16.684613
_cell_length_c 24.275406
_cell_angle_alpha 90.000000
_cell_angle_beta 90.000000
_cell_angle_gamma 120.000000
_cell_volume 5852.338113
_symmetry_space_group_name_H-M "P 6/M M M"
_symmetry_group_IT_number 191
_symmetry_cell_setting 'hexagonal'
loop_
_space_group_symop_operation_xyz
x,y,z
x-y,x,z
-y,x-y,z
-x,-y,z
-x+y,-x,z
y,-x+y,z
x-y,-y,-z
-x,-x+y,-z
y,x,-z
-y,-x,-z
-x+y,y,-z
x,x-y,-z
-x,-y,-z
-x+y,-x,-z
y,-x+y,-z
x,y,-z
x-y,x,-z
-y,x-y,-z
-x+y,y,z
x,x-y,z
-y,-x,z
y,x,z
x-y,-y,z
-x,-x+y,z
loop_
_atom_site_type_symbol
_atom_site_label
_atom_site_fract_x
_atom_site_fract_y
_atom_site_fract_z
Si Si1 0.899550 0.613707 0.500000
Si Si2 0.886114 0.584032 0.000000
Si Si3 0.556291 0.112582 0.789599
Si Si4 0.516804 0.850326 0.384231
Si Si5 0.555704 0.111407 0.914636
Si Si6 0.895089 0.283790 0.729408
O O1 0.819010 0.638019 0.500000
O O2 0.887280 0.555968 0.555304
O O3 0.000000 0.701485 0.500000
O O4 0.866326 0.514179 0.051584
O O5 0.808303 0.616605 0.000000
O O6 0.000000 0.659708 0.000000
O O7 0.573563 0.147125 0.852348
O O8 0.487950 0.138368 0.758021
O O9 0.500000 0.000000 0.789958
O O10 0.434733 0.869466 0.370992
O O11 0.482068 0.741034 0.384822
O O12 0.592098 0.892295 0.336006
O O13 0.500000 0.000000 0.911907
O O14 0.821728 0.178273 0.742208
O O15 0.000000 0.319227 0.746639
#
# Coordination Sequence:
#
# PCOD9587583 Si02
#       6
#    12  12  12  24  12  24
#     4  10  21  33  47  66  87 115 150 190 235 283
#     4   9  17  31  51  74 102 136 171 207 247 287
#     4   9  17  32  51  71  96 127 161 199 243 291
#     4  10  19  31  47  68  94 123 154 189 231 283
#     4   8  16  31  50  70  97 130 164 203 243 286
#     4  10  20  33  50  70  96 129 164 202 245 293
#
# _framework density 16.403700000000001
#
# number of rings (size 3 to 8) (size 9 to 14) (size 15 to 20)
#    0.000    2.500    1.250    2.125    0.000    3.000 
#    3.750    1.250    0.000    0.500    0.000    0.000 
#    0.000    6.000    0.000   12.500    0.000    0.500 
#
# Total GULP energy -534652.010102 kJ/mol
# GULP energy per Si atom -5569.291772 kJ/mol
# Density = 1.636636 g / cm^3
# Si number density = 16.403700 Si / 1000 Ang^3
#
#
#
# Elastic Constant Matrix: (Units=GPa)
#
#
# Indices 1 2 3 4 5 6 
#
# 1 73.3355 50.5788 7.9669 0.0000 0.0000 0.0000
# 2 50.5788 73.3355 7.9669 0.0000 0.0000 0.0000
# 3 7.9669 7.9669 86.4754 0.0000 0.0000 0.0000
# 4 0.0000 0.0000 0.0000 10.8240 0.0000 0.0000
# 5 0.0000 0.0000 0.0000 0.0000 10.8240 0.0000
# 6 0.0000 0.0000 0.0000 0.0000 0.0000 11.3784
#
#
#
# Elastic Compliance Matrix: (Units=1/GPa)
#
#
# Indices 1 2 3 4 5 6 
#
# 1 0.026055 -0.017888 -0.000752 0.000000 0.000000 0.000000
# 2 -0.017888 0.026055 -0.000752 0.000000 0.000000 0.000000
# 3 -0.000752 -0.000752 0.011703 0.000000 0.000000 0.000000
# 4 0.000000 0.000000 0.000000 0.092388 0.000000 0.000000
# 5 0.000000 0.000000 0.000000 0.000000 0.092388 0.000000
# 6 0.000000 0.000000 0.000000 0.000000 0.000000 0.087886
#
#
# Mechanical properties :
#
#
# Convention : Reuss Voigt Hill
#
# Bulk Modulus (GPa) = 39.95734 40.68573 40.32153
# Shear Modulus (GPa) = 13.03435 17.71418 15.37426
#
# Velocity S-wave (km/s) = 2.82192 3.28973 3.06476
# Velocity P-wave (km/s) = 5.91855 6.26789 6.09572
#
# Compressibility (1/GPa) = 0.02502669
#
# Stress axis : x y z
#
# Youngs Moduli (GPa) = 38.38044 38.38044 85.45092
#
# Poissons Ratio (x) = 0.68655 0.06429
# Poissons Ratio (y) = 0.68655 0.06429
# Poissons Ratio (z) = 0.02888 0.02888
#
# Static dielectric constant tensor:
#      x y z
#    x 1.554670 0.000000 0.000000 
#    y 0.000000 1.554670 0.000000 
#    z 0.000000 0.000000 1.588300 
# 
# From -- ./inp_files/8290.got.cif
#   From: 2010.05.17/outbox.cif.g08.bks.cpg/sg191_5_cif.got.tgz:8290.got - 2010.05.20 12:20:32.
