data_PCOD9587690
_publ_section_title
;
Structure prediction by ZEFSAII (Michael W. Deem and Ramdas Pophale) SiO2 
 PCOD9587690
Probable space group: P 6/M M M
;
_chemical_formula_sum "Si O2"
_cell_formula_units_Z 156
_cell_length_a 22.894957
_cell_length_b 22.894957
_cell_length_c 19.510752
_cell_angle_alpha 90.000000
_cell_angle_beta 90.000000
_cell_angle_gamma 120.000000
_cell_volume 8856.952280
_symmetry_space_group_name_H-M "P 6/M M M"
_symmetry_group_IT_number 191
_symmetry_cell_setting 'hexagonal'
loop_
_space_group_symop_operation_xyz
x,y,z
x-y,x,z
-y,x-y,z
-x,-y,z
-x+y,-x,z
y,-x+y,z
x-y,-y,-z
-x,-x+y,-z
y,x,-z
-y,-x,-z
-x+y,y,-z
x,x-y,-z
-x,-y,-z
-x+y,-x,-z
y,-x+y,-z
x,y,-z
x-y,x,-z
-y,x-y,-z
-x+y,y,z
x,x-y,z
-y,-x,z
y,x,z
x-y,-y,z
-x,-x+y,z
loop_
_atom_site_type_symbol
_atom_site_label
_atom_site_fract_x
_atom_site_fract_y
_atom_site_fract_z
Si Si1 0.616009 0.921941 0.878107
Si Si2 0.787096 0.077226 0.000000
Si Si3 0.530105 0.334414 0.691190
Si Si4 0.715258 0.923778 0.774368
Si Si5 0.805559 0.333982 0.145855
Si Si6 0.793685 0.719845 0.609211
Si Si7 0.429463 0.285741 0.574621
O O1 0.644985 0.909901 0.807058
O O2 0.538160 0.866850 0.887733
O O3 0.634418 0.000000 0.879935
O O4 0.662839 0.914587 0.934977
O O5 0.864498 0.135503 0.000000
O O6 0.770743 0.000000 0.000000
O O7 0.538477 0.269239 0.681232
O O8 0.598884 0.401117 0.673322
O O9 0.518009 0.336749 0.772068
O O10 0.471856 0.326485 0.640179
O O11 0.730051 0.865026 0.796887
O O12 0.712519 0.922389 0.692051
O O13 0.769963 0.000000 0.795871
O O14 0.802816 0.401408 0.127724
O O15 0.733790 0.266211 0.132345
O O16 0.866024 0.732047 0.587023
O O17 0.777943 0.777943 0.590254
O O18 0.736490 0.648427 0.580979
O O19 0.456614 0.317196 0.500000
O O20 0.429451 0.214726 0.576668
#
# Coordination Sequence:
#
# PCOD9587690 Si02
#       7
#    24  12  24  24  24  24  24
#     4  10  20  33  51  74  98 127 162 201 243 284
#     4  10  20  34  53  78 107 137 169 203 242 288
#     4   9  17  29  46  68  93 123 158 196 236 277
#     4   9  16  27  45  68  92 118 151 190 231 275
#     4  10  19  32  51  73  98 127 162 203 246 293
#     4   9  17  29  46  67  89 114 146 185 227 272
#     4   9  17  28  42  62  88 117 149 185 227 274
#
# _framework density 17.613282999999999
#
# number of rings (size 3 to 8) (size 9 to 14) (size 15 to 20)
#    0.000    2.615    0.000    2.615    0.000    4.615 
#    0.000    0.385    0.000    4.077    0.000    4.308 
#    0.000    3.692    0.000    4.000    0.000    4.308 
#
# Total GULP energy -869417.346626 kJ/mol
# GULP energy per Si atom -5573.188119 kJ/mol
# Density = 1.757319 g / cm^3
# Si number density = 17.613283 Si / 1000 Ang^3
#
#
#
# Elastic Constant Matrix: (Units=GPa)
#
#
# Indices 1 2 3 4 5 6 
#
# 1 103.7339 60.3028 17.2237 0.0000 0.0000 0.0000
# 2 60.3028 103.7339 17.2237 0.0000 0.0000 0.0000
# 3 17.2237 17.2237 23.2274 0.0000 0.0000 0.0000
# 4 0.0000 0.0000 0.0000 8.7106 0.0000 0.0000
# 5 0.0000 0.0000 0.0000 0.0000 8.7106 0.0000
# 6 0.0000 0.0000 0.0000 0.0000 0.0000 21.7155
#
#
#
# Elastic Compliance Matrix: (Units=1/GPa)
#
#
# Indices 1 2 3 4 5 6 
#
# 1 0.015123 -0.007902 -0.005354 0.000000 0.000000 0.000000
# 2 -0.007902 0.015123 -0.005354 0.000000 0.000000 0.000000
# 3 -0.005354 -0.005354 0.050993 0.000000 0.000000 0.000000
# 4 0.000000 0.000000 0.000000 0.114802 0.000000 0.000000
# 5 0.000000 0.000000 0.000000 0.000000 0.114802 0.000000
# 6 0.000000 0.000000 0.000000 0.000000 0.000000 0.046050
#
#
# Mechanical properties :
#
#
# Convention : Reuss Voigt Hill
#
# Bulk Modulus (GPa) = 22.71826 46.68839 34.70333
# Shear Modulus (GPa) = 12.23132 16.89036 14.56084
#
# Velocity S-wave (km/s) = 2.63808 3.10006 2.87835
# Velocity P-wave (km/s) = 4.71229 6.27526 5.54908
#
# Compressibility (1/GPa) = 0.04401745
#
# Stress axis : x y z
#
# Youngs Moduli (GPa) = 66.12537 66.12537 19.61044
#
# Poissons Ratio (x) = 0.52254 0.10500
# Poissons Ratio (y) = 0.52254 0.10500
# Poissons Ratio (z) = 0.35405 0.35405
#
# Static dielectric constant tensor:
#      x y z
#    x 1.587240 0.000000 0.000000 
#    y 0.000000 1.587240 0.000000 
#    z 0.000000 0.000000 1.655710 
# 
# From -- ./inp_files/7740.got.cif
#   From: 2010.05.17/outbox.cif.g08.bks.cpg/sg191_4_cif.got.tgz:7740.got - 2010.05.20 12:20:32.
