data_PCOD9587978
_publ_section_title
;
Structure prediction by ZEFSAII (Michael W. Deem and Ramdas Pophale) SiO2 
 PCOD9587978
Probable space group: P 6/M M M
;
_chemical_formula_sum "Si O2"
_cell_formula_units_Z 96
_cell_length_a 18.203899
_cell_length_b 18.203899
_cell_length_c 22.628658
_cell_angle_alpha 90.000000
_cell_angle_beta 90.000000
_cell_angle_gamma 120.000000
_cell_volume 6494.089430
_symmetry_space_group_name_H-M "P 6/M M M"
_symmetry_group_IT_number 191
_symmetry_cell_setting 'hexagonal'
loop_
_space_group_symop_operation_xyz
x,y,z
x-y,x,z
-y,x-y,z
-x,-y,z
-x+y,-x,z
y,-x+y,z
x-y,-y,-z
-x,-x+y,-z
y,x,-z
-y,-x,-z
-x+y,y,-z
x,x-y,-z
-x,-y,-z
-x+y,-x,-z
y,-x+y,-z
x,y,-z
x-y,x,-z
-y,x-y,-z
-x+y,y,z
x,x-y,z
-y,-x,z
y,x,z
x-y,-y,z
-x,-x+y,z
loop_
_atom_site_type_symbol
_atom_site_label
_atom_site_fract_x
_atom_site_fract_y
_atom_site_fract_z
Si Si1 0.497032 0.163562 0.428602
Si Si2 0.586885 0.586885 0.253291
Si Si3 0.449009 0.898018 0.931876
Si Si4 0.665533 0.665533 0.376715
Si Si5 0.174877 0.174877 0.569799
Si Si6 0.834549 0.499521 0.174447
O O1 0.495795 0.161651 0.500000
O O2 0.580007 0.160014 0.408901
O O3 0.502345 0.251173 0.409911
O O4 0.412242 0.083455 0.405473
O O5 0.500000 0.500000 0.271424
O O6 0.640534 0.640534 0.308837
O O7 0.557027 0.640275 0.213492
O O8 0.500378 0.863514 0.893486
O O9 0.500000 0.000000 0.928477
O O10 0.436039 0.872077 0.000000
O O11 0.751868 0.751868 0.390980
O O12 0.084500 0.169000 0.579781
O O13 0.196707 0.196707 0.500000
O O14 0.759823 0.519646 0.180342
O O15 0.804127 0.402064 0.192671
#
# Coordination Sequence:
#
# PCOD9587978 Si02
#       6
#    24  12  12  12  12  24
#     4  10  20  34  50  70  96 124 154 197 255 307
#     4  10  20  36  47  62  94 134 170 196 240 289
#     4   9  16  30  50  72 102 132 156 194 244 288
#     4  12  22  32  52  74  95 122 166 211 236 282
#     4  10  21  38  58  79 102 123 147 188 251 317
#     4   9  17  31  47  68  95 126 162 202 238 277
#
# _framework density 14.782672
#
# number of rings (size 3 to 8) (size 9 to 14) (size 15 to 20)
#    0.750    1.375    1.250    3.625    0.000    7.000 
#    0.000    0.000    0.000    3.000    0.000    0.000 
#    0.000    0.000    0.000    0.000    0.000    0.000 
#
# Total GULP energy -534843.654094 kJ/mol
# GULP energy per Si atom -5571.288063 kJ/mol
# Density = 1.474903 g / cm^3
# Si number density = 14.782672 Si / 1000 Ang^3
#
#
#
# Elastic Constant Matrix: (Units=GPa)
#
#
# Indices 1 2 3 4 5 6 
#
# 1 114.6105 61.0953 51.4044 0.0000 0.0000 0.0000
# 2 61.0953 114.6105 51.4044 0.0000 0.0000 0.0000
# 3 51.4044 51.4044 72.3908 0.0000 0.0000 0.0000
# 4 0.0000 0.0000 0.0000 11.2964 0.0000 0.0000
# 5 0.0000 0.0000 0.0000 0.0000 11.2964 0.0000
# 6 0.0000 0.0000 0.0000 0.0000 0.0000 26.7576
#
#
#
# Elastic Compliance Matrix: (Units=1/GPa)
#
#
# Indices 1 2 3 4 5 6 
#
# 1 0.014212 -0.004475 -0.006914 0.000000 0.000000 0.000000
# 2 -0.004475 0.014212 -0.006914 0.000000 0.000000 0.000000
# 3 -0.006914 -0.006914 0.023633 0.000000 0.000000 0.000000
# 4 0.000000 0.000000 0.000000 0.088523 0.000000 0.000000
# 5 0.000000 0.000000 0.000000 0.000000 0.088523 0.000000
# 6 0.000000 0.000000 0.000000 0.000000 0.000000 0.037373
#
#
# Mechanical properties :
#
#
# Convention : Reuss Voigt Hill
#
# Bulk Modulus (GPa) = 64.72248 69.93554 67.32901
# Shear Modulus (GPa) = 16.22155 19.05063 17.63609
#
# Velocity S-wave (km/s) = 3.31620 3.59376 3.45777
# Velocity P-wave (km/s) = 7.65118 8.03940 7.84769
#
# Compressibility (1/GPa) = 0.01545058
#
# Stress axis : x y z
#
# Youngs Moduli (GPa) = 70.36508 70.36508 42.31319
#
# Poissons Ratio (x) = 0.31486 0.29256
# Poissons Ratio (y) = 0.31486 0.29256
# Poissons Ratio (z) = 0.48651 0.48651
#
# Static dielectric constant tensor:
#      x y z
#    x 1.475520 0.000000 0.000000 
#    y 0.000000 1.475520 0.000000 
#    z 0.000000 0.000000 1.491190 
# 
# From -- ./inp_files/8293.got.cif
#   From: 2010.05.17/outbox.cif.g08.bks.cpg/sg191_5_cif.got.tgz:8293.got - 2010.05.20 12:20:32.
