data_PCOD9587688
_publ_section_title
;
Structure prediction by ZEFSAII (Michael W. Deem and Ramdas Pophale) SiO2 
 PCOD9587688
Probable space group: P 6/M M M
;
_chemical_formula_sum "Si O2"
_cell_formula_units_Z 120
_cell_length_a 20.820966
_cell_length_b 20.820966
_cell_length_c 20.442484
_cell_angle_alpha 90.000000
_cell_angle_beta 90.000000
_cell_angle_gamma 120.000000
_cell_volume 7674.781997
_symmetry_space_group_name_H-M "P 6/M M M"
_symmetry_group_IT_number 191
_symmetry_cell_setting 'hexagonal'
loop_
_space_group_symop_operation_xyz
x,y,z
x-y,x,z
-y,x-y,z
-x,-y,z
-x+y,-x,z
y,-x+y,z
x-y,-y,-z
-x,-x+y,-z
y,x,-z
-y,-x,-z
-x+y,y,-z
x,x-y,-z
-x,-y,-z
-x+y,-x,-z
y,-x+y,-z
x,y,-z
x-y,x,-z
-y,x-y,-z
-x+y,y,z
x,x-y,z
-y,-x,z
y,x,z
x-y,-y,z
-x,-x+y,z
loop_
_atom_site_type_symbol
_atom_site_label
_atom_site_fract_x
_atom_site_fract_y
_atom_site_fract_z
Si Si1 0.568007 0.858569 0.311705
Si Si2 0.912296 0.456148 0.275570
Si Si3 0.567526 0.709190 0.075309
Si Si4 0.087707 0.543854 0.881806
Si Si5 0.766849 0.682427 0.808392
Si Si6 0.084335 0.769768 0.577312
O O1 0.544017 0.772009 0.309203
O O2 0.501895 0.875152 0.302805
O O3 0.626171 0.897486 0.252268
O O4 0.613722 0.892174 0.378275
O O5 0.905594 0.452797 0.196801
O O6 0.000000 0.500000 0.291029
O O7 0.543981 0.771991 0.084226
O O8 0.502094 0.626892 0.090912
O O9 0.634002 0.731127 0.126232
O O10 0.590924 0.712802 0.000000
O O11 0.000000 0.500000 0.898222
O O12 0.853238 0.706476 0.807327
O O13 0.746976 0.746976 0.804356
O O14 0.088923 0.757391 0.500000
O O15 0.144872 0.855129 0.591644
O O16 0.000000 0.746376 0.592351
#
# Coordination Sequence:
#
# PCOD9587688 Si02
#       6
#    24  12  24  12  24  24
#     4  10  20  34  51  72  98 130 164 201 244 290
#     4  11  20  31  51  75  99 125 161 207 249 285
#     4  10  21  35  49  69  97 127 161 199 241 288
#     4  11  21  32  51  73  94 124 163 203 246 290
#     4  10  19  32  51  72  96 125 159 198 240 287
#     4   9  17  30  50  75 102 131 163 200 242 287
#
# _framework density 15.635624
#
# number of rings (size 3 to 8) (size 9 to 14) (size 15 to 20)
#    0.000    2.000    2.000    2.700    0.000    2.000 
#    1.200    0.500    0.000    2.200    0.000    1.400 
#    0.000    4.800    0.000    5.200    0.000    0.000 
#
# Total GULP energy -669444.029280 kJ/mol
# GULP energy per Si atom -5578.700244 kJ/mol
# Density = 1.560004 g / cm^3
# Si number density = 15.635624 Si / 1000 Ang^3
#
#
#
# Elastic Constant Matrix: (Units=GPa)
#
#
# Indices 1 2 3 4 5 6 
#
# 1 108.8822 77.4778 40.6592 0.0000 0.0000 0.0000
# 2 77.4778 108.8822 40.6592 0.0000 0.0000 0.0000
# 3 40.6592 40.6592 55.1330 0.0000 0.0000 0.0000
# 4 0.0000 0.0000 0.0000 17.7078 0.0000 0.0000
# 5 0.0000 0.0000 0.0000 0.0000 17.7078 0.0000
# 6 0.0000 0.0000 0.0000 0.0000 0.0000 15.7022
#
#
#
# Elastic Compliance Matrix: (Units=1/GPa)
#
#
# Indices 1 2 3 4 5 6 
#
# 1 0.019877 -0.011965 -0.005835 0.000000 0.000000 0.000000
# 2 -0.011965 0.019877 -0.005835 0.000000 0.000000 0.000000
# 3 -0.005835 -0.005835 0.026744 0.000000 0.000000 0.000000
# 4 0.000000 0.000000 0.000000 0.056472 0.000000 0.000000
# 5 0.000000 0.000000 0.000000 0.000000 0.056472 0.000000
# 6 0.000000 0.000000 0.000000 0.000000 0.000000 0.063685
#
#
# Mechanical properties :
#
#
# Convention : Reuss Voigt Hill
#
# Bulk Modulus (GPa) = 52.00603 65.60998 58.80800
# Shear Modulus (GPa) = 16.84588 17.83032 17.33810
#
# Velocity S-wave (km/s) = 3.28594 3.38059 3.33360
# Velocity P-wave (km/s) = 6.90869 7.56907 7.24641
#
# Compressibility (1/GPa) = 0.01922854
#
# Stress axis : x y z
#
# Youngs Moduli (GPa) = 50.30855 50.30855 37.39132
#
# Poissons Ratio (x) = 0.60196 0.21818
# Poissons Ratio (y) = 0.60196 0.21818
# Poissons Ratio (z) = 0.29355 0.29355
#
# Static dielectric constant tensor:
#      x y z
#    x 1.504750 0.000000 0.000000 
#    y 0.000000 1.504750 0.000000 
#    z 0.000000 0.000000 1.534150 
# 
# From -- ./inp_files/6285.got.cif
#   From: 2010.05.17/outbox.cif.g08.bks.cpg/sg191_4_cif.got.tgz:6285.got - 2010.05.20 12:20:32.
