data_PCOD9587979
_publ_section_title
;
Structure prediction by ZEFSAII (Michael W. Deem and Ramdas Pophale) SiO2 
 PCOD9587979
Probable space group: P 6/M M M
;
_chemical_formula_sum "Si O2"
_cell_formula_units_Z 156
_cell_length_a 22.306147
_cell_length_b 22.306147
_cell_length_c 21.251474
_cell_angle_alpha 90.000000
_cell_angle_beta 90.000000
_cell_angle_gamma 120.000000
_cell_volume 9157.328831
_symmetry_space_group_name_H-M "P 6/M M M"
_symmetry_group_IT_number 191
_symmetry_cell_setting 'hexagonal'
loop_
_space_group_symop_operation_xyz
x,y,z
x-y,x,z
-y,x-y,z
-x,-y,z
-x+y,-x,z
y,-x+y,z
x-y,-y,-z
-x,-x+y,-z
y,x,-z
-y,-x,-z
-x+y,y,-z
x,x-y,-z
-x,-y,-z
-x+y,-x,-z
y,-x+y,-z
x,y,-z
x-y,x,-z
-y,x-y,-z
-x+y,y,z
x,x-y,z
-y,-x,z
y,x,z
x-y,-y,z
-x,-x+y,z
loop_
_atom_site_type_symbol
_atom_site_label
_atom_site_fract_x
_atom_site_fract_y
_atom_site_fract_z
Si Si1 0.665470 0.476006 0.824923
Si Si2 0.333220 0.801067 0.423916
Si Si3 0.611215 0.688337 0.607768
Si Si4 0.920029 0.572474 0.926588
Si Si5 0.609097 0.734289 0.256822
Si Si6 0.081530 0.295876 0.500000
Si Si7 0.220288 0.920989 0.132077
O O1 0.736446 0.472891 0.833804
O O2 0.599330 0.400671 0.813328
O O3 0.650274 0.511632 0.884747
O O4 0.681795 0.532348 0.769733
O O5 0.332458 0.799798 0.500000
O O6 0.394818 0.789635 0.402251
O O7 0.260390 0.739611 0.400830
O O8 0.341276 0.872216 0.402233
O O9 0.632682 0.632682 0.589577
O O10 0.627403 0.708765 0.680282
O O11 0.655003 0.752298 0.560844
O O12 0.912072 0.640216 0.915589
O O13 0.000000 0.597827 0.907337
O O14 0.912640 0.554445 0.000000
O O15 0.609631 0.804816 0.272457
O O16 0.663209 0.752357 0.199966
O O17 0.132813 0.265626 0.500000
O O18 0.000000 0.240524 0.500000
O O19 0.141435 0.858566 0.124583
O O20 0.236919 0.000000 0.126619
#
# Coordination Sequence:
#
# PCOD9587979 Si02
#       7
#    24  24  24  24  24  12  24
#     4  10  21  36  53  74 101 134 170 207 249 299
#     4  10  20  34  51  68  90 122 162 201 235 279
#     4  11  21  33  52  78 104 129 156 198 257 311
#     4   9  18  33  53  76 101 130 167 211 253 291
#     4   9  18  33  52  71  95 127 166 208 245 287
#     4  10  20  34  53  78 107 137 167 201 246 300
#     4   9  17  30  49  73  99 128 162 202 245 289
#
# _framework density 17.035536
#
# number of rings (size 3 to 8) (size 9 to 14) (size 15 to 20)
#    0.000    2.308    0.769    3.538    0.000    4.000 
#    0.000    1.538    0.000    3.000    0.000    0.000 
#    0.000    0.000    0.000    8.769    0.000    0.000 
#
# Total GULP energy -869847.488487 kJ/mol
# GULP energy per Si atom -5575.945439 kJ/mol
# Density = 1.699676 g / cm^3
# Si number density = 17.035536 Si / 1000 Ang^3
#
#
#
# Elastic Constant Matrix: (Units=GPa)
#
#
# Indices 1 2 3 4 5 6 
#
# 1 -1117.5091 1219.2728 11.5751 0.0000 0.0000 -0.0001
# 2 1219.2728-1117.5091 11.5751 0.0000 0.0000 0.0001
# 3 11.5751 11.5751 49.0020 0.0000 0.0000 0.0000
# 4 0.0000 0.0000 0.0000 19.1706 0.0000 0.0000
# 5 0.0000 0.0000 0.0000 0.0000 19.1706 0.0000
# 6 -0.0001 0.0001 0.0000 0.0000 0.0000-1168.3909
#
#
#
# Elastic Compliance Matrix: (Units=1/GPa)
#
#
# Indices 1 2 3 4 5 6 
#
# 1 0.004978 0.005406 -0.002453 0.000000 0.000000 0.000000
# 2 0.005406 0.004978 -0.002453 0.000000 0.000000 0.000000
# 3 -0.002453 -0.002453 0.021566 0.000000 0.000000 0.000000
# 4 0.000000 0.000000 0.000000 0.052163 0.000000 0.000000
# 5 0.000000 0.000000 0.000000 0.000000 0.052163 0.000000
# 6 0.000000 0.000000 0.000000 0.000000 0.000000 -0.000856
#
#
# Mechanical properties :
#
#
# Convention : Reuss Voigt Hill
#
# Bulk Modulus (GPa) = 30.74700 33.20332 31.97516
# Shear Modulus (GPa) = 34.52214 -454.57259 -210.02522
#
# Velocity S-wave (km/s) = 4.50653 -16.35289 -11.11549
# Velocity P-wave (km/s) = 6.72059 18.35819 12.08009
#
# Compressibility (1/GPa) = 0.03252349
#
# Stress axis : x y z
#
# Youngs Moduli (GPa) = 200.86779 200.86779 46.36872
#
# Poissons Ratio (x) = -1.08596 0.11375
# Poissons Ratio (y) = -1.08596 0.11375
# Poissons Ratio (z) = 0.49274 0.49274
#
# Static dielectric constant tensor:
#      x y z
#    x 1.570770 0.000000 0.000000 
#    y 0.000000 1.570770 0.000000 
#    z 0.000000 0.000000 1.607940 
# 
# From -- ./inp_files/7751.got.cif
#   From: 2010.05.17/outbox.cif.g08.bks.cpg/sg191_4_cif.got.tgz:7751.got - 2010.05.20 12:20:32.
