data_PCOD9587982
_publ_section_title
;
Structure prediction by ZEFSAII (Michael W. Deem and Ramdas Pophale) SiO2 
 PCOD9587982
Probable space group: P 6/M M M
;
_chemical_formula_sum "Si O2"
_cell_formula_units_Z 144
_cell_length_a 22.851565
_cell_length_b 22.851565
_cell_length_c 20.126838
_cell_angle_alpha 90.000000
_cell_angle_beta 90.000000
_cell_angle_gamma 120.000000
_cell_volume 9102.026158
_symmetry_space_group_name_H-M "P 6/M M M"
_symmetry_group_IT_number 191
_symmetry_cell_setting 'hexagonal'
loop_
_space_group_symop_operation_xyz
x,y,z
x-y,x,z
-y,x-y,z
-x,-y,z
-x+y,-x,z
y,-x+y,z
x-y,-y,-z
-x,-x+y,-z
y,x,-z
-y,-x,-z
-x+y,y,-z
x,x-y,-z
-x,-y,-z
-x+y,-x,-z
y,-x+y,-z
x,y,-z
x-y,x,-z
-y,x-y,-z
-x+y,y,z
x,x-y,z
-y,-x,z
y,x,z
x-y,-y,z
-x,-x+y,z
loop_
_atom_site_type_symbol
_atom_site_label
_atom_site_fract_x
_atom_site_fract_y
_atom_site_fract_z
Si Si1 0.281356 0.076402 0.731737
Si Si2 0.391728 0.469945 0.420898
Si Si3 0.530198 0.920563 0.191832
Si Si4 0.923207 0.207184 0.108120
Si Si5 0.565157 0.850718 0.310669
Si Si6 0.712611 0.560013 0.075911
O O1 0.253008 0.126504 0.717955
O O2 0.292571 0.078203 0.811596
O O3 0.353854 0.107392 0.697417
O O4 0.232981 0.000000 0.711683
O O5 0.379804 0.464467 0.500000
O O6 0.455827 0.544174 0.407532
O O7 0.417272 0.417272 0.402080
O O8 0.327451 0.456712 0.378675
O O9 0.459805 0.919610 0.197094
O O10 0.538394 0.879102 0.251956
O O11 0.533018 0.883061 0.125341
O O12 0.588830 0.000000 0.192734
O O13 0.870452 0.129549 0.091537
O O14 0.892961 0.251519 0.078648
O O15 0.000000 0.235181 0.087793
O O16 0.544284 0.772142 0.304925
O O17 0.772101 0.544202 0.096718
O O18 0.693449 0.537413 0.000000
#
# Coordination Sequence:
#
# PCOD9587982 Si02
#       6
#    24  24  24  24  24  24
#     4   9  16  26  43  66  92 121 154 192 230 271
#     4   9  18  33  53  76 101 129 161 198 241 289
#     4  11  22  34  51  74  98 124 156 199 249 296
#     4   9  16  27  43  64  90 119 152 188 228 273
#     4  11  20  31  50  73  99 129 162 198 238 286
#     4  10  20  34  51  70  94 123 155 194 241 293
#
# _framework density 15.820653
#
# number of rings (size 3 to 8) (size 9 to 14) (size 15 to 20)
#    0.000    2.167    1.667    3.500    0.000    3.333 
#    0.000    0.833    0.000    6.333    0.000    2.333 
#    0.000    0.000    0.000    4.167    0.000    4.333 
#
# Total GULP energy -803019.393697 kJ/mol
# GULP energy per Si atom -5576.523567 kJ/mol
# Density = 1.578464 g / cm^3
# Si number density = 15.820653 Si / 1000 Ang^3
#
#
#
# Elastic Constant Matrix: (Units=GPa)
#
#
# Indices 1 2 3 4 5 6 
#
# 1 94.0417 43.5339 38.9085 0.0000 0.0000 0.0000
# 2 43.5339 94.0417 38.9085 0.0000 0.0000 0.0000
# 3 38.9085 38.9085 53.7221 0.0000 0.0000 0.0000
# 4 0.0000 0.0000 0.0000 -355.9708 0.0000 0.0000
# 5 0.0000 0.0000 0.0000 0.0000 -355.9707 0.0000
# 6 0.0000 0.0000 0.0000 0.0000 0.0000 25.2539
#
#
#
# Elastic Compliance Matrix: (Units=1/GPa)
#
#
# Indices 1 2 3 4 5 6 
#
# 1 0.016056 -0.003743 -0.008918 0.000000 0.000000 0.000000
# 2 -0.003743 0.016056 -0.008918 0.000000 0.000000 0.000000
# 3 -0.008918 -0.008918 0.031532 0.000000 0.000000 0.000000
# 4 0.000000 0.000000 0.000000 -0.002809 0.000000 0.000000
# 5 0.000000 0.000000 0.000000 0.000000 -0.002809 0.000000
# 6 0.000000 0.000000 0.000000 0.000000 0.000000 0.039598
#
#
# Mechanical properties :
#
#
# Convention : Reuss Voigt Hill
#
# Bulk Modulus (GPa) = 48.81207 53.83414 51.32311
# Shear Modulus (GPa) = 33.87349 -129.30720 -47.71686
#
# Velocity S-wave (km/s) = 4.63221 -9.05045 -5.49787
# Velocity P-wave (km/s) = 7.71558 8.66675 2.79126
#
# Compressibility (1/GPa) = 0.02048674
#
# Stress axis : x y z
#
# Youngs Moduli (GPa) = 62.28257 62.28257 31.71430
#
# Poissons Ratio (x) = 0.23313 0.28281
# Poissons Ratio (y) = 0.23313 0.28281
# Poissons Ratio (z) = 0.55541 0.55541
#
# Static dielectric constant tensor:
#      x y z
#    x 1.520800 0.000000 0.000000 
#    y 0.000000 1.520800 0.000000 
#    z 0.000000 0.000000 1.554580 
# 
# From -- ./inp_files/6596.got.cif
#   From: 2010.05.17/outbox.cif.g08.bks.cpg/sg191_4_cif.got.tgz:6596.got - 2010.05.20 12:20:32.
