data_PCOD9587512
_publ_section_title
;
Structure prediction by ZEFSAII (Michael W. Deem and Ramdas Pophale) SiO2 
 PCOD9587512
Probable space group: P 6/M M M
;
_chemical_formula_sum "Si O2"
_cell_formula_units_Z 120
_cell_length_a 18.174356
_cell_length_b 18.174356
_cell_length_c 25.859329
_cell_angle_alpha 90.000000
_cell_angle_beta 90.000000
_cell_angle_gamma 120.000000
_cell_volume 7397.175879
_symmetry_space_group_name_H-M "P 6/M M M"
_symmetry_group_IT_number 191
_symmetry_cell_setting 'hexagonal'
loop_
_space_group_symop_operation_xyz
x,y,z
x-y,x,z
-y,x-y,z
-x,-y,z
-x+y,-x,z
y,-x+y,z
x-y,-y,-z
-x,-x+y,-z
y,x,-z
-y,-x,-z
-x+y,y,-z
x,x-y,-z
-x,-y,-z
-x+y,-x,-z
y,-x+y,-z
x,y,-z
x-y,x,-z
-y,x-y,-z
-x+y,y,z
x,x-y,z
-y,-x,z
y,x,z
x-y,-y,z
-x,-x+y,z
loop_
_atom_site_type_symbol
_atom_site_label
_atom_site_fract_x
_atom_site_fract_y
_atom_site_fract_z
Si Si1 0.101365 0.634456 0.701727
Si Si2 0.264482 0.358631 0.500000
Si Si3 0.267888 0.897894 0.000000
Si Si4 0.496740 0.332117 0.412915
Si Si5 0.633679 0.898797 0.199218
Si Si6 0.897553 0.532425 0.899091
O O1 0.124973 0.562487 0.717217
O O2 0.144888 0.672906 0.647186
O O3 0.118084 0.699527 0.747581
O O4 0.000000 0.584205 0.692848
O O5 0.281164 0.281164 0.500000
O O6 0.166979 0.333957 0.500000
O O7 0.308296 0.418023 0.549777
O O8 0.307619 0.877791 0.050194
O O9 0.166590 0.833411 0.000000
O O10 0.302091 0.000000 0.000000
O O11 0.524543 0.262272 0.423486
O O12 0.573888 0.426112 0.422878
O O13 0.671247 0.835624 0.196273
O O14 0.567090 0.875934 0.152278
O O15 0.700861 0.000000 0.196117
O O16 0.863609 0.431805 0.900176
O O17 0.000000 0.577679 0.898556
#
# Coordination Sequence:
#
# PCOD9587512 Si02
#       6
#    24  12  12  24  24  24
#     4   9  17  29  46  67  90 119 156 196 235 275
#     4  10  21  35  51  70  91 117 150 190 233 275
#     4  10  19  31  49  72  97 127 164 202 237 275
#     4  10  19  30  45  67  97 130 161 190 221 260
#     4  10  19  31  48  69  93 122 158 197 235 277
#     4   9  17  30  49  70  90 115 148 186 229 278
#
# _framework density 16.222408000000001
#
# number of rings (size 3 to 8) (size 9 to 14) (size 15 to 20)
#    0.000    2.400    0.000    3.200    0.000    5.200 
#    0.000    1.000    0.000   11.200    0.000    0.000 
#    0.000    4.800    0.000    6.400    0.000    0.400 
#
# Total GULP energy -668857.512106 kJ/mol
# GULP energy per Si atom -5573.812601 kJ/mol
# Density = 1.618549 g / cm^3
# Si number density = 16.222408 Si / 1000 Ang^3
#
#
#
# Elastic Constant Matrix: (Units=GPa)
#
#
# Indices 1 2 3 4 5 6 
#
# 1 84.3558 52.1645 36.7670 0.0000 0.0000 0.0000
# 2 52.1645 84.3558 36.7670 0.0000 0.0000 0.0000
# 3 36.7670 36.7670 70.0887 0.0000 0.0000 0.0000
# 4 0.0000 0.0000 0.0000 11.8968 0.0000 0.0000
# 5 0.0000 0.0000 0.0000 0.0000 11.8968 0.0000
# 6 0.0000 0.0000 0.0000 0.0000 0.0000 16.0956
#
#
#
# Elastic Compliance Matrix: (Units=1/GPa)
#
#
# Indices 1 2 3 4 5 6 
#
# 1 0.020637 -0.010427 -0.005356 0.000000 0.000000 0.000000
# 2 -0.010427 0.020637 -0.005356 0.000000 0.000000 0.000000
# 3 -0.005356 -0.005356 0.019887 0.000000 0.000000 0.000000
# 4 0.000000 0.000000 0.000000 0.084057 0.000000 0.000000
# 5 0.000000 0.000000 0.000000 0.000000 0.084057 0.000000
# 6 0.000000 0.000000 0.000000 0.000000 0.000000 0.062129
#
#
# Mechanical properties :
#
#
# Convention : Reuss Voigt Hill
#
# Bulk Modulus (GPa) = 52.95784 54.46639 53.71212
# Shear Modulus (GPa) = 14.70698 15.51794 15.11246
#
# Velocity S-wave (km/s) = 3.01422 3.09621 3.05549
# Velocity P-wave (km/s) = 6.69550 6.81393 6.75498
#
# Compressibility (1/GPa) = 0.01888294
#
# Stress axis : x y z
#
# Youngs Moduli (GPa) = 48.45659 48.45659 50.28486
#
# Poissons Ratio (x) = 0.50527 0.26932
# Poissons Ratio (y) = 0.50527 0.26932
# Poissons Ratio (z) = 0.25952 0.25952
#
# Static dielectric constant tensor:
#      x y z
#    x 1.541330 0.000000 0.000000 
#    y 0.000000 1.541330 0.000000 
#    z 0.000000 0.000000 1.549600 
# 
# From -- ./inp_files/8526.got.cif
#   From: 2010.05.17/outbox.cif.g08.bks.cpg/sg191_5_cif.got.tgz:8526.got - 2010.05.20 12:20:32.
