data_PCOD9587438
_publ_section_title
;
Structure prediction by ZEFSAII (Michael W. Deem and Ramdas Pophale) SiO2 
 PCOD9587438
Probable space group: P 6/M M M
;
_chemical_formula_sum "Si O2"
_cell_formula_units_Z 132
_cell_length_a 18.958026
_cell_length_b 18.958026
_cell_length_c 27.596045
_cell_angle_alpha 90.000000
_cell_angle_beta 90.000000
_cell_angle_gamma 120.000000
_cell_volume 8589.417352
_symmetry_space_group_name_H-M "P 6/M M M"
_symmetry_group_IT_number 191
_symmetry_cell_setting 'hexagonal'
loop_
_space_group_symop_operation_xyz
x,y,z
x-y,x,z
-y,x-y,z
-x,-y,z
-x+y,-x,z
y,-x+y,z
x-y,-y,-z
-x,-x+y,-z
y,x,-z
-y,-x,-z
-x+y,y,-z
x,x-y,-z
-x,-y,-z
-x+y,-x,-z
y,-x+y,-z
x,y,-z
x-y,x,-z
-y,x-y,-z
-x+y,y,z
x,x-y,z
-y,-x,z
y,x,z
x-y,-y,z
-x,-x+y,z
loop_
_atom_site_type_symbol
_atom_site_label
_atom_site_fract_x
_atom_site_fract_y
_atom_site_fract_z
Si Si1 0.346024 0.253801 0.757650
Si Si2 0.531870 0.628704 0.413872
Si Si3 0.749238 0.655230 0.871905
Si Si4 0.098966 0.629365 0.945000
Si Si5 0.097399 0.357974 0.500000
Si Si6 0.502555 0.333348 0.307834
O O1 0.321585 0.160793 0.747182
O O2 0.277012 0.277012 0.747510
O O3 0.365833 0.267900 0.814967
O O4 0.425408 0.310251 0.726036
O O5 0.442153 0.557848 0.431097
O O6 0.581840 0.581840 0.403734
O O7 0.583608 0.696221 0.453714
O O8 0.520747 0.664289 0.363760
O O9 0.844270 0.688540 0.879853
O O10 0.718864 0.718864 0.883320
O O11 0.698304 0.576361 0.905342
O O12 0.126456 0.563228 0.934181
O O13 0.000000 0.578373 0.945050
O O14 0.124473 0.660224 0.000000
O O15 0.164472 0.328944 0.500000
O O16 0.000000 0.289862 0.500000
O O17 0.524199 0.262100 0.301553
O O18 0.579160 0.420841 0.296215
#
# Coordination Sequence:
#
# PCOD9587438 Si02
#       6
#    24  24  24  24  12  24
#     4   9  18  31  46  64  86 113 145 182 223 264
#     4   9  17  29  46  67  89 114 145 181 218 255
#     4   9  17  29  45  65  88 114 145 181 220 261
#     4   8  14  25  41  61  84 109 138 173 211 249
#     4  10  19  31  47  66  89 117 150 186 223 263
#     4  10  19  30  44  64  92 123 152 179 209 248
#
# _framework density 15.367747
#
# number of rings (size 3 to 8) (size 9 to 14) (size 15 to 20)
#    0.000    2.909    0.000    2.091    0.000    3.273 
#    0.000    1.818    0.000    3.364    0.000    2.545 
#    0.000    0.000    0.000   10.364    0.000    8.727 
#
# Total GULP energy -734867.191337 kJ/mol
# GULP energy per Si atom -5567.175692 kJ/mol
# Density = 1.533277 g / cm^3
# Si number density = 15.367747 Si / 1000 Ang^3
#
#
#
# Elastic Constant Matrix: (Units=GPa)
#
#
# Indices 1 2 3 4 5 6 
#
# 1 86.9361 56.0241 45.3348 0.0000 0.0000 0.0000
# 2 56.0241 86.9361 45.3348 0.0000 0.0000 0.0000
# 3 45.3348 45.3348 48.3031 0.0000 0.0000 0.0000
# 4 0.0000 0.0000 0.0000 19.4969 0.0000 0.0000
# 5 0.0000 0.0000 0.0000 0.0000 19.4969 0.0000
# 6 0.0000 0.0000 0.0000 0.0000 0.0000 15.4560
#
#
#
# Elastic Compliance Matrix: (Units=1/GPa)
#
#
# Indices 1 2 3 4 5 6 
#
# 1 0.024816 -0.007534 -0.016220 0.000000 0.000000 0.000000
# 2 -0.007534 0.024816 -0.016220 0.000000 0.000000 0.000000
# 3 -0.016220 -0.016220 0.051150 0.000000 0.000000 0.000000
# 4 0.000000 0.000000 0.000000 0.051290 0.000000 0.000000
# 5 0.000000 0.000000 0.000000 0.000000 0.051290 0.000000
# 6 0.000000 0.000000 0.000000 0.000000 0.000000 0.064700
#
#
# Mechanical properties :
#
#
# Convention : Reuss Voigt Hill
#
# Bulk Modulus (GPa) = 48.00043 57.28474 52.64259
# Shear Modulus (GPa) = 14.08625 15.92205 15.00415
#
# Velocity S-wave (km/s) = 3.03084 3.22229 3.12803
# Velocity P-wave (km/s) = 6.59927 7.15550 6.88300
#
# Compressibility (1/GPa) = 0.02083315
#
# Stress axis : x y z
#
# Youngs Moduli (GPa) = 40.29634 40.29634 19.55038
#
# Poissons Ratio (x) = 0.30358 0.31711
# Poissons Ratio (y) = 0.30358 0.31711
# Poissons Ratio (z) = 0.65362 0.65362
#
# Static dielectric constant tensor:
#      x y z
#    x 1.505460 0.000000 0.000000 
#    y 0.000000 1.505460 0.000000 
#    z 0.000000 0.000000 1.509750 
# 
# From -- ./inp_files/8709.got.cif
#   From: 2010.05.17/outbox.cif.g08.bks.cpg/sg191_5_cif.got.tgz:8709.got - 2010.05.20 12:20:32.
