data_PCOD9587976
_publ_section_title
;
Structure prediction by ZEFSAII (Michael W. Deem and Ramdas Pophale) SiO2 
 PCOD9587976
Probable space group: P 6/M M M
;
_chemical_formula_sum "Si O2"
_cell_formula_units_Z 96
_cell_length_a 16.773833
_cell_length_b 16.773833
_cell_length_c 23.785153
_cell_angle_alpha 90.000000
_cell_angle_beta 90.000000
_cell_angle_gamma 120.000000
_cell_volume 5795.637460
_symmetry_space_group_name_H-M "P 6/M M M"
_symmetry_group_IT_number 191
_symmetry_cell_setting 'hexagonal'
loop_
_space_group_symop_operation_xyz
x,y,z
x-y,x,z
-y,x-y,z
-x,-y,z
-x+y,-x,z
y,-x+y,z
x-y,-y,-z
-x,-x+y,-z
y,x,-z
-y,-x,-z
-x+y,y,-z
x,x-y,-z
-x,-y,-z
-x+y,-x,-z
y,-x+y,-z
x,y,-z
x-y,x,-z
-y,x-y,-z
-x+y,y,z
x,x-y,z
-y,-x,z
y,x,z
x-y,-y,z
-x,-x+y,z
loop_
_atom_site_type_symbol
_atom_site_label
_atom_site_fract_x
_atom_site_fract_y
_atom_site_fract_z
Si Si1 0.390870 0.284760 0.432594
Si Si2 0.444124 0.888247 0.758207
Si Si3 0.111717 0.555859 0.370187
Si Si4 0.148719 0.667855 0.936663
Si Si5 0.715395 0.610930 0.180260
O O1 0.403766 0.296186 0.500000
O O2 0.358812 0.179406 0.418868
O O3 0.320397 0.320397 0.416629
O O4 0.487944 0.350965 0.402698
O O5 0.427659 0.855317 0.694004
O O6 0.350174 0.862578 0.790066
O O7 0.500000 0.000000 0.757987
O O8 0.000000 0.500000 0.369062
O O9 0.131514 0.565757 0.927806
O O10 0.257653 0.742348 0.934439
O O11 0.105405 0.696001 0.886233
O O12 0.117718 0.672941 0.000000
O O13 0.820694 0.641388 0.191856
O O14 0.680951 0.680951 0.198182
#
# Coordination Sequence:
#
# PCOD9587976 Si02
#       5
#    24  12  12  24  24
#     4   9  17  30  49  72  98 129 164 202 243 284
#     4   9  18  33  49  69  95 122 153 191 233 283
#     4   9  17  30  49  69  94 125 157 193 233 279
#     4   9  16  26  43  67  94 123 155 191 232 280
#     4  10  20  34  50  69  95 126 160 197 238 283
#
# _framework density 16.564181999999999
#
# number of rings (size 3 to 8) (size 9 to 14) (size 15 to 20)
#    0.000    2.750    1.250    0.625    0.000    4.000 
#    1.500    1.250    0.000    0.500    0.000    1.750 
#    0.000    0.000    0.000   18.750    0.000    6.500 
#
# Total GULP energy -534789.884613 kJ/mol
# GULP energy per Si atom -5570.727965 kJ/mol
# Density = 1.652648 g / cm^3
# Si number density = 16.564182 Si / 1000 Ang^3
#
#
#
# Elastic Constant Matrix: (Units=GPa)
#
#
# Indices 1 2 3 4 5 6 
#
# 1 82.3889 48.5014 25.8117 0.0000 0.0000 0.0000
# 2 48.5014 82.3889 25.8117 0.0000 0.0000 0.0000
# 3 25.8117 25.8117 43.5094 0.0000 0.0000 0.0000
# 4 0.0000 0.0000 0.0000 10.4903 0.0000 0.0000
# 5 0.0000 0.0000 0.0000 0.0000 10.4903 0.0000
# 6 0.0000 0.0000 0.0000 0.0000 0.0000 16.9437
#
#
#
# Elastic Compliance Matrix: (Units=1/GPa)
#
#
# Indices 1 2 3 4 5 6 
#
# 1 0.019742 -0.009768 -0.005917 0.000000 0.000000 0.000000
# 2 -0.009768 0.019742 -0.005917 0.000000 0.000000 0.000000
# 3 -0.005917 -0.005917 0.030004 0.000000 0.000000 0.000000
# 4 0.000000 0.000000 0.000000 0.095326 0.000000 0.000000
# 5 0.000000 0.000000 0.000000 0.000000 0.095326 0.000000
# 6 0.000000 0.000000 0.000000 0.000000 0.000000 0.059019
#
#
# Mechanical properties :
#
#
# Convention : Reuss Voigt Hill
#
# Bulk Modulus (GPa) = 38.04626 45.39297 41.71961
# Shear Modulus (GPa) = 13.47267 14.79570 14.13418
#
# Velocity S-wave (km/s) = 2.85504 2.99195 2.92430
# Velocity P-wave (km/s) = 5.82127 6.27690 6.05337
#
# Compressibility (1/GPa) = 0.02628379
#
# Stress axis : x y z
#
# Youngs Moduli (GPa) = 50.65471 50.65471 33.32930
#
# Poissons Ratio (x) = 0.49479 0.19720
# Poissons Ratio (y) = 0.49479 0.19720
# Poissons Ratio (z) = 0.29971 0.29971
#
# Static dielectric constant tensor:
#      x y z
#    x 1.560710 0.000000 0.000000 
#    y 0.000000 1.560710 0.000000 
#    z 0.000000 0.000000 1.578970 
# 
# From -- ./inp_files/7231.got.cif
#   From: 2010.05.17/outbox.cif.g08.bks.cpg/sg191_4_cif.got.tgz:7231.got - 2010.05.20 12:20:32.
