data_PCOD9587524
_publ_section_title
;
Structure prediction by ZEFSAII (Michael W. Deem and Ramdas Pophale) SiO2 
 PCOD9587524
Probable space group: P 6/M M M
;
_chemical_formula_sum "Si O2"
_cell_formula_units_Z 180
_cell_length_a 27.814345
_cell_length_b 27.814345
_cell_length_c 18.379808
_cell_angle_alpha 90.000000
_cell_angle_beta 90.000000
_cell_angle_gamma 120.000000
_cell_volume 12314.287149
_symmetry_space_group_name_H-M "P 6/M M M"
_symmetry_group_IT_number 191
_symmetry_cell_setting 'hexagonal'
loop_
_space_group_symop_operation_xyz
x,y,z
x-y,x,z
-y,x-y,z
-x,-y,z
-x+y,-x,z
y,-x+y,z
x-y,-y,-z
-x,-x+y,-z
y,x,-z
-y,-x,-z
-x+y,y,-z
x,x-y,-z
-x,-y,-z
-x+y,-x,-z
y,-x+y,-z
x,y,-z
x-y,x,-z
-y,x-y,-z
-x+y,y,z
x,x-y,z
-y,-x,z
y,x,z
x-y,-y,z
-x,-x+y,z
loop_
_atom_site_type_symbol
_atom_site_label
_atom_site_fract_x
_atom_site_fract_y
_atom_site_fract_z
Si Si1 0.342996 0.063960 0.360636
Si Si2 0.530974 0.469027 0.087387
Si Si3 0.121939 0.460615 0.915958
Si Si4 0.596330 0.661061 0.779767
Si Si5 0.222527 0.556133 0.851704
Si Si6 0.169750 0.453170 0.415584
Si Si7 0.630287 0.148467 0.707747
Si Si8 0.827936 0.062569 0.412727
O O1 0.361958 0.069427 0.276642
O O2 0.395519 0.112305 0.402672
O O3 0.290252 0.071299 0.374409
O O4 0.323222 0.000000 0.382911
O O5 0.500000 0.500000 0.118408
O O6 0.595738 0.501821 0.104713
O O7 0.528969 0.471032 0.000000
O O8 0.096415 0.412484 0.856055
O O9 0.186534 0.503012 0.902570
O O10 0.109886 0.443602 0.000000
O O11 0.619065 0.619065 0.793133
O O12 0.536909 0.631738 0.738705
O O13 0.285423 0.570845 0.848681
O O14 0.217724 0.608862 0.876852
O O15 0.194081 0.538478 0.772175
O O16 0.173572 0.469100 0.500000
O O17 0.222721 0.445442 0.398871
O O18 0.168724 0.498171 0.361809
O O19 0.568705 0.137409 0.692833
O O20 0.821076 0.065797 0.500000
O O21 0.889059 0.110942 0.393107
O O22 0.813519 0.000000 0.396699
#
# Coordination Sequence:
#
# PCOD9587524 Si02
#       8
#    24  12  24  24  24  24  24  24
#     4   9  17  29  43  63  91 118 145 178 215 252
#     4   9  16  26  42  62  82 102 123 155 201 245
#     4  10  19  31  44  63  87 106 132 170 208 254
#     4   9  18  30  45  64  85 110 138 170 210 256
#     4  10  19  32  48  62  78 102 132 166 203 246
#     4  10  19  30  46  66  85 108 140 174 210 256
#     4   9  19  33  46  62  83 105 132 169 210 254
#     4   9  16  26  43  67  94 124 156 190 225 257
#
# _framework density 14.617167999999999
#
# number of rings (size 3 to 8) (size 9 to 14) (size 15 to 20)
#    0.000    2.600    0.667    1.733    0.933    3.467 
#    0.000    0.667    0.000    1.200    0.000    4.667 
#    0.000    0.000    0.000    0.000    0.000    0.133 
#
# Total GULP energy -1002700.447263 kJ/mol
# GULP energy per Si atom -5570.558040 kJ/mol
# Density = 1.458390 g / cm^3
# Si number density = 14.617168 Si / 1000 Ang^3
#
#
#
# Elastic Constant Matrix: (Units=GPa)
#
#
# Indices 1 2 3 4 5 6 
#
# 1 66.3265 32.5821 29.1787 0.0000 0.0000 0.0000
# 2 32.5821 66.3265 29.1787 0.0000 0.0000 0.0000
# 3 29.1787 29.1787 73.8621 0.0000 0.0000 0.0000
# 4 0.0000 0.0000 0.0000 14.5013 0.0000 0.0000
# 5 0.0000 0.0000 0.0000 0.0000 14.5013 0.0000
# 6 0.0000 0.0000 0.0000 0.0000 0.0000 16.8722
#
#
#
# Elastic Compliance Matrix: (Units=1/GPa)
#
#
# Indices 1 2 3 4 5 6 
#
# 1 0.021409 -0.008226 -0.005208 0.000000 0.000000 0.000000
# 2 -0.008226 0.021409 -0.005208 0.000000 0.000000 0.000000
# 3 -0.005208 -0.005208 0.017653 0.000000 0.000000 0.000000
# 4 0.000000 0.000000 0.000000 0.068959 0.000000 0.000000
# 5 0.000000 0.000000 0.000000 0.000000 0.068959 0.000000
# 6 0.000000 0.000000 0.000000 0.000000 0.000000 0.059269
#
#
# Mechanical properties :
#
#
# Convention : Reuss Voigt Hill
#
# Bulk Modulus (GPa) = 43.12568 43.15489 43.14029
# Shear Modulus (GPa) = 16.51960 16.88001 16.69981
#
# Velocity S-wave (km/s) = 3.36542 3.40193 3.38372
# Velocity P-wave (km/s) = 6.68348 6.70957 6.69654
#
# Compressibility (1/GPa) = 0.02318804
#
# Stress axis : x y z
#
# Youngs Moduli (GPa) = 46.70979 46.70979 56.64631
#
# Poissons Ratio (x) = 0.38422 0.29501
# Poissons Ratio (y) = 0.38422 0.29501
# Poissons Ratio (z) = 0.24326 0.24326
#
# Static dielectric constant tensor:
#      x y z
#    x 1.487340 0.000000 0.000000 
#    y 0.000000 1.487340 0.000000 
#    z 0.000000 0.000000 1.491230 
# 
# From -- ./inp_files/6860.got.cif
#   From: 2010.05.17/outbox.cif.g08.bks.cpg/sg191_4_cif.got.tgz:6860.got - 2010.05.20 12:20:32.
