data_PCOD9587614
_publ_section_title
;
Structure prediction by ZEFSAII (Michael W. Deem and Ramdas Pophale) SiO2 
 PCOD9587614
Probable space group: P 6/M M M
;
_chemical_formula_sum "Si O2"
_cell_formula_units_Z 72
_cell_length_a 22.463487
_cell_length_b 22.463487
_cell_length_c 10.452513
_cell_angle_alpha 90.000000
_cell_angle_beta 90.000000
_cell_angle_gamma 120.000000
_cell_volume 4567.785412
_symmetry_space_group_name_H-M "P 6/M M M"
_symmetry_group_IT_number 191
_symmetry_cell_setting 'hexagonal'
loop_
_space_group_symop_operation_xyz
x,y,z
x-y,x,z
-y,x-y,z
-x,-y,z
-x+y,-x,z
y,-x+y,z
x-y,-y,-z
-x,-x+y,-z
y,x,-z
-y,-x,-z
-x+y,y,-z
x,x-y,-z
-x,-y,-z
-x+y,-x,-z
y,-x+y,-z
x,y,-z
x-y,x,-z
-y,x-y,-z
-x+y,y,z
x,x-y,z
-y,-x,z
y,x,z
x-y,-y,z
-x,-x+y,z
loop_
_atom_site_type_symbol
_atom_site_label
_atom_site_fract_x
_atom_site_fract_y
_atom_site_fract_z
Si Si1 0.840343 0.680686 0.156490
Si Si2 0.525142 0.608403 0.000000
Si Si3 0.083115 0.684544 0.246952
Si Si4 0.078679 0.921322 0.844910
Si Si5 0.611179 0.527671 0.500000
O O1 0.765158 0.646371 0.219409
O O2 0.881009 0.762017 0.183849
O O3 0.835912 0.671824 0.000000
O O4 0.550643 0.653055 0.873210
O O5 0.563996 0.563996 0.000000
O O6 0.444949 0.555052 0.000000
O O7 0.103295 0.659029 0.374916
O O8 0.000000 0.650678 0.248496
O O9 0.000000 0.880818 0.799268
O O10 0.076328 0.923673 0.000000
O O11 0.566717 0.566717 0.500000
O O12 0.553400 0.446601 0.500000
#
# Coordination Sequence:
#
# PCOD9587614 Si02
#       5
#    12  12  24  12  12
#     4  11  20  30  45  70 107 142 176 218 276 326
#     4   9  16  27  46  70  95 122 155 194 242 302
#     4  10  19  31  48  71 103 135 167 207 254 311
#     4   9  17  28  44  65  95 140 194 240 276 316
#     4   9  18  33  52  74 101 128 157 196 248 304
#
# _framework density 15.762562000000001
#
# number of rings (size 3 to 8) (size 9 to 14) (size 15 to 20)
#    0.000    2.333    1.667    2.167    0.000    6.667 
#    0.000    0.000    0.000    0.000    0.000    0.000 
#   33.333    0.000    0.000   12.667    0.000    4.000 
#
# Total GULP energy -401115.068397 kJ/mol
# GULP energy per Si atom -5571.042617 kJ/mol
# Density = 1.572669 g / cm^3
# Si number density = 15.762562 Si / 1000 Ang^3
#
#
#
# Elastic Constant Matrix: (Units=GPa)
#
#
# Indices 1 2 3 4 5 6 
#
# 1 120.8242 75.6111 59.5349 0.0000 0.0000 0.0000
# 2 75.6111 120.8242 59.5349 0.0000 0.0000 0.0000
# 3 59.5349 59.5349 129.4143 0.0000 0.0000 0.0000
# 4 0.0000 0.0000 0.0000 5.2259 0.0000 0.0000
# 5 0.0000 0.0000 0.0000 0.0000 5.2259 0.0000
# 6 0.0000 0.0000 0.0000 0.0000 0.0000 22.6066
#
#
#
# Elastic Compliance Matrix: (Units=1/GPa)
#
#
# Indices 1 2 3 4 5 6 
#
# 1 0.014588 -0.007529 -0.003247 0.000000 0.000000 0.000000
# 2 -0.007529 0.014588 -0.003247 0.000000 0.000000 0.000000
# 3 -0.003247 -0.003247 0.010715 0.000000 0.000000 0.000000
# 4 0.000000 0.000000 0.000000 0.191353 0.000000 0.000000
# 5 0.000000 0.000000 0.000000 0.000000 0.191353 0.000000
# 6 0.000000 0.000000 0.000000 0.000000 0.000000 0.044235
#
#
# Mechanical properties :
#
#
# Convention : Reuss Voigt Hill
#
# Bulk Modulus (GPa) = 84.43425 84.49161 84.46293
# Shear Modulus (GPa) = 10.02348 18.37049 14.19698
#
# Velocity S-wave (km/s) = 2.52445 3.41757 3.00438
# Velocity P-wave (km/s) = 7.88541 8.32419 8.10777
#
# Compressibility (1/GPa) = 0.01184353
#
# Stress axis : x y z
#
# Youngs Moduli (GPa) = 68.54796 68.54796 93.32716
#
# Poissons Ratio (x) = 0.51611 0.30308
# Poissons Ratio (y) = 0.51611 0.30308
# Poissons Ratio (z) = 0.22261 0.22261
#
# Static dielectric constant tensor:
#      x y z
#    x 1.514270 0.000000 0.000000 
#    y 0.000000 1.514270 0.000000 
#    z 0.000000 0.000000 1.527160 
# 
# From -- ./inp_files/999.got.cif
#   From: 2010.05.17/outbox.cif.g08.bks.cpg/sg191_1_cif.got.tgz:999.got - 2010.05.20 12:20:32.
