data_PCOD9587944
_publ_section_title
;
Structure prediction by ZEFSAII (Michael W. Deem and Ramdas Pophale) SiO2 
 PCOD9587944
Probable space group: P 6/M M M
;
_chemical_formula_sum "Si O2"
_cell_formula_units_Z 132
_cell_length_a 17.849519
_cell_length_b 17.849519
_cell_length_c 27.898241
_cell_angle_alpha 90.000000
_cell_angle_beta 90.000000
_cell_angle_gamma 120.000000
_cell_volume 7697.691257
_symmetry_space_group_name_H-M "P 6/M M M"
_symmetry_group_IT_number 191
_symmetry_cell_setting 'hexagonal'
loop_
_space_group_symop_operation_xyz
x,y,z
x-y,x,z
-y,x-y,z
-x,-y,z
-x+y,-x,z
y,-x+y,z
x-y,-y,-z
-x,-x+y,-z
y,x,-z
-y,-x,-z
-x+y,y,-z
x,x-y,-z
-x,-y,-z
-x+y,-x,-z
y,-x+y,-z
x,y,-z
x-y,x,-z
-y,x-y,-z
-x+y,y,z
x,x-y,z
-y,-x,z
y,x,z
x-y,-y,z
-x,-x+y,z
loop_
_atom_site_type_symbol
_atom_site_label
_atom_site_fract_x
_atom_site_fract_y
_atom_site_fract_z
Si Si1 0.800255 0.900128 0.058369
Si Si2 0.401644 0.200822 0.942754
Si Si3 0.510587 0.667356 0.312276
Si Si4 0.899231 0.270644 0.405425
Si Si5 0.362403 0.897207 0.122332
Si Si6 0.467473 0.363110 0.500000
Si Si7 0.099602 0.370470 0.219342
O O1 0.849546 0.849546 0.074283
O O2 0.699769 0.849885 0.072346
O O3 0.802217 0.901109 0.000000
O O4 0.446506 0.150991 0.919993
O O5 0.405396 0.202698 0.000000
O O6 0.484865 0.742433 0.312457
O O7 0.426693 0.573308 0.312534
O O8 0.569714 0.684044 0.358946
O O9 0.568593 0.683687 0.265161
O O10 0.831364 0.168637 0.401573
O O11 0.874086 0.306646 0.452169
O O12 0.000000 0.299170 0.409213
O O13 0.434862 0.869724 0.127021
O O14 0.310142 0.882206 0.171648
O O15 0.412320 0.000000 0.113394
O O16 0.420880 0.420880 0.500000
O O17 0.569822 0.430179 0.500000
O O18 0.169690 0.339380 0.221955
O O19 0.000000 0.295771 0.218171
#
# Coordination Sequence:
#
# PCOD9587944 Si02
#       7
#    12  12  24  24  24  12  24
#     4   9  17  30  51  80 112 142 172 209 255 308
#     4  11  22  37  56  79 106 140 177 215 258 307
#     4  10  20  33  52  80 111 141 174 217 266 314
#     4  10  20  33  50  74 104 140 182 226 271 318
#     4  10  21  38  58  79 104 136 175 216 260 311
#     4   9  17  30  49  72 100 136 176 215 257 312
#     4  10  20  36  58  82 107 137 173 214 262 314
#
# _framework density 17.147998999999999
#
# number of rings (size 3 to 8) (size 9 to 14) (size 15 to 20)
#    0.000    2.091    0.909    2.727    0.000    4.727 
#    0.545    0.909    0.000    2.909    0.000    0.000 
#    0.000    6.545    0.000    0.000    0.000    0.727 
#
# Total GULP energy -736666.684077 kJ/mol
# GULP energy per Si atom -5580.808213 kJ/mol
# Density = 1.710897 g / cm^3
# Si number density = 17.147999 Si / 1000 Ang^3
#
#
#
# Elastic Constant Matrix: (Units=GPa)
#
#
# Indices 1 2 3 4 5 6 
#
# 1 104.0840 79.3904 40.0711 0.0000 0.0000 0.0000
# 2 79.3904 104.0840 40.0711 0.0000 0.0000 0.0000
# 3 40.0711 40.0711 112.4508 0.0000 0.0000 0.0000
# 4 0.0000 0.0000 0.0000 15.2185 0.0000 0.0000
# 5 0.0000 0.0000 0.0000 0.0000 15.2185 0.0000
# 6 0.0000 0.0000 0.0000 0.0000 0.0000 12.3468
#
#
#
# Elastic Compliance Matrix: (Units=1/GPa)
#
#
# Indices 1 2 3 4 5 6 
#
# 1 0.023476 -0.017021 -0.002300 0.000000 0.000000 0.000000
# 2 -0.017021 0.023476 -0.002300 0.000000 0.000000 0.000000
# 3 -0.002300 -0.002300 0.010532 0.000000 0.000000 0.000000
# 4 0.000000 0.000000 0.000000 0.065710 0.000000 0.000000
# 5 0.000000 0.000000 0.000000 0.000000 0.065710 0.000000
# 6 0.000000 0.000000 0.000000 0.000000 0.000000 0.080993
#
#
# Mechanical properties :
#
#
# Convention : Reuss Voigt Hill
#
# Bulk Modulus (GPa) = 70.21782 71.07598 70.64690
# Shear Modulus (GPa) = 15.72898 19.29584 17.51241
#
# Velocity S-wave (km/s) = 3.03190 3.35812 3.19917
# Velocity P-wave (km/s) = 7.30024 7.52160 7.41175
#
# Compressibility (1/GPa) = 0.01424140
#
# Stress axis : x y z
#
# Youngs Moduli (GPa) = 42.59722 42.59722 94.94765
#
# Poissons Ratio (x) = 0.72503 0.21840
# Poissons Ratio (y) = 0.72503 0.21840
# Poissons Ratio (z) = 0.09798 0.09798
#
# Static dielectric constant tensor:
#      x y z
#    x 1.570690 0.000000 0.000000 
#    y 0.000000 1.570690 0.000000 
#    z 0.000000 0.000000 1.573730 
# 
# From -- ./inp_files/8752.got.cif
#   From: 2010.05.17/outbox.cif.g08.bks.cpg/sg191_5_cif.got.tgz:8752.got - 2010.05.20 12:20:32.
