data_PCOD9587654
_publ_section_title
;
Structure prediction by ZEFSAII (Michael W. Deem and Ramdas Pophale) SiO2 
 PCOD9587654
Probable space group: P 6/M M M
;
_chemical_formula_sum "Si O2"
_cell_formula_units_Z 138
_cell_length_a 31.786002
_cell_length_b 31.786002
_cell_length_c 7.784161
_cell_angle_alpha 90.000000
_cell_angle_beta 90.000000
_cell_angle_gamma 120.000000
_cell_volume 6811.052915
_symmetry_space_group_name_H-M "P 6/M M M"
_symmetry_group_IT_number 191
_symmetry_cell_setting 'hexagonal'
loop_
_space_group_symop_operation_xyz
x,y,z
x-y,x,z
-y,x-y,z
-x,-y,z
-x+y,-x,z
y,-x+y,z
x-y,-y,-z
-x,-x+y,-z
y,x,-z
-y,-x,-z
-x+y,y,-z
x,x-y,-z
-x,-y,-z
-x+y,-x,-z
y,-x+y,-z
x,y,-z
x-y,x,-z
-y,x-y,-z
-x+y,y,z
x,x-y,z
-y,-x,z
y,x,z
x-y,-y,z
-x,-x+y,z
loop_
_atom_site_type_symbol
_atom_site_label
_atom_site_fract_x
_atom_site_fract_y
_atom_site_fract_z
Si Si1 0.763327 0.429987 0.789867
Si Si2 0.136141 0.768639 0.704682
Si Si3 0.207627 0.945168 0.202525
Si Si4 0.144732 0.675318 0.792864
Si Si5 0.882335 0.941168 0.000000
Si Si6 0.195186 0.097593 0.309969
Si Si7 0.945652 0.424354 0.790278
O O1 0.711446 0.422891 0.736789
O O2 0.770122 0.385061 0.735077
O O3 0.806780 0.482361 0.732431
O O4 0.763806 0.430056 0.000000
O O5 0.135646 0.772326 0.500000
O O6 0.183210 0.816791 0.773544
O O7 0.088779 0.769074 0.770084
O O8 0.141203 0.722322 0.747991
O O9 0.155424 0.924717 0.289842
O O10 0.243395 0.000000 0.260421
O O11 0.198419 0.945568 0.000000
O O12 0.097131 0.626929 0.729395
O O13 0.145184 0.672632 0.000000
O O14 0.915025 0.915025 0.000000
O O15 0.846201 0.923101 0.164712
O O16 0.173269 0.086635 0.500000
O O17 0.937112 0.468556 0.740244
O O18 0.000000 0.439232 0.735432
O O19 0.945407 0.423504 0.000000
#
# Coordination Sequence:
#
# PCOD9587654 Si02
#       7
#    24  24  24  24   6  12  24
#     4   9  16  26  43  70 102 135 176 233 302 371
#     4  11  24  40  56  79 114 156 197 238 291 354
#     4  11  23  41  67  97 126 159 205 259 312 369
#     4  10  19  31  51  77 105 140 185 236 293 358
#     4  12  27  48  72 104 144 188 236 284 334 390
#     4  12  24  43  71 103 138 176 222 276 332 390
#     4   8  14  26  46  73 104 137 177 228 282 339
#
# _framework density 20.261182999999999
#
# number of rings (size 3 to 8) (size 9 to 14) (size 15 to 20)
#    0.000    1.913    1.739    3.348    0.000    7.652 
#    0.000    1.739    0.000    2.609    0.000    1.217 
#    0.000    1.391    0.000    0.000    0.000    0.000 
#
# Total GULP energy -771056.420244 kJ/mol
# GULP energy per Si atom -5587.365364 kJ/mol
# Density = 2.021507 g / cm^3
# Si number density = 20.261183 Si / 1000 Ang^3
#
#
#
# Elastic Constant Matrix: (Units=GPa)
#
#
# Indices 1 2 3 4 5 6 
#
# 1 166.7457 113.3329 19.1830 0.0000 0.0000 0.0000
# 2 113.3329 166.7457 19.1830 0.0000 0.0000 0.0000
# 3 19.1830 19.1830 56.8037 0.0000 0.0000 0.0000
# 4 0.0000 0.0000 0.0000 94.5915 0.0000 0.0000
# 5 0.0000 0.0000 0.0000 0.0000 94.5915 0.0000
# 6 0.0000 0.0000 0.0000 0.0000 0.0000 26.7064
#
#
#
# Elastic Compliance Matrix: (Units=1/GPa)
#
#
# Indices 1 2 3 4 5 6 
#
# 1 0.011233 -0.007489 -0.001264 0.000000 0.000000 0.000000
# 2 -0.007489 0.011233 -0.001264 0.000000 0.000000 0.000000
# 3 -0.001264 -0.001264 0.018458 0.000000 0.000000 0.000000
# 4 0.000000 0.000000 0.000000 0.010572 0.000000 0.000000
# 5 0.000000 0.000000 0.000000 0.000000 0.010572 0.000000
# 6 0.000000 0.000000 0.000000 0.000000 0.000000 0.037444
#
#
# Mechanical properties :
#
#
# Convention : Reuss Voigt Hill
#
# Bulk Modulus (GPa) = 47.87294 77.07697 62.47495
# Shear Modulus (GPa) = 39.52253 59.08430 49.30342
#
# Velocity S-wave (km/s) = 4.42141 5.40598 4.93829
# Velocity P-wave (km/s) = 7.05297 8.78012 7.96351
#
# Compressibility (1/GPa) = 0.02088863
#
# Stress axis : x y z
#
# Youngs Moduli (GPa) = 89.02464 89.02464 54.17595
#
# Poissons Ratio (x) = 0.66673 0.06849
# Poissons Ratio (y) = 0.66673 0.06849
# Poissons Ratio (z) = 0.11255 0.11255
#
# Static dielectric constant tensor:
#      x y z
#    x 1.703960 0.000000 0.000000 
#    y 0.000000 1.703960 0.000000 
#    z 0.000000 0.000000 1.746540 
# 
# From -- ./inp_files/2044.got.cif
#   From: 2010.05.17/outbox.cif.g08.bks.cpg/sg191_2_cif.got.tgz:2044.got - 2010.05.20 12:20:32.
