data_PCOD9587345
_publ_section_title
;
Structure prediction by ZEFSAII (Michael W. Deem and Ramdas Pophale) SiO2 
 PCOD9587345
Probable space group: P 6/M M M
;
_chemical_formula_sum "Si O2"
_cell_formula_units_Z 100
_cell_length_a 27.385256
_cell_length_b 27.385256
_cell_length_c 7.462177
_cell_angle_alpha 90.000000
_cell_angle_beta 90.000000
_cell_angle_gamma 120.000000
_cell_volume 4846.517531
_symmetry_space_group_name_H-M "P 6/M M M"
_symmetry_group_IT_number 191
_symmetry_cell_setting 'hexagonal'
loop_
_space_group_symop_operation_xyz
x,y,z
x-y,x,z
-y,x-y,z
-x,-y,z
-x+y,-x,z
y,-x+y,z
x-y,-y,-z
-x,-x+y,-z
y,x,-z
-y,-x,-z
-x+y,y,-z
x,x-y,-z
-x,-y,-z
-x+y,-x,-z
y,-x+y,-z
x,y,-z
x-y,x,-z
-y,x-y,-z
-x+y,y,z
x,x-y,z
-y,-x,z
y,x,z
x-y,-y,z
-x,-x+y,z
loop_
_atom_site_type_symbol
_atom_site_label
_atom_site_fract_x
_atom_site_fract_y
_atom_site_fract_z
Si Si1 0.532711 0.065421 0.780804
Si Si2 0.337684 0.861290 0.780735
Si Si3 0.763446 0.124783 0.215519
Si Si4 0.061824 0.828738 0.712395
Si Si5 0.666667 0.333334 0.286533
Si Si6 0.732441 0.464881 0.790780
O O1 0.597987 0.100338 0.722706
O O2 0.500000 0.000000 0.724251
O O3 0.532503 0.065006 0.000000
O O4 0.296500 0.884680 0.725228
O O5 0.306285 0.795897 0.719402
O O6 0.339467 0.860896 0.000000
O O7 0.814369 0.185632 0.278252
O O8 0.780880 0.079121 0.266884
O O9 0.763704 0.126953 0.000000
O O10 0.059665 0.837146 0.500000
O O11 0.113578 0.886423 0.787428
O O12 0.000000 0.807456 0.787813
O O13 0.666667 0.333334 0.500000
O O14 0.602271 0.301136 0.223475
O O15 0.740708 0.481416 0.000000
#
# Coordination Sequence:
#
# PCOD9587345 Si02
#       6
#    12  24  24  24   4  12
#     4   9  17  26  36  59  95 125 147 179 231 287
#     4   9  16  28  48  70  91 119 158 199 235 281
#     4   9  16  28  47  72  98 118 147 197 246 284
#     4   9  18  32  49  70  97 129 163 195 232 283
#     4  12  25  35  43  69 106 128 157 210 265 308
#     4  10  18  33  55  72  87 122 170 207 242 291
#
# _framework density 20.633369999999999
#
# number of rings (size 3 to 8) (size 9 to 14) (size 15 to 20)
#    0.000    2.760    1.200    1.080    0.000    3.360 
#    0.000    3.600    0.000    0.240    0.000    1.680 
#    0.000    4.800    0.000    6.000    0.000    6.240 
#
# Total GULP energy -558036.824815 kJ/mol
# GULP energy per Si atom -5580.368248 kJ/mol
# Density = 2.058641 g / cm^3
# Si number density = 20.633370 Si / 1000 Ang^3
#
#
#
# Elastic Constant Matrix: (Units=GPa)
#
#
# Indices 1 2 3 4 5 6 
#
# 1 157.3468 136.5601 3.4764 0.0000 0.0000 0.0005
# 2 136.5601 157.3446 3.4776 -0.0001 0.0000 -0.0006
# 3 3.4764 3.4776 59.1506 0.0000 0.0000 0.0001
# 4 0.0000 -0.0001 0.0000 5.2912 0.0000 0.0000
# 5 0.0000 0.0000 0.0000 0.0000 5.2911 0.0000
# 6 0.0005 -0.0006 0.0001 0.0000 0.0000 10.4012
#
#
#
# Elastic Compliance Matrix: (Units=1/GPa)
#
#
# Indices 1 2 3 4 5 6 
#
# 1 0.025759 -0.022352 -0.000200 0.000000 0.000000 -0.000003
# 2 -0.022352 0.025759 -0.000201 0.000000 0.000000 0.000003
# 3 -0.000200 -0.000201 0.016930 0.000000 0.000000 0.000000
# 4 0.000000 0.000000 0.000000 0.188993 0.000000 0.000000
# 5 0.000000 0.000000 0.000000 0.000000 0.188997 0.000001
# 6 -0.000003 0.000003 0.000000 0.000000 0.000001 0.096142
#
#
# Mechanical properties :
#
#
# Convention : Reuss Voigt Hill
#
# Bulk Modulus (GPa) = 43.58666 73.43002 58.50834
# Shear Modulus (GPa) = 8.39304 19.55190 13.97247
#
# Velocity S-wave (km/s) = 2.01904 3.08163 2.60509
# Velocity P-wave (km/s) = 5.15806 6.95177 6.12098
#
# Compressibility (1/GPa) = 0.02294280
#
# Stress axis : x y z
#
# Youngs Moduli (GPa) = 38.82207 38.82151 59.06834
#
# Poissons Ratio (x) = 0.86772 0.01180
# Poissons Ratio (y) = 0.86773 0.01186
# Poissons Ratio (z) = 0.00776 0.00779
#
# Static dielectric constant tensor:
#      x y z
#    x 1.735260 0.000000 0.000000 
#    y 0.000000 1.735300 0.000000 
#    z 0.000000 0.000000 1.798360 
# 
# From -- ./inp_files/1476.got.cif
#   From: 2010.05.17/outbox.cif.g08.bks.cpg/sg191_1_cif.got.tgz:1476.got - 2010.05.20 12:20:32.
