data_PCOD9587394
_publ_section_title
;
Structure prediction by ZEFSAII (Michael W. Deem and Ramdas Pophale) SiO2 
 PCOD9587394
Probable space group: P 6/M M M
;
_chemical_formula_sum "Si O2"
_cell_formula_units_Z 168
_cell_length_a 23.312991
_cell_length_b 23.312991
_cell_length_c 24.252835
_cell_angle_alpha 90.000000
_cell_angle_beta 90.000000
_cell_angle_gamma 120.000000
_cell_volume 11415.347481
_symmetry_space_group_name_H-M "P 6/M M M"
_symmetry_group_IT_number 191
_symmetry_cell_setting 'hexagonal'
loop_
_space_group_symop_operation_xyz
x,y,z
x-y,x,z
-y,x-y,z
-x,-y,z
-x+y,-x,z
y,-x+y,z
x-y,-y,-z
-x,-x+y,-z
y,x,-z
-y,-x,-z
-x+y,y,-z
x,x-y,-z
-x,-y,-z
-x+y,-x,-z
y,-x+y,-z
x,y,-z
x-y,x,-z
-y,x-y,-z
-x+y,y,z
x,x-y,z
-y,-x,z
y,x,z
x-y,-y,z
-x,-x+y,z
loop_
_atom_site_type_symbol
_atom_site_label
_atom_site_fract_x
_atom_site_fract_y
_atom_site_fract_z
Si Si1 0.919952 0.392517 0.844742
Si Si2 0.205168 0.924884 0.436032
Si Si3 0.269788 0.404896 0.767151
Si Si4 0.470181 0.077492 0.437160
Si Si5 0.714456 0.922385 0.849714
Si Si6 0.304349 0.920041 0.062209
Si Si7 0.589977 0.728227 0.637544
O O1 0.904856 0.452428 0.845291
O O2 0.883817 0.338456 0.796974
O O3 0.901101 0.350276 0.901428
O O4 0.000000 0.426306 0.837974
O O5 0.221992 0.919318 0.500000
O O6 0.128262 0.871739 0.428528
O O7 0.245565 0.904198 0.395346
O O8 0.224846 0.000000 0.426515
O O9 0.211486 0.422972 0.775221
O O10 0.241947 0.333924 0.797264
O O11 0.279648 0.401613 0.702167
O O12 0.462436 0.095357 0.500000
O O13 0.541150 0.082299 0.433349
O O14 0.460745 0.121535 0.392326
O O15 0.416011 0.000000 0.429020
O O16 0.740079 0.870040 0.848142
O O17 0.664753 0.905064 0.901871
O O18 0.768502 0.000000 0.852035
O O19 0.345945 0.000000 0.058921
O O20 0.290399 0.893659 0.000000
O O21 0.571125 0.785563 0.631588
#
# Coordination Sequence:
#
# PCOD9587394 Si02
#       7
#    24  24  24  24  24  24  24
#     4   9  17  28  43  65  91 115 139 171 211 253
#     4   9  17  28  42  61  84 108 134 168 212 259
#     4   9  18  31  44  60  85 115 146 179 214 255
#     4   9  18  31  45  63  88 115 140 167 204 253
#     4   9  17  29  44  62  87 118 149 182 220 261
#     4   8  14  25  41  62  88 115 140 167 203 248
#     4  10  19  29  44  65  85 108 141 180 218 254
#
# _framework density 14.717029
#
# number of rings (size 3 to 8) (size 9 to 14) (size 15 to 20)
#    0.000    3.000    0.000    2.571    0.000    5.429 
#    0.000    2.857    0.000    0.857    0.000    1.000 
#    0.000    0.000    0.000   11.143    0.000    4.286 
#
# Total GULP energy -935373.928250 kJ/mol
# GULP energy per Si atom -5567.701954 kJ/mol
# Density = 1.468353 g / cm^3
# Si number density = 14.717029 Si / 1000 Ang^3
#
#
#
# Elastic Constant Matrix: (Units=GPa)
#
#
# Indices 1 2 3 4 5 6 
#
# 1 72.9045 40.0495 45.2034 0.0000 0.0000 0.0000
# 2 40.0495 72.9045 45.2034 0.0000 0.0000 0.0000
# 3 45.2034 45.2034 113.0671 0.0000 0.0000 0.0000
# 4 0.0000 0.0000 0.0000 13.9896 0.0000 0.0000
# 5 0.0000 0.0000 0.0000 0.0000 13.9896 0.0000
# 6 0.0000 0.0000 0.0000 0.0000 0.0000 16.4275
#
#
#
# Elastic Compliance Matrix: (Units=1/GPa)
#
#
# Indices 1 2 3 4 5 6 
#
# 1 0.021728 -0.008709 -0.005205 0.000000 0.000000 0.000000
# 2 -0.008709 0.021728 -0.005205 0.000000 0.000000 0.000000
# 3 -0.005205 -0.005205 0.013006 0.000000 0.000000 0.000000
# 4 0.000000 0.000000 0.000000 0.071482 0.000000 0.000000
# 5 0.000000 0.000000 0.000000 0.000000 0.071482 0.000000
# 6 0.000000 0.000000 0.000000 0.000000 0.000000 0.060873
#
#
# Mechanical properties :
#
#
# Convention : Reuss Voigt Hill
#
# Bulk Modulus (GPa) = 54.87100 57.75430 56.31265
# Shear Modulus (GPa) = 16.41440 17.44268 16.92854
#
# Velocity S-wave (km/s) = 3.34328 3.44641 3.39524
# Velocity P-wave (km/s) = 7.22969 7.42734 7.32918
#
# Compressibility (1/GPa) = 0.01822456
#
# Stress axis : x y z
#
# Youngs Moduli (GPa) = 46.02373 46.02373 76.88688
#
# Poissons Ratio (x) = 0.40081 0.40019
# Poissons Ratio (y) = 0.40081 0.40019
# Poissons Ratio (z) = 0.23955 0.23955
#
# Static dielectric constant tensor:
#      x y z
#    x 1.479300 0.000000 0.000000 
#    y 0.000000 1.479300 0.000000 
#    z 0.000000 0.000000 1.499650 
# 
# From -- ./inp_files/9169.got.cif
#   From: 2010.05.17/outbox.cif.g08.bks.cpg/sg191_5_cif.got.tgz:9169.got - 2010.05.20 12:20:32.
