data_PCOD9587281
_publ_section_title
;
Structure prediction by ZEFSAII (Michael W. Deem and Ramdas Pophale) SiO2 
 PCOD9587281
Probable space group: P 6/M M M
;
_chemical_formula_sum "Si O2"
_cell_formula_units_Z 168
_cell_length_a 29.934604
_cell_length_b 29.934604
_cell_length_c 14.570686
_cell_angle_alpha 90.000000
_cell_angle_beta 90.000000
_cell_angle_gamma 120.000000
_cell_volume 11307.267473
_symmetry_space_group_name_H-M "P 6/M M M"
_symmetry_group_IT_number 191
_symmetry_cell_setting 'hexagonal'
loop_
_space_group_symop_operation_xyz
x,y,z
x-y,x,z
-y,x-y,z
-x,-y,z
-x+y,-x,z
y,-x+y,z
x-y,-y,-z
-x,-x+y,-z
y,x,-z
-y,-x,-z
-x+y,y,-z
x,x-y,-z
-x,-y,-z
-x+y,-x,-z
y,-x+y,-z
x,y,-z
x-y,x,-z
-y,x-y,-z
-x+y,y,z
x,x-y,z
-y,-x,z
y,x,z
x-y,-y,z
-x,-x+y,z
loop_
_atom_site_type_symbol
_atom_site_label
_atom_site_fract_x
_atom_site_fract_y
_atom_site_fract_z
Si Si1 0.130595 0.764397 0.105556
Si Si2 0.417987 0.479980 0.728660
Si Si3 0.468692 0.346875 0.107351
Si Si4 0.768254 0.435214 0.888415
Si Si5 0.249848 0.938746 0.725689
Si Si6 0.062760 0.664722 0.605052
Si Si7 0.941134 0.779889 0.609098
O O1 0.189215 0.810786 0.118724
O O2 0.125461 0.708398 0.115816
O O3 0.093780 0.767706 0.181219
O O4 0.116292 0.768172 0.000000
O O5 0.459831 0.540170 0.715663
O O6 0.449832 0.449832 0.725717
O O7 0.389364 0.469386 0.826047
O O8 0.373167 0.452652 0.652670
O O9 0.516718 0.339899 0.135623
O O10 0.474541 0.362121 0.000000
O O11 0.720440 0.440879 0.855890
O O12 0.763544 0.381772 0.857876
O O13 0.766385 0.434157 0.000000
O O14 0.285198 0.922473 0.666513
O O15 0.201758 0.931557 0.665502
O O16 0.284906 0.000000 0.745211
O O17 0.080386 0.677430 0.500000
O O18 0.000000 0.633292 0.603505
O O19 0.938253 0.768551 0.500000
O O20 0.896850 0.793700 0.630256
O O21 0.000000 0.824216 0.628192
#
# Coordination Sequence:
#
# PCOD9587281 Si02
#       7
#    24  24  24  24  24  24  24
#     4  10  20  32  46  65  90 121 156 189 222 267
#     4  10  20  32  45  64  88 114 148 185 221 265
#     4  10  19  31  45  61  85 117 149 181 221 266
#     4   9  16  26  41  60  80 102 131 168 211 259
#     4  10  18  30  48  69  93 121 155 194 234 273
#     4   9  17  30  47  66  88 113 143 183 228 272
#     4   9  17  29  47  72 100 129 161 198 239 281
#
# _framework density 14.857702
#
# number of rings (size 3 to 8) (size 9 to 14) (size 15 to 20)
#    0.000    2.429    1.429    1.857    0.000    5.714 
#    0.000    3.571    0.000    0.143    0.000    1.000 
#    0.000    0.000    0.000    0.000    0.000    0.571 
#
# Total GULP energy -935957.427375 kJ/mol
# GULP energy per Si atom -5571.175163 kJ/mol
# Density = 1.482388 g / cm^3
# Si number density = 14.857702 Si / 1000 Ang^3
#
#
#
# Elastic Constant Matrix: (Units=GPa)
#
#
# Indices 1 2 3 4 5 6 
#
# 1 61.6946 30.6298 33.6768 0.0000 0.0000 0.0000
# 2 30.6298 61.6946 33.6768 0.0000 0.0000 0.0000
# 3 33.6768 33.6768 70.1187 0.0000 0.0000 0.0000
# 4 0.0000 0.0000 0.0000 16.4568 0.0000 0.0000
# 5 0.0000 0.0000 0.0000 0.0000 16.4568 0.0000
# 6 0.0000 0.0000 0.0000 0.0000 0.0000 15.5324
#
#
#
# Elastic Compliance Matrix: (Units=1/GPa)
#
#
# Indices 1 2 3 4 5 6 
#
# 1 0.024432 -0.007759 -0.008008 0.000000 0.000000 0.000000
# 2 -0.007759 0.024432 -0.008008 0.000000 0.000000 0.000000
# 3 -0.008008 -0.008008 0.021954 0.000000 0.000000 0.000000
# 4 0.000000 0.000000 0.000000 0.060765 0.000000 0.000000
# 5 0.000000 0.000000 0.000000 0.000000 0.060765 0.000000
# 6 0.000000 0.000000 0.000000 0.000000 0.000000 0.064381
#
#
# Mechanical properties :
#
#
# Convention : Reuss Voigt Hill
#
# Bulk Modulus (GPa) = 42.97611 43.27493 43.12552
# Shear Modulus (GPa) = 16.02384 16.05751 16.04068
#
# Velocity S-wave (km/s) = 3.28760 3.29105 3.28932
# Velocity P-wave (km/s) = 6.58779 6.60536 6.59658
#
# Compressibility (1/GPa) = 0.02326874
#
# Stress axis : x y z
#
# Youngs Moduli (GPa) = 40.92979 40.92979 45.55041
#
# Poissons Ratio (x) = 0.31756 0.36477
# Poissons Ratio (y) = 0.31756 0.36477
# Poissons Ratio (z) = 0.32776 0.32776
#
# Static dielectric constant tensor:
#      x y z
#    x 1.491100 0.000000 0.000000 
#    y 0.000000 1.491100 0.000000 
#    z 0.000000 0.000000 1.482140 
# 
# From -- ./inp_files/3596.got.cif
#   From: 2010.05.17/outbox.cif.g08.bks.cpg/sg191_2_cif.got.tgz:3596.got - 2010.05.20 12:20:32.
