data_PCOD9587535
_publ_section_title
;
Structure prediction by ZEFSAII (Michael W. Deem and Ramdas Pophale) SiO2 
 PCOD9587535
Probable space group: P 6/M M M
;
_chemical_formula_sum "Si O2"
_cell_formula_units_Z 108
_cell_length_a 32.399849
_cell_length_b 32.399849
_cell_length_c 7.663489
_cell_angle_alpha 90.000000
_cell_angle_beta 90.000000
_cell_angle_gamma 120.000000
_cell_volume 6966.957198
_symmetry_space_group_name_H-M "P 6/M M M"
_symmetry_group_IT_number 191
_symmetry_cell_setting 'hexagonal'
loop_
_space_group_symop_operation_xyz
x,y,z
x-y,x,z
-y,x-y,z
-x,-y,z
-x+y,-x,z
y,-x+y,z
x-y,-y,-z
-x,-x+y,-z
y,x,-z
-y,-x,-z
-x+y,y,-z
x,x-y,-z
-x,-y,-z
-x+y,-x,-z
y,-x+y,-z
x,y,-z
x-y,x,-z
-y,x-y,-z
-x+y,y,z
x,x-y,z
-y,-x,z
y,x,z
x-y,-y,z
-x,-x+y,z
loop_
_atom_site_type_symbol
_atom_site_label
_atom_site_fract_x
_atom_site_fract_y
_atom_site_fract_z
Si Si1 0.148201 0.389895 0.208542
Si Si2 0.200378 0.146690 0.286829
Si Si3 0.505196 0.702475 0.200056
Si Si4 0.568060 0.234118 0.500000
Si Si5 0.946827 0.705343 0.709662
O O1 0.190263 0.380526 0.275893
O O2 0.159192 0.442018 0.268226
O O3 0.096404 0.345985 0.244091
O O4 0.153783 0.394677 0.000000
O O5 0.200351 0.146192 0.500000
O O6 0.191837 0.095919 0.226818
O O7 0.162187 0.162187 0.232830
O O8 0.252325 0.189538 0.231673
O O9 0.506444 0.753222 0.196313
O O10 0.463266 0.669851 0.330829
O O11 0.498138 0.684881 0.000000
O O12 0.618837 0.237673 0.500000
O O13 0.573573 0.286787 0.500000
O O14 0.948704 0.707683 0.500000
O O15 0.000000 0.720074 0.771915
#
# Coordination Sequence:
#
# PCOD9587535 Si02
#       5
#    24  24  24  12  24
#     4   9  17  28  42  60  82 111 145 175 208 255
#     4   8  13  21  32  47  68  95 128 166 207 250
#     4   8  16  30  44  62  89 117 149 187 221 259
#     4  10  19  30  46  68  93 123 155 185 218 253
#     4   9  17  26  37  57  82 106 136 171 207 256
#
# _framework density 15.501747
#
# number of rings (size 3 to 8) (size 9 to 14) (size 15 to 20)
#    0.000    3.333    0.000    3.444    1.556    2.222 
#    0.000    0.000    0.000    1.556    0.000    1.556 
#    0.000    1.778    0.000    4.889    0.000    0.000 
#
# Total GULP energy -601318.516437 kJ/mol
# GULP energy per Si atom -5567.764041 kJ/mol
# Density = 1.546646 g / cm^3
# Si number density = 15.501747 Si / 1000 Ang^3
#
#
#
# Elastic Constant Matrix: (Units=GPa)
#
#
# Indices 1 2 3 4 5 6 
#
# 1 113.2888 63.8233 28.8487 0.0000 0.0000 0.0000
# 2 63.8233 113.2888 28.8487 0.0000 0.0000 0.0000
# 3 28.8487 28.8487 45.7828 0.0000 0.0000 0.0000
# 4 0.0000 0.0000 0.0000 -6.4733 0.0000 0.0000
# 5 0.0000 0.0000 0.0000 0.0000 -6.4733 0.0000
# 6 0.0000 0.0000 0.0000 0.0000 0.0000 24.7327
#
#
#
# Elastic Compliance Matrix: (Units=1/GPa)
#
#
# Indices 1 2 3 4 5 6 
#
# 1 0.013660 -0.006556 -0.004477 0.000000 0.000000 0.000000
# 2 -0.006556 0.013660 -0.004477 0.000000 0.000000 0.000000
# 3 -0.004477 -0.004477 0.027484 0.000000 0.000000 0.000000
# 4 0.000000 0.000000 0.000000 -0.154480 0.000000 0.000000
# 5 0.000000 0.000000 0.000000 0.000000 -0.154480 0.000000
# 6 0.000000 0.000000 0.000000 0.000000 0.000000 0.040432
#
#
# Mechanical properties :
#
#
# Convention : Reuss Voigt Hill
#
# Bulk Modulus (GPa) = 42.04118 57.26687 49.65402
# Shear Modulus (GPa) = -28.60798 12.41319 -8.09739
#
# Velocity S-wave (km/s) = -4.30055 2.83284 -2.28799
# Velocity P-wave (km/s) = 1.58729 6.90814 5.01208
#
# Compressibility (1/GPa) = 0.02378620
#
# Stress axis : x y z
#
# Youngs Moduli (GPa) = 73.20476 73.20476 36.38479
#
# Poissons Ratio (x) = 0.47992 0.16288
# Poissons Ratio (y) = 0.47992 0.16288
# Poissons Ratio (z) = 0.32772 0.32772
#
# Static dielectric constant tensor:
#      x y z
#    x 1.513140 0.000000 0.000000 
#    y 0.000000 1.513140 0.000000 
#    z 0.000000 0.000000 1.590660 
# 
# From -- ./inp_files/1693.got.cif
#   From: 2010.05.17/outbox.cif.g08.bks.cpg/sg191_1_cif.got.tgz:1693.got - 2010.05.20 12:20:32.
