data_PCOD9587834
_publ_section_title
;
Structure prediction by ZEFSAII (Michael W. Deem and Ramdas Pophale) SiO2 
 PCOD9587834
Probable space group: P 6/M M M
;
_chemical_formula_sum "Si O2"
_cell_formula_units_Z 168
_cell_length_a 21.939356
_cell_length_b 21.939356
_cell_length_c 24.457875
_cell_angle_alpha 90.000000
_cell_angle_beta 90.000000
_cell_angle_gamma 120.000000
_cell_volume 10195.231776
_symmetry_space_group_name_H-M "P 6/M M M"
_symmetry_group_IT_number 191
_symmetry_cell_setting 'hexagonal'
loop_
_space_group_symop_operation_xyz
x,y,z
x-y,x,z
-y,x-y,z
-x,-y,z
-x+y,-x,z
y,-x+y,z
x-y,-y,-z
-x,-x+y,-z
y,x,-z
-y,-x,-z
-x+y,y,-z
x,x-y,-z
-x,-y,-z
-x+y,-x,-z
y,-x+y,-z
x,y,-z
x-y,x,-z
-y,x-y,-z
-x+y,y,z
x,x-y,z
-y,-x,z
y,x,z
x-y,-y,z
-x,-x+y,z
loop_
_atom_site_type_symbol
_atom_site_label
_atom_site_fract_x
_atom_site_fract_y
_atom_site_fract_z
Si Si1 0.780770 0.079611 0.654592
Si Si2 0.334594 0.917590 0.726609
Si Si3 0.921617 0.211913 0.065814
Si Si4 0.812114 0.477313 0.638929
Si Si5 0.157820 0.699799 0.062643
Si Si6 0.403031 0.081366 0.564136
Si Si7 0.609219 0.081132 0.839758
O O1 0.860831 0.139170 0.656351
O O2 0.737209 0.088497 0.704398
O O3 0.742958 0.088883 0.600715
O O4 0.764231 0.000000 0.655114
O O5 0.345335 0.862514 0.690727
O O6 0.336959 0.903046 0.790420
O O7 0.394165 0.000000 0.717394
O O8 0.864650 0.135351 0.087478
O O9 0.888724 0.262474 0.072272
O O10 0.000000 0.246601 0.088457
O O11 0.925487 0.205246 0.000000
O O12 0.741538 0.483075 0.640894
O O13 0.794620 0.397310 0.636954
O O14 0.861014 0.521902 0.587854
O O15 0.238580 0.761421 0.067685
O O16 0.132198 0.641916 0.109081
O O17 0.145992 0.673648 0.000000
O O18 0.396845 0.091083 0.500000
O O19 0.383484 0.000000 0.572684
O O20 0.542873 0.085745 0.817216
O O21 0.578200 0.000000 0.857613
#
# Coordination Sequence:
#
# PCOD9587834 Si02
#       7
#    24  24  24  24  24  24  24
#     4   9  17  30  50  75 102 131 162 198 239 280
#     4   9  18  33  52  72  92 117 153 197 243 284
#     4   8  13  22  37  56  78 105 137 172 209 250
#     4  11  22  34  48  66  92 126 161 196 235 286
#     4   9  18  31  46  65  89 119 154 187 219 261
#     4   9  18  32  51  74  95 119 158 207 253 291
#     4  10  20  32  48  72  98 119 142 180 232 287
#
# _framework density 16.478290999999999
#
# number of rings (size 3 to 8) (size 9 to 14) (size 15 to 20)
#    0.000    2.714    0.000    4.857    0.000    5.429 
#    0.000    1.429    0.000    1.429    0.000    1.000 
#    0.000    0.000    0.000    3.571    0.000   18.571 
#
# Total GULP energy -935876.860681 kJ/mol
# GULP energy per Si atom -5570.695599 kJ/mol
# Density = 1.644079 g / cm^3
# Si number density = 16.478291 Si / 1000 Ang^3
#
#
#
# Elastic Constant Matrix: (Units=GPa)
#
#
# Indices 1 2 3 4 5 6 
#
# 1 73.4596 38.6072 29.2557 0.0000 0.0000 0.0000
# 2 38.6072 73.4596 29.2557 0.0000 0.0000 0.0000
# 3 29.2557 29.2557 83.2099 0.0000 0.0000 0.0000
# 4 0.0000 0.0000 0.0000 7.4999 0.0000 0.0000
# 5 0.0000 0.0000 0.0000 0.0000 7.4999 0.0000
# 6 0.0000 0.0000 0.0000 0.0000 0.0000 17.4262
#
#
#
# Elastic Compliance Matrix: (Units=1/GPa)
#
#
# Indices 1 2 3 4 5 6 
#
# 1 0.019811 -0.008881 -0.003843 0.000000 0.000000 0.000000
# 2 -0.008881 0.019811 -0.003843 0.000000 0.000000 0.000000
# 3 -0.003843 -0.003843 0.014720 0.000000 0.000000 0.000000
# 4 0.000000 0.000000 0.000000 0.133336 0.000000 0.000000
# 5 0.000000 0.000000 0.000000 0.000000 0.133336 0.000000
# 6 0.000000 0.000000 0.000000 0.000000 0.000000 0.057385
#
#
# Mechanical properties :
#
#
# Convention : Reuss Voigt Hill
#
# Bulk Modulus (GPa) = 47.15159 47.15181 47.15170
# Shear Modulus (GPa) = 11.94454 15.35254 13.64854
#
# Velocity S-wave (km/s) = 2.69525 3.05566 2.88110
# Velocity P-wave (km/s) = 6.19373 6.41296 6.30430
#
# Compressibility (1/GPa) = 0.02120819
#
# Stress axis : x y z
#
# Youngs Moduli (GPa) = 50.47691 50.47691 67.93513
#
# Poissons Ratio (x) = 0.44831 0.26106
# Poissons Ratio (y) = 0.44831 0.26106
# Poissons Ratio (z) = 0.19397 0.19397
#
# Static dielectric constant tensor:
#      x y z
#    x 1.554960 0.000000 0.000000 
#    y 0.000000 1.554960 0.000000 
#    z 0.000000 0.000000 1.559770 
# 
# From -- ./inp_files/8970.got.cif
#   From: 2010.05.17/outbox.cif.g08.bks.cpg/sg191_5_cif.got.tgz:8970.got - 2010.05.20 12:20:32.
