data_PCOD9587607
_publ_section_title
;
Structure prediction by ZEFSAII (Michael W. Deem and Ramdas Pophale) SiO2 
 PCOD9587607
Probable space group: P 6/M M M
;
_chemical_formula_sum "Si O2"
_cell_formula_units_Z 132
_cell_length_a 17.836535
_cell_length_b 17.836535
_cell_length_c 30.750851
_cell_angle_alpha 90.000000
_cell_angle_beta 90.000000
_cell_angle_gamma 120.000000
_cell_volume 8472.444866
_symmetry_space_group_name_H-M "P 6/M M M"
_symmetry_group_IT_number 191
_symmetry_cell_setting 'hexagonal'
loop_
_space_group_symop_operation_xyz
x,y,z
x-y,x,z
-y,x-y,z
-x,-y,z
-x+y,-x,z
y,-x+y,z
x-y,-y,-z
-x,-x+y,-z
y,x,-z
-y,-x,-z
-x+y,y,-z
x,x-y,-z
-x,-y,-z
-x+y,-x,-z
y,-x+y,-z
x,y,-z
x-y,x,-z
-y,x-y,-z
-x+y,y,z
x,x-y,z
-y,-x,z
y,x,z
x-y,-y,z
-x,-x+y,z
loop_
_atom_site_type_symbol
_atom_site_label
_atom_site_fract_x
_atom_site_fract_y
_atom_site_fract_z
Si Si1 0.098893 0.366443 0.630053
Si Si2 0.373110 0.101838 0.200182
Si Si3 0.363181 0.467693 0.286785
Si Si4 0.843089 0.333361 0.549767
Si Si5 0.409213 0.000000 0.049503
Si Si6 0.155165 0.487313 0.886326
O O1 0.166022 0.332044 0.628113
O O2 0.127628 0.435137 0.669486
O O3 0.107099 0.417321 0.585537
O O4 0.000000 0.294358 0.637479
O O5 0.337537 0.168769 0.197034
O O6 0.431074 0.124952 0.243680
O O7 0.435611 0.119897 0.158897
O O8 0.302416 0.000000 0.201558
O O9 0.430075 0.569926 0.285631
O O10 0.420923 0.420923 0.287461
O O11 0.871472 0.333156 0.500000
O O12 0.851550 0.425775 0.558324
O O13 0.742852 0.257149 0.552605
O O14 0.345559 0.914217 0.076496
O O15 0.500000 0.000000 0.047991
O O16 0.381332 0.000000 0.000000
O O17 0.249070 0.498139 0.894578
O O18 0.160311 0.580156 0.883779
#
# Coordination Sequence:
#
# PCOD9587607 Si02
#       6
#    24  24  24  24  12  24
#     4  10  20  33  48  67  91 120 155 195 238 281
#     4  10  19  31  49  72  97 127 162 200 241 285
#     4   9  17  29  47  70  95 122 151 183 222 272
#     4   9  17  29  46  68  94 123 153 185 223 270
#     4   9  18  32  48  66  92 126 159 193 236 282
#     4  10  19  31  48  70  96 126 161 200 240 283
#
# _framework density 15.579917999999999
#
# number of rings (size 3 to 8) (size 9 to 14) (size 15 to 20)
#    0.000    2.455    0.909    2.000    0.000    3.273 
#    0.000    0.909    0.000    6.545    0.000    0.000 
#    0.000    4.364    0.000    4.545    0.000    8.273 
#
# Total GULP energy -735687.557394 kJ/mol
# GULP energy per Si atom -5573.390586 kJ/mol
# Density = 1.554446 g / cm^3
# Si number density = 15.579918 Si / 1000 Ang^3
#
#
#
# Elastic Constant Matrix: (Units=GPa)
#
#
# Indices 1 2 3 4 5 6 
#
# 1 84.0897 59.3379 41.6382 0.0000 0.0000 0.0000
# 2 59.3379 84.0897 41.6382 0.0000 0.0000 0.0000
# 3 41.6382 41.6382 104.7926 0.0000 0.0000 0.0000
# 4 0.0000 0.0000 0.0000 15.1805 0.0000 0.0000
# 5 0.0000 0.0000 0.0000 0.0000 15.1805 0.0000
# 6 0.0000 0.0000 0.0000 0.0000 0.0000 12.3759
#
#
#
# Elastic Compliance Matrix: (Units=1/GPa)
#
#
# Indices 1 2 3 4 5 6 
#
# 1 0.024732 -0.015669 -0.003601 0.000000 0.000000 0.000000
# 2 -0.015669 0.024732 -0.003601 0.000000 0.000000 0.000000
# 3 -0.003601 -0.003601 0.012404 0.000000 0.000000 0.000000
# 4 0.000000 0.000000 0.000000 0.065874 0.000000 0.000000
# 5 0.000000 0.000000 0.000000 0.000000 0.065874 0.000000
# 6 0.000000 0.000000 0.000000 0.000000 0.000000 0.080802
#
#
# Mechanical properties :
#
#
# Convention : Reuss Voigt Hill
#
# Bulk Modulus (GPa) = 62.01154 62.02229 62.01692
# Shear Modulus (GPa) = 15.35928 17.23790 16.29859
#
# Velocity S-wave (km/s) = 3.14321 3.32989 3.23790
# Velocity P-wave (km/s) = 7.28435 7.39458 7.33967
#
# Compressibility (1/GPa) = 0.01612603
#
# Stress axis : x y z
#
# Youngs Moduli (GPa) = 40.43342 40.43342 80.61672
#
# Poissons Ratio (x) = 0.63355 0.29031
# Poissons Ratio (y) = 0.63355 0.29031
# Poissons Ratio (z) = 0.14560 0.14560
#
# Static dielectric constant tensor:
#      x y z
#    x 1.510530 0.000000 0.000000 
#    y 0.000000 1.510530 0.000000 
#    z 0.000000 0.000000 1.526410 
# 
# From -- ./inp_files/9772.got.cif
#   From: 2010.05.17/outbox.cif.g08.bks.cpg/sg191_5_cif.got.tgz:9772.got - 2010.05.20 12:20:32.
