data_PCOD9587984
_publ_section_title
;
Structure prediction by ZEFSAII (Michael W. Deem and Ramdas Pophale) SiO2 
 PCOD9587984
Probable space group: P 6/M M M
;
_chemical_formula_sum "Si O2"
_cell_formula_units_Z 160
_cell_length_a 21.842933
_cell_length_b 21.842933
_cell_length_c 23.233941
_cell_angle_alpha 90.000000
_cell_angle_beta 90.000000
_cell_angle_gamma 120.000000
_cell_volume 9600.092578
_symmetry_space_group_name_H-M "P 6/M M M"
_symmetry_group_IT_number 191
_symmetry_cell_setting 'hexagonal'
loop_
_space_group_symop_operation_xyz
x,y,z
x-y,x,z
-y,x-y,z
-x,-y,z
-x+y,-x,z
y,-x+y,z
x-y,-y,-z
-x,-x+y,-z
y,x,-z
-y,-x,-z
-x+y,y,-z
x,x-y,-z
-x,-y,-z
-x+y,-x,-z
y,-x+y,-z
x,y,-z
x-y,x,-z
-y,x-y,-z
-x+y,y,z
x,x-y,z
-y,-x,z
y,x,z
x-y,-y,z
-x,-x+y,z
loop_
_atom_site_type_symbol
_atom_site_label
_atom_site_fract_x
_atom_site_fract_y
_atom_site_fract_z
Si Si1 0.215320 0.920620 0.430596
Si Si2 0.446959 0.150543 0.373510
Si Si3 0.811614 0.335042 0.843934
Si Si4 0.666667 0.333334 0.569306
Si Si5 0.921971 0.700534 0.165393
Si Si6 0.277957 0.408269 0.935422
Si Si7 0.415078 0.830156 0.430621
Si Si8 0.916608 0.582975 0.247306
O O1 0.217090 0.921148 0.500000
O O2 0.135940 0.864061 0.412188
O O3 0.264981 0.891267 0.408040
O O4 0.244166 0.000000 0.409936
O O5 0.465448 0.232724 0.372202
O O6 0.507530 0.141168 0.404445
O O7 0.433688 0.117895 0.309995
O O8 0.791772 0.395886 0.847340
O O9 0.741858 0.258143 0.834325
O O10 0.849267 0.329809 0.902151
O O11 0.868326 0.351848 0.793428
O O12 0.666667 0.333334 0.500000
O O13 0.626215 0.252429 0.586826
O O14 0.858120 0.716239 0.164768
O O15 0.916217 0.655402 0.108120
O O16 0.912099 0.647905 0.217900
O O17 0.000000 0.766935 0.168702
O O18 0.203877 0.407753 0.939292
O O19 0.300004 0.402492 0.000000
O O20 0.418123 0.836245 0.500000
O O21 0.000000 0.607859 0.248586
#
# Coordination Sequence:
#
# PCOD9587984 Si02
#       8
#    24  24  24   4  24  24  12  24
#     4   9  18  33  53  76 101 129 161 199 246 299
#     4  11  21  34  54  78 102 131 171 216 258 304
#     4  10  20  34  51  72 100 134 168 208 257 312
#     4   9  18  36  54  69 102 141 180 213 247 308
#     4   9  17  31  52  76 103 135 171 213 260 307
#     4   8  15  29  48  70  97 129 167 208 248 290
#     4  11  22  36  53  76 105 140 177 216 260 307
#     4  10  21  37  54  72  97 129 168 215 261 304
#
# _framework density 16.666505999999998
#
# number of rings (size 3 to 8) (size 9 to 14) (size 15 to 20)
#    0.000    2.400    0.750    3.300    1.050    1.500 
#    0.000    1.125    0.000    3.900    0.000    5.250 
#    0.000    0.000    0.000    8.550    0.000    3.300 
#
# Total GULP energy -891736.676373 kJ/mol
# GULP energy per Si atom -5573.354227 kJ/mol
# Density = 1.662857 g / cm^3
# Si number density = 16.666506 Si / 1000 Ang^3
#
#
#
# Elastic Constant Matrix: (Units=GPa)
#
#
# Indices 1 2 3 4 5 6 
#
# 1 96.0932 58.4869 46.1836 0.0000 0.0000 0.0000
# 2 58.4869 96.0931 46.1836 0.0000 0.0000 0.0000
# 3 46.1836 46.1836 80.8131 0.0000 0.0000 0.0000
# 4 0.0000 0.0000 0.0000 8.1871 0.0000 0.0000
# 5 0.0000 0.0000 0.0000 0.0000 8.1872 0.0000
# 6 0.0000 0.0000 0.0000 0.0000 0.0000 18.8032
#
#
#
# Elastic Compliance Matrix: (Units=1/GPa)
#
#
# Indices 1 2 3 4 5 6 
#
# 1 0.018208 -0.008384 -0.005614 0.000000 0.000000 0.000000
# 2 -0.008384 0.018208 -0.005614 0.000000 0.000000 0.000000
# 3 -0.005614 -0.005614 0.018791 0.000000 0.000000 0.000000
# 4 0.000000 0.000000 0.000000 0.122143 0.000000 0.000000
# 5 0.000000 0.000000 0.000000 0.000000 0.122143 0.000000
# 6 0.000000 0.000000 0.000000 0.000000 0.000000 0.053182
#
#
# Mechanical properties :
#
#
# Convention : Reuss Voigt Hill
#
# Bulk Modulus (GPa) = 62.57037 63.85640 63.21339
# Shear Modulus (GPa) = 12.58730 15.17852 13.88291
#
# Velocity S-wave (km/s) = 2.75115 3.02109 2.88927
# Velocity P-wave (km/s) = 6.90767 7.11103 7.01008
#
# Compressibility (1/GPa) = 0.01598200
#
# Stress axis : x y z
#
# Youngs Moduli (GPa) = 54.92228 54.92218 53.21674
#
# Poissons Ratio (x) = 0.46045 0.29877
# Poissons Ratio (y) = 0.46045 0.29877
# Poissons Ratio (z) = 0.30834 0.30834
#
# Static dielectric constant tensor:
#      x y z
#    x 1.558340 0.000000 0.000000 
#    y 0.000000 1.558340 0.000000 
#    z 0.000000 0.000000 1.569530 
# 
# From -- ./inp_files/7765.got.cif
#   From: 2010.05.17/outbox.cif.g08.bks.cpg/sg191_4_cif.got.tgz:7765.got - 2010.05.20 12:20:32.
