data_PCOD9587966
_publ_section_title
;
Structure prediction by ZEFSAII (Michael W. Deem and Ramdas Pophale) SiO2 
 PCOD9587966
Probable space group: P 6/M M M
;
_chemical_formula_sum "Si O2"
_cell_formula_units_Z 132
_cell_length_a 25.813790
_cell_length_b 25.813790
_cell_length_c 14.296074
_cell_angle_alpha 90.000000
_cell_angle_beta 90.000000
_cell_angle_gamma 120.000000
_cell_volume 8249.943315
_symmetry_space_group_name_H-M "P 6/M M M"
_symmetry_group_IT_number 191
_symmetry_cell_setting 'hexagonal'
loop_
_space_group_symop_operation_xyz
x,y,z
x-y,x,z
-y,x-y,z
-x,-y,z
-x+y,-x,z
y,-x+y,z
x-y,-y,-z
-x,-x+y,-z
y,x,-z
-y,-x,-z
-x+y,y,-z
x,x-y,-z
-x,-y,-z
-x+y,-x,-z
y,-x+y,-z
x,y,-z
x-y,x,-z
-y,x-y,-z
-x+y,y,z
x,x-y,z
-y,-x,z
y,x,z
x-y,-y,z
-x,-x+y,z
loop_
_atom_site_type_symbol
_atom_site_label
_atom_site_fract_x
_atom_site_fract_y
_atom_site_fract_z
Si Si1 0.293319 0.000000 0.393761
Si Si2 0.637100 0.109856 0.259780
Si Si3 0.649784 0.886132 0.264681
Si Si4 0.334543 0.548335 0.397387
Si Si5 0.581330 0.581330 0.606546
Si Si6 0.536130 0.072259 0.110261
Si Si7 0.068243 0.251733 0.110594
O O1 0.310272 0.061425 0.339411
O O2 0.355987 0.000000 0.397555
O O3 0.273594 0.000000 0.500000
O O4 0.701013 0.112798 0.251335
O O5 0.650416 0.169874 0.311631
O O6 0.599034 0.097243 0.165266
O O7 0.595711 0.057448 0.332494
O O8 0.640507 0.820254 0.288817
O O9 0.687897 0.907208 0.169479
O O10 0.341605 0.525270 0.500000
O O11 0.267911 0.535821 0.391278
O O12 0.381390 0.618611 0.396842
O O13 0.562137 0.562137 0.500000
O O14 0.500000 0.000000 0.118301
O O15 0.543629 0.087258 0.000000
O O16 0.113735 0.227470 0.129387
O O17 0.000000 0.206564 0.136563
O O18 0.070380 0.263857 0.000000
#
# Coordination Sequence:
#
# PCOD9587966 Si02
#       7
#    12  24  24  24  12  12  24
#     4   9  18  32  48  72 109 148 180 213 259 312
#     4  11  20  36  53  76 103 139 175 214 267 323
#     4  10  20  33  52  78 107 139 181 223 266 320
#     4  10  20  34  54  80 105 129 162 205 256 314
#     4   9  18  31  50  75 104 132 164 209 257 321
#     4  11  24  40  56  78 106 140 184 228 274 326
#     4   9  17  30  50  76 104 134 170 215 265 314
#
# _framework density 16.000109999999999
#
# number of rings (size 3 to 8) (size 9 to 14) (size 15 to 20)
#    0.000    2.091    2.727    1.273    0.000    2.545 
#    0.000    2.273    0.000    1.818    0.000    1.273 
#    0.000    0.000    0.000    0.000    0.000    8.273 
#
# Total GULP energy -735428.884300 kJ/mol
# GULP energy per Si atom -5571.430942 kJ/mol
# Density = 1.596369 g / cm^3
# Si number density = 16.000110 Si / 1000 Ang^3
#
#
#
# Elastic Constant Matrix: (Units=GPa)
#
#
# Indices 1 2 3 4 5 6 
#
# 1 88.0800 47.7506 51.6025 0.0000 0.0000 0.0000
# 2 47.7506 88.0800 51.6025 0.0000 0.0000 0.0000
# 3 51.6025 51.6025 106.2920 0.0000 0.0000 0.0000
# 4 0.0000 0.0000 0.0000 22.9016 0.0000 0.0000
# 5 0.0000 0.0000 0.0000 0.0000 22.9016 0.0000
# 6 0.0000 0.0000 0.0000 0.0000 0.0000 20.1647
#
#
#
# Elastic Compliance Matrix: (Units=1/GPa)
#
#
# Indices 1 2 3 4 5 6 
#
# 1 0.018230 -0.006565 -0.005663 0.000000 0.000000 0.000000
# 2 -0.006565 0.018230 -0.005663 0.000000 0.000000 0.000000
# 3 -0.005663 -0.005663 0.014907 0.000000 0.000000 0.000000
# 4 0.000000 0.000000 0.000000 0.043665 0.000000 0.000000
# 5 0.000000 0.000000 0.000000 0.000000 0.043665 0.000000
# 6 0.000000 0.000000 0.000000 0.000000 0.000000 0.049592
#
#
# Mechanical properties :
#
#
# Convention : Reuss Voigt Hill
#
# Bulk Modulus (GPa) = 64.16745 64.92927 64.54836
# Shear Modulus (GPa) = 21.80862 21.96001 21.88431
#
# Velocity S-wave (km/s) = 3.69593 3.70873 3.70234
# Velocity P-wave (km/s) = 7.64229 7.68168 7.66201
#
# Compressibility (1/GPa) = 0.01558422
#
# Stress axis : x y z
#
# Youngs Moduli (GPa) = 54.85347 54.85347 67.08400
#
# Poissons Ratio (x) = 0.36014 0.37990
# Poissons Ratio (y) = 0.36014 0.37990
# Poissons Ratio (z) = 0.31064 0.31064
#
# Static dielectric constant tensor:
#      x y z
#    x 1.544660 0.000000 0.000000 
#    y 0.000000 1.544660 0.000000 
#    z 0.000000 0.000000 1.533180 
# 
# From -- ./inp_files/3411.got.cif
#   From: 2010.05.17/outbox.cif.g08.bks.cpg/sg191_2_cif.got.tgz:3411.got - 2010.05.20 12:20:32.
