data_PCOD9587875
_publ_section_title
;
Structure prediction by ZEFSAII (Michael W. Deem and Ramdas Pophale) SiO2 
 PCOD9587875
Probable space group: P 6/M M M
;
_chemical_formula_sum "Si O2"
_cell_formula_units_Z 168
_cell_length_a 21.954719
_cell_length_b 21.954719
_cell_length_c 24.506597
_cell_angle_alpha 90.000000
_cell_angle_beta 90.000000
_cell_angle_gamma 120.000000
_cell_volume 10229.853318
_symmetry_space_group_name_H-M "P 6/M M M"
_symmetry_group_IT_number 191
_symmetry_cell_setting 'hexagonal'
loop_
_space_group_symop_operation_xyz
x,y,z
x-y,x,z
-y,x-y,z
-x,-y,z
-x+y,-x,z
y,-x+y,z
x-y,-y,-z
-x,-x+y,-z
y,x,-z
-y,-x,-z
-x+y,y,-z
x,x-y,-z
-x,-y,-z
-x+y,-x,-z
y,-x+y,-z
x,y,-z
x-y,x,-z
-y,x-y,-z
-x+y,y,z
x,x-y,z
-y,-x,z
y,x,z
x-y,-y,z
-x,-x+y,z
loop_
_atom_site_type_symbol
_atom_site_label
_atom_site_fract_x
_atom_site_fract_y
_atom_site_fract_z
Si Si1 0.917323 0.577480 0.135320
Si Si2 0.778965 0.698710 0.062945
Si Si3 0.470300 0.666045 0.351651
Si Si4 0.468706 0.802076 0.064845
Si Si5 0.786481 0.709233 0.434271
Si Si6 0.356227 0.437990 0.436775
Si Si7 0.666760 0.188215 0.224493
O O1 0.910881 0.640751 0.107184
O O2 0.877294 0.514868 0.091983
O O3 0.870917 0.542700 0.189259
O O4 0.000000 0.605968 0.142997
O O5 0.859147 0.718294 0.070404
O O6 0.761736 0.761736 0.067338
O O7 0.759144 0.670943 0.000000
O O8 0.487864 0.743932 0.366854
O O9 0.386932 0.613069 0.352621
O O10 0.505940 0.638074 0.393611
O O11 0.492655 0.666203 0.289089
O O12 0.387329 0.774657 0.076797
O O13 0.489674 0.744837 0.084097
O O14 0.477575 0.807935 0.000000
O O15 0.793996 0.718140 0.500000
O O16 0.857454 0.714908 0.412214
O O17 0.765366 0.765366 0.413113
O O18 0.719172 0.632183 0.426748
O O19 0.357999 0.459576 0.500000
O O20 0.414308 0.414308 0.430549
O O21 0.594103 0.188206 0.211800
O O22 0.734741 0.265260 0.214647
#
# Coordination Sequence:
#
# PCOD9587875 Si02
#       7
#    24  24  24  24  24  24  24
#     4  11  22  33  47  69  95 123 156 193 235 284
#     4   9  17  30  49  72  98 128 161 196 235 281
#     4  10  21  36  53  72  94 121 153 190 233 280
#     4  10  20  33  49  68  91 120 155 196 240 284
#     4   8  13  22  38  60  85 113 145 180 216 254
#     4   9  18  32  50  72  96 123 155 188 224 269
#     4  10  21  37  55  71  89 118 157 197 234 276
#
# _framework density 16.422523000000002
#
# number of rings (size 3 to 8) (size 9 to 14) (size 15 to 20)
#    0.000    2.429    0.000    3.857    0.000    6.857 
#    0.000    4.286    0.000    1.143    0.000    2.000 
#    0.000    0.000    0.000    0.000    0.000    0.000 
#
# Total GULP energy -936201.992830 kJ/mol
# GULP energy per Si atom -5572.630910 kJ/mol
# Density = 1.638514 g / cm^3
# Si number density = 16.422523 Si / 1000 Ang^3
#
#
#
# Elastic Constant Matrix: (Units=GPa)
#
#
# Indices 1 2 3 4 5 6 
#
# 1 92.1796 50.1076 47.4890 0.0000 0.0000 0.0000
# 2 50.1076 92.1796 47.4890 0.0000 0.0000 0.0000
# 3 47.4890 47.4890 82.5010 0.0000 0.0000 0.0000
# 4 0.0000 0.0000 0.0000 8.7616 0.0000 0.0000
# 5 0.0000 0.0000 0.0000 0.0000 8.7616 0.0000
# 6 0.0000 0.0000 0.0000 0.0000 0.0000 21.0360
#
#
#
# Elastic Compliance Matrix: (Units=1/GPa)
#
#
# Indices 1 2 3 4 5 6 
#
# 1 0.017591 -0.006178 -0.006570 0.000000 0.000000 0.000000
# 2 -0.006178 0.017591 -0.006570 0.000000 0.000000 0.000000
# 3 -0.006570 -0.006570 0.019684 0.000000 0.000000 0.000000
# 4 0.000000 0.000000 0.000000 0.114134 0.000000 0.000000
# 5 0.000000 0.000000 0.000000 0.000000 0.114134 0.000000
# 6 0.000000 0.000000 0.000000 0.000000 0.000000 0.047538
#
#
# Mechanical properties :
#
#
# Convention : Reuss Voigt Hill
#
# Bulk Modulus (GPa) = 61.60598 61.89239 61.74919
# Shear Modulus (GPa) = 13.34340 15.83016 14.58678
#
# Velocity S-wave (km/s) = 2.85354 3.10809 2.98353
# Velocity P-wave (km/s) = 6.96071 7.11685 7.03922
#
# Compressibility (1/GPa) = 0.01623219
#
# Stress axis : x y z
#
# Youngs Moduli (GPa) = 56.84697 56.84697 50.80162
#
# Poissons Ratio (x) = 0.35118 0.33375
# Poissons Ratio (y) = 0.35118 0.33375
# Poissons Ratio (z) = 0.37347 0.37347
#
# Static dielectric constant tensor:
#      x y z
#    x 1.553360 0.000000 0.000000 
#    y 0.000000 1.553360 0.000000 
#    z 0.000000 0.000000 1.556610 
# 
# From -- ./inp_files/8997.got.cif
#   From: 2010.05.17/outbox.cif.g08.bks.cpg/sg191_5_cif.got.tgz:8997.got - 2010.05.20 12:20:32.
