data_PCOD9587869
_publ_section_title
;
Structure prediction by ZEFSAII (Michael W. Deem and Ramdas Pophale) SiO2 
 PCOD9587869
Probable space group: P 6/M M M
;
_chemical_formula_sum "Si O2"
_cell_formula_units_Z 108
_cell_length_a 17.953457
_cell_length_b 17.953457
_cell_length_c 24.086746
_cell_angle_alpha 90.000000
_cell_angle_beta 90.000000
_cell_angle_gamma 120.000000
_cell_volume 6723.647495
_symmetry_space_group_name_H-M "P 6/M M M"
_symmetry_group_IT_number 191
_symmetry_cell_setting 'hexagonal'
loop_
_space_group_symop_operation_xyz
x,y,z
x-y,x,z
-y,x-y,z
-x,-y,z
-x+y,-x,z
y,-x+y,z
x-y,-y,-z
-x,-x+y,-z
y,x,-z
-y,-x,-z
-x+y,y,-z
x,x-y,-z
-x,-y,-z
-x+y,-x,-z
y,-x+y,-z
x,y,-z
x-y,x,-z
-y,x-y,-z
-x+y,y,z
x,x-y,z
-y,-x,z
y,x,z
x-y,-y,z
-x,-x+y,z
loop_
_atom_site_type_symbol
_atom_site_label
_atom_site_fract_x
_atom_site_fract_y
_atom_site_fract_z
Si Si1 0.160681 0.492014 0.440090
Si Si2 0.899390 0.630753 0.786372
Si Si3 0.370909 0.272366 0.000000
Si Si4 0.490261 0.157682 0.107724
Si Si5 0.533307 0.635786 0.320657
O O1 0.126642 0.446455 0.500000
O O2 0.261351 0.522701 0.439524
O O3 0.145967 0.572984 0.439923
O O4 0.124487 0.446251 0.381589
O O5 0.832488 0.664976 0.793672
O O6 0.884557 0.567370 0.837788
O O7 0.873645 0.573413 0.730510
O O8 0.000000 0.701832 0.783485
O O9 0.430570 0.314479 0.053956
O O10 0.295261 0.295261 0.000000
O O11 0.343109 0.171554 0.000000
O O12 0.573935 0.147870 0.106695
O O13 0.516111 0.258056 0.107981
O O14 0.430611 0.569390 0.315332
O O15 0.578173 0.578173 0.318147
#
# Coordination Sequence:
#
# PCOD9587869 Si02
#       5
#    24  24  12  24  24
#     4   9  16  25  37  53  75 105 141 178 212 246
#     4  10  20  33  49  68  90 117 149 186 228 272
#     4  10  21  35  51  72  97 127 162 200 241 281
#     4  10  20  33  50  73 101 131 160 189 222 262
#     4   9  17  28  42  61  84 110 141 176 215 262
#
# _framework density 16.062709999999999
#
# number of rings (size 3 to 8) (size 9 to 14) (size 15 to 20)
#    0.000    2.444    0.000    2.778    0.000    4.444 
#    0.000    3.333    0.000    7.444    0.000    0.000 
#    0.000    5.333    0.000    0.000    0.000    0.444 
#
# Total GULP energy -601471.759319 kJ/mol
# GULP energy per Si atom -5569.182957 kJ/mol
# Density = 1.602615 g / cm^3
# Si number density = 16.062710 Si / 1000 Ang^3
#
#
#
# Elastic Constant Matrix: (Units=GPa)
#
#
# Indices 1 2 3 4 5 6 
#
# 1 67.7065 52.1084 35.6901 0.0000 0.0000 0.0000
# 2 52.1084 67.7065 35.6901 0.0000 0.0000 0.0000
# 3 35.6901 35.6901 145.4842 0.0000 0.0000 0.0000
# 4 0.0000 0.0000 0.0000 7.6543 0.0000 0.0000
# 5 0.0000 0.0000 0.0000 0.0000 7.6543 0.0000
# 6 0.0000 0.0000 0.0000 0.0000 0.0000 7.7990
#
#
#
# Elastic Compliance Matrix: (Units=1/GPa)
#
#
# Indices 1 2 3 4 5 6 
#
# 1 0.036943 -0.027168 -0.002398 0.000000 0.000000 0.000000
# 2 -0.027168 0.036943 -0.002398 0.000000 0.000000 0.000000
# 3 -0.002398 -0.002398 0.008050 0.000000 0.000000 0.000000
# 4 0.000000 0.000000 0.000000 0.130646 0.000000 0.000000
# 5 0.000000 0.000000 0.000000 0.000000 0.130646 0.000000
# 6 0.000000 0.000000 0.000000 0.000000 0.000000 0.128221
#
#
# Mechanical properties :
#
#
# Convention : Reuss Voigt Hill
#
# Bulk Modulus (GPa) = 55.53114 58.65274 57.09194
# Shear Modulus (GPa) = 9.23569 15.11542 12.17556
#
# Velocity S-wave (km/s) = 2.40047 3.07094 2.75617
# Velocity P-wave (km/s) = 6.50611 7.01202 6.76380
#
# Compressibility (1/GPa) = 0.01800792
#
# Stress axis : x y z
#
# Youngs Moduli (GPa) = 27.06899 27.06899 124.22164
#
# Poissons Ratio (x) = 0.73541 0.29788
# Poissons Ratio (y) = 0.73541 0.29788
# Poissons Ratio (z) = 0.06491 0.06491
#
# Static dielectric constant tensor:
#      x y z
#    x 1.531060 0.000000 0.000000 
#    y 0.000000 1.531060 0.000000 
#    z 0.000000 0.000000 1.579710 
# 
# From -- ./inp_files/7303.got.cif
#   From: 2010.05.17/outbox.cif.g08.bks.cpg/sg191_4_cif.got.tgz:7303.got - 2010.05.20 12:20:32.
