data_PCOD9587538
_publ_section_title
;
Structure prediction by ZEFSAII (Michael W. Deem and Ramdas Pophale) SiO2 
 PCOD9587538
Probable space group: P 6/M M M
;
_chemical_formula_sum "Si O2"
_cell_formula_units_Z 120
_cell_length_a 24.285981
_cell_length_b 24.285981
_cell_length_c 14.418332
_cell_angle_alpha 90.000000
_cell_angle_beta 90.000000
_cell_angle_gamma 120.000000
_cell_volume 7364.732125
_symmetry_space_group_name_H-M "P 6/M M M"
_symmetry_group_IT_number 191
_symmetry_cell_setting 'hexagonal'
loop_
_space_group_symop_operation_xyz
x,y,z
x-y,x,z
-y,x-y,z
-x,-y,z
-x+y,-x,z
y,-x+y,z
x-y,-y,-z
-x,-x+y,-z
y,x,-z
-y,-x,-z
-x+y,y,-z
x,x-y,-z
-x,-y,-z
-x+y,-x,-z
y,-x+y,-z
x,y,-z
x-y,x,-z
-y,x-y,-z
-x+y,y,z
x,x-y,z
-y,-x,z
y,x,z
x-y,-y,z
-x,-x+y,z
loop_
_atom_site_type_symbol
_atom_site_label
_atom_site_fract_x
_atom_site_fract_y
_atom_site_fract_z
Si Si1 0.761417 0.071503 0.396880
Si Si2 0.734799 0.807604 0.196215
Si Si3 0.398048 0.924986 0.743611
Si Si4 0.076798 0.693748 0.104793
Si Si5 0.539943 0.707771 0.608047
O O1 0.789512 0.077513 0.500000
O O2 0.802022 0.075410 0.307800
O O3 0.741193 0.124438 0.388407
O O4 0.700798 0.000000 0.392082
O O5 0.756743 0.878372 0.165997
O O6 0.780776 0.780776 0.168950
O O7 0.665246 0.759871 0.154073
O O8 0.460582 0.921163 0.766078
O O9 0.350398 0.908188 0.830193
O O10 0.356468 0.873609 0.665423
O O11 0.424442 0.000000 0.718182
O O12 0.000000 0.656496 0.099983
O O13 0.101564 0.702392 0.000000
O O14 0.521405 0.694195 0.500000
O O15 0.522778 0.761389 0.640655
#
# Coordination Sequence:
#
# PCOD9587538 Si02
#       5
#    24  24  24  24  24
#     4   9  16  26  43  68  97 127 160 200 247 296
#     4  10  19  31  48  71 100 132 167 206 247 293
#     4  10  20  33  50  74 102 130 162 200 244 294
#     4   9  18  32  48  68  95 126 159 195 239 290
#     4  10  19  30  46  68  96 132 169 202 239 285
#
# _framework density 16.293872
#
# number of rings (size 3 to 8) (size 9 to 14) (size 15 to 20)
#    0.000    2.400    2.000    1.200    0.000    3.600 
#    0.000    3.000    0.000    0.600    0.000    0.000 
#    0.000    0.000    0.000   10.000    0.000    0.000 
#
# Total GULP energy -668128.587316 kJ/mol
# GULP energy per Si atom -5567.738228 kJ/mol
# Density = 1.625679 g / cm^3
# Si number density = 16.293872 Si / 1000 Ang^3
#
#
#
# Elastic Constant Matrix: (Units=GPa)
#
#
# Indices 1 2 3 4 5 6 
#
# 1 76.4266 42.5640 33.3230 0.0000 0.0000 0.0000
# 2 42.5640 76.4266 33.3230 0.0000 0.0000 0.0000
# 3 33.3230 33.3230 72.9358 0.0000 0.0000 0.0000
# 4 0.0000 0.0000 0.0000 1.5990 0.0000 0.0000
# 5 0.0000 0.0000 0.0000 0.0000 1.5990 0.0000
# 6 0.0000 0.0000 0.0000 0.0000 0.0000 16.9313
#
#
#
# Elastic Compliance Matrix: (Units=1/GPa)
#
#
# Indices 1 2 3 4 5 6 
#
# 1 0.020413 -0.009118 -0.005160 0.000000 0.000000 0.000000
# 2 -0.009118 0.020413 -0.005160 0.000000 0.000000 0.000000
# 3 -0.005160 -0.005160 0.018426 0.000000 0.000000 0.000000
# 4 0.000000 0.000000 0.000000 0.625407 0.000000 0.000000
# 5 0.000000 0.000000 0.000000 0.000000 0.625407 0.000000
# 6 0.000000 0.000000 0.000000 0.000000 0.000000 0.059062
#
#
# Mechanical properties :
#
#
# Convention : Reuss Voigt Hill
#
# Bulk Modulus (GPa) = 49.08276 49.35655 49.21965
# Shear Modulus (GPa) = 3.53408 11.79779 7.66593
#
# Velocity S-wave (km/s) = 1.47434 2.69376 2.17141
# Velocity P-wave (km/s) = 5.75214 6.32711 6.04646
#
# Compressibility (1/GPa) = 0.02037375
#
# Stress axis : x y z
#
# Youngs Moduli (GPa) = 48.98931 48.98931 54.27179
#
# Poissons Ratio (x) = 0.44671 0.28005
# Poissons Ratio (y) = 0.44671 0.28005
# Poissons Ratio (z) = 0.25279 0.25279
#
# Static dielectric constant tensor:
#      x y z
#    x 1.550320 0.000000 0.000000 
#    y 0.000000 1.550320 0.000000 
#    z 0.000000 0.000000 1.581830 
# 
# From -- ./inp_files/4679.got.cif
#   From: 2010.05.17/outbox.cif.g08.bks.cpg/sg191_3_cif.got.tgz:4679.got - 2010.05.20 12:20:32.
