data_PCOD9587642
_publ_section_title
;
Structure prediction by ZEFSAII (Michael W. Deem and Ramdas Pophale) SiO2 
 PCOD9587642
Probable space group: P 6/M M M
;
_chemical_formula_sum "Si O2"
_cell_formula_units_Z 192
_cell_length_a 23.850084
_cell_length_b 23.850084
_cell_length_c 21.571987
_cell_angle_alpha 90.000000
_cell_angle_beta 90.000000
_cell_angle_gamma 120.000000
_cell_volume 10626.753519
_symmetry_space_group_name_H-M "P 6/M M M"
_symmetry_group_IT_number 191
_symmetry_cell_setting 'hexagonal'
loop_
_space_group_symop_operation_xyz
x,y,z
x-y,x,z
-y,x-y,z
-x,-y,z
-x+y,-x,z
y,-x+y,z
x-y,-y,-z
-x,-x+y,-z
y,x,-z
-y,-x,-z
-x+y,y,-z
x,x-y,-z
-x,-y,-z
-x+y,-x,-z
y,-x+y,-z
x,y,-z
x-y,x,-z
-y,x-y,-z
-x+y,y,z
x,x-y,z
-y,-x,z
y,x,z
x-y,-y,z
-x,-x+y,z
loop_
_atom_site_type_symbol
_atom_site_label
_atom_site_fract_x
_atom_site_fract_y
_atom_site_fract_z
Si Si1 0.376010 0.928588 0.071225
Si Si2 0.072326 0.325391 0.799156
Si Si3 0.272469 0.197734 0.664964
Si Si4 0.472395 0.395572 0.350242
Si Si5 0.333239 0.791121 0.128802
Si Si6 0.292500 0.921922 0.568665
Si Si7 0.830371 0.295015 0.248478
Si Si8 0.228843 0.897799 0.931913
O O1 0.365422 0.863411 0.101826
O O2 0.304231 0.919801 0.070300
O O3 0.425192 0.000000 0.098299
O O4 0.395100 0.929197 0.000000
O O5 0.079285 0.292186 0.737172
O O6 0.127133 0.400017 0.792696
O O7 0.078608 0.297080 0.865065
O O8 0.000000 0.314273 0.796443
O O9 0.246248 0.123124 0.652528
O O10 0.223018 0.223018 0.651207
O O11 0.336012 0.239434 0.622421
O O12 0.543786 0.456215 0.359705
O O13 0.426059 0.426059 0.335688
O O14 0.440625 0.348652 0.409107
O O15 0.470064 0.348397 0.296199
O O16 0.383010 0.766020 0.117980
O O17 0.261721 0.738280 0.104990
O O18 0.324955 0.800572 0.201379
O O19 0.267207 0.896131 0.500000
O O20 0.327505 0.000000 0.565757
O O21 0.770452 0.229549 0.276396
O O22 0.179335 0.820666 0.931295
O O23 0.217848 0.919847 0.000000
#
# Coordination Sequence:
#
# PCOD9587642 Si02
#       8
#    24  24  24  24  24  24  24  24
#     4  10  21  36  54  76 100 126 160 209 270 328
#     4  11  20  31  51  78 108 141 181 226 278 333
#     4  10  20  34  54  80 112 149 188 231 278 331
#     4  10  20  34  53  79 110 142 178 220 270 328
#     4  11  24  40  57  75  98 132 172 217 265 319
#     4   9  18  32  50  76 111 148 181 216 263 318
#     4  11  21  34  53  75 101 136 178 224 274 323
#     4  10  19  31  49  74 105 141 178 214 260 325
#
# _framework density 18.067606000000001
#
# number of rings (size 3 to 8) (size 9 to 14) (size 15 to 20)
#    0.000    1.750    2.500    2.750    0.000    3.000 
#    0.000    1.875    0.000    1.125    0.000    0.000 
#    0.000    0.000    0.000    3.125    0.000    0.000 
#
# Total GULP energy -1069831.346583 kJ/mol
# GULP energy per Si atom -5572.038263 kJ/mol
# Density = 1.802648 g / cm^3
# Si number density = 18.067606 Si / 1000 Ang^3
#
#
#
# Elastic Constant Matrix: (Units=GPa)
#
#
# Indices 1 2 3 4 5 6 
#
# 1 81.7326 46.7606 30.6438 0.0000 0.0000 0.0000
# 2 46.7606 81.7326 30.6438 0.0000 0.0000 0.0000
# 3 30.6438 30.6438 107.4774 0.0000 0.0000 0.0000
# 4 0.0000 0.0000 0.0000 5.4620 0.0000 0.0000
# 5 0.0000 0.0000 0.0000 0.0000 5.4620 0.0000
# 6 0.0000 0.0000 0.0000 0.0000 0.0000 17.4860
#
#
#
# Elastic Compliance Matrix: (Units=1/GPa)
#
#
# Indices 1 2 3 4 5 6 
#
# 1 0.018801 -0.009793 -0.002568 0.000000 0.000000 0.000000
# 2 -0.009793 0.018801 -0.002568 0.000000 0.000000 0.000000
# 3 -0.002568 -0.002568 0.010769 0.000000 0.000000 0.000000
# 4 0.000000 0.000000 0.000000 0.183083 0.000000 0.000000
# 5 0.000000 0.000000 0.000000 0.000000 0.183083 0.000000
# 6 0.000000 0.000000 0.000000 0.000000 0.000000 0.057189
#
#
# Mechanical properties :
#
#
# Convention : Reuss Voigt Hill
#
# Bulk Modulus (GPa) = 54.02219 54.11545 54.06882
# Shear Modulus (GPa) = 9.84726 16.54161 13.19444
#
# Velocity S-wave (km/s) = 2.33711 3.02907 2.70530
# Velocity P-wave (km/s) = 6.10309 6.50003 6.30468
#
# Compressibility (1/GPa) = 0.01851091
#
# Stress axis : x y z
#
# Youngs Moduli (GPa) = 53.18890 53.18890 92.86110
#
# Poissons Ratio (x) = 0.52090 0.23849
# Poissons Ratio (y) = 0.52090 0.23849
# Poissons Ratio (z) = 0.13660 0.13660
#
# Static dielectric constant tensor:
#      x y z
#    x 1.632880 0.000000 0.000000 
#    y 0.000000 1.632880 0.000000 
#    z 0.000000 0.000000 1.670000 
# 
# From -- ./inp_files/8156.got.cif
#   From: 2010.05.17/outbox.cif.g08.bks.cpg/sg191_5_cif.got.tgz:8156.got - 2010.05.20 12:20:32.
