data_PCOD9587728
_publ_section_title
;
Structure prediction by ZEFSAII (Michael W. Deem and Ramdas Pophale) SiO2 
 PCOD9587728
Probable space group: P 6/M M M
;
_chemical_formula_sum "Si O2"
_cell_formula_units_Z 72
_cell_length_a 17.501705
_cell_length_b 17.501705
_cell_length_c 17.214957
_cell_angle_alpha 90.000000
_cell_angle_beta 90.000000
_cell_angle_gamma 120.000000
_cell_volume 4566.645428
_symmetry_space_group_name_H-M "P 6/M M M"
_symmetry_group_IT_number 191
_symmetry_cell_setting 'hexagonal'
loop_
_space_group_symop_operation_xyz
x,y,z
x-y,x,z
-y,x-y,z
-x,-y,z
-x+y,-x,z
y,-x+y,z
x-y,-y,-z
-x,-x+y,-z
y,x,-z
-y,-x,-z
-x+y,y,-z
x,x-y,-z
-x,-y,-z
-x+y,-x,-z
y,-x+y,-z
x,y,-z
x-y,x,-z
-y,x-y,-z
-x+y,y,z
x,x-y,z
-y,-x,z
y,x,z
x-y,-y,z
-x,-x+y,z
loop_
_atom_site_type_symbol
_atom_site_label
_atom_site_fract_x
_atom_site_fract_y
_atom_site_fract_z
Si Si1 0.000000 0.175394 0.094030
Si Si2 0.000000 0.407845 0.296022
Si Si3 0.644423 0.644423 0.119160
Si Si4 0.151884 0.484704 0.412227
Si Si5 0.483184 0.148946 0.000000
O O1 0.088115 0.176229 0.120922
O O2 0.000000 0.264025 0.115206
O O3 0.000000 0.172620 0.000000
O O4 0.000000 0.380773 0.208025
O O5 0.084792 0.425667 0.345854
O O6 0.000000 0.500000 0.295781
O O7 0.570275 0.656643 0.073238
O O8 0.117408 0.453333 0.500000
O O9 0.244758 0.489516 0.404669
O O10 0.164241 0.582121 0.405547
O O11 0.582750 0.165499 0.000000
O O12 0.480876 0.240438 0.000000
#
# Coordination Sequence:
#
# PCOD9587728 Si02
#       5
#    12  12  12  24  12
#     4  10  19  33  53  77  99 122 153 196 247 298
#     4  10  20  33  48  70  98 130 164 201 244 290
#     4  11  21  35  54  73  99 132 168 204 251 305
#     4   9  17  30  49  72  98 128 162 200 242 288
#     4  11  22  37  54  72  96 129 170 213 254 298
#
# _framework density 15.766496
#
# number of rings (size 3 to 8) (size 9 to 14) (size 15 to 20)
#    0.000    2.000    1.667    4.167    0.000    6.667 
#    0.000    0.000    0.000    4.000    0.000    0.000 
#    0.000    0.000    0.000    0.000    0.000   17.667 
#
# Total GULP energy -401508.662359 kJ/mol
# GULP energy per Si atom -5576.509199 kJ/mol
# Density = 1.573061 g / cm^3
# Si number density = 15.766496 Si / 1000 Ang^3
#
#
#
# Elastic Constant Matrix: (Units=GPa)
#
#
# Indices 1 2 3 4 5 6 
#
# 1 107.1282 55.4582 56.1537 0.0000 0.0000 0.0000
# 2 55.4582 107.1282 56.1537 0.0000 0.0000 0.0000
# 3 56.1537 56.1537 140.3559 0.0000 0.0000 0.0000
# 4 0.0000 0.0000 0.0000 16.2865 0.0000 0.0000
# 5 0.0000 0.0000 0.0000 0.0000 16.2865 0.0000
# 6 0.0000 0.0000 0.0000 0.0000 0.0000 25.8350
#
#
#
# Elastic Compliance Matrix: (Units=1/GPa)
#
#
# Indices 1 2 3 4 5 6 
#
# 1 0.013927 -0.005427 -0.003400 0.000000 0.000000 0.000000
# 2 -0.005427 0.013927 -0.003400 0.000000 0.000000 0.000000
# 3 -0.003400 -0.003400 0.009846 0.000000 0.000000 0.000000
# 4 0.000000 0.000000 0.000000 0.061400 0.000000 0.000000
# 5 0.000000 0.000000 0.000000 0.000000 0.061400 0.000000
# 6 0.000000 0.000000 0.000000 0.000000 0.000000 0.038707
#
#
# Mechanical properties :
#
#
# Convention : Reuss Voigt Hill
#
# Bulk Modulus (GPa) = 75.51322 76.68262 76.09792
# Shear Modulus (GPa) = 21.92241 24.13806 23.03023
#
# Velocity S-wave (km/s) = 3.73291 3.91701 3.82607
# Velocity P-wave (km/s) = 8.15955 8.31861 8.23946
#
# Compressibility (1/GPa) = 0.01324271
#
# Stress axis : x y z
#
# Youngs Moduli (GPa) = 71.80540 71.80540 101.56749
#
# Poissons Ratio (x) = 0.38969 0.34538
# Poissons Ratio (y) = 0.38969 0.34538
# Poissons Ratio (z) = 0.24417 0.24417
#
# Static dielectric constant tensor:
#      x y z
#    x 1.517120 0.000000 0.000000 
#    y 0.000000 1.517120 0.000000 
#    z 0.000000 0.000000 1.520770 
# 
# From -- ./inp_files/5702.got.cif
#   From: 2010.05.17/outbox.cif.g08.bks.cpg/sg191_3_cif.got.tgz:5702.got - 2010.05.20 12:20:32.
