data_PCOD9587948
_publ_section_title
;
Structure prediction by ZEFSAII (Michael W. Deem and Ramdas Pophale) SiO2 
 PCOD9587948
Probable space group: P 6/M M M
;
_chemical_formula_sum "Si O2"
_cell_formula_units_Z 168
_cell_length_a 18.080456
_cell_length_b 18.080456
_cell_length_c 35.033014
_cell_angle_alpha 90.000000
_cell_angle_beta 90.000000
_cell_angle_gamma 120.000000
_cell_volume 9918.063699
_symmetry_space_group_name_H-M "P 6/M M M"
_symmetry_group_IT_number 191
_symmetry_cell_setting 'hexagonal'
loop_
_space_group_symop_operation_xyz
x,y,z
x-y,x,z
-y,x-y,z
-x,-y,z
-x+y,-x,z
y,-x+y,z
x-y,-y,-z
-x,-x+y,-z
y,x,-z
-y,-x,-z
-x+y,y,-z
x,x-y,-z
-x,-y,-z
-x+y,-x,-z
y,-x+y,-z
x,y,-z
x-y,x,-z
-y,x-y,-z
-x+y,y,z
x,x-y,z
-y,-x,z
y,x,z
x-y,-y,z
-x,-x+y,z
loop_
_atom_site_type_symbol
_atom_site_label
_atom_site_fract_x
_atom_site_fract_y
_atom_site_fract_z
Si Si1 0.160163 0.666331 0.044379
Si Si2 0.839430 0.333695 0.677716
Si Si3 0.492031 0.332564 0.816569
Si Si4 0.096559 0.365068 0.112422
Si Si5 0.829913 0.829913 0.453573
Si Si6 0.635051 0.731679 0.254369
Si Si7 0.492089 0.158578 0.411507
Si Si8 0.000000 0.342266 0.545764
O O1 0.150297 0.575149 0.054006
O O2 0.259344 0.740657 0.048018
O O3 0.109000 0.692774 0.073075
O O4 0.136000 0.664572 0.000000
O O5 0.850338 0.425169 0.687629
O O6 0.739916 0.260084 0.681137
O O7 0.890193 0.306436 0.706267
O O8 0.863587 0.335261 0.633429
O O9 0.518611 0.259306 0.816524
O O10 0.574473 0.425528 0.816577
O O11 0.433123 0.315095 0.853608
O O12 0.433053 0.315159 0.779562
O O13 0.169263 0.338525 0.114070
O O14 0.000000 0.289784 0.116154
O O15 0.914648 0.829295 0.440699
O O16 0.831996 0.831996 0.500000
O O17 0.744126 0.744126 0.442716
O O18 0.661882 0.830941 0.252467
O O19 0.710148 0.710148 0.250826
O O20 0.585409 0.170818 0.418034
O O21 0.492221 0.246111 0.418774
O O22 0.422889 0.083219 0.437198
O O23 0.000000 0.346426 0.500000
#
# Coordination Sequence:
#
# PCOD9587948 Si02
#       8
#    24  24  24  24  12  24  24  12
#     4   9  17  29  46  69  98 133 171 208 245 289
#     4   9  18  32  52  77 105 135 167 202 242 288
#     4  10  20  33  50  75 108 144 175 202 237 288
#     4  10  21  35  50  69  95 128 166 210 261 311
#     4   9  17  31  53  79 105 133 165 203 249 303
#     4  10  21  35  52  76 104 135 170 210 256 301
#     4  10  21  37  56  77 103 137 176 215 255 302
#     4  11  23  37  53  77 107 137 169 211 261 305
#
# _framework density 16.938790999999998
#
# number of rings (size 3 to 8) (size 9 to 14) (size 15 to 20)
#    0.000    2.286    0.000    2.571    1.000    6.571 
#    0.000    3.571    0.000    1.143    0.000    0.000 
#    0.000    3.429    0.000    3.571    0.000    0.000 
#
# Total GULP energy -937747.515263 kJ/mol
# GULP energy per Si atom -5581.830448 kJ/mol
# Density = 1.690024 g / cm^3
# Si number density = 16.938791 Si / 1000 Ang^3
#
#
#
# Elastic Constant Matrix: (Units=GPa)
#
#
# Indices 1 2 3 4 5 6 
#
# 1 111.2844 81.7397 53.7689 0.0000 0.0000 0.0000
# 2 81.7397 111.2844 53.7689 0.0000 0.0000 0.0000
# 3 53.7689 53.7689 62.8291 0.0000 0.0000 0.0000
# 4 0.0000 0.0000 0.0000 14.8636 0.0000 0.0000
# 5 0.0000 0.0000 0.0000 0.0000 14.8636 0.0000
# 6 0.0000 0.0000 0.0000 0.0000 0.0000 14.7723
#
#
#
# Elastic Compliance Matrix: (Units=1/GPa)
#
#
# Indices 1 2 3 4 5 6 
#
# 1 0.021874 -0.011973 -0.008474 0.000000 0.000000 0.000000
# 2 -0.011973 0.021874 -0.008474 0.000000 0.000000 0.000000
# 3 -0.008474 -0.008474 0.030420 0.000000 0.000000 0.000000
# 4 0.000000 0.000000 0.000000 0.067278 0.000000 0.000000
# 5 0.000000 0.000000 0.000000 0.000000 0.067278 0.000000
# 6 0.000000 0.000000 0.000000 0.000000 0.000000 0.067694
#
#
# Mechanical properties :
#
#
# Convention : Reuss Voigt Hill
#
# Bulk Modulus (GPa) = 61.24450 73.77255 67.50853
# Shear Modulus (GPa) = 14.71874 15.30792 15.01333
#
# Velocity S-wave (km/s) = 2.95097 3.00945 2.98036
# Velocity P-wave (km/s) = 6.91707 7.46477 7.19613
#
# Compressibility (1/GPa) = 0.01632800
#
# Stress axis : x y z
#
# Youngs Moduli (GPa) = 45.71563 45.71563 32.87322
#
# Poissons Ratio (x) = 0.54734 0.27856
# Poissons Ratio (y) = 0.54734 0.27856
# Poissons Ratio (z) = 0.38738 0.38738
#
# Static dielectric constant tensor:
#      x y z
#    x 1.554480 0.000000 0.000000 
#    y 0.000000 1.554480 0.000000 
#    z 0.000000 0.000000 1.579510 
# 
# From -- ./inp_files/10770.got.cif
#   From: 2010.05.17/outbox.cif.g08.bks.cpg/sg191_6_cif.got.tgz:10770.got - 2010.05.20 12:20:32.
