data_PCOD9587257
_publ_section_title
;
Structure prediction by ZEFSAII (Michael W. Deem and Ramdas Pophale) SiO2 
 PCOD9587257
Probable space group: P 6/M M M
;
_chemical_formula_sum "Si O2"
_cell_formula_units_Z 120
_cell_length_a 27.458881
_cell_length_b 27.458881
_cell_length_c 12.074474
_cell_angle_alpha 90.000000
_cell_angle_beta 90.000000
_cell_angle_gamma 120.000000
_cell_volume 7884.325077
_symmetry_space_group_name_H-M "P 6/M M M"
_symmetry_group_IT_number 191
_symmetry_cell_setting 'hexagonal'
loop_
_space_group_symop_operation_xyz
x,y,z
x-y,x,z
-y,x-y,z
-x,-y,z
-x+y,-x,z
y,-x+y,z
x-y,-y,-z
-x,-x+y,-z
y,x,-z
-y,-x,-z
-x+y,y,-z
x,x-y,-z
-x,-y,-z
-x+y,-x,-z
y,-x+y,-z
x,y,-z
x-y,x,-z
-y,x-y,-z
-x+y,y,z
x,x-y,z
-y,-x,z
y,x,z
x-y,-y,z
-x,-x+y,z
loop_
_atom_site_type_symbol
_atom_site_label
_atom_site_fract_x
_atom_site_fract_y
_atom_site_fract_z
Si Si1 0.447099 0.780230 0.760384
Si Si2 0.664253 0.063376 0.000000
Si Si3 0.497357 0.192488 0.000000
Si Si4 0.935603 0.173689 0.869246
Si Si5 0.063943 0.341167 0.769273
Si Si6 0.560414 0.838318 0.630748
O O1 0.393209 0.786418 0.740215
O O2 0.433980 0.716990 0.735745
O O3 0.466011 0.792234 0.888742
O O4 0.501184 0.821809 0.687751
O O5 0.696567 0.064329 0.888568
O O6 0.669678 0.125015 0.000000
O O7 0.607908 0.000000 0.000000
O O8 0.471698 0.235849 0.000000
O O9 0.890548 0.109453 0.848055
O O10 0.922422 0.214312 0.795908
O O11 0.000000 0.191532 0.849615
O O12 0.931243 0.185108 0.000000
O O13 0.108647 0.388937 0.690450
O O14 0.000000 0.312067 0.726024
O O15 0.559175 0.847129 0.500000
O O16 0.567847 0.783924 0.648117
#
# Coordination Sequence:
#
# PCOD9587257 Si02
#       6
#    24  12  12  24  24  24
#     4  10  20  34  53  76 100 124 154 194 241 288
#     4  10  18  29  48  76 102 122 152 196 240 291
#     4  10  19  31  52  78 101 129 158 190 243 298
#     4   9  16  25  40  65  95 125 157 196 241 286
#     4  10  18  30  49  72  97 123 155 196 243 288
#     4  10  21  35  50  70  95 126 165 200 230 276
#
# _framework density 15.220072999999999
#
# number of rings (size 3 to 8) (size 9 to 14) (size 15 to 20)
#    0.000    2.200    3.000    1.100    0.000    1.600 
#    0.000    1.000    0.000    4.400    0.000    2.800 
#    0.000    0.000    0.000    0.000    0.000    0.000 
#
# Total GULP energy -668397.754379 kJ/mol
# GULP energy per Si atom -5569.981286 kJ/mol
# Density = 1.518543 g / cm^3
# Si number density = 15.220073 Si / 1000 Ang^3
#
#
#
# Elastic Constant Matrix: (Units=GPa)
#
#
# Indices 1 2 3 4 5 6 
#
# 1 111.4526 76.2606 46.6136 0.0000 0.0000 0.0000
# 2 76.2606 111.4526 46.6136 0.0000 0.0000 0.0000
# 3 46.6136 46.6136 80.7477 0.0000 0.0000 0.0000
# 4 0.0000 0.0000 0.0000 4.7047 0.0000 0.0000
# 5 0.0000 0.0000 0.0000 0.0000 4.7047 0.0000
# 6 0.0000 0.0000 0.0000 0.0000 0.0000 17.5960
#
#
#
# Elastic Compliance Matrix: (Units=1/GPa)
#
#
# Indices 1 2 3 4 5 6 
#
# 1 0.017942 -0.010474 -0.004311 0.000000 0.000000 0.000000
# 2 -0.010474 0.017942 -0.004311 0.000000 0.000000 0.000000
# 3 -0.004311 -0.004311 0.017362 0.000000 0.000000 0.000000
# 4 0.000000 0.000000 0.000000 0.212555 0.000000 0.000000
# 5 0.000000 0.000000 0.000000 0.000000 0.212555 0.000000
# 6 0.000000 0.000000 0.000000 0.000000 0.000000 0.056831
#
#
# Mechanical properties :
#
#
# Convention : Reuss Voigt Hill
#
# Bulk Modulus (GPa) = 66.42996 71.40317 68.91657
# Shear Modulus (GPa) = 8.64456 14.34539 11.49498
#
# Velocity S-wave (km/s) = 2.38580 3.07340 2.75116
# Velocity P-wave (km/s) = 7.16453 7.72075 7.44783
#
# Compressibility (1/GPa) = 0.01505345
#
# Stress axis : x y z
#
# Youngs Moduli (GPa) = 55.73505 55.73505 57.59712
#
# Poissons Ratio (x) = 0.58374 0.24832
# Poissons Ratio (y) = 0.58374 0.24832
# Poissons Ratio (z) = 0.24030 0.24030
#
# Static dielectric constant tensor:
#      x y z
#    x 1.504220 0.000000 0.000000 
#    y 0.000000 1.504220 0.000000 
#    z 0.000000 0.000000 1.490710 
# 
# From -- ./inp_files/3248.got.cif
#   From: 2010.05.17/outbox.cif.g08.bks.cpg/sg191_2_cif.got.tgz:3248.got - 2010.05.20 12:20:32.
