data_PCOD9587072
_publ_section_title
;
Structure prediction by ZEFSAII (Michael W. Deem and Ramdas Pophale) SiO2 
 PCOD9587072
Probable space group: P 6/M M M
;
_chemical_formula_sum "Si O2"
_cell_formula_units_Z 120
_cell_length_a 18.079290
_cell_length_b 18.079290
_cell_length_c 28.252426
_cell_angle_alpha 90.000000
_cell_angle_beta 90.000000
_cell_angle_gamma 120.000000
_cell_volume 7997.405554
_symmetry_space_group_name_H-M "P 6/M M M"
_symmetry_group_IT_number 191
_symmetry_cell_setting 'hexagonal'
loop_
_space_group_symop_operation_xyz
x,y,z
x-y,x,z
-y,x-y,z
-x,-y,z
-x+y,-x,z
y,-x+y,z
x-y,-y,-z
-x,-x+y,-z
y,x,-z
-y,-x,-z
-x+y,y,-z
x,x-y,-z
-x,-y,-z
-x+y,-x,-z
y,-x+y,-z
x,y,-z
x-y,x,-z
-y,x-y,-z
-x+y,y,z
x,x-y,z
-y,-x,z
y,x,z
x-y,-y,z
-x,-x+y,z
loop_
_atom_site_type_symbol
_atom_site_label
_atom_site_fract_x
_atom_site_fract_y
_atom_site_fract_z
Si Si1 0.504354 0.835205 0.202283
Si Si2 0.361312 0.902004 0.900062
Si Si3 0.000000 0.410533 0.553863
Si Si4 0.631691 0.901655 0.712682
Si Si5 0.497178 0.166912 0.000000
Si Si6 0.332079 0.489467 0.378380
O O1 0.427160 0.854320 0.208005
O O2 0.472560 0.736280 0.212730
O O3 0.535660 0.853567 0.148020
O O4 0.580730 0.888953 0.238400
O O5 0.448855 0.897709 0.902273
O O6 0.316173 0.867909 0.950536
O O7 0.388650 0.000000 0.894867
O O8 0.085702 0.433387 0.582580
O O9 0.000000 0.500000 0.552222
O O10 0.000000 0.382798 0.500000
O O11 0.661024 0.830512 0.711522
O O12 0.562020 0.875984 0.670818
O O13 0.704081 0.000000 0.707260
O O14 0.572183 0.144366 0.000000
O O15 0.535750 0.267875 0.000000
O O16 0.249597 0.499193 0.388628
O O17 0.418180 0.581821 0.375367
#
# Coordination Sequence:
#
# PCOD9587072 Si02
#       6
#    24  24  12  24  12  24
#     4  10  19  29  43  64  92 122 153 187 224 266
#     4   9  17  28  40  54  73 103 142 182 221 264
#     4   9  18  32  48  66  92 126 161 198 238 276
#     4  10  20  33  50  71  94 122 153 189 231 278
#     4  10  18  27  39  53  72  97 130 174 225 276
#     4  10  19  31  48  70  97 128 163 199 237 279
#
# _framework density 15.004866
#
# number of rings (size 3 to 8) (size 9 to 14) (size 15 to 20)
#    0.000    2.300    1.000    2.600    0.000    3.600 
#    0.000    4.000    0.000    1.400    0.000    0.000 
#    0.000    0.000    0.000    0.000    0.000    9.100 
#
# Total GULP energy -668323.475679 kJ/mol
# GULP energy per Si atom -5569.362297 kJ/mol
# Density = 1.497071 g / cm^3
# Si number density = 15.004866 Si / 1000 Ang^3
#
#
#
# Elastic Constant Matrix: (Units=GPa)
#
#
# Indices 1 2 3 4 5 6 
#
# 1 73.2531 50.9108 38.0489 0.0000 0.0000 0.0000
# 2 50.9108 73.2531 38.0489 0.0000 0.0000 0.0000
# 3 38.0489 38.0489 92.9113 0.0000 0.0000 0.0000
# 4 0.0000 0.0000 0.0000 15.1466 0.0000 0.0000
# 5 0.0000 0.0000 0.0000 0.0000 15.1466 0.0000
# 6 0.0000 0.0000 0.0000 0.0000 0.0000 11.1711
#
#
#
# Elastic Compliance Matrix: (Units=1/GPa)
#
#
# Indices 1 2 3 4 5 6 
#
# 1 0.027755 -0.017003 -0.004403 0.000000 0.000000 0.000000
# 2 -0.017003 0.027755 -0.004403 0.000000 0.000000 0.000000
# 3 -0.004403 -0.004403 0.014370 0.000000 0.000000 0.000000
# 4 0.000000 0.000000 0.000000 0.066022 0.000000 0.000000
# 5 0.000000 0.000000 0.000000 0.000000 0.066022 0.000000
# 6 0.000000 0.000000 0.000000 0.000000 0.000000 0.089516
#
#
# Mechanical properties :
#
#
# Convention : Reuss Voigt Hill
#
# Bulk Modulus (GPa) = 54.76102 54.82607 54.79354
# Shear Modulus (GPa) = 14.32065 15.78677 15.05371
#
# Velocity S-wave (km/s) = 3.09269 3.24714 3.17086
# Velocity P-wave (km/s) = 7.02337 7.11876 7.07123
#
# Compressibility (1/GPa) = 0.01826117
#
# Stress axis : x y z
#
# Youngs Moduli (GPa) = 36.02898 36.02898 69.59177
#
# Poissons Ratio (x) = 0.61259 0.30644
# Poissons Ratio (y) = 0.61259 0.30644
# Poissons Ratio (z) = 0.15865 0.15865
#
# Static dielectric constant tensor:
#      x y z
#    x 1.487170 0.000000 0.000000 
#    y 0.000000 1.487170 0.000000 
#    z 0.000000 0.000000 1.525480 
# 
# From -- ./inp_files/9594.got.cif
#   From: 2010.05.17/outbox.cif.g08.bks.cpg/sg191_5_cif.got.tgz:9594.got - 2010.05.20 12:20:32.
