data_PCOD9587078
_publ_section_title
;
Structure prediction by ZEFSAII (Michael W. Deem and Ramdas Pophale) SiO2 
 PCOD9587078
Probable space group: P 6/M M M
;
_chemical_formula_sum "Si O2"
_cell_formula_units_Z 180
_cell_length_a 21.518142
_cell_length_b 21.518142
_cell_length_c 32.149886
_cell_angle_alpha 90.000000
_cell_angle_beta 90.000000
_cell_angle_gamma 120.000000
_cell_volume 12891.979530
_symmetry_space_group_name_H-M "P 6/M M M"
_symmetry_group_IT_number 191
_symmetry_cell_setting 'hexagonal'
loop_
_space_group_symop_operation_xyz
x,y,z
x-y,x,z
-y,x-y,z
-x,-y,z
-x+y,-x,z
y,-x+y,z
x-y,-y,-z
-x,-x+y,-z
y,x,-z
-y,-x,-z
-x+y,y,-z
x,x-y,-z
-x,-y,-z
-x+y,-x,-z
y,-x+y,-z
x,y,-z
x-y,x,-z
-y,x-y,-z
-x+y,y,z
x,x-y,z
-y,-x,z
y,x,z
x-y,-y,z
-x,-x+y,z
loop_
_atom_site_type_symbol
_atom_site_label
_atom_site_fract_x
_atom_site_fract_y
_atom_site_fract_z
Si Si1 0.665891 0.193313 0.322221
Si Si2 0.465864 0.082587 0.923187
Si Si3 0.425226 0.284594 0.752697
Si Si4 0.691482 0.772888 0.681099
Si Si5 0.913984 0.527907 0.830723
Si Si6 0.812510 0.479356 0.549655
Si Si7 0.815816 0.483253 0.000000
Si Si8 0.419925 0.084066 0.616732
O O1 0.610948 0.221896 0.323629
O O2 0.745229 0.254772 0.335676
O O3 0.674095 0.169691 0.276273
O O4 0.638562 0.124484 0.351395
O O5 0.539922 0.079844 0.922879
O O6 0.460929 0.108184 0.876832
O O7 0.475464 0.136869 0.959613
O O8 0.403537 0.000000 0.930323
O O9 0.416974 0.208487 0.764288
O O10 0.359836 0.266861 0.721044
O O11 0.436797 0.330819 0.793353
O O12 0.709788 0.854894 0.681991
O O13 0.756280 0.756280 0.681577
O O14 0.643287 0.733801 0.640194
O O15 0.887184 0.443592 0.823695
O O16 0.000000 0.567251 0.832697
O O17 0.823062 0.489018 0.500000
O O18 0.733696 0.467391 0.559174
O O19 0.816342 0.408171 0.561112
O O20 0.871641 0.548330 0.574537
O O21 0.739309 0.478617 0.000000
O O22 0.806892 0.403446 0.000000
O O23 0.391325 0.000000 0.611627
#
# Coordination Sequence:
#
# PCOD9587078 Si02
#       8
#    24  24  24  24  24  24  12  24
#     4  10  19  30  43  58  78 105 137 170 202 235
#     4   8  15  27  41  54  69  94 126 158 191 229
#     4   9  17  27  39  57  82 108 131 158 192 232
#     4   9  17  30  47  65  85 109 135 161 192 231
#     4   9  16  26  40  57  75  96 127 164 197 227
#     4  10  20  33  48  64  83 108 138 171 205 240
#     4  10  18  27  39  55  74  93 118 154 197 240
#     4  10  20  32  45  62  84 107 133 166 202 241
#
# _framework density 13.96217
#
# number of rings (size 3 to 8) (size 9 to 14) (size 15 to 20)
#    0.000    2.667    0.000    4.533    0.000    3.733 
#    0.000    2.000    0.000    0.400    0.000    0.000 
#    0.000    0.000    0.000    0.000    0.000    0.000 
#
# Total GULP energy -1002243.513697 kJ/mol
# GULP energy per Si atom -5568.019521 kJ/mol
# Density = 1.393039 g / cm^3
# Si number density = 13.962170 Si / 1000 Ang^3
#
#
#
# Elastic Constant Matrix: (Units=GPa)
#
#
# Indices 1 2 3 4 5 6 
#
# 1 67.8626 35.3358 40.0378 0.0000 0.0000 0.0000
# 2 35.3358 67.8626 40.0378 0.0000 0.0000 0.0000
# 3 40.0378 40.0378 90.8342 0.0000 0.0000 0.0000
# 4 0.0000 0.0000 0.0000 16.4615 0.0000 0.0000
# 5 0.0000 0.0000 0.0000 0.0000 16.4615 0.0000
# 6 0.0000 0.0000 0.0000 0.0000 0.0000 16.2634
#
#
#
# Elastic Compliance Matrix: (Units=1/GPa)
#
#
# Indices 1 2 3 4 5 6 
#
# 1 0.022735 -0.008008 -0.006491 0.000000 0.000000 0.000000
# 2 -0.008008 0.022735 -0.006491 0.000000 0.000000 0.000000
# 3 -0.006491 -0.006491 0.016732 0.000000 0.000000 0.000000
# 4 0.000000 0.000000 0.000000 0.060748 0.000000 0.000000
# 5 0.000000 0.000000 0.000000 0.000000 0.060748 0.000000
# 6 0.000000 0.000000 0.000000 0.000000 0.000000 0.061488
#
#
# Mechanical properties :
#
#
# Convention : Reuss Voigt Hill
#
# Bulk Modulus (GPa) = 49.45568 50.82025 50.13797
# Shear Modulus (GPa) = 17.01211 17.24713 17.12962
#
# Velocity S-wave (km/s) = 3.49441 3.51846 3.50646
# Velocity P-wave (km/s) = 7.19578 7.27899 7.23750
#
# Compressibility (1/GPa) = 0.02022012
#
# Stress axis : x y z
#
# Youngs Moduli (GPa) = 43.98428 43.98428 59.76732
#
# Poissons Ratio (x) = 0.35225 0.38797
# Poissons Ratio (y) = 0.35225 0.38797
# Poissons Ratio (z) = 0.28552 0.28552
#
# Static dielectric constant tensor:
#      x y z
#    x 1.448910 0.000000 0.000000 
#    y 0.000000 1.448910 0.000000 
#    z 0.000000 0.000000 1.482680 
# 
# From -- ./inp_files/10879.got.cif
#   From: 2010.05.17/outbox.cif.g08.bks.cpg/sg191_6_cif.got.tgz:10879.got - 2010.05.20 12:20:32.
