data_PCOD9587987
_publ_section_title
;
Structure prediction by ZEFSAII (Michael W. Deem and Ramdas Pophale) SiO2 
 PCOD9587987
Probable space group: P 6/M M M
;
_chemical_formula_sum "Si O2"
_cell_formula_units_Z 144
_cell_length_a 23.200161
_cell_length_b 23.200161
_cell_length_c 17.601588
_cell_angle_alpha 90.000000
_cell_angle_beta 90.000000
_cell_angle_gamma 120.000000
_cell_volume 8204.733523
_symmetry_space_group_name_H-M "P 6/M M M"
_symmetry_group_IT_number 191
_symmetry_cell_setting 'hexagonal'
loop_
_space_group_symop_operation_xyz
x,y,z
x-y,x,z
-y,x-y,z
-x,-y,z
-x+y,-x,z
y,-x+y,z
x-y,-y,-z
-x,-x+y,-z
y,x,-z
-y,-x,-z
-x+y,y,-z
x,x-y,-z
-x,-y,-z
-x+y,-x,-z
y,-x+y,-z
x,y,-z
x-y,x,-z
-y,x-y,-z
-x+y,y,z
x,x-y,z
-y,-x,z
y,x,z
x-y,-y,z
-x,-x+y,z
loop_
_atom_site_type_symbol
_atom_site_label
_atom_site_fract_x
_atom_site_fract_y
_atom_site_fract_z
Si Si1 0.927342 0.723536 0.801557
Si Si2 0.531915 0.333285 0.679339
Si Si3 0.466899 0.800838 0.137743
Si Si4 0.389970 0.265042 0.915998
Si Si5 0.418267 0.341396 0.587359
Si Si6 0.208158 0.283812 0.380433
O O1 0.868805 0.737610 0.823214
O O2 0.916777 0.660131 0.849306
O O3 0.922111 0.710024 0.711490
O O4 0.000000 0.783929 0.817517
O O5 0.526266 0.263133 0.657193
O O6 0.604710 0.395291 0.661049
O O7 0.524472 0.332250 0.770790
O O8 0.475408 0.343079 0.639295
O O9 0.402696 0.805392 0.116350
O O10 0.456346 0.728173 0.118139
O O11 0.534850 0.856136 0.100147
O O12 0.391953 0.195977 0.914469
O O13 0.367788 0.271966 0.000000
O O14 0.441140 0.357071 0.500000
O O15 0.390805 0.390805 0.611306
O O16 0.353798 0.267368 0.589657
O O17 0.135552 0.271104 0.403271
O O18 0.227759 0.227759 0.401110
#
# Coordination Sequence:
#
# PCOD9587987 Si02
#       6
#    24  24  24  24  24  24
#     4   9  17  30  49  71  94 122 156 192 230 275
#     4  10  20  34  52  72  95 125 161 199 239 287
#     4   9  17  30  48  69  93 123 159 196 233 275
#     4   9  17  28  43  66  94 121 151 189 232 274
#     4  10  21  35  51  72  96 123 157 198 243 286
#     4   9  17  30  49  72  97 125 158 195 234 279
#
# _framework density 17.550844000000001
#
# number of rings (size 3 to 8) (size 9 to 14) (size 15 to 20)
#    0.000    2.667    0.000    1.833    0.000    6.667 
#    0.000    0.833    0.000    3.833    0.000    3.500 
#    0.000    0.000    0.000    8.333    0.000    8.667 
#
# Total GULP energy -802835.173429 kJ/mol
# GULP energy per Si atom -5575.244260 kJ/mol
# Density = 1.751090 g / cm^3
# Si number density = 17.550844 Si / 1000 Ang^3
#
#
#
# Elastic Constant Matrix: (Units=GPa)
#
#
# Indices 1 2 3 4 5 6 
#
# 1 67.4654 21.1478 20.7454 0.0000 0.0000 0.0000
# 2 21.1478 67.4654 20.7454 0.0000 0.0000 0.0000
# 3 20.7454 20.7454 30.5543 0.0000 0.0000 0.0000
# 4 0.0000 0.0000 0.0000 6.0275 0.0000 0.0000
# 5 0.0000 0.0000 0.0000 0.0000 6.0275 0.0000
# 6 0.0000 0.0000 0.0000 0.0000 0.0000 23.1588
#
#
#
# Elastic Compliance Matrix: (Units=1/GPa)
#
#
# Indices 1 2 3 4 5 6 
#
# 1 0.019067 -0.002523 -0.011233 0.000000 0.000000 0.000000
# 2 -0.002523 0.019067 -0.011233 0.000000 0.000000 0.000000
# 3 -0.011233 -0.011233 0.047983 0.000000 0.000000 0.000000
# 4 0.000000 0.000000 0.000000 0.165906 0.000000 0.000000
# 5 0.000000 0.000000 0.000000 0.000000 0.165906 0.000000
# 6 0.000000 0.000000 0.000000 0.000000 0.000000 0.043180
#
#
# Mechanical properties :
#
#
# Convention : Reuss Voigt Hill
#
# Bulk Modulus (GPa) = 27.67105 32.30692 29.98899
# Shear Modulus (GPa) = 9.55778 13.89920 11.72849
#
# Velocity S-wave (km/s) = 2.33615 2.81719 2.58787
# Velocity P-wave (km/s) = 4.80388 5.38792 5.10426
#
# Compressibility (1/GPa) = 0.03613885
#
# Stress axis : x y z
#
# Youngs Moduli (GPa) = 52.44561 52.44561 20.84090
#
# Poissons Ratio (x) = 0.13230 0.23411
# Poissons Ratio (y) = 0.13230 0.23411
# Poissons Ratio (z) = 0.58914 0.58914
#
# Static dielectric constant tensor:
#      x y z
#    x 1.586230 0.000000 0.000000 
#    y 0.000000 1.586230 0.000000 
#    z 0.000000 0.000000 1.622440 
# 
# From -- ./inp_files/6605.got.cif
#   From: 2010.05.17/outbox.cif.g08.bks.cpg/sg191_4_cif.got.tgz:6605.got - 2010.05.20 12:20:32.
