data_PCOD9587588
_publ_section_title
;
Structure prediction by ZEFSAII (Michael W. Deem and Ramdas Pophale) SiO2 
 PCOD9587588
Probable space group: P 6/M M M
;
_chemical_formula_sum "Si O2"
_cell_formula_units_Z 144
_cell_length_a 21.512781
_cell_length_b 21.512781
_cell_length_c 23.196208
_cell_angle_alpha 90.000000
_cell_angle_beta 90.000000
_cell_angle_gamma 120.000000
_cell_volume 9296.955204
_symmetry_space_group_name_H-M "P 6/M M M"
_symmetry_group_IT_number 191
_symmetry_cell_setting 'hexagonal'
loop_
_space_group_symop_operation_xyz
x,y,z
x-y,x,z
-y,x-y,z
-x,-y,z
-x+y,-x,z
y,-x+y,z
x-y,-y,-z
-x,-x+y,-z
y,x,-z
-y,-x,-z
-x+y,y,-z
x,x-y,-z
-x,-y,-z
-x+y,-x,-z
y,-x+y,-z
x,y,-z
x-y,x,-z
-y,x-y,-z
-x+y,y,z
x,x-y,z
-y,-x,z
y,x,z
x-y,-y,z
-x,-x+y,z
loop_
_atom_site_type_symbol
_atom_site_label
_atom_site_fract_x
_atom_site_fract_y
_atom_site_fract_z
Si Si1 0.221303 0.918544 0.754339
Si Si2 0.159645 0.460946 0.431612
Si Si3 0.332704 0.812804 0.064895
Si Si4 0.457939 0.915878 0.376635
Si Si5 0.454937 0.299820 0.814420
Si Si6 0.457724 0.915448 0.761542
Si Si7 0.081835 0.303308 0.382406
O O1 0.138223 0.861778 0.764411
O O2 0.267022 0.892497 0.791113
O O3 0.235347 0.914370 0.686039
O O4 0.245431 0.000000 0.767478
O O5 0.160265 0.472382 0.500000
O O6 0.240595 0.481189 0.413750
O O7 0.125785 0.502674 0.399855
O O8 0.110440 0.376899 0.417007
O O9 0.409792 0.819584 0.074575
O O10 0.270822 0.729179 0.066534
O O11 0.314190 0.849486 0.117014
O O12 0.331622 0.838986 0.000000
O O13 0.457606 0.915211 0.307569
O O14 0.500000 0.000000 0.395254
O O15 0.476150 0.238075 0.801961
O O16 0.502709 0.376221 0.784170
O O17 0.500000 0.000000 0.779981
O O18 0.138024 0.276048 0.392695
O O19 0.000000 0.247629 0.396621
#
# Coordination Sequence:
#
# PCOD9587588 Si02
#       7
#    24  24  24  12  24  12  24
#     4   9  17  30  49  70  93 121 153 189 230 278
#     4  10  21  36  52  70  93 121 155 197 241 285
#     4   9  16  27  44  64  90 124 162 201 241 280
#     4  11  23  36  53  73  94 123 163 203 243 291
#     4  10  19  31  47  70  95 125 162 202 240 282
#     4  11  22  35  49  69  97 130 161 199 249 293
#     4   9  17  30  49  72  96 121 150 187 229 275
#
# _framework density 15.488942
#
# number of rings (size 3 to 8) (size 9 to 14) (size 15 to 20)
#    0.000    2.333    0.833    2.417    0.000    7.000 
#    1.000    0.000    0.000    2.833    0.000    2.333 
#    0.000    0.000    0.000    4.167    0.000    4.333 
#
# Total GULP energy -802481.814187 kJ/mol
# GULP energy per Si atom -5572.790376 kJ/mol
# Density = 1.545369 g / cm^3
# Si number density = 15.488942 Si / 1000 Ang^3
#
#
#
# Elastic Constant Matrix: (Units=GPa)
#
#
# Indices 1 2 3 4 5 6 
#
# 1 83.6834 55.0927 31.1145 0.0000 0.0000 0.0000
# 2 55.0927 83.6834 31.1145 0.0000 0.0000 0.0000
# 3 31.1145 31.1145 44.2311 0.0000 0.0000 0.0000
# 4 0.0000 0.0000 0.0000 7.1396 0.0000 0.0000
# 5 0.0000 0.0000 0.0000 0.0000 7.1396 0.0000
# 6 0.0000 0.0000 0.0000 0.0000 0.0000 14.2954
#
#
#
# Elastic Compliance Matrix: (Units=1/GPa)
#
#
# Indices 1 2 3 4 5 6 
#
# 1 0.022751 -0.012225 -0.007405 0.000000 0.000000 0.000000
# 2 -0.012225 0.022751 -0.007405 0.000000 0.000000 0.000000
# 3 -0.007405 -0.007405 0.033026 0.000000 0.000000 0.000000
# 4 0.000000 0.000000 0.000000 0.140065 0.000000 0.000000
# 5 0.000000 0.000000 0.000000 0.000000 0.140065 0.000000
# 6 0.000000 0.000000 0.000000 0.000000 0.000000 0.069953
#
#
# Mechanical properties :
#
#
# Convention : Reuss Voigt Hill
#
# Bulk Modulus (GPa) = 40.88324 49.58233 45.23278
# Shear Modulus (GPa) = 10.18676 11.99997 11.09337
#
# Velocity S-wave (km/s) = 2.56731 2.78644 2.67912
# Velocity P-wave (km/s) = 5.93637 6.51408 6.23193
#
# Compressibility (1/GPa) = 0.02445990
#
# Stress axis : x y z
#
# Youngs Moduli (GPa) = 43.95351 43.95351 30.27892
#
# Poissons Ratio (x) = 0.53734 0.22421
# Poissons Ratio (y) = 0.53734 0.22421
# Poissons Ratio (z) = 0.32546 0.32546
#
# Static dielectric constant tensor:
#      x y z
#    x 1.506400 0.000000 0.000000 
#    y 0.000000 1.506400 0.000000 
#    z 0.000000 0.000000 1.524270 
# 
# From -- ./inp_files/8940.got.cif
#   From: 2010.05.17/outbox.cif.g08.bks.cpg/sg191_5_cif.got.tgz:8940.got - 2010.05.20 12:20:32.
