data_PCOD9587323
_publ_section_title
;
Structure prediction by ZEFSAII (Michael W. Deem and Ramdas Pophale) SiO2 
 PCOD9587323
Probable space group: P 6/M M M
;
_chemical_formula_sum "Si O2"
_cell_formula_units_Z 114
_cell_length_a 21.656155
_cell_length_b 21.656155
_cell_length_c 15.060173
_cell_angle_alpha 90.000000
_cell_angle_beta 90.000000
_cell_angle_gamma 120.000000
_cell_volume 6116.786114
_symmetry_space_group_name_H-M "P 6/M M M"
_symmetry_group_IT_number 191
_symmetry_cell_setting 'hexagonal'
loop_
_space_group_symop_operation_xyz
x,y,z
x-y,x,z
-y,x-y,z
-x,-y,z
-x+y,-x,z
y,-x+y,z
x-y,-y,-z
-x,-x+y,-z
y,x,-z
-y,-x,-z
-x+y,y,-z
x,x-y,-z
-x,-y,-z
-x+y,-x,-z
y,-x+y,-z
x,y,-z
x-y,x,-z
-y,x-y,-z
-x+y,y,z
x,x-y,z
-y,-x,z
y,x,z
x-y,-y,z
-x,-x+y,z
loop_
_atom_site_type_symbol
_atom_site_label
_atom_site_fract_x
_atom_site_fract_y
_atom_site_fract_z
Si Si1 0.537577 0.701326 0.397478
Si Si2 0.221162 0.918539 0.653224
Si Si3 0.541007 0.082014 0.609297
Si Si4 0.666259 0.188590 0.892547
Si Si5 0.718933 0.082163 0.847499
Si Si6 0.834117 0.165884 0.000000
O O1 0.514186 0.693109 0.500000
O O2 0.523706 0.761853 0.355620
O O3 0.622346 0.733622 0.397082
O O4 0.498561 0.622462 0.359216
O O5 0.138284 0.861717 0.639038
O O6 0.242593 0.915145 0.755150
O O7 0.247436 0.000000 0.630213
O O8 0.540083 0.080165 0.500000
O O9 0.500000 0.000000 0.638425
O O10 0.591196 0.182392 0.869391
O O11 0.732302 0.267699 0.874909
O O12 0.683151 0.131882 0.846908
O O13 0.666896 0.177933 0.000000
O O14 0.778372 0.114129 0.923047
O O15 0.661116 0.000000 0.864571
#
# Coordination Sequence:
#
# PCOD9587323 Si02
#       6
#    24  24  12  24  24   6
#     4   9  18  33  53  77 105 139 177 216 260 307
#     4  10  20  35  54  77 105 132 164 210 260 308
#     4   9  16  28  48  74 101 133 176 219 257 305
#     4  10  18  31  48  68  94 128 169 209 251 299
#     4  11  21  34  53  75 100 132 167 214 264 307
#     4  12  18  36  54  72 100 132 169 208 259 316
#
# _framework density 18.637239000000001
#
# number of rings (size 3 to 8) (size 9 to 14) (size 15 to 20)
#    0.000    2.000    3.158    1.158    0.000    2.526 
#    2.526    1.053    0.000    0.211    0.000    0.000 
#    0.000    0.000    0.000   12.421    0.000    0.000 
#
# Total GULP energy -634608.875966 kJ/mol
# GULP energy per Si atom -5566.744526 kJ/mol
# Density = 1.859482 g / cm^3
# Si number density = 18.637239 Si / 1000 Ang^3
#
#
#
# Elastic Constant Matrix: (Units=GPa)
#
#
# Indices 1 2 3 4 5 6 
#
# 1 127.8307 93.6223 -4.4330 0.0000 0.0000 0.0000
# 2 93.6223 127.8307 -4.4330 0.0000 0.0000 0.0000
# 3 -4.4330 -4.4330 33.0355 0.0000 0.0000 0.0000
# 4 0.0000 0.0000 0.0000 13.9464 0.0000 0.0000
# 5 0.0000 0.0000 0.0000 0.0000 13.9464 0.0000
# 6 0.0000 0.0000 0.0000 0.0000 0.0000 17.1042
#
#
#
# Elastic Compliance Matrix: (Units=1/GPa)
#
#
# Indices 1 2 3 4 5 6 
#
# 1 0.016886 -0.012346 0.000609 0.000000 0.000000 0.000000
# 2 -0.012346 0.016886 0.000609 0.000000 0.000000 0.000000
# 3 0.000609 0.000609 0.030434 0.000000 0.000000 0.000000
# 4 0.000000 0.000000 0.000000 0.071703 0.000000 0.000000
# 5 0.000000 0.000000 0.000000 0.000000 0.071703 0.000000
# 6 0.000000 0.000000 0.000000 0.000000 0.000000 0.058465
#
#
# Mechanical properties :
#
#
# Convention : Reuss Voigt Hill
#
# Bulk Modulus (GPa) = 23.83740 50.91218 37.37479
# Shear Modulus (GPa) = 16.53890 22.59543 19.56716
#
# Velocity S-wave (km/s) = 2.98218 3.48570 3.24373
# Velocity P-wave (km/s) = 4.96747 6.60128 5.84178
#
# Compressibility (1/GPa) = 0.04195088
#
# Stress axis : x y z
#
# Youngs Moduli (GPa) = 59.21963 59.21963 32.85803
#
# Poissons Ratio (x) = 0.73114 -0.02002
# Poissons Ratio (y) = 0.73114 -0.02002
# Poissons Ratio (z) = -0.03608 -0.03608
#
# Static dielectric constant tensor:
#      x y z
#    x 1.632710 0.000000 0.000000 
#    y 0.000000 1.632710 0.000000 
#    z 0.000000 0.000000 1.708920 
# 
# From -- ./inp_files/4413.got.cif
#   From: 2010.05.17/outbox.cif.g08.bks.cpg/sg191_3_cif.got.tgz:4413.got - 2010.05.20 12:20:32.
