data_PCOD9587220
_publ_section_title
;
Structure prediction by ZEFSAII (Michael W. Deem and Ramdas Pophale) SiO2 
 PCOD9587220
Probable space group: P 6/M M M
;
_chemical_formula_sum "Si O2"
_cell_formula_units_Z 144
_cell_length_a 22.472628
_cell_length_b 22.472628
_cell_length_c 19.460561
_cell_angle_alpha 90.000000
_cell_angle_beta 90.000000
_cell_angle_gamma 120.000000
_cell_volume 8511.257169
_symmetry_space_group_name_H-M "P 6/M M M"
_symmetry_group_IT_number 191
_symmetry_cell_setting 'hexagonal'
loop_
_space_group_symop_operation_xyz
x,y,z
x-y,x,z
-y,x-y,z
-x,-y,z
-x+y,-x,z
y,-x+y,z
x-y,-y,-z
-x,-x+y,-z
y,x,-z
-y,-x,-z
-x+y,y,-z
x,x-y,-z
-x,-y,-z
-x+y,-x,-z
y,-x+y,-z
x,y,-z
x-y,x,-z
-y,x-y,-z
-x+y,y,z
x,x-y,z
-y,-x,z
y,x,z
x-y,-y,z
-x,-x+y,z
loop_
_atom_site_type_symbol
_atom_site_label
_atom_site_fract_x
_atom_site_fract_y
_atom_site_fract_z
Si Si1 0.920316 0.221461 0.768363
Si Si2 0.081098 0.666289 0.144779
Si Si3 0.333385 0.799265 0.220641
Si Si4 0.379920 0.118489 0.626964
Si Si5 0.802693 0.468718 0.613832
Si Si6 0.789728 0.717736 0.500000
Si Si7 0.389101 0.916735 0.000000
O O1 0.858196 0.141805 0.765015
O O2 0.908893 0.260003 0.833018
O O3 0.913008 0.260452 0.700789
O O4 0.000000 0.239269 0.770006
O O5 0.126770 0.649999 0.195745
O O6 0.000000 0.613498 0.152489
O O7 0.102667 0.656711 0.068526
O O8 0.391510 0.783020 0.195773
O O9 0.258162 0.741839 0.196581
O O10 0.333198 0.796665 0.303127
O O11 0.389930 0.194965 0.630345
O O12 0.454867 0.133042 0.604703
O O13 0.326411 0.079075 0.567110
O O14 0.731751 0.463502 0.587865
O O15 0.810508 0.405254 0.588664
O O16 0.785944 0.785944 0.500000
O O17 0.865594 0.731187 0.500000
O O18 0.446436 0.892871 0.000000
O O19 0.433228 0.000000 0.000000
#
# Coordination Sequence:
#
# PCOD9587220 Si02
#       7
#    24  24  24  24  24  12  12
#     4  10  19  33  53  76 102 130 165 207 252 302
#     4  10  19  31  50  71  94 126 162 204 250 296
#     4  10  18  29  45  66  93 123 158 198 243 292
#     4   9  17  31  50  73 100 131 167 207 250 297
#     4   9  16  27  45  68  95 127 166 209 250 290
#     4  10  20  34  55  78 101 131 165 201 245 303
#     4   9  18  32  47  68  99 132 166 204 250 299
#
# _framework density 16.918771
#
# number of rings (size 3 to 8) (size 9 to 14) (size 15 to 20)
#    0.000    2.417    1.667    1.833    0.000    2.333 
#    0.000    2.083    0.000    2.750    0.000    2.333 
#    0.000    4.000    0.000    0.000    0.000   10.167 
#
# Total GULP energy -801769.496423 kJ/mol
# GULP energy per Si atom -5567.843725 kJ/mol
# Density = 1.688026 g / cm^3
# Si number density = 16.918771 Si / 1000 Ang^3
#
#
#
# Elastic Constant Matrix: (Units=GPa)
#
#
# Indices 1 2 3 4 5 6 
#
# 1 80.7303 48.8349 25.1854 0.0000 0.0000 0.0000
# 2 48.8349 80.7303 25.1854 0.0000 0.0000 0.0000
# 3 25.1854 25.1854 63.1824 0.0000 0.0000 0.0000
# 4 0.0000 0.0000 0.0000 -49.1725 0.0000 0.0000
# 5 0.0000 0.0000 0.0000 0.0000 -49.1725 0.0000
# 6 0.0000 0.0000 0.0000 0.0000 0.0000 15.9477
#
#
#
# Elastic Compliance Matrix: (Units=1/GPa)
#
#
# Indices 1 2 3 4 5 6 
#
# 1 0.020243 -0.011109 -0.003641 0.000000 0.000000 0.000000
# 2 -0.011109 0.020243 -0.003641 0.000000 0.000000 0.000000
# 3 -0.003641 -0.003641 0.018730 0.000000 0.000000 0.000000
# 4 0.000000 0.000000 0.000000 -0.020337 0.000000 0.000000
# 5 0.000000 0.000000 0.000000 0.000000 -0.020337 0.000000
# 6 0.000000 0.000000 0.000000 0.000000 0.000000 0.062705
#
#
# Mechanical properties :
#
#
# Convention : Reuss Voigt Hill
#
# Bulk Modulus (GPa) = 44.57568 47.00602 45.79085
# Shear Modulus (GPa) = 39.83828 -8.11697 15.86066
#
# Velocity S-wave (km/s) = 4.85777 -2.19272 3.06512
# Velocity P-wave (km/s) = 7.60710 4.62958 6.29686
#
# Compressibility (1/GPa) = 0.02243376
#
# Stress axis : x y z
#
# Youngs Moduli (GPa) = 49.39977 49.39977 53.39119
#
# Poissons Ratio (x) = 0.54881 0.19438
# Poissons Ratio (y) = 0.54881 0.19438
# Poissons Ratio (z) = 0.17985 0.17985
#
# Static dielectric constant tensor:
#      x y z
#    x 1.583350 0.000000 0.000000 
#    y 0.000000 1.583350 0.000000 
#    z 0.000000 0.000000 1.590960 
# 
# From -- ./inp_files/7672.got.cif
#   From: 2010.05.17/outbox.cif.g08.bks.cpg/sg191_4_cif.got.tgz:7672.got - 2010.05.20 12:20:32.
