data_PCOD9587206
_publ_section_title
;
Structure prediction by ZEFSAII (Michael W. Deem and Ramdas Pophale) SiO2 
 PCOD9587206
Probable space group: P 6/M M M
;
_chemical_formula_sum "Si O2"
_cell_formula_units_Z 120
_cell_length_a 18.259402
_cell_length_b 18.259402
_cell_length_c 28.013848
_cell_angle_alpha 90.000000
_cell_angle_beta 90.000000
_cell_angle_gamma 120.000000
_cell_volume 8088.658498
_symmetry_space_group_name_H-M "P 6/M M M"
_symmetry_group_IT_number 191
_symmetry_cell_setting 'hexagonal'
loop_
_space_group_symop_operation_xyz
x,y,z
x-y,x,z
-y,x-y,z
-x,-y,z
-x+y,-x,z
y,-x+y,z
x-y,-y,-z
-x,-x+y,-z
y,x,-z
-y,-x,-z
-x+y,y,-z
x,x-y,-z
-x,-y,-z
-x+y,-x,-z
y,-x+y,-z
x,y,-z
x-y,x,-z
-y,x-y,-z
-x+y,y,z
x,x-y,z
-y,-x,z
y,x,z
x-y,-y,z
-x,-x+y,z
loop_
_atom_site_type_symbol
_atom_site_label
_atom_site_fract_x
_atom_site_fract_y
_atom_site_fract_z
Si Si1 0.331444 0.495717 0.324177
Si Si2 0.366091 0.098888 0.590936
Si Si3 0.411069 0.000000 0.054636
Si Si4 0.636890 0.096475 0.779901
Si Si5 0.532320 0.634326 0.500000
Si Si6 0.330186 0.837078 0.883516
O O1 0.262424 0.524848 0.331785
O O2 0.425905 0.574096 0.330851
O O3 0.308893 0.420871 0.361420
O O4 0.322560 0.462634 0.270000
O O5 0.334659 0.167330 0.591848
O O6 0.431719 0.123263 0.546946
O O7 0.295500 0.000000 0.586010
O O8 0.348002 0.916208 0.083620
O O9 0.500000 0.000000 0.053982
O O10 0.385568 0.000000 0.000000
O O11 0.546810 0.093619 0.780945
O O12 0.680847 0.142514 0.828724
O O13 0.615404 0.000000 0.780450
O O14 0.577723 0.577723 0.500000
O O15 0.432090 0.567911 0.500000
O O16 0.414321 0.828642 0.885318
O O17 0.249167 0.750834 0.898992
#
# Coordination Sequence:
#
# PCOD9587206 Si02
#       6
#    24  24  12  24  12  24
#     4  10  19  29  43  65  94 124 154 188 226 266
#     4  10  20  33  49  69  91 119 155 196 239 282
#     4   9  18  32  46  60  84 116 147 182 226 268
#     4   9  16  27  42  60  85 119 153 183 218 262
#     4   9  17  30  49  70  92 118 150 183 217 264
#     4  10  18  29  45  65  88 116 152 190 225 263
#
# _framework density 14.835587
#
# number of rings (size 3 to 8) (size 9 to 14) (size 15 to 20)
#    0.000    2.400    1.000    2.500    0.000    2.400 
#    0.000    2.000    0.000    4.200    0.000    0.000 
#    0.000    2.400    0.000    0.300    0.000    1.500 
#
# Total GULP energy -668565.791178 kJ/mol
# GULP energy per Si atom -5571.381593 kJ/mol
# Density = 1.480182 g / cm^3
# Si number density = 14.835587 Si / 1000 Ang^3
#
#
#
# Elastic Constant Matrix: (Units=GPa)
#
#
# Indices 1 2 3 4 5 6 
#
# 1 74.7119 43.2541 32.9855 0.0000 0.0000 0.0000
# 2 43.2541 74.7119 32.9855 0.0000 0.0000 0.0000
# 3 32.9855 32.9855 108.1077 0.0000 0.0000 0.0000
# 4 0.0000 0.0000 0.0000 9.8559 0.0000 0.0000
# 5 0.0000 0.0000 0.0000 0.0000 9.8559 0.0000
# 6 0.0000 0.0000 0.0000 0.0000 0.0000 15.7289
#
#
#
# Elastic Compliance Matrix: (Units=1/GPa)
#
#
# Indices 1 2 3 4 5 6 
#
# 1 0.021005 -0.010784 -0.003119 0.000000 0.000000 0.000000
# 2 -0.010784 0.021005 -0.003119 0.000000 0.000000 0.000000
# 3 -0.003119 -0.003119 0.011153 0.000000 0.000000 0.000000
# 4 0.000000 0.000000 0.000000 0.101462 0.000000 0.000000
# 5 0.000000 0.000000 0.000000 0.000000 0.101462 0.000000
# 6 0.000000 0.000000 0.000000 0.000000 0.000000 0.063577
#
#
# Mechanical properties :
#
#
# Convention : Reuss Voigt Hill
#
# Bulk Modulus (GPa) = 52.29915 52.88686 52.59300
# Shear Modulus (GPa) = 13.88579 16.97521 15.43050
#
# Velocity S-wave (km/s) = 3.06270 3.38631 3.22856
# Velocity P-wave (km/s) = 6.91635 7.14251 7.03034
#
# Compressibility (1/GPa) = 0.01912077
#
# Stress axis : x y z
#
# Youngs Moduli (GPa) = 47.60801 47.60801 89.66090
#
# Poissons Ratio (x) = 0.51339 0.27962
# Poissons Ratio (y) = 0.51339 0.27962
# Poissons Ratio (z) = 0.14847 0.14847
#
# Static dielectric constant tensor:
#      x y z
#    x 1.482580 0.000000 0.000000 
#    y 0.000000 1.482580 0.000000 
#    z 0.000000 0.000000 1.508230 
# 
# From -- ./inp_files/9552.got.cif
#   From: 2010.05.17/outbox.cif.g08.bks.cpg/sg191_5_cif.got.tgz:9552.got - 2010.05.20 12:20:32.
