data_PCOD9587525
_publ_section_title
;
Structure prediction by ZEFSAII (Michael W. Deem and Ramdas Pophale) SiO2 
 PCOD9587525
Probable space group: P 6/M M M
;
_chemical_formula_sum "Si O2"
_cell_formula_units_Z 108
_cell_length_a 30.885075
_cell_length_b 30.885075
_cell_length_c 8.452412
_cell_angle_alpha 90.000000
_cell_angle_beta 90.000000
_cell_angle_gamma 120.000000
_cell_volume 6982.462472
_symmetry_space_group_name_H-M "P 6/M M M"
_symmetry_group_IT_number 191
_symmetry_cell_setting 'hexagonal'
loop_
_space_group_symop_operation_xyz
x,y,z
x-y,x,z
-y,x-y,z
-x,-y,z
-x+y,-x,z
y,-x+y,z
x-y,-y,-z
-x,-x+y,-z
y,x,-z
-y,-x,-z
-x+y,y,-z
x,x-y,-z
-x,-y,-z
-x+y,-x,-z
y,-x+y,-z
x,y,-z
x-y,x,-z
-y,x-y,-z
-x+y,y,z
x,x-y,z
-y,-x,z
y,x,z
x-y,-y,z
-x,-x+y,z
loop_
_atom_site_type_symbol
_atom_site_label
_atom_site_fract_x
_atom_site_fract_y
_atom_site_fract_z
Si Si1 0.307587 0.793878 0.324035
Si Si2 0.606584 0.756145 0.685623
Si Si3 0.943372 0.610694 0.812582
Si Si4 0.770293 0.435597 0.000000
Si Si5 0.483483 0.423470 0.311619
O O1 0.332415 0.807230 0.500000
O O2 0.264466 0.735535 0.332145
O O3 0.277067 0.823253 0.303976
O O4 0.337765 0.799136 0.163826
O O5 0.618670 0.761855 0.500000
O O6 0.621174 0.810587 0.752403
O O7 0.627522 0.723149 0.760939
O O8 0.923164 0.553393 0.759515
O O9 0.000000 0.644412 0.747888
O O10 0.946293 0.611626 0.000000
O O11 0.719706 0.439412 0.000000
O O12 0.757453 0.378727 0.000000
O O13 0.485680 0.417992 0.500000
O O14 0.539970 0.460030 0.252703
O O15 0.454284 0.454284 0.284235
#
# Coordination Sequence:
#
# PCOD9587525 Si02
#       5
#    24  24  24  12  24
#     4   8  16  31  48  65  83 104 135 174 212 253
#     4   9  18  33  52  69  83 107 146 183 214 254
#     4  10  20  30  43  68  97 119 141 173 214 260
#     4  10  19  30  46  66  87 111 137 169 212 263
#     4   8  14  26  43  59  77 108 146 176 207 251
#
# _framework density 15.467323
#
# number of rings (size 3 to 8) (size 9 to 14) (size 15 to 20)
#    0.000    3.111    0.000    2.778    1.556    2.667 
#    0.000    3.333    0.000    2.667    0.000    0.000 
#    0.000    0.000    0.000    0.667    0.000   10.000 
#
# Total GULP energy -601236.000228 kJ/mol
# GULP energy per Si atom -5567.000002 kJ/mol
# Density = 1.543212 g / cm^3
# Si number density = 15.467323 Si / 1000 Ang^3
#
#
#
# Elastic Constant Matrix: (Units=GPa)
#
#
# Indices 1 2 3 4 5 6 
#
# 1 57.7221 26.1002 11.0909 0.0000 0.0000 0.0000
# 2 26.1002 57.7221 11.0909 0.0000 0.0000 0.0000
# 3 11.0909 11.0909 42.2369 0.0000 0.0000 0.0000
# 4 0.0000 0.0000 0.0000 14.2458 0.0000 0.0000
# 5 0.0000 0.0000 0.0000 0.0000 14.2458 0.0000
# 6 0.0000 0.0000 0.0000 0.0000 0.0000 15.8110
#
#
#
# Elastic Compliance Matrix: (Units=1/GPa)
#
#
# Indices 1 2 3 4 5 6 
#
# 1 0.022222 -0.009401 -0.003367 0.000000 0.000000 0.000000
# 2 -0.009401 0.022222 -0.003367 0.000000 0.000000 0.000000
# 3 -0.003367 -0.003367 0.025444 0.000000 0.000000 0.000000
# 4 0.000000 0.000000 0.000000 0.070196 0.000000 0.000000
# 5 0.000000 0.000000 0.000000 0.000000 0.070196 0.000000
# 6 0.000000 0.000000 0.000000 0.000000 0.000000 0.063247
#
#
# Mechanical properties :
#
#
# Convention : Reuss Voigt Hill
#
# Bulk Modulus (GPa) = 26.58204 28.24946 27.41575
# Shear Modulus (GPa) = 15.70664 16.15381 15.93023
#
# Velocity S-wave (km/s) = 3.19011 3.23520 3.21273
# Velocity P-wave (km/s) = 5.54908 5.67970 5.61477
#
# Compressibility (1/GPa) = 0.03761938
#
# Stress axis : x y z
#
# Youngs Moduli (GPa) = 44.99992 44.99992 39.30197
#
# Poissons Ratio (x) = 0.42306 0.13231
# Poissons Ratio (y) = 0.42306 0.13231
# Poissons Ratio (z) = 0.15150 0.15150
#
# Static dielectric constant tensor:
#      x y z
#    x 1.536330 0.000000 0.000000 
#    y 0.000000 1.536330 0.000000 
#    z 0.000000 0.000000 1.552330 
# 
# From -- ./inp_files/1713.got.cif
#   From: 2010.05.17/outbox.cif.g08.bks.cpg/sg191_1_cif.got.tgz:1713.got - 2010.05.20 12:20:32.
