data_PCOD9587333
_publ_section_title
;
Structure prediction by ZEFSAII (Michael W. Deem and Ramdas Pophale) SiO2 
 PCOD9587333
Probable space group: P 6/M M M
;
_chemical_formula_sum "Si O2"
_cell_formula_units_Z 168
_cell_length_a 27.121259
_cell_length_b 27.121259
_cell_length_c 15.270721
_cell_angle_alpha 90.000000
_cell_angle_beta 90.000000
_cell_angle_gamma 120.000000
_cell_volume 9727.693233
_symmetry_space_group_name_H-M "P 6/M M M"
_symmetry_group_IT_number 191
_symmetry_cell_setting 'hexagonal'
loop_
_space_group_symop_operation_xyz
x,y,z
x-y,x,z
-y,x-y,z
-x,-y,z
-x+y,-x,z
y,-x+y,z
x-y,-y,-z
-x,-x+y,-z
y,x,-z
-y,-x,-z
-x+y,y,-z
x,x-y,-z
-x,-y,-z
-x+y,-x,-z
y,-x+y,-z
x,y,-z
x-y,x,-z
-y,x-y,-z
-x+y,y,z
x,x-y,z
-y,-x,z
y,x,z
x-y,-y,z
-x,-x+y,z
loop_
_atom_site_type_symbol
_atom_site_label
_atom_site_fract_x
_atom_site_fract_y
_atom_site_fract_z
Si Si1 0.275370 0.340973 0.342396
Si Si2 0.451384 0.666082 0.737574
Si Si3 0.000000 0.558486 0.400249
Si Si4 0.656019 0.534608 0.396364
Si Si5 0.823806 0.295395 0.096575
Si Si6 0.183943 0.251008 0.000000
Si Si7 0.769764 0.112991 0.153813
Si Si8 0.832297 0.061178 0.396889
O O1 0.325155 0.325155 0.356147
O O2 0.291453 0.402469 0.378454
O O3 0.258618 0.335988 0.240770
O O4 0.220169 0.292027 0.389632
O O5 0.449075 0.724538 0.732730
O O6 0.388684 0.611317 0.739731
O O7 0.487131 0.661676 0.656656
O O8 0.487083 0.669041 0.824586
O O9 0.061128 0.603791 0.361980
O O10 0.000000 0.500000 0.405346
O O11 0.000000 0.579329 0.500000
O O12 0.648663 0.521808 0.500000
O O13 0.762905 0.237096 0.094653
O O14 0.868761 0.274166 0.114774
O O15 0.833800 0.322005 0.000000
O O16 0.211913 0.292807 0.916108
O O17 0.202958 0.202958 0.000000
O O18 0.116429 0.232857 0.000000
O O19 0.827671 0.172330 0.176283
O O20 0.842352 0.058384 0.500000
O O21 0.887908 0.112093 0.355287
O O22 0.812485 0.000000 0.356170
#
# Coordination Sequence:
#
# PCOD9587333 Si02
#       8
#    24  24  12  24  24  12  24  24
#     4  11  20  31  50  79 112 141 175 221 272 331
#     4  11  24  41  60  82 110 145 188 235 282 332
#     4   9  18  34  54  74  99 135 181 231 277 321
#     4  11  22  36  56  80 108 144 185 229 277 335
#     4   9  17  33  57  82 106 135 171 218 275 331
#     4  10  20  34  54  81 115 153 193 237 285 341
#     4  10  18  31  52  78 110 145 182 224 274 334
#     4   9  18  31  47  68  98 136 173 212 262 317
#
# _framework density 17.270281000000001
#
# number of rings (size 3 to 8) (size 9 to 14) (size 15 to 20)
#    0.000    1.929    2.857    1.857    0.000    2.571 
#    0.000    0.000    0.000    1.929    0.000    1.000 
#    0.000    3.429    0.000    4.571    0.000    3.143 
#
# Total GULP energy -936289.846460 kJ/mol
# GULP energy per Si atom -5573.153848 kJ/mol
# Density = 1.723097 g / cm^3
# Si number density = 17.270281 Si / 1000 Ang^3
#
#
#
# Elastic Constant Matrix: (Units=GPa)
#
#
# Indices 1 2 3 4 5 6 
#
# 1 97.7669 54.4221 27.9534 0.0000 0.0000 0.0000
# 2 54.4221 97.7669 27.9534 0.0000 0.0000 0.0000
# 3 27.9534 27.9534 73.4778 0.0000 0.0000 0.0000
# 4 0.0000 0.0000 0.0000 16.0801 0.0000 0.0000
# 5 0.0000 0.0000 0.0000 0.0000 16.0801 0.0000
# 6 0.0000 0.0000 0.0000 0.0000 0.0000 21.6724
#
#
#
# Elastic Compliance Matrix: (Units=1/GPa)
#
#
# Indices 1 2 3 4 5 6 
#
# 1 0.015355 -0.007716 -0.002906 0.000000 0.000000 0.000000
# 2 -0.007716 0.015355 -0.002906 0.000000 0.000000 0.000000
# 3 -0.002906 -0.002906 0.015821 0.000000 0.000000 0.000000
# 4 0.000000 0.000000 0.000000 0.062189 0.000000 0.000000
# 5 0.000000 0.000000 0.000000 0.000000 0.062189 0.000000
# 6 0.000000 0.000000 0.000000 0.000000 0.000000 0.046142
#
#
# Mechanical properties :
#
#
# Convention : Reuss Voigt Hill
#
# Bulk Modulus (GPa) = 51.35152 54.40772 52.87962
# Shear Modulus (GPa) = 19.95245 21.34537 20.64891
#
# Velocity S-wave (km/s) = 3.40267 3.51944 3.46154
# Velocity P-wave (km/s) = 6.72578 6.93450 6.83094
#
# Compressibility (1/GPa) = 0.01947362
#
# Stress axis : x y z
#
# Youngs Moduli (GPa) = 65.12745 65.12745 63.20910
#
# Poissons Ratio (x) = 0.50254 0.18368
# Poissons Ratio (y) = 0.50254 0.18368
# Poissons Ratio (z) = 0.18925 0.18925
#
# Static dielectric constant tensor:
#      x y z
#    x 1.597300 0.000000 0.000000 
#    y 0.000000 1.597300 0.000000 
#    z 0.000000 0.000000 1.615600 
# 
# From -- ./inp_files/5327.got.cif
#   From: 2010.05.17/outbox.cif.g08.bks.cpg/sg191_3_cif.got.tgz:5327.got - 2010.05.20 12:20:32.
