data_PCOD9587467
_publ_section_title
;
Structure prediction by ZEFSAII (Michael W. Deem and Ramdas Pophale) SiO2 
 PCOD9587467
Probable space group: P 6/M M M
;
_chemical_formula_sum "Si O2"
_cell_formula_units_Z 120
_cell_length_a 18.597731
_cell_length_b 18.597731
_cell_length_c 25.972238
_cell_angle_alpha 90.000000
_cell_angle_beta 90.000000
_cell_angle_gamma 120.000000
_cell_volume 7779.647675
_symmetry_space_group_name_H-M "P 6/M M M"
_symmetry_group_IT_number 191
_symmetry_cell_setting 'hexagonal'
loop_
_space_group_symop_operation_xyz
x,y,z
x-y,x,z
-y,x-y,z
-x,-y,z
-x+y,-x,z
y,-x+y,z
x-y,-y,-z
-x,-x+y,-z
y,x,-z
-y,-x,-z
-x+y,y,-z
x,x-y,-z
-x,-y,-z
-x+y,-x,-z
y,-x+y,-z
x,y,-z
x-y,x,-z
-y,x-y,-z
-x+y,y,z
x,x-y,z
-y,-x,z
y,x,z
x-y,-y,z
-x,-x+y,z
loop_
_atom_site_type_symbol
_atom_site_label
_atom_site_fract_x
_atom_site_fract_y
_atom_site_fract_z
Si Si1 0.366509 0.459432 0.835561
Si Si2 0.665828 0.499706 0.439027
Si Si3 0.504727 0.668085 0.943893
Si Si4 0.499983 0.331145 0.727454
Si Si5 0.736126 0.641076 0.643385
O O1 0.454081 0.545920 0.838925
O O2 0.388368 0.388368 0.823804
O O3 0.326771 0.446738 0.891922
O O4 0.321662 0.472239 0.787041
O O5 0.662359 0.513470 0.500000
O O6 0.738152 0.476304 0.431209
O O7 0.577157 0.422844 0.422925
O O8 0.694254 0.582298 0.406341
O O9 0.484577 0.742289 0.942001
O O10 0.419384 0.580617 0.942954
O O11 0.544820 0.673211 0.000000
O O12 0.528431 0.264216 0.715583
O O13 0.575810 0.424191 0.719600
O O14 0.421680 0.307637 0.691231
O O15 0.833103 0.666206 0.643910
O O16 0.713810 0.713810 0.644460
#
# Coordination Sequence:
#
# PCOD9587467 Si02
#       5
#    24  24  24  24  24
#     4   9  17  27  38  53  74 102 136 173 210 246
#     4   9  17  29  46  69  98 131 163 191 218 252
#     4   9  16  25  37  52  70  93 123 162 209 259
#     4  10  19  30  45  65  90 119 149 179 211 251
#     4  10  21  35  50  68  90 117 148 184 227 271
#
# _framework density 15.424863999999999
#
# number of rings (size 3 to 8) (size 9 to 14) (size 15 to 20)
#    0.000    2.600    0.000    2.400    0.000    4.800 
#    0.000    7.000    0.000    0.200    0.000    0.000 
#    0.000    0.000    0.000    5.000    0.000    0.000 
#
# Total GULP energy -668334.144203 kJ/mol
# GULP energy per Si atom -5569.451202 kJ/mol
# Density = 1.538976 g / cm^3
# Si number density = 15.424864 Si / 1000 Ang^3
#
#
#
# Elastic Constant Matrix: (Units=GPa)
#
#
# Indices 1 2 3 4 5 6 
#
# 1 57.5443 44.1042 26.6815 0.0000 0.0000 0.0000
# 2 44.1042 57.5443 26.6815 0.0000 0.0000 0.0000
# 3 26.6815 26.6815 71.0124 0.0000 0.0000 0.0000
# 4 0.0000 0.0000 0.0000 15.3702 0.0000 0.0000
# 5 0.0000 0.0000 0.0000 0.0000 15.3702 0.0000
# 6 0.0000 0.0000 0.0000 0.0000 0.0000 6.7200
#
#
#
# Elastic Compliance Matrix: (Units=1/GPa)
#
#
# Indices 1 2 3 4 5 6 
#
# 1 0.043330 -0.031075 -0.004605 0.000000 0.000000 0.000000
# 2 -0.031075 0.043330 -0.004605 0.000000 0.000000 0.000000
# 3 -0.004605 -0.004605 0.017542 0.000000 0.000000 0.000000
# 4 0.000000 0.000000 0.000000 0.065061 0.000000 0.000000
# 5 0.000000 0.000000 0.000000 0.000000 0.065061 0.000000
# 6 0.000000 0.000000 0.000000 0.000000 0.000000 0.148809
#
#
# Mechanical properties :
#
#
# Convention : Reuss Voigt Hill
#
# Bulk Modulus (GPa) = 42.31191 42.33729 42.32460
# Shear Modulus (GPa) = 10.60270 13.40099 12.00184
#
# Velocity S-wave (km/s) = 2.62463 2.95072 2.79244
# Velocity P-wave (km/s) = 6.05603 6.25428 6.15595
#
# Compressibility (1/GPa) = 0.02363401
#
# Stress axis : x y z
#
# Youngs Moduli (GPa) = 23.07885 23.07885 57.00527
#
# Poissons Ratio (x) = 0.71717 0.26249
# Poissons Ratio (y) = 0.71717 0.26249
# Poissons Ratio (z) = 0.10627 0.10627
#
# Static dielectric constant tensor:
#      x y z
#    x 1.499640 0.000000 0.000000 
#    y 0.000000 1.499640 0.000000 
#    z 0.000000 0.000000 1.563780 
# 
# From -- ./inp_files/10250.got.cif
#   From: 2010.05.17/outbox.cif.g08.bks.cpg/sg191_6_cif.got.tgz:10250.got - 2010.05.20 12:20:32.
