data_PCOD9587083
_publ_section_title
;
Structure prediction by ZEFSAII (Michael W. Deem and Ramdas Pophale) SiO2 
 PCOD9587083
Probable space group: P 6/M M M
;
_chemical_formula_sum "Si O2"
_cell_formula_units_Z 120
_cell_length_a 18.579500
_cell_length_b 18.579500
_cell_length_c 26.429566
_cell_angle_alpha 90.000000
_cell_angle_beta 90.000000
_cell_angle_gamma 120.000000
_cell_volume 7901.120914
_symmetry_space_group_name_H-M "P 6/M M M"
_symmetry_group_IT_number 191
_symmetry_cell_setting 'hexagonal'
loop_
_space_group_symop_operation_xyz
x,y,z
x-y,x,z
-y,x-y,z
-x,-y,z
-x+y,-x,z
y,-x+y,z
x-y,-y,-z
-x,-x+y,-z
y,x,-z
-y,-x,-z
-x+y,y,-z
x,x-y,-z
-x,-y,-z
-x+y,-x,-z
y,-x+y,-z
x,y,-z
x-y,x,-z
-y,x-y,-z
-x+y,y,z
x,x-y,z
-y,-x,z
y,x,z
x-y,-y,z
-x,-x+y,z
loop_
_atom_site_type_symbol
_atom_site_label
_atom_site_fract_x
_atom_site_fract_y
_atom_site_fract_z
Si Si1 0.499001 0.331338 0.285757
Si Si2 0.331084 0.830744 0.000000
Si Si3 0.367358 0.900516 0.893337
Si Si4 0.540068 0.905634 0.393729
Si Si5 0.330801 0.497854 0.500000
Si Si6 0.097809 0.362316 0.200862
O O1 0.526904 0.263452 0.275627
O O2 0.575647 0.424353 0.277913
O O3 0.469866 0.322714 0.343985
O O4 0.421859 0.308586 0.249085
O O5 0.322191 0.867422 0.947074
O O6 0.266496 0.733505 0.000000
O O7 0.425134 0.850268 0.000000
O O8 0.435087 0.870174 0.884930
O O9 0.304264 0.880950 0.847496
O O10 0.420883 0.000000 0.896582
O O11 0.453089 0.906177 0.396699
O O12 0.549819 0.872070 0.447714
O O13 0.611469 0.000000 0.386188
O O14 0.422305 0.577696 0.500000
O O15 0.263407 0.526814 0.500000
O O16 0.166449 0.332897 0.203109
O O17 0.000000 0.292653 0.198277
#
# Coordination Sequence:
#
# PCOD9587083 Si02
#       6
#    24  12  24  24  12  24
#     4  10  19  30  45  66  92 120 149 181 216 255
#     4  10  18  27  39  57  84 117 151 183 213 246
#     4   9  17  29  45  64  86 114 147 181 218 260
#     4   9  17  28  41  56  76 106 143 179 214 255
#     4  10  18  27  39  55  76 101 132 174 223 270
#     4  10  20  33  49  68  89 114 145 182 223 267
#
# _framework density 15.187718
#
# number of rings (size 3 to 8) (size 9 to 14) (size 15 to 20)
#    0.000    2.400    0.000    3.400    0.000    4.400 
#    0.000    2.000    0.000    6.600    0.000    0.000 
#    0.000    0.000    0.000    0.000    0.000   20.800 
#
# Total GULP energy -668207.298364 kJ/mol
# GULP energy per Si atom -5568.394153 kJ/mol
# Density = 1.515315 g / cm^3
# Si number density = 15.187718 Si / 1000 Ang^3
#
#
#
# Elastic Constant Matrix: (Units=GPa)
#
#
# Indices 1 2 3 4 5 6 
#
# 1 50.0121 30.8368 27.6222 0.0000 0.0000 0.0000
# 2 30.8368 50.0121 27.6222 0.0000 0.0000 0.0000
# 3 27.6222 27.6222 99.9460 0.0000 0.0000 0.0000
# 4 0.0000 0.0000 0.0000 14.9459 0.0000 0.0000
# 5 0.0000 0.0000 0.0000 0.0000 14.9459 0.0000
# 6 0.0000 0.0000 0.0000 0.0000 0.0000 9.5876
#
#
#
# Elastic Compliance Matrix: (Units=1/GPa)
#
#
# Indices 1 2 3 4 5 6 
#
# 1 0.033699 -0.018451 -0.004214 0.000000 0.000000 0.000000
# 2 -0.018451 0.033699 -0.004214 0.000000 0.000000 0.000000
# 3 -0.004214 -0.004214 0.012335 0.000000 0.000000 0.000000
# 4 0.000000 0.000000 0.000000 0.066908 0.000000 0.000000
# 5 0.000000 0.000000 0.000000 0.000000 0.066908 0.000000
# 6 0.000000 0.000000 0.000000 0.000000 0.000000 0.104301
#
#
# Mechanical properties :
#
#
# Convention : Reuss Voigt Hill
#
# Bulk Modulus (GPa) = 38.49906 41.34804 39.92355
# Shear Modulus (GPa) = 13.14864 15.48849 14.31857
#
# Velocity S-wave (km/s) = 2.94554 3.19690 3.07379
# Velocity P-wave (km/s) = 6.08047 6.39614 6.24030
#
# Compressibility (1/GPa) = 0.02597466
#
# Stress axis : x y z
#
# Youngs Moduli (GPa) = 29.67413 29.67413 81.07170
#
# Poissons Ratio (x) = 0.54752 0.34165
# Poissons Ratio (y) = 0.54752 0.34165
# Poissons Ratio (z) = 0.12505 0.12505
#
# Static dielectric constant tensor:
#      x y z
#    x 1.493840 0.000000 0.000000 
#    y 0.000000 1.493840 0.000000 
#    z 0.000000 0.000000 1.537360 
# 
# From -- ./inp_files/8637.got.cif
#   From: 2010.05.17/outbox.cif.g08.bks.cpg/sg191_5_cif.got.tgz:8637.got - 2010.05.20 12:20:32.
