data_PCOD9587173
_publ_section_title
;
Structure prediction by ZEFSAII (Michael W. Deem and Ramdas Pophale) SiO2 
 PCOD9587173
Probable space group: P 6/M M M
;
_chemical_formula_sum "Si O2"
_cell_formula_units_Z 144
_cell_length_a 23.277181
_cell_length_b 23.277181
_cell_length_c 20.671187
_cell_angle_alpha 90.000000
_cell_angle_beta 90.000000
_cell_angle_gamma 120.000000
_cell_volume 9699.666777
_symmetry_space_group_name_H-M "P 6/M M M"
_symmetry_group_IT_number 191
_symmetry_cell_setting 'hexagonal'
loop_
_space_group_symop_operation_xyz
x,y,z
x-y,x,z
-y,x-y,z
-x,-y,z
-x+y,-x,z
y,-x+y,z
x-y,-y,-z
-x,-x+y,-z
y,x,-z
-y,-x,-z
-x+y,y,-z
x,x-y,-z
-x,-y,-z
-x+y,-x,-z
y,-x+y,-z
x,y,-z
x-y,x,-z
-y,x-y,-z
-x+y,y,z
x,x-y,z
-y,-x,z
y,x,z
x-y,-y,z
-x,-x+y,z
loop_
_atom_site_type_symbol
_atom_site_label
_atom_site_fract_x
_atom_site_fract_y
_atom_site_fract_z
Si Si1 0.468357 0.666426 0.575110
Si Si2 0.716775 0.148046 0.310212
Si Si3 0.075388 0.794157 0.717610
Si Si4 0.327728 0.919689 0.928174
Si Si5 0.205219 0.281293 0.873236
Si Si6 0.079039 0.471402 0.200521
O O1 0.486285 0.665024 0.500000
O O2 0.451120 0.725560 0.580765
O O3 0.403750 0.596251 0.590657
O O4 0.528140 0.684831 0.624321
O O5 0.779769 0.220232 0.293588
O O6 0.747308 0.099581 0.315070
O O7 0.661999 0.119821 0.254373
O O8 0.129998 0.870003 0.702966
O O9 0.077977 0.785504 0.795577
O O10 0.000000 0.771034 0.700775
O O11 0.254703 0.904304 0.907831
O O12 0.359542 0.899466 0.870322
O O13 0.371084 0.000000 0.930450
O O14 0.328446 0.894419 0.000000
O O15 0.129783 0.259565 0.888605
O O16 0.229154 0.229154 0.890424
O O17 0.087330 0.543665 0.206339
O O18 0.000000 0.418783 0.207884
#
# Coordination Sequence:
#
# PCOD9587173 Si02
#       6
#    24  24  24  24  24  24
#     4   9  17  29  45  65  90 121 156 192 227 260
#     4  10  18  28  45  67  91 118 150 187 220 261
#     4   9  16  27  45  66  88 115 148 184 220 261
#     4   9  17  28  41  59  84 112 143 180 220 262
#     4   9  16  27  43  63  87 114 145 181 221 265
#     4  10  19  30  45  64  87 116 147 181 225 272
#
# _framework density 14.845871000000001
#
# number of rings (size 3 to 8) (size 9 to 14) (size 15 to 20)
#    0.000    2.667    1.667    1.167    0.000    1.333 
#    0.000    1.667    0.000    2.667    0.000    8.167 
#    0.000    0.000    0.000    4.167    0.000    4.333 
#
# Total GULP energy -802026.790786 kJ/mol
# GULP energy per Si atom -5569.630492 kJ/mol
# Density = 1.481208 g / cm^3
# Si number density = 14.845871 Si / 1000 Ang^3
#
#
#
# Elastic Constant Matrix: (Units=GPa)
#
#
# Indices 1 2 3 4 5 6 
#
# 1 81.3002 48.5872 48.4646 0.0000 0.0000 0.0000
# 2 48.5872 81.3002 48.4646 0.0000 0.0000 0.0000
# 3 48.4646 48.4646 67.6524 0.0000 0.0000 0.0000
# 4 0.0000 0.0000 0.0000 14.7092 0.0000 0.0000
# 5 0.0000 0.0000 0.0000 0.0000 14.7092 0.0000
# 6 0.0000 0.0000 0.0000 0.0000 0.0000 16.3565
#
#
#
# Elastic Compliance Matrix: (Units=1/GPa)
#
#
# Indices 1 2 3 4 5 6 
#
# 1 0.023556 -0.007013 -0.011851 0.000000 0.000000 0.000000
# 2 -0.007013 0.023556 -0.011851 0.000000 0.000000 0.000000
# 3 -0.011851 -0.011851 0.031761 0.000000 0.000000 0.000000
# 4 0.000000 0.000000 0.000000 0.067985 0.000000 0.000000
# 5 0.000000 0.000000 0.000000 0.000000 0.067985 0.000000
# 6 0.000000 0.000000 0.000000 0.000000 0.000000 0.061138
#
#
# Mechanical properties :
#
#
# Convention : Reuss Voigt Hill
#
# Bulk Modulus (GPa) = 57.32989 57.92061 57.62525
# Shear Modulus (GPa) = 14.56778 14.80407 14.68593
#
# Velocity S-wave (km/s) = 3.13592 3.16125 3.14861
# Velocity P-wave (km/s) = 7.19809 7.24044 7.21930
#
# Compressibility (1/GPa) = 0.01744291
#
# Stress axis : x y z
#
# Youngs Moduli (GPa) = 42.45240 42.45240 31.48542
#
# Poissons Ratio (x) = 0.29772 0.37313
# Poissons Ratio (y) = 0.29772 0.37313
# Poissons Ratio (z) = 0.50310 0.50310
#
# Static dielectric constant tensor:
#      x y z
#    x 1.486480 0.000000 0.000000 
#    y 0.000000 1.486480 0.000000 
#    z 0.000000 0.000000 1.495020 
# 
# From -- ./inp_files/6610.got.cif
#   From: 2010.05.17/outbox.cif.g08.bks.cpg/sg191_4_cif.got.tgz:6610.got - 2010.05.20 12:20:32.
