data_PCOD9587712
_publ_section_title
;
Structure prediction by ZEFSAII (Michael W. Deem and Ramdas Pophale) SiO2 
 PCOD9587712
Probable space group: P 6/M M M
;
_chemical_formula_sum "Si O2"
_cell_formula_units_Z 90
_cell_length_a 17.692346
_cell_length_b 17.692346
_cell_length_c 19.880393
_cell_angle_alpha 90.000000
_cell_angle_beta 90.000000
_cell_angle_gamma 120.000000
_cell_volume 5389.226606
_symmetry_space_group_name_H-M "P 6/M M M"
_symmetry_group_IT_number 191
_symmetry_cell_setting 'hexagonal'
loop_
_space_group_symop_operation_xyz
x,y,z
x-y,x,z
-y,x-y,z
-x,-y,z
-x+y,-x,z
y,-x+y,z
x-y,-y,-z
-x,-x+y,-z
y,x,-z
-y,-x,-z
-x+y,y,-z
x,x-y,-z
-x,-y,-z
-x+y,-x,-z
y,-x+y,-z
x,y,-z
x-y,x,-z
-y,x-y,-z
-x+y,y,z
x,x-y,z
-y,-x,z
y,x,z
x-y,-y,z
-x,-x+y,z
loop_
_atom_site_type_symbol
_atom_site_label
_atom_site_fract_x
_atom_site_fract_y
_atom_site_fract_z
Si Si1 0.205687 0.102844 0.581234
Si Si2 0.638649 0.534681 0.274587
Si Si3 0.332115 0.841686 0.876525
Si Si4 0.274716 0.725285 0.500000
Si Si5 0.731668 0.094246 0.000000
Si Si6 0.589190 0.794595 0.376977
O O1 0.154559 0.154559 0.603064
O O2 0.203726 0.101863 0.500000
O O3 0.308535 0.154268 0.601471
O O4 0.567839 0.432162 0.284114
O O5 0.586543 0.586543 0.278883
O O6 0.675253 0.544873 0.199004
O O7 0.712610 0.569248 0.330324
O O8 0.428109 0.856218 0.884409
O O9 0.259591 0.740410 0.884911
O O10 0.313035 0.892642 0.934030
O O11 0.239549 0.619775 0.500000
O O12 0.241382 0.758619 0.436948
O O13 0.830229 0.169772 0.000000
O O14 0.719857 0.000000 0.000000
#
# Coordination Sequence:
#
# PCOD9587712 Si02
#       6
#    12  24  24   6  12  12
#     4  10  21  38  62  88 113 139 173 225 285 349
#     4  10  21  35  53  79 111 146 186 232 272 319
#     4  10  19  33  51  79 112 148 188 222 261 316
#     4  10  24  40  56  82 112 146 186 232 266 320
#     4  10  21  35  55  78 107 145 182 230 281 327
#     4  12  20  39  58  81 110 144 190 223 276 334
#
# _framework density 16.699984000000001
#
# number of rings (size 3 to 8) (size 9 to 14) (size 15 to 20)
#    0.133    1.600    2.000    3.200    0.000    2.667 
#    0.800    1.333    0.000    3.333    0.000    0.000 
#    0.000    0.000    0.000    0.000    0.000    0.000 
#
# Total GULP energy -501881.857984 kJ/mol
# GULP energy per Si atom -5576.465089 kJ/mol
# Density = 1.666197 g / cm^3
# Si number density = 16.699984 Si / 1000 Ang^3
#
#
#
# Elastic Constant Matrix: (Units=GPa)
#
#
# Indices 1 2 3 4 5 6 
#
# 1 88.1639 73.8573 54.4264 0.0000 0.0000 0.0000
# 2 73.8573 88.1639 54.4264 0.0000 0.0000 0.0000
# 3 54.4264 54.4264 96.5370 0.0000 0.0000 0.0000
# 4 0.0000 0.0000 0.0000 11.5749 0.0000 0.0000
# 5 0.0000 0.0000 0.0000 0.0000 11.5749 0.0000
# 6 0.0000 0.0000 0.0000 0.0000 0.0000 7.1533
#
#
#
# Elastic Compliance Matrix: (Units=1/GPa)
#
#
# Indices 1 2 3 4 5 6 
#
# 1 0.039917 -0.029981 -0.005601 0.000000 0.000000 0.000000
# 2 -0.029981 0.039917 -0.005601 0.000000 0.000000 0.000000
# 3 -0.005601 -0.005601 0.016675 0.000000 0.000000 0.000000
# 4 0.000000 0.000000 0.000000 0.086394 0.000000 0.000000
# 5 0.000000 0.000000 0.000000 0.000000 0.086394 0.000000
# 6 0.000000 0.000000 0.000000 0.000000 0.000000 0.139796
#
#
# Mechanical properties :
#
#
# Convention : Reuss Voigt Hill
#
# Bulk Modulus (GPa) = 70.72278 70.92056 70.82167
# Shear Modulus (GPa) = 10.07711 12.07091 11.07401
#
# Velocity S-wave (km/s) = 2.45913 2.69143 2.57790
# Velocity P-wave (km/s) = 7.10662 7.22620 7.16666
#
# Compressibility (1/GPa) = 0.01413972
#
# Stress axis : x y z
#
# Youngs Moduli (GPa) = 25.05217 25.05217 59.97099
#
# Poissons Ratio (x) = 0.75110 0.33592
# Poissons Ratio (y) = 0.75110 0.33592
# Poissons Ratio (z) = 0.14033 0.14033
#
# Static dielectric constant tensor:
#      x y z
#    x 1.554590 0.000000 0.000000 
#    y 0.000000 1.554590 0.000000 
#    z 0.000000 0.000000 1.553480 
# 
# From -- ./inp_files/5868.got.cif
#   From: 2010.05.17/outbox.cif.g08.bks.cpg/sg191_3_cif.got.tgz:5868.got - 2010.05.20 12:20:32.
