data_PCOD9587617
_publ_section_title
;
Structure prediction by ZEFSAII (Michael W. Deem and Ramdas Pophale) SiO2 
 PCOD9587617
Probable space group: P 6/M M M
;
_chemical_formula_sum "Si O2"
_cell_formula_units_Z 108
_cell_length_a 24.304807
_cell_length_b 24.304807
_cell_length_c 12.912259
_cell_angle_alpha 90.000000
_cell_angle_beta 90.000000
_cell_angle_gamma 120.000000
_cell_volume 6605.675174
_symmetry_space_group_name_H-M "P 6/M M M"
_symmetry_group_IT_number 191
_symmetry_cell_setting 'hexagonal'
loop_
_space_group_symop_operation_xyz
x,y,z
x-y,x,z
-y,x-y,z
-x,-y,z
-x+y,-x,z
y,-x+y,z
x-y,-y,-z
-x,-x+y,-z
y,x,-z
-y,-x,-z
-x+y,y,-z
x,x-y,-z
-x,-y,-z
-x+y,-x,-z
y,-x+y,-z
x,y,-z
x-y,x,-z
-y,x-y,-z
-x+y,y,z
x,x-y,z
-y,-x,z
y,x,z
x-y,-y,z
-x,-x+y,z
loop_
_atom_site_type_symbol
_atom_site_label
_atom_site_fract_x
_atom_site_fract_y
_atom_site_fract_z
Si Si1 0.924343 0.202051 0.500000
Si Si2 0.370991 0.297230 0.334093
Si Si3 0.209748 0.542995 0.159394
Si Si4 0.602826 0.867432 0.886029
Si Si5 0.357416 0.518764 0.614861
O O1 0.872714 0.127287 0.500000
O O2 0.911834 0.236057 0.597915
O O3 0.000000 0.224906 0.500000
O O4 0.346534 0.346534 0.349028
O O5 0.367858 0.278740 0.213841
O O6 0.443887 0.330077 0.370985
O O7 0.279263 0.558526 0.126147
O O8 0.195182 0.597591 0.127620
O O9 0.160117 0.473024 0.119982
O O10 0.206059 0.538548 0.284939
O O11 0.610510 0.805255 0.875719
O O12 0.626203 0.895823 0.000000
O O13 0.338078 0.528683 0.500000
O O14 0.434100 0.565901 0.619672
#
# Coordination Sequence:
#
# PCOD9587617 Si02
#       5
#    12  24  24  24  24
#     4  10  20  34  53  78 105 129 155 189 229 275
#     4  10  19  31  48  72  95 120 157 192 229 271
#     4   9  17  28  42  60  81 109 148 195 244 290
#     4   9  18  32  47  63  86 118 152 185 228 278
#     4   9  17  29  42  60  89 122 155 191 237 288
#
# _framework density 16.349578000000001
#
# number of rings (size 3 to 8) (size 9 to 14) (size 15 to 20)
#    0.000    2.667    1.111    0.889    0.000    2.667 
#    0.000    1.111    0.000    2.778    0.000    6.222 
#    0.000    0.000    0.000    0.000    0.000    0.000 
#
# Total GULP energy -601495.134901 kJ/mol
# GULP energy per Si atom -5569.399397 kJ/mol
# Density = 1.631237 g / cm^3
# Si number density = 16.349578 Si / 1000 Ang^3
#
#
#
# Elastic Constant Matrix: (Units=GPa)
#
#
# Indices 1 2 3 4 5 6 
#
# 1 53.8656 32.2330 10.2586 0.0000 0.0000 0.0000
# 2 32.2330 53.8656 10.2586 0.0000 0.0000 0.0000
# 3 10.2586 10.2586 114.0947 0.0000 0.0000 0.0000
# 4 0.0000 0.0000 0.0000 8.7861 0.0000 0.0000
# 5 0.0000 0.0000 0.0000 0.0000 8.7861 0.0000
# 6 0.0000 0.0000 0.0000 0.0000 0.0000 10.8163
#
#
#
# Elastic Compliance Matrix: (Units=1/GPa)
#
#
# Indices 1 2 3 4 5 6 
#
# 1 0.029048 -0.017179 -0.001067 0.000000 0.000000 0.000000
# 2 -0.017179 0.029048 -0.001067 0.000000 0.000000 0.000000
# 3 -0.001067 -0.001067 0.008957 0.000000 0.000000 0.000000
# 4 0.000000 0.000000 0.000000 0.113816 0.000000 0.000000
# 5 0.000000 0.000000 0.000000 0.000000 0.113816 0.000000
# 6 0.000000 0.000000 0.000000 0.000000 0.000000 0.092453
#
#
# Mechanical properties :
#
#
# Convention : Reuss Voigt Hill
#
# Bulk Modulus (GPa) = 35.17948 36.36960 35.77454
# Shear Modulus (GPa) = 11.48794 16.94941 14.21868
#
# Velocity S-wave (km/s) = 2.65362 3.22326 2.95221
# Velocity P-wave (km/s) = 5.56351 6.01214 5.79217
#
# Compressibility (1/GPa) = 0.02842566
#
# Stress axis : x y z
#
# Youngs Moduli (GPa) = 34.42609 34.42609 111.65012
#
# Poissons Ratio (x) = 0.59140 0.11915
# Poissons Ratio (y) = 0.59140 0.11915
# Poissons Ratio (z) = 0.03674 0.03674
#
# Static dielectric constant tensor:
#      x y z
#    x 1.528980 0.000000 0.000000 
#    y 0.000000 1.528980 0.000000 
#    z 0.000000 0.000000 1.598960 
# 
# From -- ./inp_files/2931.got.cif
#   From: 2010.05.17/outbox.cif.g08.bks.cpg/sg191_2_cif.got.tgz:2931.got - 2010.05.20 12:20:32.
