data_PCOD9587141
_publ_section_title
;
Structure prediction by ZEFSAII (Michael W. Deem and Ramdas Pophale) SiO2 
 PCOD9587141
Probable space group: P 6/M M M
;
_chemical_formula_sum "Si O2"
_cell_formula_units_Z 180
_cell_length_a 21.273749
_cell_length_b 21.273749
_cell_length_c 31.610006
_cell_angle_alpha 90.000000
_cell_angle_beta 90.000000
_cell_angle_gamma 120.000000
_cell_volume 12389.200224
_symmetry_space_group_name_H-M "P 6/M M M"
_symmetry_group_IT_number 191
_symmetry_cell_setting 'hexagonal'
loop_
_space_group_symop_operation_xyz
x,y,z
x-y,x,z
-y,x-y,z
-x,-y,z
-x+y,-x,z
y,-x+y,z
x-y,-y,-z
-x,-x+y,-z
y,x,-z
-y,-x,-z
-x+y,y,-z
x,x-y,-z
-x,-y,-z
-x+y,-x,-z
y,-x+y,-z
x,y,-z
x-y,x,-z
-y,x-y,-z
-x+y,y,z
x,x-y,z
-y,-x,z
y,x,z
x-y,-y,z
-x,-x+y,z
loop_
_atom_site_type_symbol
_atom_site_label
_atom_site_fract_x
_atom_site_fract_y
_atom_site_fract_z
Si Si1 0.222274 0.919272 0.136694
Si Si2 0.382169 0.465582 0.337318
Si Si3 0.665529 0.183348 0.259057
Si Si4 0.485432 0.666997 0.581523
Si Si5 0.694102 0.153848 0.832705
Si Si6 0.084052 0.466008 0.500000
Si Si7 0.364784 0.082803 0.046491
Si Si8 0.812424 0.476628 0.922748
O O1 0.143643 0.856358 0.150065
O O2 0.282806 0.906385 0.159559
O O3 0.232880 0.909259 0.086765
O O4 0.239446 0.000000 0.144023
O O5 0.460250 0.539751 0.337570
O O6 0.401012 0.401012 0.340246
O O7 0.343548 0.468552 0.294301
O O8 0.339811 0.474442 0.376885
O O9 0.600093 0.200185 0.265348
O O10 0.742646 0.257355 0.262666
O O11 0.658704 0.150952 0.212081
O O12 0.482753 0.741377 0.580572
O O13 0.403275 0.596726 0.581243
O O14 0.527292 0.658359 0.541305
O O15 0.770391 0.229610 0.833124
O O16 0.653664 0.158854 0.874246
O O17 0.079574 0.539787 0.500000
O O18 0.000000 0.401255 0.500000
O O19 0.449129 0.139616 0.052225
O O20 0.347856 0.000000 0.048901
O O21 0.340347 0.092067 0.000000
O O22 0.729688 0.459375 0.923034
O O23 0.818251 0.409126 0.938872
#
# Coordination Sequence:
#
# PCOD9587141 Si02
#       8
#    24  24  24  24  24  12  24  24
#     4   9  17  30  48  68  88 109 134 164 198 236
#     4   9  18  30  41  54  76 108 142 173 209 258
#     4  10  18  28  43  63  86 110 139 177 222 265
#     4  10  18  28  42  60  81 103 133 175 221 260
#     4   8  16  29  43  60  81 106 136 168 200 237
#     4   9  17  28  42  58  78 107 136 162 200 254
#     4   9  18  32  48  63  79 102 133 169 204 236
#     4  10  19  30  43  59  81 108 136 166 203 248
#
# _framework density 14.528783000000001
#
# number of rings (size 3 to 8) (size 9 to 14) (size 15 to 20)
#    0.000    2.733    0.000    3.000    0.000    3.733 
#    0.000    4.000    0.000    3.333    0.000    0.000 
#    0.000    0.000    0.000    3.333    0.000    0.000 
#
# Total GULP energy -1002424.209911 kJ/mol
# GULP energy per Si atom -5569.023388 kJ/mol
# Density = 1.449572 g / cm^3
# Si number density = 14.528783 Si / 1000 Ang^3
#
#
#
# Elastic Constant Matrix: (Units=GPa)
#
#
# Indices 1 2 3 4 5 6 
#
# 1 60.1196 34.1908 11.3374 0.0000 0.0000 0.0000
# 2 34.1908 60.1196 11.3374 0.0000 0.0000 0.0000
# 3 11.3374 11.3374 70.4344 0.0000 0.0000 0.0000
# 4 0.0000 0.0000 0.0000 14.2712 0.0000 0.0000
# 5 0.0000 0.0000 0.0000 0.0000 14.2712 0.0000
# 6 0.0000 0.0000 0.0000 0.0000 0.0000 12.9644
#
#
#
# Elastic Compliance Matrix: (Units=1/GPa)
#
#
# Indices 1 2 3 4 5 6 
#
# 1 0.024799 -0.013769 -0.001775 0.000000 0.000000 0.000000
# 2 -0.013769 0.024799 -0.001775 0.000000 0.000000 0.000000
# 3 -0.001775 -0.001775 0.014769 0.000000 0.000000 0.000000
# 4 0.000000 0.000000 0.000000 0.070071 0.000000 0.000000
# 5 0.000000 0.000000 0.000000 0.000000 0.070071 0.000000
# 6 0.000000 0.000000 0.000000 0.000000 0.000000 0.077134
#
#
# Mechanical properties :
#
#
# Convention : Reuss Voigt Hill
#
# Bulk Modulus (GPa) = 33.63870 33.82275 33.73072
# Shear Modulus (GPa) = 15.32842 17.22189 16.27516
#
# Velocity S-wave (km/s) = 3.25166 3.44665 3.35057
# Velocity P-wave (km/s) = 6.10746 6.25856 6.18347
#
# Compressibility (1/GPa) = 0.02972767
#
# Stress axis : x y z
#
# Youngs Moduli (GPa) = 40.32472 40.32472 67.70854
#
# Poissons Ratio (x) = 0.55521 0.12021
# Poissons Ratio (y) = 0.55521 0.12021
# Poissons Ratio (z) = 0.07159 0.07159
#
# Static dielectric constant tensor:
#      x y z
#    x 1.473310 0.000000 0.000000 
#    y 0.000000 1.473310 0.000000 
#    z 0.000000 0.000000 1.504780 
# 
# From -- ./inp_files/10899.got.cif
#   From: 2010.05.17/outbox.cif.g08.bks.cpg/sg191_6_cif.got.tgz:10899.got - 2010.05.20 12:20:32.
