data_PCOD9587368
_publ_section_title
;
Structure prediction by ZEFSAII (Michael W. Deem and Ramdas Pophale) SiO2 
 PCOD9587368
Probable space group: P 6/M M M
;
_chemical_formula_sum "Si O2"
_cell_formula_units_Z 168
_cell_length_a 19.393584
_cell_length_b 19.393584
_cell_length_c 29.613991
_cell_angle_alpha 90.000000
_cell_angle_beta 90.000000
_cell_angle_gamma 120.000000
_cell_volume 9645.921493
_symmetry_space_group_name_H-M "P 6/M M M"
_symmetry_group_IT_number 191
_symmetry_cell_setting 'hexagonal'
loop_
_space_group_symop_operation_xyz
x,y,z
x-y,x,z
-y,x-y,z
-x,-y,z
-x+y,-x,z
y,-x+y,z
x-y,-y,-z
-x,-x+y,-z
y,x,-z
-y,-x,-z
-x+y,y,-z
x,x-y,-z
-x,-y,-z
-x+y,-x,-z
y,-x+y,-z
x,y,-z
x-y,x,-z
-y,x-y,-z
-x+y,y,z
x,x-y,z
-y,-x,z
y,x,z
x-y,-y,z
-x,-x+y,z
loop_
_atom_site_type_symbol
_atom_site_label
_atom_site_fract_x
_atom_site_fract_y
_atom_site_fract_z
Si Si1 0.670182 0.912461 0.053800
Si Si2 0.823595 0.334403 0.817924
Si Si3 0.823367 0.488940 0.073119
Si Si4 0.668390 0.912103 0.793659
Si Si5 0.664092 0.753892 0.685319
Si Si6 0.462407 0.091763 0.449831
Si Si7 0.331887 0.504842 0.356408
O O1 0.679683 0.839842 0.072623
O O2 0.578275 0.887661 0.060125
O O3 0.727731 0.000000 0.072675
O O4 0.683636 0.915210 0.000000
O O5 0.837600 0.418800 0.801129
O O6 0.738026 0.261975 0.802202
O O7 0.821008 0.335359 0.872368
O O8 0.888569 0.310405 0.804896
O O9 0.737547 0.475094 0.057714
O O10 0.838298 0.419149 0.056719
O O11 0.680483 0.840242 0.810889
O O12 0.673863 0.912714 0.739351
O O13 0.729459 0.000000 0.810683
O O14 0.679792 0.839896 0.668063
O O15 0.720811 0.720811 0.667955
O O16 0.572019 0.691076 0.674256
O O17 0.450925 0.116491 0.500000
O O18 0.545289 0.090577 0.451303
O O19 0.472977 0.147117 0.407717
O O20 0.394530 0.000000 0.441884
O O21 0.264347 0.528693 0.349266
O O22 0.419658 0.580343 0.349402
#
# Coordination Sequence:
#
# PCOD9587368 Si02
#       7
#    24  24  24  24  24  24  24
#     4   9  18  32  48  65  86 113 144 178 218 263
#     4   9  17  29  45  65  90 120 152 184 216 249
#     4   9  17  29  45  65  90 120 152 183 214 249
#     4   9  18  32  48  66  88 113 141 174 214 259
#     4   9  18  32  49  67  86 110 140 174 214 260
#     4   8  14  25  40  56  74 100 138 183 226 262
#     4  10  19  29  41  59  85 117 152 186 216 246
#
# _framework density 17.416688000000001
#
# number of rings (size 3 to 8) (size 9 to 14) (size 15 to 20)
#    0.000    3.000    0.000    1.286    0.000    4.286 
#    0.000    3.571    0.000    3.857    0.000    3.000 
#    0.000    0.000    0.000    7.143    0.000    7.429 
#
# Total GULP energy -935745.087735 kJ/mol
# GULP energy per Si atom -5569.911237 kJ/mol
# Density = 1.737705 g / cm^3
# Si number density = 17.416688 Si / 1000 Ang^3
#
#
#
# Elastic Constant Matrix: (Units=GPa)
#
#
# Indices 1 2 3 4 5 6 
#
# 1 97.9677 82.1212 7.3587 0.0000 0.0000 0.0000
# 2 82.1212 97.9677 7.3587 0.0000 0.0000 0.0000
# 3 7.3587 7.3587 12.8063 0.0000 0.0000 0.0000
# 4 0.0000 0.0000 0.0000 29.3376 0.0000 0.0000
# 5 0.0000 0.0000 0.0000 0.0000 29.3376 0.0000
# 6 0.0000 0.0000 0.0000 0.0000 0.0000 7.9233
#
#
#
# Elastic Compliance Matrix: (Units=1/GPa)
#
#
# Indices 1 2 3 4 5 6 
#
# 1 0.034466 -0.028639 -0.003348 0.000000 0.000000 0.000000
# 2 -0.028639 0.034466 -0.003348 0.000000 0.000000 0.000000
# 3 -0.003348 -0.003348 0.081934 0.000000 0.000000 0.000000
# 4 0.000000 0.000000 0.000000 0.034086 0.000000 0.000000
# 5 0.000000 0.000000 0.000000 0.000000 0.034086 0.000000
# 6 0.000000 0.000000 0.000000 0.000000 0.000000 0.126211
#
#
# Mechanical properties :
#
#
# Convention : Reuss Voigt Hill
#
# Bulk Modulus (GPa) = 12.46957 44.71323 28.59140
# Shear Modulus (GPa) = 11.29558 20.77992 16.03775
#
# Velocity S-wave (km/s) = 2.54943 3.45788 3.03780
# Velocity P-wave (km/s) = 3.98010 6.45530 5.36247
#
# Compressibility (1/GPa) = 0.08019522
#
# Stress axis : x y z
#
# Youngs Moduli (GPa) = 29.01422 29.01422 12.20491
#
# Poissons Ratio (x) = 0.83095 0.04086
# Poissons Ratio (y) = 0.83095 0.04086
# Poissons Ratio (z) = 0.09714 0.09714
#
# Static dielectric constant tensor:
#      x y z
#    x 1.599000 0.000000 0.000000 
#    y 0.000000 1.599000 0.000000 
#    z 0.000000 0.000000 1.633070 
# 
# From -- ./inp_files/10743.got.cif
#   From: 2010.05.17/outbox.cif.g08.bks.cpg/sg191_6_cif.got.tgz:10743.got - 2010.05.20 12:20:32.
