data_PCOD9587500
_publ_section_title
;
Structure prediction by ZEFSAII (Michael W. Deem and Ramdas Pophale) SiO2 
 PCOD9587500
Probable space group: P 6/M M M
;
_chemical_formula_sum "Si O2"
_cell_formula_units_Z 120
_cell_length_a 18.354299
_cell_length_b 18.354299
_cell_length_c 26.094863
_cell_angle_alpha 90.000000
_cell_angle_beta 90.000000
_cell_angle_gamma 120.000000
_cell_volume 7613.095144
_symmetry_space_group_name_H-M "P 6/M M M"
_symmetry_group_IT_number 191
_symmetry_cell_setting 'hexagonal'
loop_
_space_group_symop_operation_xyz
x,y,z
x-y,x,z
-y,x-y,z
-x,-y,z
-x+y,-x,z
y,-x+y,z
x-y,-y,-z
-x,-x+y,-z
y,x,-z
-y,-x,-z
-x+y,y,-z
x,x-y,-z
-x,-y,-z
-x+y,-x,-z
y,-x+y,-z
x,y,-z
x-y,x,-z
-y,x-y,-z
-x+y,y,z
x,x-y,z
-y,-x,z
y,x,z
x-y,-y,z
-x,-x+y,z
loop_
_atom_site_type_symbol
_atom_site_label
_atom_site_fract_x
_atom_site_fract_y
_atom_site_fract_z
Si Si1 0.366884 0.467452 0.405648
Si Si2 0.102415 0.634585 0.888256
Si Si3 0.739195 0.099518 0.500000
Si Si4 0.667557 0.502153 0.708068
Si Si5 0.363130 0.903370 0.000000
Si Si6 0.902464 0.262919 0.793840
O O1 0.438576 0.561425 0.421582
O O2 0.415802 0.415802 0.397185
O O3 0.300755 0.419421 0.450271
O O4 0.329977 0.473954 0.351473
O O5 0.130466 0.565233 0.878070
O O6 0.133815 0.674728 0.944589
O O7 0.121712 0.699036 0.842647
O O8 0.000000 0.580615 0.891453
O O9 0.838610 0.161391 0.500000
O O10 0.706305 0.000000 0.500000
O O11 0.737828 0.475655 0.717223
O O12 0.574663 0.425338 0.719061
O O13 0.692356 0.581375 0.744417
O O14 0.453115 0.906230 0.000000
O O15 0.384658 0.000000 0.000000
O O16 0.835845 0.164156 0.790509
O O17 0.000000 0.290207 0.798150
#
# Coordination Sequence:
#
# PCOD9587500 Si02
#       6
#    24  24  12  24  12  24
#     4   9  17  29  46  67  90 118 151 184 216 252
#     4   8  13  23  41  64  88 113 140 169 204 249
#     4  10  19  31  47  66  89 117 152 192 231 269
#     4  10  19  30  45  67  96 126 152 176 205 246
#     4   7  10  18  35  60  87 112 138 168 200 239
#     4  10  20  32  46  64  86 113 146 186 229 270
#
# _framework density 15.762314
#
# number of rings (size 3 to 8) (size 9 to 14) (size 15 to 20)
#    0.000    2.900    0.000    3.500    0.000    3.200 
#    0.000    0.500    0.000    3.500    0.000    0.000 
#    0.000    0.000    0.000    6.400    0.000   11.800 
#
# Total GULP energy -668251.141916 kJ/mol
# GULP energy per Si atom -5568.759516 kJ/mol
# Density = 1.572644 g / cm^3
# Si number density = 15.762314 Si / 1000 Ang^3
#
#
#
# Elastic Constant Matrix: (Units=GPa)
#
#
# Indices 1 2 3 4 5 6 
#
# 1 66.7456 40.2585 32.7914 0.0000 0.0000 0.0000
# 2 40.2585 66.7456 32.7914 0.0000 0.0000 0.0000
# 3 32.7914 32.7914 71.1267 0.0000 0.0000 0.0000
# 4 0.0000 0.0000 0.0000 5.0207 0.0000 0.0000
# 5 0.0000 0.0000 0.0000 0.0000 5.0207 0.0000
# 6 0.0000 0.0000 0.0000 0.0000 0.0000 13.2435
#
#
#
# Elastic Compliance Matrix: (Units=1/GPa)
#
#
# Indices 1 2 3 4 5 6 
#
# 1 0.025390 -0.012364 -0.006005 0.000000 0.000000 0.000000
# 2 -0.012364 0.025390 -0.006005 0.000000 0.000000 0.000000
# 3 -0.006005 -0.006005 0.019597 0.000000 0.000000 0.000000
# 4 0.000000 0.000000 0.000000 0.199175 0.000000 0.000000
# 5 0.000000 0.000000 0.000000 0.000000 0.199175 0.000000
# 6 0.000000 0.000000 0.000000 0.000000 0.000000 0.075508
#
#
# Mechanical properties :
#
#
# Convention : Reuss Voigt Hill
#
# Bulk Modulus (GPa) = 46.23768 46.25560 46.24664
# Shear Modulus (GPa) = 8.33062 11.24210 9.78636
#
# Velocity S-wave (km/s) = 2.30144 2.67353 2.49443
# Velocity P-wave (km/s) = 6.03823 6.24017 6.14003
#
# Compressibility (1/GPa) = 0.02162738
#
# Stress axis : x y z
#
# Youngs Moduli (GPa) = 39.38527 39.38527 51.02885
#
# Poissons Ratio (x) = 0.48696 0.30645
# Poissons Ratio (y) = 0.48696 0.30645
# Poissons Ratio (z) = 0.23653 0.23653
#
# Static dielectric constant tensor:
#      x y z
#    x 1.515820 0.000000 0.000000 
#    y 0.000000 1.515820 0.000000 
#    z 0.000000 0.000000 1.553970 
# 
# From -- ./inp_files/9545.got.cif
#   From: 2010.05.17/outbox.cif.g08.bks.cpg/sg191_5_cif.got.tgz:9545.got - 2010.05.20 12:20:32.
