data_PCOD9587284
_publ_section_title
;
Structure prediction by ZEFSAII (Michael W. Deem and Ramdas Pophale) SiO2 
 PCOD9587284
Probable space group: P 6/M M M
;
_chemical_formula_sum "Si O2"
_cell_formula_units_Z 144
_cell_length_a 21.623034
_cell_length_b 21.623034
_cell_length_c 23.466141
_cell_angle_alpha 90.000000
_cell_angle_beta 90.000000
_cell_angle_gamma 120.000000
_cell_volume 9501.793110
_symmetry_space_group_name_H-M "P 6/M M M"
_symmetry_group_IT_number 191
_symmetry_cell_setting 'hexagonal'
loop_
_space_group_symop_operation_xyz
x,y,z
x-y,x,z
-y,x-y,z
-x,-y,z
-x+y,-x,z
y,-x+y,z
x-y,-y,-z
-x,-x+y,-z
y,x,-z
-y,-x,-z
-x+y,y,-z
x,x-y,-z
-x,-y,-z
-x+y,-x,-z
y,-x+y,-z
x,y,-z
x-y,x,-z
-y,x-y,-z
-x+y,y,z
x,x-y,z
-y,-x,z
y,x,z
x-y,-y,z
-x,-x+y,z
loop_
_atom_site_type_symbol
_atom_site_label
_atom_site_fract_x
_atom_site_fract_y
_atom_site_fract_z
Si Si1 0.220743 0.919035 0.767091
Si Si2 0.155446 0.452755 0.431787
Si Si3 0.333100 0.813679 0.066256
Si Si4 0.456226 0.912452 0.381917
Si Si5 0.430750 0.345672 0.832805
Si Si6 0.456941 0.913882 0.751565
Si Si7 0.081745 0.303157 0.367451
O O1 0.139716 0.860285 0.778242
O O2 0.273306 0.904066 0.805035
O O3 0.235741 0.914445 0.699963
O O4 0.240631 0.000000 0.777754
O O5 0.148825 0.447794 0.500000
O O6 0.238559 0.477118 0.417923
O O7 0.123794 0.501277 0.409177
O O8 0.109029 0.374947 0.403505
O O9 0.404267 0.808534 0.075007
O O10 0.262956 0.737045 0.075817
O O11 0.334261 0.870906 0.109911
O O12 0.332579 0.833480 0.000000
O O13 0.447315 0.894629 0.314563
O O14 0.500000 0.000000 0.388781
O O15 0.396259 0.396259 0.842757
O O16 0.493969 0.385169 0.786605
O O17 0.500000 0.000000 0.752027
O O18 0.138180 0.276359 0.377163
O O19 0.000000 0.246988 0.380871
#
# Coordination Sequence:
#
# PCOD9587284 Si02
#       7
#    24  24  24  12  24  12  24
#     4   9  17  29  47  70  94 122 154 188 230 278
#     4  10  21  35  49  69  95 123 157 196 240 287
#     4  10  20  33  48  64  87 122 160 196 233 275
#     4  11  21  34  55  75  94 123 161 203 243 287
#     4  10  18  30  48  70  94 119 151 191 237 284
#     4   9  18  31  47  71  97 120 149 191 239 283
#     4   9  17  30  48  70  95 123 153 189 232 277
#
# _framework density 15.155033
#
# number of rings (size 3 to 8) (size 9 to 14) (size 15 to 20)
#    0.000    2.333    0.833    2.417    0.000    5.333 
#    0.500    1.667    0.000    0.333    0.000    2.333 
#    0.000    0.000    0.000    4.167    0.000    4.333 
#
# Total GULP energy -802571.393454 kJ/mol
# GULP energy per Si atom -5573.412455 kJ/mol
# Density = 1.512054 g / cm^3
# Si number density = 15.155033 Si / 1000 Ang^3
#
#
#
# Elastic Constant Matrix: (Units=GPa)
#
#
# Indices 1 2 3 4 5 6 
#
# 1 101.8561 74.8439 60.5650 0.0000 0.0000 0.0000
# 2 74.8439 101.8561 60.5650 0.0000 0.0000 0.0000
# 3 60.5650 60.5650 82.8337 0.0000 0.0000 0.0000
# 4 0.0000 0.0000 0.0000 19.4483 0.0000 0.0000
# 5 0.0000 0.0000 0.0000 0.0000 19.4483 0.0000
# 6 0.0000 0.0000 0.0000 0.0000 0.0000 13.5061
#
#
#
# Elastic Compliance Matrix: (Units=1/GPa)
#
#
# Indices 1 2 3 4 5 6 
#
# 1 0.024183 -0.012837 -0.008296 0.000000 0.000000 0.000000
# 2 -0.012837 0.024183 -0.008296 0.000000 0.000000 0.000000
# 3 -0.008296 -0.008296 0.024204 0.000000 0.000000 0.000000
# 4 0.000000 0.000000 0.000000 0.051418 0.000000 0.000000
# 5 0.000000 0.000000 0.000000 0.000000 0.051418 0.000000
# 6 0.000000 0.000000 0.000000 0.000000 0.000000 0.074041
#
#
# Mechanical properties :
#
#
# Convention : Reuss Voigt Hill
#
# Bulk Modulus (GPa) = 72.92645 75.38819 74.15732
# Shear Modulus (GPa) = 15.98072 16.51865 16.24969
#
# Velocity S-wave (km/s) = 3.25080 3.30506 3.27805
# Velocity P-wave (km/s) = 7.89399 8.02604 7.96028
#
# Compressibility (1/GPa) = 0.01371245
#
# Stress axis : x y z
#
# Youngs Moduli (GPa) = 41.35081 41.35081 41.31553
#
# Poissons Ratio (x) = 0.53082 0.34276
# Poissons Ratio (y) = 0.53082 0.34276
# Poissons Ratio (z) = 0.34305 0.34305
#
# Static dielectric constant tensor:
#      x y z
#    x 1.494210 0.000000 0.000000 
#    y 0.000000 1.494210 0.000000 
#    z 0.000000 0.000000 1.494980 
# 
# From -- ./inp_files/8941.got.cif
#   From: 2010.05.17/outbox.cif.g08.bks.cpg/sg191_5_cif.got.tgz:8941.got - 2010.05.20 12:20:32.
