data_PCOD9587242
_publ_section_title
;
Structure prediction by ZEFSAII (Michael W. Deem and Ramdas Pophale) SiO2 
 PCOD9587242
Probable space group: P 6/M M M
;
_chemical_formula_sum "Si O2"
_cell_formula_units_Z 168
_cell_length_a 22.087410
_cell_length_b 22.087410
_cell_length_c 24.218682
_cell_angle_alpha 90.000000
_cell_angle_beta 90.000000
_cell_angle_gamma 120.000000
_cell_volume 10232.240099
_symmetry_space_group_name_H-M "P 6/M M M"
_symmetry_group_IT_number 191
_symmetry_cell_setting 'hexagonal'
loop_
_space_group_symop_operation_xyz
x,y,z
x-y,x,z
-y,x-y,z
-x,-y,z
-x+y,-x,z
y,-x+y,z
x-y,-y,-z
-x,-x+y,-z
y,x,-z
-y,-x,-z
-x+y,y,-z
x,x-y,-z
-x,-y,-z
-x+y,-x,-z
y,-x+y,-z
x,y,-z
x-y,x,-z
-y,x-y,-z
-x+y,y,z
x,x-y,z
-y,-x,z
y,x,z
x-y,-y,z
-x,-x+y,z
loop_
_atom_site_type_symbol
_atom_site_label
_atom_site_fract_x
_atom_site_fract_y
_atom_site_fract_z
Si Si1 0.919536 0.591981 0.271377
Si Si2 0.780374 0.701109 0.356677
Si Si3 0.080957 0.667850 0.565484
Si Si4 0.811737 0.476956 0.648906
Si Si5 0.135950 0.720028 0.849544
Si Si6 0.921162 0.706202 0.937826
Si Si7 0.665087 0.475383 0.939110
O O1 0.913028 0.652760 0.303769
O O2 0.861568 0.520327 0.299646
O O3 0.903247 0.592164 0.207241
O O4 0.000000 0.611667 0.279902
O O5 0.859890 0.719780 0.356902
O O6 0.764613 0.764613 0.357289
O O7 0.738219 0.650497 0.408104
O O8 0.090711 0.672910 0.500000
O O9 0.138861 0.656850 0.596530
O O10 0.000000 0.608096 0.577142
O O11 0.741099 0.482198 0.648683
O O12 0.794817 0.397409 0.649857
O O13 0.212105 0.787896 0.837426
O O14 0.096826 0.746472 0.890501
O O15 0.146001 0.665768 0.887107
O O16 0.866211 0.732422 0.932741
O O17 0.000000 0.766188 0.933023
O O18 0.911332 0.675064 0.000000
O O19 0.739840 0.479679 0.938805
O O20 0.603710 0.396290 0.934211
O O21 0.657473 0.500965 0.000000
#
# Coordination Sequence:
#
# PCOD9587242 Si02
#       7
#    24  24  24  24  24  24  24
#     4  10  20  34  53  74  94 120 156 200 248 290
#     4   9  17  30  49  73 101 131 163 200 242 286
#     4   9  18  33  55  81 104 128 161 203 247 283
#     4  11  23  38  54  72  98 132 166 199 236 282
#     4  10  18  29  47  71  97 121 149 189 237 288
#     4   9  17  29  46  68  93 120 149 183 225 274
#     4   9  17  29  45  65  90 122 160 198 233 270
#
# _framework density 16.418692
#
# number of rings (size 3 to 8) (size 9 to 14) (size 15 to 20)
#    0.000    2.429    0.000    5.000    0.000    5.429 
#    0.000    0.714    0.000    4.143    0.000    6.000 
#    0.000    0.000    0.000    8.143    0.000    3.143 
#
# Total GULP energy -936139.443302 kJ/mol
# GULP energy per Si atom -5572.258591 kJ/mol
# Density = 1.638132 g / cm^3
# Si number density = 16.418692 Si / 1000 Ang^3
#
#
#
# Elastic Constant Matrix: (Units=GPa)
#
#
# Indices 1 2 3 4 5 6 
#
# 1 74.5173 44.8689 37.6551 0.0000 0.0000 0.0000
# 2 44.8689 74.5173 37.6551 0.0000 0.0000 0.0000
# 3 37.6551 37.6551 123.6932 0.0000 0.0000 0.0000
# 4 0.0000 0.0000 0.0000 10.0556 0.0000 0.0000
# 5 0.0000 0.0000 0.0000 0.0000 10.0556 0.0000
# 6 0.0000 0.0000 0.0000 0.0000 0.0000 14.8242
#
#
#
# Elastic Compliance Matrix: (Units=1/GPa)
#
#
# Indices 1 2 3 4 5 6 
#
# 1 0.022048 -0.011681 -0.003156 0.000000 0.000000 0.000000
# 2 -0.011681 0.022048 -0.003156 0.000000 0.000000 0.000000
# 3 -0.003156 -0.003156 0.010006 0.000000 0.000000 0.000000
# 4 0.000000 0.000000 0.000000 0.099447 0.000000 0.000000
# 5 0.000000 0.000000 0.000000 0.000000 0.099447 0.000000
# 6 0.000000 0.000000 0.000000 0.000000 0.000000 0.067457
#
#
# Mechanical properties :
#
#
# Convention : Reuss Voigt Hill
#
# Bulk Modulus (GPa) = 55.19930 57.00955 56.10443
# Shear Modulus (GPa) = 13.79395 17.15699 15.47547
#
# Velocity S-wave (km/s) = 2.90166 3.23610 3.07343
# Velocity P-wave (km/s) = 6.70216 6.98290 6.84397
#
# Compressibility (1/GPa) = 0.01811617
#
# Stress axis : x y z
#
# Youngs Moduli (GPa) = 45.35598 45.35598 99.94004
#
# Poissons Ratio (x) = 0.52980 0.31541
# Poissons Ratio (y) = 0.52980 0.31541
# Poissons Ratio (z) = 0.14314 0.14314
#
# Static dielectric constant tensor:
#      x y z
#    x 1.545200 0.000000 0.000000 
#    y 0.000000 1.545200 0.000000 
#    z 0.000000 0.000000 1.564610 
# 
# From -- ./inp_files/8979.got.cif
#   From: 2010.05.17/outbox.cif.g08.bks.cpg/sg191_5_cif.got.tgz:8979.got - 2010.05.20 12:20:32.
