data_PCOD9587920
_publ_section_title
;
Structure prediction by ZEFSAII (Michael W. Deem and Ramdas Pophale) SiO2 
 PCOD9587920
Probable space group: P 6/M M M
;
_chemical_formula_sum "Si O2"
_cell_formula_units_Z 120
_cell_length_a 23.397283
_cell_length_b 23.397283
_cell_length_c 14.009101
_cell_angle_alpha 90.000000
_cell_angle_beta 90.000000
_cell_angle_gamma 120.000000
_cell_volume 6641.585291
_symmetry_space_group_name_H-M "P 6/M M M"
_symmetry_group_IT_number 191
_symmetry_cell_setting 'hexagonal'
loop_
_space_group_symop_operation_xyz
x,y,z
x-y,x,z
-y,x-y,z
-x,-y,z
-x+y,-x,z
y,-x+y,z
x-y,-y,-z
-x,-x+y,-z
y,x,-z
-y,-x,-z
-x+y,y,-z
x,x-y,-z
-x,-y,-z
-x+y,-x,-z
y,-x+y,-z
x,y,-z
x-y,x,-z
-y,x-y,-z
-x+y,y,z
x,x-y,z
-y,-x,z
y,x,z
x-y,-y,z
-x,-x+y,z
loop_
_atom_site_type_symbol
_atom_site_label
_atom_site_fract_x
_atom_site_fract_y
_atom_site_fract_z
Si Si1 0.074718 0.281529 0.784159
Si Si2 0.878879 0.625197 0.389081
Si Si3 0.477279 0.399205 0.384521
Si Si4 0.797996 0.333357 0.116466
Si Si5 0.327123 0.401283 0.114829
O O1 0.131951 0.263901 0.798960
O O2 0.082171 0.311453 0.677800
O O3 0.087358 0.343585 0.849769
O O4 0.000000 0.224180 0.800394
O O5 0.899390 0.639502 0.500000
O O6 0.802670 0.605339 0.382660
O O7 0.889795 0.566085 0.354437
O O8 0.482047 0.396940 0.500000
O O9 0.551344 0.448657 0.348401
O O10 0.434885 0.434885 0.364843
O O11 0.791323 0.395662 0.147087
O O12 0.735905 0.264096 0.148407
O O13 0.867663 0.340465 0.144700
O O14 0.796698 0.332688 0.000000
O O15 0.380327 0.380327 0.147651
O O16 0.327369 0.400916 0.000000
#
# Coordination Sequence:
#
# PCOD9587920 Si02
#       5
#    24  24  24  24  24
#     4  10  20  33  50  72  96 120 147 181 222 269
#     4   9  17  29  46  68  93 120 149 183 224 268
#     4   8  13  22  38  59  82 110 144 181 219 256
#     4   9  16  26  42  64  91 124 160 195 230 272
#     4   9  18  32  49  68  90 119 156 197 238 275
#
# _framework density 18.067975000000001
#
# number of rings (size 3 to 8) (size 9 to 14) (size 15 to 20)
#    0.000    3.000    0.000    2.000    0.000    3.600 
#    0.000    3.000    0.000    1.800    0.000    2.800 
#    0.000    0.000    0.000   10.000    0.000    0.000 
#
# Total GULP energy -669121.998868 kJ/mol
# GULP energy per Si atom -5576.016657 kJ/mol
# Density = 1.802685 g / cm^3
# Si number density = 18.067975 Si / 1000 Ang^3
#
#
#
# Elastic Constant Matrix: (Units=GPa)
#
#
# Indices 1 2 3 4 5 6 
#
# 1 116.6104 78.1516 2.6548 0.0000 0.0000 0.0000
# 2 78.1516 116.6104 2.6548 0.0000 0.0000 0.0000
# 3 2.6548 2.6548 35.7947 0.0000 0.0000 0.0000
# 4 0.0000 0.0000 0.0000 11.4545 0.0000 0.0000
# 5 0.0000 0.0000 0.0000 0.0000 11.4545 0.0000
# 6 0.0000 0.0000 0.0000 0.0000 0.0000 19.2294
#
#
#
# Elastic Compliance Matrix: (Units=1/GPa)
#
#
# Indices 1 2 3 4 5 6 
#
# 1 0.015573 -0.010428 -0.000382 0.000000 0.000000 0.000000
# 2 -0.010428 0.015573 -0.000382 0.000000 0.000000 0.000000
# 3 -0.000382 -0.000382 0.027994 0.000000 0.000000 0.000000
# 4 0.000000 0.000000 0.000000 0.087302 0.000000 0.000000
# 5 0.000000 0.000000 0.000000 0.000000 0.087302 0.000000
# 6 0.000000 0.000000 0.000000 0.000000 0.000000 0.052004
#
#
# Mechanical properties :
#
#
# Convention : Reuss Voigt Hill
#
# Bulk Modulus (GPa) = 27.20561 48.43752 37.82157
# Shear Modulus (GPa) = 15.60630 20.79797 18.20213
#
# Velocity S-wave (km/s) = 2.94216 3.39646 3.17744
# Velocity P-wave (km/s) = 5.16060 6.49984 5.86855
#
# Compressibility (1/GPa) = 0.03675713
#
# Stress axis : x y z
#
# Youngs Moduli (GPa) = 64.21216 64.21216 35.72234
#
# Poissons Ratio (x) = 0.66964 0.01363
# Poissons Ratio (y) = 0.66964 0.01363
# Poissons Ratio (z) = 0.02450 0.02450
#
# Static dielectric constant tensor:
#      x y z
#    x 1.608690 0.000000 0.000000 
#    y 0.000000 1.608690 0.000000 
#    z 0.000000 0.000000 1.669080 
# 
# From -- ./inp_files/4681.got.cif
#   From: 2010.05.17/outbox.cif.g08.bks.cpg/sg191_3_cif.got.tgz:4681.got - 2010.05.20 12:20:32.
