data_PCOD9587403
_publ_section_title
;
Structure prediction by ZEFSAII (Michael W. Deem and Ramdas Pophale) SiO2 
 PCOD9587403
Probable space group: P 6/M M M
;
_chemical_formula_sum "Si O2"
_cell_formula_units_Z 192
_cell_length_a 31.542818
_cell_length_b 31.542818
_cell_length_c 13.990169
_cell_angle_alpha 90.000000
_cell_angle_beta 90.000000
_cell_angle_gamma 120.000000
_cell_volume 12054.649092
_symmetry_space_group_name_H-M "P 6/M M M"
_symmetry_group_IT_number 191
_symmetry_cell_setting 'hexagonal'
loop_
_space_group_symop_operation_xyz
x,y,z
x-y,x,z
-y,x-y,z
-x,-y,z
-x+y,-x,z
y,-x+y,z
x-y,-y,-z
-x,-x+y,-z
y,x,-z
-y,-x,-z
-x+y,y,-z
x,x-y,-z
-x,-y,-z
-x+y,-x,-z
y,-x+y,-z
x,y,-z
x-y,x,-z
-y,x-y,-z
-x+y,y,z
x,x-y,z
-y,-x,z
y,x,z
x-y,-y,z
-x,-x+y,z
loop_
_atom_site_type_symbol
_atom_site_label
_atom_site_fract_x
_atom_site_fract_y
_atom_site_fract_z
Si Si1 0.200004 0.499791 0.392078
Si Si2 0.333294 0.566266 0.210392
Si Si3 0.483803 0.867057 0.889190
Si Si4 0.207856 0.055754 0.385033
Si Si5 0.314404 0.207284 0.293979
Si Si6 0.944958 0.362066 0.203372
Si Si7 0.696146 0.599543 0.389119
Si Si8 0.057811 0.326954 0.110455
O O1 0.200855 0.517743 0.500000
O O2 0.243717 0.487433 0.384847
O O3 0.211672 0.540582 0.312755
O O4 0.148761 0.450295 0.378061
O O5 0.282583 0.565165 0.191674
O O6 0.378681 0.621320 0.209534
O O7 0.345343 0.534607 0.136748
O O8 0.436778 0.873556 0.873572
O O9 0.528704 0.904098 0.824483
O O10 0.498102 0.876717 0.000000
O O11 0.213951 0.057235 0.500000
O O12 0.192707 0.096354 0.360190
O O13 0.260430 0.073615 0.337394
O O14 0.169773 0.000000 0.357801
O O15 0.324903 0.162452 0.294727
O O16 0.354495 0.252259 0.356799
O O17 0.316750 0.227668 0.187468
O O18 0.938783 0.343654 0.312600
O O19 0.937162 0.316095 0.139065
O O20 0.000000 0.405371 0.186616
O O21 0.686064 0.604327 0.500000
O O22 0.000000 0.287792 0.121775
O O23 0.071435 0.327085 0.000000
#
# Coordination Sequence:
#
# PCOD9587403 Si02
#       8
#    24  24  24  24  24  24  24  24
#     4   9  17  30  50  74 100 132 167 202 243 291
#     4  10  20  35  55  79 106 134 165 202 247 299
#     4  10  21  37  56  78 102 127 160 203 249 299
#     4   9  17  29  45  66  93 125 161 203 252 303
#     4  10  19  29  45  70  99 130 167 208 249 295
#     4  10  20  35  54  75  99 127 164 208 248 290
#     4  10  19  32  50  73 102 135 166 200 244 295
#     4   9  18  32  48  66  93 130 168 206 248 293
#
# _framework density 15.927464000000001
#
# number of rings (size 3 to 8) (size 9 to 14) (size 15 to 20)
#    0.000    2.375    1.250    1.625    0.000    3.750 
#    0.000    0.625    0.000    3.500    0.000    1.750 
#    0.000    0.000    0.000    0.000    0.000    0.000 
#
# Total GULP energy -1070429.480391 kJ/mol
# GULP energy per Si atom -5575.153544 kJ/mol
# Density = 1.589121 g / cm^3
# Si number density = 15.927464 Si / 1000 Ang^3
#
#
#
# Elastic Constant Matrix: (Units=GPa)
#
#
# Indices 1 2 3 4 5 6 
#
# 1 79.2316 51.9807 36.1056 0.0000 0.0000 0.0000
# 2 51.9807 79.2316 36.1056 0.0000 0.0000 0.0000
# 3 36.1056 36.1056 77.1773 0.0000 0.0000 0.0000
# 4 0.0000 0.0000 0.0000 18.5535 0.0000 0.0000
# 5 0.0000 0.0000 0.0000 0.0000 18.5535 0.0000
# 6 0.0000 0.0000 0.0000 0.0000 0.0000 13.6254
#
#
#
# Elastic Compliance Matrix: (Units=1/GPa)
#
#
# Indices 1 2 3 4 5 6 
#
# 1 0.023480 -0.013216 -0.004802 0.000000 0.000000 0.000000
# 2 -0.013216 0.023480 -0.004802 0.000000 0.000000 0.000000
# 3 -0.004802 -0.004802 0.017450 0.000000 0.000000 0.000000
# 4 0.000000 0.000000 0.000000 0.053898 0.000000 0.000000
# 5 0.000000 0.000000 0.000000 0.000000 0.053898 0.000000
# 6 0.000000 0.000000 0.000000 0.000000 0.000000 0.073392
#
#
# Mechanical properties :
#
#
# Convention : Reuss Voigt Hill
#
# Bulk Modulus (GPa) = 53.27436 53.78048 53.52742
# Shear Modulus (GPa) = 16.80706 17.57640 17.19173
#
# Velocity S-wave (km/s) = 3.25195 3.32554 3.28895
# Velocity P-wave (km/s) = 6.90079 6.97028 6.93562
#
# Compressibility (1/GPa) = 0.01877075
#
# Stress axis : x y z
#
# Youngs Moduli (GPa) = 42.58958 42.58958 57.30694
#
# Poissons Ratio (x) = 0.56287 0.27517
# Poissons Ratio (y) = 0.56287 0.27517
# Poissons Ratio (z) = 0.20450 0.20450
#
# Static dielectric constant tensor:
#      x y z
#    x 1.514360 0.000000 0.000000 
#    y 0.000000 1.514360 0.000000 
#    z 0.000000 0.000000 1.532600 
# 
# From -- ./inp_files/5510.got.cif
#   From: 2010.05.17/outbox.cif.g08.bks.cpg/sg191_3_cif.got.tgz:5510.got - 2010.05.20 12:20:32.
