data_PCOD9587522
_publ_section_title
;
Structure prediction by ZEFSAII (Michael W. Deem and Ramdas Pophale) SiO2 
 PCOD9587522
Probable space group: P 6/M M M
;
_chemical_formula_sum "Si O2"
_cell_formula_units_Z 132
_cell_length_a 18.353272
_cell_length_b 18.353272
_cell_length_c 26.942475
_cell_angle_alpha 90.000000
_cell_angle_beta 90.000000
_cell_angle_gamma 120.000000
_cell_volume 7859.503691
_symmetry_space_group_name_H-M "P 6/M M M"
_symmetry_group_IT_number 191
_symmetry_cell_setting 'hexagonal'
loop_
_space_group_symop_operation_xyz
x,y,z
x-y,x,z
-y,x-y,z
-x,-y,z
-x+y,-x,z
y,-x+y,z
x-y,-y,-z
-x,-x+y,-z
y,x,-z
-y,-x,-z
-x+y,y,-z
x,x-y,-z
-x,-y,-z
-x+y,-x,-z
y,-x+y,-z
x,y,-z
x-y,x,-z
-y,x-y,-z
-x+y,y,z
x,x-y,z
-y,-x,z
y,x,z
x-y,-y,z
-x,-x+y,z
loop_
_atom_site_type_symbol
_atom_site_label
_atom_site_fract_x
_atom_site_fract_y
_atom_site_fract_z
Si Si1 0.540226 0.904100 0.500000
Si Si2 0.165009 0.668531 0.607429
Si Si3 0.831361 0.831361 0.939572
Si Si4 0.902858 0.263425 0.692464
Si Si5 0.900108 0.532643 0.784475
Si Si6 0.000000 0.337658 0.940501
Si Si7 0.332162 0.836639 0.105250
O O1 0.453067 0.906133 0.500000
O O2 0.537734 0.859333 0.551298
O O3 0.614789 0.000000 0.500000
O O4 0.149764 0.574882 0.613608
O O5 0.262461 0.737540 0.615571
O O6 0.112361 0.689559 0.646409
O O7 0.915634 0.831268 0.923516
O O8 0.747059 0.747059 0.923973
O O9 0.831942 0.831942 0.000000
O O10 0.834713 0.165288 0.688576
O O11 0.883668 0.300937 0.741855
O O12 0.000000 0.288881 0.693916
O O13 0.882285 0.441143 0.766546
O O14 0.850892 0.519791 0.835488
O O15 0.000000 0.585731 0.796208
O O16 0.083043 0.419162 0.920786
O O17 0.000000 0.338806 0.000000
O O18 0.416623 0.833245 0.094473
O O19 0.249027 0.750973 0.090573
#
# Coordination Sequence:
#
# PCOD9587522 Si02
#       7
#    12  24  12  24  24  12  24
#     4   9  17  28  42  60  88 131 181 221 251 288
#     4  10  19  30  45  68  99 136 174 213 255 302
#     4   9  17  31  53  81 109 135 165 205 252 299
#     4  10  20  33  51  75 101 130 166 210 257 304
#     4   9  17  32  54  79 105 134 165 200 245 299
#     4  11  23  39  57  77 103 139 177 210 251 307
#     4  11  22  37  56  79 106 137 174 216 260 305
#
# _framework density 16.794953
#
# number of rings (size 3 to 8) (size 9 to 14) (size 15 to 20)
#    0.000    2.091    0.909    3.182    0.000    4.000 
#    0.000    0.909    0.000    7.091    0.000    0.000 
#    0.000    0.000    0.000    0.000    0.000   18.909 
#
# Total GULP energy -736488.626540 kJ/mol
# GULP energy per Si atom -5579.459292 kJ/mol
# Density = 1.675673 g / cm^3
# Si number density = 16.794953 Si / 1000 Ang^3
#
#
#
# Elastic Constant Matrix: (Units=GPa)
#
#
# Indices 1 2 3 4 5 6 
#
# 1 125.5680 81.5442 38.9978 0.0000 0.0000 0.0000
# 2 81.5442 125.5680 38.9978 0.0000 0.0000 0.0000
# 3 38.9978 38.9978 53.1946 0.0000 0.0000 0.0000
# 4 0.0000 0.0000 0.0000 19.7243 0.0000 0.0000
# 5 0.0000 0.0000 0.0000 0.0000 19.7243 0.0000
# 6 0.0000 0.0000 0.0000 0.0000 0.0000 22.0119
#
#
#
# Elastic Compliance Matrix: (Units=1/GPa)
#
#
# Indices 1 2 3 4 5 6 
#
# 1 0.014692 -0.008023 -0.004890 0.000000 0.000000 0.000000
# 2 -0.008023 0.014692 -0.004890 0.000000 0.000000 0.000000
# 3 -0.004890 -0.004890 0.025968 0.000000 0.000000 0.000000
# 4 0.000000 0.000000 0.000000 0.050699 0.000000 0.000000
# 5 0.000000 0.000000 0.000000 0.000000 0.050699 0.000000
# 6 0.000000 0.000000 0.000000 0.000000 0.000000 0.045430
#
#
# Mechanical properties :
#
#
# Convention : Reuss Voigt Hill
#
# Bulk Modulus (GPa) = 50.63544 69.26782 59.95163
# Shear Modulus (GPa) = 20.46100 21.94484 21.20292
#
# Velocity S-wave (km/s) = 3.49418 3.61866 3.55696
# Velocity P-wave (km/s) = 6.81863 7.66762 7.25555
#
# Compressibility (1/GPa) = 0.01974901
#
# Stress axis : x y z
#
# Youngs Moduli (GPa) = 68.06274 68.06274 38.50860
#
# Poissons Ratio (x) = 0.54604 0.18829
# Poissons Ratio (y) = 0.54604 0.18829
# Poissons Ratio (z) = 0.33280 0.33280
#
# Static dielectric constant tensor:
#      x y z
#    x 1.555740 0.000000 0.000000 
#    y 0.000000 1.555740 0.000000 
#    z 0.000000 0.000000 1.566990 
# 
# From -- ./inp_files/8737.got.cif
#   From: 2010.05.17/outbox.cif.g08.bks.cpg/sg191_5_cif.got.tgz:8737.got - 2010.05.20 12:20:32.
