data_PCOD9587076
_publ_section_title
;
Structure prediction by ZEFSAII (Michael W. Deem and Ramdas Pophale) SiO2 
 PCOD9587076
Probable space group: P 6/M M M
;
_chemical_formula_sum "Si O2"
_cell_formula_units_Z 156
_cell_length_a 19.586293
_cell_length_b 19.586293
_cell_length_c 33.488922
_cell_angle_alpha 90.000000
_cell_angle_beta 90.000000
_cell_angle_gamma 120.000000
_cell_volume 11125.929244
_symmetry_space_group_name_H-M "P 6/M M M"
_symmetry_group_IT_number 191
_symmetry_cell_setting 'hexagonal'
loop_
_space_group_symop_operation_xyz
x,y,z
x-y,x,z
-y,x-y,z
-x,-y,z
-x+y,-x,z
y,-x+y,z
x-y,-y,-z
-x,-x+y,-z
y,x,-z
-y,-x,-z
-x+y,y,-z
x,x-y,-z
-x,-y,-z
-x+y,-x,-z
y,-x+y,-z
x,y,-z
x-y,x,-z
-y,x-y,-z
-x+y,y,z
x,x-y,z
-y,-x,z
y,x,z
x-y,-y,z
-x,-x+y,z
loop_
_atom_site_type_symbol
_atom_site_label
_atom_site_fract_x
_atom_site_fract_y
_atom_site_fract_z
Si Si1 0.088981 0.461990 0.173052
Si Si2 0.173177 0.505304 0.090476
Si Si3 0.628472 0.090593 0.336397
Si Si4 0.827053 0.495566 0.581834
Si Si5 0.090972 0.339722 0.048130
Si Si6 0.331592 0.827867 0.254086
Si Si7 0.462166 0.090771 0.500000
O O1 0.085246 0.542623 0.175220
O O2 0.145491 0.475694 0.135815
O O3 0.122124 0.455301 0.215693
O O4 0.000000 0.392494 0.165832
O O5 0.263799 0.527598 0.085269
O O6 0.162848 0.581424 0.083188
O O7 0.120275 0.428589 0.063376
O O8 0.545950 0.091900 0.336632
O O9 0.670686 0.129904 0.377790
O O10 0.672275 0.135266 0.296279
O O11 0.604499 0.000000 0.334782
O O12 0.738148 0.476296 0.582550
O O13 0.829810 0.414905 0.581797
O O14 0.867668 0.539580 0.540815
O O15 0.160266 0.320532 0.060816
O O16 0.000000 0.280726 0.061093
O O17 0.090902 0.339812 0.000000
O O18 0.413475 0.826950 0.253858
O O19 0.259634 0.740367 0.250437
O O20 0.546442 0.092884 0.500000
O O21 0.396118 0.000000 0.500000
#
# Coordination Sequence:
#
# PCOD9587076 Si02
#       7
#    24  24  24  24  24  24  12
#     4   9  17  28  41  56  75 102 136 172 209 249
#     4  10  19  30  44  63  88 117 149 184 220 255
#     4   9  17  28  40  52  68  93 123 152 184 226
#     4  10  18  27  39  55  74  93 116 150 193 232
#     4   9  18  32  49  68  89 114 144 178 217 261
#     4  10  18  27  39  55  75  97 123 158 202 246
#     4   9  17  28  40  52  68  93 122 148 178 220
#
# _framework density 14.021300999999999
#
# number of rings (size 3 to 8) (size 9 to 14) (size 15 to 20)
#    0.000    2.538    0.000    3.000    0.000    4.923 
#    0.000    4.615    0.000    1.077    0.000    1.077 
#    0.000    0.000    0.000    0.000    0.000    0.000 
#
# Total GULP energy -868594.289651 kJ/mol
# GULP energy per Si atom -5567.912113 kJ/mol
# Density = 1.398939 g / cm^3
# Si number density = 14.021301 Si / 1000 Ang^3
#
#
#
# Elastic Constant Matrix: (Units=GPa)
#
#
# Indices 1 2 3 4 5 6 
#
# 1 45.0255 35.7080 18.9961 0.0000 0.0000 0.0000
# 2 35.7080 45.0255 18.9961 0.0000 0.0000 0.0000
# 3 18.9961 18.9961 43.8033 0.0000 0.0000 0.0000
# 4 0.0000 0.0000 0.0000 15.9438 0.0000 0.0000
# 5 0.0000 0.0000 0.0000 0.0000 15.9438 0.0000
# 6 0.0000 0.0000 0.0000 0.0000 0.0000 4.6587
#
#
#
# Elastic Compliance Matrix: (Units=1/GPa)
#
#
# Indices 1 2 3 4 5 6 
#
# 1 0.061444 -0.045881 -0.006749 0.000000 0.000000 0.000000
# 2 -0.045881 0.061444 -0.006749 0.000000 0.000000 0.000000
# 3 -0.006749 -0.006749 0.028683 0.000000 0.000000 0.000000
# 4 0.000000 0.000000 0.000000 0.062720 0.000000 0.000000
# 5 0.000000 0.000000 0.000000 0.000000 0.062720 0.000000
# 6 0.000000 0.000000 0.000000 0.000000 0.000000 0.214651
#
#
# Mechanical properties :
#
#
# Convention : Reuss Voigt Hill
#
# Bulk Modulus (GPa) = 30.47663 31.25053 30.86358
# Shear Modulus (GPa) = 8.04689 11.31952 9.68320
#
# Velocity S-wave (km/s) = 2.39823 2.84440 2.63079
# Velocity P-wave (km/s) = 5.42695 5.75532 5.59355
#
# Compressibility (1/GPa) = 0.03281203
#
# Stress axis : x y z
#
# Youngs Moduli (GPa) = 16.27503 16.27503 34.86397
#
# Poissons Ratio (x) = 0.74672 0.23529
# Poissons Ratio (y) = 0.74672 0.23529
# Poissons Ratio (z) = 0.10984 0.10984
#
# Static dielectric constant tensor:
#      x y z
#    x 1.447610 0.000000 0.000000 
#    y 0.000000 1.447610 0.000000 
#    z 0.000000 0.000000 1.487480 
# 
# From -- ./inp_files/10800.got.cif
#   From: 2010.05.17/outbox.cif.g08.bks.cpg/sg191_6_cif.got.tgz:10800.got - 2010.05.20 12:20:32.
