data_PCOD9587195
_publ_section_title
;
Structure prediction by ZEFSAII (Michael W. Deem and Ramdas Pophale) SiO2 
 PCOD9587195
Probable space group: P 6/M M M
;
_chemical_formula_sum "Si O2"
_cell_formula_units_Z 192
_cell_length_a 23.922264
_cell_length_b 23.922264
_cell_length_c 24.984124
_cell_angle_alpha 90.000000
_cell_angle_beta 90.000000
_cell_angle_gamma 120.000000
_cell_volume 12382.242810
_symmetry_space_group_name_H-M "P 6/M M M"
_symmetry_group_IT_number 191
_symmetry_cell_setting 'hexagonal'
loop_
_space_group_symop_operation_xyz
x,y,z
x-y,x,z
-y,x-y,z
-x,-y,z
-x+y,-x,z
y,-x+y,z
x-y,-y,-z
-x,-x+y,-z
y,x,-z
-y,-x,-z
-x+y,y,-z
x,x-y,-z
-x,-y,-z
-x+y,-x,-z
y,-x+y,-z
x,y,-z
x-y,x,-z
-y,x-y,-z
-x+y,y,z
x,x-y,z
-y,-x,z
y,x,z
x-y,-y,z
-x,-x+y,z
loop_
_atom_site_type_symbol
_atom_site_label
_atom_site_fract_x
_atom_site_fract_y
_atom_site_fract_z
Si Si1 0.270000 0.197649 0.213772
Si Si2 0.604076 0.525263 0.838930
Si Si3 0.796507 0.462251 0.564089
Si Si4 0.727515 0.801163 0.084286
Si Si5 0.923144 0.603671 0.258528
Si Si6 0.862342 0.591082 0.372256
Si Si7 0.078327 0.675540 0.059012
Si Si8 0.796472 0.073860 0.563843
O O1 0.255743 0.127872 0.232033
O O2 0.218414 0.218414 0.231276
O O3 0.271852 0.199210 0.149120
O O4 0.339352 0.252582 0.234399
O O5 0.549188 0.450813 0.839992
O O6 0.566085 0.566085 0.839311
O O7 0.646830 0.547352 0.785323
O O8 0.649119 0.548314 0.891495
O O9 0.804228 0.468540 0.500000
O O10 0.724302 0.448603 0.575947
O O11 0.804312 0.402156 0.581441
O O12 0.845689 0.529593 0.591287
O O13 0.744442 0.872221 0.066660
O O14 0.775158 0.775158 0.066251
O O15 0.655191 0.748426 0.067124
O O16 0.890189 0.585393 0.315867
O O17 0.000000 0.634718 0.265149
O O18 0.795261 0.590522 0.363545
O O19 0.908345 0.658310 0.402599
O O20 0.000000 0.633506 0.059626
O O21 0.100241 0.668153 0.000000
O O22 0.786591 0.078392 0.500000
O O23 0.870219 0.129782 0.575519
O O24 0.776890 0.000000 0.575147
#
# Coordination Sequence:
#
# PCOD9587195 Si02
#       8
#    24  24  24  24  24  24  24  24
#     4   9  16  27  44  63  85 115 152 192 232 276
#     4   9  17  29  43  60  84 114 145 174 209 259
#     4   9  17  30  48  68  90 117 150 189 231 272
#     4   9  16  27  43  63  88 119 155 195 239 285
#     4  10  18  29  44  62  87 119 152 185 222 271
#     4  10  19  29  44  68  93 117 152 195 235 273
#     4   9  16  27  43  63  86 111 143 183 226 273
#     4   9  17  30  48  69  94 124 157 195 241 290
#
# _framework density 15.506076999999999
#
# number of rings (size 3 to 8) (size 9 to 14) (size 15 to 20)
#    0.000    2.750    1.250    1.250    0.000    3.000 
#    0.000    1.250    0.000    1.500    0.000    7.000 
#    0.000    0.000    0.000    8.875    0.000   14.875 
#
# Total GULP energy -1069465.099900 kJ/mol
# GULP energy per Si atom -5570.130729 kJ/mol
# Density = 1.547078 g / cm^3
# Si number density = 15.506077 Si / 1000 Ang^3
#
#
#
# Elastic Constant Matrix: (Units=GPa)
#
#
# Indices 1 2 3 4 5 6 
#
# 1 84.3675 53.8857 42.6333 0.0000 0.0000 0.0000
# 2 53.8857 84.3675 42.6333 0.0000 0.0000 0.0000
# 3 42.6333 42.6333 65.4032 0.0000 0.0000 0.0000
# 4 0.0000 0.0000 0.0000 5.4710 0.0000 0.0000
# 5 0.0000 0.0000 0.0000 0.0000 5.4710 0.0000
# 6 0.0000 0.0000 0.0000 0.0000 0.0000 15.2409
#
#
#
# Elastic Compliance Matrix: (Units=1/GPa)
#
#
# Indices 1 2 3 4 5 6 
#
# 1 0.022451 -0.010355 -0.007885 0.000000 0.000000 0.000000
# 2 -0.010355 0.022451 -0.007885 0.000000 0.000000 0.000000
# 3 -0.007885 -0.007885 0.025569 0.000000 0.000000 0.000000
# 4 0.000000 0.000000 0.000000 0.182781 0.000000 0.000000
# 5 0.000000 0.000000 0.000000 0.000000 0.182781 0.000000
# 6 0.000000 0.000000 0.000000 0.000000 0.000000 0.065613
#
#
# Mechanical properties :
#
#
# Convention : Reuss Voigt Hill
#
# Bulk Modulus (GPa) = 54.87871 56.93806 55.90838
# Shear Modulus (GPa) = 8.92906 11.56899 10.24902
#
# Velocity S-wave (km/s) = 2.40227 2.73443 2.57372
# Velocity P-wave (km/s) = 6.56987 6.83879 6.70568
#
# Compressibility (1/GPa) = 0.01822200
#
# Stress axis : x y z
#
# Youngs Moduli (GPa) = 44.54094 44.54094 39.10946
#
# Poissons Ratio (x) = 0.46123 0.30837
# Poissons Ratio (y) = 0.46123 0.30837
# Poissons Ratio (z) = 0.35120 0.35120
#
# Static dielectric constant tensor:
#      x y z
#    x 1.506560 0.000000 0.000000 
#    y 0.000000 1.506560 0.000000 
#    z 0.000000 0.000000 1.528930 
# 
# From -- ./inp_files/9403.got.cif
#   From: 2010.05.17/outbox.cif.g08.bks.cpg/sg191_5_cif.got.tgz:9403.got - 2010.05.20 12:20:32.
