data_PCOD9587346
_publ_section_title
;
Structure prediction by ZEFSAII (Michael W. Deem and Ramdas Pophale) SiO2 
 PCOD9587346
Probable space group: P 6/M M M
;
_chemical_formula_sum "Si O2"
_cell_formula_units_Z 120
_cell_length_a 18.450514
_cell_length_b 18.450514
_cell_length_c 24.448543
_cell_angle_alpha 90.000000
_cell_angle_beta 90.000000
_cell_angle_gamma 120.000000
_cell_volume 7207.763913
_symmetry_space_group_name_H-M "P 6/M M M"
_symmetry_group_IT_number 191
_symmetry_cell_setting 'hexagonal'
loop_
_space_group_symop_operation_xyz
x,y,z
x-y,x,z
-y,x-y,z
-x,-y,z
-x+y,-x,z
y,-x+y,z
x-y,-y,-z
-x,-x+y,-z
y,x,-z
-y,-x,-z
-x+y,y,-z
x,x-y,-z
-x,-y,-z
-x+y,-x,-z
y,-x+y,-z
x,y,-z
x-y,x,-z
-y,x-y,-z
-x+y,y,z
x,x-y,z
-y,-x,z
y,x,z
x-y,-y,z
-x,-x+y,z
loop_
_atom_site_type_symbol
_atom_site_label
_atom_site_fract_x
_atom_site_fract_y
_atom_site_fract_z
Si Si1 0.194838 0.389675 0.312867
Si Si2 0.465151 0.101506 0.621037
Si Si3 0.388560 0.194280 0.181742
Si Si4 0.465869 0.367990 0.879661
Si Si5 0.903052 0.806104 0.314608
Si Si6 0.460210 0.364156 0.500000
Si Si7 0.495601 0.333859 0.000000
Si Si8 0.903360 0.096641 0.181567
O O1 0.145701 0.434265 0.336595
O O2 0.196420 0.392839 0.247265
O O3 0.145802 0.291603 0.330032
O O4 0.559931 0.119861 0.629656
O O5 0.458471 0.131158 0.559419
O O6 0.407284 0.000000 0.623206
O O7 0.433775 0.147261 0.156644
O O8 0.290460 0.145230 0.165460
O O9 0.562870 0.437131 0.870181
O O10 0.412324 0.412324 0.867258
O O11 0.457164 0.345117 0.944005
O O12 0.854109 0.854109 0.332672
O O13 0.904160 0.808320 0.248090
O O14 0.386290 0.386290 0.500000
O O15 0.546701 0.453300 0.500000
O O16 0.591944 0.408057 0.000000
O O17 0.489914 0.244957 0.000000
O O18 0.000000 0.145308 0.163487
#
# Coordination Sequence:
#
# PCOD9587346 Si02
#       8
#    12  24  12  24  12  12  12  12
#     4  11  22  32  49  76 107 141 181 218 257 313
#     4   9  18  34  54  74 100 135 173 217 269 319
#     4  11  22  36  49  74 109 147 179 217 261 311
#     4  10  21  37  57  79 104 136 177 221 265 313
#     4   9  17  30  48  71  99 132 171 217 264 306
#     4   7  12  27  52  76  95 123 167 217 270 320
#     4  10  18  33  57  84 107 131 166 215 272 315
#     4   9  17  30  50  73  99 132 173 219 263 308
#
# _framework density 16.648713000000001
#
# number of rings (size 3 to 8) (size 9 to 14) (size 15 to 20)
#    0.000    2.500    1.000    3.000    0.000    5.600 
#    1.200    2.000    0.000    0.000    0.000    0.000 
#    0.000    0.000    0.000   11.900    0.000    4.300 
#
# Total GULP energy -668646.031191 kJ/mol
# GULP energy per Si atom -5572.050260 kJ/mol
# Density = 1.661082 g / cm^3
# Si number density = 16.648713 Si / 1000 Ang^3
#
#
#
# Elastic Constant Matrix: (Units=GPa)
#
#
# Indices 1 2 3 4 5 6 
#
# 1 104.5401 75.3534 54.5398 0.0000 0.0000 0.0000
# 2 75.3534 104.5401 54.5398 0.0000 0.0000 0.0000
# 3 54.5398 54.5398 80.4575 0.0000 0.0000 0.0000
# 4 0.0000 0.0000 0.0000 60.8243 0.0000 0.0000
# 5 0.0000 0.0000 0.0000 0.0000 60.8243 0.0000
# 6 0.0000 0.0000 0.0000 0.0000 0.0000 14.5933
#
#
#
# Elastic Compliance Matrix: (Units=1/GPa)
#
#
# Indices 1 2 3 4 5 6 
#
# 1 0.021850 -0.012412 -0.006398 0.000000 0.000000 0.000000
# 2 -0.012412 0.021850 -0.006398 0.000000 0.000000 0.000000
# 3 -0.006398 -0.006398 0.021103 0.000000 0.000000 0.000000
# 4 0.000000 0.000000 0.000000 0.016441 0.000000 0.000000
# 5 0.000000 0.000000 0.000000 0.000000 0.016441 0.000000
# 6 0.000000 0.000000 0.000000 0.000000 0.000000 0.068524
#
#
# Mechanical properties :
#
#
# Convention : Reuss Voigt Hill
#
# Bulk Modulus (GPa) = 69.50387 73.15596 71.32991
# Shear Modulus (GPa) = 22.58142 34.25537 28.41839
#
# Velocity S-wave (km/s) = 3.68686 4.54093 4.13600
# Velocity P-wave (km/s) = 7.74350 8.45752 8.10838
#
# Compressibility (1/GPa) = 0.01438769
#
# Stress axis : x y z
#
# Youngs Moduli (GPa) = 45.76607 45.76607 47.38690
#
# Poissons Ratio (x) = 0.56805 0.30318
# Poissons Ratio (y) = 0.56805 0.30318
# Poissons Ratio (z) = 0.29281 0.29281
#
# Static dielectric constant tensor:
#      x y z
#    x 1.548920 0.000000 0.000000 
#    y 0.000000 1.548920 0.000000 
#    z 0.000000 0.000000 1.565230 
# 
# From -- ./inp_files/8664.got.cif
#   From: 2010.05.17/outbox.cif.g08.bks.cpg/sg191_5_cif.got.tgz:8664.got - 2010.05.20 12:20:32.
