data_PCOD9587051
_publ_section_title
;
Structure prediction by ZEFSAII (Michael W. Deem and Ramdas Pophale) SiO2 
 PCOD9587051
Probable space group: P 6/M M M
;
_chemical_formula_sum "Si O2"
_cell_formula_units_Z 108
_cell_length_a 31.809174
_cell_length_b 31.809174
_cell_length_c 8.025306
_cell_angle_alpha 90.000000
_cell_angle_beta 90.000000
_cell_angle_gamma 120.000000
_cell_volume 7032.293951
_symmetry_space_group_name_H-M "P 6/M M M"
_symmetry_group_IT_number 191
_symmetry_cell_setting 'hexagonal'
loop_
_space_group_symop_operation_xyz
x,y,z
x-y,x,z
-y,x-y,z
-x,-y,z
-x+y,-x,z
y,-x+y,z
x-y,-y,-z
-x,-x+y,-z
y,x,-z
-y,-x,-z
-x+y,y,-z
x,x-y,-z
-x,-y,-z
-x+y,-x,-z
y,-x+y,-z
x,y,-z
x-y,x,-z
-y,x-y,-z
-x+y,y,z
x,x-y,z
-y,-x,z
y,x,z
x-y,-y,z
-x,-x+y,z
loop_
_atom_site_type_symbol
_atom_site_label
_atom_site_fract_x
_atom_site_fract_y
_atom_site_fract_z
Si Si1 0.652722 0.652722 0.202758
Si Si2 0.305368 0.200844 0.301520
Si Si3 0.702894 0.596888 0.197169
Si Si4 0.750420 0.750420 0.800780
Si Si5 0.566378 0.333616 0.000000
Si Si6 0.299049 0.800825 0.313123
O O1 0.661396 0.609171 0.254994
O O2 0.701523 0.701523 0.255742
O O3 0.652451 0.652451 0.000000
O O4 0.312474 0.204861 0.500000
O O5 0.299540 0.149770 0.246258
O O6 0.353753 0.245557 0.222434
O O7 0.259231 0.207264 0.260258
O O8 0.701406 0.551961 0.288751
O O9 0.696976 0.586282 0.000000
O O10 0.751348 0.751348 0.000000
O O11 0.535169 0.328467 0.165088
O O12 0.616862 0.383139 0.000000
O O13 0.574444 0.287222 0.000000
O O14 0.316067 0.798583 0.500000
O O15 0.243970 0.756031 0.297334
#
# Coordination Sequence:
#
# PCOD9587051 Si02
#       6
#    12  24  24  12  12  24
#     4   7  14  25  39  61  89 123 161 195 228 267
#     4  10  19  28  40  60  87 121 157 193 236 282
#     4  10  17  28  45  67  97 129 160 195 232 270
#     4   9  17  29  41  55  79 113 155 199 234 274
#     4  10  21  38  58  79 101 127 155 185 226 278
#     4  10  20  33  50  75 103 127 155 193 236 279
#
# _framework density 15.35772
#
# number of rings (size 3 to 8) (size 9 to 14) (size 15 to 20)
#    0.000    2.444    1.111    3.778    0.000    4.889 
#    0.000    1.667    0.000    1.333    0.000    1.556 
#    0.000    1.778    0.000    0.333    0.000    6.444 
#
# Total GULP energy -601643.649856 kJ/mol
# GULP energy per Si atom -5570.774536 kJ/mol
# Density = 1.532277 g / cm^3
# Si number density = 15.357720 Si / 1000 Ang^3
#
#
#
# Elastic Constant Matrix: (Units=GPa)
#
#
# Indices 1 2 3 4 5 6 
#
# 1 80.8896 38.6953 29.1278 0.0000 0.0000 0.0000
# 2 38.6953 80.8896 29.1278 0.0000 0.0000 0.0000
# 3 29.1278 29.1278 76.2472 0.0000 0.0000 0.0000
# 4 0.0000 0.0000 0.0000 9.9234 0.0000 0.0000
# 5 0.0000 0.0000 0.0000 0.0000 9.9234 0.0000
# 6 0.0000 0.0000 0.0000 0.0000 0.0000 21.0971
#
#
#
# Elastic Compliance Matrix: (Units=1/GPa)
#
#
# Indices 1 2 3 4 5 6 
#
# 1 0.016987 -0.006713 -0.003925 0.000000 0.000000 0.000000
# 2 -0.006713 0.016987 -0.003925 0.000000 0.000000 0.000000
# 3 -0.003925 -0.003925 0.016114 0.000000 0.000000 0.000000
# 4 0.000000 0.000000 0.000000 0.100772 0.000000 0.000000
# 5 0.000000 0.000000 0.000000 0.000000 0.100772 0.000000
# 6 0.000000 0.000000 0.000000 0.000000 0.000000 0.047400
#
#
# Mechanical properties :
#
#
# Convention : Reuss Voigt Hill
#
# Bulk Modulus (GPa) = 47.70356 47.99199 47.84777
# Shear Modulus (GPa) = 14.91895 17.59384 16.25639
#
# Velocity S-wave (km/s) = 3.12016 3.38835 3.25701
# Velocity P-wave (km/s) = 6.64150 6.82826 6.73553
#
# Compressibility (1/GPa) = 0.02096280
#
# Stress axis : x y z
#
# Youngs Moduli (GPa) = 58.86821 58.86821 62.05764
#
# Poissons Ratio (x) = 0.39517 0.24357
# Poissons Ratio (y) = 0.39517 0.24357
# Poissons Ratio (z) = 0.23106 0.23106
#
# Static dielectric constant tensor:
#      x y z
#    x 1.505580 0.000000 0.000000 
#    y 0.000000 1.505580 0.000000 
#    z 0.000000 0.000000 1.544500 
# 
# From -- ./inp_files/1790.got.cif
#   From: 2010.05.17/outbox.cif.g08.bks.cpg/sg191_1_cif.got.tgz:1790.got - 2010.05.20 12:20:32.
