data_PCOD9587659
_publ_section_title
;
Structure prediction by ZEFSAII (Michael W. Deem and Ramdas Pophale) SiO2 
 PCOD9587659
Probable space group: P 6/M M M
;
_chemical_formula_sum "Si O2"
_cell_formula_units_Z 108
_cell_length_a 32.125151
_cell_length_b 32.125151
_cell_length_c 7.852610
_cell_angle_alpha 90.000000
_cell_angle_beta 90.000000
_cell_angle_gamma 120.000000
_cell_volume 7018.349894
_symmetry_space_group_name_H-M "P 6/M M M"
_symmetry_group_IT_number 191
_symmetry_cell_setting 'hexagonal'
loop_
_space_group_symop_operation_xyz
x,y,z
x-y,x,z
-y,x-y,z
-x,-y,z
-x+y,-x,z
y,-x+y,z
x-y,-y,-z
-x,-x+y,-z
y,x,-z
-y,-x,-z
-x+y,y,-z
x,x-y,-z
-x,-y,-z
-x+y,-x,-z
y,-x+y,-z
x,y,-z
x-y,x,-z
-y,x-y,-z
-x+y,y,z
x,x-y,z
-y,-x,z
y,x,z
x-y,-y,z
-x,-x+y,z
loop_
_atom_site_type_symbol
_atom_site_label
_atom_site_fract_x
_atom_site_fract_y
_atom_site_fract_z
Si Si1 0.800968 0.500868 0.310714
Si Si2 0.798996 0.852851 0.705415
Si Si3 0.147689 0.392165 0.206566
Si Si4 0.766834 0.432767 0.000000
Si Si5 0.702886 0.945998 0.794767
O O1 0.807470 0.486906 0.500000
O O2 0.750670 0.501340 0.307097
O O3 0.840587 0.555800 0.271216
O O4 0.795102 0.463846 0.164942
O O5 0.802343 0.855457 0.500000
O O6 0.807120 0.903560 0.769867
O O7 0.835811 0.835811 0.768165
O O8 0.745865 0.809980 0.750112
O O9 0.192309 0.384617 0.257571
O O10 0.097304 0.347858 0.266180
O O11 0.147885 0.393630 0.000000
O O12 0.714084 0.428168 0.000000
O O13 0.761991 0.380996 0.000000
O O14 0.719937 0.000000 0.732013
O O15 0.700249 0.946747 0.000000
#
# Coordination Sequence:
#
# PCOD9587659 Si02
#       5
#    24  24  24  12  24
#     4   9  17  29  45  65  89 118 153 190 224 261
#     4   9  17  28  40  54  75 104 137 174 217 265
#     4   9  15  25  41  59  83 117 150 179 215 259
#     4  10  19  32  48  68  95 125 155 187 222 259
#     4   9  17  27  40  61  88 114 140 172 211 259
#
# _framework density 15.388232
#
# number of rings (size 3 to 8) (size 9 to 14) (size 15 to 20)
#    0.000    2.889    1.111    0.778    0.000    2.667 
#    0.000    2.222    0.000    1.556    0.000    1.556 
#    0.000    1.778    0.000    7.556    0.000    5.778 
#
# Total GULP energy -601713.045857 kJ/mol
# GULP energy per Si atom -5571.417091 kJ/mol
# Density = 1.535321 g / cm^3
# Si number density = 15.388232 Si / 1000 Ang^3
#
#
#
# Elastic Constant Matrix: (Units=GPa)
#
#
# Indices 1 2 3 4 5 6 
#
# 1 100.9592 50.8860 36.0481 0.0000 0.0000 0.0000
# 2 50.8860 100.9592 36.0481 0.0000 0.0000 0.0000
# 3 36.0481 36.0481 58.1901 0.0000 0.0000 0.0000
# 4 0.0000 0.0000 0.0000 -2.4360 0.0000 0.0000
# 5 0.0000 0.0000 0.0000 0.0000 -2.4360 0.0000
# 6 0.0000 0.0000 0.0000 0.0000 0.0000 25.0366
#
#
#
# Elastic Compliance Matrix: (Units=1/GPa)
#
#
# Indices 1 2 3 4 5 6 
#
# 1 0.014650 -0.005320 -0.005780 0.000000 0.000000 0.000000
# 2 -0.005320 0.014650 -0.005780 0.000000 0.000000 0.000000
# 3 -0.005780 -0.005780 0.024346 0.000000 0.000000 0.000000
# 4 0.000000 0.000000 0.000000 -0.410506 0.000000 0.000000
# 5 0.000000 0.000000 0.000000 0.000000 -0.410506 0.000000
# 6 0.000000 0.000000 0.000000 0.000000 0.000000 0.039941
#
#
# Mechanical properties :
#
#
# Convention : Reuss Voigt Hill
#
# Bulk Modulus (GPa) = 50.28465 56.23033 53.25749
# Shear Modulus (GPa) = -7.27765 13.17468 2.94851
#
# Velocity S-wave (km/s) = -2.17707 2.92918 1.38573
# Velocity P-wave (km/s) = 5.14089 6.93258 6.10284
#
# Compressibility (1/GPa) = 0.01988678
#
# Stress axis : x y z
#
# Youngs Moduli (GPa) = 68.25794 68.25794 41.07440
#
# Poissons Ratio (x) = 0.36316 0.23740
# Poissons Ratio (y) = 0.36316 0.23740
# Poissons Ratio (z) = 0.39452 0.39452
#
# Static dielectric constant tensor:
#      x y z
#    x 1.497820 0.000000 0.000000 
#    y 0.000000 1.497820 0.000000 
#    z 0.000000 0.000000 1.553970 
# 
# From -- ./inp_files/1718.got.cif
#   From: 2010.05.17/outbox.cif.g08.bks.cpg/sg191_1_cif.got.tgz:1718.got - 2010.05.20 12:20:32.
