data_PCOD9587836
_publ_section_title
;
Structure prediction by ZEFSAII (Michael W. Deem and Ramdas Pophale) SiO2 
 PCOD9587836
Probable space group: P 6/M M M
;
_chemical_formula_sum "Si O2"
_cell_formula_units_Z 124
_cell_length_a 30.460476
_cell_length_b 30.460476
_cell_length_c 7.728673
_cell_angle_alpha 90.000000
_cell_angle_beta 90.000000
_cell_angle_gamma 120.000000
_cell_volume 6210.247888
_symmetry_space_group_name_H-M "P 6/M M M"
_symmetry_group_IT_number 191
_symmetry_cell_setting 'hexagonal'
loop_
_space_group_symop_operation_xyz
x,y,z
x-y,x,z
-y,x-y,z
-x,-y,z
-x+y,-x,z
y,-x+y,z
x-y,-y,-z
-x,-x+y,-z
y,x,-z
-y,-x,-z
-x+y,y,-z
x,x-y,-z
-x,-y,-z
-x+y,-x,-z
y,-x+y,-z
x,y,-z
x-y,x,-z
-y,x-y,-z
-x+y,y,z
x,x-y,z
-y,-x,z
y,x,z
x-y,-y,z
-x,-x+y,z
loop_
_atom_site_type_symbol
_atom_site_label
_atom_site_fract_x
_atom_site_fract_y
_atom_site_fract_z
Si Si1 0.092637 0.288457 0.688802
Si Si2 0.274073 0.725928 0.211727
Si Si3 0.158732 0.213711 0.000000
Si Si4 0.666667 0.333334 0.789256
Si Si5 0.402590 0.943174 0.789272
Si Si6 0.365322 0.536046 0.790224
Si Si7 0.699261 0.642882 0.792726
O O1 0.072177 0.267497 0.500000
O O2 0.148687 0.297373 0.703336
O O3 0.061093 0.248827 0.836562
O O4 0.093913 0.341124 0.713613
O O5 0.303812 0.696189 0.262714
O O6 0.309561 0.784894 0.267663
O O7 0.273267 0.726734 0.000000
O O8 0.164925 0.164925 0.000000
O O9 0.101620 0.203239 0.000000
O O10 0.666667 0.333334 0.000000
O O11 0.392140 0.888096 0.729588
O O12 0.349593 0.940183 0.744350
O O13 0.446579 0.000000 0.732041
O O14 0.407903 0.944047 0.000000
O O15 0.405511 0.594490 0.752217
O O16 0.362291 0.530171 0.000000
O O17 0.686590 0.686590 0.744823
O O18 0.702923 0.641942 0.000000
#
# Coordination Sequence:
#
# PCOD9587836 Si02
#       7
#    24  12  12   4  24  24  24
#     4  10  20  32  48  73 102 131 167 209 251 297
#     4   9  14  20  30  44  66  93 131 178 231 288
#     4  10  20  34  52  75 104 134 167 209 255 301
#     4   9  12  18  30  42  57  96 129 171 229 284
#     4   8  15  26  37  52  76 108 149 195 239 285
#     4   9  15  22  33  49  71 102 143 189 238 295
#     4   9  16  28  45  62  86 122 160 197 238 285
#
# _framework density 19.966996000000002
#
# number of rings (size 3 to 8) (size 9 to 14) (size 15 to 20)
#    0.000    2.903    1.935    1.742    0.000    1.935 
#    1.742    1.935    0.000    0.097    0.000    0.000 
#    0.000    0.774    0.000    9.097    0.000    4.258 
#
# Total GULP energy -690576.489670 kJ/mol
# GULP energy per Si atom -5569.165239 kJ/mol
# Density = 1.992155 g / cm^3
# Si number density = 19.966996 Si / 1000 Ang^3
#
#
#
# Elastic Constant Matrix: (Units=GPa)
#
#
# Indices 1 2 3 4 5 6 
#
# 1 90.2202 64.9502 18.0538 0.0000 0.0000 0.0000
# 2 64.9502 90.2204 18.0538 0.0000 0.0000 0.0000
# 3 18.0538 18.0538 42.7206 0.0000 0.0000 0.0000
# 4 0.0000 0.0000 0.0000 -9.9549 0.0000 0.0000
# 5 0.0000 0.0000 0.0000 0.0000 -9.9546 0.0000
# 6 0.0000 0.0000 0.0000 0.0000 0.0000 12.6351
#
#
#
# Elastic Compliance Matrix: (Units=1/GPa)
#
#
# Indices 1 2 3 4 5 6 
#
# 1 0.023360 -0.016212 -0.003021 0.000000 0.000000 0.000000
# 2 -0.016212 0.023360 -0.003020 0.000000 0.000000 0.000000
# 3 -0.003021 -0.003020 0.025961 0.000000 0.000000 0.000000
# 4 0.000000 0.000000 0.000000 -0.100453 0.000000 0.000000
# 5 0.000000 0.000000 0.000000 0.000000 -0.100456 0.000000
# 6 0.000000 0.000000 0.000000 0.000000 0.000000 0.079145
#
#
# Mechanical properties :
#
#
# Convention : Reuss Voigt Hill
#
# Bulk Modulus (GPa) = 35.49416 47.25295 41.37356
# Shear Modulus (GPa) = 1038.58156 6.68535 522.63345
#
# Velocity S-wave (km/s) = 22.83152 1.83179 16.19620
# Velocity P-wave (km/s) = 26.69930 5.30951 19.24894
#
# Compressibility (1/GPa) = 0.02817365
#
# Stress axis : x y z
#
# Youngs Moduli (GPa) = 42.80839 42.80849 38.51954
#
# Poissons Ratio (x) = 0.69403 0.11635
# Poissons Ratio (y) = 0.69403 0.11635
# Poissons Ratio (z) = 0.12930 0.12930
#
# Static dielectric constant tensor:
#      x y z
#    x 1.717590 0.000000 0.000000 
#    y 0.000000 1.717580 0.000000 
#    z 0.000000 0.000000 1.723200 
# 
# From -- ./inp_files/1895.got.cif
#   From: 2010.05.17/outbox.cif.g08.bks.cpg/sg191_1_cif.got.tgz:1895.got - 2010.05.20 12:20:32.
