data_PCOD9587322
_publ_section_title
;
Structure prediction by ZEFSAII (Michael W. Deem and Ramdas Pophale) SiO2 
 PCOD9587322
Probable space group: P 6/M M M
;
_chemical_formula_sum "Si O2"
_cell_formula_units_Z 72
_cell_length_a 18.104268
_cell_length_b 18.104268
_cell_length_c 14.662810
_cell_angle_alpha 90.000000
_cell_angle_beta 90.000000
_cell_angle_gamma 120.000000
_cell_volume 4162.073818
_symmetry_space_group_name_H-M "P 6/M M M"
_symmetry_group_IT_number 191
_symmetry_cell_setting 'hexagonal'
loop_
_space_group_symop_operation_xyz
x,y,z
x-y,x,z
-y,x-y,z
-x,-y,z
-x+y,-x,z
y,-x+y,z
x-y,-y,-z
-x,-x+y,-z
y,x,-z
-y,-x,-z
-x+y,y,-z
x,x-y,-z
-x,-y,-z
-x+y,-x,-z
y,-x+y,-z
x,y,-z
x-y,x,-z
-y,x-y,-z
-x+y,y,z
x,x-y,z
-y,-x,z
y,x,z
x-y,-y,z
-x,-x+y,z
loop_
_atom_site_type_symbol
_atom_site_label
_atom_site_fract_x
_atom_site_fract_y
_atom_site_fract_z
Si Si1 0.504058 0.838720 0.500000
Si Si2 0.099097 0.467522 0.297892
Si Si3 0.796158 0.898079 0.391992
Si Si4 0.822834 0.645667 0.244399
Si Si5 0.099895 0.900106 0.890550
O O1 0.403310 0.806619 0.500000
O O2 0.519688 0.759844 0.500000
O O3 0.539063 0.890403 0.593178
O O4 0.135819 0.567910 0.277678
O O5 0.139009 0.417136 0.249494
O O6 0.000000 0.419676 0.275773
O O7 0.851751 0.851751 0.373880
O O8 0.774931 0.887466 0.500000
O O9 0.711270 0.855635 0.330568
O O10 0.854706 0.709411 0.159023
O O11 0.000000 0.853079 0.864629
O O12 0.104396 0.895605 0.000000
#
# Coordination Sequence:
#
# PCOD9587322 Si02
#       5
#    12  24  12  12  12
#     4  10  18  31  47  70  97 137 182 227 272 321
#     4  10  21  35  50  71 103 140 180 227 281 331
#     4  10  21  34  50  74 110 152 190 227 270 329
#     4  12  22  36  55  82 106 144 189 234 276 330
#     4  10  21  38  62  92 124 154 184 223 272 329
#
# _framework density 17.299068999999999
#
# number of rings (size 3 to 8) (size 9 to 14) (size 15 to 20)
#    0.000    1.667    1.667    4.000    2.333    3.333 
#    1.000    1.667    0.000    1.000    0.000    4.667 
#    0.000    0.000    0.000    0.000    0.000    0.000 
#
# Total GULP energy -401807.348948 kJ/mol
# GULP energy per Si atom -5580.657624 kJ/mol
# Density = 1.725970 g / cm^3
# Si number density = 17.299069 Si / 1000 Ang^3
#
#
#
# Elastic Constant Matrix: (Units=GPa)
#
#
# Indices 1 2 3 4 5 6 
#
# 1 123.1879 64.7336 30.9368 0.0000 0.0000 0.0000
# 2 64.7336 123.1879 30.9368 0.0000 0.0000 0.0000
# 3 30.9368 30.9368 45.2324 0.0000 0.0000 0.0000
# 4 0.0000 0.0000 0.0000 129.1751 0.0000 0.0000
# 5 0.0000 0.0000 0.0000 0.0000 129.1751 0.0000
# 6 0.0000 0.0000 0.0000 0.0000 0.0000 29.2272
#
#
#
# Elastic Compliance Matrix: (Units=1/GPa)
#
#
# Indices 1 2 3 4 5 6 
#
# 1 0.011988 -0.005120 -0.004697 0.000000 0.000000 0.000000
# 2 -0.005120 0.011988 -0.004697 0.000000 0.000000 0.000000
# 3 -0.004697 -0.004697 0.028534 0.000000 0.000000 0.000000
# 4 0.000000 0.000000 0.000000 0.007741 0.000000 0.000000
# 5 0.000000 0.000000 0.000000 0.000000 0.007741 0.000000
# 6 0.000000 0.000000 0.000000 0.000000 0.000000 0.034215
#
#
# Mechanical properties :
#
#
# Convention : Reuss Voigt Hill
#
# Bulk Modulus (GPa) = 42.58929 60.53584 51.56257
# Shear Modulus (GPa) = 35.95517 68.51555 52.23536
#
# Velocity S-wave (km/s) = 4.56394 6.30020 5.50100
# Velocity P-wave (km/s) = 7.24194 9.38046 8.37970
#
# Compressibility (1/GPa) = 0.02348008
#
# Stress axis : x y z
#
# Youngs Moduli (GPa) = 83.41901 83.41901 35.04642
#
# Poissons Ratio (x) = 0.42708 0.16463
# Poissons Ratio (y) = 0.42708 0.16463
# Poissons Ratio (z) = 0.39185 0.39185
#
# Static dielectric constant tensor:
#      x y z
#    x 1.588620 0.000000 0.000000 
#    y 0.000000 1.588620 0.000000 
#    z 0.000000 0.000000 1.582750 
# 
# From -- ./inp_files/3964.got.cif
#   From: 2010.05.17/outbox.cif.g08.bks.cpg/sg191_2_cif.got.tgz:3964.got - 2010.05.20 12:20:32.
