data_PCOD9587531
_publ_section_title
;
Structure prediction by ZEFSAII (Michael W. Deem and Ramdas Pophale) SiO2 
 PCOD9587531
Probable space group: P 6/M M M
;
_chemical_formula_sum "Si O2"
_cell_formula_units_Z 108
_cell_length_a 17.937989
_cell_length_b 17.937989
_cell_length_c 23.808899
_cell_angle_alpha 90.000000
_cell_angle_beta 90.000000
_cell_angle_gamma 120.000000
_cell_volume 6634.641350
_symmetry_space_group_name_H-M "P 6/M M M"
_symmetry_group_IT_number 191
_symmetry_cell_setting 'hexagonal'
loop_
_space_group_symop_operation_xyz
x,y,z
x-y,x,z
-y,x-y,z
-x,-y,z
-x+y,-x,z
y,-x+y,z
x-y,-y,-z
-x,-x+y,-z
y,x,-z
-y,-x,-z
-x+y,y,-z
x,x-y,-z
-x,-y,-z
-x+y,-x,-z
y,-x+y,-z
x,y,-z
x-y,x,-z
-y,x-y,-z
-x+y,y,z
x,x-y,z
-y,-x,z
y,x,z
x-y,-y,z
-x,-x+y,z
loop_
_atom_site_type_symbol
_atom_site_label
_atom_site_fract_x
_atom_site_fract_y
_atom_site_fract_z
Si Si1 0.103794 0.636378 0.000000
Si Si2 0.467564 0.363711 0.778924
Si Si3 0.637114 0.532788 0.562873
Si Si4 0.897429 0.632212 0.329305
Si Si5 0.102951 0.371186 0.889494
O O1 0.124569 0.692836 0.055909
O O2 0.138572 0.569286 0.000000
O O3 0.000000 0.578504 0.000000
O O4 0.569300 0.430700 0.779869
O O5 0.421446 0.421446 0.778614
O O6 0.433306 0.307903 0.722685
O O7 0.430769 0.306544 0.834455
O O8 0.673261 0.540523 0.500000
O O9 0.566961 0.433040 0.573755
O O10 0.582283 0.582283 0.561686
O O11 0.702390 0.577603 0.613320
O O12 0.837058 0.674116 0.325294
O O13 0.000000 0.698173 0.327822
O O14 0.165651 0.331301 0.889723
O O15 0.000000 0.303699 0.889681
#
# Coordination Sequence:
#
# PCOD9587531 Si02
#       5
#    12  24  24  24  24
#     4   9  17  30  49  70  90 116 152 193 237 286
#     4   9  17  30  49  70  89 112 145 185 230 281
#     4   8  14  26  45  67  88 111 142 181 226 277
#     4  10  19  30  46  68  93 122 158 198 235 272
#     4  10  19  31  49  72  97 127 164 202 236 273
#
# _framework density 16.278198
#
# number of rings (size 3 to 8) (size 9 to 14) (size 15 to 20)
#    0.000    2.778    0.000    3.000    0.000    5.778 
#    0.000    0.000    0.000   15.556    0.000    0.000 
#    0.000    8.000    0.000    5.556    0.000    0.889 
#
# Total GULP energy -601266.118912 kJ/mol
# GULP energy per Si atom -5567.278879 kJ/mol
# Density = 1.624115 g / cm^3
# Si number density = 16.278198 Si / 1000 Ang^3
#
#
#
# Elastic Constant Matrix: (Units=GPa)
#
#
# Indices 1 2 3 4 5 6 
#
# 1 80.0525 47.1101 40.7396 0.0000 0.0000 0.0000
# 2 47.1101 80.0525 40.7396 0.0000 0.0000 0.0000
# 3 40.7396 40.7396 126.3190 0.0000 0.0000 0.0000
# 4 0.0000 0.0000 0.0000 -41.3071 0.0000 0.0000
# 5 0.0000 0.0000 0.0000 0.0000 -41.3071 0.0000
# 6 0.0000 0.0000 0.0000 0.0000 0.0000 16.4712
#
#
#
# Elastic Compliance Matrix: (Units=1/GPa)
#
#
# Indices 1 2 3 4 5 6 
#
# 1 0.020134 -0.010222 -0.003197 0.000000 0.000000 0.000000
# 2 -0.010222 0.020134 -0.003197 0.000000 0.000000 0.000000
# 3 -0.003197 -0.003197 0.009979 0.000000 0.000000 0.000000
# 4 0.000000 0.000000 0.000000 -0.024209 0.000000 0.000000
# 5 0.000000 0.000000 0.000000 0.000000 -0.024209 0.000000
# 6 0.000000 0.000000 0.000000 0.000000 0.000000 0.060712
#
#
# Mechanical properties :
#
#
# Convention : Reuss Voigt Hill
#
# Bulk Modulus (GPa) = 58.76910 60.40028 59.58469
# Shear Modulus (GPa) = 49.28809 -2.70629 23.29090
#
# Velocity S-wave (km/s) = 5.50857 -1.29079 3.78670
# Velocity P-wave (km/s) = 8.75445 5.91304 7.47009
#
# Compressibility (1/GPa) = 0.01701574
#
# Stress axis : x y z
#
# Youngs Moduli (GPa) = 49.66671 49.66671 100.21520
#
# Poissons Ratio (x) = 0.50769 0.32037
# Poissons Ratio (y) = 0.50769 0.32037
# Poissons Ratio (z) = 0.15878 0.15878
#
# Static dielectric constant tensor:
#      x y z
#    x 1.542230 0.000000 0.000000 
#    y 0.000000 1.542230 0.000000 
#    z 0.000000 0.000000 1.559190 
# 
# From -- ./inp_files/7317.got.cif
#   From: 2010.05.17/outbox.cif.g08.bks.cpg/sg191_4_cif.got.tgz:7317.got - 2010.05.20 12:20:32.
