data_PCOD9587205
_publ_section_title
;
Structure prediction by ZEFSAII (Michael W. Deem and Ramdas Pophale) SiO2 
 PCOD9587205
Probable space group: P 6/M M M
;
_chemical_formula_sum "Si O2"
_cell_formula_units_Z 96
_cell_length_a 18.410520
_cell_length_b 18.410520
_cell_length_c 22.696714
_cell_angle_alpha 90.000000
_cell_angle_beta 90.000000
_cell_angle_gamma 120.000000
_cell_volume 6662.323661
_symmetry_space_group_name_H-M "P 6/M M M"
_symmetry_group_IT_number 191
_symmetry_cell_setting 'hexagonal'
loop_
_space_group_symop_operation_xyz
x,y,z
x-y,x,z
-y,x-y,z
-x,-y,z
-x+y,-x,z
y,-x+y,z
x-y,-y,-z
-x,-x+y,-z
y,x,-z
-y,-x,-z
-x+y,y,-z
x,x-y,-z
-x,-y,-z
-x+y,-x,-z
y,-x+y,-z
x,y,-z
x-y,x,-z
-y,x-y,-z
-x+y,y,z
x,x-y,z
-y,-x,z
y,x,z
x-y,-y,z
-x,-x+y,z
loop_
_atom_site_type_symbol
_atom_site_label
_atom_site_fract_x
_atom_site_fract_y
_atom_site_fract_z
Si Si1 0.637971 0.733805 0.000000
Si Si2 0.668466 0.503240 0.102017
Si Si3 0.588140 0.588140 0.567455
Si Si4 0.904225 0.364240 0.769923
Si Si5 0.163650 0.669569 0.357634
O O1 0.577739 0.690970 0.056348
O O2 0.711842 0.711842 0.000000
O O3 0.663282 0.831641 0.000000
O O4 0.737493 0.474986 0.092771
O O5 0.575329 0.424671 0.093385
O O6 0.676216 0.536263 0.168735
O O7 0.500000 0.500000 0.566819
O O8 0.613433 0.613433 0.500000
O O9 0.566882 0.650817 0.602576
O O10 0.907705 0.453853 0.768608
O O11 0.857422 0.320423 0.709995
O O12 0.000000 0.385344 0.769198
O O13 0.173147 0.586574 0.360370
O O14 0.248956 0.751045 0.376306
#
# Coordination Sequence:
#
# PCOD9587205 Si02
#       5
#    12  24  12  24  24
#     4  10  21  35  49  66  87 115 150 190 235 281
#     4  10  19  29  43  64  93 126 159 191 221 253
#     4   9  18  32  46  60  84 115 144 178 222 267
#     4   9  16  27  42  60  84 117 153 188 224 260
#     4  10  18  29  45  65  88 115 150 188 224 263
#
# _framework density 14.409387000000001
#
# number of rings (size 3 to 8) (size 9 to 14) (size 15 to 20)
#    0.000    2.375    1.250    2.375    0.000    2.500 
#    0.000    3.750    0.000    1.625    0.000    0.000 
#    0.000    0.000    0.000    0.375    0.000    1.875 
#
# Total GULP energy -534961.478293 kJ/mol
# GULP energy per Si atom -5572.515399 kJ/mol
# Density = 1.437659 g / cm^3
# Si number density = 14.409387 Si / 1000 Ang^3
#
#
#
# Elastic Constant Matrix: (Units=GPa)
#
#
# Indices 1 2 3 4 5 6 
#
# 1 73.9346 45.6022 35.9549 0.0000 0.0000 0.0000
# 2 45.6022 73.9346 35.9549 0.0000 0.0000 0.0000
# 3 35.9549 35.9549 105.0655 0.0000 0.0000 0.0000
# 4 0.0000 0.0000 0.0000 10.9873 0.0000 0.0000
# 5 0.0000 0.0000 0.0000 0.0000 10.9873 0.0000
# 6 0.0000 0.0000 0.0000 0.0000 0.0000 14.1662
#
#
#
# Elastic Compliance Matrix: (Units=1/GPa)
#
#
# Indices 1 2 3 4 5 6 
#
# 1 0.022915 -0.012381 -0.003605 0.000000 0.000000 0.000000
# 2 -0.012381 0.022915 -0.003605 0.000000 0.000000 0.000000
# 3 -0.003605 -0.003605 0.011985 0.000000 0.000000 0.000000
# 4 0.000000 0.000000 0.000000 0.091014 0.000000 0.000000
# 5 0.000000 0.000000 0.000000 0.000000 0.091014 0.000000
# 6 0.000000 0.000000 0.000000 0.000000 0.000000 0.070591
#
#
# Mechanical properties :
#
#
# Convention : Reuss Voigt Hill
#
# Bulk Modulus (GPa) = 53.66573 54.21761 53.94167
# Shear Modulus (GPa) = 14.05184 16.25636 15.15410
#
# Velocity S-wave (km/s) = 3.12619 3.36248 3.24648
# Velocity P-wave (km/s) = 7.09614 7.26521 7.18117
#
# Compressibility (1/GPa) = 0.01863387
#
# Stress axis : x y z
#
# Youngs Moduli (GPa) = 43.63996 43.63996 83.43614
#
# Poissons Ratio (x) = 0.54028 0.30079
# Poissons Ratio (y) = 0.54028 0.30079
# Poissons Ratio (z) = 0.15732 0.15732
#
# Static dielectric constant tensor:
#      x y z
#    x 1.462140 0.000000 0.000000 
#    y 0.000000 1.462140 0.000000 
#    z 0.000000 0.000000 1.494800 
# 
# From -- ./inp_files/7196.got.cif
#   From: 2010.05.17/outbox.cif.g08.bks.cpg/sg191_4_cif.got.tgz:7196.got - 2010.05.20 12:20:32.
