data_PCOD9587744
_publ_section_title
;
Structure prediction by ZEFSAII (Michael W. Deem and Ramdas Pophale) SiO2 
 PCOD9587744
Probable space group: P 6/M M M
;
_chemical_formula_sum "Si O2"
_cell_formula_units_Z 120
_cell_length_a 17.778378
_cell_length_b 17.778378
_cell_length_c 27.855733
_cell_angle_alpha 90.000000
_cell_angle_beta 90.000000
_cell_angle_gamma 120.000000
_cell_volume 7624.818222
_symmetry_space_group_name_H-M "P 6/M M M"
_symmetry_group_IT_number 191
_symmetry_cell_setting 'hexagonal'
loop_
_space_group_symop_operation_xyz
x,y,z
x-y,x,z
-y,x-y,z
-x,-y,z
-x+y,-x,z
y,-x+y,z
x-y,-y,-z
-x,-x+y,-z
y,x,-z
-y,-x,-z
-x+y,y,-z
x,x-y,-z
-x,-y,-z
-x+y,-x,-z
y,-x+y,-z
x,y,-z
x-y,x,-z
-y,x-y,-z
-x+y,y,z
x,x-y,z
-y,-x,z
y,x,z
x-y,-y,z
-x,-x+y,z
loop_
_atom_site_type_symbol
_atom_site_label
_atom_site_fract_x
_atom_site_fract_y
_atom_site_fract_z
Si Si1 0.511231 0.844849 0.141340
Si Si2 0.483165 0.149067 0.500000
Si Si3 0.268734 0.364017 0.053472
Si Si4 0.000000 0.409394 0.319970
Si Si5 0.154264 0.486762 0.750844
Si Si6 0.352504 0.000000 0.571867
Si Si7 0.173450 0.173450 0.557969
O O1 0.423238 0.846475 0.136165
O O2 0.492666 0.746333 0.139705
O O3 0.573059 0.893639 0.097015
O O4 0.546698 0.878146 0.194914
O O5 0.580957 0.161914 0.500000
O O6 0.484119 0.242060 0.500000
O O7 0.427438 0.086284 0.544622
O O8 0.170352 0.340703 0.058486
O O9 0.282495 0.282495 0.055585
O O10 0.298685 0.404239 0.000000
O O11 0.915619 0.345585 0.289001
O O12 0.000000 0.500000 0.323233
O O13 0.000000 0.377172 0.373135
O O14 0.245193 0.490386 0.743650
O O15 0.167298 0.583649 0.748833
O O16 0.261973 0.000000 0.569096
O O17 0.087531 0.175061 0.574934
O O18 0.168545 0.168545 0.500000
#
# Coordination Sequence:
#
# PCOD9587744 Si02
#       7
#    24  12  24  12  24  12  12
#     4   9  17  29  46  67  93 126 163 201 239 282
#     4  11  22  37  56  78 104 137 174 209 244 290
#     4   9  18  31  46  66  93 124 157 194 242 296
#     4  10  21  35  50  73  99 128 165 206 250 289
#     4   9  18  32  50  70  94 126 165 207 249 290
#     4  11  21  36  56  76 106 138 168 203 251 301
#     4  10  19  33  54  82 109 134 163 197 236 284
#
# _framework density 15.73808
#
# number of rings (size 3 to 8) (size 9 to 14) (size 15 to 20)
#    0.000    2.400    1.000    2.400    1.400    4.400 
#    0.000    1.000    0.000    3.800    0.000    1.400 
#    0.000    0.000    0.000    0.000    0.000    0.000 
#
# Total GULP energy -668361.055537 kJ/mol
# GULP energy per Si atom -5569.675463 kJ/mol
# Density = 1.570226 g / cm^3
# Si number density = 15.738080 Si / 1000 Ang^3
#
#
#
# Elastic Constant Matrix: (Units=GPa)
#
#
# Indices 1 2 3 4 5 6 
#
# 1 80.3802 64.8199 60.1155 0.0000 0.0000 0.0000
# 2 64.8199 80.3802 60.1155 0.0000 0.0000 0.0000
# 3 60.1155 60.1155 139.5134 0.0000 0.0000 0.0000
# 4 0.0000 0.0000 0.0000 19.1116 0.0000 0.0000
# 5 0.0000 0.0000 0.0000 0.0000 19.1116 0.0000
# 6 0.0000 0.0000 0.0000 0.0000 0.0000 7.7801
#
#
#
# Elastic Compliance Matrix: (Units=1/GPa)
#
#
# Indices 1 2 3 4 5 6 
#
# 1 0.037487 -0.026779 -0.004614 0.000000 0.000000 0.000000
# 2 -0.026779 0.037487 -0.004614 0.000000 0.000000 0.000000
# 3 -0.004614 -0.004614 0.011144 0.000000 0.000000 0.000000
# 4 0.000000 0.000000 0.000000 0.052324 0.000000 0.000000
# 5 0.000000 0.000000 0.000000 0.000000 0.052324 0.000000
# 6 0.000000 0.000000 0.000000 0.000000 0.000000 0.128532
#
#
# Mechanical properties :
#
#
# Convention : Reuss Voigt Hill
#
# Bulk Modulus (GPa) = 70.90368 74.48615 72.69491
# Shear Modulus (GPa) = 12.62584 16.88220 14.75402
#
# Velocity S-wave (km/s) = 2.83547 3.27876 3.06514
# Velocity P-wave (km/s) = 7.47462 7.85907 7.66926
#
# Compressibility (1/GPa) = 0.01410364
#
# Stress axis : x y z
#
# Youngs Moduli (GPa) = 26.67604 26.67604 89.73561
#
# Poissons Ratio (x) = 0.71437 0.41402
# Poissons Ratio (y) = 0.71437 0.41402
# Poissons Ratio (z) = 0.12308 0.12308
#
# Static dielectric constant tensor:
#      x y z
#    x 1.513650 0.000000 0.000000 
#    y 0.000000 1.513650 0.000000 
#    z 0.000000 0.000000 1.539580 
# 
# From -- ./inp_files/9683.got.cif
#   From: 2010.05.17/outbox.cif.g08.bks.cpg/sg191_5_cif.got.tgz:9683.got - 2010.05.20 12:20:32.
