data_PCOD9587218
_publ_section_title
;
Structure prediction by ZEFSAII (Michael W. Deem and Ramdas Pophale) SiO2 
 PCOD9587218
Probable space group: P 6/M M M
;
_chemical_formula_sum "Si O2"
_cell_formula_units_Z 132
_cell_length_a 18.476560
_cell_length_b 18.476560
_cell_length_c 30.370993
_cell_angle_alpha 90.000000
_cell_angle_beta 90.000000
_cell_angle_gamma 120.000000
_cell_volume 8979.080326
_symmetry_space_group_name_H-M "P 6/M M M"
_symmetry_group_IT_number 191
_symmetry_cell_setting 'hexagonal'
loop_
_space_group_symop_operation_xyz
x,y,z
x-y,x,z
-y,x-y,z
-x,-y,z
-x+y,-x,z
y,-x+y,z
x-y,-y,-z
-x,-x+y,-z
y,x,-z
-y,-x,-z
-x+y,y,-z
x,x-y,-z
-x,-y,-z
-x+y,-x,-z
y,-x+y,-z
x,y,-z
x-y,x,-z
-y,x-y,-z
-x+y,y,z
x,x-y,z
-y,-x,z
y,x,z
x-y,-y,z
-x,-x+y,z
loop_
_atom_site_type_symbol
_atom_site_label
_atom_site_fract_x
_atom_site_fract_y
_atom_site_fract_z
Si Si1 0.164589 0.496119 0.104028
Si Si2 0.532357 0.632000 0.798210
Si Si3 0.538929 0.902556 0.548134
Si Si4 0.833315 0.331154 0.357462
Si Si5 0.412048 0.000000 0.949331
Si Si6 0.639298 0.736434 0.716823
O O1 0.247105 0.494209 0.091418
O O2 0.176456 0.588228 0.097189
O O3 0.145344 0.476206 0.155842
O O4 0.083550 0.431830 0.076424
O O5 0.439520 0.560480 0.783494
O O6 0.582941 0.582941 0.807111
O O7 0.582317 0.698242 0.760419
O O8 0.548346 0.871371 0.500000
O O9 0.450133 0.900266 0.547111
O O10 0.535234 0.854934 0.592413
O O11 0.608500 0.000000 0.552029
O O12 0.849416 0.424708 0.352174
O O13 0.736807 0.263194 0.348894
O O14 0.887147 0.310099 0.323973
O O15 0.500000 0.000000 0.948814
O O16 0.388449 0.000000 0.000000
O O17 0.668456 0.834228 0.713763
O O18 0.710389 0.710389 0.717860
#
# Coordination Sequence:
#
# PCOD9587218 Si02
#       6
#    24  24  24  24  12  24
#     4  10  18  29  45  66  90 118 153 191 226 262
#     4   9  16  28  46  67  91 120 150 176 207 252
#     4   8  14  25  40  55  72 101 145 191 227 258
#     4  10  19  29  41  60  87 118 150 184 221 260
#     4   9  18  32  46  60  84 118 151 185 228 270
#     4  10  20  32  47  67  89 114 144 179 219 263
#
# _framework density 14.700837999999999
#
# number of rings (size 3 to 8) (size 9 to 14) (size 15 to 20)
#    0.000    2.636    0.909    2.545    0.000    2.545 
#    0.000    0.000    0.000    8.182    0.000    0.000 
#    0.000    0.000    0.000    0.273    0.000    1.182 
#
# Total GULP energy -735258.850704 kJ/mol
# GULP energy per Si atom -5570.142808 kJ/mol
# Density = 1.466738 g / cm^3
# Si number density = 14.700838 Si / 1000 Ang^3
#
#
#
# Elastic Constant Matrix: (Units=GPa)
#
#
# Indices 1 2 3 4 5 6 
#
# 1 75.6667 43.2965 39.8059 0.0000 0.0000 0.0000
# 2 43.2965 75.6667 39.8059 0.0000 0.0000 0.0000
# 3 39.8059 39.8059 80.2105 0.0000 0.0000 0.0000
# 4 0.0000 0.0000 0.0000 7.9963 0.0000 0.0000
# 5 0.0000 0.0000 0.0000 0.0000 7.9963 0.0000
# 6 0.0000 0.0000 0.0000 0.0000 0.0000 16.1851
#
#
#
# Elastic Compliance Matrix: (Units=1/GPa)
#
#
# Indices 1 2 3 4 5 6 
#
# 1 0.021739 -0.009153 -0.006246 0.000000 0.000000 0.000000
# 2 -0.009153 0.021739 -0.006246 0.000000 0.000000 0.000000
# 3 -0.006246 -0.006246 0.018667 0.000000 0.000000 0.000000
# 4 0.000000 0.000000 0.000000 0.125057 0.000000 0.000000
# 5 0.000000 0.000000 0.000000 0.000000 0.125057 0.000000
# 6 0.000000 0.000000 0.000000 0.000000 0.000000 0.061785
#
#
# Mechanical properties :
#
#
# Convention : Reuss Voigt Hill
#
# Bulk Modulus (GPa) = 53.03801 53.04006 53.03903
# Shear Modulus (GPa) = 11.80302 13.67792 12.74047
#
# Velocity S-wave (km/s) = 2.83659 3.05358 2.94708
# Velocity P-wave (km/s) = 6.84725 6.97068 6.90924
#
# Compressibility (1/GPa) = 0.01885440
#
# Stress axis : x y z
#
# Youngs Moduli (GPa) = 45.99980 45.99980 53.57183
#
# Poissons Ratio (x) = 0.42105 0.33461
# Poissons Ratio (y) = 0.42105 0.33461
# Poissons Ratio (z) = 0.28731 0.28731
#
# Static dielectric constant tensor:
#      x y z
#    x 1.475440 0.000000 0.000000 
#    y 0.000000 1.475440 0.000000 
#    z 0.000000 0.000000 1.507510 
# 
# From -- ./inp_files/10390.got.cif
#   From: 2010.05.17/outbox.cif.g08.bks.cpg/sg191_6_cif.got.tgz:10390.got - 2010.05.20 12:20:32.
