data_PCOD9587142
_publ_section_title
;
Structure prediction by ZEFSAII (Michael W. Deem and Ramdas Pophale) SiO2 
 PCOD9587142
Probable space group: P 6/M M M
;
_chemical_formula_sum "Si O2"
_cell_formula_units_Z 156
_cell_length_a 19.850862
_cell_length_b 19.850862
_cell_length_c 29.117474
_cell_angle_alpha 90.000000
_cell_angle_beta 90.000000
_cell_angle_gamma 120.000000
_cell_volume 9936.720370
_symmetry_space_group_name_H-M "P 6/M M M"
_symmetry_group_IT_number 191
_symmetry_cell_setting 'hexagonal'
loop_
_space_group_symop_operation_xyz
x,y,z
x-y,x,z
-y,x-y,z
-x,-y,z
-x+y,-x,z
y,-x+y,z
x-y,-y,-z
-x,-x+y,-z
y,x,-z
-y,-x,-z
-x+y,y,-z
x,x-y,-z
-x,-y,-z
-x+y,-x,-z
y,-x+y,-z
x,y,-z
x-y,x,-z
-y,x-y,-z
-x+y,y,z
x,x-y,z
-y,-x,z
y,x,z
x-y,-y,z
-x,-x+y,z
loop_
_atom_site_type_symbol
_atom_site_label
_atom_site_fract_x
_atom_site_fract_y
_atom_site_fract_z
Si Si1 0.456084 0.543916 0.555688
Si Si2 0.529435 0.622627 0.888650
Si Si3 0.287074 0.417940 0.552302
Si Si4 0.471728 0.378421 0.694799
Si Si5 0.243432 0.911136 0.643327
Si Si6 0.909660 0.244682 0.944776
Si Si7 0.334383 0.511053 0.791542
O O1 0.500000 0.500000 0.573619
O O2 0.457033 0.542968 0.500000
O O3 0.366979 0.491900 0.568418
O O4 0.441807 0.558194 0.904186
O O5 0.575387 0.575387 0.883786
O O6 0.582264 0.693879 0.922234
O O7 0.522707 0.653549 0.838928
O O8 0.297457 0.397511 0.500000
O O9 0.219743 0.439486 0.551366
O O10 0.260282 0.349800 0.589045
O O11 0.560215 0.439786 0.678680
O O12 0.426465 0.426465 0.693516
O O13 0.416128 0.300403 0.666823
O O14 0.477956 0.355604 0.746950
O O15 0.154442 0.845559 0.652590
O O16 0.272128 0.000000 0.657500
O O17 0.843100 0.156901 0.931872
O O18 0.000000 0.273459 0.931875
O O19 0.908284 0.250306 0.000000
O O20 0.248386 0.496771 0.787880
O O21 0.397216 0.602785 0.792354
#
# Coordination Sequence:
#
# PCOD9587142 Si02
#       7
#    12  24  24  24  24  24  24
#     4   9  16  26  42  62  82 110 146 178 208 246
#     4   9  17  28  43  63  86 114 148 186 226 266
#     4   9  18  31  45  65  91 117 148 183 219 258
#     4   9  18  31  47  66  88 116 147 180 219 262
#     4  10  20  33  50  70  92 117 148 185 225 269
#     4   9  17  29  45  65  89 117 150 188 230 275
#     4  10  18  28  42  60  85 115 148 182 216 256
#
# _framework density 15.699344999999999
#
# number of rings (size 3 to 8) (size 9 to 14) (size 15 to 20)
#    0.000    2.692    0.000    2.000    1.077    3.077 
#    0.462    1.538    0.000    0.923    0.000    1.077 
#    0.000    0.000    0.000    3.846    0.000   32.000 
#
# Total GULP energy -868462.383438 kJ/mol
# GULP energy per Si atom -5567.066561 kJ/mol
# Density = 1.566361 g / cm^3
# Si number density = 15.699345 Si / 1000 Ang^3
#
#
#
# Elastic Constant Matrix: (Units=GPa)
#
#
# Indices 1 2 3 4 5 6 
#
# 1 71.8376 46.6473 20.4535 0.0000 0.0000 0.0000
# 2 46.6473 71.8376 20.4535 0.0000 0.0000 0.0000
# 3 20.4535 20.4535 39.2919 0.0000 0.0000 0.0000
# 4 0.0000 0.0000 0.0000 16.7436 0.0000 0.0000
# 5 0.0000 0.0000 0.0000 0.0000 16.7436 0.0000
# 6 0.0000 0.0000 0.0000 0.0000 0.0000 12.5952
#
#
#
# Elastic Compliance Matrix: (Units=1/GPa)
#
#
# Indices 1 2 3 4 5 6 
#
# 1 0.024993 -0.014704 -0.005356 0.000000 0.000000 0.000000
# 2 -0.014704 0.024993 -0.005356 0.000000 0.000000 0.000000
# 3 -0.005356 -0.005356 0.031027 0.000000 0.000000 0.000000
# 4 0.000000 0.000000 0.000000 0.059724 0.000000 0.000000
# 5 0.000000 0.000000 0.000000 0.000000 0.059724 0.000000
# 6 0.000000 0.000000 0.000000 0.000000 0.000000 0.079395
#
#
# Mechanical properties :
#
#
# Convention : Reuss Voigt Hill
#
# Bulk Modulus (GPa) = 33.13365 39.78621 36.45993
# Shear Modulus (GPa) = 14.67351 15.57735 15.12543
#
# Velocity S-wave (km/s) = 3.06053 3.15338 3.10731
# Velocity P-wave (km/s) = 5.80001 6.21740 6.01233
#
# Compressibility (1/GPa) = 0.03018080
#
# Stress axis : x y z
#
# Youngs Moduli (GPa) = 40.01060 40.01060 32.23032
#
# Poissons Ratio (x) = 0.58833 0.17263
# Poissons Ratio (y) = 0.58833 0.17263
# Poissons Ratio (z) = 0.21430 0.21430
#
# Static dielectric constant tensor:
#      x y z
#    x 1.517320 0.000000 0.000000 
#    y 0.000000 1.517320 0.000000 
#    z 0.000000 0.000000 1.540190 
# 
# From -- ./inp_files/10820.got.cif
#   From: 2010.05.17/outbox.cif.g08.bks.cpg/sg191_6_cif.got.tgz:10820.got - 2010.05.20 12:20:32.
