data_PCOD9587627
_publ_section_title
;
Structure prediction by ZEFSAII (Michael W. Deem and Ramdas Pophale) SiO2 
 PCOD9587627
Probable space group: P 6/M M M
;
_chemical_formula_sum "Si O2"
_cell_formula_units_Z 120
_cell_length_a 18.136733
_cell_length_b 18.136733
_cell_length_c 25.781769
_cell_angle_alpha 90.000000
_cell_angle_beta 90.000000
_cell_angle_gamma 120.000000
_cell_volume 7344.486954
_symmetry_space_group_name_H-M "P 6/M M M"
_symmetry_group_IT_number 191
_symmetry_cell_setting 'hexagonal'
loop_
_space_group_symop_operation_xyz
x,y,z
x-y,x,z
-y,x-y,z
-x,-y,z
-x+y,-x,z
y,-x+y,z
x-y,-y,-z
-x,-x+y,-z
y,x,-z
-y,-x,-z
-x+y,y,-z
x,x-y,-z
-x,-y,-z
-x+y,-x,-z
y,-x+y,-z
x,y,-z
x-y,x,-z
-y,x-y,-z
-x+y,y,z
x,x-y,z
-y,-x,z
y,x,z
x-y,-y,z
-x,-x+y,z
loop_
_atom_site_type_symbol
_atom_site_label
_atom_site_fract_x
_atom_site_fract_y
_atom_site_fract_z
Si Si1 0.361634 0.098411 0.308296
Si Si2 0.898392 0.264708 0.500000
Si Si3 0.097151 0.365614 0.000000
Si Si4 0.902773 0.636305 0.187026
Si Si5 0.531542 0.897191 0.401145
Si Si6 0.667013 0.160103 0.903792
O O1 0.327155 0.163578 0.315958
O O2 0.386775 0.103791 0.247916
O O3 0.439692 0.125293 0.347448
O O4 0.293332 0.000000 0.319291
O O5 0.836527 0.163474 0.500000
O O6 0.877049 0.303499 0.449668
O O7 0.000000 0.299854 0.500000
O O8 0.114939 0.425482 0.949916
O O9 0.168987 0.337973 0.000000
O O10 0.000000 0.290971 0.000000
O O11 0.831749 0.663498 0.176642
O O12 0.878604 0.556654 0.149872
O O13 0.000000 0.708245 0.177023
O O14 0.431425 0.862849 0.405878
O O15 0.577461 0.000000 0.401341
O O16 0.575020 0.150040 0.909708
O O17 0.740753 0.259248 0.905273
#
# Coordination Sequence:
#
# PCOD9587627 Si02
#       6
#    24  12  12  24  24  24
#     4   9  17  30  48  69  93 122 157 194 232 276
#     4  10  19  31  49  72  97 125 158 194 231 273
#     4  10  21  35  51  72  97 125 156 192 233 273
#     4   9  18  31  47  68  93 122 156 195 237 277
#     4   9  17  29  46  67  89 115 149 189 230 271
#     4  10  20  33  49  70  97 127 157 189 228 274
#
# _framework density 16.338785999999999
#
# number of rings (size 3 to 8) (size 9 to 14) (size 15 to 20)
#    0.000    2.600    0.000    2.000    0.000    4.000 
#    0.000    3.000    0.000    6.200    0.000    2.800 
#    0.000    9.600    0.000    0.400    0.000    0.800 
#
# Total GULP energy -668508.766171 kJ/mol
# GULP energy per Si atom -5570.906385 kJ/mol
# Density = 1.630160 g / cm^3
# Si number density = 16.338786 Si / 1000 Ang^3
#
#
#
# Elastic Constant Matrix: (Units=GPa)
#
#
# Indices 1 2 3 4 5 6 
#
# 1 91.8283 65.8599 42.1074 0.0000 0.0000 0.0000
# 2 65.8599 91.8283 42.1074 0.0000 0.0000 0.0000
# 3 42.1074 42.1074 67.0174 0.0000 0.0000 0.0000
# 4 0.0000 0.0000 0.0000 17.3710 0.0000 0.0000
# 5 0.0000 0.0000 0.0000 0.0000 17.3710 0.0000
# 6 0.0000 0.0000 0.0000 0.0000 0.0000 12.9842
#
#
#
# Elastic Compliance Matrix: (Units=1/GPa)
#
#
# Indices 1 2 3 4 5 6 
#
# 1 0.024026 -0.014482 -0.005997 0.000000 0.000000 0.000000
# 2 -0.014482 0.024026 -0.005997 0.000000 0.000000 0.000000
# 3 -0.005997 -0.005997 0.022457 0.000000 0.000000 0.000000
# 4 0.000000 0.000000 0.000000 0.057567 0.000000 0.000000
# 5 0.000000 0.000000 0.000000 0.000000 0.057567 0.000000
# 6 0.000000 0.000000 0.000000 0.000000 0.000000 0.077017
#
#
# Mechanical properties :
#
#
# Convention : Reuss Voigt Hill
#
# Bulk Modulus (GPa) = 56.95184 61.20258 59.07721
# Shear Modulus (GPa) = 15.55379 16.25184 15.90281
#
# Velocity S-wave (km/s) = 3.08872 3.15727 3.12319
# Velocity P-wave (km/s) = 6.90310 7.12958 7.01726
#
# Compressibility (1/GPa) = 0.01755870
#
# Stress axis : x y z
#
# Youngs Moduli (GPa) = 41.62103 41.62103 44.52964
#
# Poissons Ratio (x) = 0.60276 0.26703
# Poissons Ratio (y) = 0.60276 0.26703
# Poissons Ratio (z) = 0.24959 0.24959
#
# Static dielectric constant tensor:
#      x y z
#    x 1.540820 0.000000 0.000000 
#    y 0.000000 1.540820 0.000000 
#    z 0.000000 0.000000 1.565880 
# 
# From -- ./inp_files/9632.got.cif
#   From: 2010.05.17/outbox.cif.g08.bks.cpg/sg191_5_cif.got.tgz:9632.got - 2010.05.20 12:20:32.
