data_PCOD9587612
_publ_section_title
;
Structure prediction by ZEFSAII (Michael W. Deem and Ramdas Pophale) SiO2 
 PCOD9587612
Probable space group: P 6/M M M
;
_chemical_formula_sum "Si O2"
_cell_formula_units_Z 132
_cell_length_a 17.807252
_cell_length_b 17.807252
_cell_length_c 30.857946
_cell_angle_alpha 90.000000
_cell_angle_beta 90.000000
_cell_angle_gamma 120.000000
_cell_volume 8474.058460
_symmetry_space_group_name_H-M "P 6/M M M"
_symmetry_group_IT_number 191
_symmetry_cell_setting 'hexagonal'
loop_
_space_group_symop_operation_xyz
x,y,z
x-y,x,z
-y,x-y,z
-x,-y,z
-x+y,-x,z
y,-x+y,z
x-y,-y,-z
-x,-x+y,-z
y,x,-z
-y,-x,-z
-x+y,y,-z
x,x-y,-z
-x,-y,-z
-x+y,-x,-z
y,-x+y,-z
x,y,-z
x-y,x,-z
-y,x-y,-z
-x+y,y,z
x,x-y,z
-y,-x,z
y,x,z
x-y,-y,z
-x,-x+y,z
loop_
_atom_site_type_symbol
_atom_site_label
_atom_site_fract_x
_atom_site_fract_y
_atom_site_fract_z
Si Si1 0.332057 0.487268 0.386716
Si Si2 0.372846 0.273397 0.300250
Si Si3 0.899572 0.631461 0.867692
Si Si4 0.105076 0.466974 0.951615
Si Si5 0.409040 0.409040 0.549337
Si Si6 0.332760 0.489186 0.215004
O O1 0.249294 0.498588 0.395220
O O2 0.419844 0.580157 0.384140
O O3 0.315257 0.436184 0.341453
O O4 0.345311 0.431036 0.423670
O O5 0.343295 0.171648 0.300005
O O6 0.297652 0.297652 0.302412
O O7 0.428976 0.314578 0.256900
O O8 0.833126 0.666252 0.860696
O O9 0.873680 0.576095 0.911994
O O10 0.885605 0.566937 0.828083
O O11 0.000000 0.703683 0.870015
O O12 0.135655 0.567828 0.944133
O O13 0.000000 0.417152 0.952349
O O14 0.133128 0.457551 0.000000
O O15 0.500000 0.500000 0.547824
O O16 0.381168 0.381168 0.500000
O O17 0.257431 0.514863 0.214849
O O18 0.426633 0.573368 0.216406
#
# Coordination Sequence:
#
# PCOD9587612 Si02
#       6
#    24  24  24  24  12  24
#     4  10  19  31  48  70  97 128 163 201 241 285
#     4  10  20  33  50  72  97 127 161 198 238 280
#     4  10  20  32  46  66  91 120 155 196 240 282
#     4   8  14  26  45  67  89 113 143 180 222 271
#     4   9  18  32  48  66  92 126 161 199 240 280
#     4  10  20  32  48  71 100 130 157 186 224 273
#
# _framework density 15.576953
#
# number of rings (size 3 to 8) (size 9 to 14) (size 15 to 20)
#    0.000    2.455    0.909    2.545    0.000    3.636 
#    0.000    1.818    0.000    1.818    0.000    0.000 
#    0.000    4.364    0.000    4.545    0.000    8.273 
#
# Total GULP energy -735824.441011 kJ/mol
# GULP energy per Si atom -5574.427583 kJ/mol
# Density = 1.554150 g / cm^3
# Si number density = 15.576953 Si / 1000 Ang^3
#
#
#
# Elastic Constant Matrix: (Units=GPa)
#
#
# Indices 1 2 3 4 5 6 
#
# 1 90.8329 70.2336 45.6898 0.0000 0.0000 0.0000
# 2 70.2336 90.8329 45.6898 0.0000 0.0000 0.0000
# 3 45.6898 45.6898 120.2745 0.0000 0.0000 0.0000
# 4 0.0000 0.0000 0.0000 13.4352 0.0000 0.0000
# 5 0.0000 0.0000 0.0000 0.0000 13.4352 0.0000
# 6 0.0000 0.0000 0.0000 0.0000 0.0000 10.2996
#
#
#
# Elastic Compliance Matrix: (Units=1/GPa)
#
#
# Indices 1 2 3 4 5 6 
#
# 1 0.028230 -0.020316 -0.003006 0.000000 0.000000 0.000000
# 2 -0.020316 0.028230 -0.003006 0.000000 0.000000 0.000000
# 3 -0.003006 -0.003006 0.010599 0.000000 0.000000 0.000000
# 4 0.000000 0.000000 0.000000 0.074432 0.000000 0.000000
# 5 0.000000 0.000000 0.000000 0.000000 0.074432 0.000000
# 6 0.000000 0.000000 0.000000 0.000000 0.000000 0.097091
#
#
# Mechanical properties :
#
#
# Convention : Reuss Voigt Hill
#
# Bulk Modulus (GPa) = 69.43860 69.46296 69.45078
# Shear Modulus (GPa) = 13.49638 16.78913 15.14275
#
# Velocity S-wave (km/s) = 2.94672 3.28658 3.12128
# Velocity P-wave (km/s) = 7.50014 7.68715 7.59422
#
# Compressibility (1/GPa) = 0.01440121
#
# Stress axis : x y z
#
# Youngs Moduli (GPa) = 35.42348 35.42348 94.35283
#
# Poissons Ratio (x) = 0.71965 0.28367
# Poissons Ratio (y) = 0.71965 0.28367
# Poissons Ratio (z) = 0.10650 0.10650
#
# Static dielectric constant tensor:
#      x y z
#    x 1.505570 0.000000 0.000000 
#    y 0.000000 1.505570 0.000000 
#    z 0.000000 0.000000 1.526990 
# 
# From -- ./inp_files/9765.got.cif
#   From: 2010.05.17/outbox.cif.g08.bks.cpg/sg191_5_cif.got.tgz:9765.got - 2010.05.20 12:20:32.
