data_PCOD9587352
_publ_section_title
;
Structure prediction by ZEFSAII (Michael W. Deem and Ramdas Pophale) SiO2 
 PCOD9587352
Probable space group: P 6/M M M
;
_chemical_formula_sum "Si O2"
_cell_formula_units_Z 192
_cell_length_a 29.756610
_cell_length_b 29.756610
_cell_length_c 18.258659
_cell_angle_alpha 90.000000
_cell_angle_beta 90.000000
_cell_angle_gamma 120.000000
_cell_volume 14001.237274
_symmetry_space_group_name_H-M "P 6/M M M"
_symmetry_group_IT_number 191
_symmetry_cell_setting 'hexagonal'
loop_
_space_group_symop_operation_xyz
x,y,z
x-y,x,z
-y,x-y,z
-x,-y,z
-x+y,-x,z
y,-x+y,z
x-y,-y,-z
-x,-x+y,-z
y,x,-z
-y,-x,-z
-x+y,y,-z
x,x-y,-z
-x,-y,-z
-x+y,-x,-z
y,-x+y,-z
x,y,-z
x-y,x,-z
-y,x-y,-z
-x+y,y,z
x,x-y,z
-y,-x,z
y,x,z
x-y,-y,z
-x,-x+y,z
loop_
_atom_site_type_symbol
_atom_site_label
_atom_site_fract_x
_atom_site_fract_y
_atom_site_fract_z
Si Si1 0.059030 0.839235 0.912657
Si Si2 0.389387 0.061611 0.412688
Si Si3 0.113460 0.782620 0.837487
Si Si4 0.418642 0.481537 0.664858
Si Si5 0.886545 0.217379 0.662542
Si Si6 0.481537 0.418641 0.164911
Si Si7 0.389402 0.061612 0.087314
Si Si8 0.160773 0.940969 0.412661
O O1 0.101002 0.898999 0.897355
O O2 0.077791 0.804706 0.869503
O O3 0.000000 0.821415 0.894392
O O4 0.061503 0.830781 0.000000
O O5 0.389259 0.066630 0.500000
O O6 0.446750 0.078198 0.383626
O O7 0.367388 0.094848 0.374254
O O8 0.352437 0.000000 0.394868
O O9 0.172700 0.827301 0.854024
O O10 0.107786 0.777228 0.750015
O O11 0.094847 0.727458 0.874282
O O12 0.459703 0.540298 0.641302
O O13 0.451055 0.451055 0.663068
O O14 0.404620 0.482389 0.749974
O O15 0.827308 0.172693 0.646003
O O16 0.922219 0.195300 0.630522
O O17 0.540298 0.459703 0.141356
O O18 0.451054 0.451054 0.163123
O O19 0.446755 0.368555 0.116419
O O20 0.352446 0.000000 0.105128
O O21 0.389298 0.066632 0.000000
O O22 0.169241 0.938491 0.500000
O O23 0.101009 0.898992 0.397376
O O24 0.178584 0.000000 0.394415
#
# Coordination Sequence:
#
# PCOD9587352 Si02
#       8
#    24  24  24  24  24  24  24  24
#     4   9  17  29  44  60  78 100 126 158 198 245
#     4  10  19  28  40  59  81 106 135 165 198 236
#     4  10  20  31  42  57  77 102 133 168 204 241
#     4   8  14  25  40  57  78 105 135 164 192 220
#     4  10  20  31  42  57  77 102 133 168 204 241
#     4   8  14  25  40  57  78 105 135 164 192 220
#     4  10  19  28  40  59  81 106 135 165 198 236
#     4   9  17  29  44  60  78 100 126 158 198 245
#
# _framework density 13.713074000000001
#
# number of rings (size 3 to 8) (size 9 to 14) (size 15 to 20)
#    0.000    2.750    0.000    3.000    0.000    7.000 
#    0.000    2.500    0.000    0.250    0.000    1.750 
#    0.000    0.000    0.000    7.000    0.000   21.000 
#
# Total GULP energy -1069449.637909 kJ/mol
# GULP energy per Si atom -5570.050197 kJ/mol
# Density = 1.368186 g / cm^3
# Si number density = 13.713074 Si / 1000 Ang^3
#
#
#
# Elastic Constant Matrix: (Units=GPa)
#
#
# Indices 1 2 3 4 5 6 
#
# 1 102.5163 58.6151 50.4434 0.0000 0.0000 0.0000
# 2 58.6151 102.5163 50.4434 0.0000 0.0000 0.0000
# 3 50.4434 50.4434 49.6991 0.0000 0.0000 0.0000
# 4 0.0000 0.0000 0.0000 20.5457 0.0000 0.0000
# 5 0.0000 0.0000 0.0000 0.0000 20.5457 0.0000
# 6 0.0000 0.0000 0.0000 0.0000 0.0000 21.9506
#
#
#
# Elastic Compliance Matrix: (Units=1/GPa)
#
#
# Indices 1 2 3 4 5 6 
#
# 1 0.019902 -0.002876 -0.017281 0.000000 0.000000 0.000000
# 2 -0.002876 0.019902 -0.017281 0.000000 0.000000 0.000000
# 3 -0.017281 -0.017281 0.055201 0.000000 0.000000 0.000000
# 4 0.000000 0.000000 0.000000 0.048672 0.000000 0.000000
# 5 0.000000 0.000000 0.000000 0.000000 0.048672 0.000000
# 6 0.000000 0.000000 0.000000 0.000000 0.000000 0.045557
#
#
# Mechanical properties :
#
#
# Convention : Reuss Voigt Hill
#
# Bulk Modulus (GPa) = 49.68024 63.74840 56.71432
# Shear Modulus (GPa) = 15.64984 18.95704 17.30344
#
# Velocity S-wave (km/s) = 3.38188 3.72211 3.55607
# Velocity P-wave (km/s) = 7.18029 8.06600 7.63600
#
# Compressibility (1/GPa) = 0.02012873
#
# Stress axis : x y z
#
# Youngs Moduli (GPa) = 50.24558 50.24558 18.11570
#
# Poissons Ratio (x) = 0.14452 0.31306
# Poissons Ratio (y) = 0.14452 0.31306
# Poissons Ratio (z) = 0.86829 0.86829
#
# Static dielectric constant tensor:
#      x y z
#    x 1.441820 0.000000 0.000000 
#    y 0.000000 1.441820 0.000000 
#    z 0.000000 0.000000 1.456580 
# 
# From -- ./inp_files/5580.got.cif
#   From: 2010.05.17/outbox.cif.g08.bks.cpg/sg191_3_cif.got.tgz:5580.got - 2010.05.20 12:20:32.
