data_PCOD9587276
_publ_section_title
;
Structure prediction by ZEFSAII (Michael W. Deem and Ramdas Pophale) SiO2 
 PCOD9587276
Probable space group: P 6/M M M
;
_chemical_formula_sum "Si O2"
_cell_formula_units_Z 120
_cell_length_a 21.649381
_cell_length_b 21.649381
_cell_length_c 19.370120
_cell_angle_alpha 90.000000
_cell_angle_beta 90.000000
_cell_angle_gamma 120.000000
_cell_volume 7862.377825
_symmetry_space_group_name_H-M "P 6/M M M"
_symmetry_group_IT_number 191
_symmetry_cell_setting 'hexagonal'
loop_
_space_group_symop_operation_xyz
x,y,z
x-y,x,z
-y,x-y,z
-x,-y,z
-x+y,-x,z
y,-x+y,z
x-y,-y,-z
-x,-x+y,-z
y,x,-z
-y,-x,-z
-x+y,y,-z
x,x-y,-z
-x,-y,-z
-x+y,-x,-z
y,-x+y,-z
x,y,-z
x-y,x,-z
-y,x-y,-z
-x+y,y,z
x,x-y,z
-y,-x,z
y,x,z
x-y,-y,z
-x,-x+y,z
loop_
_atom_site_type_symbol
_atom_site_label
_atom_site_fract_x
_atom_site_fract_y
_atom_site_fract_z
Si Si1 0.534556 0.696186 0.153816
Si Si2 0.332976 0.808721 0.309864
Si Si3 0.916695 0.224578 0.212082
Si Si4 0.541897 0.083793 0.917272
Si Si5 0.289781 0.917944 0.360052
Si Si6 0.784653 0.703024 0.500000
O O1 0.524794 0.762397 0.127859
O O2 0.497566 0.674807 0.229110
O O3 0.619158 0.729054 0.168126
O O4 0.499480 0.623657 0.109938
O O5 0.409585 0.819169 0.323276
O O6 0.271073 0.728928 0.325400
O O7 0.318088 0.863527 0.351212
O O8 0.858361 0.141640 0.199928
O O9 0.909990 0.242452 0.292398
O O10 0.000000 0.252122 0.198741
O O11 0.500000 0.000000 0.894726
O O12 0.542489 0.084977 0.000000
O O13 0.247521 0.904497 0.430979
O O14 0.352496 0.000000 0.360008
O O15 0.761711 0.761711 0.500000
O O16 0.868018 0.736036 0.500000
#
# Coordination Sequence:
#
# PCOD9587276 Si02
#       6
#    24  24  24  12  24  12
#     4   9  18  33  49  67  90 120 157 196 230 269
#     4  10  18  30  47  67  88 114 147 190 230 273
#     4   9  16  28  47  69  91 115 150 191 229 269
#     4  11  22  34  48  70  98 127 159 193 233 280
#     4   9  18  30  45  66  88 114 150 190 230 270
#     4  10  18  30  47  66  91 119 147 183 226 276
#
# _framework density 15.262558
#
# number of rings (size 3 to 8) (size 9 to 14) (size 15 to 20)
#    0.000    2.500    1.000    3.800    0.000    1.600 
#    0.600    0.500    0.000    2.100    0.000    1.400 
#    0.000    4.800    0.000    0.000    0.000    0.400 
#
# Total GULP energy -668555.162199 kJ/mol
# GULP energy per Si atom -5571.293018 kJ/mol
# Density = 1.522782 g / cm^3
# Si number density = 15.262558 Si / 1000 Ang^3
#
#
#
# Elastic Constant Matrix: (Units=GPa)
#
#
# Indices 1 2 3 4 5 6 
#
# 1 89.8727 111.4249 33.1621 0.0000 0.0000 0.0000
# 2 111.4249 89.8727 33.1621 0.0000 0.0000 0.0000
# 3 33.1621 33.1621 48.8445 0.0000 0.0000 0.0000
# 4 0.0000 0.0000 0.0000 12.1224 0.0000 0.0000
# 5 0.0000 0.0000 0.0000 0.0000 12.1224 0.0000
# 6 0.0000 0.0000 0.0000 0.0000 0.0000 -10.7761
#
#
#
# Elastic Compliance Matrix: (Units=1/GPa)
#
#
# Indices 1 2 3 4 5 6 
#
# 1 -0.020000 0.026399 -0.004345 0.000000 0.000000 0.000000
# 2 0.026399 -0.020000 -0.004345 0.000000 0.000000 0.000000
# 3 -0.004345 -0.004345 0.026373 0.000000 0.000000 0.000000
# 4 0.000000 0.000000 0.000000 0.082492 0.000000 0.000000
# 5 0.000000 0.000000 0.000000 0.000000 0.082492 0.000000
# 6 0.000000 0.000000 0.000000 0.000000 0.000000 -0.092798
#
#
# Mechanical properties :
#
#
# Convention : Reuss Voigt Hill
#
# Bulk Modulus (GPa) = 45.88743 64.89868 55.39305
# Shear Modulus (GPa) = 164.45455 6.08312 85.26884
#
# Velocity S-wave (km/s) = 10.39155 1.99858 7.48260
# Velocity P-wave (km/s) = 13.19506 6.92384 10.53682
#
# Compressibility (1/GPa) = 0.02179246
#
# Stress axis : x y z
#
# Youngs Moduli (GPa) = -50.00033 -50.00033 37.91818
#
# Poissons Ratio (x) = 1.31997 0.16474
# Poissons Ratio (y) = 1.31997 0.16474
# Poissons Ratio (z) = -0.21723 -0.21723
#
# Static dielectric constant tensor:
#      x y z
#    x 1.501640 0.000000 0.000000 
#    y 0.000000 1.501640 0.000000 
#    z 0.000000 0.000000 1.494460 
# 
# From -- ./inp_files/6268.got.cif
#   From: 2010.05.17/outbox.cif.g08.bks.cpg/sg191_4_cif.got.tgz:6268.got - 2010.05.20 12:20:32.
