data_PCOD9587597
_publ_section_title
;
Structure prediction by ZEFSAII (Michael W. Deem and Ramdas Pophale) SiO2 
 PCOD9587597
Probable space group: P 6/M M M
;
_chemical_formula_sum "Si O2"
_cell_formula_units_Z 192
_cell_length_a 30.740818
_cell_length_b 30.740818
_cell_length_c 14.201839
_cell_angle_alpha 90.000000
_cell_angle_beta 90.000000
_cell_angle_gamma 120.000000
_cell_volume 11622.673985
_symmetry_space_group_name_H-M "P 6/M M M"
_symmetry_group_IT_number 191
_symmetry_cell_setting 'hexagonal'
loop_
_space_group_symop_operation_xyz
x,y,z
x-y,x,z
-y,x-y,z
-x,-y,z
-x+y,-x,z
y,-x+y,z
x-y,-y,-z
-x,-x+y,-z
y,x,-z
-y,-x,-z
-x+y,y,-z
x,x-y,-z
-x,-y,-z
-x+y,-x,-z
y,-x+y,-z
x,y,-z
x-y,x,-z
-y,x-y,-z
-x+y,y,z
x,x-y,z
-y,-x,z
y,x,z
x-y,-y,z
-x,-x+y,z
loop_
_atom_site_type_symbol
_atom_site_label
_atom_site_fract_x
_atom_site_fract_y
_atom_site_fract_z
Si Si1 0.056511 0.843862 0.389487
Si Si2 0.355920 0.126584 0.108326
Si Si3 0.701030 0.200651 0.295336
Si Si4 0.611381 0.492068 0.395123
Si Si5 0.304528 0.246205 0.282700
Si Si6 0.756027 0.146073 0.610796
Si Si7 0.468233 0.324235 0.107697
Si Si8 0.941216 0.418031 0.211500
O O1 0.061425 0.833584 0.500000
O O2 0.100191 0.899810 0.368540
O O3 0.062066 0.803792 0.326623
O O4 0.000000 0.832904 0.376646
O O5 0.359669 0.179835 0.131088
O O6 0.320030 0.084682 0.181397
O O7 0.411315 0.133334 0.114697
O O8 0.339170 0.114122 0.000000
O O9 0.740903 0.259098 0.307390
O O10 0.651039 0.174764 0.357858
O O11 0.728833 0.170728 0.332144
O O12 0.686329 0.185723 0.186653
O O13 0.624950 0.514343 0.500000
O O14 0.557173 0.442828 0.399966
O O15 0.606390 0.526045 0.314284
O O16 0.399550 0.253997 0.500000
O O17 0.287794 0.287794 0.279044
O O18 0.351940 0.260114 0.349295
O O19 0.815861 0.184140 0.624141
O O20 0.470121 0.375800 0.137374
O O21 0.484982 0.326566 0.000000
O O22 0.935631 0.467816 0.202977
O O23 0.000000 0.437088 0.201907
#
# Coordination Sequence:
#
# PCOD9587597 Si02
#       8
#    24  24  24  24  24  24  24  24
#     4   9  17  29  46  67  90 118 152 189 231 281
#     4  10  20  35  53  69  90 125 167 209 252 296
#     4  10  19  33  53  75  99 127 164 207 251 298
#     4   9  18  33  52  75 103 132 165 205 248 297
#     4  11  21  31  45  66  95 127 159 197 238 286
#     4  10  19  31  48  69  94 124 160 202 244 288
#     4  10  20  33  51  74  98 125 163 211 254 293
#     4   9  19  35  53  74 102 137 174 207 245 297
#
# _framework density 16.519434
#
# number of rings (size 3 to 8) (size 9 to 14) (size 15 to 20)
#    0.000    2.250    1.250    2.250    0.000    4.750 
#    0.000    3.125    0.000    1.875    0.000    0.875 
#    0.000    0.000    0.000    0.375    0.000    0.500 
#
# Total GULP energy -1070587.022960 kJ/mol
# GULP energy per Si atom -5575.974078 kJ/mol
# Density = 1.648183 g / cm^3
# Si number density = 16.519434 Si / 1000 Ang^3
#
#
#
# Elastic Constant Matrix: (Units=GPa)
#
#
# Indices 1 2 3 4 5 6 
#
# 1 37.7062 -6.2401 5.4336 0.0000 0.0000 0.0000
# 2 -6.2401 37.7062 5.4336 0.0000 0.0000 0.0000
# 3 5.4336 5.4336 87.9303 0.0000 0.0000 0.0000
# 4 0.0000 0.0000 0.0000 19.6042 0.0000 0.0000
# 5 0.0000 0.0000 0.0000 0.0000 19.6042 0.0000
# 6 0.0000 0.0000 0.0000 0.0000 0.0000 21.9731
#
#
#
# Elastic Compliance Matrix: (Units=1/GPa)
#
#
# Indices 1 2 3 4 5 6 
#
# 1 0.027614 0.004859 -0.002007 0.000000 0.000000 0.000000
# 2 0.004859 0.027614 -0.002007 0.000000 0.000000 0.000000
# 3 -0.002007 -0.002007 0.011621 0.000000 0.000000 0.000000
# 4 0.000000 0.000000 0.000000 0.051009 0.000000 0.000000
# 5 0.000000 0.000000 0.000000 0.000000 0.051009 0.000000
# 6 0.000000 0.000000 0.000000 0.000000 0.000000 0.045510
#
#
# Mechanical properties :
#
#
# Convention : Reuss Voigt Hill
#
# Bulk Modulus (GPa) = 14.58995 19.17746 16.88371
# Shear Modulus (GPa) = 21.22843 22.81735 22.02289
#
# Velocity S-wave (km/s) = 3.58866 3.72054 3.65519
# Velocity P-wave (km/s) = 5.10122 5.48551 5.29685
#
# Compressibility (1/GPa) = 0.06854031
#
# Stress axis : x y z
#
# Youngs Moduli (GPa) = 36.21337 36.21337 86.05369
#
# Poissons Ratio (x) = -0.17596 0.17268
# Poissons Ratio (y) = -0.17596 0.17268
# Poissons Ratio (z) = 0.07267 0.07267
#
# Static dielectric constant tensor:
#      x y z
#    x 1.554190 0.000000 0.000000 
#    y 0.000000 1.554190 0.000000 
#    z 0.000000 0.000000 1.579070 
# 
# From -- ./inp_files/5531.got.cif
#   From: 2010.05.17/outbox.cif.g08.bks.cpg/sg191_3_cif.got.tgz:5531.got - 2010.05.20 12:20:32.
