data_PCOD9587137
_publ_section_title
;
Structure prediction by ZEFSAII (Michael W. Deem and Ramdas Pophale) SiO2 
 PCOD9587137
Probable space group: P 6/M M M
;
_chemical_formula_sum "Si O2"
_cell_formula_units_Z 168
_cell_length_a 28.529901
_cell_length_b 28.529901
_cell_length_c 15.259195
_cell_angle_alpha 90.000000
_cell_angle_beta 90.000000
_cell_angle_gamma 120.000000
_cell_volume 10756.296966
_symmetry_space_group_name_H-M "P 6/M M M"
_symmetry_group_IT_number 191
_symmetry_cell_setting 'hexagonal'
loop_
_space_group_symop_operation_xyz
x,y,z
x-y,x,z
-y,x-y,z
-x,-y,z
-x+y,-x,z
y,-x+y,z
x-y,-y,-z
-x,-x+y,-z
y,x,-z
-y,-x,-z
-x+y,y,-z
x,x-y,-z
-x,-y,-z
-x+y,-x,-z
y,-x+y,-z
x,y,-z
x-y,x,-z
-y,x-y,-z
-x+y,y,z
x,x-y,z
-y,-x,z
y,x,z
x-y,-y,z
-x,-x+y,z
loop_
_atom_site_type_symbol
_atom_site_label
_atom_site_fract_x
_atom_site_fract_y
_atom_site_fract_z
Si Si1 0.140865 0.751611 0.248674
Si Si2 0.898413 0.397721 0.600913
Si Si3 0.205468 0.513350 0.813396
Si Si4 0.398677 0.900354 0.895717
Si Si5 0.681883 0.062494 0.605134
Si Si6 0.666712 0.438665 0.629751
Si Si7 0.621856 0.938010 0.896680
O O1 0.185781 0.814220 0.250708
O O2 0.173840 0.719255 0.234534
O O3 0.104729 0.731402 0.335983
O O4 0.101478 0.733016 0.164806
O O5 0.915975 0.409794 0.500000
O O6 0.906614 0.453307 0.642005
O O7 0.928742 0.367695 0.636483
O O8 0.833777 0.355975 0.600784
O O9 0.258145 0.516290 0.857613
O O10 0.161973 0.517767 0.872635
O O11 0.225090 0.556169 0.735024
O O12 0.457565 0.915129 0.860047
O O13 0.368084 0.932398 0.867961
O O14 0.404304 0.907110 0.000000
O O15 0.689683 0.073512 0.500000
O O16 0.663928 0.000000 0.619115
O O17 0.726447 0.452894 0.601038
O O18 0.621583 0.378418 0.603441
O O19 0.667249 0.000000 0.887207
O O20 0.616914 0.923116 0.000000
#
# Coordination Sequence:
#
# PCOD9587137 Si02
#       7
#    24  24  24  24  24  24  24
#     4  10  19  32  49  69  91 116 149 184 218 267
#     4   9  18  31  45  60  79 105 137 176 222 274
#     4   9  17  28  42  58  76 102 136 176 221 267
#     4   9  17  28  42  60  82 109 140 176 221 277
#     4  10  20  33  49  69  93 119 147 182 225 272
#     4  10  18  28  41  57  77 102 134 175 222 273
#     4   9  18  32  49  69  94 121 148 184 230 275
#
# _framework density 15.618759000000001
#
# number of rings (size 3 to 8) (size 9 to 14) (size 15 to 20)
#    0.000    2.571    1.429    1.000    0.000    1.714 
#    0.000    7.143    0.000    2.857    0.000    0.000 
#    0.000    0.000    0.000    0.000    0.000    0.000 
#
# Total GULP energy -935816.474958 kJ/mol
# GULP energy per Si atom -5570.336160 kJ/mol
# Density = 1.558321 g / cm^3
# Si number density = 15.618759 Si / 1000 Ang^3
#
#
#
# Elastic Constant Matrix: (Units=GPa)
#
#
# Indices 1 2 3 4 5 6 
#
# 1 59.8743 30.6306 28.7390 0.0000 0.0000 0.0000
# 2 30.6306 59.8743 28.7390 0.0000 0.0000 0.0000
# 3 28.7390 28.7390 49.6717 0.0000 0.0000 0.0000
# 4 0.0000 0.0000 0.0000 11.8843 0.0000 0.0000
# 5 0.0000 0.0000 0.0000 0.0000 11.8843 0.0000
# 6 0.0000 0.0000 0.0000 0.0000 0.0000 14.6219
#
#
#
# Elastic Compliance Matrix: (Units=1/GPa)
#
#
# Indices 1 2 3 4 5 6 
#
# 1 0.025831 -0.008364 -0.010106 0.000000 0.000000 0.000000
# 2 -0.008364 0.025831 -0.010106 0.000000 0.000000 0.000000
# 3 -0.010106 -0.010106 0.031827 0.000000 0.000000 0.000000
# 4 0.000000 0.000000 0.000000 0.084145 0.000000 0.000000
# 5 0.000000 0.000000 0.000000 0.000000 0.084145 0.000000
# 6 0.000000 0.000000 0.000000 0.000000 0.000000 0.068391
#
#
# Mechanical properties :
#
#
# Convention : Reuss Voigt Hill
#
# Bulk Modulus (GPa) = 37.97018 38.40419 38.18719
# Shear Modulus (GPa) = 12.94997 13.09888 13.02443
#
# Velocity S-wave (km/s) = 2.88258 2.89911 2.89086
# Velocity P-wave (km/s) = 5.95336 5.98735 5.97038
#
# Compressibility (1/GPa) = 0.02633646
#
# Stress axis : x y z
#
# Youngs Moduli (GPa) = 38.71257 38.71257 31.42012
#
# Poissons Ratio (x) = 0.32379 0.31754
# Poissons Ratio (y) = 0.32379 0.31754
# Poissons Ratio (z) = 0.39124 0.39124
#
# Static dielectric constant tensor:
#      x y z
#    x 1.524960 0.000000 0.000000 
#    y 0.000000 1.524960 0.000000 
#    z 0.000000 0.000000 1.563810 
# 
# From -- ./inp_files/5450.got.cif
#   From: 2010.05.17/outbox.cif.g08.bks.cpg/sg191_3_cif.got.tgz:5450.got - 2010.05.20 12:20:32.
