data_PCOD9587068
_publ_section_title
;
Structure prediction by ZEFSAII (Michael W. Deem and Ramdas Pophale) SiO2 
 PCOD9587068
Probable space group: P 6/M M M
;
_chemical_formula_sum "Si O2"
_cell_formula_units_Z 120
_cell_length_a 26.366912
_cell_length_b 26.366912
_cell_length_c 13.717033
_cell_angle_alpha 90.000000
_cell_angle_beta 90.000000
_cell_angle_gamma 120.000000
_cell_volume 8258.655580
_symmetry_space_group_name_H-M "P 6/M M M"
_symmetry_group_IT_number 191
_symmetry_cell_setting 'hexagonal'
loop_
_space_group_symop_operation_xyz
x,y,z
x-y,x,z
-y,x-y,z
-x,-y,z
-x+y,-x,z
y,-x+y,z
x-y,-y,-z
-x,-x+y,-z
y,x,-z
-y,-x,-z
-x+y,y,-z
x,x-y,-z
-x,-y,-z
-x+y,-x,-z
y,-x+y,-z
x,y,-z
x-y,x,-z
-y,x-y,-z
-x+y,y,z
x,x-y,z
-y,-x,z
y,x,z
x-y,-y,z
-x,-x+y,z
loop_
_atom_site_type_symbol
_atom_site_label
_atom_site_fract_x
_atom_site_fract_y
_atom_site_fract_z
Si Si1 0.726631 0.152376 0.717053
Si Si2 0.214821 0.548748 0.384036
Si Si3 0.292749 0.931768 0.113057
Si Si4 0.180850 0.933596 0.806947
Si Si5 0.308056 0.240118 0.610663
O O1 0.789442 0.210559 0.735726
O O2 0.683968 0.173460 0.673850
O O3 0.703120 0.113094 0.813785
O O4 0.737724 0.112384 0.640428
O O5 0.203281 0.538240 0.500000
O O6 0.281431 0.562862 0.368636
O O7 0.208234 0.604117 0.356492
O O8 0.229322 0.925507 0.133923
O O9 0.339076 0.000000 0.135047
O O10 0.297783 0.920589 0.000000
O O11 0.116320 0.883681 0.832743
O O12 0.194630 0.926305 0.693927
O O13 0.196395 0.000000 0.821769
O O14 0.296391 0.217754 0.500000
O O15 0.291615 0.291615 0.617081
#
# Coordination Sequence:
#
# PCOD9587068 Si02
#       5
#    24  24  24  24  24
#     4  10  18  26  41  65  87 108 137 173 210 244
#     4   9  17  29  45  65  89 116 144 173 205 240
#     4   9  17  29  45  64  86 111 136 164 203 251
#     4   9  17  27  39  57  80 106 136 169 205 245
#     4   9  16  25  38  57  83 112 135 159 199 251
#
# _framework density 14.53021
#
# number of rings (size 3 to 8) (size 9 to 14) (size 15 to 20)
#    0.000    2.800    0.000    5.000    0.000    4.800 
#    0.000    0.000    0.000    3.200    0.000    8.400 
#    0.000    1.600    0.000   10.000    0.000    0.000 
#
# Total GULP energy -668465.135858 kJ/mol
# GULP energy per Si atom -5570.542799 kJ/mol
# Density = 1.449714 g / cm^3
# Si number density = 14.530210 Si / 1000 Ang^3
#
#
#
# Elastic Constant Matrix: (Units=GPa)
#
#
# Indices 1 2 3 4 5 6 
#
# 1 93.0793 52.5603 24.8744 0.0000 0.0000 0.0000
# 2 52.5603 93.0793 24.8744 0.0000 0.0000 0.0000
# 3 24.8744 24.8744 51.7748 0.0000 0.0000 0.0000
# 4 0.0000 0.0000 0.0000 12.6335 0.0000 0.0000
# 5 0.0000 0.0000 0.0000 0.0000 12.6335 0.0000
# 6 0.0000 0.0000 0.0000 0.0000 0.0000 20.2595
#
#
#
# Elastic Compliance Matrix: (Units=1/GPa)
#
#
# Indices 1 2 3 4 5 6 
#
# 1 0.016447 -0.008233 -0.003946 0.000000 0.000000 0.000000
# 2 -0.008233 0.016447 -0.003946 0.000000 0.000000 0.000000
# 3 -0.003946 -0.003946 0.023106 0.000000 0.000000 0.000000
# 4 0.000000 0.000000 0.000000 0.079155 0.000000 0.000000
# 5 0.000000 0.000000 0.000000 0.000000 0.079155 0.000000
# 6 0.000000 0.000000 0.000000 0.000000 0.000000 0.049359
#
#
# Mechanical properties :
#
#
# Convention : Reuss Voigt Hill
#
# Bulk Modulus (GPa) = 42.10648 49.17238 45.63943
# Shear Modulus (GPa) = 16.45616 18.14691 17.30154
#
# Velocity S-wave (km/s) = 3.36899 3.53782 3.45444
# Velocity P-wave (km/s) = 6.64642 7.11359 6.88397
#
# Compressibility (1/GPa) = 0.02374931
#
# Stress axis : x y z
#
# Youngs Moduli (GPa) = 60.80123 60.80123 43.27799
#
# Poissons Ratio (x) = 0.50056 0.17079
# Poissons Ratio (y) = 0.50056 0.17079
# Poissons Ratio (z) = 0.23995 0.23995
#
# Static dielectric constant tensor:
#      x y z
#    x 1.470060 0.000000 0.000000 
#    y 0.000000 1.470060 0.000000 
#    z 0.000000 0.000000 1.492560 
# 
# From -- ./inp_files/4728.got.cif
#   From: 2010.05.17/outbox.cif.g08.bks.cpg/sg191_3_cif.got.tgz:4728.got - 2010.05.20 12:20:32.
