data_PCOD9587757
_publ_section_title
;
Structure prediction by ZEFSAII (Michael W. Deem and Ramdas Pophale) SiO2 
 PCOD9587757
Probable space group: P 6/M M M
;
_chemical_formula_sum "Si O2"
_cell_formula_units_Z 90
_cell_length_a 26.964673
_cell_length_b 26.964673
_cell_length_c 8.180658
_cell_angle_alpha 90.000000
_cell_angle_beta 90.000000
_cell_angle_gamma 120.000000
_cell_volume 5151.209163
_symmetry_space_group_name_H-M "P 6/M M M"
_symmetry_group_IT_number 191
_symmetry_cell_setting 'hexagonal'
loop_
_space_group_symop_operation_xyz
x,y,z
x-y,x,z
-y,x-y,z
-x,-y,z
-x+y,-x,z
y,-x+y,z
x-y,-y,-z
-x,-x+y,-z
y,x,-z
-y,-x,-z
-x+y,y,-z
x,x-y,-z
-x,-y,-z
-x+y,-x,-z
y,-x+y,-z
x,y,-z
x-y,x,-z
-y,x-y,-z
-x+y,y,z
x,x-y,z
-y,-x,z
y,x,z
x-y,-y,z
-x,-x+y,z
loop_
_atom_site_type_symbol
_atom_site_label
_atom_site_fract_x
_atom_site_fract_y
_atom_site_fract_z
Si Si1 0.552955 0.219064 0.302721
Si Si2 0.570212 0.843124 0.805272
Si Si3 0.000000 0.880268 0.500000
Si Si4 0.191869 0.000000 0.818228
Si Si5 0.213641 0.308225 0.685035
O O1 0.553926 0.220546 0.500000
O O2 0.607026 0.214051 0.245798
O O3 0.558601 0.279301 0.245847
O O4 0.491286 0.167421 0.249001
O O5 0.568167 0.784084 0.752529
O O6 0.629097 0.893862 0.733684
O O7 0.574367 0.846664 0.000000
O O8 0.942209 0.884417 0.500000
O O9 0.000000 0.846343 0.665187
O O10 0.201725 0.946215 0.797943
O O11 0.168836 0.000000 0.000000
O O12 0.222157 0.294576 0.500000
O O13 0.155924 0.311848 0.689187
#
# Coordination Sequence:
#
# PCOD9587757 Si02
#       5
#    24  24   6  12  24
#     4   9  16  26  40  60  89 130 179 227 273 326
#     4   9  17  28  43  66  96 130 169 215 272 331
#     4  12  27  48  68  92 124 162 199 228 260 304
#     4  12  24  39  63  93 121 149 187 231 272 314
#     4  10  19  34  55  79 108 139 172 215 268 322
#
# _framework density 17.471627000000002
#
# number of rings (size 3 to 8) (size 9 to 14) (size 15 to 20)
#    0.000    2.133    1.333    2.733    0.000    8.000 
#    0.000    0.000    0.000    2.400    0.000    0.933 
#    0.000    7.467    0.000    0.000    0.000    0.000 
#
# Total GULP energy -501585.890080 kJ/mol
# GULP energy per Si atom -5573.176556 kJ/mol
# Density = 1.743186 g / cm^3
# Si number density = 17.471627 Si / 1000 Ang^3
#
#
#
# Elastic Constant Matrix: (Units=GPa)
#
#
# Indices 1 2 3 4 5 6 
#
# 1 79.8754 45.4182 32.3914 0.0000 0.0000 0.0000
# 2 45.4182 79.8754 32.3914 0.0000 0.0000 0.0000
# 3 32.3914 32.3914 65.5817 0.0000 0.0000 0.0000
# 4 0.0000 0.0000 0.0000 16.5969 0.0000 0.0000
# 5 0.0000 0.0000 0.0000 0.0000 16.5969 0.0000
# 6 0.0000 0.0000 0.0000 0.0000 0.0000 17.2286
#
#
#
# Elastic Compliance Matrix: (Units=1/GPa)
#
#
# Indices 1 2 3 4 5 6 
#
# 1 0.019870 -0.009152 -0.005294 0.000000 0.000000 0.000000
# 2 -0.009152 0.019870 -0.005294 0.000000 0.000000 0.000000
# 3 -0.005294 -0.005294 0.020478 0.000000 0.000000 0.000000
# 4 0.000000 0.000000 0.000000 0.060252 0.000000 0.000000
# 5 0.000000 0.000000 0.000000 0.000000 0.060252 0.000000
# 6 0.000000 0.000000 0.000000 0.000000 0.000000 0.058043
#
#
# Mechanical properties :
#
#
# Convention : Reuss Voigt Hill
#
# Bulk Modulus (GPa) = 48.21888 49.52605 48.87247
# Shear Modulus (GPa) = 17.53423 17.75993 17.64708
#
# Velocity S-wave (km/s) = 3.17137 3.19172 3.18156
# Velocity P-wave (km/s) = 6.40847 6.48004 6.44435
#
# Compressibility (1/GPa) = 0.02073876
#
# Stress axis : x y z
#
# Youngs Moduli (GPa) = 50.32712 50.32712 48.83381
#
# Poissons Ratio (x) = 0.46057 0.25852
# Poissons Ratio (y) = 0.46057 0.25852
# Poissons Ratio (z) = 0.26643 0.26643
#
# Static dielectric constant tensor:
#      x y z
#    x 1.613990 0.000000 0.000000 
#    y 0.000000 1.613990 0.000000 
#    z 0.000000 0.000000 1.622960 
# 
# From -- ./inp_files/1261.got.cif
#   From: 2010.05.17/outbox.cif.g08.bks.cpg/sg191_1_cif.got.tgz:1261.got - 2010.05.20 12:20:32.
