data_PCOD9587648
_publ_section_title
;
Structure prediction by ZEFSAII (Michael W. Deem and Ramdas Pophale) SiO2 
 PCOD9587648
Probable space group: P 6/M M M
;
_chemical_formula_sum "Si O2"
_cell_formula_units_Z 144
_cell_length_a 32.673736
_cell_length_b 32.673736
_cell_length_c 7.763138
_cell_angle_alpha 90.000000
_cell_angle_beta 90.000000
_cell_angle_gamma 120.000000
_cell_volume 7177.373212
_symmetry_space_group_name_H-M "P 6/M M M"
_symmetry_group_IT_number 191
_symmetry_cell_setting 'hexagonal'
loop_
_space_group_symop_operation_xyz
x,y,z
x-y,x,z
-y,x-y,z
-x,-y,z
-x+y,-x,z
y,-x+y,z
x-y,-y,-z
-x,-x+y,-z
y,x,-z
-y,-x,-z
-x+y,y,-z
x,x-y,-z
-x,-y,-z
-x+y,-x,-z
y,-x+y,-z
x,y,-z
x-y,x,-z
-y,x-y,-z
-x+y,y,z
x,x-y,z
-y,-x,z
y,x,z
x-y,-y,z
-x,-x+y,z
loop_
_atom_site_type_symbol
_atom_site_label
_atom_site_fract_x
_atom_site_fract_y
_atom_site_fract_z
Si Si1 0.574033 0.052661 0.710162
Si Si2 0.197116 0.144458 0.792162
Si Si3 0.665353 0.520140 0.702905
Si Si4 0.052912 0.292256 0.294744
Si Si5 0.760071 0.613022 0.203052
Si Si6 0.572108 0.333196 0.288905
O O1 0.575508 0.051774 0.500000
O O2 0.530139 0.060278 0.754885
O O3 0.623127 0.095896 0.774049
O O4 0.559937 0.000000 0.768746
O O5 0.190083 0.095042 0.726660
O O6 0.160251 0.160251 0.728736
O O7 0.249018 0.187406 0.748656
O O8 0.193829 0.141689 0.000000
O O9 0.655053 0.510609 0.500000
O O10 0.715709 0.566946 0.720088
O O11 0.666148 0.474430 0.772773
O O12 0.051799 0.295933 0.500000
O O13 0.096274 0.340810 0.230469
O O14 0.000000 0.276244 0.228299
O O15 0.810127 0.620254 0.269762
O O16 0.758644 0.604860 0.000000
O O17 0.571454 0.332502 0.500000
O O18 0.571873 0.285937 0.233259
O O19 0.619680 0.380321 0.236825
#
# Coordination Sequence:
#
# PCOD9587648 Si02
#       6
#    24  24  24  24  24  24
#     4   8  14  26  46  73 103 132 163 203 251 299
#     4   9  17  30  49  73 102 136 172 209 251 299
#     4  10  19  31  50  75 100 128 167 212 253 295
#     4  10  21  36  55  79 103 127 161 208 257 301
#     4  11  24  39  53  71 100 139 176 206 243 295
#     4   9  16  26  43  69  99 127 157 200 256 312
#
# _framework density 20.06305
#
# number of rings (size 3 to 8) (size 9 to 14) (size 15 to 20)
#    0.000    2.500    0.000    3.167    0.000    8.667 
#    0.000    1.667    0.000    2.167    0.000    2.333 
#    0.000    1.333    0.000    4.167    0.000    4.333 
#
# Total GULP energy -803744.696153 kJ/mol
# GULP energy per Si atom -5581.560390 kJ/mol
# Density = 2.001739 g / cm^3
# Si number density = 20.063050 Si / 1000 Ang^3
#
#
#
# Elastic Constant Matrix: (Units=GPa)
#
#
# Indices 1 2 3 4 5 6 
#
# 1 164.2163 103.7201 -5.6199 0.0000 0.0000 0.0000
# 2 103.7201 164.2163 -5.6199 0.0000 0.0000 0.0000
# 3 -5.6199 -5.6199 23.4695 0.0000 0.0000 0.0000
# 4 0.0000 0.0000 0.0000 23.7128 0.0000 0.0000
# 5 0.0000 0.0000 0.0000 0.0000 23.7128 0.0000
# 6 0.0000 0.0000 0.0000 0.0000 0.0000 30.2481
#
#
#
# Elastic Compliance Matrix: (Units=1/GPa)
#
#
# Indices 1 2 3 4 5 6 
#
# 1 0.010150 -0.006380 0.000903 0.000000 0.000000 0.000000
# 2 -0.006380 0.010150 0.000903 0.000000 0.000000 0.000000
# 3 0.000903 0.000903 0.043041 0.000000 0.000000 0.000000
# 4 0.000000 0.000000 0.000000 0.042171 0.000000 0.000000
# 5 0.000000 0.000000 0.000000 0.000000 0.042171 0.000000
# 6 0.000000 0.000000 0.000000 0.000000 0.000000 0.033060
#
#
# Mechanical properties :
#
#
# Convention : Reuss Voigt Hill
#
# Bulk Modulus (GPa) = 18.45285 59.65143 39.05214
# Shear Modulus (GPa) = 24.04350 32.82952 28.43651
#
# Velocity S-wave (km/s) = 3.46554 4.04953 3.76886
# Velocity P-wave (km/s) = 5.02302 7.18759 6.20049
#
# Compressibility (1/GPa) = 0.05419216
#
# Stress axis : x y z
#
# Youngs Moduli (GPa) = 98.52195 98.52195 23.23372
#
# Poissons Ratio (x) = 0.62856 -0.02097
# Poissons Ratio (y) = 0.62856 -0.02097
# Poissons Ratio (z) = -0.08894 -0.08894
#
# Static dielectric constant tensor:
#      x y z
#    x 1.693100 0.000000 0.000000 
#    y 0.000000 1.693100 0.000000 
#    z 0.000000 0.000000 1.751440 
# 
# From -- ./inp_files/1938.got.cif
#   From: 2010.05.17/outbox.cif.g08.bks.cpg/sg191_1_cif.got.tgz:1938.got - 2010.05.20 12:20:32.
