data_PCOD9587239
_publ_section_title
;
Structure prediction by ZEFSAII (Michael W. Deem and Ramdas Pophale) SiO2 
 PCOD9587239
Probable space group: P 6/M M M
;
_chemical_formula_sum "Si O2"
_cell_formula_units_Z 144
_cell_length_a 22.928824
_cell_length_b 22.928824
_cell_length_c 20.879138
_cell_angle_alpha 90.000000
_cell_angle_beta 90.000000
_cell_angle_gamma 120.000000
_cell_volume 9506.195857
_symmetry_space_group_name_H-M "P 6/M M M"
_symmetry_group_IT_number 191
_symmetry_cell_setting 'hexagonal'
loop_
_space_group_symop_operation_xyz
x,y,z
x-y,x,z
-y,x-y,z
-x,-y,z
-x+y,-x,z
y,-x+y,z
x-y,-y,-z
-x,-x+y,-z
y,x,-z
-y,-x,-z
-x+y,y,-z
x,x-y,-z
-x,-y,-z
-x+y,-x,-z
y,-x+y,-z
x,y,-z
x-y,x,-z
-y,x-y,-z
-x+y,y,z
x,x-y,z
-y,-x,z
y,x,z
x-y,-y,z
-x,-x+y,z
loop_
_atom_site_type_symbol
_atom_site_label
_atom_site_fract_x
_atom_site_fract_y
_atom_site_fract_z
Si Si1 0.289355 0.852176 0.070590
Si Si2 0.209537 0.924347 0.893707
Si Si3 0.148139 0.714085 0.686491
Si Si4 0.080563 0.471538 0.426274
Si Si5 0.715928 0.792047 0.738740
Si Si6 0.333936 0.527282 0.809019
O O1 0.219558 0.780443 0.071521
O O2 0.264767 0.905896 0.081633
O O3 0.331877 0.847538 0.128869
O O4 0.320015 0.861018 0.000000
O O5 0.135760 0.864241 0.913989
O O6 0.211604 0.921958 0.816158
O O7 0.230341 0.000000 0.912802
O O8 0.220479 0.779522 0.672808
O O9 0.118735 0.666610 0.625429
O O10 0.100024 0.742497 0.709847
O O11 0.158968 0.675480 0.745722
O O12 0.097742 0.465441 0.500000
O O13 0.095166 0.547583 0.416819
O O14 0.000000 0.423913 0.419033
O O15 0.735452 0.867726 0.720264
O O16 0.768058 0.768058 0.719558
O O17 0.268148 0.536296 0.812506
O O18 0.401464 0.598537 0.806937
#
# Coordination Sequence:
#
# PCOD9587239 Si02
#       6
#    24  24  24  24  24  24
#     4   9  17  30  46  63  86 116 150 188 227 266
#     4   9  16  28  46  67  90 116 148 184 222 265
#     4  10  18  29  47  69  93 120 152 189 226 269
#     4   9  18  32  48  66  90 120 153 190 231 273
#     4   9  16  27  45  68  92 117 147 184 222 261
#     4  10  19  31  46  66  90 117 150 189 232 274
#
# _framework density 15.148016
#
# number of rings (size 3 to 8) (size 9 to 14) (size 15 to 20)
#    0.000    2.667    1.667    1.667    0.000    1.000 
#    0.000    0.000    0.000    3.167    0.000    3.500 
#    0.000    0.000    0.000    4.167    0.000    4.333 
#
# Total GULP energy -802345.179048 kJ/mol
# GULP energy per Si atom -5571.841521 kJ/mol
# Density = 1.511354 g / cm^3
# Si number density = 15.148016 Si / 1000 Ang^3
#
#
#
# Elastic Constant Matrix: (Units=GPa)
#
#
# Indices 1 2 3 4 5 6 
#
# 1 85.3814 51.4657 52.9380 0.0000 0.0000 0.0000
# 2 51.4657 85.3814 52.9380 0.0000 0.0000 0.0000
# 3 52.9380 52.9380 94.6922 0.0000 0.0000 0.0000
# 4 0.0000 0.0000 0.0000 9.6625 0.0000 0.0000
# 5 0.0000 0.0000 0.0000 0.0000 9.6625 0.0000
# 6 0.0000 0.0000 0.0000 0.0000 0.0000 16.9579
#
#
#
# Elastic Compliance Matrix: (Units=1/GPa)
#
#
# Indices 1 2 3 4 5 6 
#
# 1 0.021181 -0.008304 -0.007199 0.000000 0.000000 0.000000
# 2 -0.008304 0.021181 -0.007199 0.000000 0.000000 0.000000
# 3 -0.007199 -0.007199 0.018610 0.000000 0.000000 0.000000
# 4 0.000000 0.000000 0.000000 0.103493 0.000000 0.000000
# 5 0.000000 0.000000 0.000000 0.000000 0.103493 0.000000
# 6 0.000000 0.000000 0.000000 0.000000 0.000000 0.058970
#
#
# Mechanical properties :
#
#
# Convention : Reuss Voigt Hill
#
# Bulk Modulus (GPa) = 64.23414 64.45985 64.34699
# Shear Modulus (GPa) = 13.24434 14.46415 13.85424
#
# Velocity S-wave (km/s) = 2.96011 3.09342 3.02750
# Velocity P-wave (km/s) = 7.36067 7.44344 7.40217
#
# Compressibility (1/GPa) = 0.01556805
#
# Stress axis : x y z
#
# Youngs Moduli (GPa) = 47.21212 47.21212 53.73505
#
# Poissons Ratio (x) = 0.39204 0.38684
# Poissons Ratio (y) = 0.39204 0.38684
# Poissons Ratio (z) = 0.33988 0.33988
#
# Static dielectric constant tensor:
#      x y z
#    x 1.491160 0.000000 0.000000 
#    y 0.000000 1.491160 0.000000 
#    z 0.000000 0.000000 1.503210 
# 
# From -- ./inp_files/6598.got.cif
#   From: 2010.05.17/outbox.cif.g08.bks.cpg/sg191_4_cif.got.tgz:6598.got - 2010.05.20 12:20:32.
