data_PCOD9587709
_publ_section_title
;
Structure prediction by ZEFSAII (Michael W. Deem and Ramdas Pophale) SiO2 
 PCOD9587709
Probable space group: P 6/M M M
;
_chemical_formula_sum "Si O2"
_cell_formula_units_Z 144
_cell_length_a 23.092760
_cell_length_b 23.092760
_cell_length_c 22.788560
_cell_angle_alpha 90.000000
_cell_angle_beta 90.000000
_cell_angle_gamma 120.000000
_cell_volume 10524.444904
_symmetry_space_group_name_H-M "P 6/M M M"
_symmetry_group_IT_number 191
_symmetry_cell_setting 'hexagonal'
loop_
_space_group_symop_operation_xyz
x,y,z
x-y,x,z
-y,x-y,z
-x,-y,z
-x+y,-x,z
y,-x+y,z
x-y,-y,-z
-x,-x+y,-z
y,x,-z
-y,-x,-z
-x+y,y,-z
x,x-y,-z
-x,-y,-z
-x+y,-x,-z
y,-x+y,-z
x,y,-z
x-y,x,-z
-y,x-y,-z
-x+y,y,z
x,x-y,z
-y,-x,z
y,x,z
x-y,-y,z
-x,-x+y,z
loop_
_atom_site_type_symbol
_atom_site_label
_atom_site_fract_x
_atom_site_fract_y
_atom_site_fract_z
Si Si1 0.568563 0.568563 0.932569
Si Si2 0.196644 0.666904 0.650559
Si Si3 0.391997 0.924626 0.567690
Si Si4 0.287106 0.078455 0.070730
Si Si5 0.798814 0.465715 0.212080
Si Si6 0.306957 0.868777 0.891804
Si Si7 0.464876 0.795309 0.000000
O O1 0.500000 0.500000 0.935537
O O2 0.559551 0.623370 0.899262
O O3 0.591409 0.591409 0.000000
O O4 0.208908 0.604454 0.639570
O O5 0.263641 0.736360 0.637964
O O6 0.134229 0.655455 0.611213
O O7 0.181348 0.664504 0.719950
O O8 0.368725 0.912034 0.500000
O O9 0.462617 0.925233 0.568903
O O10 0.410761 0.000000 0.583970
O O11 0.260663 0.130332 0.083973
O O12 0.361509 0.110919 0.097938
O O13 0.240734 0.000000 0.087774
O O14 0.295278 0.079022 0.000000
O O15 0.719819 0.439637 0.208994
O O16 0.812460 0.406230 0.193951
O O17 0.834968 0.528712 0.169362
O O18 0.309779 0.822874 0.943756
O O19 0.408507 0.817013 0.000000
O O20 0.431318 0.715659 0.000000
#
# Coordination Sequence:
#
# PCOD9587709 Si02
#       7
#    12  24  24  24  24  24  12
#     4  11  20  32  46  60  82 104 130 174 226 270
#     4   9  17  29  44  62  84 110 141 178 219 259
#     4   8  14  26  43  61  83 110 136 164 203 251
#     4  10  19  33  51  70  88 107 132 164 204 255
#     4  10  20  33  46  60  82 114 148 181 218 259
#     4  12  21  33  46  64  81 109 143 175 220 258
#     4  12  23  33  45  61  82 109 144 185 223 259
#
# _framework density 13.682432
#
# number of rings (size 3 to 8) (size 9 to 14) (size 15 to 20)
#    0.000    1.917    2.500    3.917    0.000    1.667 
#    1.500    1.667    0.000    1.167    0.000    1.167 
#    0.000    0.000    0.000    0.000    0.000    0.000 
#
# Total GULP energy -802554.691531 kJ/mol
# GULP energy per Si atom -5573.296469 kJ/mol
# Density = 1.365129 g / cm^3
# Si number density = 13.682432 Si / 1000 Ang^3
#
#
#
# Elastic Constant Matrix: (Units=GPa)
#
#
# Indices 1 2 3 4 5 6 
#
# 1 79.7009 46.3116 38.5354 0.0000 0.0000 0.0000
# 2 46.3116 79.7009 38.5354 0.0000 0.0000 0.0000
# 3 38.5354 38.5354 56.5623 0.0000 0.0000 0.0000
# 4 0.0000 0.0000 0.0000 20.6834 0.0000 0.0000
# 5 0.0000 0.0000 0.0000 0.0000 20.6834 0.0000
# 6 0.0000 0.0000 0.0000 0.0000 0.0000 16.6947
#
#
#
# Elastic Compliance Matrix: (Units=1/GPa)
#
#
# Indices 1 2 3 4 5 6 
#
# 1 0.021777 -0.008173 -0.009269 0.000000 0.000000 0.000000
# 2 -0.008173 0.021777 -0.009269 0.000000 0.000000 0.000000
# 3 -0.009269 -0.009269 0.030309 0.000000 0.000000 0.000000
# 4 0.000000 0.000000 0.000000 0.048348 0.000000 0.000000
# 5 0.000000 0.000000 0.000000 0.000000 0.048348 0.000000
# 6 0.000000 0.000000 0.000000 0.000000 0.000000 0.059899
#
#
# Mechanical properties :
#
#
# Convention : Reuss Voigt Hill
#
# Bulk Modulus (GPa) = 48.91553 51.41430 50.16492
# Shear Modulus (GPa) = 17.20029 17.78440 17.49235
#
# Velocity S-wave (km/s) = 3.54942 3.60918 3.57943
# Velocity P-wave (km/s) = 7.25438 7.41800 7.33665
#
# Compressibility (1/GPa) = 0.02044340
#
# Stress axis : x y z
#
# Youngs Moduli (GPa) = 45.91975 45.91975 32.99360
#
# Poissons Ratio (x) = 0.37528 0.30581
# Poissons Ratio (y) = 0.37528 0.30581
# Poissons Ratio (z) = 0.42561 0.42561
#
# Static dielectric constant tensor:
#      x y z
#    x 1.466820 0.000000 0.000000 
#    y 0.000000 1.466820 0.000000 
#    z 0.000000 0.000000 1.448980 
# 
# From -- ./inp_files/7844.got.cif
#   From: 2010.05.17/outbox.cif.g08.bks.cpg/sg191_4_cif.got.tgz:7844.got - 2010.05.20 12:20:32.
