data_PCOD9587830
_publ_section_title
;
Structure prediction by ZEFSAII (Michael W. Deem and Ramdas Pophale) SiO2 
 PCOD9587830
Probable space group: P 6/M M M
;
_chemical_formula_sum "Si O2"
_cell_formula_units_Z 144
_cell_length_a 33.581559
_cell_length_b 33.581559
_cell_length_c 8.619567
_cell_angle_alpha 90.000000
_cell_angle_beta 90.000000
_cell_angle_gamma 120.000000
_cell_volume 8418.171896
_symmetry_space_group_name_H-M "P 6/M M M"
_symmetry_group_IT_number 191
_symmetry_cell_setting 'hexagonal'
loop_
_space_group_symop_operation_xyz
x,y,z
x-y,x,z
-y,x-y,z
-x,-y,z
-x+y,-x,z
y,-x+y,z
x-y,-y,-z
-x,-x+y,-z
y,x,-z
-y,-x,-z
-x+y,y,-z
x,x-y,-z
-x,-y,-z
-x+y,-x,-z
y,-x+y,-z
x,y,-z
x-y,x,-z
-y,x-y,-z
-x+y,y,z
x,x-y,z
-y,-x,z
y,x,z
x-y,-y,z
-x,-x+y,z
loop_
_atom_site_type_symbol
_atom_site_label
_atom_site_fract_x
_atom_site_fract_y
_atom_site_fract_z
Si Si1 0.716272 0.768790 0.685927
Si Si2 0.372568 0.139846 0.185779
Si Si3 0.052027 0.194539 0.812424
Si Si4 0.427278 0.951166 0.182016
Si Si5 0.190051 0.717722 0.685202
Si Si6 0.620554 0.471246 0.188031
O O1 0.715321 0.769965 0.500000
O O2 0.731667 0.731667 0.732460
O O3 0.668045 0.760000 0.751036
O O4 0.756882 0.817810 0.747136
O O5 0.364887 0.182444 0.233958
O O6 0.422839 0.152793 0.246402
O O7 0.372449 0.138560 0.000000
O O8 0.092455 0.184910 0.762882
O O9 0.000000 0.156828 0.766326
O O10 0.053104 0.197400 0.000000
O O11 0.475592 0.951184 0.184559
O O12 0.391582 0.901559 0.246959
O O13 0.438213 0.000000 0.251619
O O14 0.415981 0.951468 0.000000
O O15 0.186201 0.715626 0.500000
O O16 0.239342 0.760659 0.728983
O O17 0.183864 0.670548 0.750362
O O18 0.578879 0.421122 0.234514
O O19 0.620525 0.472256 0.000000
#
# Coordination Sequence:
#
# PCOD9587830 Si02
#       6
#    24  24  24  24  24  24
#     4  10  20  32  47  70 100 130 159 196 244 296
#     4  10  20  34  53  74  95 124 164 206 245 288
#     4   9  17  29  45  65  90 122 161 204 250 302
#     4   7  10  19  38  65  95 123 150 180 213 254
#     4  10  21  36  53  73  98 130 167 205 246 292
#     4   9  17  30  51  78 103 128 161 200 241 284
#
# _framework density 17.105851999999999
#
# number of rings (size 3 to 8) (size 9 to 14) (size 15 to 20)
#    0.000    2.833    0.000    3.500    0.000    5.667 
#    0.000    0.833    0.000    4.000    0.000    3.500 
#    0.000    0.000    0.000    4.167    0.000    4.333 
#
# Total GULP energy -802101.212289 kJ/mol
# GULP energy per Si atom -5570.147308 kJ/mol
# Density = 1.706692 g / cm^3
# Si number density = 17.105852 Si / 1000 Ang^3
#
#
#
# Elastic Constant Matrix: (Units=GPa)
#
#
# Indices 1 2 3 4 5 6 
#
# 1 109.8493 69.3994 27.6885 0.0000 0.0000 0.0000
# 2 69.3994 109.8493 27.6885 0.0000 0.0000 0.0000
# 3 27.6885 27.6885 18.7778 0.0000 0.0000 0.0000
# 4 0.0000 0.0000 0.0000 17.0588 0.0000 0.0000
# 5 0.0000 0.0000 0.0000 0.0000 17.0588 0.0000
# 6 0.0000 0.0000 0.0000 0.0000 0.0000 20.2249
#
#
#
# Elastic Compliance Matrix: (Units=1/GPa)
#
#
# Indices 1 2 3 4 5 6 
#
# 1 0.017484 -0.007238 -0.015109 0.000000 0.000000 0.000000
# 2 -0.007238 0.017484 -0.015109 0.000000 0.000000 0.000000
# 3 -0.015109 -0.015109 0.097812 0.000000 0.000000 0.000000
# 4 0.000000 0.000000 0.000000 0.058621 0.000000 0.000000
# 5 0.000000 0.000000 0.000000 0.000000 0.058621 0.000000
# 6 0.000000 0.000000 0.000000 0.000000 0.000000 0.049444
#
#
# Mechanical properties :
#
#
# Convention : Reuss Voigt Hill
#
# Bulk Modulus (GPa) = 17.28032 54.22546 35.75289
# Shear Modulus (GPa) = 12.70108 18.44850 15.57479
#
# Velocity S-wave (km/s) = 2.72784 3.28760 3.02071
# Velocity P-wave (km/s) = 4.47721 6.79558 5.75436
#
# Compressibility (1/GPa) = 0.05786930
#
# Stress axis : x y z
#
# Youngs Moduli (GPa) = 57.19418 57.19418 10.22368
#
# Poissons Ratio (x) = 0.41395 0.15447
# Poissons Ratio (y) = 0.41395 0.15447
# Poissons Ratio (z) = 0.86415 0.86415
#
# Static dielectric constant tensor:
#      x y z
#    x 1.585360 0.000000 0.000000 
#    y 0.000000 1.585360 0.000000 
#    z 0.000000 0.000000 1.580970 
# 
# From -- ./inp_files/1959.got.cif
#   From: 2010.05.17/outbox.cif.g08.bks.cpg/sg191_1_cif.got.tgz:1959.got - 2010.05.20 12:20:32.
