data_PCOD9587740
_publ_section_title
;
Structure prediction by ZEFSAII (Michael W. Deem and Ramdas Pophale) SiO2 
 PCOD9587740
Probable space group: P 6/M M M
;
_chemical_formula_sum "Si O2"
_cell_formula_units_Z 84
_cell_length_a 17.493808
_cell_length_b 17.493808
_cell_length_c 19.701301
_cell_angle_alpha 90.000000
_cell_angle_beta 90.000000
_cell_angle_gamma 120.000000
_cell_volume 5221.487581
_symmetry_space_group_name_H-M "P 6/M M M"
_symmetry_group_IT_number 191
_symmetry_cell_setting 'hexagonal'
loop_
_space_group_symop_operation_xyz
x,y,z
x-y,x,z
-y,x-y,z
-x,-y,z
-x+y,-x,z
y,-x+y,z
x-y,-y,-z
-x,-x+y,-z
y,x,-z
-y,-x,-z
-x+y,y,-z
x,x-y,-z
-x,-y,-z
-x+y,-x,-z
y,-x+y,-z
x,y,-z
x-y,x,-z
-y,x-y,-z
-x+y,y,z
x,x-y,z
-y,-x,z
y,x,z
x-y,-y,z
-x,-x+y,z
loop_
_atom_site_type_symbol
_atom_site_label
_atom_site_fract_x
_atom_site_fract_y
_atom_site_fract_z
Si Si1 0.355266 0.355266 0.103887
Si Si2 0.484718 0.152529 0.361458
Si Si3 0.483252 0.148976 0.000000
Si Si4 0.099901 0.723889 0.500000
Si Si5 0.408100 0.000000 0.258206
Si Si6 0.000000 0.825089 0.917927
O O1 0.343578 0.429933 0.064033
O O2 0.378860 0.378860 0.181902
O O3 0.263784 0.263784 0.099406
O O4 0.578297 0.156593 0.364106
O O5 0.497070 0.248535 0.350353
O O6 0.435130 0.116714 0.433038
O O7 0.427817 0.085680 0.301717
O O8 0.582932 0.165863 0.000000
O O9 0.480604 0.240302 0.000000
O O10 0.173407 0.826594 0.500000
O O11 0.000000 0.702113 0.500000
O O12 0.500000 0.000000 0.255634
O O13 0.911915 0.823829 0.893779
O O14 0.000000 0.829159 0.000000
#
# Coordination Sequence:
#
# PCOD9587740 Si02
#       6
#    12  24  12  12  12  12
#     4  11  21  36  57  78 103 136 179 222 259 316
#     4  10  20  33  52  77 108 142 178 217 262 311
#     4  11  22  37  56  78 104 135 174 221 272 322
#     4  10  19  33  55  82 109 140 176 222 265 311
#     4  10  21  36  52  73 103 142 178 216 262 306
#     4  10  19  33  54  81 106 128 156 201 260 318
#
# _framework density 16.08737
#
# number of rings (size 3 to 8) (size 9 to 14) (size 15 to 20)
#    0.000    1.714    2.857    3.571    0.000    3.429 
#    0.000    1.429    0.000    3.571    0.000    0.000 
#    0.000    0.000    0.000    0.000    0.000    0.000 
#
# Total GULP energy -468719.232012 kJ/mol
# GULP energy per Si atom -5579.990857 kJ/mol
# Density = 1.605075 g / cm^3
# Si number density = 16.087370 Si / 1000 Ang^3
#
#
#
# Elastic Constant Matrix: (Units=GPa)
#
#
# Indices 1 2 3 4 5 6 
#
# 1 124.6878 76.2572 59.2958 0.0000 0.0000 0.0000
# 2 76.2572 124.6878 59.2958 0.0000 0.0000 0.0000
# 3 59.2958 59.2958 137.1250 0.0000 0.0000 0.0000
# 4 0.0000 0.0000 0.0000 14.3875 0.0000 0.0000
# 5 0.0000 0.0000 0.0000 0.0000 14.3875 0.0000
# 6 0.0000 0.0000 0.0000 0.0000 0.0000 24.2153
#
#
#
# Elastic Compliance Matrix: (Units=1/GPa)
#
#
# Indices 1 2 3 4 5 6 
#
# 1 0.013665 -0.006983 -0.002889 0.000000 0.000000 0.000000
# 2 -0.006983 0.013665 -0.002889 0.000000 0.000000 0.000000
# 3 -0.002889 -0.002889 0.009791 0.000000 0.000000 0.000000
# 4 0.000000 0.000000 0.000000 0.069505 0.000000 0.000000
# 5 0.000000 0.000000 0.000000 0.000000 0.069505 0.000000
# 6 0.000000 0.000000 0.000000 0.000000 0.000000 0.041296
#
#
# Mechanical properties :
#
#
# Convention : Reuss Voigt Hill
#
# Bulk Modulus (GPa) = 86.22514 86.24425 86.23470
# Shear Modulus (GPa) = 20.25801 23.37486 21.81643
#
# Velocity S-wave (km/s) = 3.55244 3.81595 3.68655
# Velocity P-wave (km/s) = 8.39886 8.55229 8.47592
#
# Compressibility (1/GPa) = 0.01159755
#
# Stress axis : x y z
#
# Youngs Moduli (GPa) = 73.18028 73.18028 102.13035
#
# Poissons Ratio (x) = 0.51103 0.29508
# Poissons Ratio (y) = 0.51103 0.29508
# Poissons Ratio (z) = 0.21144 0.21144
#
# Static dielectric constant tensor:
#      x y z
#    x 1.527730 0.000000 0.000000 
#    y 0.000000 1.527730 0.000000 
#    z 0.000000 0.000000 1.522920 
# 
# From -- ./inp_files/4046.got.cif
#   From: 2010.05.17/outbox.cif.g08.bks.cpg/sg191_3_cif.got.tgz:4046.got - 2010.05.20 12:20:32.
