data_PCOD9587133
_publ_section_title
;
Structure prediction by ZEFSAII (Michael W. Deem and Ramdas Pophale) SiO2 
 PCOD9587133
Probable space group: P 6/M M M
;
_chemical_formula_sum "Si O2"
_cell_formula_units_Z 168
_cell_length_a 23.224862
_cell_length_b 23.224862
_cell_length_c 23.008587
_cell_angle_alpha 90.000000
_cell_angle_beta 90.000000
_cell_angle_gamma 120.000000
_cell_volume 10747.980371
_symmetry_space_group_name_H-M "P 6/M M M"
_symmetry_group_IT_number 191
_symmetry_cell_setting 'hexagonal'
loop_
_space_group_symop_operation_xyz
x,y,z
x-y,x,z
-y,x-y,z
-x,-y,z
-x+y,-x,z
y,-x+y,z
x-y,-y,-z
-x,-x+y,-z
y,x,-z
-y,-x,-z
-x+y,y,-z
x,x-y,-z
-x,-y,-z
-x+y,-x,-z
y,-x+y,-z
x,y,-z
x-y,x,-z
-y,x-y,-z
-x+y,y,z
x,x-y,z
-y,-x,z
y,x,z
x-y,-y,z
-x,-x+y,z
loop_
_atom_site_type_symbol
_atom_site_label
_atom_site_fract_x
_atom_site_fract_y
_atom_site_fract_z
Si Si1 0.395036 0.318711 0.933203
Si Si2 0.792411 0.076067 0.854278
Si Si3 0.393251 0.920393 0.432029
Si Si4 0.333657 0.534126 0.242294
Si Si5 0.925022 0.718675 0.283898
Si Si6 0.856062 0.279876 0.337055
Si Si7 0.198014 0.666524 0.896689
O O1 0.376872 0.376872 0.922591
O O2 0.348556 0.258824 0.890139
O O3 0.471080 0.338858 0.924072
O O4 0.376609 0.297002 0.000000
O O5 0.867431 0.132570 0.868004
O O6 0.782522 0.079995 0.785115
O O7 0.772405 0.000000 0.867053
O O8 0.374907 0.905663 0.500000
O O9 0.451861 0.903721 0.419784
O O10 0.331726 0.882749 0.389312
O O11 0.426965 0.000000 0.424423
O O12 0.276705 0.553409 0.252951
O O13 0.405206 0.594795 0.258504
O O14 0.314043 0.469727 0.280644
O O15 0.332887 0.522544 0.173307
O O16 0.869317 0.738633 0.296280
O O17 0.905618 0.652134 0.319422
O O18 0.000000 0.774583 0.296128
O O19 0.785193 0.214808 0.350637
O O20 0.206104 0.603052 0.910878
O O21 0.264472 0.735529 0.912647
#
# Coordination Sequence:
#
# PCOD9587133 Si02
#       7
#    24  24  24  24  24  24  24
#     4  10  21  35  50  67  87 115 149 184 224 267
#     4   9  17  30  48  69  93 120 150 183 220 264
#     4   9  18  32  47  61  82 117 156 188 218 255
#     4   9  17  29  45  65  89 117 148 181 218 260
#     4   9  17  29  46  68  93 119 145 177 219 265
#     4  10  18  27  44  69  92 114 143 182 227 267
#     4  10  20  34  51  69  90 116 146 180 219 265
#
# _framework density 15.630844
#
# number of rings (size 3 to 8) (size 9 to 14) (size 15 to 20)
#    0.000    2.571    0.000    2.857    0.000    5.429 
#    0.000    1.429    0.000    3.143    0.000    2.000 
#    0.000    0.000    0.000    3.571    0.000    3.714 
#
# Total GULP energy -936501.528139 kJ/mol
# GULP energy per Si atom -5574.413858 kJ/mol
# Density = 1.559527 g / cm^3
# Si number density = 15.630844 Si / 1000 Ang^3
#
#
#
# Elastic Constant Matrix: (Units=GPa)
#
#
# Indices 1 2 3 4 5 6 
#
# 1 92.4770 57.8601 34.3120 0.0000 0.0000 0.0000
# 2 57.8601 92.4770 34.3120 0.0000 0.0000 0.0000
# 3 34.3120 34.3120 32.6373 0.0000 0.0000 0.0000
# 4 0.0000 0.0000 0.0000 19.0595 0.0000 0.0000
# 5 0.0000 0.0000 0.0000 0.0000 19.0595 0.0000
# 6 0.0000 0.0000 0.0000 0.0000 0.0000 17.3085
#
#
#
# Elastic Compliance Matrix: (Units=1/GPa)
#
#
# Indices 1 2 3 4 5 6 
#
# 1 0.020838 -0.008049 -0.013445 0.000000 0.000000 0.000000
# 2 -0.008049 0.020838 -0.013445 0.000000 0.000000 0.000000
# 3 -0.013445 -0.013445 0.058910 0.000000 0.000000 0.000000
# 4 0.000000 0.000000 0.000000 0.052467 0.000000 0.000000
# 5 0.000000 0.000000 0.000000 0.000000 0.052467 0.000000
# 6 0.000000 0.000000 0.000000 0.000000 0.000000 0.057775
#
#
# Mechanical properties :
#
#
# Convention : Reuss Voigt Hill
#
# Bulk Modulus (GPa) = 32.56569 52.28440 42.42504
# Shear Modulus (GPa) = 14.55976 17.15933 15.85954
#
# Velocity S-wave (km/s) = 3.05532 3.31688 3.18878
# Velocity P-wave (km/s) = 5.77288 6.94198 6.38425
#
# Compressibility (1/GPa) = 0.03070717
#
# Stress axis : x y z
#
# Youngs Moduli (GPa) = 47.98848 47.98848 16.97492
#
# Poissons Ratio (x) = 0.38627 0.22823
# Poissons Ratio (y) = 0.38627 0.22823
# Poissons Ratio (z) = 0.64522 0.64522
#
# Static dielectric constant tensor:
#      x y z
#    x 1.509290 0.000000 0.000000 
#    y 0.000000 1.509290 0.000000 
#    z 0.000000 0.000000 1.509700 
# 
# From -- ./inp_files/7951.got.cif
#   From: 2010.05.17/outbox.cif.g08.bks.cpg/sg191_4_cif.got.tgz:7951.got - 2010.05.20 12:20:32.
