data_PCOD9587735
_publ_section_title
;
Structure prediction by ZEFSAII (Michael W. Deem and Ramdas Pophale) SiO2 
 PCOD9587735
Probable space group: P 6/M M M
;
_chemical_formula_sum "Si O2"
_cell_formula_units_Z 150
_cell_length_a 17.653891
_cell_length_b 17.653891
_cell_length_c 33.450114
_cell_angle_alpha 90.000000
_cell_angle_beta 90.000000
_cell_angle_gamma 120.000000
_cell_volume 9028.365146
_symmetry_space_group_name_H-M "P 6/M M M"
_symmetry_group_IT_number 191
_symmetry_cell_setting 'hexagonal'
loop_
_space_group_symop_operation_xyz
x,y,z
x-y,x,z
-y,x-y,z
-x,-y,z
-x+y,-x,z
y,-x+y,z
x-y,-y,-z
-x,-x+y,-z
y,x,-z
-y,-x,-z
-x+y,y,-z
x,x-y,-z
-x,-y,-z
-x+y,-x,-z
y,-x+y,-z
x,y,-z
x-y,x,-z
-y,x-y,-z
-x+y,y,z
x,x-y,z
-y,-x,z
y,x,z
x-y,-y,z
-x,-x+y,z
loop_
_atom_site_type_symbol
_atom_site_label
_atom_site_fract_x
_atom_site_fract_y
_atom_site_fract_z
Si Si1 0.726207 0.628028 0.500000
Si Si2 0.194511 0.389021 0.954906
Si Si3 0.103686 0.727383 0.817426
Si Si4 0.532583 0.638125 0.736563
Si Si5 0.787070 0.893535 0.000000
Si Si6 0.372028 0.101010 0.342593
Si Si7 0.895665 0.533839 0.101114
Si Si8 0.155251 0.487994 0.578880
O O1 0.707044 0.707044 0.500000
O O2 0.827523 0.655046 0.500000
O O3 0.683106 0.569146 0.460788
O O4 0.141658 0.283316 0.962846
O O5 0.284085 0.424686 0.930775
O O6 0.212532 0.425064 0.000000
O O7 0.169129 0.830872 0.821278
O O8 0.125955 0.694835 0.776468
O O9 0.120997 0.680313 0.854766
O O10 0.000000 0.694289 0.817380
O O11 0.429275 0.570726 0.737378
O O12 0.579662 0.579662 0.736215
O O13 0.565356 0.693362 0.696116
O O14 0.845797 0.845797 0.000000
O O15 0.336299 0.168150 0.346045
O O16 0.429242 0.113012 0.381940
O O17 0.299162 0.000000 0.338344
O O18 0.861330 0.430665 0.097057
O O19 0.000000 0.582824 0.096496
O O20 0.257205 0.514409 0.578939
O O21 0.144852 0.572426 0.579187
#
# Coordination Sequence:
#
# PCOD9587735 Si02
#       8
#    12  12  24  24   6  24  24  24
#     4  10  21  35  51  72  97 129 170 214 257 303
#     4  10  22  37  56  82 110 142 178 217 260 313
#     4  10  19  33  54  79 105 137 177 218 263 312
#     4   9  17  30  50  75 101 129 165 206 250 306
#     4  10  21  38  62  90 118 146 182 228 277 322
#     4  10  20  33  50  73 101 134 171 213 260 308
#     4  10  20  36  57  78 103 139 178 215 258 309
#     4  10  20  33  50  73 102 135 169 206 251 302
#
# _framework density 16.614304000000001
#
# number of rings (size 3 to 8) (size 9 to 14) (size 15 to 20)
#    0.240    1.920    0.800    2.840    0.000    4.480 
#    0.480    1.600    0.000    4.880    0.000    0.000 
#    0.000    7.680    0.000    0.000    0.000    0.960 
#
# Total GULP energy -836065.025555 kJ/mol
# GULP energy per Si atom -5573.766837 kJ/mol
# Density = 1.657649 g / cm^3
# Si number density = 16.614304 Si / 1000 Ang^3
#
#
#
# Elastic Constant Matrix: (Units=GPa)
#
#
# Indices 1 2 3 4 5 6 
#
# 1 98.7316 74.3395 44.7039 0.0000 0.0000 0.0000
# 2 74.3395 98.7316 44.7039 0.0000 0.0000 0.0000
# 3 44.7039 44.7039 139.5775 0.0000 0.0000 0.0000
# 4 0.0000 0.0000 0.0000 15.3620 0.0000 0.0000
# 5 0.0000 0.0000 0.0000 0.0000 15.3620 0.0000
# 6 0.0000 0.0000 0.0000 0.0000 0.0000 12.1961
#
#
#
# Elastic Compliance Matrix: (Units=1/GPa)
#
#
# Indices 1 2 3 4 5 6 
#
# 1 0.023960 -0.017037 -0.002217 0.000000 0.000000 0.000000
# 2 -0.017037 0.023960 -0.002217 0.000000 0.000000 0.000000
# 3 -0.002217 -0.002217 0.008585 0.000000 0.000000 0.000000
# 4 0.000000 0.000000 0.000000 0.065096 0.000000 0.000000
# 5 0.000000 0.000000 0.000000 0.000000 0.065096 0.000000
# 6 0.000000 0.000000 0.000000 0.000000 0.000000 0.081994
#
#
# Mechanical properties :
#
#
# Convention : Reuss Voigt Hill
#
# Bulk Modulus (GPa) = 73.73514 73.83728 73.78621
# Shear Modulus (GPa) = 15.81506 20.13689 17.97598
#
# Velocity S-wave (km/s) = 3.08863 3.48519 3.29288
# Velocity P-wave (km/s) = 7.56283 7.79319 7.67887
#
# Compressibility (1/GPa) = 0.01356205
#
# Stress axis : x y z
#
# Youngs Moduli (GPa) = 41.73596 41.73596 116.48359
#
# Poissons Ratio (x) = 0.71104 0.25830
# Poissons Ratio (y) = 0.71104 0.25830
# Poissons Ratio (z) = 0.09255 0.09255
#
# Static dielectric constant tensor:
#      x y z
#    x 1.554720 0.000000 0.000000 
#    y 0.000000 1.554720 0.000000 
#    z 0.000000 0.000000 1.556800 
# 
# From -- ./inp_files/10720.got.cif
#   From: 2010.05.17/outbox.cif.g08.bks.cpg/sg191_6_cif.got.tgz:10720.got - 2010.05.20 12:20:32.
