data_PCOD9587601
_publ_section_title
;
Structure prediction by ZEFSAII (Michael W. Deem and Ramdas Pophale) SiO2 
 PCOD9587601
Probable space group: P 6/M M M
;
_chemical_formula_sum "Si O2"
_cell_formula_units_Z 144
_cell_length_a 33.533209
_cell_length_b 33.533209
_cell_length_c 8.542518
_cell_angle_alpha 90.000000
_cell_angle_beta 90.000000
_cell_angle_gamma 120.000000
_cell_volume 8318.916512
_symmetry_space_group_name_H-M "P 6/M M M"
_symmetry_group_IT_number 191
_symmetry_cell_setting 'hexagonal'
loop_
_space_group_symop_operation_xyz
x,y,z
x-y,x,z
-y,x-y,z
-x,-y,z
-x+y,-x,z
y,-x+y,z
x-y,-y,-z
-x,-x+y,-z
y,x,-z
-y,-x,-z
-x+y,y,-z
x,x-y,-z
-x,-y,-z
-x+y,-x,-z
y,-x+y,-z
x,y,-z
x-y,x,-z
-y,x-y,-z
-x+y,y,z
x,x-y,z
-y,-x,z
y,x,z
x-y,-y,z
-x,-x+y,z
loop_
_atom_site_type_symbol
_atom_site_label
_atom_site_fract_x
_atom_site_fract_y
_atom_site_fract_z
Si Si1 0.283379 0.900431 0.187427
Si Si2 0.282838 0.807769 0.811167
Si Si3 0.526264 0.142941 0.689186
Si Si4 0.857834 0.051740 0.810805
Si Si5 0.295829 0.101910 0.687322
Si Si6 0.051180 0.435360 0.688965
O O1 0.274650 0.849864 0.235314
O O2 0.242552 0.907439 0.249689
O O3 0.333615 0.936087 0.253025
O O4 0.284383 0.902677 0.000000
O O5 0.240691 0.759310 0.756787
O O6 0.332761 0.820482 0.748607
O O7 0.283913 0.807320 0.000000
O O8 0.526150 0.143393 0.500000
O O9 0.575418 0.150835 0.742199
O O10 0.485001 0.092588 0.740924
O O11 0.908384 0.091617 0.757962
O O12 0.822056 0.067311 0.753095
O O13 0.841466 0.000000 0.758131
O O14 0.857754 0.052062 0.000000
O O15 0.294597 0.099440 0.500000
O O16 0.306463 0.153232 0.733962
O O17 0.051591 0.435502 0.500000
O O18 0.000000 0.421431 0.741321
#
# Coordination Sequence:
#
# PCOD9587601 Si02
#       6
#    24  24  24  24  24  24
#     4  10  19  31  48  69  96 129 163 199 237 277
#     4   9  18  32  50  72  96 123 156 193 235 284
#     4   9  18  32  50  73  98 123 155 195 238 284
#     4   9  18  33  52  72  94 122 156 192 231 277
#     4  10  20  32  47  69  96 125 158 195 233 275
#     4   9  18  32  48  67  94 128 164 200 237 276
#
# _framework density 17.309947000000001
#
# number of rings (size 3 to 8) (size 9 to 14) (size 15 to 20)
#    0.000    2.667    0.000    1.500    0.000    4.667 
#    0.000    1.667    0.000    0.500    0.000    5.833 
#    0.000    0.000    0.000    4.167    0.000    4.333 
#
# Total GULP energy -803062.977352 kJ/mol
# GULP energy per Si atom -5576.826232 kJ/mol
# Density = 1.727055 g / cm^3
# Si number density = 17.309947 Si / 1000 Ang^3
#
#
#
# Elastic Constant Matrix: (Units=GPa)
#
#
# Indices 1 2 3 4 5 6 
#
# 1 98.3857 71.1366 11.7014 0.0000 0.0000 0.0000
# 2 71.1366 98.3857 11.7014 0.0000 0.0000 0.0000
# 3 11.7014 11.7014 4.5278 0.0000 0.0000 0.0000
# 4 0.0000 0.0000 0.0000 20.1370 0.0000 0.0000
# 5 0.0000 0.0000 0.0000 0.0000 20.1370 0.0000
# 6 0.0000 0.0000 0.0000 0.0000 0.0000 13.6245
#
#
#
# Elastic Compliance Matrix: (Units=1/GPa)
#
#
# Indices 1 2 3 4 5 6 
#
# 1 0.022935 -0.013764 -0.023700 0.000000 0.000000 0.000000
# 2 -0.013764 0.022935 -0.023700 0.000000 0.000000 0.000000
# 3 -0.023700 -0.023700 0.343355 0.000000 0.000000 0.000000
# 4 0.000000 0.000000 0.000000 0.049660 0.000000 0.000000
# 5 0.000000 0.000000 0.000000 0.000000 0.049660 0.000000
# 6 0.000000 0.000000 0.000000 0.000000 0.000000 0.073397
#
#
# Mechanical properties :
#
#
# Convention : Reuss Voigt Hill
#
# Bulk Modulus (GPa) = 3.74678 43.37532 23.56105
# Shear Modulus (GPa) = 6.46634 17.89703 12.18169
#
# Velocity S-wave (km/s) = 1.93487 3.21895 2.65569
# Velocity P-wave (km/s) = 2.67598 6.23922 4.80046
#
# Compressibility (1/GPa) = 0.26689574
#
# Stress axis : x y z
#
# Youngs Moduli (GPa) = 43.60217 43.60217 2.91243
#
# Poissons Ratio (x) = 0.60013 0.06903
# Poissons Ratio (y) = 0.60013 0.06903
# Poissons Ratio (z) = 1.03338 1.03338
#
# Static dielectric constant tensor:
#      x y z
#    x 1.578240 0.000000 0.000000 
#    y 0.000000 1.578240 0.000000 
#    z 0.000000 0.000000 1.589910 
# 
# From -- ./inp_files/1935.got.cif
#   From: 2010.05.17/outbox.cif.g08.bks.cpg/sg191_1_cif.got.tgz:1935.got - 2010.05.20 12:20:32.
