data_PCOD9587658
_publ_section_title
;
Structure prediction by ZEFSAII (Michael W. Deem and Ramdas Pophale) SiO2 
 PCOD9587658
Probable space group: P 6/M M M
;
_chemical_formula_sum "Si O2"
_cell_formula_units_Z 132
_cell_length_a 23.178792
_cell_length_b 23.178792
_cell_length_c 17.984760
_cell_angle_alpha 90.000000
_cell_angle_beta 90.000000
_cell_angle_gamma 120.000000
_cell_volume 8367.907579
_symmetry_space_group_name_H-M "P 6/M M M"
_symmetry_group_IT_number 191
_symmetry_cell_setting 'hexagonal'
loop_
_space_group_symop_operation_xyz
x,y,z
x-y,x,z
-y,x-y,z
-x,-y,z
-x+y,-x,z
y,-x+y,z
x-y,-y,-z
-x,-x+y,-z
y,x,-z
-y,-x,-z
-x+y,y,-z
x,x-y,-z
-x,-y,-z
-x+y,-x,-z
y,-x+y,-z
x,y,-z
x-y,x,-z
-y,x-y,-z
-x+y,y,z
x,x-y,z
-y,-x,z
y,x,z
x-y,-y,z
-x,-x+y,z
loop_
_atom_site_type_symbol
_atom_site_label
_atom_site_fract_x
_atom_site_fract_y
_atom_site_fract_z
Si Si1 0.284603 0.850924 0.858625
Si Si2 0.473011 0.392955 0.731865
Si Si3 0.332976 0.528763 0.000000
Si Si4 0.797069 0.075228 0.409586
Si Si5 0.281858 0.075652 0.909990
Si Si6 0.331638 0.412375 0.583660
O O1 0.220498 0.779503 0.840006
O O2 0.334693 0.882843 0.790781
O O3 0.255284 0.898279 0.882701
O O4 0.321361 0.838555 0.927890
O O5 0.546910 0.453091 0.745632
O O6 0.424234 0.424234 0.737648
O O7 0.465628 0.364872 0.648321
O O8 0.404227 0.595774 0.000000
O O9 0.272556 0.545112 0.000000
O O10 0.799108 0.073007 0.500000
O O11 0.869255 0.130746 0.382668
O O12 0.742147 0.096741 0.393570
O O13 0.769206 0.000000 0.382396
O O14 0.262990 0.131495 0.886866
O O15 0.232757 0.000000 0.885158
O O16 0.283367 0.075852 0.000000
O O17 0.330590 0.436386 0.500000
O O18 0.373591 0.373591 0.579422
#
# Coordination Sequence:
#
# PCOD9587658 Si02
#       6
#    24  24  12  24  24  24
#     4  10  19  32  48  67  93 125 158 191 230 274
#     4  10  20  32  46  68  97 122 147 185 234 283
#     4  10  19  32  49  67  88 117 156 196 229 267
#     4   8  13  22  38  60  85 113 147 187 228 270
#     4   9  16  28  47  69  93 123 160 198 234 276
#     4   8  15  28  44  62  86 117 151 186 226 275
#
# _framework density 15.774552999999999
#
# number of rings (size 3 to 8) (size 9 to 14) (size 15 to 20)
#    0.000    2.909    0.909    2.273    0.000    1.091 
#    0.000    1.818    0.000    2.909    0.000    2.545 
#    0.000    0.000    0.000    0.000    0.000   23.636 
#
# Total GULP energy -735104.584298 kJ/mol
# GULP energy per Si atom -5568.974123 kJ/mol
# Density = 1.573865 g / cm^3
# Si number density = 15.774553 Si / 1000 Ang^3
#
#
#
# Elastic Constant Matrix: (Units=GPa)
#
#
# Indices 1 2 3 4 5 6 
#
# 1 92.6785 57.9747 38.6364 0.0000 0.0000 0.0000
# 2 57.9747 92.6785 38.6364 0.0000 0.0000 0.0000
# 3 38.6364 38.6364 56.7458 0.0000 0.0000 0.0000
# 4 0.0000 0.0000 0.0000 18.6264 0.0000 0.0000
# 5 0.0000 0.0000 0.0000 0.0000 18.6264 0.0000
# 6 0.0000 0.0000 0.0000 0.0000 0.0000 17.3519
#
#
#
# Elastic Compliance Matrix: (Units=1/GPa)
#
#
# Indices 1 2 3 4 5 6 
#
# 1 0.019508 -0.009308 -0.006945 0.000000 0.000000 0.000000
# 2 -0.009308 0.019508 -0.006945 0.000000 0.000000 0.000000
# 3 -0.006945 -0.006945 0.027079 0.000000 0.000000 0.000000
# 4 0.000000 0.000000 0.000000 0.053687 0.000000 0.000000
# 5 0.000000 0.000000 0.000000 0.000000 0.053687 0.000000
# 6 0.000000 0.000000 0.000000 0.000000 0.000000 0.057631
#
#
# Mechanical properties :
#
#
# Convention : Reuss Voigt Hill
#
# Bulk Modulus (GPa) = 50.76127 56.95530 53.85829
# Shear Modulus (GPa) = 17.60185 18.04460 17.82323
#
# Velocity S-wave (km/s) = 3.34404 3.38584 3.36500
# Velocity P-wave (km/s) = 6.86726 7.17422 7.02241
#
# Compressibility (1/GPa) = 0.01970006
#
# Stress axis : x y z
#
# Youngs Moduli (GPa) = 51.26212 51.26212 36.92847
#
# Poissons Ratio (x) = 0.47713 0.25646
# Poissons Ratio (y) = 0.47713 0.25646
# Poissons Ratio (z) = 0.35600 0.35600
#
# Static dielectric constant tensor:
#      x y z
#    x 1.521760 0.000000 0.000000 
#    y 0.000000 1.521760 0.000000 
#    z 0.000000 0.000000 1.529490 
# 
# From -- ./inp_files/4950.got.cif
#   From: 2010.05.17/outbox.cif.g08.bks.cpg/sg191_3_cif.got.tgz:4950.got - 2010.05.20 12:20:32.
