data_PCOD9587843
_publ_section_title
;
Structure prediction by ZEFSAII (Michael W. Deem and Ramdas Pophale) SiO2 
 PCOD9587843
Probable space group: P 6/M M M
;
_chemical_formula_sum "Si O2"
_cell_formula_units_Z 66
_cell_length_a 24.413891
_cell_length_b 24.413891
_cell_length_c 8.003020
_cell_angle_alpha 90.000000
_cell_angle_beta 90.000000
_cell_angle_gamma 120.000000
_cell_volume 4131.031784
_symmetry_space_group_name_H-M "P 6/M M M"
_symmetry_group_IT_number 191
_symmetry_cell_setting 'hexagonal'
loop_
_space_group_symop_operation_xyz
x,y,z
x-y,x,z
-y,x-y,z
-x,-y,z
-x+y,-x,z
y,-x+y,z
x-y,-y,-z
-x,-x+y,-z
y,x,-z
-y,-x,-z
-x+y,y,-z
x,x-y,-z
-x,-y,-z
-x+y,-x,-z
y,-x+y,-z
x,y,-z
x-y,x,-z
-y,x-y,-z
-x+y,y,z
x,x-y,z
-y,-x,z
y,x,z
x-y,-y,z
-x,-x+y,z
loop_
_atom_site_type_symbol
_atom_site_label
_atom_site_fract_x
_atom_site_fract_y
_atom_site_fract_z
Si Si1 0.848794 0.924397 0.807536
Si Si2 0.657908 0.077165 0.185245
Si Si3 0.076804 0.538402 0.694658
Si Si4 0.652426 0.728543 0.500000
Si Si5 0.124100 0.875901 0.500000
O O1 0.891509 0.891509 0.787960
O O2 0.795628 0.897814 0.665030
O O3 0.824215 0.912108 0.000000
O O4 0.605125 0.096959 0.220614
O O5 0.707937 0.098648 0.334455
O O6 0.619554 0.000000 0.188078
O O7 0.685157 0.097022 0.000000
O O8 0.094933 0.547467 0.500000
O O9 0.000000 0.500000 0.699692
O O10 0.686939 0.686939 0.500000
O O11 0.706183 0.800799 0.500000
#
# Coordination Sequence:
#
# PCOD9587843 Si02
#       5
#    12  24  12  12   6
#     4  10  21  38  60  82  98 112 140 196 272 343
#     4   9  16  26  42  63  88 119 151 184 222 260
#     4   9  13  21  39  64  93 117 143 180 216 245
#     4  10  20  33  45  61  87 120 160 198 229 275
#     4  12  24  36  51  70  96 130 164 196 238 300
#
# _framework density 15.976637999999999
#
# number of rings (size 3 to 8) (size 9 to 14) (size 15 to 20)
#    0.000    2.364    1.818    2.364    0.000    4.364 
#    0.000    4.545    0.000    0.000    0.000    0.000 
#    0.000    0.000    0.000    4.364    0.000    6.909 
#
# Total GULP energy -367761.778257 kJ/mol
# GULP energy per Si atom -5572.148155 kJ/mol
# Density = 1.594027 g / cm^3
# Si number density = 15.976638 Si / 1000 Ang^3
#
#
#
# Elastic Constant Matrix: (Units=GPa)
#
#
# Indices 1 2 3 4 5 6 
#
# 1 65.4752 26.2803 62.9988 0.0000 0.0000 0.0000
# 2 26.2803 65.4752 62.9988 0.0000 0.0000 0.0000
# 3 62.9988 62.9988 181.3860 0.0000 0.0000 0.0000
# 4 0.0000 0.0000 0.0000 3.1405 0.0000 0.0000
# 5 0.0000 0.0000 0.0000 0.0000 3.1405 0.0000
# 6 0.0000 0.0000 0.0000 0.0000 0.0000 19.5975
#
#
#
# Elastic Compliance Matrix: (Units=1/GPa)
#
#
# Indices 1 2 3 4 5 6 
#
# 1 0.023175 -0.002339 -0.007237 0.000000 0.000000 0.000000
# 2 -0.002339 0.023175 -0.007237 0.000000 0.000000 0.000000
# 3 -0.007237 -0.007237 0.010540 0.000000 0.000000 0.000000
# 4 0.000000 0.000000 0.000000 0.318424 0.000000 0.000000
# 5 0.000000 0.000000 0.000000 0.000000 0.318424 0.000000
# 6 0.000000 0.000000 0.000000 0.000000 0.000000 0.051027
#
#
# Mechanical properties :
#
#
# Convention : Reuss Voigt Hill
#
# Bulk Modulus (GPa) = 42.98309 68.54358 55.76334
# Shear Modulus (GPa) = 6.36016 15.84624 11.10320
#
# Velocity S-wave (km/s) = 1.99739 3.15276 2.63908
# Velocity P-wave (km/s) = 5.68168 7.49992 6.65320
#
# Compressibility (1/GPa) = 0.02326496
#
# Stress axis : x y z
#
# Youngs Moduli (GPa) = 43.15051 43.15051 94.87668
#
# Poissons Ratio (x) = 0.10092 0.68659
# Poissons Ratio (y) = 0.10092 0.68659
# Poissons Ratio (z) = 0.31227 0.31227
#
# Static dielectric constant tensor:
#      x y z
#    x 1.524840 0.000000 0.000000 
#    y 0.000000 1.524840 0.000000 
#    z 0.000000 0.000000 1.565170 
# 
# From -- ./inp_files/721.got.cif
#   From: 2010.05.17/outbox.cif.g08.bks.cpg/sg191_1_cif.got.tgz:721.got - 2010.05.20 12:20:32.
