data_PCOD9587784
_publ_section_title
;
Structure prediction by ZEFSAII (Michael W. Deem and Ramdas Pophale) SiO2 
 PCOD9587784
Probable space group: P 6/M M M
;
_chemical_formula_sum "Si O2"
_cell_formula_units_Z 144
_cell_length_a 32.449409
_cell_length_b 32.449409
_cell_length_c 9.513853
_cell_angle_alpha 90.000000
_cell_angle_beta 90.000000
_cell_angle_gamma 120.000000
_cell_volume 8675.622598
_symmetry_space_group_name_H-M "P 6/M M M"
_symmetry_group_IT_number 191
_symmetry_cell_setting 'hexagonal'
loop_
_space_group_symop_operation_xyz
x,y,z
x-y,x,z
-y,x-y,z
-x,-y,z
-x+y,-x,z
y,-x+y,z
x-y,-y,-z
-x,-x+y,-z
y,x,-z
-y,-x,-z
-x+y,y,-z
x,x-y,-z
-x,-y,-z
-x+y,-x,-z
y,-x+y,-z
x,y,-z
x-y,x,-z
-y,x-y,-z
-x+y,y,z
x,x-y,z
-y,-x,z
y,x,z
x-y,-y,z
-x,-x+y,z
loop_
_atom_site_type_symbol
_atom_site_label
_atom_site_fract_x
_atom_site_fract_y
_atom_site_fract_z
Si Si1 0.655688 0.710653 0.337266
Si Si2 0.478516 0.620787 0.838196
Si Si3 0.300096 0.197936 0.165818
Si Si4 0.611549 0.557094 0.335265
Si Si5 0.332964 0.569256 0.667127
Si Si6 0.797590 0.945761 0.333604
O O1 0.661534 0.726311 0.500000
O O2 0.694826 0.694826 0.307527
O O3 0.663001 0.752383 0.235263
O O4 0.604876 0.662965 0.324397
O O5 0.429104 0.570897 0.837331
O O6 0.517258 0.612342 0.759545
O O7 0.467154 0.657176 0.754663
O O8 0.491960 0.635377 0.000000
O O9 0.313236 0.156618 0.187444
O O10 0.249779 0.179469 0.243795
O O11 0.295263 0.202783 0.000000
O O12 0.604123 0.542834 0.500000
O O13 0.572774 0.572774 0.296801
O O14 0.332848 0.559964 0.500000
O O15 0.283599 0.567198 0.702350
O O16 0.377598 0.622403 0.692352
O O17 0.785861 0.942903 0.500000
O O18 0.813581 0.906791 0.306669
O O19 0.836342 0.000000 0.302225
#
# Coordination Sequence:
#
# PCOD9587784 Si02
#       6
#    24  24  24  24  24  24
#     4   9  18  33  52  72  93 118 152 194 236 280
#     4  10  21  35  51  75 107 138 167 203 248 296
#     4  10  20  31  44  67  97 124 152 187 227 274
#     4   9  19  36  56  76  97 125 165 209 249 291
#     4   9  17  31  53  79 105 134 170 210 249 291
#     4   9  17  29  45  64  87 117 152 189 230 277
#
# _framework density 16.598231999999999
#
# number of rings (size 3 to 8) (size 9 to 14) (size 15 to 20)
#    0.000    2.667    0.000    2.667    0.000    7.000 
#    0.000    4.167    0.000    2.167    0.000    1.167 
#    0.000    0.000    0.000    4.167    0.000    4.333 
#
# Total GULP energy -802896.129682 kJ/mol
# GULP energy per Si atom -5575.667567 kJ/mol
# Density = 1.656045 g / cm^3
# Si number density = 16.598232 Si / 1000 Ang^3
#
#
#
# Elastic Constant Matrix: (Units=GPa)
#
#
# Indices 1 2 3 4 5 6 
#
# 1 73.6303 35.9141 55.8207 0.0000 0.0000 0.0000
# 2 35.9141 73.6303 55.8207 0.0000 0.0000 0.0000
# 3 55.8207 55.8207 80.2967 0.0000 0.0000 0.0000
# 4 0.0000 0.0000 0.0000 18.3156 0.0000 0.0000
# 5 0.0000 0.0000 0.0000 0.0000 18.3156 0.0000
# 6 0.0000 0.0000 0.0000 0.0000 0.0000 18.8581
#
#
#
# Elastic Compliance Matrix: (Units=1/GPa)
#
#
# Indices 1 2 3 4 5 6 
#
# 1 0.028914 0.002401 -0.021770 0.000000 0.000000 0.000000
# 2 0.002401 0.028914 -0.021770 0.000000 0.000000 0.000000
# 3 -0.021770 -0.021770 0.042721 0.000000 0.000000 0.000000
# 4 0.000000 0.000000 0.000000 0.054598 0.000000 0.000000
# 5 0.000000 0.000000 0.000000 0.000000 0.054598 0.000000
# 6 0.000000 0.000000 0.000000 0.000000 0.000000 0.053028
#
#
# Mechanical properties :
#
#
# Convention : Reuss Voigt Hill
#
# Bulk Modulus (GPa) = 54.72528 58.07424 56.39976
# Shear Modulus (GPa) = 14.23924 16.43130 15.33527
#
# Velocity S-wave (km/s) = 2.93213 3.14975 3.04289
# Velocity P-wave (km/s) = 6.67123 6.94925 6.81166
#
# Compressibility (1/GPa) = 0.01827309
#
# Stress axis : x y z
#
# Youngs Moduli (GPa) = 34.58484 34.58484 23.40753
#
# Poissons Ratio (x) = -0.08302 0.50957
# Poissons Ratio (y) = -0.08302 0.50957
# Poissons Ratio (z) = 0.75290 0.75290
#
# Static dielectric constant tensor:
#      x y z
#    x 1.549060 0.000000 0.000000 
#    y 0.000000 1.549060 0.000000 
#    z 0.000000 0.000000 1.553030 
# 
# From -- ./inp_files/1987.got.cif
#   From: 2010.05.17/outbox.cif.g08.bks.cpg/sg191_1_cif.got.tgz:1987.got - 2010.05.20 12:20:32.
