data_PCOD9587582
_publ_section_title
;
Structure prediction by ZEFSAII (Michael W. Deem and Ramdas Pophale) SiO2 
 PCOD9587582
Probable space group: P 6/M M M
;
_chemical_formula_sum "Si O2"
_cell_formula_units_Z 156
_cell_length_a 21.559403
_cell_length_b 21.559403
_cell_length_c 20.333226
_cell_angle_alpha 90.000000
_cell_angle_beta 90.000000
_cell_angle_gamma 120.000000
_cell_volume 8184.843519
_symmetry_space_group_name_H-M "P 6/M M M"
_symmetry_group_IT_number 191
_symmetry_cell_setting 'hexagonal'
loop_
_space_group_symop_operation_xyz
x,y,z
x-y,x,z
-y,x-y,z
-x,-y,z
-x+y,-x,z
y,-x+y,z
x-y,-y,-z
-x,-x+y,-z
y,x,-z
-y,-x,-z
-x+y,y,-z
x,x-y,-z
-x,-y,-z
-x+y,-x,-z
y,-x+y,-z
x,y,-z
x-y,x,-z
-y,x-y,-z
-x+y,y,z
x,x-y,z
-y,-x,z
y,x,z
x-y,-y,z
-x,-x+y,z
loop_
_atom_site_type_symbol
_atom_site_label
_atom_site_fract_x
_atom_site_fract_y
_atom_site_fract_z
Si Si1 0.918047 0.693618 0.892083
Si Si2 0.522922 0.335327 0.785869
Si Si3 0.301090 0.081783 0.608557
Si Si4 0.467231 0.158637 0.070805
Si Si5 0.717754 0.080856 0.748815
Si Si6 0.700926 0.536320 0.575804
Si Si7 0.459093 0.918186 0.581028
O O1 0.855800 0.711599 0.909694
O O2 0.898032 0.617389 0.924113
O O3 0.911288 0.673953 0.814442
O O4 0.000000 0.752638 0.906502
O O5 0.538436 0.269218 0.784524
O O6 0.591423 0.408578 0.762448
O O7 0.505950 0.346459 0.861906
O O8 0.446913 0.308157 0.749784
O O9 0.273896 0.136948 0.593862
O O10 0.322559 0.086782 0.685374
O O11 0.378541 0.112561 0.575259
O O12 0.248200 0.000000 0.591024
O O13 0.471304 0.235652 0.070966
O O14 0.494997 0.150238 0.000000
O O15 0.650913 0.000000 0.749083
O O16 0.692102 0.512188 0.500000
O O17 0.760690 0.521381 0.606983
O O18 0.622315 0.498667 0.604555
O O19 0.460115 0.920229 0.500000
O O20 0.500000 0.000000 0.602981
#
# Coordination Sequence:
#
# PCOD9587582 Si02
#       7
#    24  24  24  24  24  24  12
#     4   9  16  27  45  66  88 114 146 185 228 274
#     4  10  19  31  47  67  95 127 156 187 227 279
#     4  10  19  32  52  75  99 126 158 198 240 285
#     4   8  15  28  44  62  85 114 149 188 224 258
#     4   9  18  33  51  69  88 116 155 199 239 270
#     4   9  18  32  49  72 100 129 163 203 247 292
#     4   9  16  28  46  66  92 126 162 198 239 287
#
# _framework density 19.059619000000001
#
# number of rings (size 3 to 8) (size 9 to 14) (size 15 to 20)
#    0.000    2.846    0.000    2.923    0.000    1.846 
#    1.846    0.000    0.000    1.231    0.000    4.308 
#    0.000    3.692    0.000    7.692    0.000    0.000 
#
# Total GULP energy -869756.977971 kJ/mol
# GULP energy per Si atom -5575.365243 kJ/mol
# Density = 1.901624 g / cm^3
# Si number density = 19.059619 Si / 1000 Ang^3
#
#
#
# Elastic Constant Matrix: (Units=GPa)
#
#
# Indices 1 2 3 4 5 6 
#
# 1 122.3073 87.1293 -8.8110 0.0000 0.0000 0.0000
# 2 87.1293 122.3073 -8.8110 0.0000 0.0000 0.0000
# 3 -8.8110 -8.8110 36.6314 0.0000 0.0000 0.0000
# 4 0.0000 0.0000 0.0000 13.6405 0.0000 0.0000
# 5 0.0000 0.0000 0.0000 0.0000 13.6405 0.0000
# 6 0.0000 0.0000 0.0000 0.0000 0.0000 17.5890
#
#
#
# Elastic Compliance Matrix: (Units=1/GPa)
#
#
# Indices 1 2 3 4 5 6 
#
# 1 0.016650 -0.011777 0.001172 0.000000 0.000000 0.000000
# 2 -0.011777 0.016650 0.001172 0.000000 0.000000 0.000000
# 3 0.001172 0.001172 0.027863 0.000000 0.000000 0.000000
# 4 0.000000 0.000000 0.000000 0.073311 0.000000 0.000000
# 5 0.000000 0.000000 0.000000 0.000000 0.073311 0.000000
# 6 0.000000 0.000000 0.000000 0.000000 0.000000 0.056854
#
#
# Mechanical properties :
#
#
# Convention : Reuss Voigt Hill
#
# Bulk Modulus (GPa) = 23.64160 46.69563 35.16862
# Shear Modulus (GPa) = 16.80091 23.08993 19.94542
#
# Velocity S-wave (km/s) = 2.97222 3.48438 3.23844
# Velocity P-wave (km/s) = 4.92034 6.38285 5.69871
#
# Compressibility (1/GPa) = 0.04229832
#
# Stress axis : x y z
#
# Youngs Moduli (GPa) = 60.05982 60.05982 35.89004
#
# Poissons Ratio (x) = 0.70731 -0.04207
# Poissons Ratio (y) = 0.70731 -0.04207
# Poissons Ratio (z) = -0.07040 -0.07040
#
# Static dielectric constant tensor:
#      x y z
#    x 1.649680 0.000000 0.000000 
#    y 0.000000 1.649680 0.000000 
#    z 0.000000 0.000000 1.754790 
# 
# From -- ./inp_files/7719.got.cif
#   From: 2010.05.17/outbox.cif.g08.bks.cpg/sg191_4_cif.got.tgz:7719.got - 2010.05.20 12:20:32.
