data_PCOD9587742
_publ_section_title
;
Structure prediction by ZEFSAII (Michael W. Deem and Ramdas Pophale) SiO2 
 PCOD9587742
Probable space group: P 6/M M M
;
_chemical_formula_sum "Si O2"
_cell_formula_units_Z 132
_cell_length_a 23.293068
_cell_length_b 23.293068
_cell_length_c 15.228791
_cell_angle_alpha 90.000000
_cell_angle_beta 90.000000
_cell_angle_gamma 120.000000
_cell_volume 7155.655885
_symmetry_space_group_name_H-M "P 6/M M M"
_symmetry_group_IT_number 191
_symmetry_cell_setting 'hexagonal'
loop_
_space_group_symop_operation_xyz
x,y,z
x-y,x,z
-y,x-y,z
-x,-y,z
-x+y,-x,z
y,-x+y,z
x-y,-y,-z
-x,-x+y,-z
y,x,-z
-y,-x,-z
-x+y,y,-z
x,x-y,-z
-x,-y,-z
-x+y,-x,-z
y,-x+y,-z
x,y,-z
x-y,x,-z
-y,x-y,-z
-x+y,y,z
x,x-y,z
-y,-x,z
y,x,z
x-y,-y,z
-x,-x+y,z
loop_
_atom_site_type_symbol
_atom_site_label
_atom_site_fract_x
_atom_site_fract_y
_atom_site_fract_z
Si Si1 0.074304 0.793968 0.646059
Si Si2 0.466961 0.798531 0.252472
Si Si3 0.563807 0.563807 0.105923
Si Si4 0.130466 0.698631 0.897591
Si Si5 0.278681 0.076416 0.141728
Si Si6 0.714788 0.145815 0.401259
O O1 0.134719 0.865282 0.615027
O O2 0.074349 0.796960 0.752148
O O3 0.092878 0.737880 0.621163
O O4 0.000000 0.771487 0.615389
O O5 0.403314 0.806628 0.238679
O O6 0.445165 0.722583 0.275572
O O7 0.513510 0.817049 0.166863
O O8 0.515288 0.845738 0.329481
O O9 0.500000 0.500000 0.142985
O O10 0.567067 0.631413 0.128278
O O11 0.559726 0.559726 0.000000
O O12 0.111881 0.755886 0.884823
O O13 0.146584 0.697521 0.000000
O O14 0.252907 0.126454 0.113606
O O15 0.238007 0.000000 0.110361
O O16 0.688109 0.135170 0.500000
O O17 0.784016 0.215985 0.398565
#
# Coordination Sequence:
#
# PCOD9587742 Si02
#       6
#    24  24  12  24  24  24
#     4   9  17  31  53  81 112 146 184 226 273 326
#     4  11  23  39  57  79 108 145 186 228 275 330
#     4   9  18  32  50  74 105 139 176 220 269 323
#     4  11  21  35  55  81 110 142 184 229 276 328
#     4  10  19  33  54  81 112 145 184 229 276 326
#     4   9  18  34  56  80 105 136 178 228 277 321
#
# _framework density 18.446947000000002
#
# number of rings (size 3 to 8) (size 9 to 14) (size 15 to 20)
#    0.000    2.091    2.727    1.273    0.000    3.273 
#    0.000    0.000    0.000    2.545    0.000    3.818 
#    0.000    0.000    0.000    6.182    0.000    6.545 
#
# Total GULP energy -736010.454177 kJ/mol
# GULP energy per Si atom -5575.836774 kJ/mol
# Density = 1.840496 g / cm^3
# Si number density = 18.446947 Si / 1000 Ang^3
#
#
#
# Elastic Constant Matrix: (Units=GPa)
#
#
# Indices 1 2 3 4 5 6 
#
# 1 119.5544 64.8487 32.2469 0.0000 0.0000 0.0000
# 2 64.8487 119.5544 32.2469 0.0000 0.0000 0.0000
# 3 32.2469 32.2469 84.7651 0.0000 0.0000 0.0000
# 4 0.0000 0.0000 0.0000 -41.9887 0.0000 0.0000
# 5 0.0000 0.0000 0.0000 0.0000 -41.9887 0.0000
# 6 0.0000 0.0000 0.0000 0.0000 0.0000 27.3528
#
#
#
# Elastic Compliance Matrix: (Units=1/GPa)
#
#
# Indices 1 2 3 4 5 6 
#
# 1 0.012267 -0.006012 -0.002380 0.000000 0.000000 0.000000
# 2 -0.006012 0.012267 -0.002380 0.000000 0.000000 0.000000
# 3 -0.002380 -0.002380 0.013608 0.000000 0.000000 0.000000
# 4 0.000000 0.000000 0.000000 -0.023816 0.000000 0.000000
# 5 0.000000 0.000000 0.000000 0.000000 -0.023816 0.000000
# 6 0.000000 0.000000 0.000000 0.000000 0.000000 0.036559
#
#
# Mechanical properties :
#
#
# Convention : Reuss Voigt Hill
#
# Bulk Modulus (GPa) = 60.24221 64.72879 62.48550
# Shear Modulus (GPa) = 92.34232 1.64382 46.99307
#
# Velocity S-wave (km/s) = 7.08287 0.94501 5.05272
# Velocity P-wave (km/s) = 9.98084 6.02960 8.24540
#
# Compressibility (1/GPa) = 0.01659966
#
# Stress axis : x y z
#
# Youngs Moduli (GPa) = 81.51687 81.51687 73.48688
#
# Poissons Ratio (x) = 0.49010 0.17487
# Poissons Ratio (y) = 0.49010 0.17487
# Poissons Ratio (z) = 0.19398 0.19398
#
# Static dielectric constant tensor:
#      x y z
#    x 1.653830 0.000000 0.000000 
#    y 0.000000 1.653830 0.000000 
#    z 0.000000 0.000000 1.655210 
# 
# From -- ./inp_files/4925.got.cif
#   From: 2010.05.17/outbox.cif.g08.bks.cpg/sg191_3_cif.got.tgz:4925.got - 2010.05.20 12:20:32.
