data_PCOD9587528
_publ_section_title
;
Structure prediction by ZEFSAII (Michael W. Deem and Ramdas Pophale) SiO2 
 PCOD9587528
Probable space group: P 6/M M M
;
_chemical_formula_sum "Si O2"
_cell_formula_units_Z 168
_cell_length_a 21.687483
_cell_length_b 21.687483
_cell_length_c 26.727321
_cell_angle_alpha 90.000000
_cell_angle_beta 90.000000
_cell_angle_gamma 120.000000
_cell_volume 10886.903283
_symmetry_space_group_name_H-M "P 6/M M M"
_symmetry_group_IT_number 191
_symmetry_cell_setting 'hexagonal'
loop_
_space_group_symop_operation_xyz
x,y,z
x-y,x,z
-y,x-y,z
-x,-y,z
-x+y,-x,z
y,-x+y,z
x-y,-y,-z
-x,-x+y,-z
y,x,-z
-y,-x,-z
-x+y,y,-z
x,x-y,-z
-x,-y,-z
-x+y,-x,-z
y,-x+y,-z
x,y,-z
x-y,x,-z
-y,x-y,-z
-x+y,y,z
x,x-y,z
-y,-x,z
y,x,z
x-y,-y,z
-x,-x+y,z
loop_
_atom_site_type_symbol
_atom_site_label
_atom_site_fract_x
_atom_site_fract_y
_atom_site_fract_z
Si Si1 0.472975 0.664093 0.659163
Si Si2 0.519835 0.332781 0.946327
Si Si3 0.814199 0.333408 0.835584
Si Si4 0.703114 0.921504 0.706172
Si Si5 0.916956 0.353858 0.744777
Si Si6 0.698361 0.778519 0.413934
Si Si7 0.304647 0.844516 0.554178
O O1 0.491445 0.745723 0.666819
O O2 0.389106 0.610894 0.664147
O O3 0.512579 0.641102 0.699116
O O4 0.497382 0.656346 0.603688
O O5 0.536250 0.268125 0.945618
O O6 0.593016 0.406985 0.947479
O O7 0.488007 0.329445 0.891557
O O8 0.482362 0.326697 0.000000
O O9 0.798847 0.399424 0.834820
O O10 0.740966 0.259035 0.825618
O O11 0.873911 0.349039 0.794640
O O12 0.716671 0.858336 0.720279
O O13 0.635594 0.915234 0.734846
O O14 0.687354 0.915569 0.646385
O O15 0.768580 0.000000 0.714849
O O16 0.000000 0.414558 0.745571
O O17 0.715466 0.857733 0.427833
O O18 0.757655 0.757655 0.426536
O O19 0.623133 0.722723 0.438018
O O20 0.340279 0.855456 0.500000
O O21 0.232341 0.767660 0.553111
#
# Coordination Sequence:
#
# PCOD9587528 Si02
#       7
#    24  24  24  24  24  24  24
#     4  11  22  36  53  71  93 118 146 181 226 281
#     4   8  13  22  38  61  87 114 144 180 224 272
#     4  10  19  30  46  67  92 119 149 188 233 280
#     4   9  16  28  47  68  89 114 146 181 218 260
#     4  11  22  34  48  65  88 120 156 193 227 260
#     4   9  16  28  47  69  91 116 148 185 223 263
#     4   9  18  32  49  68  89 113 142 177 215 258
#
# _framework density 15.431385000000001
#
# number of rings (size 3 to 8) (size 9 to 14) (size 15 to 20)
#    0.000    2.429    1.429    2.143    0.000    3.429 
#    0.000    1.429    0.000    1.571    0.000    6.000 
#    0.000    0.000    0.000    3.571    0.000    3.714 
#
# Total GULP energy -935495.419193 kJ/mol
# GULP energy per Si atom -5568.425114 kJ/mol
# Density = 1.539626 g / cm^3
# Si number density = 15.431385 Si / 1000 Ang^3
#
#
#
# Elastic Constant Matrix: (Units=GPa)
#
#
# Indices 1 2 3 4 5 6 
#
# 1 60.1883 27.7809 38.6820 0.0000 0.0000 0.0000
# 2 27.7809 60.1883 38.6820 0.0000 0.0000 0.0000
# 3 38.6820 38.6820 121.2673 0.0000 0.0000 0.0000
# 4 0.0000 0.0000 0.0000 7.6831 0.0000 0.0000
# 5 0.0000 0.0000 0.0000 0.0000 7.6831 0.0000
# 6 0.0000 0.0000 0.0000 0.0000 0.0000 16.2037
#
#
#
# Elastic Compliance Matrix: (Units=1/GPa)
#
#
# Indices 1 2 3 4 5 6 
#
# 1 0.023329 -0.007529 -0.005040 0.000000 0.000000 0.000000
# 2 -0.007529 0.023329 -0.005040 0.000000 0.000000 0.000000
# 3 -0.005040 -0.005040 0.011461 0.000000 0.000000 0.000000
# 4 0.000000 0.000000 0.000000 0.130156 0.000000 0.000000
# 5 0.000000 0.000000 0.000000 0.000000 0.130156 0.000000
# 6 0.000000 0.000000 0.000000 0.000000 0.000000 0.061714
#
#
# Mechanical properties :
#
#
# Convention : Reuss Voigt Hill
#
# Bulk Modulus (GPa) = 43.66467 50.21483 46.93975
# Shear Modulus (GPa) = 11.82045 15.41391 13.61718
#
# Velocity S-wave (km/s) = 2.77067 3.16392 2.97380
# Velocity P-wave (km/s) = 6.21232 6.77927 6.50198
#
# Compressibility (1/GPa) = 0.02290181
#
# Stress axis : x y z
#
# Youngs Moduli (GPa) = 42.86601 42.86601 87.24870
#
# Poissons Ratio (x) = 0.32272 0.43972
# Poissons Ratio (y) = 0.32272 0.43972
# Poissons Ratio (z) = 0.21604 0.21604
#
# Static dielectric constant tensor:
#      x y z
#    x 1.508030 0.000000 0.000000 
#    y 0.000000 1.508030 0.000000 
#    z 0.000000 0.000000 1.563770 
# 
# From -- ./inp_files/8972.got.cif
#   From: 2010.05.17/outbox.cif.g08.bks.cpg/sg191_5_cif.got.tgz:8972.got - 2010.05.20 12:20:32.
