data_PCOD9587013
_publ_section_title
;
Structure prediction by ZEFSAII (Michael W. Deem and Ramdas Pophale) SiO2 
 PCOD9587013
Probable space group: P -6 2 C
;
_chemical_formula_sum "Si O2"
_cell_formula_units_Z 72
_cell_length_a 24.000000
_cell_length_b 24.000000
_cell_length_c 9.000000
_cell_angle_alpha 90.000000
_cell_angle_beta 90.000000
_cell_angle_gamma 120.000000
_cell_volume 4489.475693
_symmetry_space_group_name_H-M "P -6 2 C"
_symmetry_group_IT_number 190
_symmetry_cell_setting 'hexagonal'
loop_
_space_group_symop_operation_xyz
x,y,z
-x+y,-x,1/2-z
-y,x-y,z
x,y,1/2-z
-x+y,-x,z
-y,x-y,1/2-z
x-y,-y,-z
-x,-x+y,-z
y,x,-z
y,x,1/2+z
x-y,-y,1/2+z
-x,-x+y,1/2+z
loop_
_atom_site_type_symbol
_atom_site_label
_atom_site_fract_x
_atom_site_fract_y
_atom_site_fract_z
Si Si1 0.802720 0.069457 0.072334
Si Si2 0.350978 0.926229 0.571020
Si Si3 0.206360 0.812026 0.569653
Si Si4 0.569682 0.191517 0.068984
Si Si5 0.066299 0.134786 0.927649
Si Si6 0.290280 0.529693 0.068881
O O1 0.792541 0.062084 0.250000
O O2 0.806438 0.137359 0.031960
O O3 0.873145 0.078426 0.040321
O O4 0.751099 0.000000 0.000000
O O5 0.355346 0.935110 0.750000
O O6 0.273448 0.879909 0.533955
O O7 0.378983 0.876782 0.536415
O O8 0.388790 0.000000 0.500000
O O9 0.208212 0.805003 0.750000
O O10 0.209722 0.753808 0.487837
O O11 0.574355 0.197184 0.250000
O O12 0.636991 0.202063 0.999598
O O13 0.561642 0.249525 0.998368
O O14 0.059754 0.126286 0.750000
O O15 0.084876 0.084876 0.000000
O O16 0.000000 0.121751 0.000000
O O17 0.292722 0.533365 0.250000
#
# Coordination Sequence:
#
# PCOD9587013 Si02
#       6
#    12  12  12  12  12  12
#     4   9  19  35  54  73  98 130 169 212 255 303
#     4   9  19  34  54  77 104 138 175 212 257 308
#     4   9  19  37  55  74 103 141 175 207 257 320
#     4  10  20  36  55  76 107 146 175 204 257 320
#     4  10  19  31  47  69  95 125 159 202 252 304
#     4  11  21  33  53  83 109 132 170 219 255 291
#
# _framework density 16.037507000000002
#
# number of rings (size 3 to 8) (size 9 to 14) (size 15 to 20)
#    0.000    2.333    0.000    4.000    0.000    5.333 
#    0.000    0.833    0.000    0.000    0.000    0.000 
#    0.000    0.000    0.000    0.000    0.000    0.000 
#
# Total GULP energy -400905.823698 kJ/mol
# GULP energy per Si atom -5568.136440 kJ/mol
# Density = 1.600101 g / cm^3
# Si number density = 16.037507 Si / 1000 Ang^3
#
#
#
# Elastic Constant Matrix: (Units=GPa)
#
#
# Indices 1 2 3 4 5 6 
#
# 1 138.1122 75.6111 47.7371 0.0000 0.0000 0.0000
# 2 75.6111 138.1122 47.7371 0.0000 0.0000 0.0000
# 3 47.7371 47.7371 86.8243 0.0000 0.0000 0.0000
# 4 0.0000 0.0000 0.0000 32.9348 0.0000 0.0000
# 5 0.0000 0.0000 0.0000 0.0000 32.9348 0.0000
# 6 0.0000 0.0000 0.0000 0.0000 0.0000 31.2506
#
#
#
# Elastic Compliance Matrix: (Units=1/GPa)
#
#
# Indices 1 2 3 4 5 6 
#
# 1 0.011101 -0.004899 -0.003410 0.000000 0.000000 0.000000
# 2 -0.004899 0.011101 -0.003410 0.000000 0.000000 0.000000
# 3 -0.003410 -0.003410 0.015267 0.000000 0.000000 0.000000
# 4 0.000000 0.000000 0.000000 0.030363 0.000000 0.000000
# 5 0.000000 0.000000 0.000000 0.000000 0.030363 0.000000
# 6 0.000000 0.000000 0.000000 0.000000 0.000000 0.031999
#
#
# Mechanical properties :
#
#
# Convention : Reuss Voigt Hill
#
# Bulk Modulus (GPa) = 71.26801 78.35769 74.81285
# Shear Modulus (GPa) = 31.58365 32.22161 31.90263
#
# Velocity S-wave (km/s) = 4.44256 4.48721 4.46494
# Velocity P-wave (km/s) = 8.41724 8.70700 8.56334
#
# Compressibility (1/GPa) = 0.01403154
#
# Stress axis : x y z
#
# Youngs Moduli (GPa) = 90.08194 90.08194 65.49925
#
# Poissons Ratio (x) = 0.44128 0.22336
# Poissons Ratio (y) = 0.44128 0.22336
# Poissons Ratio (z) = 0.30719 0.30719
#
# Static dielectric constant tensor:
#      x y z
#    x 1.550570 0.000000 0.000000 
#    y 0.000000 1.550570 0.000000 
#    z 0.000000 0.000000 1.541570 
# 
# From -- ./inp_files/1259.got.cif
#   From: 2010.05.17/outbox.ucp.g08.bks.cvg/sg190_1_cif.got.tgz:1259.got - 2010.06.11 15:22:26.
