data_PCOD9587294
_publ_section_title
;
Structure prediction by ZEFSAII (Michael W. Deem and Ramdas Pophale) SiO2 
 PCOD9587294
Probable space group: P 6/M M M
;
_chemical_formula_sum "Si O2"
_cell_formula_units_Z 180
_cell_length_a 21.191926
_cell_length_b 21.191926
_cell_length_c 31.960981
_cell_angle_alpha 90.000000
_cell_angle_beta 90.000000
_cell_angle_gamma 120.000000
_cell_volume 12430.585647
_symmetry_space_group_name_H-M "P 6/M M M"
_symmetry_group_IT_number 191
_symmetry_cell_setting 'hexagonal'
loop_
_space_group_symop_operation_xyz
x,y,z
x-y,x,z
-y,x-y,z
-x,-y,z
-x+y,-x,z
y,-x+y,z
x-y,-y,-z
-x,-x+y,-z
y,x,-z
-y,-x,-z
-x+y,y,-z
x,x-y,-z
-x,-y,-z
-x+y,-x,-z
y,-x+y,-z
x,y,-z
x-y,x,-z
-y,x-y,-z
-x+y,y,z
x,x-y,z
-y,-x,z
y,x,z
x-y,-y,z
-x,-x+y,z
loop_
_atom_site_type_symbol
_atom_site_label
_atom_site_fract_x
_atom_site_fract_y
_atom_site_fract_z
Si Si1 0.336195 0.521819 0.362915
Si Si2 0.085570 0.440062 0.714900
Si Si3 0.916827 0.534880 0.124908
Si Si4 0.516748 0.183735 0.951404
Si Si5 0.079038 0.773879 0.328561
Si Si6 0.921147 0.690206 0.500000
Si Si7 0.817729 0.484009 0.203900
Si Si8 0.610119 0.729894 0.415126
O O1 0.255900 0.511799 0.355396
O O2 0.394794 0.605207 0.370198
O O3 0.360588 0.492625 0.323114
O O4 0.331308 0.470414 0.401523
O O5 0.087274 0.366208 0.704438
O O6 0.128342 0.477656 0.757034
O O7 0.000000 0.416259 0.715716
O O8 0.920254 0.460127 0.126104
O O9 0.879157 0.533263 0.081007
O O10 0.862869 0.526031 0.162548
O O11 0.000000 0.599576 0.129389
O O12 0.598889 0.197777 0.946140
O O13 0.516078 0.258039 0.942899
O O14 0.496607 0.163480 0.000000
O O15 0.145588 0.854413 0.325239
O O16 0.082770 0.742837 0.374429
O O17 0.000000 0.764158 0.323455
O O18 0.851256 0.702511 0.500000
O O19 0.917348 0.644711 0.458700
O O20 0.000000 0.762897 0.500000
O O21 0.742875 0.485749 0.208152
O O22 0.801366 0.400683 0.201459
O O23 0.605510 0.802755 0.418836
#
# Coordination Sequence:
#
# PCOD9587294 Si02
#       8
#    24  24  24  24  24  12  24  24
#     4  10  19  32  49  68  90 114 143 177 216 259
#     4  10  20  32  46  63  85 113 142 174 209 249
#     4   9  18  30  42  57  78 105 136 170 209 254
#     4   9  16  26  41  60  81 105 135 172 213 255
#     4   9  16  28  45  64  85 109 139 171 205 244
#     4  10  18  30  49  70  91 115 145 179 216 256
#     4  11  21  32  45  61  83 109 139 174 214 259
#     4   8  16  29  44  63  86 112 140 171 204 242
#
# _framework density 14.480411
#
# number of rings (size 3 to 8) (size 9 to 14) (size 15 to 20)
#    0.000    2.533    0.000    4.000    0.000    2.933 
#    0.000    4.333    0.000    0.600    0.000    0.933 
#    0.000    3.200    0.000    0.000    0.000    0.267 
#
# Total GULP energy -1002257.889510 kJ/mol
# GULP energy per Si atom -5568.099386 kJ/mol
# Density = 1.444745 g / cm^3
# Si number density = 14.480411 Si / 1000 Ang^3
#
#
#
# Elastic Constant Matrix: (Units=GPa)
#
#
# Indices 1 2 3 4 5 6 
#
# 1 69.9443 52.4453 32.9444 0.0000 0.0000 0.0000
# 2 52.4453 69.9443 32.9444 0.0000 0.0000 0.0000
# 3 32.9444 32.9444 72.6781 0.0000 0.0000 0.0000
# 4 0.0000 0.0000 0.0000 11.6493 0.0000 0.0000
# 5 0.0000 0.0000 0.0000 0.0000 11.6493 0.0000
# 6 0.0000 0.0000 0.0000 0.0000 0.0000 8.7495
#
#
#
# Elastic Compliance Matrix: (Units=1/GPa)
#
#
# Indices 1 2 3 4 5 6 
#
# 1 0.033977 -0.023169 -0.004899 0.000000 0.000000 0.000000
# 2 -0.023169 0.033977 -0.004899 0.000000 0.000000 0.000000
# 3 -0.004899 -0.004899 0.018201 0.000000 0.000000 0.000000
# 4 0.000000 0.000000 0.000000 0.085842 0.000000 0.000000
# 5 0.000000 0.000000 0.000000 0.000000 0.085842 0.000000
# 6 0.000000 0.000000 0.000000 0.000000 0.000000 0.114292
#
#
# Mechanical properties :
#
#
# Convention : Reuss Voigt Hill
#
# Bulk Modulus (GPa) = 49.45552 49.91500 49.68526
# Shear Modulus (GPa) = 11.24086 12.69180 11.96633
#
# Velocity S-wave (km/s) = 2.78920 2.96375 2.87780
# Velocity P-wave (km/s) = 6.67835 6.80127 6.74009
#
# Compressibility (1/GPa) = 0.02022019
#
# Stress axis : x y z
#
# Youngs Moduli (GPa) = 29.43168 29.43168 54.94237
#
# Poissons Ratio (x) = 0.68190 0.26918
# Poissons Ratio (y) = 0.68190 0.26918
# Poissons Ratio (z) = 0.14419 0.14419
#
# Static dielectric constant tensor:
#      x y z
#    x 1.478590 0.000000 0.000000 
#    y 0.000000 1.478590 0.000000 
#    z 0.000000 0.000000 1.492150 
# 
# From -- ./inp_files/10871.got.cif
#   From: 2010.05.17/outbox.cif.g08.bks.cpg/sg191_6_cif.got.tgz:10871.got - 2010.05.20 12:20:32.
