data_PCOD9587771
_publ_section_title
;
Structure prediction by ZEFSAII (Michael W. Deem and Ramdas Pophale) SiO2 
 PCOD9587771
Probable space group: P 6/M M M
;
_chemical_formula_sum "Si O2"
_cell_formula_units_Z 108
_cell_length_a 34.545701
_cell_length_b 34.545701
_cell_length_c 7.949864
_cell_angle_alpha 90.000000
_cell_angle_beta 90.000000
_cell_angle_gamma 120.000000
_cell_volume 8216.339015
_symmetry_space_group_name_H-M "P 6/M M M"
_symmetry_group_IT_number 191
_symmetry_cell_setting 'hexagonal'
loop_
_space_group_symop_operation_xyz
x,y,z
x-y,x,z
-y,x-y,z
-x,-y,z
-x+y,-x,z
y,-x+y,z
x-y,-y,-z
-x,-x+y,-z
y,x,-z
-y,-x,-z
-x+y,y,-z
x,x-y,-z
-x,-y,-z
-x+y,-x,-z
y,-x+y,-z
x,y,-z
x-y,x,-z
-y,x-y,-z
-x+y,y,z
x,x-y,z
-y,-x,z
y,x,z
x-y,-y,z
-x,-x+y,z
loop_
_atom_site_type_symbol
_atom_site_label
_atom_site_fract_x
_atom_site_fract_y
_atom_site_fract_z
Si Si1 0.050858 0.339805 0.297826
Si Si2 0.571901 0.517384 0.000000
Si Si3 0.100343 0.287772 0.799365
Si Si4 0.049757 0.186202 0.298524
Si Si5 0.945665 0.374118 0.306373
O O1 0.048281 0.339368 0.500000
O O2 0.083498 0.321649 0.248640
O O3 0.065894 0.390549 0.248819
O O4 0.000000 0.307441 0.234048
O O5 0.601933 0.533127 0.831790
O O6 0.545007 0.545007 0.000000
O O7 0.534362 0.465639 0.000000
O O8 0.149717 0.299433 0.738700
O O9 0.066216 0.238143 0.732931
O O10 0.100164 0.285011 0.000000
O O11 0.048104 0.180112 0.500000
O O12 0.088923 0.177846 0.231179
O O13 0.000000 0.154940 0.230643
O O14 0.930754 0.373338 0.500000
O O15 0.000000 0.401864 0.310992
#
# Coordination Sequence:
#
# PCOD9587771 Si02
#       5
#    24  12  24  24  24
#     4   9  17  28  41  55  70  92 122 152 184 223
#     4   9  16  24  36  54  73  96 124 150 184 224
#     4  10  20  29  37  54  76  94 115 145 182 223
#     4   9  17  29  43  56  71  91 113 137 169 216
#     4   8  15  26  37  52  73  94 121 155 186 221
#
# _framework density 13.144539
#
# number of rings (size 3 to 8) (size 9 to 14) (size 15 to 20)
#    0.000    3.000    0.000    2.667    1.556    5.333 
#    0.000    2.222    0.000    0.222    0.000    1.556 
#    0.000    0.000    0.000    5.556    0.000    5.778 
#
# Total GULP energy -601273.116035 kJ/mol
# GULP energy per Si atom -5567.343667 kJ/mol
# Density = 1.311462 g / cm^3
# Si number density = 13.144539 Si / 1000 Ang^3
#
#
#
# Elastic Constant Matrix: (Units=GPa)
#
#
# Indices 1 2 3 4 5 6 
#
# 1 78.7219 49.2334 28.3520 0.0000 0.0000 0.0000
# 2 49.2334 78.7219 28.3520 0.0000 0.0000 0.0000
# 3 28.3520 28.3520 37.2733 0.0000 0.0000 0.0000
# 4 0.0000 0.0000 0.0000 9.7742 0.0000 0.0000
# 5 0.0000 0.0000 0.0000 0.0000 9.7742 0.0000
# 6 0.0000 0.0000 0.0000 0.0000 0.0000 14.7443
#
#
#
# Elastic Compliance Matrix: (Units=1/GPa)
#
#
# Indices 1 2 3 4 5 6 
#
# 1 0.022850 -0.011061 -0.008967 0.000000 0.000000 0.000000
# 2 -0.011061 0.022850 -0.008967 0.000000 0.000000 0.000000
# 3 -0.008967 -0.008967 0.040471 0.000000 0.000000 0.000000
# 4 0.000000 0.000000 0.000000 0.102310 0.000000 0.000000
# 5 0.000000 0.000000 0.000000 0.000000 0.102310 0.000000
# 6 0.000000 0.000000 0.000000 0.000000 0.000000 0.067823
#
#
# Mechanical properties :
#
#
# Convention : Reuss Voigt Hill
#
# Bulk Modulus (GPa) = 35.48666 45.17687 40.33177
# Shear Modulus (GPa) = 11.73710 12.77720 12.25715
#
# Velocity S-wave (km/s) = 2.99143 3.12116 3.05698
# Velocity P-wave (km/s) = 6.24399 6.88715 6.57344
#
# Compressibility (1/GPa) = 0.02817960
#
# Stress axis : x y z
#
# Youngs Moduli (GPa) = 43.76303 43.76303 24.70906
#
# Poissons Ratio (x) = 0.48407 0.22158
# Poissons Ratio (y) = 0.48407 0.22158
# Poissons Ratio (z) = 0.39244 0.39244
#
# Static dielectric constant tensor:
#      x y z
#    x 1.448450 0.000000 0.000000 
#    y 0.000000 1.448450 0.000000 
#    z 0.000000 0.000000 1.465590 
# 
# From -- ./inp_files/1728.got.cif
#   From: 2010.05.17/outbox.cif.g08.bks.cpg/sg191_1_cif.got.tgz:1728.got - 2010.05.20 12:20:32.
