data_PCOD9587302
_publ_section_title
;
Structure prediction by ZEFSAII (Michael W. Deem and Ramdas Pophale) SiO2 
 PCOD9587302
Probable space group: P 6/M M M
;
_chemical_formula_sum "Si O2"
_cell_formula_units_Z 144
_cell_length_a 21.563854
_cell_length_b 21.563854
_cell_length_c 24.277250
_cell_angle_alpha 90.000000
_cell_angle_beta 90.000000
_cell_angle_gamma 120.000000
_cell_volume 9776.488365
_symmetry_space_group_name_H-M "P 6/M M M"
_symmetry_group_IT_number 191
_symmetry_cell_setting 'hexagonal'
loop_
_space_group_symop_operation_xyz
x,y,z
x-y,x,z
-y,x-y,z
-x,-y,z
-x+y,-x,z
y,-x+y,z
x-y,-y,-z
-x,-x+y,-z
y,x,-z
-y,-x,-z
-x+y,y,-z
x,x-y,-z
-x,-y,-z
-x+y,-x,-z
y,-x+y,-z
x,y,-z
x-y,x,-z
-y,x-y,-z
-x+y,y,z
x,x-y,z
-y,-x,z
y,x,z
x-y,-y,z
-x,-x+y,z
loop_
_atom_site_type_symbol
_atom_site_label
_atom_site_fract_x
_atom_site_fract_y
_atom_site_fract_z
Si Si1 0.773456 0.689625 0.500000
Si Si2 0.917367 0.614907 0.612122
Si Si3 0.920350 0.699929 0.279665
Si Si4 0.478818 0.665100 0.322981
Si Si5 0.081678 0.466117 0.099864
Si Si6 0.482744 0.815140 0.000000
Si Si7 0.349216 0.432502 0.224819
O O1 0.751616 0.751616 0.500000
O O2 0.857290 0.714580 0.500000
O O3 0.736800 0.641584 0.445965
O O4 0.911201 0.663105 0.660500
O O5 0.861393 0.534041 0.628890
O O6 0.000000 0.633446 0.613813
O O7 0.859352 0.718703 0.270639
O O8 0.913203 0.638827 0.237831
O O9 0.000000 0.765417 0.276162
O O10 0.481521 0.740761 0.316463
O O11 0.399253 0.600748 0.333419
O O12 0.509471 0.646866 0.267982
O O13 0.080356 0.540178 0.099693
O O14 0.100514 0.454914 0.161631
O O15 0.000000 0.404312 0.087644
O O16 0.138274 0.475732 0.053579
O O17 0.403627 0.807254 0.000000
O O18 0.476929 0.738465 0.000000
O O19 0.410292 0.410292 0.234765
#
# Coordination Sequence:
#
# PCOD9587302 Si02
#       7
#    12  24  24  24  24  12  24
#     4  10  18  30  49  72  95 117 145 181 222 264
#     4   9  18  31  49  69  86 109 143 185 225 255
#     4   9  16  27  43  64  88 112 138 169 208 250
#     4  11  21  32  45  63  90 120 147 175 214 266
#     4   9  17  30  46  63  82 106 139 176 213 251
#     4  10  20  31  43  59  82 113 144 174 207 246
#     4   9  17  29  48  69  85 105 137 180 223 258
#
# _framework density 14.729215999999999
#
# number of rings (size 3 to 8) (size 9 to 14) (size 15 to 20)
#    0.000    2.500    0.000    5.500    0.000    4.333 
#    0.000    0.417    0.000    3.750    0.000    1.167 
#    0.000    4.000    0.000    0.000    0.000    0.333 
#
# Total GULP energy -802536.433159 kJ/mol
# GULP energy per Si atom -5573.169675 kJ/mol
# Density = 1.469569 g / cm^3
# Si number density = 14.729216 Si / 1000 Ang^3
#
#
#
# Elastic Constant Matrix: (Units=GPa)
#
#
# Indices 1 2 3 4 5 6 
#
# 1 84.3793 51.9362 40.4316 0.0000 0.0000 0.0000
# 2 51.9362 84.3793 40.4316 0.0000 0.0000 0.0000
# 3 40.4316 40.4316 86.8704 0.0000 0.0000 0.0000
# 4 0.0000 0.0000 0.0000 8.5041 0.0000 0.0000
# 5 0.0000 0.0000 0.0000 0.0000 8.5041 0.0000
# 6 0.0000 0.0000 0.0000 0.0000 0.0000 16.2215
#
#
#
# Elastic Compliance Matrix: (Units=1/GPa)
#
#
# Indices 1 2 3 4 5 6 
#
# 1 0.020479 -0.010345 -0.004717 0.000000 0.000000 0.000000
# 2 -0.010345 0.020479 -0.004717 0.000000 0.000000 0.000000
# 3 -0.004717 -0.004717 0.015902 0.000000 0.000000 0.000000
# 4 0.000000 0.000000 0.000000 0.117590 0.000000 0.000000
# 5 0.000000 0.000000 0.000000 0.000000 0.117590 0.000000
# 6 0.000000 0.000000 0.000000 0.000000 0.000000 0.061646
#
#
# Mechanical properties :
#
#
# Convention : Reuss Voigt Hill
#
# Bulk Modulus (GPa) = 57.79249 57.91421 57.85335
# Shear Modulus (GPa) = 12.53104 14.83458 13.68281
#
# Velocity S-wave (km/s) = 2.91995 3.17701 3.05119
# Velocity P-wave (km/s) = 7.11969 7.27066 7.19557
#
# Compressibility (1/GPa) = 0.01730329
#
# Stress axis : x y z
#
# Youngs Moduli (GPa) = 48.83167 48.83167 62.88605
#
# Poissons Ratio (x) = 0.50515 0.29660
# Poissons Ratio (y) = 0.50515 0.29660
# Poissons Ratio (z) = 0.23032 0.23032
#
# Static dielectric constant tensor:
#      x y z
#    x 1.483690 0.000000 0.000000 
#    y 0.000000 1.483690 0.000000 
#    z 0.000000 0.000000 1.485430 
# 
# From -- ./inp_files/8914.got.cif
#   From: 2010.05.17/outbox.cif.g08.bks.cpg/sg191_5_cif.got.tgz:8914.got - 2010.05.20 12:20:32.
