data_PCOD9587809
_publ_section_title
;
Structure prediction by ZEFSAII (Michael W. Deem and Ramdas Pophale) SiO2 
 PCOD9587809
Probable space group: P 6/M M M
;
_chemical_formula_sum "Si O2"
_cell_formula_units_Z 96
_cell_length_a 21.579764
_cell_length_b 21.579764
_cell_length_c 13.458553
_cell_angle_alpha 90.000000
_cell_angle_beta 90.000000
_cell_angle_gamma 120.000000
_cell_volume 5427.781826
_symmetry_space_group_name_H-M "P 6/M M M"
_symmetry_group_IT_number 191
_symmetry_cell_setting 'hexagonal'
loop_
_space_group_symop_operation_xyz
x,y,z
x-y,x,z
-y,x-y,z
-x,-y,z
-x+y,-x,z
y,-x+y,z
x-y,-y,-z
-x,-x+y,-z
y,x,-z
-y,-x,-z
-x+y,y,-z
x,x-y,-z
-x,-y,-z
-x+y,-x,-z
y,-x+y,-z
x,y,-z
x-y,x,-z
-y,x-y,-z
-x+y,y,z
x,x-y,z
-y,-x,z
y,x,z
x-y,-y,z
-x,-x+y,z
loop_
_atom_site_type_symbol
_atom_site_label
_atom_site_fract_x
_atom_site_fract_y
_atom_site_fract_z
Si Si1 0.844658 0.305408 0.391673
Si Si2 0.284837 0.366906 0.890132
Si Si3 0.221965 0.918683 0.680990
Si Si4 0.811900 0.476158 0.181408
O O1 0.855888 0.339838 0.500000
O O2 0.768185 0.231816 0.392742
O O3 0.901250 0.278646 0.372352
O O4 0.839894 0.346112 0.295610
O O5 0.349125 0.349125 0.883399
O O6 0.233992 0.324538 0.798085
O O7 0.312674 0.450394 0.875960
O O8 0.252551 0.344142 0.000000
O O9 0.142688 0.857313 0.652150
O O10 0.243403 0.000000 0.662232
O O11 0.731283 0.462565 0.178546
O O12 0.814979 0.407490 0.145220
#
# Coordination Sequence:
#
# PCOD9587809 Si02
#       4
#    24  24  24  24
#     4   8  15  29  47  65  86 114 150 191 228 258
#     4   9  18  33  52  70  87 112 150 197 242 275
#     4   9  17  29  47  71  96 121 150 186 228 273
#     4  10  20  32  46  66  94 126 156 186 225 278
#
# _framework density 17.686782999999998
#
# number of rings (size 3 to 8) (size 9 to 14) (size 15 to 20)
#    0.000    3.000    0.000    2.500    0.000    4.000 
#    0.000    1.250    0.000    3.250    0.000    7.000 
#    0.000    0.000    0.000   12.500    0.000    0.000 
#
# Total GULP energy -534784.757192 kJ/mol
# GULP energy per Si atom -5570.674554 kJ/mol
# Density = 1.764653 g / cm^3
# Si number density = 17.686783 Si / 1000 Ang^3
#
#
#
# Elastic Constant Matrix: (Units=GPa)
#
#
# Indices 1 2 3 4 5 6 
#
# 1 58.5054 37.8156 -23.9259 0.0000 0.0000 0.0000
# 2 37.8156 58.5054 -23.9259 0.0000 0.0000 0.0000
# 3 -23.9259 -23.9259 42.0452 0.0000 0.0000 0.0000
# 4 0.0000 0.0000 0.0000 4.5641 0.0000 0.0000
# 5 0.0000 0.0000 0.0000 0.0000 4.5641 0.0000
# 6 0.0000 0.0000 0.0000 0.0000 0.0000 10.3449
#
#
#
# Elastic Compliance Matrix: (Units=1/GPa)
#
#
# Indices 1 2 3 4 5 6 
#
# 1 0.031403 -0.016930 0.008236 0.000000 0.000000 0.000000
# 2 -0.016930 0.031403 0.008236 0.000000 0.000000 0.000000
# 3 0.008236 0.008236 0.033158 0.000000 0.000000 0.000000
# 4 0.000000 0.000000 0.000000 0.219102 0.000000 0.000000
# 5 0.000000 0.000000 0.000000 0.000000 0.219102 0.000000
# 6 0.000000 0.000000 0.000000 0.000000 0.000000 0.096666
#
#
# Mechanical properties :
#
#
# Convention : Reuss Voigt Hill
#
# Bulk Modulus (GPa) = 10.52077 15.44264 12.98170
# Shear Modulus (GPa) = 7.53657 15.16743 11.35200
#
# Velocity S-wave (km/s) = 2.06649 2.93158 2.53620
# Velocity P-wave (km/s) = 3.41396 4.49545 3.99150
#
# Compressibility (1/GPa) = 0.09505012
#
# Stress axis : x y z
#
# Youngs Moduli (GPa) = 31.84379 31.84379 30.15894
#
# Poissons Ratio (x) = 0.53910 -0.24840
# Poissons Ratio (y) = 0.53910 -0.24840
# Poissons Ratio (z) = -0.26227 -0.26227
#
# Static dielectric constant tensor:
#      x y z
#    x 1.590060 0.000000 0.000000 
#    y 0.000000 1.590060 0.000000 
#    z 0.000000 0.000000 1.656070 
# 
# From -- ./inp_files/4162.got.cif
#   From: 2010.05.17/outbox.cif.g08.bks.cpg/sg191_3_cif.got.tgz:4162.got - 2010.05.20 12:20:32.
