data_PCOD9587149
_publ_section_title
;
Structure prediction by ZEFSAII (Michael W. Deem and Ramdas Pophale) SiO2 
 PCOD9587149
Probable space group: P 6/M M M
;
_chemical_formula_sum "Si O2"
_cell_formula_units_Z 192
_cell_length_a 22.898889
_cell_length_b 22.898889
_cell_length_c 31.070687
_cell_angle_alpha 90.000000
_cell_angle_beta 90.000000
_cell_angle_gamma 120.000000
_cell_volume 14109.457363
_symmetry_space_group_name_H-M "P 6/M M M"
_symmetry_group_IT_number 191
_symmetry_cell_setting 'hexagonal'
loop_
_space_group_symop_operation_xyz
x,y,z
x-y,x,z
-y,x-y,z
-x,-y,z
-x+y,-x,z
y,-x+y,z
x-y,-y,-z
-x,-x+y,-z
y,x,-z
-y,-x,-z
-x+y,y,-z
x,x-y,-z
-x,-y,-z
-x+y,-x,-z
y,-x+y,-z
x,y,-z
x-y,x,-z
-y,x-y,-z
-x+y,y,z
x,x-y,z
-y,-x,z
y,x,z
x-y,-y,z
-x,-x+y,z
loop_
_atom_site_type_symbol
_atom_site_label
_atom_site_fract_x
_atom_site_fract_y
_atom_site_fract_z
Si Si1 0.147871 0.710402 0.952601
Si Si2 0.286176 0.851774 0.211040
Si Si3 0.609214 0.532642 0.385560
Si Si4 0.528157 0.919273 0.287036
Si Si5 0.208156 0.284372 0.824309
Si Si6 0.333960 0.527163 0.871514
Si Si7 0.528158 0.195344 0.449327
Si Si8 0.924281 0.209746 0.928425
O O1 0.219735 0.780266 0.951974
O O2 0.152273 0.667935 0.913289
O O3 0.094089 0.735037 0.945286
O O4 0.139122 0.679606 0.000000
O O5 0.220806 0.779195 0.220255
O O6 0.333905 0.881281 0.251994
O O7 0.257551 0.899820 0.195423
O O8 0.324775 0.841213 0.171092
O O9 0.537318 0.462683 0.386281
O O10 0.590820 0.590820 0.395214
O O11 0.634098 0.539816 0.336409
O O12 0.655366 0.522249 0.419592
O O13 0.450575 0.901149 0.282604
O O14 0.572912 0.000000 0.280801
O O15 0.132295 0.264590 0.812056
O O16 0.232113 0.232113 0.811552
O O17 0.212131 0.290392 0.876323
O O18 0.267979 0.535957 0.873843
O O19 0.401409 0.598592 0.870137
O O20 0.512701 0.179754 0.500000
O O21 0.603358 0.206716 0.442488
O O22 0.527213 0.263607 0.439626
O O23 0.864167 0.135834 0.941967
O O24 0.000000 0.230378 0.941121
#
# Coordination Sequence:
#
# PCOD9587149 Si02
#       8
#    24  24  24  24  24  24  24  24
#     4   9  17  30  46  62  81 105 132 162 195 229
#     4  10  18  28  43  62  83 107 135 165 197 236
#     4   8  15  27  40  54  74 101 133 168 205 243
#     4   9  17  29  43  58  78 104 134 170 208 242
#     4   9  16  27  44  64  84 104 128 158 188 220
#     4  10  19  31  45  62  83 106 133 166 202 239
#     4   9  16  25  38  56  78 103 131 165 205 247
#     4   9  16  28  46  66  86 107 131 158 188 223
#
# _framework density 13.607894
#
# number of rings (size 3 to 8) (size 9 to 14) (size 15 to 20)
#    0.000    2.875    1.250    1.750    0.000    1.750 
#    0.000    1.250    0.000    2.375    0.000    2.625 
#    0.000    0.000    0.000    3.125    0.000    3.250 
#
# Total GULP energy -1069191.986277 kJ/mol
# GULP energy per Si atom -5568.708262 kJ/mol
# Density = 1.357692 g / cm^3
# Si number density = 13.607894 Si / 1000 Ang^3
#
#
#
# Elastic Constant Matrix: (Units=GPa)
#
#
# Indices 1 2 3 4 5 6 
#
# 1 72.8212 45.0909 51.3810 0.0000 0.0000 0.0000
# 2 45.0909 72.8212 51.3810 0.0000 0.0000 0.0000
# 3 51.3810 51.3810 87.1107 0.0000 0.0000 0.0000
# 4 0.0000 0.0000 0.0000 14.4481 0.0000 0.0000
# 5 0.0000 0.0000 0.0000 0.0000 14.4481 0.0000
# 6 0.0000 0.0000 0.0000 0.0000 0.0000 13.8652
#
#
#
# Elastic Compliance Matrix: (Units=1/GPa)
#
#
# Indices 1 2 3 4 5 6 
#
# 1 0.026757 -0.009305 -0.010294 0.000000 0.000000 0.000000
# 2 -0.009305 0.026757 -0.010294 0.000000 0.000000 0.000000
# 3 -0.010294 -0.010294 0.023623 0.000000 0.000000 0.000000
# 4 0.000000 0.000000 0.000000 0.069213 0.000000 0.000000
# 5 0.000000 0.000000 0.000000 0.000000 0.069213 0.000000
# 6 0.000000 0.000000 0.000000 0.000000 0.000000 0.072123
#
#
# Mechanical properties :
#
#
# Convention : Reuss Voigt Hill
#
# Bulk Modulus (GPa) = 57.63099 58.71765 58.17432
# Shear Modulus (GPa) = 14.15406 14.21229 14.18317
#
# Velocity S-wave (km/s) = 3.22861 3.23525 3.23193
# Velocity P-wave (km/s) = 7.50611 7.56301 7.53461
#
# Compressibility (1/GPa) = 0.01735178
#
# Stress axis : x y z
#
# Youngs Moduli (GPa) = 37.37357 37.37357 42.33155
#
# Poissons Ratio (x) = 0.34775 0.43576
# Poissons Ratio (y) = 0.34775 0.43576
# Poissons Ratio (z) = 0.38472 0.38472
#
# Static dielectric constant tensor:
#      x y z
#    x 1.435940 0.000000 0.000000 
#    y 0.000000 1.435940 0.000000 
#    z 0.000000 0.000000 1.448070 
# 
# From -- ./inp_files/10160.got.cif
#   From: 2010.05.17/outbox.cif.g08.bks.cpg/sg191_6_cif.got.tgz:10160.got - 2010.05.20 12:20:32.
