data_PCOD9587365
_publ_section_title
;
Structure prediction by ZEFSAII (Michael W. Deem and Ramdas Pophale) SiO2 
 PCOD9587365
Probable space group: P 6/M M M
;
_chemical_formula_sum "Si O2"
_cell_formula_units_Z 96
_cell_length_a 31.857692
_cell_length_b 31.857692
_cell_length_c 7.478839
_cell_angle_alpha 90.000000
_cell_angle_beta 90.000000
_cell_angle_gamma 120.000000
_cell_volume 6573.451064
_symmetry_space_group_name_H-M "P 6/M M M"
_symmetry_group_IT_number 191
_symmetry_cell_setting 'hexagonal'
loop_
_space_group_symop_operation_xyz
x,y,z
x-y,x,z
-y,x-y,z
-x,-y,z
-x+y,-x,z
y,-x+y,z
x-y,-y,-z
-x,-x+y,-z
y,x,-z
-y,-x,-z
-x+y,y,-z
x,x-y,-z
-x,-y,-z
-x+y,-x,-z
y,-x+y,-z
x,y,-z
x-y,x,-z
-y,x-y,-z
-x+y,y,z
x,x-y,z
-y,-x,z
y,x,z
x-y,-y,z
-x,-x+y,z
loop_
_atom_site_type_symbol
_atom_site_label
_atom_site_fract_x
_atom_site_fract_y
_atom_site_fract_z
Si Si1 0.223942 0.280079 0.288056
Si Si2 0.193383 0.704564 0.704617
Si Si3 0.847987 0.791537 0.000000
Si Si4 0.333896 0.767461 0.000000
Si Si5 0.382423 0.239564 0.282512
O O1 0.212179 0.275628 0.500000
O O2 0.264221 0.264221 0.261327
O O3 0.178236 0.242892 0.170942
O O4 0.241817 0.335056 0.231754
O O5 0.182882 0.687416 0.500000
O O6 0.243219 0.756782 0.703608
O O7 0.204280 0.670894 0.829768
O O8 0.153589 0.718064 0.773635
O O9 0.832876 0.832876 0.000000
O O10 0.904353 0.808706 0.000000
O O11 0.286504 0.713497 0.000000
O O12 0.382385 0.764770 0.000000
O O13 0.384492 0.240062 0.500000
O O14 0.375970 0.187985 0.224116
#
# Coordination Sequence:
#
# PCOD9587365 Si02
#       5
#    24  24  12  12  24
#     4   9  17  28  42  63  91 116 136 162 197 240
#     4   8  15  27  40  55  76 101 130 163 195 229
#     4  10  20  31  43  60  82 110 143 176 210 248
#     4  10  19  29  41  57  77 101 129 162 201 242
#     4   8  13  23  40  59  80 108 137 161 188 227
#
# _framework density 14.604200000000001
#
# number of rings (size 3 to 8) (size 9 to 14) (size 15 to 20)
#    0.000    3.250    0.000    2.375    0.000    3.000 
#    0.000    2.500    0.000    1.625    0.000    0.000 
#    0.000    2.000    0.000   16.000    0.000    0.000 
#
# Total GULP energy -534513.248207 kJ/mol
# GULP energy per Si atom -5567.846335 kJ/mol
# Density = 1.457096 g / cm^3
# Si number density = 14.604200 Si / 1000 Ang^3
#
#
#
# Elastic Constant Matrix: (Units=GPa)
#
#
# Indices 1 2 3 4 5 6 
#
# 1 99.5034 51.5236 35.6778 0.0000 0.0000 0.0000
# 2 51.5236 99.5034 35.6778 0.0000 0.0000 0.0000
# 3 35.6778 35.6778 64.7207 0.0000 0.0000 0.0000
# 4 0.0000 0.0000 0.0000 13.5515 0.0000 0.0000
# 5 0.0000 0.0000 0.0000 0.0000 13.5515 0.0000
# 6 0.0000 0.0000 0.0000 0.0000 0.0000 23.9899
#
#
#
# Elastic Compliance Matrix: (Units=1/GPa)
#
#
# Indices 1 2 3 4 5 6 
#
# 1 0.014898 -0.005944 -0.004936 0.000000 0.000000 0.000000
# 2 -0.005944 0.014898 -0.004936 0.000000 0.000000 0.000000
# 3 -0.004936 -0.004936 0.020893 0.000000 0.000000 0.000000
# 4 0.000000 0.000000 0.000000 0.073793 0.000000 0.000000
# 5 0.000000 0.000000 0.000000 0.000000 0.073793 0.000000
# 6 0.000000 0.000000 0.000000 0.000000 0.000000 0.041684
#
#
# Mechanical properties :
#
#
# Convention : Reuss Voigt Hill
#
# Bulk Modulus (GPa) = 52.47468 56.60957 54.54213
# Shear Modulus (GPa) = 17.98944 19.60845 18.79895
#
# Velocity S-wave (km/s) = 3.51351 3.66821 3.59169
# Velocity P-wave (km/s) = 7.24354 7.53576 7.39109
#
# Compressibility (1/GPa) = 0.01905681
#
# Stress axis : x y z
#
# Youngs Moduli (GPa) = 67.12462 67.12462 47.86400
#
# Poissons Ratio (x) = 0.39902 0.23623
# Poissons Ratio (y) = 0.39902 0.23623
# Poissons Ratio (z) = 0.33130 0.33130
#
# Static dielectric constant tensor:
#      x y z
#    x 1.469900 0.000000 0.000000 
#    y 0.000000 1.469900 0.000000 
#    z 0.000000 0.000000 1.615660 
# 
# From -- ./inp_files/1571.got.cif
#   From: 2010.05.17/outbox.cif.g08.bks.cpg/sg191_1_cif.got.tgz:1571.got - 2010.05.20 12:20:32.
