data_PCOD9587398
_publ_section_title
;
Structure prediction by ZEFSAII (Michael W. Deem and Ramdas Pophale) SiO2 
 PCOD9587398
Probable space group: P 6/M M M
;
_chemical_formula_sum "Si O2"
_cell_formula_units_Z 120
_cell_length_a 17.905838
_cell_length_b 17.905838
_cell_length_c 25.278625
_cell_angle_alpha 90.000000
_cell_angle_beta 90.000000
_cell_angle_gamma 120.000000
_cell_volume 7018.969916
_symmetry_space_group_name_H-M "P 6/M M M"
_symmetry_group_IT_number 191
_symmetry_cell_setting 'hexagonal'
loop_
_space_group_symop_operation_xyz
x,y,z
x-y,x,z
-y,x-y,z
-x,-y,z
-x+y,-x,z
y,-x+y,z
x-y,-y,-z
-x,-x+y,-z
y,x,-z
-y,-x,-z
-x+y,y,-z
x,x-y,-z
-x,-y,-z
-x+y,-x,-z
y,-x+y,-z
x,y,-z
x-y,x,-z
-y,x-y,-z
-x+y,y,z
x,x-y,z
-y,-x,z
y,x,z
x-y,-y,z
-x,-x+y,z
loop_
_atom_site_type_symbol
_atom_site_label
_atom_site_fract_x
_atom_site_fract_y
_atom_site_fract_z
Si Si1 0.101193 0.460346 0.442518
Si Si2 0.653007 0.653007 0.936776
Si Si3 0.836772 0.506083 0.327387
Si Si4 0.368331 0.098256 0.230729
Si Si5 0.172936 0.172936 0.064488
Si Si6 0.489286 0.332645 0.128603
O O1 0.134258 0.450393 0.500000
O O2 0.107608 0.553804 0.443579
O O3 0.144143 0.459765 0.387572
O O4 0.000000 0.391079 0.439646
O O5 0.740298 0.740298 0.919652
O O6 0.656025 0.571231 0.913697
O O7 0.650460 0.650460 0.000000
O O8 0.736573 0.473145 0.316109
O O9 0.856314 0.428157 0.322048
O O10 0.889843 0.581400 0.285728
O O11 0.338137 0.169069 0.229179
O O12 0.438614 0.123876 0.184172
O O13 0.294787 0.000000 0.223899
O O14 0.173578 0.086789 0.081685
O O15 0.171869 0.171869 0.000000
O O16 0.497423 0.248712 0.116724
O O17 0.581830 0.418171 0.131475
#
# Coordination Sequence:
#
# PCOD9587398 Si02
#       6
#    24  12  24  24  12  24
#     4   8  14  25  40  58  83 121 171 222 267 310
#     4  11  23  39  59  81 109 145 182 219 263 321
#     4  10  19  29  44  68 100 137 177 220 263 306
#     4  10  21  37  58  82 106 134 170 213 261 311
#     4   9  17  31  53  81 111 141 175 216 261 309
#     4  11  23  39  59  83 111 143 180 223 268 314
#
# _framework density 17.096526000000001
#
# number of rings (size 3 to 8) (size 9 to 14) (size 15 to 20)
#    0.000    2.200    1.000    3.200    0.000    4.800 
#    0.000    2.000    0.000    2.600    0.000    0.000 
#    0.000    0.000    0.000    0.000    0.000    0.000 
#
# Total GULP energy -669247.994681 kJ/mol
# GULP energy per Si atom -5577.066622 kJ/mol
# Density = 1.705761 g / cm^3
# Si number density = 17.096526 Si / 1000 Ang^3
#
#
#
# Elastic Constant Matrix: (Units=GPa)
#
#
# Indices 1 2 3 4 5 6 
#
# 1 114.9326 75.5950 41.3935 0.0000 0.0000 0.0000
# 2 75.5950 114.9326 41.3935 0.0000 0.0000 0.0000
# 3 41.3935 41.3935 88.8768 0.0000 0.0000 0.0000
# 4 0.0000 0.0000 0.0000 19.9920 0.0000 0.0000
# 5 0.0000 0.0000 0.0000 0.0000 19.9920 0.0000
# 6 0.0000 0.0000 0.0000 0.0000 0.0000 19.6688
#
#
#
# Elastic Compliance Matrix: (Units=1/GPa)
#
#
# Indices 1 2 3 4 5 6 
#
# 1 0.016001 -0.009420 -0.003065 0.000000 0.000000 0.000000
# 2 -0.009420 0.016001 -0.003065 0.000000 0.000000 0.000000
# 3 -0.003065 -0.003065 0.014106 0.000000 0.000000 0.000000
# 4 0.000000 0.000000 0.000000 0.050020 0.000000 0.000000
# 5 0.000000 0.000000 0.000000 0.000000 0.050020 0.000000
# 6 0.000000 0.000000 0.000000 0.000000 0.000000 0.050842
#
#
# Mechanical properties :
#
#
# Convention : Reuss Voigt Hill
#
# Bulk Modulus (GPa) = 66.63128 70.61178 68.62153
# Shear Modulus (GPa) = 21.45080 22.62121 22.03601
#
# Velocity S-wave (km/s) = 3.54600 3.64145 3.59404
# Velocity P-wave (km/s) = 7.47152 7.68581 7.57943
#
# Compressibility (1/GPa) = 0.01500797
#
# Stress axis : x y z
#
# Youngs Moduli (GPa) = 62.49768 62.49768 70.89066
#
# Poissons Ratio (x) = 0.58875 0.21726
# Poissons Ratio (y) = 0.58875 0.21726
# Poissons Ratio (z) = 0.19154 0.19154
#
# Static dielectric constant tensor:
#      x y z
#    x 1.566330 0.000000 0.000000 
#    y 0.000000 1.566330 0.000000 
#    z 0.000000 0.000000 1.608050 
# 
# From -- ./inp_files/8539.got.cif
#   From: 2010.05.17/outbox.cif.g08.bks.cpg/sg191_5_cif.got.tgz:8539.got - 2010.05.20 12:20:32.
