data_PCOD9587901
_publ_section_title
;
Structure prediction by ZEFSAII (Michael W. Deem and Ramdas Pophale) SiO2 
 PCOD9587901
Probable space group: P 6/M M M
;
_chemical_formula_sum "Si O2"
_cell_formula_units_Z 96
_cell_length_a 18.209123
_cell_length_b 18.209123
_cell_length_c 20.278366
_cell_angle_alpha 90.000000
_cell_angle_beta 90.000000
_cell_angle_gamma 120.000000
_cell_volume 5822.931055
_symmetry_space_group_name_H-M "P 6/M M M"
_symmetry_group_IT_number 191
_symmetry_cell_setting 'hexagonal'
loop_
_space_group_symop_operation_xyz
x,y,z
x-y,x,z
-y,x-y,z
-x,-y,z
-x+y,-x,z
y,-x+y,z
x-y,-y,-z
-x,-x+y,-z
y,x,-z
-y,-x,-z
-x+y,y,-z
x,x-y,-z
-x,-y,-z
-x+y,-x,-z
y,-x+y,-z
x,y,-z
x-y,x,-z
-y,x-y,-z
-x+y,y,z
x,x-y,z
-y,-x,z
y,x,z
x-y,-y,z
-x,-x+y,z
loop_
_atom_site_type_symbol
_atom_site_label
_atom_site_fract_x
_atom_site_fract_y
_atom_site_fract_z
Si Si1 0.266249 0.361966 0.190868
Si Si2 0.504502 0.838374 0.077126
Si Si3 0.160998 0.493973 0.689902
Si Si4 0.735809 0.639291 0.421989
O O1 0.167851 0.335701 0.192279
O O2 0.286928 0.286928 0.195504
O O3 0.307078 0.416418 0.124625
O O4 0.311133 0.427212 0.251134
O O5 0.424235 0.848469 0.095018
O O6 0.480214 0.740107 0.084445
O O7 0.524363 0.860631 0.000000
O O8 0.259741 0.519481 0.691781
O O9 0.150663 0.575332 0.696484
O O10 0.122155 0.442961 0.622229
O O11 0.722269 0.620294 0.500000
O O12 0.833098 0.666196 0.406978
O O13 0.709629 0.709629 0.407132
#
# Coordination Sequence:
#
# PCOD9587901 Si02
#       4
#    24  24  24  24
#     4  10  21  35  50  69  93 121 153 191 236 281
#     4   9  17  29  46  69  98 131 163 192 223 263
#     4  10  20  33  49  70  97 128 159 189 222 263
#     4   9  18  32  49  69  93 122 156 194 237 281
#
# _framework density 16.486542
#
# number of rings (size 3 to 8) (size 9 to 14) (size 15 to 20)
#    0.000    2.500    0.000    2.000    0.000    5.500 
#    0.000    5.000    0.000    2.000    0.000    1.750 
#    0.000    6.000    0.000    6.500    0.000    0.000 
#
# Total GULP energy -535461.127304 kJ/mol
# GULP energy per Si atom -5577.720076 kJ/mol
# Density = 1.644902 g / cm^3
# Si number density = 16.486542 Si / 1000 Ang^3
#
#
#
# Elastic Constant Matrix: (Units=GPa)
#
#
# Indices 1 2 3 4 5 6 
#
# 1 96.7361 85.2537 40.3291 0.0000 0.0000 0.0000
# 2 85.2537 96.7361 40.3291 0.0000 0.0000 0.0000
# 3 40.3291 40.3291 44.9826 0.0000 0.0000 0.0000
# 4 0.0000 0.0000 0.0000 16.5464 0.0000 0.0000
# 5 0.0000 0.0000 0.0000 0.0000 16.5464 0.0000
# 6 0.0000 0.0000 0.0000 0.0000 0.0000 5.7412
#
#
#
# Elastic Compliance Matrix: (Units=1/GPa)
#
#
# Indices 1 2 3 4 5 6 
#
# 1 0.048104 -0.038986 -0.008175 0.000000 0.000000 0.000000
# 2 -0.038986 0.048104 -0.008175 0.000000 0.000000 0.000000
# 3 -0.008175 -0.008175 0.036889 0.000000 0.000000 0.000000
# 4 0.000000 0.000000 0.000000 0.060436 0.000000 0.000000
# 5 0.000000 0.000000 0.000000 0.000000 0.060436 0.000000
# 6 0.000000 0.000000 0.000000 0.000000 0.000000 0.174180
#
#
# Mechanical properties :
#
#
# Convention : Reuss Voigt Hill
#
# Bulk Modulus (GPa) = 44.59111 63.36428 53.97770
# Shear Modulus (GPa) = 9.15257 12.60299 10.87778
#
# Velocity S-wave (km/s) = 2.35873 2.76785 2.57144
# Velocity P-wave (km/s) = 5.87570 6.98084 6.45197
#
# Compressibility (1/GPa) = 0.02242600
#
# Stress axis : x y z
#
# Youngs Moduli (GPa) = 20.78832 20.78832 27.10865
#
# Poissons Ratio (x) = 0.81046 0.22160
# Poissons Ratio (y) = 0.81046 0.22160
# Poissons Ratio (z) = 0.16994 0.16994
#
# Static dielectric constant tensor:
#      x y z
#    x 1.536860 0.000000 0.000000 
#    y 0.000000 1.536860 0.000000 
#    z 0.000000 0.000000 1.574580 
# 
# From -- ./inp_files/7091.got.cif
#   From: 2010.05.17/outbox.cif.g08.bks.cpg/sg191_4_cif.got.tgz:7091.got - 2010.05.20 12:20:32.
