data_PCOD9587370
_publ_section_title
;
Structure prediction by ZEFSAII (Michael W. Deem and Ramdas Pophale) SiO2 
 PCOD9587370
Probable space group: P 6/M M M
;
_chemical_formula_sum "Si O2"
_cell_formula_units_Z 132
_cell_length_a 18.225822
_cell_length_b 18.225822
_cell_length_c 28.744416
_cell_angle_alpha 90.000000
_cell_angle_beta 90.000000
_cell_angle_gamma 120.000000
_cell_volume 8269.102403
_symmetry_space_group_name_H-M "P 6/M M M"
_symmetry_group_IT_number 191
_symmetry_cell_setting 'hexagonal'
loop_
_space_group_symop_operation_xyz
x,y,z
x-y,x,z
-y,x-y,z
-x,-y,z
-x+y,-x,z
y,-x+y,z
x-y,-y,-z
-x,-x+y,-z
y,x,-z
-y,-x,-z
-x+y,y,-z
x,x-y,-z
-x,-y,-z
-x+y,-x,-z
y,-x+y,-z
x,y,-z
x-y,x,-z
-y,x-y,-z
-x+y,y,z
x,x-y,z
-y,-x,z
y,x,z
x-y,-y,z
-x,-x+y,z
loop_
_atom_site_type_symbol
_atom_site_label
_atom_site_fract_x
_atom_site_fract_y
_atom_site_fract_z
Si Si1 0.639464 0.735934 0.055109
Si Si2 0.540203 0.902166 0.399396
Si Si3 0.636853 0.733043 0.218294
Si Si4 0.103601 0.466610 0.500000
Si Si5 0.503282 0.834331 0.701099
Si Si6 0.505961 0.667052 0.866321
O O1 0.666141 0.833071 0.065911
O O2 0.709568 0.709568 0.065804
O O3 0.556746 0.679016 0.085881
O O4 0.621236 0.722946 0.000000
O O5 0.451026 0.902051 0.402603
O O6 0.551929 0.870483 0.449818
O O7 0.533086 0.853026 0.352439
O O8 0.611850 0.000000 0.393687
O O9 0.663328 0.831664 0.217637
O O10 0.711473 0.711473 0.215982
O O11 0.580459 0.691705 0.264390
O O12 0.573098 0.689090 0.175092
O O13 0.131145 0.565573 0.500000
O O14 0.000000 0.414860 0.500000
O O15 0.426138 0.852275 0.707477
O O16 0.473160 0.736580 0.711551
O O17 0.480541 0.740271 0.865018
O O18 0.424595 0.575406 0.861419
#
# Coordination Sequence:
#
# PCOD9587370 Si02
#       6
#    24  24  24  12  24  24
#     4   9  18  32  49  69  93 122 156 194 237 282
#     4   8  13  22  37  54  71  96 135 183 229 269
#     4  10  21  35  51  71  93 117 145 180 222 266
#     4   7  10  18  33  52  70  90 126 179 231 269
#     4  10  19  29  41  59  86 119 153 187 222 259
#     4  10  20  33  49  70  97 128 160 192 225 260
#
# _framework density 15.963037999999999
#
# number of rings (size 3 to 8) (size 9 to 14) (size 15 to 20)
#    0.000    2.818    0.000    3.091    0.000    3.636 
#    0.000    3.182    0.000    1.455    0.000    2.545 
#    0.000    4.364    0.000    0.182    0.000    0.000 
#
# Total GULP energy -735121.325319 kJ/mol
# GULP energy per Si atom -5569.100949 kJ/mol
# Density = 1.592671 g / cm^3
# Si number density = 15.963038 Si / 1000 Ang^3
#
#
#
# Elastic Constant Matrix: (Units=GPa)
#
#
# Indices 1 2 3 4 5 6 
#
# 1 74.7324 59.5686 33.7822 0.0000 0.0000 0.0000
# 2 59.5686 74.7324 33.7822 0.0000 0.0000 0.0000
# 3 33.7822 33.7822 64.8289 0.0000 0.0000 0.0000
# 4 0.0000 0.0000 0.0000 16.8552 0.0000 0.0000
# 5 0.0000 0.0000 0.0000 0.0000 16.8552 0.0000
# 6 0.0000 0.0000 0.0000 0.0000 0.0000 7.5819
#
#
#
# Elastic Compliance Matrix: (Units=1/GPa)
#
#
# Indices 1 2 3 4 5 6 
#
# 1 0.038019 -0.027927 -0.005259 0.000000 0.000000 0.000000
# 2 -0.027927 0.038019 -0.005259 0.000000 0.000000 0.000000
# 3 -0.005259 -0.005259 0.020906 0.000000 0.000000 0.000000
# 4 0.000000 0.000000 0.000000 0.059329 0.000000 0.000000
# 5 0.000000 0.000000 0.000000 0.000000 0.059329 0.000000
# 6 0.000000 0.000000 0.000000 0.000000 0.000000 0.131893
#
#
# Mechanical properties :
#
#
# Convention : Reuss Voigt Hill
#
# Bulk Modulus (GPa) = 49.86506 52.06222 50.96364
# Shear Modulus (GPa) = 11.59909 14.06919 12.83414
#
# Velocity S-wave (km/s) = 2.69852 2.97199 2.83855
# Velocity P-wave (km/s) = 6.40429 6.66798 6.53747
#
# Compressibility (1/GPa) = 0.02005412
#
# Stress axis : x y z
#
# Youngs Moduli (GPa) = 26.30268 26.30268 47.83365
#
# Poissons Ratio (x) = 0.73457 0.25154
# Poissons Ratio (y) = 0.73457 0.25154
# Poissons Ratio (z) = 0.13832 0.13832
#
# Static dielectric constant tensor:
#      x y z
#    x 1.522420 0.000000 0.000000 
#    y 0.000000 1.522420 0.000000 
#    z 0.000000 0.000000 1.579390 
# 
# From -- ./inp_files/9842.got.cif
#   From: 2010.05.17/outbox.cif.g08.bks.cpg/sg191_5_cif.got.tgz:9842.got - 2010.05.20 12:20:32.
