data_PCOD9587997
_publ_section_title
;
Structure prediction by ZEFSAII (Michael W. Deem and Ramdas Pophale) SiO2 
 PCOD9587997
Probable space group: P 6/M M M
;
_chemical_formula_sum "Si O2"
_cell_formula_units_Z 132
_cell_length_a 17.417593
_cell_length_b 17.417593
_cell_length_c 30.524456
_cell_angle_alpha 90.000000
_cell_angle_beta 90.000000
_cell_angle_gamma 120.000000
_cell_volume 8019.639397
_symmetry_space_group_name_H-M "P 6/M M M"
_symmetry_group_IT_number 191
_symmetry_cell_setting 'hexagonal'
loop_
_space_group_symop_operation_xyz
x,y,z
x-y,x,z
-y,x-y,z
-x,-y,z
-x+y,-x,z
y,-x+y,z
x-y,-y,-z
-x,-x+y,-z
y,x,-z
-y,-x,-z
-x+y,y,-z
x,x-y,-z
-x,-y,-z
-x+y,-x,-z
y,-x+y,-z
x,y,-z
x-y,x,-z
-y,x-y,-z
-x+y,y,z
x,x-y,z
-y,-x,z
y,x,z
x-y,-y,z
-x,-x+y,z
loop_
_atom_site_type_symbol
_atom_site_label
_atom_site_fract_x
_atom_site_fract_y
_atom_site_fract_z
Si Si1 0.906893 0.635534 0.367876
Si Si2 0.151480 0.484557 0.451281
Si Si3 0.152161 0.666829 0.715213
Si Si4 0.609929 0.895694 0.096528
Si Si5 0.553605 0.446396 0.949866
Si Si6 0.667600 0.514177 0.814092
O O1 0.826474 0.652947 0.368453
O O2 0.897745 0.578003 0.410693
O O3 0.898162 0.580839 0.324030
O O4 0.000000 0.723116 0.368426
O O5 0.118330 0.446147 0.500000
O O6 0.252937 0.505874 0.448614
O O7 0.148043 0.574022 0.447740
O O8 0.147356 0.573678 0.709896
O O9 0.253709 0.746292 0.711941
O O10 0.121849 0.670064 0.764765
O O11 0.633378 0.816689 0.087939
O O12 0.515498 0.868990 0.073092
O O13 0.586178 0.891830 0.148001
O O14 0.680796 0.000000 0.085139
O O15 0.500000 0.500000 0.949733
O O16 0.569359 0.430642 0.000000
O O17 0.742184 0.484367 0.815666
O O18 0.570452 0.429549 0.821765
#
# Coordination Sequence:
#
# PCOD9587997 Si02
#       6
#    24  24  24  24  12  24
#     4  10  21  35  48  64  87 114 147 188 236 283
#     4   9  17  29  46  68  95 127 158 183 207 243
#     4   9  17  28  44  68  98 131 161 189 222 267
#     4  10  20  34  52  74 102 136 174 215 258 303
#     4   9  18  34  54  76 104 134 164 202 247 297
#     4   9  16  27  45  69  98 131 166 200 235 279
#
# _framework density 16.459593000000002
#
# number of rings (size 3 to 8) (size 9 to 14) (size 15 to 20)
#    0.000    2.636    0.909    1.091    0.000    5.091 
#    0.545    4.545    0.000    0.364    0.000    0.000 
#    0.000    0.000    0.000   18.182    0.000    0.000 
#
# Total GULP energy -735167.106441 kJ/mol
# GULP energy per Si atom -5569.447776 kJ/mol
# Density = 1.642213 g / cm^3
# Si number density = 16.459593 Si / 1000 Ang^3
#
#
#
# Elastic Constant Matrix: (Units=GPa)
#
#
# Indices 1 2 3 4 5 6 
#
# 1 44.5953 65.2296 32.4819 0.0000 0.0000 0.0000
# 2 65.2296 44.5953 32.4819 0.0000 0.0000 0.0000
# 3 32.4819 32.4819 88.0269 0.0000 0.0000 0.0000
# 4 0.0000 0.0000 0.0000 1.5033 0.0000 0.0000
# 5 0.0000 0.0000 0.0000 0.0000 1.5033 0.0000
# 6 0.0000 0.0000 0.0000 0.0000 0.0000 -10.3171
#
#
#
# Elastic Compliance Matrix: (Units=1/GPa)
#
#
# Indices 1 2 3 4 5 6 
#
# 1 -0.018408 0.030055 -0.004298 0.000000 0.000000 0.000000
# 2 0.030055 -0.018408 -0.004298 0.000000 0.000000 0.000000
# 3 -0.004298 -0.004298 0.014532 0.000000 0.000000 0.000000
# 4 0.000000 0.000000 0.000000 0.665183 0.000000 0.000000
# 5 0.000000 0.000000 0.000000 0.000000 0.665183 0.000000
# 6 0.000000 0.000000 0.000000 0.000000 0.000000 -0.096926
#
#
# Mechanical properties :
#
#
# Convention : Reuss Voigt Hill
#
# Bulk Modulus (GPa) = 48.46006 48.62271 48.54138
# Shear Modulus (GPa) = 4.25490 1.67286 2.96388
#
# Velocity S-wave (km/s) = 1.60956 1.00923 1.34336
# Velocity P-wave (km/s) = 5.74108 5.56443 5.65344
#
# Compressibility (1/GPa) = 0.02063555
#
# Stress axis : x y z
#
# Youngs Moduli (GPa) = -54.32524 -54.32524 68.81319
#
# Poissons Ratio (x) = 1.63277 0.29576
# Poissons Ratio (y) = 1.63277 0.29576
# Poissons Ratio (z) = -0.23349 -0.23349
#
# Static dielectric constant tensor:
#      x y z
#    x 1.544940 0.000000 0.000000 
#    y 0.000000 1.544940 0.000000 
#    z 0.000000 0.000000 1.593060 
# 
# From -- ./inp_files/10515.got.cif
#   From: 2010.05.17/outbox.cif.g08.bks.cpg/sg191_6_cif.got.tgz:10515.got - 2010.05.20 12:20:32.
