data_PCOD9587439
_publ_section_title
;
Structure prediction by ZEFSAII (Michael W. Deem and Ramdas Pophale) SiO2 
 PCOD9587439
Probable space group: P 6/M M M
;
_chemical_formula_sum "Si O2"
_cell_formula_units_Z 168
_cell_length_a 18.854592
_cell_length_b 18.854592
_cell_length_c 35.135047
_cell_angle_alpha 90.000000
_cell_angle_beta 90.000000
_cell_angle_gamma 120.000000
_cell_volume 10816.965600
_symmetry_space_group_name_H-M "P 6/M M M"
_symmetry_group_IT_number 191
_symmetry_cell_setting 'hexagonal'
loop_
_space_group_symop_operation_xyz
x,y,z
x-y,x,z
-y,x-y,z
-x,-y,z
-x+y,-x,z
y,-x+y,z
x-y,-y,-z
-x,-x+y,-z
y,x,-z
-y,-x,-z
-x+y,y,-z
x,x-y,-z
-x,-y,-z
-x+y,-x,-z
y,-x+y,-z
x,y,-z
x-y,x,-z
-y,x-y,-z
-x+y,y,z
x,x-y,z
-y,-x,z
y,x,z
x-y,-y,z
-x,-x+y,z
loop_
_atom_site_type_symbol
_atom_site_label
_atom_site_fract_x
_atom_site_fract_y
_atom_site_fract_z
Si Si1 0.499672 0.666068 0.455618
Si Si2 0.745606 0.091980 0.402795
Si Si3 0.530294 0.629609 0.956511
Si Si4 0.902740 0.532148 0.177291
Si Si5 0.168717 0.666831 0.739419
Si Si6 0.740296 0.098253 0.890801
Si Si7 0.745858 0.092217 0.687028
O O1 0.521465 0.665098 0.500000
O O2 0.480065 0.740033 0.451548
O O3 0.419907 0.580094 0.446779
O O4 0.575087 0.687719 0.428153
O O5 0.838368 0.161633 0.411256
O O6 0.731183 0.098331 0.357874
O O7 0.724538 0.000000 0.410224
O O8 0.436687 0.563314 0.945460
O O9 0.577649 0.577649 0.956740
O O10 0.581739 0.701515 0.927085
O O11 0.530397 0.656462 0.000000
O O12 0.883389 0.441695 0.164029
O O13 0.856017 0.522017 0.216613
O O14 0.887473 0.583679 0.145551
O O15 0.000000 0.582064 0.185389
O O16 0.157085 0.578543 0.730813
O O17 0.262185 0.737816 0.733977
O O18 0.114537 0.689347 0.712423
O O19 0.837360 0.162641 0.889475
O O20 0.708517 0.000000 0.892082
O O21 0.839152 0.160849 0.695200
O O22 0.723584 0.000000 0.694818
#
# Coordination Sequence:
#
# PCOD9587439 Si02
#       7
#    24  24  24  24  24  24  24
#     4   9  17  29  45  65  90 120 152 184 217 253
#     4   9  18  32  48  66  88 114 144 179 221 266
#     4   8  14  26  45  67  88 110 137 170 211 260
#     4   9  17  29  46  67  88 111 142 181 224 268
#     4  10  19  30  44  64  92 124 155 183 211 246
#     4  10  19  30  45  65  89 117 151 190 228 266
#     4   9  18  32  49  67  87 113 145 181 221 264
#
# _framework density 15.531158
#
# number of rings (size 3 to 8) (size 9 to 14) (size 15 to 20)
#    0.000    2.857    0.000    2.000    0.000    4.571 
#    0.000    2.143    0.000    5.286    0.000    2.000 
#    0.000    0.000    0.000   11.714    0.000    6.857 
#
# Total GULP energy -935626.949590 kJ/mol
# GULP energy per Si atom -5569.208033 kJ/mol
# Density = 1.549581 g / cm^3
# Si number density = 15.531158 Si / 1000 Ang^3
#
#
#
# Elastic Constant Matrix: (Units=GPa)
#
#
# Indices 1 2 3 4 5 6 
#
# 1 83.7255 61.2201 46.0302 0.0000 0.0000 0.0000
# 2 61.2201 83.7255 46.0302 0.0000 0.0000 0.0000
# 3 46.0302 46.0302 45.9719 0.0000 0.0000 0.0000
# 4 0.0000 0.0000 0.0000 18.4176 0.0000 0.0000
# 5 0.0000 0.0000 0.0000 0.0000 18.4176 0.0000
# 6 0.0000 0.0000 0.0000 0.0000 0.0000 11.2527
#
#
#
# Elastic Compliance Matrix: (Units=1/GPa)
#
#
# Indices 1 2 3 4 5 6 
#
# 1 0.031692 -0.012742 -0.018975 0.000000 0.000000 0.000000
# 2 -0.012742 0.031692 -0.018975 0.000000 0.000000 0.000000
# 3 -0.018975 -0.018975 0.059750 0.000000 0.000000 0.000000
# 4 0.000000 0.000000 0.000000 0.054296 0.000000 0.000000
# 5 0.000000 0.000000 0.000000 0.000000 0.054296 0.000000
# 6 0.000000 0.000000 0.000000 0.000000 0.000000 0.088868
#
#
# Mechanical properties :
#
#
# Convention : Reuss Voigt Hill
#
# Bulk Modulus (GPa) = 45.97181 57.77600 51.87390
# Shear Modulus (GPa) = 11.64885 13.62706 12.63796
#
# Velocity S-wave (km/s) = 2.74164 2.96531 2.85567
# Velocity P-wave (km/s) = 6.29969 7.00035 6.65924
#
# Compressibility (1/GPa) = 0.02175246
#
# Stress axis : x y z
#
# Youngs Moduli (GPa) = 31.55342 31.55342 16.73644
#
# Poissons Ratio (x) = 0.40204 0.31757
# Poissons Ratio (y) = 0.40204 0.31757
# Poissons Ratio (z) = 0.59872 0.59872
#
# Static dielectric constant tensor:
#      x y z
#    x 1.509990 0.000000 0.000000 
#    y 0.000000 1.509990 0.000000 
#    z 0.000000 0.000000 1.521390 
# 
# From -- ./inp_files/10766.got.cif
#   From: 2010.05.17/outbox.cif.g08.bks.cpg/sg191_6_cif.got.tgz:10766.got - 2010.05.20 12:20:32.
