data_PCOD9587119
_publ_section_title
;
Structure prediction by ZEFSAII (Michael W. Deem and Ramdas Pophale) SiO2 
 PCOD9587119
Probable space group: P 6/M M M
;
_chemical_formula_sum "Si O2"
_cell_formula_units_Z 108
_cell_length_a 27.115435
_cell_length_b 27.115435
_cell_length_c 12.894033
_cell_angle_alpha 90.000000
_cell_angle_beta 90.000000
_cell_angle_gamma 120.000000
_cell_volume 8210.177777
_symmetry_space_group_name_H-M "P 6/M M M"
_symmetry_group_IT_number 191
_symmetry_cell_setting 'hexagonal'
loop_
_space_group_symop_operation_xyz
x,y,z
x-y,x,z
-y,x-y,z
-x,-y,z
-x+y,-x,z
y,-x+y,z
x-y,-y,-z
-x,-x+y,-z
y,x,-z
-y,-x,-z
-x+y,y,-z
x,x-y,-z
-x,-y,-z
-x+y,-x,-z
y,-x+y,-z
x,y,-z
x-y,x,-z
-y,x-y,-z
-x+y,y,z
x,x-y,z
-y,-x,z
y,x,z
x-y,-y,z
-x,-x+y,z
loop_
_atom_site_type_symbol
_atom_site_label
_atom_site_fract_x
_atom_site_fract_y
_atom_site_fract_z
Si Si1 0.549840 0.216973 0.000000
Si Si2 0.533614 0.708480 0.194859
Si Si3 0.666521 0.217624 0.378794
Si Si4 0.288999 0.354572 0.875124
Si Si5 0.174746 0.936437 0.873978
O O1 0.510831 0.188735 0.899015
O O2 0.605757 0.211513 0.000000
O O3 0.566198 0.283099 0.000000
O O4 0.549346 0.774673 0.191251
O O5 0.500595 0.681860 0.301604
O O6 0.588854 0.702778 0.177925
O O7 0.666428 0.203197 0.500000
O O8 0.606268 0.212535 0.353949
O O9 0.716976 0.283025 0.365218
O O10 0.335266 0.335266 0.850763
O O11 0.227375 0.300613 0.848155
O O12 0.289704 0.362162 0.000000
O O13 0.114989 0.885012 0.836486
O O14 0.192233 0.000000 0.839264
O O15 0.172734 0.936554 0.000000
#
# Coordination Sequence:
#
# PCOD9587119 Si02
#       5
#    12  24  24  24  24
#     4  10  19  28  39  57  81 105 124 147 189 243
#     4  10  18  27  42  62  82 104 128 159 197 236
#     4   9  17  29  45  63  81 102 129 161 196 234
#     4   9  16  26  40  57  78 103 130 162 199 237
#     4   8  13  20  32  50  72  99 129 161 195 231
#
# _framework density 13.154405000000001
#
# number of rings (size 3 to 8) (size 9 to 14) (size 15 to 20)
#    0.000    2.889    1.111    3.000    0.000    1.778 
#    0.000    2.222    0.000    4.222    0.000    3.111 
#    0.000    0.000    0.000    0.000    0.000    0.000 
#
# Total GULP energy -601306.162738 kJ/mol
# GULP energy per Si atom -5567.649655 kJ/mol
# Density = 1.312447 g / cm^3
# Si number density = 13.154405 Si / 1000 Ang^3
#
#
#
# Elastic Constant Matrix: (Units=GPa)
#
#
# Indices 1 2 3 4 5 6 
#
# 1 112.5279 76.0426 39.8803 0.0000 0.0000 0.0000
# 2 76.0426 112.5279 39.8803 0.0000 0.0000 0.0000
# 3 39.8803 39.8803 40.6905 0.0000 0.0000 0.0000
# 4 0.0000 0.0000 0.0000 13.0974 0.0000 0.0000
# 5 0.0000 0.0000 0.0000 0.0000 13.0974 0.0000
# 6 0.0000 0.0000 0.0000 0.0000 0.0000 18.2427
#
#
#
# Elastic Compliance Matrix: (Units=1/GPa)
#
#
# Indices 1 2 3 4 5 6 
#
# 1 0.018233 -0.009175 -0.008878 0.000000 0.000000 0.000000
# 2 -0.009175 0.018233 -0.008878 0.000000 0.000000 0.000000
# 3 -0.008878 -0.008878 0.041978 0.000000 0.000000 0.000000
# 4 0.000000 0.000000 0.000000 0.076351 0.000000 0.000000
# 5 0.000000 0.000000 0.000000 0.000000 0.076351 0.000000
# 6 0.000000 0.000000 0.000000 0.000000 0.000000 0.054817
#
#
# Mechanical properties :
#
#
# Convention : Reuss Voigt Hill
#
# Bulk Modulus (GPa) = 40.67863 64.15032 52.41447
# Shear Modulus (GPa) = 14.36704 16.21702 15.29203
#
# Velocity S-wave (km/s) = 3.30841 3.51496 3.41325
# Velocity P-wave (km/s) = 6.75168 8.08371 7.44753
#
# Compressibility (1/GPa) = 0.02458293
#
# Stress axis : x y z
#
# Youngs Moduli (GPa) = 54.84500 54.84500 23.82211
#
# Poissons Ratio (x) = 0.50321 0.21149
# Poissons Ratio (y) = 0.50321 0.21149
# Poissons Ratio (z) = 0.48690 0.48690
#
# Static dielectric constant tensor:
#      x y z
#    x 1.423470 0.000000 0.000000 
#    y 0.000000 1.423470 0.000000 
#    z 0.000000 0.000000 1.420080 
# 
# From -- ./inp_files/3119.got.cif
#   From: 2010.05.17/outbox.cif.g08.bks.cpg/sg191_2_cif.got.tgz:3119.got - 2010.05.20 12:20:32.
