data_PCOD9587539
_publ_section_title
;
Structure prediction by ZEFSAII (Michael W. Deem and Ramdas Pophale) SiO2 
 PCOD9587539
Probable space group: P 6/M M M
;
_chemical_formula_sum "Si O2"
_cell_formula_units_Z 132
_cell_length_a 23.339415
_cell_length_b 23.339415
_cell_length_c 18.229419
_cell_angle_alpha 90.000000
_cell_angle_beta 90.000000
_cell_angle_gamma 120.000000
_cell_volume 8599.701789
_symmetry_space_group_name_H-M "P 6/M M M"
_symmetry_group_IT_number 191
_symmetry_cell_setting 'hexagonal'
loop_
_space_group_symop_operation_xyz
x,y,z
x-y,x,z
-y,x-y,z
-x,-y,z
-x+y,-x,z
y,-x+y,z
x-y,-y,-z
-x,-x+y,-z
y,x,-z
-y,-x,-z
-x+y,y,-z
x,x-y,-z
-x,-y,-z
-x+y,-x,-z
y,-x+y,-z
x,y,-z
x-y,x,-z
-y,x-y,-z
-x+y,y,z
x,x-y,z
-y,-x,z
y,x,z
x-y,-y,z
-x,-x+y,z
loop_
_atom_site_type_symbol
_atom_site_label
_atom_site_fract_x
_atom_site_fract_y
_atom_site_fract_z
Si Si1 0.204385 0.924771 0.130947
Si Si2 0.078246 0.607417 0.797148
Si Si3 0.795505 0.719423 0.692050
Si Si4 0.148531 0.430252 0.915192
Si Si5 0.919141 0.526235 0.500000
Si Si6 0.670948 0.080163 0.646962
O O1 0.128628 0.871373 0.113101
O O2 0.212244 0.922969 0.219442
O O3 0.249591 0.898370 0.095358
O O4 0.229423 0.000000 0.109819
O O5 0.084257 0.542129 0.793894
O O6 0.121161 0.656446 0.861457
O O7 0.099198 0.646001 0.719997
O O8 0.000000 0.582145 0.808615
O O9 0.870844 0.741688 0.674057
O O10 0.770034 0.770034 0.671540
O O11 0.746376 0.648480 0.656064
O O12 0.222321 0.444642 0.896781
O O13 0.147340 0.447336 0.000000
O O14 0.899322 0.449661 0.500000
O O15 0.896895 0.548238 0.573124
O O16 0.000000 0.567107 0.500000
O O17 0.629767 0.000000 0.645387
#
# Coordination Sequence:
#
# PCOD9587539 Si02
#       6
#    24  24  24  24  12  24
#     4   9  16  27  43  63  86 115 151 191 236 284
#     4  10  19  30  46  69  95 120 147 182 227 276
#     4   9  16  27  45  66  90 122 160 200 241 286
#     4  10  20  32  46  64  87 118 155 193 233 277
#     4   9  16  26  41  62  91 124 152 179 214 262
#     4   9  16  27  43  65  92 123 155 184 220 270
#
# _framework density 15.349368999999999
#
# number of rings (size 3 to 8) (size 9 to 14) (size 15 to 20)
#    0.000    2.636    1.818    1.091    0.000    4.000 
#    0.000    1.364    0.000    0.727    0.000    2.545 
#    0.000    0.000    0.000    5.273    0.000   16.364 
#
# Total GULP energy -735457.664954 kJ/mol
# GULP energy per Si atom -5571.648977 kJ/mol
# Density = 1.531443 g / cm^3
# Si number density = 15.349369 Si / 1000 Ang^3
#
#
#
# Elastic Constant Matrix: (Units=GPa)
#
#
# Indices 1 2 3 4 5 6 
#
# 1 72.4598 33.7651 40.1983 0.0000 0.0000 0.0000
# 2 33.7651 72.4598 40.1983 0.0000 0.0000 0.0000
# 3 40.1983 40.1983 73.3941 0.0000 0.0000 0.0000
# 4 0.0000 0.0000 0.0000 7.4597 0.0000 0.0000
# 5 0.0000 0.0000 0.0000 0.0000 7.4597 0.0000
# 6 0.0000 0.0000 0.0000 0.0000 0.0000 19.3473
#
#
#
# Elastic Compliance Matrix: (Units=1/GPa)
#
#
# Indices 1 2 3 4 5 6 
#
# 1 0.020961 -0.004882 -0.008807 0.000000 0.000000 0.000000
# 2 -0.004882 0.020961 -0.008807 0.000000 0.000000 0.000000
# 3 -0.008807 -0.008807 0.023272 0.000000 0.000000 0.000000
# 4 0.000000 0.000000 0.000000 0.134054 0.000000 0.000000
# 5 0.000000 0.000000 0.000000 0.000000 0.134054 0.000000
# 6 0.000000 0.000000 0.000000 0.000000 0.000000 0.051687
#
#
# Mechanical properties :
#
#
# Convention : Reuss Voigt Hill
#
# Bulk Modulus (GPa) = 49.49552 49.62633 49.56093
# Shear Modulus (GPa) = 11.44913 13.79682 12.62298
#
# Velocity S-wave (km/s) = 2.73408 3.00134 2.87082
# Velocity P-wave (km/s) = 6.50253 6.66424 6.58388
#
# Compressibility (1/GPa) = 0.02020385
#
# Stress axis : x y z
#
# Youngs Moduli (GPa) = 47.70677 47.70677 42.96994
#
# Poissons Ratio (x) = 0.23290 0.37843
# Poissons Ratio (y) = 0.23290 0.37843
# Poissons Ratio (z) = 0.42014 0.42014
#
# Static dielectric constant tensor:
#      x y z
#    x 1.500450 0.000000 0.000000 
#    y 0.000000 1.500450 0.000000 
#    z 0.000000 0.000000 1.521410 
# 
# From -- ./inp_files/4900.got.cif
#   From: 2010.05.17/outbox.cif.g08.bks.cpg/sg191_3_cif.got.tgz:4900.got - 2010.05.20 12:20:32.
