data_PCOD9587235
_publ_section_title
;
Structure prediction by ZEFSAII (Michael W. Deem and Ramdas Pophale) SiO2 
 PCOD9587235
Probable space group: P 6/M M M
;
_chemical_formula_sum "Si O2"
_cell_formula_units_Z 192
_cell_length_a 31.656931
_cell_length_b 31.656931
_cell_length_c 14.136441
_cell_angle_alpha 90.000000
_cell_angle_beta 90.000000
_cell_angle_gamma 120.000000
_cell_volume 12268.976536
_symmetry_space_group_name_H-M "P 6/M M M"
_symmetry_group_IT_number 191
_symmetry_cell_setting 'hexagonal'
loop_
_space_group_symop_operation_xyz
x,y,z
x-y,x,z
-y,x-y,z
-x,-y,z
-x+y,-x,z
y,-x+y,z
x-y,-y,-z
-x,-x+y,-z
y,x,-z
-y,-x,-z
-x+y,y,-z
x,x-y,-z
-x,-y,-z
-x+y,-x,-z
y,-x+y,-z
x,y,-z
x-y,x,-z
-y,x-y,-z
-x+y,y,z
x,x-y,z
-y,-x,z
y,x,z
x-y,-y,z
-x,-x+y,z
loop_
_atom_site_type_symbol
_atom_site_label
_atom_site_fract_x
_atom_site_fract_y
_atom_site_fract_z
Si Si1 0.197240 0.493292 0.392041
Si Si2 0.333180 0.565933 0.221194
Si Si3 0.380993 0.863032 0.108197
Si Si4 0.150550 0.944458 0.386062
Si Si5 0.299609 0.240636 0.302841
Si Si6 0.944736 0.367409 0.201568
Si Si7 0.688508 0.598705 0.390522
Si Si8 0.058446 0.333817 0.105467
O O1 0.198694 0.509918 0.500000
O O2 0.240181 0.480362 0.381542
O O3 0.209683 0.536164 0.318111
O O4 0.145186 0.445185 0.377386
O O5 0.283940 0.567879 0.204666
O O6 0.380087 0.619914 0.225454
O O7 0.343740 0.535411 0.142934
O O8 0.434067 0.868134 0.113075
O O9 0.379920 0.903546 0.173752
O O10 0.371080 0.870397 0.000000
O O11 0.154399 0.943656 0.500000
O O12 0.096095 0.903906 0.358978
O O13 0.189480 0.931550 0.342070
O O14 0.167580 0.000000 0.358296
O O15 0.277045 0.277045 0.307297
O O16 0.348822 0.265432 0.364353
O O17 0.313740 0.238551 0.193770
O O18 0.940698 0.351621 0.311090
O O19 0.934517 0.319991 0.140240
O O20 0.000000 0.409152 0.180929
O O21 0.674602 0.598789 0.500000
O O22 0.000000 0.298593 0.099992
O O23 0.078565 0.336697 0.000000
#
# Coordination Sequence:
#
# PCOD9587235 Si02
#       8
#    24  24  24  24  24  24  24  24
#     4   9  18  32  50  73 100 128 158 192 234 287
#     4  10  20  36  57  79 101 124 154 193 240 295
#     4  10  21  36  53  74  98 123 155 198 247 295
#     4   9  17  29  45  66  93 125 161 203 251 299
#     4   9  17  27  42  67  96 126 164 204 236 274
#     4  10  19  31  48  71  97 129 170 205 235 279
#     4  10  18  29  46  70 101 135 165 198 238 280
#     4   8  14  25  42  64  90 122 160 198 232 267
#
# _framework density 15.649227
#
# number of rings (size 3 to 8) (size 9 to 14) (size 15 to 20)
#    0.000    2.625    1.250    2.000    0.000    3.500 
#    0.000    1.875    0.000    2.375    0.000    1.750 
#    0.000    0.000    0.000    0.000    0.000    0.000 
#
# Total GULP energy -1069318.190494 kJ/mol
# GULP energy per Si atom -5569.365575 kJ/mol
# Density = 1.561361 g / cm^3
# Si number density = 15.649227 Si / 1000 Ang^3
#
#
#
# Elastic Constant Matrix: (Units=GPa)
#
#
# Indices 1 2 3 4 5 6 
#
# 1 74.9239 43.5286 32.8298 0.0000 0.0000 0.0000
# 2 43.5286 74.9239 32.8298 0.0000 0.0000 0.0000
# 3 32.8298 32.8298 80.7112 0.0000 0.0000 0.0000
# 4 0.0000 0.0000 0.0000 17.3651 0.0000 0.0000
# 5 0.0000 0.0000 0.0000 0.0000 17.3651 0.0000
# 6 0.0000 0.0000 0.0000 0.0000 0.0000 15.6976
#
#
#
# Elastic Compliance Matrix: (Units=1/GPa)
#
#
# Indices 1 2 3 4 5 6 
#
# 1 0.021376 -0.010476 -0.004434 0.000000 0.000000 0.000000
# 2 -0.010476 0.021376 -0.004434 0.000000 0.000000 0.000000
# 3 -0.004434 -0.004434 0.015997 0.000000 0.000000 0.000000
# 4 0.000000 0.000000 0.000000 0.057587 0.000000 0.000000
# 5 0.000000 0.000000 0.000000 0.000000 0.057587 0.000000
# 6 0.000000 0.000000 0.000000 0.000000 0.000000 0.063704
#
#
# Mechanical properties :
#
#
# Convention : Reuss Voigt Hill
#
# Bulk Modulus (GPa) = 49.84565 49.88173 49.86369
# Shear Modulus (GPa) = 17.66788 18.17694 17.92241
#
# Velocity S-wave (km/s) = 3.36370 3.41181 3.38784
# Velocity P-wave (km/s) = 6.85616 6.88946 6.87283
#
# Compressibility (1/GPa) = 0.02006193
#
# Stress axis : x y z
#
# Youngs Moduli (GPa) = 46.78175 46.78175 62.51322
#
# Poissons Ratio (x) = 0.49009 0.27716
# Poissons Ratio (y) = 0.49009 0.27716
# Poissons Ratio (z) = 0.20741 0.20741
#
# Static dielectric constant tensor:
#      x y z
#    x 1.507880 0.000000 0.000000 
#    y 0.000000 1.507880 0.000000 
#    z 0.000000 0.000000 1.542110 
# 
# From -- ./inp_files/5532.got.cif
#   From: 2010.05.17/outbox.cif.g08.bks.cpg/sg191_3_cif.got.tgz:5532.got - 2010.05.20 12:20:32.
