data_PCOD9587716
_publ_section_title
;
Structure prediction by ZEFSAII (Michael W. Deem and Ramdas Pophale) SiO2 
 PCOD9587716
Probable space group: P 6/M M M
;
_chemical_formula_sum "Si O2"
_cell_formula_units_Z 168
_cell_length_a 22.916008
_cell_length_b 22.916008
_cell_length_c 21.265422
_cell_angle_alpha 90.000000
_cell_angle_beta 90.000000
_cell_angle_gamma 120.000000
_cell_volume 9671.249057
_symmetry_space_group_name_H-M "P 6/M M M"
_symmetry_group_IT_number 191
_symmetry_cell_setting 'hexagonal'
loop_
_space_group_symop_operation_xyz
x,y,z
x-y,x,z
-y,x-y,z
-x,-y,z
-x+y,-x,z
y,-x+y,z
x-y,-y,-z
-x,-x+y,-z
y,x,-z
-y,-x,-z
-x+y,y,-z
x,x-y,-z
-x,-y,-z
-x+y,-x,-z
y,-x+y,-z
x,y,-z
x-y,x,-z
-y,x-y,-z
-x+y,y,z
x,x-y,z
-y,-x,z
y,x,z
x-y,-y,z
-x,-x+y,z
loop_
_atom_site_type_symbol
_atom_site_label
_atom_site_fract_x
_atom_site_fract_y
_atom_site_fract_z
Si Si1 0.469596 0.666449 0.597747
Si Si2 0.877176 0.261498 0.197232
Si Si3 0.922029 0.304999 0.570584
Si Si4 0.077150 0.786060 0.682817
Si Si5 0.207222 0.540496 0.075197
Si Si6 0.467791 0.666150 0.250612
Si Si7 0.667306 0.591387 0.071950
O O1 0.467785 0.733893 0.578976
O O2 0.401364 0.598637 0.578717
O O3 0.538117 0.670109 0.575311
O O4 0.473057 0.666674 0.673783
O O5 0.808747 0.191254 0.188557
O O6 0.916358 0.249004 0.253428
O O7 0.853991 0.314032 0.221215
O O8 0.913882 0.283855 0.130099
O O9 0.916790 0.277227 0.500000
O O10 0.908544 0.250475 0.624417
O O11 0.000000 0.363880 0.579052
O O12 0.135962 0.864039 0.684210
O O13 0.000000 0.768783 0.676947
O O14 0.258185 0.516369 0.097868
O O15 0.226845 0.613423 0.099724
O O16 0.130560 0.485650 0.085214
O O17 0.214230 0.546433 0.000000
O O18 0.452276 0.726138 0.235182
O O19 0.406631 0.593370 0.232320
O O20 0.607412 0.607412 0.072943
O O21 0.696022 0.606935 0.000000
#
# Coordination Sequence:
#
# PCOD9587716 Si02
#       7
#    24  24  24  24  24  24  24
#     4  10  19  33  52  75 104 138 178 222 270 323
#     4  10  19  33  54  77 101 131 171 216 256 298
#     4  10  21  36  55  79 108 143 180 221 266 307
#     4  10  20  36  58  83 109 138 173 211 252 300
#     4   9  17  30  48  68  89 115 152 200 251 300
#     4   9  17  30  49  73 100 132 171 215 264 314
#     4  10  21  35  50  70  99 133 165 201 251 310
#
# _framework density 17.371075999999999
#
# number of rings (size 3 to 8) (size 9 to 14) (size 15 to 20)
#    0.000    2.286    1.429    1.714    0.000    5.143 
#    0.000    2.143    0.000    4.000    0.000    0.000 
#    0.000    0.000    0.000    3.571    0.000    0.000 
#
# Total GULP energy -936640.672805 kJ/mol
# GULP energy per Si atom -5575.242100 kJ/mol
# Density = 1.733154 g / cm^3
# Si number density = 17.371076 Si / 1000 Ang^3
#
#
#
# Elastic Constant Matrix: (Units=GPa)
#
#
# Indices 1 2 3 4 5 6 
#
# 1 94.3304 65.1368 28.2635 0.0000 0.0000 0.0000
# 2 65.1368 94.3304 28.2635 0.0000 0.0000 0.0000
# 3 28.2635 28.2635 93.4059 0.0000 0.0000 0.0000
# 4 0.0000 0.0000 0.0000 9.2307 0.0000 0.0000
# 5 0.0000 0.0000 0.0000 0.0000 9.2307 0.0000
# 6 0.0000 0.0000 0.0000 0.0000 0.0000 14.5968
#
#
#
# Elastic Compliance Matrix: (Units=1/GPa)
#
#
# Indices 1 2 3 4 5 6 
#
# 1 0.020639 -0.013615 -0.002125 0.000000 0.000000 0.000000
# 2 -0.013615 0.020639 -0.002125 0.000000 0.000000 0.000000
# 3 -0.002125 -0.002125 0.011992 0.000000 0.000000 0.000000
# 4 0.000000 0.000000 0.000000 0.108334 0.000000 0.000000
# 5 0.000000 0.000000 0.000000 0.000000 0.108334 0.000000
# 6 0.000000 0.000000 0.000000 0.000000 0.000000 0.068508
#
#
# Mechanical properties :
#
#
# Convention : Reuss Voigt Hill
#
# Bulk Modulus (GPa) = 57.01587 58.37714 57.69650
# Shear Modulus (GPa) = 13.15704 17.30517 15.23110
#
# Velocity S-wave (km/s) = 2.75510 3.15970 2.96431
# Velocity P-wave (km/s) = 6.55853 6.85496 6.70838
#
# Compressibility (1/GPa) = 0.01753898
#
# Stress axis : x y z
#
# Youngs Moduli (GPa) = 48.45142 48.45142 83.38724
#
# Poissons Ratio (x) = 0.65966 0.17724
# Poissons Ratio (y) = 0.65966 0.17724
# Poissons Ratio (z) = 0.10298 0.10298
#
# Static dielectric constant tensor:
#      x y z
#    x 1.577580 0.000000 0.000000 
#    y 0.000000 1.577580 0.000000 
#    z 0.000000 0.000000 1.658820 
# 
# From -- ./inp_files/9020.got.cif
#   From: 2010.05.17/outbox.cif.g08.bks.cpg/sg191_5_cif.got.tgz:9020.got - 2010.05.20 12:20:32.
