data_PCOD9587207
_publ_section_title
;
Structure prediction by ZEFSAII (Michael W. Deem and Ramdas Pophale) SiO2 
 PCOD9587207
Probable space group: P 6/M M M
;
_chemical_formula_sum "Si O2"
_cell_formula_units_Z 120
_cell_length_a 18.208095
_cell_length_b 18.208095
_cell_length_c 27.984335
_cell_angle_alpha 90.000000
_cell_angle_beta 90.000000
_cell_angle_gamma 120.000000
_cell_volume 8034.792103
_symmetry_space_group_name_H-M "P 6/M M M"
_symmetry_group_IT_number 191
_symmetry_cell_setting 'hexagonal'
loop_
_space_group_symop_operation_xyz
x,y,z
x-y,x,z
-y,x-y,z
-x,-y,z
-x+y,-x,z
y,-x+y,z
x-y,-y,-z
-x,-x+y,-z
y,x,-z
-y,-x,-z
-x+y,y,-z
x,x-y,-z
-x,-y,-z
-x+y,-x,-z
y,-x+y,-z
x,y,-z
x-y,x,-z
-y,x-y,-z
-x+y,y,z
x,x-y,z
-y,-x,z
y,x,z
x-y,-y,z
-x,-x+y,z
loop_
_atom_site_type_symbol
_atom_site_label
_atom_site_fract_x
_atom_site_fract_y
_atom_site_fract_z
Si Si1 0.903251 0.362719 0.778956
Si Si2 0.633345 0.902649 0.589249
Si Si3 0.507390 0.839773 0.500000
Si Si4 0.331291 0.835751 0.674781
Si Si5 0.410800 0.000000 0.945312
Si Si6 0.162532 0.669849 0.882863
O O1 0.906030 0.453015 0.780098
O O2 0.858860 0.321915 0.729156
O O3 0.858027 0.318885 0.828068
O O4 0.000000 0.384326 0.778979
O O5 0.660155 0.830078 0.587404
O O6 0.566647 0.881371 0.546141
O O7 0.579880 0.888026 0.637775
O O8 0.707180 0.000000 0.585767
O O9 0.424953 0.849905 0.500000
O O10 0.481126 0.740563 0.500000
O O11 0.426076 0.852151 0.668078
O O12 0.262773 0.737227 0.666391
O O13 0.431376 0.083779 0.916130
O O14 0.500000 0.000000 0.946011
O O15 0.385220 0.000000 0.000000
O O16 0.170600 0.585300 0.884475
O O17 0.249244 0.750756 0.898291
#
# Coordination Sequence:
#
# PCOD9587207 Si02
#       6
#    24  24  12  24  12  24
#     4   9  16  27  42  60  85 119 154 187 223 263
#     4  10  21  35  50  69  91 119 154 195 241 285
#     4  10  20  33  50  71  98 130 163 194 224 261
#     4  10  19  29  43  65  95 127 158 190 224 262
#     4   9  18  32  46  60  84 116 147 182 226 268
#     4  10  18  29  45  65  88 116 152 190 226 265
#
# _framework density 14.935048
#
# number of rings (size 3 to 8) (size 9 to 14) (size 15 to 20)
#    0.000    2.300    1.000    2.600    0.000    3.200 
#    0.000    4.000    0.000    1.400    0.000    0.000 
#    0.000    2.400    0.000    0.300    0.000    1.500 
#
# Total GULP energy -668885.069669 kJ/mol
# GULP energy per Si atom -5574.042247 kJ/mol
# Density = 1.490105 g / cm^3
# Si number density = 14.935048 Si / 1000 Ang^3
#
#
#
# Elastic Constant Matrix: (Units=GPa)
#
#
# Indices 1 2 3 4 5 6 
#
# 1 79.9854 53.4307 35.6448 0.0000 0.0000 0.0000
# 2 53.4307 79.9854 35.6448 0.0000 0.0000 0.0000
# 3 35.6448 35.6448 107.6381 0.0000 0.0000 0.0000
# 4 0.0000 0.0000 0.0000 12.3798 0.0000 0.0000
# 5 0.0000 0.0000 0.0000 0.0000 12.3798 0.0000
# 6 0.0000 0.0000 0.0000 0.0000 0.0000 13.2774
#
#
#
# Elastic Compliance Matrix: (Units=1/GPa)
#
#
# Indices 1 2 3 4 5 6 
#
# 1 0.023382 -0.014276 -0.003016 0.000000 0.000000 0.000000
# 2 -0.014276 0.023382 -0.003016 0.000000 0.000000 0.000000
# 3 -0.003016 -0.003016 0.011288 0.000000 0.000000 0.000000
# 4 0.000000 0.000000 0.000000 0.080777 0.000000 0.000000
# 5 0.000000 0.000000 0.000000 0.000000 0.080777 0.000000
# 6 0.000000 0.000000 0.000000 0.000000 0.000000 0.075316
#
#
# Mechanical properties :
#
#
# Convention : Reuss Voigt Hill
#
# Bulk Modulus (GPa) = 57.34497 57.44994 57.39745
# Shear Modulus (GPa) = 14.64772 17.13328 15.89050
#
# Velocity S-wave (km/s) = 3.13511 3.39069 3.26540
# Velocity P-wave (km/s) = 7.18226 7.34024 7.26168
#
# Compressibility (1/GPa) = 0.01743832
#
# Stress axis : x y z
#
# Youngs Moduli (GPa) = 42.76714 42.76714 88.59169
#
# Poissons Ratio (x) = 0.61053 0.26717
# Poissons Ratio (y) = 0.61053 0.26717
# Poissons Ratio (z) = 0.12897 0.12897
#
# Static dielectric constant tensor:
#      x y z
#    x 1.482470 0.000000 0.000000 
#    y 0.000000 1.482470 0.000000 
#    z 0.000000 0.000000 1.513330 
# 
# From -- ./inp_files/9551.got.cif
#   From: 2010.05.17/outbox.cif.g08.bks.cpg/sg191_5_cif.got.tgz:9551.got - 2010.05.20 12:20:32.
