data_PCOD9587388
_publ_section_title
;
Structure prediction by ZEFSAII (Michael W. Deem and Ramdas Pophale) SiO2 
 PCOD9587388
Probable space group: P 6/M M M
;
_chemical_formula_sum "Si O2"
_cell_formula_units_Z 120
_cell_length_a 18.349378
_cell_length_b 18.349378
_cell_length_c 26.129056
_cell_angle_alpha 90.000000
_cell_angle_beta 90.000000
_cell_angle_gamma 120.000000
_cell_volume 7618.983726
_symmetry_space_group_name_H-M "P 6/M M M"
_symmetry_group_IT_number 191
_symmetry_cell_setting 'hexagonal'
loop_
_space_group_symop_operation_xyz
x,y,z
x-y,x,z
-y,x-y,z
-x,-y,z
-x+y,-x,z
y,-x+y,z
x-y,-y,-z
-x,-x+y,-z
y,x,-z
-y,-x,-z
-x+y,y,-z
x,x-y,-z
-x,-y,-z
-x+y,-x,-z
y,-x+y,-z
x,y,-z
x-y,x,-z
-y,x-y,-z
-x+y,y,z
x,x-y,z
-y,-x,z
y,x,z
x-y,-y,z
-x,-x+y,z
loop_
_atom_site_type_symbol
_atom_site_label
_atom_site_fract_x
_atom_site_fract_y
_atom_site_fract_z
Si Si1 0.531527 0.897938 0.208330
Si Si2 0.531573 0.897939 0.907462
Si Si3 0.095831 0.459756 0.500000
Si Si4 0.638942 0.902017 0.698644
Si Si5 0.360282 0.100492 0.000000
Si Si6 0.331482 0.496309 0.389123
O O1 0.434627 0.869253 0.220806
O O2 0.535355 0.870067 0.150429
O O3 0.579217 0.876714 0.251326
O O4 0.580310 0.000000 0.207492
O O5 0.434841 0.869682 0.919947
O O6 0.579510 0.877200 0.950544
O O7 0.580287 0.000000 0.906586
O O8 0.093449 0.546725 0.500000
O O9 0.140720 0.462547 0.552900
O O10 0.000000 0.384926 0.500000
O O11 0.671398 0.835699 0.693362
O O12 0.577822 0.888321 0.650764
O O13 0.708867 0.000000 0.702355
O O14 0.319428 0.159714 0.000000
O O15 0.296037 0.000000 0.000000
O O16 0.262167 0.524333 0.380609
O O17 0.425126 0.574875 0.382497
#
# Coordination Sequence:
#
# PCOD9587388 Si02
#       6
#    24  24  12  24  12  24
#     4   8  14  26  45  68  91 113 138 169 208 258
#     4   8  14  26  45  67  88 110 138 173 214 262
#     4   9  17  28  42  60  84 119 161 195 217 244
#     4  10  20  32  47  67  90 117 150 190 232 271
#     4  10  19  29  43  64  89 117 152 194 235 273
#     4  10  19  30  45  66  93 123 153 185 222 265
#
# _framework density 15.750133
#
# number of rings (size 3 to 8) (size 9 to 14) (size 15 to 20)
#    0.000    2.900    0.000    3.200    0.000    4.000 
#    0.000    1.000    0.000    2.300    0.000    0.000 
#    0.000    0.000    0.000   10.000    0.000   20.800 
#
# Total GULP energy -668177.125683 kJ/mol
# GULP energy per Si atom -5568.142714 kJ/mol
# Density = 1.571428 g / cm^3
# Si number density = 15.750133 Si / 1000 Ang^3
#
#
#
# Elastic Constant Matrix: (Units=GPa)
#
#
# Indices 1 2 3 4 5 6 
#
# 1 66.9566 41.3626 34.2936 0.0000 0.0000 0.0000
# 2 41.3626 66.9566 34.2936 0.0000 0.0000 0.0000
# 3 34.2936 34.2936 84.9859 0.0000 0.0000 0.0000
# 4 0.0000 0.0000 0.0000 10.3022 0.0000 0.0000
# 5 0.0000 0.0000 0.0000 0.0000 10.3022 0.0000
# 6 0.0000 0.0000 0.0000 0.0000 0.0000 12.7970
#
#
#
# Elastic Compliance Matrix: (Units=1/GPa)
#
#
# Indices 1 2 3 4 5 6 
#
# 1 0.025736 -0.013336 -0.005004 0.000000 0.000000 0.000000
# 2 -0.013336 0.025736 -0.005004 0.000000 0.000000 0.000000
# 3 -0.005004 -0.005004 0.015805 0.000000 0.000000 0.000000
# 4 0.000000 0.000000 0.000000 0.097066 0.000000 0.000000
# 5 0.000000 0.000000 0.000000 0.000000 0.097066 0.000000
# 6 0.000000 0.000000 0.000000 0.000000 0.000000 0.078143
#
#
# Mechanical properties :
#
#
# Convention : Reuss Voigt Hill
#
# Bulk Modulus (GPa) = 48.56625 48.75542 48.66083
# Shear Modulus (GPa) = 12.71931 13.94358 13.33145
#
# Velocity S-wave (km/s) = 2.84486 2.97863 2.91251
# Velocity P-wave (km/s) = 6.45704 6.54617 6.50176
#
# Compressibility (1/GPa) = 0.02059043
#
# Stress axis : x y z
#
# Youngs Moduli (GPa) = 38.85602 38.85602 63.27141
#
# Poissons Ratio (x) = 0.51817 0.31660
# Poissons Ratio (y) = 0.51817 0.31660
# Poissons Ratio (z) = 0.19443 0.19443
#
# Static dielectric constant tensor:
#      x y z
#    x 1.518090 0.000000 0.000000 
#    y 0.000000 1.518090 0.000000 
#    z 0.000000 0.000000 1.548370 
# 
# From -- ./inp_files/9593.got.cif
#   From: 2010.05.17/outbox.cif.g08.bks.cpg/sg191_5_cif.got.tgz:9593.got - 2010.05.20 12:20:32.
