data_PCOD9587004
_publ_section_title
;
Structure prediction by ZEFSAII (Michael W. Deem and Ramdas Pophale) SiO2 
 PCOD9587004
Probable space group: P -6 2 C
;
_chemical_formula_sum "Si O2"
_cell_formula_units_Z 72
_cell_length_a 22.160071
_cell_length_b 22.160071
_cell_length_c 10.273328
_cell_angle_alpha 90.000000
_cell_angle_beta 90.000000
_cell_angle_gamma 120.000000
_cell_volume 4369.020485
_symmetry_space_group_name_H-M "P -6 2 C"
_symmetry_group_IT_number 190
_symmetry_cell_setting 'hexagonal'
loop_
_space_group_symop_operation_xyz
x,y,z
-x+y,-x,1/2-z
-y,x-y,z
x,y,1/2-z
-x+y,-x,z
-y,x-y,1/2-z
x-y,-y,-z
-x,-x+y,-z
y,x,-z
y,x,1/2+z
x-y,-y,1/2+z
-x,-x+y,1/2+z
loop_
_atom_site_type_symbol
_atom_site_label
_atom_site_fract_x
_atom_site_fract_y
_atom_site_fract_z
Si Si1 0.805851 0.471745 0.408685
Si Si2 0.000000 0.768766 0.000000
Si Si3 0.768766 0.768766 0.500000
Si Si4 0.374840 0.259791 0.100866
Si Si5 0.000643 0.855707 0.250000
Si Si6 0.259791 0.884952 0.899134
Si Si7 0.805851 0.334106 0.091315
Si Si8 0.999357 0.144293 0.750000
O O1 0.806018 0.472423 0.250000
O O2 0.866596 0.548812 0.447684
O O3 0.814465 0.407232 0.451612
O O4 0.730800 0.461601 0.448445
O O5 0.996365 0.810395 0.875506
O O6 0.065344 0.756833 0.984132
O O7 0.691489 0.756833 0.515868
O O8 0.814030 0.810395 0.624494
O O9 0.363736 0.276112 0.250000
O O10 0.379235 0.189617 0.107500
O O11 0.928193 0.856387 0.250000
O O12 0.066495 0.933505 0.250000
O O13 0.276112 0.912376 0.750000
O O14 0.317784 0.866596 0.947684
O O15 0.806018 0.333595 0.250000
#
# Coordination Sequence:
#
# PCOD9587004 Si02
#       8
#    12   6   6  12   6  12  12   6
#     4   8  13  22  41  69 101 133 167 208 251 291
#     4  12  22  36  56  76 100 134 168 200 244 304
#     4  12  22  36  56  76 100 134 168 200 244 304
#     4   9  17  31  48  69  98 132 169 205 244 295
#     4  12  25  40  58  78 101 126 160 208 258 304
#     4   9  17  31  48  69  98 132 169 205 244 295
#     4   8  13  22  41  69 101 133 167 208 251 291
#     4  12  25  40  58  78 101 126 160 208 258 304
#
# _framework density 16.479666999999999
#
# number of rings (size 3 to 8) (size 9 to 14) (size 15 to 20)
#    0.000    2.333    1.667    5.500    0.000    1.333 
#    0.000    2.500    0.000    0.000    0.000    0.000 
#    0.000    0.000    0.000    4.333    0.000    1.333 
#
# Total GULP energy -401097.811461 kJ/mol
# GULP energy per Si atom -5570.802937 kJ/mol
# Density = 1.644216 g / cm^3
# Si number density = 16.479667 Si / 1000 Ang^3
#
#
#
# Elastic Constant Matrix: (Units=GPa)
#
#
# Indices 1 2 3 4 5 6 
#
# 1 132.4638 72.7544 42.7227 0.0000 0.0000 0.0000
# 2 72.7544 132.4638 42.7227 0.0000 0.0000 0.0000
# 3 42.7227 42.7227 65.2507 0.0000 0.0000 0.0000
# 4 0.0000 0.0000 0.0000 11.2066 0.0000 0.0000
# 5 0.0000 0.0000 0.0000 0.0000 11.2066 0.0000
# 6 0.0000 0.0000 0.0000 0.0000 0.0000 29.8547
#
#
#
# Elastic Compliance Matrix: (Units=1/GPa)
#
#
# Indices 1 2 3 4 5 6 
#
# 1 0.011723 -0.005024 -0.004386 0.000000 0.000000 0.000000
# 2 -0.005024 0.011723 -0.004386 0.000000 0.000000 0.000000
# 3 -0.004386 -0.004386 0.021069 0.000000 0.000000 0.000000
# 4 0.000000 0.000000 0.000000 0.089233 0.000000 0.000000
# 5 0.000000 0.000000 0.000000 0.000000 0.089233 0.000000
# 6 0.000000 0.000000 0.000000 0.000000 0.000000 0.033496
#
#
# Mechanical properties :
#
#
# Convention : Reuss Voigt Hill
#
# Bulk Modulus (GPa) = 59.09267 71.84202 65.46735
# Shear Modulus (GPa) = 17.25848 21.91881 19.58864
#
# Velocity S-wave (km/s) = 3.23965 3.65094 3.45143
# Velocity P-wave (km/s) = 7.06608 7.83974 7.46294
#
# Compressibility (1/GPa) = 0.01692257
#
# Stress axis : x y z
#
# Youngs Moduli (GPa) = 85.29907 85.29907 47.46246
#
# Poissons Ratio (x) = 0.42857 0.20818
# Poissons Ratio (y) = 0.42857 0.20818
# Poissons Ratio (z) = 0.37414 0.37414
#
# Static dielectric constant tensor:
#      x y z
#    x 1.571670 0.000000 0.000000 
#    y 0.000000 1.571670 0.000000 
#    z 0.000000 0.000000 1.551190 
# 
# From -- ./inp_files/2101.got.cif
#   From: 2010.05.17/outbox.cif.g08.bks.cpg/sg190_2_cif.got.tgz:2101.got - 2010.05.20 12:16:56.
