data_PCOD9587559
_publ_section_title
;
Structure prediction by ZEFSAII (Michael W. Deem and Ramdas Pophale) SiO2 
 PCOD9587559
Probable space group: P 6/M M M
;
_chemical_formula_sum "Si O2"
_cell_formula_units_Z 192
_cell_length_a 24.494312
_cell_length_b 24.494312
_cell_length_c 24.216699
_cell_angle_alpha 90.000000
_cell_angle_beta 90.000000
_cell_angle_gamma 120.000000
_cell_volume 12582.764440
_symmetry_space_group_name_H-M "P 6/M M M"
_symmetry_group_IT_number 191
_symmetry_cell_setting 'hexagonal'
loop_
_space_group_symop_operation_xyz
x,y,z
x-y,x,z
-y,x-y,z
-x,-y,z
-x+y,-x,z
y,-x+y,z
x-y,-y,-z
-x,-x+y,-z
y,x,-z
-y,-x,-z
-x+y,y,-z
x,x-y,-z
-x,-y,-z
-x+y,-x,-z
y,-x+y,-z
x,y,-z
x-y,x,-z
-y,x-y,-z
-x+y,y,z
x,x-y,z
-y,-x,z
y,x,z
x-y,-y,z
-x,-x+y,z
loop_
_atom_site_type_symbol
_atom_site_label
_atom_site_fract_x
_atom_site_fract_y
_atom_site_fract_z
Si Si1 0.923360 0.367192 0.755508
Si Si2 0.680254 0.925033 0.756768
Si Si3 0.596541 0.735198 0.066047
Si Si4 0.923149 0.521753 0.366066
Si Si5 0.730456 0.926002 0.123574
Si Si6 0.625865 0.923412 0.563078
Si Si7 0.268461 0.074656 0.362406
Si Si8 0.599706 0.075698 0.878192
O O1 0.898325 0.292572 0.758449
O O2 0.903205 0.383056 0.697589
O O3 0.908491 0.388861 0.812937
O O4 0.000000 0.405015 0.753182
O O5 0.706695 0.913075 0.812825
O O6 0.703380 0.911414 0.699608
O O7 0.709935 0.000000 0.755928
O O8 0.580095 0.790048 0.081284
O O9 0.667575 0.761187 0.088210
O O10 0.551815 0.666482 0.091613
O O11 0.595622 0.730767 0.000000
O O12 0.904028 0.452014 0.385686
O O13 0.901686 0.561510 0.403535
O O14 0.000000 0.561555 0.366516
O O15 0.754050 0.877025 0.109155
O O16 0.779930 0.000000 0.117268
O O17 0.615859 0.901066 0.500000
O O18 0.673501 0.908906 0.596680
O O19 0.661471 0.000000 0.561878
O O20 0.240953 0.120477 0.374110
O O21 0.219662 0.000000 0.366750
O O22 0.543735 0.087470 0.897945
O O23 0.572608 0.000000 0.883796
#
# Coordination Sequence:
#
# PCOD9587559 Si02
#       8
#    24  24  24  24  24  24  24  24
#     4   9  14  24  41  64  93 120 147 178 216 263
#     4   9  15  26  45  65  88 117 147 183 226 275
#     4  10  21  35  49  66  92 127 163 196 230 273
#     4   9  15  23  38  60  87 120 152 177 203 244
#     4  10  19  31  48  69  92 119 152 192 238 288
#     4   9  17  28  40  57  84 117 152 186 220 264
#     4  10  19  31  47  66  88 116 153 197 244 294
#     4  10  19  30  48  74 100 124 150 186 233 279
#
# _framework density 15.258967999999999
#
# number of rings (size 3 to 8) (size 9 to 14) (size 15 to 20)
#    0.000    2.500    2.500    1.125    0.000    3.250 
#    0.000    1.875    0.000    0.500    0.000    0.000 
#    0.000    3.000    0.000    6.625    0.000    1.875 
#
# Total GULP energy -1068835.461957 kJ/mol
# GULP energy per Si atom -5566.851364 kJ/mol
# Density = 1.522424 g / cm^3
# Si number density = 15.258968 Si / 1000 Ang^3
#
#
#
# Elastic Constant Matrix: (Units=GPa)
#
#
# Indices 1 2 3 4 5 6 
#
# 1 82.0671 52.8073 31.5465 0.0000 0.0000 0.0000
# 2 52.8073 82.0671 31.5465 0.0000 0.0000 0.0000
# 3 31.5465 31.5465 78.3941 0.0000 0.0000 0.0000
# 4 0.0000 0.0000 0.0000 6.7341 0.0000 0.0000
# 5 0.0000 0.0000 0.0000 0.0000 6.7341 0.0000
# 6 0.0000 0.0000 0.0000 0.0000 0.0000 14.6299
#
#
#
# Elastic Compliance Matrix: (Units=1/GPa)
#
#
# Indices 1 2 3 4 5 6 
#
# 1 0.021655 -0.012521 -0.003675 0.000000 0.000000 0.000000
# 2 -0.012521 0.021655 -0.003675 0.000000 0.000000 0.000000
# 3 -0.003675 -0.003675 0.015714 0.000000 0.000000 0.000000
# 4 0.000000 0.000000 0.000000 0.148499 0.000000 0.000000
# 5 0.000000 0.000000 0.000000 0.000000 0.148499 0.000000
# 6 0.000000 0.000000 0.000000 0.000000 0.000000 0.068353
#
#
# Mechanical properties :
#
#
# Convention : Reuss Voigt Hill
#
# Bulk Modulus (GPa) = 51.86833 52.70323 52.28578
# Shear Modulus (GPa) = 10.62594 14.06148 12.34371
#
# Velocity S-wave (km/s) = 2.64175 3.03895 2.84729
# Velocity P-wave (km/s) = 6.58566 6.85039 6.71933
#
# Compressibility (1/GPa) = 0.01927959
#
# Stress axis : x y z
#
# Youngs Moduli (GPa) = 46.17848 46.17848 63.63701
#
# Poissons Ratio (x) = 0.57822 0.23390
# Poissons Ratio (y) = 0.57822 0.23390
# Poissons Ratio (z) = 0.16973 0.16973
#
# Static dielectric constant tensor:
#      x y z
#    x 1.506080 0.000000 0.000000 
#    y 0.000000 1.506080 0.000000 
#    z 0.000000 0.000000 1.521990 
# 
# From -- ./inp_files/9313.got.cif
#   From: 2010.05.17/outbox.cif.g08.bks.cpg/sg191_5_cif.got.tgz:9313.got - 2010.05.20 12:20:32.
