data_PCOD9587706
_publ_section_title
;
Structure prediction by ZEFSAII (Michael W. Deem and Ramdas Pophale) SiO2 
 PCOD9587706
Probable space group: P 6/M M M
;
_chemical_formula_sum "Si O2"
_cell_formula_units_Z 108
_cell_length_a 24.741682
_cell_length_b 24.741682
_cell_length_c 11.799391
_cell_angle_alpha 90.000000
_cell_angle_beta 90.000000
_cell_angle_gamma 120.000000
_cell_volume 6255.307530
_symmetry_space_group_name_H-M "P 6/M M M"
_symmetry_group_IT_number 191
_symmetry_cell_setting 'hexagonal'
loop_
_space_group_symop_operation_xyz
x,y,z
x-y,x,z
-y,x-y,z
-x,-y,z
-x+y,-x,z
y,-x+y,z
x-y,-y,-z
-x,-x+y,-z
y,x,-z
-y,-x,-z
-x+y,y,-z
x,x-y,-z
-x,-y,-z
-x+y,-x,-z
y,-x+y,-z
x,y,-z
x-y,x,-z
-y,x-y,-z
-x+y,y,z
x,x-y,z
-y,-x,z
y,x,z
x-y,-y,z
-x,-x+y,z
loop_
_atom_site_type_symbol
_atom_site_label
_atom_site_fract_x
_atom_site_fract_y
_atom_site_fract_z
Si Si1 0.659368 0.538315 0.288090
Si Si2 0.756447 0.000000 0.773913
Si Si3 0.537936 0.332481 0.500000
Si Si4 0.758034 0.643399 0.123285
Si Si5 0.869930 0.000000 0.636093
Si Si6 0.537886 0.075771 0.864084
Si Si7 0.351517 0.000000 0.623127
O O1 0.672488 0.499759 0.383505
O O2 0.716749 0.590250 0.214215
O O3 0.604455 0.497745 0.199384
O O4 0.639978 0.581291 0.357904
O O5 0.776285 0.062391 0.845144
O O6 0.701398 0.000000 0.699832
O O7 0.813062 0.000000 0.705721
O O8 0.600494 0.399507 0.500000
O O9 0.552145 0.276073 0.500000
O O10 0.821220 0.642439 0.115499
O O11 0.725405 0.627917 0.000000
O O12 0.873249 0.936625 0.659704
O O13 0.858617 0.000000 0.500000
O O14 0.500000 0.000000 0.847845
O O15 0.543369 0.086738 0.000000
O O16 0.327838 0.000000 0.500000
#
# Coordination Sequence:
#
# PCOD9587706 Si02
#       7
#    24  12  12  24  12  12  12
#     4  11  21  37  58  84 116 149 187 231 285 348
#     4  10  20  33  55  81 115 148 189 236 293 347
#     4  12  25  41  61  83 111 149 200 249 301 341
#     4  10  21  37  56  81 113 149 189 231 283 348
#     4  10  20  35  55  80 113 157 209 258 302 344
#     4  11  22  35  57  91 121 150 187 229 283 351
#     4  10  19  32  53  83 116 146 177 215 275 361
#
# _framework density 17.265339000000001
#
# number of rings (size 3 to 8) (size 9 to 14) (size 15 to 20)
#    0.000    1.444    3.333    2.889    0.000    0.444 
#    0.000    1.667    0.000    0.000    0.000    0.000 
#    0.000    5.333    0.000    0.000    0.000    0.000 
#
# Total GULP energy -601260.306455 kJ/mol
# GULP energy per Si atom -5567.225060 kJ/mol
# Density = 1.722604 g / cm^3
# Si number density = 17.265339 Si / 1000 Ang^3
#
#
#
# Elastic Constant Matrix: (Units=GPa)
#
#
# Indices 1 2 3 4 5 6 
#
# 1 96.4014 39.9596 35.1269 0.0000 0.0000 0.0000
# 2 39.9596 96.4014 35.1269 0.0000 0.0000 0.0000
# 3 35.1269 35.1269 99.4282 0.0000 0.0000 0.0000
# 4 0.0000 0.0000 0.0000 20.6177 0.0000 0.0000
# 5 0.0000 0.0000 0.0000 0.0000 20.6177 0.0000
# 6 0.0000 0.0000 0.0000 0.0000 0.0000 28.2209
#
#
#
# Elastic Compliance Matrix: (Units=1/GPa)
#
#
# Indices 1 2 3 4 5 6 
#
# 1 0.013341 -0.004376 -0.003167 0.000000 0.000000 0.000000
# 2 -0.004376 0.013341 -0.003167 0.000000 0.000000 0.000000
# 3 -0.003167 -0.003167 0.012295 0.000000 0.000000 0.000000
# 4 0.000000 0.000000 0.000000 0.048502 0.000000 0.000000
# 5 0.000000 0.000000 0.000000 0.000000 0.048502 0.000000
# 6 0.000000 0.000000 0.000000 0.000000 0.000000 0.035435
#
#
# Mechanical properties :
#
#
# Convention : Reuss Voigt Hill
#
# Bulk Modulus (GPa) = 56.95828 56.96200 56.96014
# Shear Modulus (GPa) = 25.16475 26.02576 25.59525
#
# Velocity S-wave (km/s) = 3.82190 3.88674 3.85446
# Velocity P-wave (km/s) = 7.24828 7.29425 7.27130
#
# Compressibility (1/GPa) = 0.01755671
#
# Stress axis : x y z
#
# Youngs Moduli (GPa) = 74.95498 74.95498 81.33065
#
# Poissons Ratio (x) = 0.32801 0.25760
# Poissons Ratio (y) = 0.32801 0.25760
# Poissons Ratio (z) = 0.23741 0.23741
#
# Static dielectric constant tensor:
#      x y z
#    x 1.569330 0.000000 0.000000 
#    y 0.000000 1.569330 0.000000 
#    z 0.000000 0.000000 1.629020 
# 
# From -- ./inp_files/3032.got.cif
#   From: 2010.05.17/outbox.cif.g08.bks.cpg/sg191_2_cif.got.tgz:3032.got - 2010.05.20 12:20:32.
