data_PCOD9587075
_publ_section_title
;
Structure prediction by ZEFSAII (Michael W. Deem and Ramdas Pophale) SiO2 
 PCOD9587075
Probable space group: P 6/M M M
;
_chemical_formula_sum "Si O2"
_cell_formula_units_Z 132
_cell_length_a 20.077073
_cell_length_b 20.077073
_cell_length_c 27.973517
_cell_angle_alpha 90.000000
_cell_angle_beta 90.000000
_cell_angle_gamma 120.000000
_cell_volume 9765.140580
_symmetry_space_group_name_H-M "P 6/M M M"
_symmetry_group_IT_number 191
_symmetry_cell_setting 'hexagonal'
loop_
_space_group_symop_operation_xyz
x,y,z
x-y,x,z
-y,x-y,z
-x,-y,z
-x+y,-x,z
y,-x+y,z
x-y,-y,-z
-x,-x+y,-z
y,x,-z
-y,-x,-z
-x+y,y,-z
x,x-y,-z
-x,-y,-z
-x+y,-x,-z
y,-x+y,-z
x,y,-z
x-y,x,-z
-y,x-y,-z
-x+y,y,z
x,x-y,z
-y,-x,z
y,x,z
x-y,-y,z
-x,-x+y,z
loop_
_atom_site_type_symbol
_atom_site_label
_atom_site_fract_x
_atom_site_fract_y
_atom_site_fract_z
Si Si1 0.620899 0.092236 0.889545
Si Si2 0.667102 0.756879 0.942408
Si Si3 0.823829 0.490386 0.211286
Si Si4 0.492669 0.667981 0.403534
Si Si5 0.537014 0.625085 0.500000
Si Si6 0.462884 0.375071 0.692879
O O1 0.558500 0.117000 0.906210
O O2 0.694678 0.111463 0.921732
O O3 0.647905 0.126160 0.836661
O O4 0.573294 0.000000 0.886787
O O5 0.686544 0.843272 0.928135
O O6 0.726848 0.726848 0.928173
O O7 0.663694 0.753849 0.000000
O O8 0.746146 0.492291 0.206146
O O9 0.806032 0.403016 0.217277
O O10 0.869265 0.535490 0.258621
O O11 0.480367 0.740184 0.403619
O O12 0.410483 0.589518 0.403578
O O13 0.535926 0.666897 0.451583
O O14 0.535681 0.666888 0.355389
O O15 0.603474 0.603474 0.500000
O O16 0.456310 0.543691 0.500000
O O17 0.543171 0.456830 0.692832
O O18 0.395832 0.395832 0.692664
#
# Coordination Sequence:
#
# PCOD9587075 Si02
#       6
#    24  24  24  24  12  24
#     4   9  17  28  42  60  81 106 136 168 201 239
#     4   9  17  29  45  64  85 109 138 172 209 249
#     4  10  18  27  39  55  76 100 127 160 198 236
#     4  10  18  27  39  55  74  93 116 149 190 229
#     4   9  17  28  40  52  68  93 122 148 176 214
#     4   9  17  28  40  52  68  93 123 153 186 225
#
# _framework density 13.517471
#
# number of rings (size 3 to 8) (size 9 to 14) (size 15 to 20)
#    0.000    2.636    0.000    2.818    0.000    4.727 
#    0.000    4.545    0.000    0.545    0.000    1.273 
#    0.000    0.000    0.000    0.000    0.000    0.000 
#
# Total GULP energy -734860.257697 kJ/mol
# GULP energy per Si atom -5567.123164 kJ/mol
# Density = 1.348670 g / cm^3
# Si number density = 13.517471 Si / 1000 Ang^3
#
#
#
# Elastic Constant Matrix: (Units=GPa)
#
#
# Indices 1 2 3 4 5 6 
#
# 1 53.8005 27.6450 21.2820 0.0000 0.0000 0.0000
# 2 27.6450 53.8005 21.2820 0.0000 0.0000 0.0000
# 3 21.2820 21.2820 40.4150 0.0000 0.0000 0.0000
# 4 0.0000 0.0000 0.0000 15.3660 0.0000 0.0000
# 5 0.0000 0.0000 0.0000 0.0000 15.3660 0.0000
# 6 0.0000 0.0000 0.0000 0.0000 0.0000 13.0777
#
#
#
# Elastic Compliance Matrix: (Units=1/GPa)
#
#
# Indices 1 2 3 4 5 6 
#
# 1 0.027586 -0.010646 -0.008920 0.000000 0.000000 0.000000
# 2 -0.010646 0.027586 -0.008920 0.000000 0.000000 0.000000
# 3 -0.008920 -0.008920 0.034138 0.000000 0.000000 0.000000
# 4 0.000000 0.000000 0.000000 0.065079 0.000000 0.000000
# 5 0.000000 0.000000 0.000000 0.000000 0.065079 0.000000
# 6 0.000000 0.000000 0.000000 0.000000 0.000000 0.076466
#
#
# Mechanical properties :
#
#
# Convention : Reuss Voigt Hill
#
# Bulk Modulus (GPa) = 30.92481 32.04820 31.48650
# Shear Modulus (GPa) = 13.74809 13.94910 13.84859
#
# Velocity S-wave (km/s) = 3.19260 3.21585 3.20425
# Velocity P-wave (km/s) = 6.04298 6.12774 6.08550
#
# Compressibility (1/GPa) = 0.03233650
#
# Stress axis : x y z
#
# Youngs Moduli (GPa) = 36.24968 36.24968 29.29296
#
# Poissons Ratio (x) = 0.38593 0.26130
# Poissons Ratio (y) = 0.38593 0.26130
# Poissons Ratio (z) = 0.32336 0.32336
#
# Static dielectric constant tensor:
#      x y z
#    x 1.433700 0.000000 0.000000 
#    y 0.000000 1.433700 0.000000 
#    z 0.000000 0.000000 1.449670 
# 
# From -- ./inp_files/10375.got.cif
#   From: 2010.05.17/outbox.cif.g08.bks.cpg/sg191_6_cif.got.tgz:10375.got - 2010.05.20 12:20:32.
