data_PCOD9587572
_publ_section_title
;
Structure prediction by ZEFSAII (Michael W. Deem and Ramdas Pophale) SiO2 
 PCOD9587572
Probable space group: P 6/M M M
;
_chemical_formula_sum "Si O2"
_cell_formula_units_Z 180
_cell_length_a 27.327063
_cell_length_b 27.327063
_cell_length_c 18.337244
_cell_angle_alpha 90.000000
_cell_angle_beta 90.000000
_cell_angle_gamma 120.000000
_cell_volume 11859.069428
_symmetry_space_group_name_H-M "P 6/M M M"
_symmetry_group_IT_number 191
_symmetry_cell_setting 'hexagonal'
loop_
_space_group_symop_operation_xyz
x,y,z
x-y,x,z
-y,x-y,z
-x,-y,z
-x+y,-x,z
y,-x+y,z
x-y,-y,-z
-x,-x+y,-z
y,x,-z
-y,-x,-z
-x+y,y,-z
x,x-y,-z
-x,-y,-z
-x+y,-x,-z
y,-x+y,-z
x,y,-z
x-y,x,-z
-y,x-y,-z
-x+y,y,z
x,x-y,z
-y,-x,z
y,x,z
x-y,-y,z
-x,-x+y,z
loop_
_atom_site_type_symbol
_atom_site_label
_atom_site_fract_x
_atom_site_fract_y
_atom_site_fract_z
Si Si1 0.825703 0.762080 0.000000
Si Si2 0.790090 0.691918 0.147796
Si Si3 0.666500 0.218908 0.414071
Si Si4 0.601593 0.932214 0.202407
Si Si5 0.521883 0.931611 0.081398
Si Si6 0.564847 0.724043 0.331676
Si Si7 0.896653 0.675725 0.580433
Si Si8 0.236471 0.174574 0.704651
O O1 0.799887 0.724330 0.072040
O O2 0.811286 0.811286 0.000000
O O3 0.891606 0.783212 0.000000
O O4 0.834291 0.668581 0.149746
O O5 0.725360 0.646319 0.159478
O O6 0.807430 0.734236 0.216391
O O7 0.666115 0.204623 0.500000
O O8 0.605826 0.211651 0.395932
O O9 0.715805 0.284196 0.406209
O O10 0.685487 0.182832 0.364749
O O11 0.550026 0.916996 0.147455
O O12 0.580350 0.887473 0.268869
O O13 0.632736 0.000000 0.221611
O O14 0.456515 0.913029 0.092757
O O15 0.555675 0.000000 0.079440
O O16 0.528275 0.912700 0.000000
O O17 0.570330 0.785165 0.310124
O O18 0.611770 0.738692 0.394053
O O19 0.922723 0.687409 0.500000
O O20 0.840979 0.681958 0.576749
O O21 0.932946 0.717904 0.644680
O O22 0.222721 0.111361 0.690640
O O23 0.183618 0.183618 0.701696
#
# Coordination Sequence:
#
# PCOD9587572 Si02
#       8
#    12  24  24  24  24  24  24  24
#     4  10  20  32  48  69  95 125 155 191 235 289
#     4  10  20  33  47  69  99 126 155 194 241 288
#     4   9  17  30  50  74  97 122 155 195 235 274
#     4  11  20  29  47  69  91 122 160 195 231 279
#     4   8  16  31  47  64  87 116 153 194 230 264
#     4  10  19  31  46  67  98 129 155 188 235 286
#     4   9  17  29  45  64  87 119 156 190 228 278
#     4  10  19  32  49  68  93 123 156 197 241 287
#
# _framework density 15.178257
#
# number of rings (size 3 to 8) (size 9 to 14) (size 15 to 20)
#    0.000    2.400    1.333    2.533    0.933    2.933 
#    0.000    0.000    0.000    1.400    0.000    0.933 
#    0.000    3.200    0.000    3.333    0.000    0.933 
#
# Total GULP energy -1002384.261233 kJ/mol
# GULP energy per Si atom -5568.801451 kJ/mol
# Density = 1.514371 g / cm^3
# Si number density = 15.178257 Si / 1000 Ang^3
#
#
#
# Elastic Constant Matrix: (Units=GPa)
#
#
# Indices 1 2 3 4 5 6 
#
# 1 79.9924 41.6100 46.0139 0.0000 0.0000 0.0000
# 2 41.6100 79.9924 46.0139 0.0000 0.0000 0.0000
# 3 46.0139 46.0139 113.8940 0.0000 0.0000 0.0000
# 4 0.0000 0.0000 0.0000 -153.4331 0.0000 0.0000
# 5 0.0000 0.0000 0.0000 0.0000 -153.4331 0.0000
# 6 0.0000 0.0000 0.0000 0.0000 0.0000 19.1912
#
#
#
# Elastic Compliance Matrix: (Units=1/GPa)
#
#
# Indices 1 2 3 4 5 6 
#
# 1 0.018949 -0.007104 -0.004786 0.000000 0.000000 0.000000
# 2 -0.007104 0.018949 -0.004786 0.000000 0.000000 0.000000
# 3 -0.004786 -0.004786 0.012647 0.000000 0.000000 0.000000
# 4 0.000000 0.000000 0.000000 -0.006517 0.000000 0.000000
# 5 0.000000 0.000000 0.000000 0.000000 -0.006517 0.000000
# 6 0.000000 0.000000 0.000000 0.000000 0.000000 0.052107
#
#
# Mechanical properties :
#
#
# Convention : Reuss Voigt Hill
#
# Bulk Modulus (GPa) = 58.15609 60.12826 59.14218
# Shear Modulus (GPa) = 38.85001 -48.18561 -4.66780
#
# Velocity S-wave (km/s) = 5.06472 -5.64051 -1.75556
# Velocity P-wave (km/s) = 8.52059 1.64918 5.91103
#
# Compressibility (1/GPa) = 0.01719510
#
# Stress axis : x y z
#
# Youngs Moduli (GPa) = 52.77215 52.77215 79.07108
#
# Poissons Ratio (x) = 0.37491 0.37840
# Poissons Ratio (y) = 0.37491 0.37840
# Poissons Ratio (z) = 0.25254 0.25254
#
# Static dielectric constant tensor:
#      x y z
#    x 1.499520 0.000000 0.000000 
#    y 0.000000 1.499520 0.000000 
#    z 0.000000 0.000000 1.520860 
# 
# From -- ./inp_files/6902.got.cif
#   From: 2010.05.17/outbox.cif.g08.bks.cpg/sg191_4_cif.got.tgz:6902.got - 2010.05.20 12:20:32.
