data_PCOD9587353
_publ_section_title
;
Structure prediction by ZEFSAII (Michael W. Deem and Ramdas Pophale) SiO2 
 PCOD9587353
Probable space group: P 6/M M M
;
_chemical_formula_sum "Si O2"
_cell_formula_units_Z 144
_cell_length_a 22.142110
_cell_length_b 22.142110
_cell_length_c 24.228192
_cell_angle_alpha 90.000000
_cell_angle_beta 90.000000
_cell_angle_gamma 120.000000
_cell_volume 10287.021471
_symmetry_space_group_name_H-M "P 6/M M M"
_symmetry_group_IT_number 191
_symmetry_cell_setting 'hexagonal'
loop_
_space_group_symop_operation_xyz
x,y,z
x-y,x,z
-y,x-y,z
-x,-y,z
-x+y,-x,z
y,-x+y,z
x-y,-y,-z
-x,-x+y,-z
y,x,-z
-y,-x,-z
-x+y,y,-z
x,x-y,-z
-x,-y,-z
-x+y,-x,-z
y,-x+y,-z
x,y,-z
x-y,x,-z
-y,x-y,-z
-x+y,y,z
x,x-y,z
-y,-x,z
y,x,z
x-y,-y,z
-x,-x+y,z
loop_
_atom_site_type_symbol
_atom_site_label
_atom_site_fract_x
_atom_site_fract_y
_atom_site_fract_z
Si Si1 0.523950 0.190929 0.935843
Si Si2 0.712198 0.565452 0.263164
Si Si3 0.701834 0.919709 0.663240
Si Si4 0.333667 0.523287 0.372941
Si Si5 0.081168 0.612725 0.159086
Si Si6 0.389777 0.308692 0.436092
O O1 0.603473 0.206946 0.930148
O O2 0.520311 0.260156 0.923527
O O3 0.478292 0.128915 0.893891
O O4 0.504145 0.171743 0.000000
O O5 0.779759 0.559518 0.247114
O O6 0.741317 0.641117 0.291340
O O7 0.673009 0.509643 0.312029
O O8 0.662517 0.552631 0.211933
O O9 0.726402 0.863201 0.667784
O O10 0.662210 0.909365 0.604763
O O11 0.760116 0.000000 0.668323
O O12 0.263857 0.527714 0.381582
O O13 0.402318 0.597683 0.377654
O O14 0.333417 0.467287 0.415300
O O15 0.086745 0.543373 0.169119
O O16 0.000000 0.586112 0.149510
O O17 0.380962 0.287677 0.500000
O O18 0.368447 0.368447 0.429979
#
# Coordination Sequence:
#
# PCOD9587353 Si02
#       6
#    24  24  24  24  24  24
#     4   9  17  29  44  60  78 103 137 173 204 234
#     4   9  17  30  46  61  79 105 139 174 202 231
#     4   9  17  29  46  66  86 108 133 164 201 239
#     4  10  20  32  45  61  83 110 137 167 205 249
#     4  10  19  28  40  60  85 109 131 161 204 251
#     4   9  18  32  48  64  81 103 135 174 209 239
#
# _framework density 13.99822
#
# number of rings (size 3 to 8) (size 9 to 14) (size 15 to 20)
#    0.000    2.667    0.000    3.333    0.000    3.667 
#    0.000    2.500    0.000    6.500    0.000    0.000 
#    0.000    0.000    0.000    4.167    0.000    0.000 
#
# Total GULP energy -802650.401180 kJ/mol
# GULP energy per Si atom -5573.961119 kJ/mol
# Density = 1.396636 g / cm^3
# Si number density = 13.998220 Si / 1000 Ang^3
#
#
#
# Elastic Constant Matrix: (Units=GPa)
#
#
# Indices 1 2 3 4 5 6 
#
# 1 84.3903 52.6409 50.7844 0.0000 0.0000 0.0000
# 2 52.6409 84.3903 50.7844 0.0000 0.0000 0.0000
# 3 50.7844 50.7844 92.8280 0.0000 0.0000 0.0000
# 4 0.0000 0.0000 0.0000 18.2103 0.0000 0.0000
# 5 0.0000 0.0000 0.0000 0.0000 18.2103 0.0000
# 6 0.0000 0.0000 0.0000 0.0000 0.0000 15.8747
#
#
#
# Elastic Compliance Matrix: (Units=1/GPa)
#
#
# Indices 1 2 3 4 5 6 
#
# 1 0.021886 -0.009611 -0.006716 0.000000 0.000000 0.000000
# 2 -0.009611 0.021886 -0.006716 0.000000 0.000000 0.000000
# 3 -0.006716 -0.006716 0.018121 0.000000 0.000000 0.000000
# 4 0.000000 0.000000 0.000000 0.054914 0.000000 0.000000
# 5 0.000000 0.000000 0.000000 0.000000 0.054914 0.000000
# 6 0.000000 0.000000 0.000000 0.000000 0.000000 0.062993
#
#
# Mechanical properties :
#
#
# Convention : Reuss Voigt Hill
#
# Bulk Modulus (GPa) = 63.25596 63.33647 63.29622
# Shear Modulus (GPa) = 17.47843 17.61898 17.54871
#
# Velocity S-wave (km/s) = 3.53741 3.55161 3.54452
# Velocity P-wave (km/s) = 7.87217 7.88434 7.87826
#
# Compressibility (1/GPa) = 0.01580879
#
# Stress axis : x y z
#
# Youngs Moduli (GPa) = 45.69140 45.69140 55.18606
#
# Poissons Ratio (x) = 0.43913 0.37060
# Poissons Ratio (y) = 0.43913 0.37060
# Poissons Ratio (z) = 0.30684 0.30684
#
# Static dielectric constant tensor:
#      x y z
#    x 1.445770 0.000000 0.000000 
#    y 0.000000 1.445770 0.000000 
#    z 0.000000 0.000000 1.453250 
# 
# From -- ./inp_files/7610.got.cif
#   From: 2010.05.17/outbox.cif.g08.bks.cpg/sg191_4_cif.got.tgz:7610.got - 2010.05.20 12:20:32.
