data_PCOD9587475
_publ_section_title
;
Structure prediction by ZEFSAII (Michael W. Deem and Ramdas Pophale) SiO2 
 PCOD9587475
Probable space group: P 6/M M M
;
_chemical_formula_sum "Si O2"
_cell_formula_units_Z 108
_cell_length_a 18.264862
_cell_length_b 18.264862
_cell_length_c 23.377760
_cell_angle_alpha 90.000000
_cell_angle_beta 90.000000
_cell_angle_gamma 120.000000
_cell_volume 6754.081828
_symmetry_space_group_name_H-M "P 6/M M M"
_symmetry_group_IT_number 191
_symmetry_cell_setting 'hexagonal'
loop_
_space_group_symop_operation_xyz
x,y,z
x-y,x,z
-y,x-y,z
-x,-y,z
-x+y,-x,z
y,-x+y,z
x-y,-y,-z
-x,-x+y,-z
y,x,-z
-y,-x,-z
-x+y,y,-z
x,x-y,-z
-x,-y,-z
-x+y,-x,-z
y,-x+y,-z
x,y,-z
x-y,x,-z
-y,x-y,-z
-x+y,y,z
x,x-y,z
-y,-x,z
y,x,z
x-y,-y,z
-x,-x+y,z
loop_
_atom_site_type_symbol
_atom_site_label
_atom_site_fract_x
_atom_site_fract_y
_atom_site_fract_z
Si Si1 0.366474 0.897906 0.668265
Si Si2 0.097925 0.737394 0.566788
Si Si3 0.459535 0.096189 0.000000
Si Si4 0.835550 0.504192 0.875849
Si Si5 0.265464 0.901539 0.224552
O O1 0.431881 0.863761 0.672920
O O2 0.315122 0.876464 0.609216
O O3 0.303907 0.876517 0.721471
O O4 0.422795 0.000000 0.669138
O O5 0.103160 0.718438 0.500000
O O6 0.163876 0.836125 0.575872
O O7 0.000000 0.707860 0.578746
O O8 0.462253 0.140932 0.940743
O O9 0.546936 0.093871 0.000000
O O10 0.384333 0.000000 0.000000
O O11 0.737568 0.475135 0.866201
O O12 0.851604 0.425802 0.868293
O O13 0.888407 0.578820 0.831246
O O14 0.165897 0.834104 0.221520
O O15 0.293513 0.000000 0.230030
#
# Coordination Sequence:
#
# PCOD9587475 Si02
#       5
#    24  24  12  24  24
#     4   9  17  29  46  68  91 115 146 183 222 266
#     4   9  17  29  46  68  93 122 157 196 236 277
#     4   9  17  28  42  60  84 119 161 197 227 264
#     4  10  19  30  45  66  93 124 157 193 232 273
#     4  10  20  33  50  71  94 121 153 190 230 272
#
# _framework density 15.99033
#
# number of rings (size 3 to 8) (size 9 to 14) (size 15 to 20)
#    0.000    2.556    0.000    2.556    0.000    2.667 
#    0.000    3.333    0.000    5.333    0.000    1.556 
#    0.000    5.333    0.000    0.222    0.000   23.111 
#
# Total GULP energy -601540.526244 kJ/mol
# GULP energy per Si atom -5569.819687 kJ/mol
# Density = 1.595394 g / cm^3
# Si number density = 15.990330 Si / 1000 Ang^3
#
#
#
# Elastic Constant Matrix: (Units=GPa)
#
#
# Indices 1 2 3 4 5 6 
#
# 1 78.4153 47.9334 34.7727 0.0000 0.0000 0.0000
# 2 47.9334 78.4153 34.7727 0.0000 0.0000 0.0000
# 3 34.7727 34.7727 83.3854 0.0000 0.0000 0.0000
# 4 0.0000 0.0000 0.0000 19.8763 0.0000 0.0000
# 5 0.0000 0.0000 0.0000 0.0000 19.8763 0.0000
# 6 0.0000 0.0000 0.0000 0.0000 0.0000 15.2409
#
#
#
# Elastic Compliance Matrix: (Units=1/GPa)
#
#
# Indices 1 2 3 4 5 6 
#
# 1 0.021539 -0.011267 -0.004284 0.000000 0.000000 0.000000
# 2 -0.011267 0.021539 -0.004284 0.000000 0.000000 0.000000
# 3 -0.004284 -0.004284 0.015565 0.000000 0.000000 0.000000
# 4 0.000000 0.000000 0.000000 0.050311 0.000000 0.000000
# 5 0.000000 0.000000 0.000000 0.000000 0.050311 0.000000
# 6 0.000000 0.000000 0.000000 0.000000 0.000000 0.065613
#
#
# Mechanical properties :
#
#
# Convention : Reuss Voigt Hill
#
# Bulk Modulus (GPa) = 52.70029 52.79708 52.74868
# Shear Modulus (GPa) = 18.45882 19.18119 18.82000
#
# Velocity S-wave (km/s) = 3.40129 3.46721 3.43441
# Velocity P-wave (km/s) = 6.96091 7.00846 6.98472
#
# Compressibility (1/GPa) = 0.01897523
#
# Stress axis : x y z
#
# Youngs Moduli (GPa) = 46.42642 46.42642 64.24570
#
# Poissons Ratio (x) = 0.52309 0.27521
# Poissons Ratio (y) = 0.52309 0.27521
# Poissons Ratio (z) = 0.19888 0.19888
#
# Static dielectric constant tensor:
#      x y z
#    x 1.532770 0.000000 0.000000 
#    y 0.000000 1.532770 0.000000 
#    z 0.000000 0.000000 1.551480 
# 
# From -- ./inp_files/7316.got.cif
#   From: 2010.05.17/outbox.cif.g08.bks.cpg/sg191_4_cif.got.tgz:7316.got - 2010.05.20 12:20:32.
