data_PCOD9587977
_publ_section_title
;
Structure prediction by ZEFSAII (Michael W. Deem and Ramdas Pophale) SiO2 
 PCOD9587977
Probable space group: P 6/M M M
;
_chemical_formula_sum "Si O2"
_cell_formula_units_Z 132
_cell_length_a 27.641806
_cell_length_b 27.641806
_cell_length_c 12.108294
_cell_angle_alpha 90.000000
_cell_angle_beta 90.000000
_cell_angle_gamma 120.000000
_cell_volume 8012.101056
_symmetry_space_group_name_H-M "P 6/M M M"
_symmetry_group_IT_number 191
_symmetry_cell_setting 'hexagonal'
loop_
_space_group_symop_operation_xyz
x,y,z
x-y,x,z
-y,x-y,z
-x,-y,z
-x+y,-x,z
y,-x+y,z
x-y,-y,-z
-x,-x+y,-z
y,x,-z
-y,-x,-z
-x+y,y,-z
x,x-y,-z
-x,-y,-z
-x+y,-x,-z
y,-x+y,-z
x,y,-z
x-y,x,-z
-y,x-y,-z
-x+y,y,z
x,x-y,z
-y,-x,z
y,x,z
x-y,-y,z
-x,-x+y,z
loop_
_atom_site_type_symbol
_atom_site_label
_atom_site_fract_x
_atom_site_fract_y
_atom_site_fract_z
Si Si1 0.331325 0.778883 0.243464
Si Si2 0.932852 0.646160 0.128860
Si Si3 0.466432 0.533569 0.131101
Si Si4 0.934981 0.412962 0.500000
Si Si5 0.824791 0.760619 0.866049
Si Si6 0.774624 0.331959 0.000000
Si Si7 0.645877 0.108162 0.274296
O O1 0.390771 0.781541 0.247912
O O2 0.282551 0.717450 0.271434
O O3 0.320700 0.792196 0.117123
O O4 0.330311 0.827635 0.308658
O O5 0.922905 0.697588 0.158715
O O6 0.904644 0.593544 0.210156
O O7 0.000000 0.672188 0.133219
O O8 0.915880 0.630236 0.000000
O O9 0.500000 0.500000 0.141907
O O10 0.501940 0.592711 0.192805
O O11 0.459887 0.540114 0.000000
O O12 0.907942 0.453971 0.500000
O O13 0.922918 0.377743 0.611155
O O14 0.000000 0.453378 0.500000
O O15 0.885167 0.770334 0.828412
O O16 0.803510 0.803510 0.828949
O O17 0.826925 0.763934 0.000000
O O18 0.707424 0.292577 0.000000
O O19 0.790659 0.395330 0.000000
#
# Coordination Sequence:
#
# PCOD9587977 Si02
#       7
#    24  24  12  12  24  12  24
#     4  10  20  34  50  70  94 124 157 199 246 300
#     4   9  18  31  47  70 100 129 158 201 257 309
#     4  11  22  33  51  77 103 126 153 201 265 313
#     4  11  22  38  55  70  94 128 166 204 252 315
#     4   8  14  26  45  70 102 140 177 211 253 307
#     4   8  15  26  44  64  90 118 148 182 235 290
#     4  12  22  34  53  73  97 126 168 208 249 301
#
# _framework density 16.475079999999998
#
# number of rings (size 3 to 8) (size 9 to 14) (size 15 to 20)
#    0.000    2.182    1.818    3.545    2.545    3.636 
#    0.000    0.455    0.000    0.182    0.000    2.545 
#    0.000    0.000    0.000    0.000    0.000    0.000 
#
# Total GULP energy -734919.974216 kJ/mol
# GULP energy per Si atom -5567.575562 kJ/mol
# Density = 1.643758 g / cm^3
# Si number density = 16.475080 Si / 1000 Ang^3
#
#
#
# Elastic Constant Matrix: (Units=GPa)
#
#
# Indices 1 2 3 4 5 6 
#
# 1 100.7333 53.1943 26.9066 0.0000 0.0000 0.0000
# 2 53.1943 100.7333 26.9066 0.0000 0.0000 0.0000
# 3 26.9066 26.9066 55.3326 0.0000 0.0000 0.0000
# 4 0.0000 0.0000 0.0000 67.3803 0.0000 0.0000
# 5 0.0000 0.0000 0.0000 0.0000 67.3803 0.0000
# 6 0.0000 0.0000 0.0000 0.0000 0.0000 23.7695
#
#
#
# Elastic Compliance Matrix: (Units=1/GPa)
#
#
# Indices 1 2 3 4 5 6 
#
# 1 0.014431 -0.006604 -0.003806 0.000000 0.000000 0.000000
# 2 -0.006604 0.014431 -0.003806 0.000000 0.000000 0.000000
# 3 -0.003806 -0.003806 0.021774 0.000000 0.000000 0.000000
# 4 0.000000 0.000000 0.000000 0.014841 0.000000 0.000000
# 5 0.000000 0.000000 0.000000 0.000000 0.014841 0.000000
# 6 0.000000 0.000000 0.000000 0.000000 0.000000 0.042071
#
#
# Mechanical properties :
#
#
# Convention : Reuss Voigt Hill
#
# Bulk Modulus (GPa) = 45.03692 52.31271 48.67481
# Shear Modulus (GPa) = 31.60082 41.69214 36.64648
#
# Velocity S-wave (km/s) = 4.38436 5.03598 4.72143
# Velocity P-wave (km/s) = 7.28189 8.10163 7.70267
#
# Compressibility (1/GPa) = 0.02220401
#
# Stress axis : x y z
#
# Youngs Moduli (GPa) = 69.29394 69.29394 45.92598
#
# Poissons Ratio (x) = 0.45762 0.17480
# Poissons Ratio (y) = 0.45762 0.17480
# Poissons Ratio (z) = 0.26374 0.26374
#
# Static dielectric constant tensor:
#      x y z
#    x 1.591070 0.000000 0.000000 
#    y 0.000000 1.591070 0.000000 
#    z 0.000000 0.000000 1.556670 
# 
# From -- ./inp_files/3394.got.cif
#   From: 2010.05.17/outbox.cif.g08.bks.cpg/sg191_2_cif.got.tgz:3394.got - 2010.05.20 12:20:32.
