data_PCOD9587770
_publ_section_title
;
Structure prediction by ZEFSAII (Michael W. Deem and Ramdas Pophale) SiO2 
 PCOD9587770
Probable space group: P 6/M M M
;
_chemical_formula_sum "Si O2"
_cell_formula_units_Z 120
_cell_length_a 18.026669
_cell_length_b 18.026669
_cell_length_c 24.742636
_cell_angle_alpha 90.000000
_cell_angle_beta 90.000000
_cell_angle_gamma 120.000000
_cell_volume 6963.179113
_symmetry_space_group_name_H-M "P 6/M M M"
_symmetry_group_IT_number 191
_symmetry_cell_setting 'hexagonal'
loop_
_space_group_symop_operation_xyz
x,y,z
x-y,x,z
-y,x-y,z
-x,-y,z
-x+y,-x,z
y,-x+y,z
x-y,-y,-z
-x,-x+y,-z
y,x,-z
-y,-x,-z
-x+y,y,-z
x,x-y,-z
-x,-y,-z
-x+y,-x,-z
y,-x+y,-z
x,y,-z
x-y,x,-z
-y,x-y,-z
-x+y,y,z
x,x-y,z
-y,-x,z
y,x,z
x-y,-y,z
-x,-x+y,z
loop_
_atom_site_type_symbol
_atom_site_label
_atom_site_fract_x
_atom_site_fract_y
_atom_site_fract_z
Si Si1 0.198364 0.396728 0.308688
Si Si2 0.463183 0.102632 0.618727
Si Si3 0.399398 0.199699 0.179439
Si Si4 0.464940 0.363369 0.891407
Si Si5 0.901452 0.802904 0.306831
Si Si6 0.464721 0.361053 0.500000
Si Si7 0.368845 0.269049 0.000000
Si Si8 0.900689 0.099312 0.175313
O O1 0.148620 0.440395 0.334995
O O2 0.201192 0.402383 0.244046
O O3 0.147959 0.295918 0.323379
O O4 0.560055 0.120109 0.622194
O O5 0.449403 0.130672 0.558729
O O6 0.402752 0.000000 0.622814
O O7 0.445053 0.150744 0.154747
O O8 0.299170 0.149585 0.161110
O O9 0.563988 0.436013 0.896123
O O10 0.412554 0.412554 0.880202
O O11 0.427363 0.312666 0.947377
O O12 0.851908 0.851908 0.324763
O O13 0.902206 0.804411 0.241022
O O14 0.409646 0.409646 0.500000
O O15 0.563287 0.436714 0.500000
O O16 0.295312 0.295312 0.000000
O O17 0.337505 0.168753 0.000000
O O18 0.000000 0.149946 0.157211
#
# Coordination Sequence:
#
# PCOD9587770 Si02
#       8
#    12  24  12  24  12  12  12  12
#     4  11  22  32  49  78 107 145 185 223 260 326
#     4   9  18  34  54  74 100 135 174 220 275 327
#     4  11  22  36  51  74 113 151 184 220 272 326
#     4  10  21  38  60  83 107 139 184 232 276 326
#     4   9  17  30  48  71 101 136 177 225 271 311
#     4   7  12  27  52  76  95 123 167 219 276 330
#     4  10  19  37  65  92 115 141 178 227 283 335
#     4   9  17  30  50  75 103 138 181 226 268 313
#
# _framework density 17.233506999999999
#
# number of rings (size 3 to 8) (size 9 to 14) (size 15 to 20)
#    0.000    2.500    1.000    2.900    0.000    5.600 
#    1.200    2.000    0.000    0.100    0.000    0.000 
#    0.000    0.000    0.000    7.600    0.000    2.400 
#
# Total GULP energy -668903.835642 kJ/mol
# GULP energy per Si atom -5574.198630 kJ/mol
# Density = 1.719428 g / cm^3
# Si number density = 17.233507 Si / 1000 Ang^3
#
#
#
# Elastic Constant Matrix: (Units=GPa)
#
#
# Indices 1 2 3 4 5 6 
#
# 1 89.5801 78.7483 48.5552 0.0000 0.0000 0.0000
# 2 78.7483 89.5801 48.5552 0.0000 0.0000 0.0000
# 3 48.5552 48.5552 98.1982 0.0000 0.0000 0.0000
# 4 0.0000 0.0000 0.0000 44.5909 0.0000 0.0000
# 5 0.0000 0.0000 0.0000 0.0000 44.5909 0.0000
# 6 0.0000 0.0000 0.0000 0.0000 0.0000 5.4159
#
#
#
# Elastic Compliance Matrix: (Units=1/GPa)
#
#
# Indices 1 2 3 4 5 6 
#
# 1 0.050316 -0.042005 -0.004110 0.000000 0.000000 0.000000
# 2 -0.042005 0.050316 -0.004110 0.000000 0.000000 0.000000
# 3 -0.004110 -0.004110 0.014248 0.000000 0.000000 0.000000
# 4 0.000000 0.000000 0.000000 0.022426 0.000000 0.000000
# 5 0.000000 0.000000 0.000000 0.000000 0.022426 0.000000
# 6 0.000000 0.000000 0.000000 0.000000 0.000000 0.184642
#
#
# Mechanical properties :
#
#
# Convention : Reuss Voigt Hill
#
# Bulk Modulus (GPa) = 69.29066 69.89734 69.59400
# Shear Modulus (GPa) = 11.12016 25.68616 18.40316
#
# Velocity S-wave (km/s) = 2.54296 3.86486 3.27137
# Velocity P-wave (km/s) = 6.99403 7.78224 7.39864
#
# Compressibility (1/GPa) = 0.01443196
#
# Stress axis : x y z
#
# Youngs Moduli (GPa) = 19.87426 19.87426 70.18614
#
# Poissons Ratio (x) = 0.83481 0.28846
# Poissons Ratio (y) = 0.83481 0.28846
# Poissons Ratio (z) = 0.08168 0.08168
#
# Static dielectric constant tensor:
#      x y z
#    x 1.577160 0.000000 0.000000 
#    y 0.000000 1.577160 0.000000 
#    z 0.000000 0.000000 1.589820 
# 
# From -- ./inp_files/8665.got.cif
#   From: 2010.05.17/outbox.cif.g08.bks.cpg/sg191_5_cif.got.tgz:8665.got - 2010.05.20 12:20:32.
