data_PCOD9587606
_publ_section_title
;
Structure prediction by ZEFSAII (Michael W. Deem and Ramdas Pophale) SiO2 
 PCOD9587606
Probable space group: P 6/M M M
;
_chemical_formula_sum "Si O2"
_cell_formula_units_Z 120
_cell_length_a 17.740351
_cell_length_b 17.740351
_cell_length_c 28.245995
_cell_angle_alpha 90.000000
_cell_angle_beta 90.000000
_cell_angle_gamma 120.000000
_cell_volume 7698.603027
_symmetry_space_group_name_H-M "P 6/M M M"
_symmetry_group_IT_number 191
_symmetry_cell_setting 'hexagonal'
loop_
_space_group_symop_operation_xyz
x,y,z
x-y,x,z
-y,x-y,z
-x,-y,z
-x+y,-x,z
y,-x+y,z
x-y,-y,-z
-x,-x+y,-z
y,x,-z
-y,-x,-z
-x+y,y,-z
x,x-y,-z
-x,-y,-z
-x+y,-x,-z
y,-x+y,-z
x,y,-z
x-y,x,-z
-y,x-y,-z
-x+y,y,z
x,x-y,z
-y,-x,z
y,x,z
x-y,-y,z
-x,-x+y,z
loop_
_atom_site_type_symbol
_atom_site_label
_atom_site_fract_x
_atom_site_fract_y
_atom_site_fract_z
Si Si1 0.100891 0.729180 0.907452
Si Si2 0.271823 0.897972 0.280773
Si Si3 0.155737 0.488494 0.000000
Si Si4 0.154431 0.667843 0.624428
Si Si5 0.408669 0.000000 0.446094
Si Si6 0.894982 0.532510 0.813850
O O1 0.168405 0.831596 0.911757
O O2 0.113559 0.683304 0.953487
O O3 0.126986 0.693919 0.861222
O O4 0.000000 0.700994 0.903168
O O5 0.168867 0.831134 0.284289
O O6 0.316291 0.881146 0.326228
O O7 0.306642 0.873703 0.233704
O O8 0.302629 0.000000 0.278479
O O9 0.256988 0.513977 0.000000
O O10 0.145776 0.572888 0.000000
O O11 0.159165 0.579583 0.627044
O O12 0.248946 0.751055 0.615794
O O13 0.085800 0.655342 0.583545
O O14 0.500000 0.000000 0.447723
O O15 0.380772 0.000000 0.500000
O O16 0.859234 0.429617 0.813806
O O17 0.000000 0.579441 0.814089
#
# Coordination Sequence:
#
# PCOD9587606 Si02
#       6
#    24  24  12  24  12  24
#     4  10  20  33  49  70  94 124 161 201 242 284
#     4  10  19  31  49  72  97 127 161 199 241 287
#     4  10  20  33  50  71  96 124 155 192 236 285
#     4  10  19  31  48  70  96 126 161 199 239 282
#     4   9  18  32  48  66  92 126 159 192 234 280
#     4   9  17  29  47  70  95 122 154 190 231 281
#
# _framework density 15.587243000000001
#
# number of rings (size 3 to 8) (size 9 to 14) (size 15 to 20)
#    0.000    2.300    1.000    2.400    0.000    2.800 
#    0.000    0.000    0.000    7.200    0.000    0.000 
#    0.000    7.200    0.000    0.000    0.000    9.900 
#
# Total GULP energy -668958.424048 kJ/mol
# GULP energy per Si atom -5574.653534 kJ/mol
# Density = 1.555177 g / cm^3
# Si number density = 15.587243 Si / 1000 Ang^3
#
#
#
# Elastic Constant Matrix: (Units=GPa)
#
#
# Indices 1 2 3 4 5 6 
#
# 1 94.2149 65.0573 43.5262 0.0000 0.0000 0.0000
# 2 65.0573 94.2149 43.5262 0.0000 0.0000 0.0000
# 3 43.5262 43.5262 141.1083 0.0000 0.0000 0.0000
# 4 0.0000 0.0000 0.0000 9.8041 0.0000 0.0000
# 5 0.0000 0.0000 0.0000 0.0000 9.8041 0.0000
# 6 0.0000 0.0000 0.0000 0.0000 0.0000 14.5788
#
#
#
# Elastic Compliance Matrix: (Units=1/GPa)
#
#
# Indices 1 2 3 4 5 6 
#
# 1 0.020924 -0.013372 -0.002329 0.000000 0.000000 0.000000
# 2 -0.013372 0.020924 -0.002329 0.000000 0.000000 0.000000
# 3 -0.002329 -0.002329 0.008524 0.000000 0.000000 0.000000
# 4 0.000000 0.000000 0.000000 0.101999 0.000000 0.000000
# 5 0.000000 0.000000 0.000000 0.000000 0.101999 0.000000
# 6 0.000000 0.000000 0.000000 0.000000 0.000000 0.068593
#
#
# Mechanical properties :
#
#
# Convention : Reuss Voigt Hill
#
# Bulk Modulus (GPa) = 69.88286 70.41746 70.15016
# Shear Modulus (GPa) = 13.74405 18.66595 16.20500
#
# Velocity S-wave (km/s) = 2.97265 3.46427 3.22783
# Velocity P-wave (km/s) = 7.53080 7.82789 7.68078
#
# Compressibility (1/GPa) = 0.01430966
#
# Stress axis : x y z
#
# Youngs Moduli (GPa) = 47.79191 47.79191 117.31844
#
# Poissons Ratio (x) = 0.63909 0.27328
# Poissons Ratio (y) = 0.63909 0.27328
# Poissons Ratio (z) = 0.11133 0.11133
#
# Static dielectric constant tensor:
#      x y z
#    x 1.509730 0.000000 0.000000 
#    y 0.000000 1.509730 0.000000 
#    z 0.000000 0.000000 1.521120 
# 
# From -- ./inp_files/8550.got.cif
#   From: 2010.05.17/outbox.cif.g08.bks.cpg/sg191_5_cif.got.tgz:8550.got - 2010.05.20 12:20:32.
