data_PCOD9587297
_publ_section_title
;
Structure prediction by ZEFSAII (Michael W. Deem and Ramdas Pophale) SiO2 
 PCOD9587297
Probable space group: P 6/M M M
;
_chemical_formula_sum "Si O2"
_cell_formula_units_Z 120
_cell_length_a 21.849976
_cell_length_b 21.849976
_cell_length_c 15.708853
_cell_angle_alpha 90.000000
_cell_angle_beta 90.000000
_cell_angle_gamma 120.000000
_cell_volume 6494.968303
_symmetry_space_group_name_H-M "P 6/M M M"
_symmetry_group_IT_number 191
_symmetry_cell_setting 'hexagonal'
loop_
_space_group_symop_operation_xyz
x,y,z
x-y,x,z
-y,x-y,z
-x,-y,z
-x+y,-x,z
y,-x+y,z
x-y,-y,-z
-x,-x+y,-z
y,x,-z
-y,-x,-z
-x+y,y,-z
x,x-y,-z
-x,-y,-z
-x+y,-x,-z
y,-x+y,-z
x,y,-z
x-y,x,-z
-y,x-y,-z
-x+y,y,z
x,x-y,z
-y,-x,z
y,x,z
x-y,-y,z
-x,-x+y,z
loop_
_atom_site_type_symbol
_atom_site_label
_atom_site_fract_x
_atom_site_fract_y
_atom_site_fract_z
Si Si1 0.541057 0.458944 0.104682
Si Si2 0.298025 0.837721 0.900962
Si Si3 0.082387 0.304304 0.157520
Si Si4 0.920003 0.296420 0.668487
Si Si5 0.810845 0.333747 0.600563
Si Si6 0.783799 0.705805 0.500000
O O1 0.500000 0.500000 0.131510
O O2 0.622611 0.499043 0.134111
O O3 0.540481 0.459520 0.000000
O O4 0.237082 0.762919 0.862685
O O5 0.266442 0.890382 0.896492
O O6 0.304838 0.824141 0.000000
O O7 0.139265 0.278529 0.145222
O O8 0.089804 0.335377 0.252938
O O9 0.000000 0.248519 0.141866
O O10 0.862978 0.320989 0.659670
O O11 0.913564 0.254039 0.582605
O O12 0.000000 0.361137 0.674265
O O13 0.830796 0.335603 0.500000
O O14 0.813026 0.406513 0.619228
O O15 0.732327 0.267674 0.609503
O O16 0.771151 0.771151 0.500000
O O17 0.864010 0.728019 0.500000
#
# Coordination Sequence:
#
# PCOD9587297 Si02
#       6
#    12  24  24  24  24  12
#     4   9  16  28  48  72  98 129 165 203 245 292
#     4   9  18  33  52  75 101 130 166 206 248 293
#     4  10  20  34  53  76 102 129 160 201 246 293
#     4  10  20  33  50  72  94 122 159 203 248 285
#     4  10  19  31  48  68  94 128 165 202 241 290
#     4  10  18  30  49  70  93 121 155 191 232 282
#
# _framework density 18.475840999999999
#
# number of rings (size 3 to 8) (size 9 to 14) (size 15 to 20)
#    0.000    2.300    1.000    2.600    0.000    2.400 
#    2.400    1.000    0.000    0.300    0.000    0.000 
#    0.000    4.800    0.000    5.000    0.000    0.400 
#
# Total GULP energy -669427.533857 kJ/mol
# GULP energy per Si atom -5578.562782 kJ/mol
# Density = 1.843379 g / cm^3
# Si number density = 18.475841 Si / 1000 Ang^3
#
#
#
# Elastic Constant Matrix: (Units=GPa)
#
#
# Indices 1 2 3 4 5 6 
#
# 1 88.6431 146.9343 0.4478 0.0000 0.0000 0.0000
# 2 146.9343 88.6431 0.4478 0.0000 0.0000 0.0000
# 3 0.4478 0.4478 21.0158 0.0000 0.0000 0.0000
# 4 0.0000 0.0000 0.0000 12.1262 0.0000 0.0000
# 5 0.0000 0.0000 0.0000 0.0000 12.1262 0.0000
# 6 0.0000 0.0000 0.0000 0.0000 0.0000 -29.1456
#
#
#
# Elastic Compliance Matrix: (Units=1/GPa)
#
#
# Indices 1 2 3 4 5 6 
#
# 1 -0.006455 0.010700 -0.000090 0.000000 0.000000 0.000000
# 2 0.010700 -0.006455 -0.000090 0.000000 0.000000 0.000000
# 3 -0.000090 -0.000090 0.047587 0.000000 0.000000 0.000000
# 4 0.000000 0.000000 0.000000 0.082466 0.000000 0.000000
# 5 0.000000 0.000000 0.000000 0.000000 0.082466 0.000000
# 6 0.000000 0.000000 0.000000 0.000000 0.000000 -0.034310
#
#
# Mechanical properties :
#
#
# Convention : Reuss Voigt Hill
#
# Bulk Modulus (GPa) = 17.94823 54.88466 36.41645
# Shear Modulus (GPa) = 30.70645 2.38615 16.54630
#
# Velocity S-wave (km/s) = 4.08116 1.13767 2.99584
# Velocity P-wave (km/s) = 5.65184 5.61217 5.63204
#
# Compressibility (1/GPa) = 0.05571579
#
# Stress axis : x y z
#
# Youngs Moduli (GPa) = -154.91868 -154.91868 21.01406
#
# Poissons Ratio (x) = 1.65767 0.00190
# Poissons Ratio (y) = 1.65767 0.00190
# Poissons Ratio (z) = -0.01401 -0.01401
#
# Static dielectric constant tensor:
#      x y z
#    x 1.625280 0.000000 0.000000 
#    y 0.000000 1.625280 0.000000 
#    z 0.000000 0.000000 1.688550 
# 
# From -- ./inp_files/6269.got.cif
#   From: 2010.05.17/outbox.cif.g08.bks.cpg/sg191_4_cif.got.tgz:6269.got - 2010.05.20 12:20:32.
