data_PCOD9587015
_publ_section_title
;
Structure prediction by ZEFSAII (Michael W. Deem and Ramdas Pophale) SiO2 
 PCOD9587015
Probable space group: P -6 2 C
;
_chemical_formula_sum "Si O2"
_cell_formula_units_Z 72
_cell_length_a 15.000000
_cell_length_b 15.000000
_cell_length_c 18.000000
_cell_angle_alpha 90.000000
_cell_angle_beta 90.000000
_cell_angle_gamma 120.000000
_cell_volume 3507.402885
_symmetry_space_group_name_H-M "P -6 2 C"
_symmetry_group_IT_number 190
_symmetry_cell_setting 'hexagonal'
loop_
_space_group_symop_operation_xyz
x,y,z
-x+y,-x,1/2-z
-y,x-y,z
x,y,1/2-z
-x+y,-x,z
-y,x-y,1/2-z
x-y,-y,-z
-x,-x+y,-z
y,x,-z
y,x,1/2+z
x-y,-y,1/2+z
-x,-x+y,1/2+z
loop_
_atom_site_type_symbol
_atom_site_label
_atom_site_fract_x
_atom_site_fract_y
_atom_site_fract_z
Si Si1 0.886267 0.659472 0.837401
Si Si2 0.744507 0.736070 0.338430
Si Si3 0.309640 0.489581 0.572300
Si Si4 0.553976 0.330941 0.905593
Si Si5 0.629836 0.493193 0.337744
Si Si6 0.247376 0.177509 0.429651
O O1 0.888108 0.650305 0.750000
O O2 0.797448 0.685933 0.857535
O O3 0.862593 0.551586 0.871877
O O4 0.990383 0.755520 0.865769
O O5 0.774967 0.753966 0.250000
O O6 0.668138 0.613808 0.346785
O O7 0.842252 0.770823 0.393169
O O8 0.335201 0.546679 0.494021
O O9 0.239348 0.517483 0.624250
O O10 0.414306 0.526966 0.618413
O O11 0.243414 0.369111 0.551979
O O12 0.571804 0.235427 0.883565
O O13 0.620580 0.469672 0.250000
O O14 0.181856 0.181856 0.500000
#
# Coordination Sequence:
#
# PCOD9587015 Si02
#       6
#    12  12  12  12  12  12
#     4  11  24  44  66  89 124 168 213 267 322 381
#     4   9  22  43  63  89 125 163 212 268 323 375
#     4  11  19  36  58  91 130 164 203 255 313 378
#     4  10  21  39  63  91 131 173 206 249 316 379
#     4  10  19  33  58  91 124 163 204 253 311 376
#     4  11  23  40  65  95 123 161 212 264 324 388
#
# _framework density 20.528009999999998
#
# number of rings (size 3 to 8) (size 9 to 14) (size 15 to 20)
#    0.333    1.333    3.333    1.333    0.000    4.667 
#    1.000    1.667    0.000    0.000    0.000    0.000 
#    0.000    0.000    0.000    0.000    0.000    0.000 
#
# Total GULP energy -401832.913848 kJ/mol
# GULP energy per Si atom -5581.012692 kJ/mol
# Density = 2.048129 g / cm^3
# Si number density = 20.528010 Si / 1000 Ang^3
#
#
#
# Elastic Constant Matrix: (Units=GPa)
#
#
# Indices 1 2 3 4 5 6 
#
# 1 22.8515 -4.2218 5.7528 0.0000 0.0000 0.0000
# 2 -4.2218 22.8515 5.7528 0.0000 0.0000 0.0000
# 3 5.7528 5.7528 42.5959 0.0000 0.0000 0.0000
# 4 0.0000 0.0000 0.0000 26.1897 0.0000 0.0000
# 5 0.0000 0.0000 0.0000 0.0000 26.1897 0.0000
# 6 0.0000 0.0000 0.0000 0.0000 0.0000 13.5366
#
#
#
# Elastic Compliance Matrix: (Units=1/GPa)
#
#
# Indices 1 2 3 4 5 6 
#
# 1 0.047749 0.010813 -0.007909 0.000000 0.000000 0.000000
# 2 0.010813 0.047749 -0.007909 0.000000 0.000000 0.000000
# 3 -0.007909 -0.007909 0.025613 0.000000 0.000000 0.000000
# 4 0.000000 0.000000 0.000000 0.038183 0.000000 0.000000
# 5 0.000000 0.000000 0.000000 0.000000 0.038183 0.000000
# 6 0.000000 0.000000 0.000000 0.000000 0.000000 0.073874
#
#
# Mechanical properties :
#
#
# Convention : Reuss Voigt Hill
#
# Bulk Modulus (GPa) = 9.00086 11.42964 10.21525
# Shear Modulus (GPa) = 15.70374 18.58424 17.14399
#
# Velocity S-wave (km/s) = 2.76885 3.01210 2.89303
# Velocity P-wave (km/s) = 3.82312 4.20439 4.01828
#
# Compressibility (1/GPa) = 0.11110044
#
# Stress axis : x y z
#
# Youngs Moduli (GPa) = 20.94266 20.94266 39.04305
#
# Poissons Ratio (x) = -0.22645 0.30880
# Poissons Ratio (y) = -0.22645 0.30880
# Poissons Ratio (z) = 0.16564 0.16564
#
# Static dielectric constant tensor:
#      x y z
#    x 1.733380 0.000000 0.000000 
#    y 0.000000 1.733380 0.000000 
#    z 0.000000 0.000000 1.708320 
# 
# From -- ./inp_files/3748.got.cif
#   From: 2010.05.17/outbox.ucp.g08.bks.cvg/sg190_2_cif.got.tgz:3748.got - 2010.06.11 15:22:26.
