data_PCOD9587520
_publ_section_title
;
Structure prediction by ZEFSAII (Michael W. Deem and Ramdas Pophale) SiO2 
 PCOD9587520
Probable space group: P 6/M M M
;
_chemical_formula_sum "Si O2"
_cell_formula_units_Z 132
_cell_length_a 18.271105
_cell_length_b 18.271105
_cell_length_c 28.065038
_cell_angle_alpha 90.000000
_cell_angle_beta 90.000000
_cell_angle_gamma 120.000000
_cell_volume 8113.829793
_symmetry_space_group_name_H-M "P 6/M M M"
_symmetry_group_IT_number 191
_symmetry_cell_setting 'hexagonal'
loop_
_space_group_symop_operation_xyz
x,y,z
x-y,x,z
-y,x-y,z
-x,-y,z
-x+y,-x,z
y,-x+y,z
x-y,-y,-z
-x,-x+y,-z
y,x,-z
-y,-x,-z
-x+y,y,-z
x,x-y,-z
-x,-y,-z
-x+y,-x,-z
y,-x+y,-z
x,y,-z
x-y,x,-z
-y,x-y,-z
-x+y,y,z
x,x-y,z
-y,-x,z
y,x,z
x-y,-y,z
-x,-x+y,z
loop_
_atom_site_type_symbol
_atom_site_label
_atom_site_fract_x
_atom_site_fract_y
_atom_site_fract_z
Si Si1 0.341484 0.341484 0.557172
Si Si2 0.639691 0.734660 0.000000
Si Si3 0.503998 0.668593 0.717544
Si Si4 0.833339 0.502329 0.080608
Si Si5 0.000000 0.829968 0.557949
Si Si6 0.490166 0.157945 0.610479
Si Si7 0.459068 0.363354 0.182297
O O1 0.344769 0.344769 0.500000
O O2 0.255559 0.255559 0.571650
O O3 0.339194 0.422933 0.577176
O O4 0.579618 0.691240 0.954332
O O5 0.715341 0.715341 0.000000
O O6 0.664646 0.832323 0.000000
O O7 0.472800 0.736400 0.718772
O O8 0.424695 0.575306 0.718591
O O9 0.543042 0.677121 0.665289
O O10 0.554421 0.679947 0.766204
O O11 0.736090 0.472181 0.069444
O O12 0.851810 0.425905 0.074102
O O13 0.850735 0.531508 0.135578
O O14 0.914752 0.829504 0.573442
O O15 0.000000 0.831402 0.500000
O O16 0.582438 0.164876 0.607663
O O17 0.497506 0.248753 0.600234
O O18 0.548649 0.451352 0.185214
O O19 0.388073 0.388073 0.173703
#
# Coordination Sequence:
#
# PCOD9587520 Si02
#       7
#    12  12  24  24  12  24  24
#     4  11  23  37  53  75 103 133 163 198 245 297
#     4  10  21  35  51  70  95 129 166 204 251 303
#     4   9  17  29  46  66  88 115 151 198 250 300
#     4  10  19  30  45  67  97 135 176 214 248 285
#     4   9  17  31  53  79 105 131 159 193 234 283
#     4  10  21  36  54  74  98 130 169 210 252 298
#     4   9  17  27  41  62  89 121 160 205 250 292
#
# _framework density 16.268519000000001
#
# number of rings (size 3 to 8) (size 9 to 14) (size 15 to 20)
#    0.000    2.364    0.000    2.818    1.273    5.091 
#    0.000    2.727    0.000    1.182    0.000    0.000 
#    0.000    0.000    0.000    0.000    0.000    0.000 
#
# Total GULP energy -735222.305551 kJ/mol
# GULP energy per Si atom -5569.865951 kJ/mol
# Density = 1.623149 g / cm^3
# Si number density = 16.268519 Si / 1000 Ang^3
#
#
#
# Elastic Constant Matrix: (Units=GPa)
#
#
# Indices 1 2 3 4 5 6 
#
# 1 81.6685 51.7368 40.0827 0.0000 0.0000 0.0000
# 2 51.7368 81.6685 40.0827 0.0000 0.0000 0.0000
# 3 40.0827 40.0827 84.9159 0.0000 0.0000 0.0000
# 4 0.0000 0.0000 0.0000 17.4906 0.0000 0.0000
# 5 0.0000 0.0000 0.0000 0.0000 17.4906 0.0000
# 6 0.0000 0.0000 0.0000 0.0000 0.0000 14.9658
#
#
#
# Elastic Compliance Matrix: (Units=1/GPa)
#
#
# Indices 1 2 3 4 5 6 
#
# 1 0.021937 -0.011473 -0.004939 0.000000 0.000000 0.000000
# 2 -0.011473 0.021937 -0.004939 0.000000 0.000000 0.000000
# 3 -0.004939 -0.004939 0.016439 0.000000 0.000000 0.000000
# 4 0.000000 0.000000 0.000000 0.057174 0.000000 0.000000
# 5 0.000000 0.000000 0.000000 0.000000 0.057174 0.000000
# 6 0.000000 0.000000 0.000000 0.000000 0.000000 0.066819
#
#
# Mechanical properties :
#
#
# Convention : Reuss Voigt Hill
#
# Bulk Modulus (GPa) = 56.78537 56.89527 56.84032
# Shear Modulus (GPa) = 17.23829 17.74610 17.49219
#
# Velocity S-wave (km/s) = 3.25870 3.30635 3.28261
# Velocity P-wave (km/s) = 7.00997 7.04446 7.02724
#
# Compressibility (1/GPa) = 0.01761017
#
# Stress axis : x y z
#
# Youngs Moduli (GPa) = 45.58551 45.58551 60.82948
#
# Poissons Ratio (x) = 0.52299 0.30046
# Poissons Ratio (y) = 0.52299 0.30046
# Poissons Ratio (z) = 0.22516 0.22516
#
# Static dielectric constant tensor:
#      x y z
#    x 1.537150 0.000000 0.000000 
#    y 0.000000 1.537150 0.000000 
#    z 0.000000 0.000000 1.582370 
# 
# From -- ./inp_files/9868.got.cif
#   From: 2010.05.17/outbox.cif.g08.bks.cpg/sg191_5_cif.got.tgz:9868.got - 2010.05.20 12:20:32.
