data_PCOD9587359
_publ_section_title
;
Structure prediction by ZEFSAII (Michael W. Deem and Ramdas Pophale) SiO2 
 PCOD9587359
Probable space group: P 6/M M M
;
_chemical_formula_sum "Si O2"
_cell_formula_units_Z 168
_cell_length_a 21.993857
_cell_length_b 21.993857
_cell_length_c 29.306868
_cell_angle_alpha 90.000000
_cell_angle_beta 90.000000
_cell_angle_gamma 120.000000
_cell_volume 12277.299035
_symmetry_space_group_name_H-M "P 6/M M M"
_symmetry_group_IT_number 191
_symmetry_cell_setting 'hexagonal'
loop_
_space_group_symop_operation_xyz
x,y,z
x-y,x,z
-y,x-y,z
-x,-y,z
-x+y,-x,z
y,-x+y,z
x-y,-y,-z
-x,-x+y,-z
y,x,-z
-y,-x,-z
-x+y,y,-z
x,x-y,-z
-x,-y,-z
-x+y,-x,-z
y,-x+y,-z
x,y,-z
x-y,x,-z
-y,x-y,-z
-x+y,y,z
x,x-y,z
-y,-x,z
y,x,z
x-y,-y,z
-x,-x+y,z
loop_
_atom_site_type_symbol
_atom_site_label
_atom_site_fract_x
_atom_site_fract_y
_atom_site_fract_z
Si Si1 0.431967 0.145182 0.199457
Si Si2 0.731181 0.121588 0.948843
Si Si3 0.612852 0.531526 0.714900
Si Si4 0.295382 0.077335 0.137439
Si Si5 0.812665 0.333177 0.630840
Si Si6 0.522758 0.188816 0.890743
Si Si7 0.465896 0.079402 0.552622
O O1 0.439076 0.219538 0.213654
O O2 0.442870 0.105466 0.241126
O O3 0.356612 0.100501 0.175048
O O4 0.488367 0.162300 0.159143
O O5 0.803225 0.196776 0.950594
O O6 0.747762 0.079545 0.910995
O O7 0.674367 0.139273 0.927709
O O8 0.714816 0.092761 0.000000
O O9 0.542464 0.457537 0.725058
O O10 0.585584 0.585584 0.702593
O O11 0.651607 0.515707 0.673923
O O12 0.274778 0.137389 0.136443
O O13 0.233264 0.000000 0.146422
O O14 0.799030 0.399515 0.628385
O O15 0.739762 0.260238 0.634054
O O16 0.858874 0.337358 0.586753
O O17 0.594748 0.189495 0.895332
O O18 0.533385 0.266693 0.896007
O O19 0.453611 0.091169 0.500000
O O20 0.539293 0.078586 0.553690
O O21 0.406888 0.000000 0.566158
#
# Coordination Sequence:
#
# PCOD9587359 Si02
#       7
#    24  24  24  24  24  24  24
#     4   9  17  29  43  59  79 102 129 161 197 233
#     4   8  15  27  40  55  76 101 128 157 187 216
#     4  10  19  29  42  58  76 101 134 170 204 239
#     4   9  17  29  46  65  82 100 122 149 181 221
#     4  10  19  29  40  56  79 105 132 163 202 245
#     4   9  16  25  38  56  78 104 133 164 197 233
#     4   8  14  26  43  59  75  98 129 163 196 231
#
# _framework density 13.683790999999999
#
# number of rings (size 3 to 8) (size 9 to 14) (size 15 to 20)
#    0.000    3.000    0.000    4.143    0.000    2.571 
#    0.000    0.000    0.000   10.286    0.000    4.000 
#    0.000    0.000    0.000    3.571    0.000    0.000 
#
# Total GULP energy -935316.020259 kJ/mol
# GULP energy per Si atom -5567.357263 kJ/mol
# Density = 1.365265 g / cm^3
# Si number density = 13.683791 Si / 1000 Ang^3
#
#
#
# Elastic Constant Matrix: (Units=GPa)
#
#
# Indices 1 2 3 4 5 6 
#
# 1 71.9267 43.2722 41.5470 0.0000 0.0000 0.0000
# 2 43.2722 71.9267 41.5470 0.0000 0.0000 0.0000
# 3 41.5470 41.5470 78.5940 0.0000 0.0000 0.0000
# 4 0.0000 0.0000 0.0000 6.8957 0.0000 0.0000
# 5 0.0000 0.0000 0.0000 0.0000 6.8957 0.0000
# 6 0.0000 0.0000 0.0000 0.0000 0.0000 14.3272
#
#
#
# Elastic Compliance Matrix: (Units=1/GPa)
#
#
# Indices 1 2 3 4 5 6 
#
# 1 0.024465 -0.010434 -0.007417 0.000000 0.000000 0.000000
# 2 -0.010434 0.024465 -0.007417 0.000000 0.000000 0.000000
# 3 -0.007417 -0.007417 0.020565 0.000000 0.000000 0.000000
# 4 0.000000 0.000000 0.000000 0.145019 0.000000 0.000000
# 5 0.000000 0.000000 0.000000 0.000000 0.145019 0.000000
# 6 0.000000 0.000000 0.000000 0.000000 0.000000 0.069797
#
#
# Mechanical properties :
#
#
# Convention : Reuss Voigt Hill
#
# Bulk Modulus (GPa) = 52.74666 52.79777 52.77222
# Shear Modulus (GPa) = 10.28416 12.02912 11.15664
#
# Velocity S-wave (km/s) = 2.74443 2.96814 2.85848
# Velocity P-wave (km/s) = 6.97661 7.10031 7.03873
#
# Compressibility (1/GPa) = 0.01895854
#
# Stress axis : x y z
#
# Youngs Moduli (GPa) = 40.87548 40.87548 48.62576
#
# Poissons Ratio (x) = 0.42649 0.36065
# Poissons Ratio (y) = 0.42649 0.36065
# Poissons Ratio (z) = 0.30317 0.30317
#
# Static dielectric constant tensor:
#      x y z
#    x 1.435210 0.000000 0.000000 
#    y 0.000000 1.435210 0.000000 
#    z 0.000000 0.000000 1.458820 
# 
# From -- ./inp_files/10046.got.cif
#   From: 2010.05.17/outbox.cif.g08.bks.cpg/sg191_6_cif.got.tgz:10046.got - 2010.05.20 12:20:32.
