data_PCOD9587885
_publ_section_title
;
Structure prediction by ZEFSAII (Michael W. Deem and Ramdas Pophale) SiO2 
 PCOD9587885
Probable space group: P 6/M M M
;
_chemical_formula_sum "Si O2"
_cell_formula_units_Z 144
_cell_length_a 32.878691
_cell_length_b 32.878691
_cell_length_c 8.943878
_cell_angle_alpha 90.000000
_cell_angle_beta 90.000000
_cell_angle_gamma 120.000000
_cell_volume 8373.085685
_symmetry_space_group_name_H-M "P 6/M M M"
_symmetry_group_IT_number 191
_symmetry_cell_setting 'hexagonal'
loop_
_space_group_symop_operation_xyz
x,y,z
x-y,x,z
-y,x-y,z
-x,-y,z
-x+y,-x,z
y,-x+y,z
x-y,-y,-z
-x,-x+y,-z
y,x,-z
-y,-x,-z
-x+y,y,-z
x,x-y,-z
-x,-y,-z
-x+y,-x,-z
y,-x+y,-z
x,y,-z
x-y,x,-z
-y,x-y,-z
-x+y,y,z
x,x-y,z
-y,-x,z
y,x,z
x-y,-y,z
-x,-x+y,z
loop_
_atom_site_type_symbol
_atom_site_label
_atom_site_fract_x
_atom_site_fract_y
_atom_site_fract_z
Si Si1 0.521852 0.947192 0.820834
Si Si2 0.196774 0.052100 0.682593
Si Si3 0.760538 0.427246 0.682293
Si Si4 0.661810 0.518867 0.678866
Si Si5 0.301246 0.101227 0.328524
Si Si6 0.247296 0.397140 0.824833
O O1 0.471602 0.943203 0.790452
O O2 0.523499 0.904542 0.743749
O O3 0.561171 0.000000 0.774301
O O4 0.525652 0.944089 0.000000
O O5 0.197435 0.053301 0.500000
O O6 0.188469 0.094235 0.732893
O O7 0.249230 0.064198 0.726661
O O8 0.158789 0.000000 0.730281
O O9 0.760146 0.427363 0.500000
O O10 0.715922 0.431844 0.731425
O O11 0.755894 0.377947 0.729309
O O12 0.810376 0.471050 0.729638
O O13 0.659295 0.517770 0.500000
O O14 0.710315 0.562772 0.732670
O O15 0.307329 0.090328 0.500000
O O16 0.300725 0.150363 0.331880
O O17 0.345494 0.110930 0.230391
O O18 0.200387 0.400774 0.802276
O O19 0.258577 0.402836 0.000000
#
# Coordination Sequence:
#
# PCOD9587885 Si02
#       6
#    24  24  24  24  24  24
#     4   9  19  37  58  76  96 125 160 200 249 301
#     4   8  13  22  39  64  92 122 158 200 243 286
#     4   9  17  29  46  70 101 135 169 206 248 290
#     4  11  21  32  50  77 106 133 165 206 249 298
#     4   8  14  26  44  64  86 115 153 197 243 286
#     4  10  20  33  49  69  95 129 167 204 246 299
#
# _framework density 17.197959999999998
#
# number of rings (size 3 to 8) (size 9 to 14) (size 15 to 20)
#    0.000    2.833    0.000    3.667    0.000    3.667 
#    0.000    1.667    0.000    3.667    0.000    1.167 
#    0.000    8.000    0.000    0.000    0.000    0.000 
#
# Total GULP energy -802471.220207 kJ/mol
# GULP energy per Si atom -5572.716807 kJ/mol
# Density = 1.715882 g / cm^3
# Si number density = 17.197960 Si / 1000 Ang^3
#
#
#
# Elastic Constant Matrix: (Units=GPa)
#
#
# Indices 1 2 3 4 5 6 
#
# 1 110.0285 65.9299 27.1684 0.0000 0.0000 0.0000
# 2 65.9299 110.0285 27.1684 0.0000 0.0000 0.0000
# 3 27.1684 27.1684 21.9878 0.0000 0.0000 0.0000
# 4 0.0000 0.0000 0.0000 14.7372 0.0000 0.0000
# 5 0.0000 0.0000 0.0000 0.0000 14.7372 0.0000
# 6 0.0000 0.0000 0.0000 0.0000 0.0000 22.0493
#
#
#
# Elastic Compliance Matrix: (Units=1/GPa)
#
#
# Indices 1 2 3 4 5 6 
#
# 1 0.015933 -0.006743 -0.011355 0.000000 0.000000 0.000000
# 2 -0.006743 0.015933 -0.011355 0.000000 0.000000 0.000000
# 3 -0.011355 -0.011355 0.073540 0.000000 0.000000 0.000000
# 4 0.000000 0.000000 0.000000 0.067856 0.000000 0.000000
# 5 0.000000 0.000000 0.000000 0.000000 0.067856 0.000000
# 6 0.000000 0.000000 0.000000 0.000000 0.000000 0.045353
#
#
# Mechanical properties :
#
#
# Convention : Reuss Voigt Hill
#
# Bulk Modulus (GPa) = 21.50530 53.61980 37.56255
# Shear Modulus (GPa) = 13.85517 18.42327 16.13922
#
# Velocity S-wave (km/s) = 2.84144 3.27654 3.06672
# Velocity P-wave (km/s) = 4.82667 6.74981 5.86757
#
# Compressibility (1/GPa) = 0.04650017
#
# Stress axis : x y z
#
# Youngs Moduli (GPa) = 62.76274 62.76274 13.59803
#
# Poissons Ratio (x) = 0.42324 0.15440
# Poissons Ratio (y) = 0.42324 0.15440
# Poissons Ratio (z) = 0.71266 0.71266
#
# Static dielectric constant tensor:
#      x y z
#    x 1.579430 0.000000 0.000000 
#    y 0.000000 1.579430 0.000000 
#    z 0.000000 0.000000 1.574180 
# 
# From -- ./inp_files/1992.got.cif
#   From: 2010.05.17/outbox.cif.g08.bks.cpg/sg191_1_cif.got.tgz:1992.got - 2010.05.20 12:20:32.
