data_PCOD9587526
_publ_section_title
;
Structure prediction by ZEFSAII (Michael W. Deem and Ramdas Pophale) SiO2 
 PCOD9587526
Probable space group: P 6/M M M
;
_chemical_formula_sum "Si O2"
_cell_formula_units_Z 120
_cell_length_a 17.912675
_cell_length_b 17.912675
_cell_length_c 30.242843
_cell_angle_alpha 90.000000
_cell_angle_beta 90.000000
_cell_angle_gamma 120.000000
_cell_volume 8403.769640
_symmetry_space_group_name_H-M "P 6/M M M"
_symmetry_group_IT_number 191
_symmetry_cell_setting 'hexagonal'
loop_
_space_group_symop_operation_xyz
x,y,z
x-y,x,z
-y,x-y,z
-x,-y,z
-x+y,-x,z
y,-x+y,z
x-y,-y,-z
-x,-x+y,-z
y,x,-z
-y,-x,-z
-x+y,y,-z
x,x-y,-z
-x,-y,-z
-x+y,-x,-z
y,-x+y,-z
x,y,-z
x-y,x,-z
-y,x-y,-z
-x+y,y,z
x,x-y,z
-y,-x,z
y,x,z
x-y,-y,z
-x,-x+y,z
loop_
_atom_site_type_symbol
_atom_site_label
_atom_site_fract_x
_atom_site_fract_y
_atom_site_fract_z
Si Si1 0.843739 0.333072 0.550857
Si Si2 0.511957 0.667788 0.221205
Si Si3 0.590901 0.000000 0.386750
Si Si4 0.895576 0.532836 0.049445
Si Si5 0.409650 0.409650 0.714272
Si Si6 0.898544 0.268366 0.864765
O O1 0.873344 0.336818 0.500000
O O2 0.828718 0.414359 0.556196
O O3 0.754919 0.245082 0.556932
O O4 0.915762 0.344784 0.585643
O O5 0.502031 0.751016 0.229799
O O6 0.419177 0.580824 0.218966
O O7 0.568310 0.653999 0.258523
O O8 0.562985 0.683877 0.175083
O O9 0.617211 0.000000 0.336209
O O10 0.500000 0.000000 0.386266
O O11 0.865343 0.432672 0.057631
O O12 0.874854 0.576898 0.089461
O O13 0.000000 0.582262 0.048523
O O14 0.867254 0.541181 0.000000
O O15 0.500000 0.500000 0.712906
O O16 0.833289 0.166712 0.859016
O O17 0.000000 0.300491 0.865005
#
# Coordination Sequence:
#
# PCOD9587526 Si02
#       6
#    24  24  12  24  12  24
#     4   9  16  26  41  61  85 114 148 184 219 255
#     4  10  19  31  47  66  87 112 144 181 221 263
#     4   9  17  28  41  58  82 113 147 181 217 257
#     4   8  14  25  42  64  88 113 141 173 213 264
#     4   9  18  31  44  59  83 114 144 177 219 260
#     4  10  19  30  46  66  88 115 147 185 227 272
#
# _framework density 14.279306999999999
#
# number of rings (size 3 to 8) (size 9 to 14) (size 15 to 20)
#    0.000    2.800    1.000    1.900    0.000    4.000 
#    0.000    0.000    0.000    3.000    0.000    0.000 
#    0.000    0.000    0.000    5.300    0.000    6.900 
#
# Total GULP energy -668149.382729 kJ/mol
# GULP energy per Si atom -5567.911523 kJ/mol
# Density = 1.424681 g / cm^3
# Si number density = 14.279307 Si / 1000 Ang^3
#
#
#
# Elastic Constant Matrix: (Units=GPa)
#
#
# Indices 1 2 3 4 5 6 
#
# 1 75.0113 45.4682 51.7458 0.0000 0.0000 0.0000
# 2 45.4682 75.0113 51.7458 0.0000 0.0000 0.0000
# 3 51.7458 51.7458 121.1065 0.0000 0.0000 0.0000
# 4 0.0000 0.0000 0.0000 12.2346 0.0000 0.0000
# 5 0.0000 0.0000 0.0000 0.0000 12.2346 0.0000
# 6 0.0000 0.0000 0.0000 0.0000 0.0000 14.7715
#
#
#
# Elastic Compliance Matrix: (Units=1/GPa)
#
#
# Indices 1 2 3 4 5 6 
#
# 1 0.023481 -0.010368 -0.005603 0.000000 0.000000 0.000000
# 2 -0.010368 0.023481 -0.005603 0.000000 0.000000 0.000000
# 3 -0.005603 -0.005603 0.013045 0.000000 0.000000 0.000000
# 4 0.000000 0.000000 0.000000 0.081736 0.000000 0.000000
# 5 0.000000 0.000000 0.000000 0.000000 0.081736 0.000000
# 6 0.000000 0.000000 0.000000 0.000000 0.000000 0.067698
#
#
# Mechanical properties :
#
#
# Convention : Reuss Voigt Hill
#
# Bulk Modulus (GPa) = 59.31309 63.22765 61.27037
# Shear Modulus (GPa) = 14.70834 15.99275 15.35054
#
# Velocity S-wave (km/s) = 3.21291 3.35026 3.28231
# Velocity P-wave (km/s) = 7.44256 7.70331 7.57406
#
# Compressibility (1/GPa) = 0.01685968
#
# Stress axis : x y z
#
# Youngs Moduli (GPa) = 42.58775 42.58775 76.65700
#
# Poissons Ratio (x) = 0.44155 0.42950
# Poissons Ratio (y) = 0.44155 0.42950
# Poissons Ratio (z) = 0.23861 0.23861
#
# Static dielectric constant tensor:
#      x y z
#    x 1.454140 0.000000 0.000000 
#    y 0.000000 1.454140 0.000000 
#    z 0.000000 0.000000 1.486390 
# 
# From -- ./inp_files/9639.got.cif
#   From: 2010.05.17/outbox.cif.g08.bks.cpg/sg191_5_cif.got.tgz:9639.got - 2010.05.20 12:20:32.
