data_PCOD9587314
_publ_section_title
;
Structure prediction by ZEFSAII (Michael W. Deem and Ramdas Pophale) SiO2 
 PCOD9587314
Probable space group: P 6/M M M
;
_chemical_formula_sum "Si O2"
_cell_formula_units_Z 120
_cell_length_a 26.911745
_cell_length_b 26.911745
_cell_length_c 12.729114
_cell_angle_alpha 90.000000
_cell_angle_beta 90.000000
_cell_angle_gamma 120.000000
_cell_volume 7983.852883
_symmetry_space_group_name_H-M "P 6/M M M"
_symmetry_group_IT_number 191
_symmetry_cell_setting 'hexagonal'
loop_
_space_group_symop_operation_xyz
x,y,z
x-y,x,z
-y,x-y,z
-x,-y,z
-x+y,-x,z
y,-x+y,z
x-y,-y,-z
-x,-x+y,-z
y,x,-z
-y,-x,-z
-x+y,y,-z
x,x-y,-z
-x,-y,-z
-x+y,-x,-z
y,-x+y,-z
x,y,-z
x-y,x,-z
-y,x-y,-z
-x+y,y,z
x,x-y,z
-y,-x,z
y,x,z
x-y,-y,z
-x,-x+y,z
loop_
_atom_site_type_symbol
_atom_site_label
_atom_site_fract_x
_atom_site_fract_y
_atom_site_fract_z
Si Si1 0.509000 0.378112 0.311254
Si Si2 0.254591 0.187809 0.000000
Si Si3 0.379637 0.068004 0.618382
Si Si4 0.114756 0.768958 0.816122
Si Si5 0.703679 0.180716 0.120077
Si Si6 0.334410 0.555202 0.500000
O O1 0.554177 0.445824 0.309710
O O2 0.444053 0.357204 0.344673
O O3 0.506410 0.348436 0.200496
O O4 0.531383 0.350706 0.398418
O O5 0.295066 0.218123 0.102124
O O6 0.203145 0.203145 0.000000
O O7 0.240990 0.120495 0.000000
O O8 0.382140 0.091153 0.500000
O O9 0.350797 0.087855 0.707115
O O10 0.343627 0.000000 0.613634
O O11 0.169936 0.830065 0.792452
O O12 0.139192 0.731083 0.870693
O O13 0.755847 0.244154 0.148568
O O14 0.687155 0.181680 0.000000
O O15 0.376475 0.623526 0.500000
O O16 0.269073 0.538146 0.500000
#
# Coordination Sequence:
#
# PCOD9587314 Si02
#       6
#    24  12  24  24  24  12
#     4  10  20  32  45  64  87 114 152 191 229 277
#     4  10  18  30  50  75 103 133 163 193 225 263
#     4  10  20  33  47  66  92 125 160 191 230 275
#     4   9  17  30  48  73  97 120 152 190 233 275
#     4   9  16  29  48  68  89 111 142 185 235 288
#     4  10  19  32  47  65  85 107 138 181 236 286
#
# _framework density 15.030336999999999
#
# number of rings (size 3 to 8) (size 9 to 14) (size 15 to 20)
#    0.000    2.400    2.000    1.300    0.000    2.000 
#    0.000    1.000    0.000    0.500    0.000    2.800 
#    0.000    0.000    0.000    0.000    0.000    0.000 
#
# Total GULP energy -668207.329339 kJ/mol
# GULP energy per Si atom -5568.394411 kJ/mol
# Density = 1.499613 g / cm^3
# Si number density = 15.030337 Si / 1000 Ang^3
#
#
#
# Elastic Constant Matrix: (Units=GPa)
#
#
# Indices 1 2 3 4 5 6 
#
# 1 56.1046 31.4202 35.9052 0.0000 0.0000 0.0000
# 2 31.4202 56.1046 35.9052 0.0000 0.0000 0.0000
# 3 35.9052 35.9052 109.5607 0.0000 0.0000 0.0000
# 4 0.0000 0.0000 0.0000 22.2195 0.0000 0.0000
# 5 0.0000 0.0000 0.0000 0.0000 22.2195 0.0000
# 6 0.0000 0.0000 0.0000 0.0000 0.0000 12.3422
#
#
#
# Elastic Compliance Matrix: (Units=1/GPa)
#
#
# Indices 1 2 3 4 5 6 
#
# 1 0.028069 -0.012442 -0.005121 0.000000 0.000000 0.000000
# 2 -0.012442 0.028069 -0.005121 0.000000 0.000000 0.000000
# 3 -0.005121 -0.005121 0.012484 0.000000 0.000000 0.000000
# 4 0.000000 0.000000 0.000000 0.045005 0.000000 0.000000
# 5 0.000000 0.000000 0.000000 0.000000 0.045005 0.000000
# 6 0.000000 0.000000 0.000000 0.000000 0.000000 0.081023
#
#
# Mechanical properties :
#
#
# Convention : Reuss Voigt Hill
#
# Bulk Modulus (GPa) = 43.00502 47.58123 45.29312
# Shear Modulus (GPa) = 17.07787 19.25889 18.16838
#
# Velocity S-wave (km/s) = 3.37445 3.58346 3.48052
# Velocity P-wave (km/s) = 6.62245 6.98907 6.80823
#
# Compressibility (1/GPa) = 0.02325310
#
# Stress axis : x y z
#
# Youngs Moduli (GPa) = 35.62620 35.62620 80.10205
#
# Poissons Ratio (x) = 0.44326 0.41023
# Poissons Ratio (y) = 0.44326 0.41023
# Poissons Ratio (z) = 0.18245 0.18245
#
# Static dielectric constant tensor:
#      x y z
#    x 1.490170 0.000000 0.000000 
#    y 0.000000 1.490170 0.000000 
#    z 0.000000 0.000000 1.514920 
# 
# From -- ./inp_files/3279.got.cif
#   From: 2010.05.17/outbox.cif.g08.bks.cpg/sg191_2_cif.got.tgz:3279.got - 2010.05.20 12:20:32.
