data_PCOD9587685
_publ_section_title
;
Structure prediction by ZEFSAII (Michael W. Deem and Ramdas Pophale) SiO2 
 PCOD9587685
Probable space group: P 6/M M M
;
_chemical_formula_sum "Si O2"
_cell_formula_units_Z 66
_cell_length_a 22.986190
_cell_length_b 22.986190
_cell_length_c 8.153695
_cell_angle_alpha 90.000000
_cell_angle_beta 90.000000
_cell_angle_gamma 120.000000
_cell_volume 3730.946986
_symmetry_space_group_name_H-M "P 6/M M M"
_symmetry_group_IT_number 191
_symmetry_cell_setting 'hexagonal'
loop_
_space_group_symop_operation_xyz
x,y,z
x-y,x,z
-y,x-y,z
-x,-y,z
-x+y,-x,z
y,-x+y,z
x-y,-y,-z
-x,-x+y,-z
y,x,-z
-y,-x,-z
-x+y,y,-z
x,x-y,-z
-x,-y,-z
-x+y,-x,-z
y,-x+y,-z
x,y,-z
x-y,x,-z
-y,x-y,-z
-x+y,y,z
x,x-y,z
-y,-x,z
y,x,z
x-y,-y,z
-x,-x+y,z
loop_
_atom_site_type_symbol
_atom_site_label
_atom_site_fract_x
_atom_site_fract_y
_atom_site_fract_z
Si Si1 0.919478 0.522868 0.196179
Si Si2 0.353095 0.080614 0.315317
Si Si3 0.740032 0.870016 0.818587
Si Si4 0.162164 0.081082 0.500000
O O1 0.893443 0.446722 0.254721
O O2 0.892748 0.569576 0.269623
O O3 0.000000 0.562499 0.227106
O O4 0.911002 0.521082 0.000000
O O5 0.348835 0.101707 0.500000
O O6 0.309810 0.100233 0.200524
O O7 0.316469 0.000000 0.312246
O O8 0.791706 0.895853 0.665237
O O9 0.771867 0.885934 0.000000
O O10 0.117398 0.117398 0.500000
#
# Coordination Sequence:
#
# PCOD9587685 Si02
#       4
#    24  24  12   6
#     4   8  14  25  42  67 101 139 175 207 243 294
#     4  10  19  32  50  74 106 140 178 224 273 332
#     4  12  24  39  61  85 112 146 184 232 294 360
#     4  12  27  48  68  88 110 138 182 238 302 378
#
# _framework density 17.689879000000001
#
# number of rings (size 3 to 8) (size 9 to 14) (size 15 to 20)
#    0.000    2.182    1.818    3.364    0.000    5.091 
#    0.000    3.636    0.000    1.091    0.000    0.000 
#    1.818    0.000    3.273    0.000    3.273    0.000 
#
# Total GULP energy -367624.699175 kJ/mol
# GULP energy per Si atom -5570.071200 kJ/mol
# Density = 1.764962 g / cm^3
# Si number density = 17.689879 Si / 1000 Ang^3
#
#
#
# Elastic Constant Matrix: (Units=GPa)
#
#
# Indices 1 2 3 4 5 6 
#
# 1 75.0335 35.9251 36.8350 0.0000 0.0000 0.0000
# 2 35.9251 75.0335 36.8350 0.0000 0.0000 0.0000
# 3 36.8350 36.8350 88.8305 0.0000 0.0000 0.0000
# 4 0.0000 0.0000 0.0000 20.1952 0.0000 0.0000
# 5 0.0000 0.0000 0.0000 0.0000 20.1952 0.0000
# 6 0.0000 0.0000 0.0000 0.0000 0.0000 19.5542
#
#
#
# Elastic Compliance Matrix: (Units=1/GPa)
#
#
# Indices 1 2 3 4 5 6 
#
# 1 0.019003 -0.006567 -0.005157 0.000000 0.000000 0.000000
# 2 -0.006567 0.019003 -0.005157 0.000000 0.000000 0.000000
# 3 -0.005157 -0.005157 0.015534 0.000000 0.000000 0.000000
# 4 0.000000 0.000000 0.000000 0.049517 0.000000 0.000000
# 5 0.000000 0.000000 0.000000 0.000000 0.049517 0.000000
# 6 0.000000 0.000000 0.000000 0.000000 0.000000 0.051140
#
#
# Mechanical properties :
#
#
# Convention : Reuss Voigt Hill
#
# Bulk Modulus (GPa) = 50.55842 50.89863 50.72853
# Shear Modulus (GPa) = 20.48610 20.60908 20.54759
#
# Velocity S-wave (km/s) = 3.40673 3.41694 3.41184
# Velocity P-wave (km/s) = 6.64206 6.66352 6.65280
#
# Compressibility (1/GPa) = 0.01977910
#
# Stress axis : x y z
#
# Youngs Moduli (GPa) = 52.62306 52.62306 64.37430
#
# Poissons Ratio (x) = 0.34557 0.33197
# Poissons Ratio (y) = 0.34557 0.33197
# Poissons Ratio (z) = 0.27137 0.27137
#
# Static dielectric constant tensor:
#      x y z
#    x 1.629150 0.000000 0.000000 
#    y 0.000000 1.629150 0.000000 
#    z 0.000000 0.000000 1.641680 
# 
# From -- ./inp_files/691.got.cif
#   From: 2010.05.17/outbox.cif.g08.bks.cpg/sg191_1_cif.got.tgz:691.got - 2010.05.20 12:20:32.
