data_PCOD9587510
_publ_section_title
;
Structure prediction by ZEFSAII (Michael W. Deem and Ramdas Pophale) SiO2 
 PCOD9587510
Probable space group: P 6/M M M
;
_chemical_formula_sum "Si O2"
_cell_formula_units_Z 132
_cell_length_a 18.282881
_cell_length_b 18.282881
_cell_length_c 27.871756
_cell_angle_alpha 90.000000
_cell_angle_beta 90.000000
_cell_angle_gamma 120.000000
_cell_volume 8068.340688
_symmetry_space_group_name_H-M "P 6/M M M"
_symmetry_group_IT_number 191
_symmetry_cell_setting 'hexagonal'
loop_
_space_group_symop_operation_xyz
x,y,z
x-y,x,z
-y,x-y,z
-x,-y,z
-x+y,-x,z
y,-x+y,z
x-y,-y,-z
-x,-x+y,-z
y,x,-z
-y,-x,-z
-x+y,y,-z
x,x-y,-z
-x,-y,-z
-x+y,-x,-z
y,-x+y,-z
x,y,-z
x-y,x,-z
-y,x-y,-z
-x+y,y,z
x,x-y,z
-y,-x,z
y,x,z
x-y,-y,z
-x,-x+y,z
loop_
_atom_site_type_symbol
_atom_site_label
_atom_site_fract_x
_atom_site_fract_y
_atom_site_fract_z
Si Si1 0.736831 0.096207 0.556994
Si Si2 0.834789 0.332242 0.804796
Si Si3 0.667092 0.161589 0.363196
Si Si4 0.899081 0.366372 0.911306
Si Si5 0.637811 0.903968 0.276745
Si Si6 0.099737 0.739178 0.000000
O O1 0.725027 0.100923 0.500000
O O2 0.833528 0.166473 0.568600
O O3 0.679599 0.122681 0.587725
O O4 0.709872 0.000000 0.568601
O O5 0.851224 0.425612 0.794333
O O6 0.737525 0.262475 0.795312
O O7 0.855022 0.329387 0.860676
O O8 0.889152 0.306331 0.771291
O O9 0.575632 0.151264 0.358444
O O10 0.740044 0.259957 0.361810
O O11 0.689120 0.116603 0.320496
O O12 0.877254 0.438627 0.926280
O O13 0.880802 0.300456 0.953342
O O14 0.000000 0.415034 0.903115
O O15 0.664550 0.832275 0.277983
O O16 0.711854 0.000000 0.279721
O O17 0.161045 0.838956 0.000000
O O18 0.000000 0.705919 0.000000
#
# Coordination Sequence:
#
# PCOD9587510 Si02
#       6
#    24  24  24  24  24  12
#     4   9  18  32  49  69  93 122 156 194 237 282
#     4  10  19  30  45  67  97 130 161 190 221 259
#     4  10  20  33  49  70  97 128 160 192 226 265
#     4   9  17  29  46  67  90 118 152 189 227 268
#     4  10  21  35  51  71  94 121 153 191 234 277
#     4  10  19  31  47  66  89 117 152 192 233 277
#
# _framework density 16.360242
#
# number of rings (size 3 to 8) (size 9 to 14) (size 15 to 20)
#    0.000    2.364    0.000    2.818    0.000    4.727 
#    0.000    2.727    0.000    4.091    0.000    1.273 
#    0.000    4.364    0.000    6.000    0.000    0.000 
#
# Total GULP energy -736190.083376 kJ/mol
# GULP energy per Si atom -5577.197601 kJ/mol
# Density = 1.632300 g / cm^3
# Si number density = 16.360242 Si / 1000 Ang^3
#
#
#
# Elastic Constant Matrix: (Units=GPa)
#
#
# Indices 1 2 3 4 5 6 
#
# 1 95.2194 71.5491 36.1275 0.0000 0.0000 0.0000
# 2 71.5491 95.2194 36.1275 0.0000 0.0000 0.0000
# 3 36.1275 36.1275 46.5190 0.0000 0.0000 0.0000
# 4 0.0000 0.0000 0.0000 19.2355 0.0000 0.0000
# 5 0.0000 0.0000 0.0000 0.0000 19.2355 0.0000
# 6 0.0000 0.0000 0.0000 0.0000 0.0000 11.8352
#
#
#
# Elastic Compliance Matrix: (Units=1/GPa)
#
#
# Indices 1 2 3 4 5 6 
#
# 1 0.025642 -0.016605 -0.007018 0.000000 0.000000 0.000000
# 2 -0.016605 0.025642 -0.007018 0.000000 0.000000 0.000000
# 3 -0.007018 -0.007018 0.032398 0.000000 0.000000 0.000000
# 4 0.000000 0.000000 0.000000 0.051987 0.000000 0.000000
# 5 0.000000 0.000000 0.000000 0.000000 0.051987 0.000000
# 6 0.000000 0.000000 0.000000 0.000000 0.000000 0.084494
#
#
# Mechanical properties :
#
#
# Convention : Reuss Voigt Hill
#
# Bulk Modulus (GPa) = 44.64582 58.28510 51.46546
# Shear Modulus (GPa) = 14.66707 16.27150 15.46928
#
# Velocity S-wave (km/s) = 2.99742 3.15711 3.07830
# Velocity P-wave (km/s) = 6.27119 6.99951 6.64534
#
# Compressibility (1/GPa) = 0.02239851
#
# Stress axis : x y z
#
# Youngs Moduli (GPa) = 38.99848 38.99848 30.86618
#
# Poissons Ratio (x) = 0.64756 0.21663
# Poissons Ratio (y) = 0.64756 0.21663
# Poissons Ratio (z) = 0.27371 0.27371
#
# Static dielectric constant tensor:
#      x y z
#    x 1.536670 0.000000 0.000000 
#    y 0.000000 1.536670 0.000000 
#    z 0.000000 0.000000 1.560590 
# 
# From -- ./inp_files/8705.got.cif
#   From: 2010.05.17/outbox.cif.g08.bks.cpg/sg191_5_cif.got.tgz:8705.got - 2010.05.20 12:20:32.
