data_PCOD9587739
_publ_section_title
;
Structure prediction by ZEFSAII (Michael W. Deem and Ramdas Pophale) SiO2 
 PCOD9587739
Probable space group: P 6/M M M
;
_chemical_formula_sum "Si O2"
_cell_formula_units_Z 108
_cell_length_a 17.573318
_cell_length_b 17.573318
_cell_length_c 24.097361
_cell_angle_alpha 90.000000
_cell_angle_beta 90.000000
_cell_angle_gamma 120.000000
_cell_volume 6444.773390
_symmetry_space_group_name_H-M "P 6/M M M"
_symmetry_group_IT_number 191
_symmetry_cell_setting 'hexagonal'
loop_
_space_group_symop_operation_xyz
x,y,z
x-y,x,z
-y,x-y,z
-x,-y,z
-x+y,-x,z
y,-x+y,z
x-y,-y,-z
-x,-x+y,-z
y,x,-z
-y,-x,-z
-x+y,y,-z
x,x-y,-z
-x,-y,-z
-x+y,-x,-z
y,-x+y,-z
x,y,-z
x-y,x,-z
-y,x-y,-z
-x+y,y,z
x,x-y,z
-y,-x,z
y,x,z
x-y,-y,z
-x,-x+y,z
loop_
_atom_site_type_symbol
_atom_site_label
_atom_site_fract_x
_atom_site_fract_y
_atom_site_fract_z
Si Si1 0.892596 0.607766 0.376690
Si Si2 0.826912 0.826912 0.067332
Si Si3 0.649033 0.000000 0.066245
Si Si4 0.893830 0.446915 0.563398
Si Si5 0.669608 0.509919 0.863482
Si Si6 0.104690 0.639140 0.740605
O O1 0.816588 0.633175 0.391150
O O2 0.871437 0.516532 0.407601
O O3 0.880420 0.580777 0.311800
O O4 0.000000 0.678058 0.385552
O O5 0.825306 0.912653 0.087412
O O6 0.738432 0.738432 0.080617
O O7 0.831821 0.831821 0.000000
O O8 0.653158 0.083066 0.095079
O O9 0.640606 0.000000 0.000000
O O10 0.862008 0.431004 0.500000
O O11 0.000000 0.500000 0.563448
O O12 0.752897 0.505794 0.883194
O O13 0.584837 0.415164 0.861745
O O14 0.683243 0.543326 0.799892
O O15 0.137149 0.568575 0.729140
O O16 0.000000 0.581329 0.746974
#
# Coordination Sequence:
#
# PCOD9587739 Si02
#       6
#    24  12  12  12  24  24
#     4  10  19  33  54  80 111 151 193 234 276 326
#     4   9  17  31  53  79 103 127 159 201 247 297
#     4  11  23  39  55  73  99 135 171 205 253 321
#     4   9  18  34  54  78 112 152 186 226 274 324
#     4  11  22  36  54  77 102 132 169 216 265 315
#     4   9  16  31  54  78 104 134 174 221 271 319
#
# _framework density 16.757766
#
# number of rings (size 3 to 8) (size 9 to 14) (size 15 to 20)
#    0.000    2.111    2.222    2.000    0.000    3.111 
#    0.667    0.000    0.000    1.556    0.000    0.000 
#    0.000    0.000    0.000    5.556    0.000    0.000 
#
# Total GULP energy -601295.294105 kJ/mol
# GULP energy per Si atom -5567.549019 kJ/mol
# Density = 1.671962 g / cm^3
# Si number density = 16.757766 Si / 1000 Ang^3
#
#
#
# Elastic Constant Matrix: (Units=GPa)
#
#
# Indices 1 2 3 4 5 6 
#
# 1 83.8515 37.0209 30.8606 0.0000 0.0000 0.0000
# 2 37.0209 83.8515 30.8606 0.0000 0.0000 0.0000
# 3 30.8606 30.8606 65.9555 0.0000 0.0000 0.0000
# 4 0.0000 0.0000 0.0000 -3.3958 0.0000 0.0000
# 5 0.0000 0.0000 0.0000 0.0000 -3.3958 0.0000
# 6 0.0000 0.0000 0.0000 0.0000 0.0000 23.4153
#
#
#
# Elastic Compliance Matrix: (Units=1/GPa)
#
#
# Indices 1 2 3 4 5 6 
#
# 1 0.016112 -0.005242 -0.005086 0.000000 0.000000 0.000000
# 2 -0.005242 0.016112 -0.005086 0.000000 0.000000 0.000000
# 3 -0.005086 -0.005086 0.019921 0.000000 0.000000 0.000000
# 4 0.000000 0.000000 0.000000 -0.294480 0.000000 0.000000
# 5 0.000000 0.000000 0.000000 0.000000 -0.294480 0.000000
# 6 0.000000 0.000000 0.000000 0.000000 0.000000 0.042707
#
#
# Mechanical properties :
#
#
# Convention : Reuss Voigt Hill
#
# Bulk Modulus (GPa) = 46.91049 47.90477 47.40763
# Shear Modulus (GPa) = -10.96073 12.31917 0.67922
#
# Velocity S-wave (km/s) = -2.56025 2.71427 0.63734
# Velocity P-wave (km/s) = 4.39479 6.20256 5.37522
#
# Compressibility (1/GPa) = 0.02131719
#
# Stress axis : x y z
#
# Youngs Moduli (GPa) = 62.06570 62.06570 50.19711
#
# Poissons Ratio (x) = 0.32532 0.25532
# Poissons Ratio (y) = 0.32532 0.25532
# Poissons Ratio (z) = 0.31568 0.31568
#
# Static dielectric constant tensor:
#      x y z
#    x 1.586690 0.000000 0.000000 
#    y 0.000000 1.586690 0.000000 
#    z 0.000000 0.000000 1.611690 
# 
# From -- ./inp_files/8464.got.cif
#   From: 2010.05.17/outbox.cif.g08.bks.cpg/sg191_5_cif.got.tgz:8464.got - 2010.05.20 12:20:32.
