data_PCOD9587350
_publ_section_title
;
Structure prediction by ZEFSAII (Michael W. Deem and Ramdas Pophale) SiO2 
 PCOD9587350
Probable space group: P 6/M M M
;
_chemical_formula_sum "Si O2"
_cell_formula_units_Z 52
_cell_length_a 27.319898
_cell_length_b 27.319898
_cell_length_c 7.768393
_cell_angle_alpha 90.000000
_cell_angle_beta 90.000000
_cell_angle_gamma 120.000000
_cell_volume 5021.343910
_symmetry_space_group_name_H-M "P 6/M M M"
_symmetry_group_IT_number 191
_symmetry_cell_setting 'hexagonal'
loop_
_space_group_symop_operation_xyz
x,y,z
x-y,x,z
-y,x-y,z
-x,-y,z
-x+y,-x,z
y,-x+y,z
x-y,-y,-z
-x,-x+y,-z
y,x,-z
-y,-x,-z
-x+y,y,-z
x,x-y,-z
-x,-y,-z
-x+y,-x,-z
y,-x+y,-z
x,y,-z
x-y,x,-z
-y,x-y,-z
-x+y,y,z
x,x-y,z
-y,-x,z
y,x,z
x-y,-y,z
-x,-x+y,z
loop_
_atom_site_type_symbol
_atom_site_label
_atom_site_fract_x
_atom_site_fract_y
_atom_site_fract_z
Si Si1 0.516873 0.367602 0.198397
Si Si2 0.333334 0.666667 0.290508
Si Si3 0.268449 0.731552 0.292294
Si Si4 0.935877 0.527161 0.500000
O O1 0.581900 0.418101 0.234020
O O2 0.511904 0.307144 0.228171
O O3 0.477903 0.377491 0.331455
O O4 0.504921 0.373575 0.000000
O O5 0.333334 0.666667 0.500000
O O6 0.301100 0.698901 0.233934
O O7 0.267661 0.732340 0.500000
O O8 0.939131 0.469566 0.500000
O O9 0.000000 0.578034 0.500000
#
# Coordination Sequence:
#
# PCOD9587350 Si02
#       4
#    24   4  12  12
#     4  10  19  28  39  54  69  86 106 127 155 190
#     4   9  18  21  37  53  64  94 110 118 148 191
#     4  11  17  27  39  52  73  91 105 124 153 193
#     4   9  18  31  42  50  62  81 107 137 160 178
#
# _framework density 10.355793
#
# number of rings (size 3 to 8) (size 9 to 14) (size 15 to 20)
#    0.000    2.077    4.615    0.692    0.000    0.923 
#    0.000    4.615    0.000    0.000    0.000    0.000 
#    0.000    0.000    0.000    0.000    0.000    0.000 
#
# Total GULP energy -289804.938660 kJ/mol
# GULP energy per Si atom -5573.171897 kJ/mol
# Density = 1.033222 g / cm^3
# Si number density = 10.355793 Si / 1000 Ang^3
#
#
#
# Elastic Constant Matrix: (Units=GPa)
#
#
# Indices 1 2 3 4 5 6 
#
# 1 49.7408 30.8608 30.2611 0.0000 0.0000 0.0000
# 2 30.8608 49.7406 30.2611 0.0000 0.0000 0.0000
# 3 30.2611 30.2611 74.9235 0.0000 0.0000 0.0000
# 4 0.0000 0.0000 0.0000 5.8758 0.0000 0.0000
# 5 0.0000 0.0000 0.0000 0.0000 5.8759 0.0000
# 6 0.0000 0.0000 0.0000 0.0000 0.0000 9.4399
#
#
#
# Elastic Compliance Matrix: (Units=1/GPa)
#
#
# Indices 1 2 3 4 5 6 
#
# 1 0.035387 -0.017580 -0.007192 0.000000 0.000000 0.000000
# 2 -0.017580 0.035387 -0.007192 0.000000 0.000000 0.000000
# 3 -0.007192 -0.007192 0.019157 0.000000 0.000000 0.000000
# 4 0.000000 0.000000 0.000000 0.170190 0.000000 0.000000
# 5 0.000000 0.000000 0.000000 0.000000 0.170188 0.000000
# 6 0.000000 0.000000 0.000000 0.000000 0.000000 0.105933
#
#
# Mechanical properties :
#
#
# Convention : Reuss Voigt Hill
#
# Bulk Modulus (GPa) = 38.45816 39.68568 39.07192
# Shear Modulus (GPa) = 8.21239 9.77311 8.99275
#
# Velocity S-wave (km/s) = 2.81912 3.07536 2.95002
# Velocity P-wave (km/s) = 6.91477 7.14254 7.02958
#
# Compressibility (1/GPa) = 0.02600228
#
# Stress axis : x y z
#
# Youngs Moduli (GPa) = 28.25919 28.25904 52.20096
#
# Poissons Ratio (x) = 0.49678 0.37544
# Poissons Ratio (y) = 0.49678 0.37544
# Poissons Ratio (z) = 0.20325 0.20325
#
# Static dielectric constant tensor:
#      x y z
#    x 1.316050 0.000000 0.000000 
#    y 0.000000 1.316050 0.000000 
#    z 0.000000 0.000000 1.361460 
# 
# From -- ./inp_files/763.got.cif
#   From: 2010.05.17/outbox.cif.g08.bks.cpg/sg191_1_cif.got.tgz:763.got - 2010.05.20 12:20:32.
