data_PCOD9587490
_publ_section_title
;
Structure prediction by ZEFSAII (Michael W. Deem and Ramdas Pophale) SiO2 
 PCOD9587490
Probable space group: P 6/M M M
;
_chemical_formula_sum "Si O2"
_cell_formula_units_Z 120
_cell_length_a 18.180387
_cell_length_b 18.180387
_cell_length_c 26.106142
_cell_angle_alpha 90.000000
_cell_angle_beta 90.000000
_cell_angle_gamma 120.000000
_cell_volume 7472.734889
_symmetry_space_group_name_H-M "P 6/M M M"
_symmetry_group_IT_number 191
_symmetry_cell_setting 'hexagonal'
loop_
_space_group_symop_operation_xyz
x,y,z
x-y,x,z
-y,x-y,z
-x,-y,z
-x+y,-x,z
y,-x+y,z
x-y,-y,-z
-x,-x+y,-z
y,x,-z
-y,-x,-z
-x+y,y,-z
x,x-y,-z
-x,-y,-z
-x+y,-x,-z
y,-x+y,-z
x,y,-z
x-y,x,-z
-y,x-y,-z
-x+y,y,z
x,x-y,z
-y,-x,z
y,x,z
x-y,-y,z
-x,-x+y,z
loop_
_atom_site_type_symbol
_atom_site_label
_atom_site_fract_x
_atom_site_fract_y
_atom_site_fract_z
Si Si1 0.835819 0.504550 0.410160
Si Si2 0.902682 0.269381 0.904176
Si Si3 0.638011 0.733367 0.500000
Si Si4 0.495415 0.164252 0.812332
Si Si5 0.160027 0.667594 0.000000
Si Si6 0.903298 0.362645 0.298988
O O1 0.737312 0.474623 0.419267
O O2 0.852000 0.426000 0.416426
O O3 0.888459 0.578331 0.450659
O O4 0.858980 0.538789 0.352153
O O5 0.830050 0.169950 0.906101
O O6 0.888150 0.308358 0.852165
O O7 0.881575 0.314822 0.950487
O O8 0.000000 0.292587 0.907878
O O9 0.714366 0.714366 0.500000
O O10 0.662892 0.831446 0.500000
O O11 0.573749 0.147497 0.819117
O O12 0.525867 0.262934 0.821631
O O13 0.462336 0.141712 0.754097
O O14 0.259366 0.740635 0.000000
O O15 0.149848 0.574924 0.000000
O O16 0.905209 0.452605 0.299257
O O17 0.000000 0.384083 0.298671
#
# Coordination Sequence:
#
# PCOD9587490 Si02
#       6
#    24  24  12  24  12  24
#     4  10  19  30  45  66  94 127 161 194 227 265
#     4  10  21  35  51  71  94 122 155 194 239 283
#     4  10  21  35  51  70  91 117 148 186 231 277
#     4  10  19  30  45  66  94 127 161 195 231 273
#     4  10  20  33  50  73 102 134 165 194 224 261
#     4   9  17  28  42  60  84 119 163 205 237 265
#
# _framework density 16.058377
#
# number of rings (size 3 to 8) (size 9 to 14) (size 15 to 20)
#    0.000    2.200    0.000    3.500    0.000    4.400 
#    0.000    5.000    0.000    0.300    0.000    0.000 
#    0.000    2.400    0.000    0.000    0.000   41.600 
#
# Total GULP energy -669252.610963 kJ/mol
# GULP energy per Si atom -5577.105091 kJ/mol
# Density = 1.602183 g / cm^3
# Si number density = 16.058377 Si / 1000 Ang^3
#
#
#
# Elastic Constant Matrix: (Units=GPa)
#
#
# Indices 1 2 3 4 5 6 
#
# 1 81.9005 62.4737 31.9136 0.0000 0.0000 0.0000
# 2 62.4737 81.9005 31.9136 0.0000 0.0000 0.0000
# 3 31.9136 31.9136 106.2934 0.0000 0.0000 0.0000
# 4 0.0000 0.0000 0.0000 15.0638 0.0000 0.0000
# 5 0.0000 0.0000 0.0000 0.0000 15.0638 0.0000
# 6 0.0000 0.0000 0.0000 0.0000 0.0000 9.7134
#
#
#
# Elastic Compliance Matrix: (Units=1/GPa)
#
#
# Indices 1 2 3 4 5 6 
#
# 1 0.029731 -0.021744 -0.002398 0.000000 0.000000 0.000000
# 2 -0.021744 0.029731 -0.002398 0.000000 0.000000 0.000000
# 3 -0.002398 -0.002398 0.010848 0.000000 0.000000 0.000000
# 4 0.000000 0.000000 0.000000 0.066384 0.000000 0.000000
# 5 0.000000 0.000000 0.000000 0.000000 0.066384 0.000000
# 6 0.000000 0.000000 0.000000 0.000000 0.000000 0.102951
#
#
# Mechanical properties :
#
#
# Convention : Reuss Voigt Hill
#
# Bulk Modulus (GPa) = 58.04052 58.07738 58.05895
# Shear Modulus (GPa) = 13.70415 17.55440 15.62928
#
# Velocity S-wave (km/s) = 2.92446 3.30989 3.12313
# Velocity P-wave (km/s) = 6.90110 7.13106 7.01702
#
# Compressibility (1/GPa) = 0.01722934
#
# Stress axis : x y z
#
# Youngs Moduli (GPa) = 33.63496 33.63496 92.18446
#
# Poissons Ratio (x) = 0.73137 0.22105
# Poissons Ratio (y) = 0.73137 0.22105
# Poissons Ratio (z) = 0.08065 0.08065
#
# Static dielectric constant tensor:
#      x y z
#    x 1.527490 0.000000 0.000000 
#    y 0.000000 1.527490 0.000000 
#    z 0.000000 0.000000 1.555160 
# 
# From -- ./inp_files/8545.got.cif
#   From: 2010.05.17/outbox.cif.g08.bks.cpg/sg191_5_cif.got.tgz:8545.got - 2010.05.20 12:20:32.
