data_PCOD9587057
_publ_section_title
;
Structure prediction by ZEFSAII (Michael W. Deem and Ramdas Pophale) SiO2 
 PCOD9587057
Probable space group: P 6/M M M
;
_chemical_formula_sum "Si O2"
_cell_formula_units_Z 108
_cell_length_a 30.807471
_cell_length_b 30.807471
_cell_length_c 7.952212
_cell_angle_alpha 90.000000
_cell_angle_beta 90.000000
_cell_angle_gamma 120.000000
_cell_volume 6536.280447
_symmetry_space_group_name_H-M "P 6/M M M"
_symmetry_group_IT_number 191
_symmetry_cell_setting 'hexagonal'
loop_
_space_group_symop_operation_xyz
x,y,z
x-y,x,z
-y,x-y,z
-x,-y,z
-x+y,-x,z
y,-x+y,z
x-y,-y,-z
-x,-x+y,-z
y,x,-z
-y,-x,-z
-x+y,y,-z
x,x-y,-z
-x,-y,-z
-x+y,-x,-z
y,-x+y,-z
x,y,-z
x-y,x,-z
-y,x-y,-z
-x+y,y,z
x,x-y,z
-y,-x,z
y,x,z
x-y,-y,z
-x,-x+y,z
loop_
_atom_site_type_symbol
_atom_site_label
_atom_site_fract_x
_atom_site_fract_y
_atom_site_fract_z
Si Si1 0.511353 0.704558 0.807319
Si Si2 0.000000 0.806104 0.802391
Si Si3 0.785336 0.892668 0.700652
Si Si4 0.000000 0.703716 0.297888
Si Si5 0.436358 0.769596 0.500000
Si Si6 0.836075 0.672149 0.704487
Si Si7 0.385297 0.105960 0.295533
O O1 0.526374 0.763187 0.782859
O O2 0.469846 0.674857 0.665893
O O3 0.559210 0.697709 0.777118
O O4 0.493760 0.691489 0.000000
O O5 0.950327 0.807865 0.751012
O O6 0.000000 0.755806 0.737347
O O7 0.000000 0.801826 0.000000
O O8 0.783427 0.891714 0.500000
O O9 0.728521 0.864261 0.768757
O O10 0.049533 0.703016 0.239621
O O11 0.000000 0.701459 0.500000
O O12 0.386289 0.772578 0.500000
O O13 0.424270 0.712135 0.500000
O O14 0.837133 0.674265 0.500000
O O15 0.864074 0.642914 0.754591
O O16 0.389412 0.106671 0.500000
#
# Coordination Sequence:
#
# PCOD9587057 Si02
#       7
#    24  12  12  12  12  12  24
#     4  10  20  33  53  81 110 144 186 227 272 327
#     4  12  24  36  50  77 109 134 171 227 282 328
#     4  11  21  39  57  72  96 141 187 217 263 335
#     4  10  20  32  50  76 109 150 189 222 267 329
#     4  10  21  38  60  85 115 147 181 220 267 319
#     4   9  16  25  51  75  98 137 182 222 257 307
#     4  10  17  30  49  75 109 146 186 227 266 315
#
# _framework density 16.523160000000001
#
# number of rings (size 3 to 8) (size 9 to 14) (size 15 to 20)
#    0.000    1.778    4.444    1.444    0.000    1.333 
#    0.000    0.000    0.000    1.556    0.000    3.111 
#    0.000    1.778    0.000    0.000    0.000    0.000 
#
# Total GULP energy -602140.770743 kJ/mol
# GULP energy per Si atom -5575.377507 kJ/mol
# Density = 1.648555 g / cm^3
# Si number density = 16.523160 Si / 1000 Ang^3
#
#
#
# Elastic Constant Matrix: (Units=GPa)
#
#
# Indices 1 2 3 4 5 6 
#
# 1 113.8202 70.4968 44.0436 0.0000 0.0000 0.0000
# 2 70.4968 113.8202 44.0436 0.0000 0.0000 0.0000
# 3 44.0436 44.0436 76.1593 0.0000 0.0000 0.0000
# 4 0.0000 0.0000 0.0000 1.9508 0.0000 0.0000
# 5 0.0000 0.0000 0.0000 0.0000 1.9508 0.0000
# 6 0.0000 0.0000 0.0000 0.0000 0.0000 21.6617
#
#
#
# Elastic Compliance Matrix: (Units=1/GPa)
#
#
# Indices 1 2 3 4 5 6 
#
# 1 0.015290 -0.007792 -0.004336 0.000000 0.000000 0.000000
# 2 -0.007792 0.015290 -0.004336 0.000000 0.000000 0.000000
# 3 -0.004336 -0.004336 0.018145 0.000000 0.000000 0.000000
# 4 0.000000 0.000000 0.000000 0.512614 0.000000 0.000000
# 5 0.000000 0.000000 0.000000 0.000000 0.512614 0.000000
# 6 0.000000 0.000000 0.000000 0.000000 0.000000 0.046164
#
#
# Mechanical properties :
#
#
# Convention : Reuss Voigt Hill
#
# Bulk Modulus (GPa) = 63.30364 68.99642 66.15003
# Shear Modulus (GPa) = 4.31663 14.79371 9.55517
#
# Velocity S-wave (km/s) = 1.61807 2.99546 2.40737
# Velocity P-wave (km/s) = 6.47195 7.33565 6.91729
#
# Compressibility (1/GPa) = 0.01579688
#
# Stress axis : x y z
#
# Youngs Moduli (GPa) = 65.40261 65.40261 55.11031
#
# Poissons Ratio (x) = 0.50963 0.23896
# Poissons Ratio (y) = 0.50963 0.23896
# Poissons Ratio (z) = 0.28358 0.28358
#
# Static dielectric constant tensor:
#      x y z
#    x 1.533160 0.000000 0.000000 
#    y 0.000000 1.533160 0.000000 
#    z 0.000000 0.000000 1.583910 
# 
# From -- ./inp_files/1807.got.cif
#   From: 2010.05.17/outbox.cif.g08.bks.cpg/sg191_1_cif.got.tgz:1807.got - 2010.05.20 12:20:32.
