data_PCOD9587093
_publ_section_title
;
Structure prediction by ZEFSAII (Michael W. Deem and Ramdas Pophale) SiO2 
 PCOD9587093
Probable space group: P 6/M M M
;
_chemical_formula_sum "Si O2"
_cell_formula_units_Z 132
_cell_length_a 18.206488
_cell_length_b 18.206488
_cell_length_c 27.928891
_cell_angle_alpha 90.000000
_cell_angle_beta 90.000000
_cell_angle_gamma 120.000000
_cell_volume 8017.457773
_symmetry_space_group_name_H-M "P 6/M M M"
_symmetry_group_IT_number 191
_symmetry_cell_setting 'hexagonal'
loop_
_space_group_symop_operation_xyz
x,y,z
x-y,x,z
-y,x-y,z
-x,-y,z
-x+y,-x,z
y,-x+y,z
x-y,-y,-z
-x,-x+y,-z
y,x,-z
-y,-x,-z
-x+y,y,-z
x,x-y,-z
-x,-y,-z
-x+y,-x,-z
y,-x+y,-z
x,y,-z
x-y,x,-z
-y,x-y,-z
-x+y,y,z
x,x-y,z
-y,-x,z
y,x,z
x-y,-y,z
-x,-x+y,z
loop_
_atom_site_type_symbol
_atom_site_label
_atom_site_fract_x
_atom_site_fract_y
_atom_site_fract_z
Si Si1 0.635565 0.534962 0.382618
Si Si2 0.098740 0.901261 0.441653
Si Si3 0.267946 0.365339 0.288389
Si Si4 0.502603 0.669630 0.000000
Si Si5 0.197844 0.802157 0.442798
Si Si6 0.834349 0.331003 0.795821
Si Si7 0.903039 0.540624 0.100933
O O1 0.563523 0.436477 0.380131
O O2 0.586984 0.586984 0.392831
O O3 0.683882 0.570580 0.332308
O O4 0.707685 0.557998 0.421786
O O5 0.098380 0.901621 0.500000
O O6 0.148137 0.851864 0.426897
O O7 0.000000 0.851511 0.426383
O O8 0.169241 0.338481 0.290256
O O9 0.290924 0.290924 0.291375
O O10 0.307689 0.419743 0.240183
O O11 0.551216 0.682405 0.049923
O O12 0.426507 0.573494 0.000000
O O13 0.466153 0.733077 0.000000
O O14 0.198447 0.801554 0.500000
O O15 0.853363 0.426682 0.789480
O O16 0.736131 0.263870 0.785825
O O17 0.853437 0.319337 0.850785
O O18 0.900472 0.450236 0.098519
O O19 0.000000 0.611822 0.106635
#
# Coordination Sequence:
#
# PCOD9587093 Si02
#       7
#    24  12  24  12  12  24  24
#     4  10  21  38  58  79 104 136 174 213 256 305
#     4   9  17  30  51  80 112 142 172 209 255 308
#     4  10  20  36  58  81 104 132 166 206 254 307
#     4  10  18  27  39  55  80 115 154 198 249 304
#     4  11  22  37  56  79 106 140 177 215 256 303
#     4  10  19  30  47  73 103 133 167 210 255 298
#     4   9  17  28  41  58  83 119 162 204 246 295
#
# _framework density 16.464071000000001
#
# number of rings (size 3 to 8) (size 9 to 14) (size 15 to 20)
#    0.000    2.182    0.909    2.818    0.000    4.727 
#    0.545    2.727    0.000    0.182    0.000    0.000 
#    0.000    0.000    0.000    0.000    0.000    0.000 
#
# Total GULP energy -735809.222774 kJ/mol
# GULP energy per Si atom -5574.312294 kJ/mol
# Density = 1.642660 g / cm^3
# Si number density = 16.464071 Si / 1000 Ang^3
#
#
#
# Elastic Constant Matrix: (Units=GPa)
#
#
# Indices 1 2 3 4 5 6 
#
# 1 86.5279 60.3901 36.9227 0.0000 0.0000 0.0000
# 2 60.3901 86.5279 36.9227 0.0000 0.0000 0.0000
# 3 36.9227 36.9227 85.2529 0.0000 0.0000 0.0000
# 4 0.0000 0.0000 0.0000 19.7541 0.0000 0.0000
# 5 0.0000 0.0000 0.0000 0.0000 19.7541 0.0000
# 6 0.0000 0.0000 0.0000 0.0000 0.0000 13.0689
#
#
#
# Elastic Compliance Matrix: (Units=1/GPa)
#
#
# Indices 1 2 3 4 5 6 
#
# 1 0.023480 -0.014779 -0.003768 0.000000 0.000000 0.000000
# 2 -0.014779 0.023480 -0.003768 0.000000 0.000000 0.000000
# 3 -0.003768 -0.003768 0.014994 0.000000 0.000000 0.000000
# 4 0.000000 0.000000 0.000000 0.050622 0.000000 0.000000
# 5 0.000000 0.000000 0.000000 0.000000 0.050622 0.000000
# 6 0.000000 0.000000 0.000000 0.000000 0.000000 0.076517
#
#
# Mechanical properties :
#
#
# Convention : Reuss Voigt Hill
#
# Bulk Modulus (GPa) = 57.72955 58.53106 58.13030
# Shear Modulus (GPa) = 17.23424 18.78697 18.01060
#
# Velocity S-wave (km/s) = 3.23891 3.38167 3.31106
# Velocity P-wave (km/s) = 7.00910 7.13271 7.07117
#
# Compressibility (1/GPa) = 0.01732215
#
# Stress axis : x y z
#
# Youngs Moduli (GPa) = 42.59013 42.59013 66.69448
#
# Poissons Ratio (x) = 0.62944 0.25131
# Poissons Ratio (y) = 0.62944 0.25131
# Poissons Ratio (z) = 0.16049 0.16049
#
# Static dielectric constant tensor:
#      x y z
#    x 1.548030 0.000000 0.000000 
#    y 0.000000 1.548030 0.000000 
#    z 0.000000 0.000000 1.573540 
# 
# From -- ./inp_files/9874.got.cif
#   From: 2010.05.17/outbox.cif.g08.bks.cpg/sg191_5_cif.got.tgz:9874.got - 2010.05.20 12:20:32.
