data_PCOD9587084
_publ_section_title
;
Structure prediction by ZEFSAII (Michael W. Deem and Ramdas Pophale) SiO2 
 PCOD9587084
Probable space group: P 6/M M M
;
_chemical_formula_sum "Si O2"
_cell_formula_units_Z 132
_cell_length_a 18.415265
_cell_length_b 18.415265
_cell_length_c 28.669125
_cell_angle_alpha 90.000000
_cell_angle_beta 90.000000
_cell_angle_gamma 120.000000
_cell_volume 8419.785265
_symmetry_space_group_name_H-M "P 6/M M M"
_symmetry_group_IT_number 191
_symmetry_cell_setting 'hexagonal'
loop_
_space_group_symop_operation_xyz
x,y,z
x-y,x,z
-y,x-y,z
-x,-y,z
-x+y,-x,z
y,-x+y,z
x-y,-y,-z
-x,-x+y,-z
y,x,-z
-y,-x,-z
-x+y,y,-z
x,x-y,-z
-x,-y,-z
-x+y,-x,-z
y,-x+y,-z
x,y,-z
x-y,x,-z
-y,x-y,-z
-x+y,y,z
x,x-y,z
-y,-x,z
y,x,z
x-y,-y,z
-x,-x+y,z
loop_
_atom_site_type_symbol
_atom_site_label
_atom_site_fract_x
_atom_site_fract_y
_atom_site_fract_z
Si Si1 0.097099 0.358042 0.945137
Si Si2 0.330595 0.497582 0.500000
Si Si3 0.904598 0.364232 0.401876
Si Si4 0.833328 0.502096 0.301823
Si Si5 0.101187 0.468584 0.135549
Si Si6 0.735002 0.636816 0.777702
O O1 0.163485 0.326969 0.936515
O O2 0.122207 0.437813 0.912345
O O3 0.000000 0.290350 0.934616
O O4 0.101532 0.378953 0.000000
O O5 0.424164 0.575837 0.500000
O O6 0.264953 0.529905 0.500000
O O7 0.320199 0.449474 0.451597
O O8 0.904175 0.452088 0.404524
O O9 0.852949 0.321444 0.355526
O O10 0.000000 0.388086 0.395423
O O11 0.736647 0.473293 0.292174
O O12 0.850656 0.425328 0.294890
O O13 0.887886 0.579481 0.267729
O O14 0.134978 0.567489 0.139230
O O15 0.122351 0.426889 0.178615
O O16 0.000000 0.423470 0.136391
O O17 0.833961 0.667922 0.775869
O O18 0.706645 0.706645 0.781797
#
# Coordination Sequence:
#
# PCOD9587084 Si02
#       6
#    24  12  24  24  24  24
#     4   9  17  29  46  68  93 122 157 196 236 277
#     4  10  18  27  39  55  76 101 132 174 223 270
#     4   9  17  28  41  56  76 106 143 179 215 260
#     4  10  19  30  45  66  92 120 150 185 225 268
#     4   9  17  29  46  68  91 115 146 183 222 266
#     4  10  20  33  50  71  94 121 153 189 227 268
#
# _framework density 15.677358999999999
#
# number of rings (size 3 to 8) (size 9 to 14) (size 15 to 20)
#    0.000    2.545    0.000    2.727    0.000    3.273 
#    0.000    3.636    0.000    4.364    0.000    1.273 
#    0.000    4.364    0.000    0.182    0.000    0.000 
#
# Total GULP energy -734903.541303 kJ/mol
# GULP energy per Si atom -5567.451070 kJ/mol
# Density = 1.564168 g / cm^3
# Si number density = 15.677359 Si / 1000 Ang^3
#
#
#
# Elastic Constant Matrix: (Units=GPa)
#
#
# Indices 1 2 3 4 5 6 
#
# 1 67.0112 41.0693 31.9877 0.0000 0.0000 0.0000
# 2 41.0693 67.0112 31.9877 0.0000 0.0000 0.0000
# 3 31.9877 31.9877 73.5838 0.0000 0.0000 0.0000
# 4 0.0000 0.0000 0.0000 18.6969 0.0000 0.0000
# 5 0.0000 0.0000 0.0000 0.0000 18.6969 0.0000
# 6 0.0000 0.0000 0.0000 0.0000 0.0000 12.9710
#
#
#
# Elastic Compliance Matrix: (Units=1/GPa)
#
#
# Indices 1 2 3 4 5 6 
#
# 1 0.025503 -0.013045 -0.005416 0.000000 0.000000 0.000000
# 2 -0.013045 0.025503 -0.005416 0.000000 0.000000 0.000000
# 3 -0.005416 -0.005416 0.018298 0.000000 0.000000 0.000000
# 4 0.000000 0.000000 0.000000 0.053485 0.000000 0.000000
# 5 0.000000 0.000000 0.000000 0.000000 0.053485 0.000000
# 6 0.000000 0.000000 0.000000 0.000000 0.000000 0.077095
#
#
# Mechanical properties :
#
#
# Convention : Reuss Voigt Hill
#
# Bulk Modulus (GPa) = 46.39964 46.41063 46.40514
# Shear Modulus (GPa) = 16.21771 16.91040 16.56405
#
# Velocity S-wave (km/s) = 3.21980 3.28785 3.25400
# Velocity P-wave (km/s) = 6.59422 6.63936 6.61683
#
# Compressibility (1/GPa) = 0.02155189
#
# Stress axis : x y z
#
# Youngs Moduli (GPa) = 39.21134 39.21134 54.64945
#
# Poissons Ratio (x) = 0.51150 0.29596
# Poissons Ratio (y) = 0.51150 0.29596
# Poissons Ratio (z) = 0.21235 0.21235
#
# Static dielectric constant tensor:
#      x y z
#    x 1.520810 0.000000 0.000000 
#    y 0.000000 1.520810 0.000000 
#    z 0.000000 0.000000 1.552320 
# 
# From -- ./inp_files/9802.got.cif
#   From: 2010.05.17/outbox.cif.g08.bks.cpg/sg191_5_cif.got.tgz:9802.got - 2010.05.20 12:20:32.
