data_PCOD9587647
_publ_section_title
;
Structure prediction by ZEFSAII (Michael W. Deem and Ramdas Pophale) SiO2 
 PCOD9587647
Probable space group: P 6/M M M
;
_chemical_formula_sum "Si O2"
_cell_formula_units_Z 144
_cell_length_a 22.432892
_cell_length_b 22.432892
_cell_length_c 20.699047
_cell_angle_alpha 90.000000
_cell_angle_beta 90.000000
_cell_angle_gamma 120.000000
_cell_volume 9020.934165
_symmetry_space_group_name_H-M "P 6/M M M"
_symmetry_group_IT_number 191
_symmetry_cell_setting 'hexagonal'
loop_
_space_group_symop_operation_xyz
x,y,z
x-y,x,z
-y,x-y,z
-x,-y,z
-x+y,-x,z
y,-x+y,z
x-y,-y,-z
-x,-x+y,-z
y,x,-z
-y,-x,-z
-x+y,y,-z
x,x-y,-z
-x,-y,-z
-x+y,-x,-z
y,-x+y,-z
x,y,-z
x-y,x,-z
-y,x-y,-z
-x+y,y,z
x,x-y,z
-y,-x,z
y,x,z
x-y,-y,z
-x,-x+y,z
loop_
_atom_site_type_symbol
_atom_site_label
_atom_site_fract_x
_atom_site_fract_y
_atom_site_fract_z
Si Si1 0.289269 0.077316 0.244399
Si Si2 0.526990 0.334483 0.323173
Si Si3 0.469366 0.081480 0.072715
Si Si4 0.291838 0.442698 0.806181
Si Si5 0.920172 0.351688 0.573830
Si Si6 0.922728 0.709328 0.400697
O O1 0.270640 0.135320 0.224983
O O2 0.364572 0.100461 0.216926
O O3 0.294201 0.078946 0.322438
O O4 0.235501 0.000000 0.224469
O O5 0.518972 0.259486 0.334453
O O6 0.606055 0.393946 0.323129
O O7 0.492496 0.331385 0.253894
O O8 0.486100 0.351379 0.377239
O O9 0.544928 0.089856 0.076663
O O10 0.459181 0.122457 0.130006
O O11 0.416178 0.000000 0.079721
O O12 0.461125 0.102247 0.000000
O O13 0.224628 0.449256 0.818324
O O14 0.909453 0.366335 0.500000
O O15 0.912340 0.275885 0.576080
O O16 0.000000 0.404455 0.591836
O O17 0.860289 0.720578 0.421469
O O18 0.000000 0.767169 0.419758
#
# Coordination Sequence:
#
# PCOD9587647 Si02
#       6
#    24  24  24  24  24  24
#     4   9  16  27  45  69  96 124 157 197 239 285
#     4  11  23  38  54  73  98 130 165 200 240 291
#     4   9  18  32  49  70  97 128 160 194 235 286
#     4  10  19  31  50  74  97 124 161 204 244 282
#     4  10  21  36  54  75  97 122 156 203 254 296
#     4   9  16  28  46  68  94 123 156 194 237 284
#
# _framework density 15.962871
#
# number of rings (size 3 to 8) (size 9 to 14) (size 15 to 20)
#    0.000    2.333    1.667    2.167    0.000    3.000 
#    0.000    0.833    0.000    1.667    0.000    2.333 
#    0.000    0.000    0.000    4.167    0.000    4.333 
#
# Total GULP energy -803189.845571 kJ/mol
# GULP energy per Si atom -5577.707261 kJ/mol
# Density = 1.592654 g / cm^3
# Si number density = 15.962871 Si / 1000 Ang^3
#
#
#
# Elastic Constant Matrix: (Units=GPa)
#
#
# Indices 1 2 3 4 5 6 
#
# 1 71.6872 33.7266 52.0688 0.0000 0.0000 0.0000
# 2 33.7266 71.6872 52.0688 0.0000 0.0000 0.0000
# 3 52.0688 52.0688 106.6755 0.0000 0.0000 0.0000
# 4 0.0000 0.0000 0.0000 1.7935 0.0000 0.0000
# 5 0.0000 0.0000 0.0000 0.0000 1.7935 0.0000
# 6 0.0000 0.0000 0.0000 0.0000 0.0000 18.9803
#
#
#
# Elastic Compliance Matrix: (Units=1/GPa)
#
#
# Indices 1 2 3 4 5 6 
#
# 1 0.022332 -0.004011 -0.008942 0.000000 0.000000 0.000000
# 2 -0.004011 0.022332 -0.008942 0.000000 0.000000 0.000000
# 3 -0.008942 -0.008942 0.018104 0.000000 0.000000 0.000000
# 4 0.000000 0.000000 0.000000 0.557562 0.000000 0.000000
# 5 0.000000 0.000000 0.000000 0.000000 0.557562 0.000000
# 6 0.000000 0.000000 0.000000 0.000000 0.000000 0.052686
#
#
# Mechanical properties :
#
#
# Convention : Reuss Voigt Hill
#
# Bulk Modulus (GPa) = 52.69949 58.41979 55.55964
# Shear Modulus (GPa) = 3.90413 11.99252 7.94832
#
# Velocity S-wave (km/s) = 1.56559 2.74391 2.23385
# Velocity P-wave (km/s) = 6.02939 6.83487 6.44473
#
# Compressibility (1/GPa) = 0.01897551
#
# Stress axis : x y z
#
# Youngs Moduli (GPa) = 44.77921 44.77921 55.23711
#
# Poissons Ratio (x) = 0.17962 0.49395
# Poissons Ratio (y) = 0.17962 0.49395
# Poissons Ratio (z) = 0.40043 0.40043
#
# Static dielectric constant tensor:
#      x y z
#    x 1.527220 0.000000 0.000000 
#    y 0.000000 1.527220 0.000000 
#    z 0.000000 0.000000 1.530080 
# 
# From -- ./inp_files/7597.got.cif
#   From: 2010.05.17/outbox.cif.g08.bks.cpg/sg191_4_cif.got.tgz:7597.got - 2010.05.20 12:20:32.
