data_PCOD9587455
_publ_section_title
;
Structure prediction by ZEFSAII (Michael W. Deem and Ramdas Pophale) SiO2 
 PCOD9587455
Probable space group: P 6/M M M
;
_chemical_formula_sum "Si O2"
_cell_formula_units_Z 120
_cell_length_a 27.419647
_cell_length_b 27.419647
_cell_length_c 13.059629
_cell_angle_alpha 90.000000
_cell_angle_beta 90.000000
_cell_angle_gamma 120.000000
_cell_volume 8503.254745
_symmetry_space_group_name_H-M "P 6/M M M"
_symmetry_group_IT_number 191
_symmetry_cell_setting 'hexagonal'
loop_
_space_group_symop_operation_xyz
x,y,z
x-y,x,z
-y,x-y,z
-x,-y,z
-x+y,-x,z
y,-x+y,z
x-y,-y,-z
-x,-x+y,-z
y,x,-z
-y,-x,-z
-x+y,y,-z
x,x-y,-z
-x,-y,-z
-x+y,-x,-z
y,-x+y,-z
x,y,-z
x-y,x,-z
-y,x-y,-z
-x+y,y,z
x,x-y,z
-y,-x,z
y,x,z
x-y,-y,z
-x,-x+y,z
loop_
_atom_site_type_symbol
_atom_site_label
_atom_site_fract_x
_atom_site_fract_y
_atom_site_fract_z
Si Si1 0.133693 0.755606 0.694759
Si Si2 0.863996 0.378342 0.500000
Si Si3 0.932791 0.311850 0.500000
Si Si4 0.867219 0.488123 0.881678
Si Si5 0.933381 0.620223 0.119054
Si Si6 0.797894 0.312213 0.304294
O O1 0.178268 0.821733 0.685045
O O2 0.091690 0.727878 0.599664
O O3 0.099845 0.737048 0.801097
O O4 0.170951 0.724758 0.694212
O O5 0.891044 0.445522 0.500000
O O6 0.906967 0.354075 0.500000
O O7 0.824465 0.353250 0.400422
O O8 0.000000 0.347178 0.500000
O O9 0.890971 0.445486 0.867545
O O10 0.911817 0.553810 0.863898
O O11 0.817002 0.470761 0.801501
O O12 0.848598 0.483036 0.000000
O O13 0.000000 0.656082 0.136055
O O14 0.921609 0.626197 0.000000
O O15 0.731814 0.268187 0.312502
#
# Coordination Sequence:
#
# PCOD9587455 Si02
#       6
#    24  12  12  24  24  24
#     4   9  17  29  44  61  80 104 136 167 195 233
#     4  10  19  30  45  63  81 102 128 157 197 257
#     4  10  19  30  45  65  88 110 132 163 206 250
#     4   9  17  28  42  60  80 103 131 161 200 257
#     4   9  17  28  42  62  87 111 135 167 208 249
#     4   9  17  29  44  58  72  94 125 162 199 234
#
# _framework density 14.112242999999999
#
# number of rings (size 3 to 8) (size 9 to 14) (size 15 to 20)
#    0.000    2.800    0.000    1.800    0.000    3.800 
#    0.000    6.000    0.000   12.800    0.000    0.000 
#    0.000    0.000    0.000    0.000    0.000    0.000 
#
# Total GULP energy -668077.726107 kJ/mol
# GULP energy per Si atom -5567.314384 kJ/mol
# Density = 1.408012 g / cm^3
# Si number density = 14.112243 Si / 1000 Ang^3
#
#
#
# Elastic Constant Matrix: (Units=GPa)
#
#
# Indices 1 2 3 4 5 6 
#
# 1 62.9761 41.2764 45.3475 0.0000 0.0000 0.0000
# 2 41.2764 62.9761 45.3475 0.0000 0.0000 0.0000
# 3 45.3475 45.3475 88.9184 0.0000 0.0000 0.0000
# 4 0.0000 0.0000 0.0000 13.6999 0.0000 0.0000
# 5 0.0000 0.0000 0.0000 0.0000 13.6999 0.0000
# 6 0.0000 0.0000 0.0000 0.0000 0.0000 10.8498
#
#
#
# Elastic Compliance Matrix: (Units=1/GPa)
#
#
# Indices 1 2 3 4 5 6 
#
# 1 0.031663 -0.014421 -0.008793 0.000000 0.000000 0.000000
# 2 -0.014421 0.031663 -0.008793 0.000000 0.000000 0.000000
# 3 -0.008793 -0.008793 0.020215 0.000000 0.000000 0.000000
# 4 0.000000 0.000000 0.000000 0.072993 0.000000 0.000000
# 5 0.000000 0.000000 0.000000 0.000000 0.072993 0.000000
# 6 0.000000 0.000000 0.000000 0.000000 0.000000 0.092167
#
#
# Mechanical properties :
#
#
# Convention : Reuss Voigt Hill
#
# Bulk Modulus (GPa) = 51.21359 53.20147 52.20753
# Shear Modulus (GPa) = 12.74804 13.17655 12.96229
#
# Velocity S-wave (km/s) = 3.00881 3.05896 3.03399
# Velocity P-wave (km/s) = 6.95985 7.08921 7.02483
#
# Compressibility (1/GPa) = 0.01952607
#
# Stress axis : x y z
#
# Youngs Moduli (GPa) = 31.58293 31.58293 49.46817
#
# Poissons Ratio (x) = 0.45546 0.43498
# Poissons Ratio (y) = 0.45546 0.43498
# Poissons Ratio (z) = 0.27771 0.27771
#
# Static dielectric constant tensor:
#      x y z
#    x 1.448360 0.000000 0.000000 
#    y 0.000000 1.448360 0.000000 
#    z 0.000000 0.000000 1.487550 
# 
# From -- ./inp_files/3220.got.cif
#   From: 2010.05.17/outbox.cif.g08.bks.cpg/sg191_2_cif.got.tgz:3220.got - 2010.05.20 12:20:32.
