data_PCOD9587519
_publ_section_title
;
Structure prediction by ZEFSAII (Michael W. Deem and Ramdas Pophale) SiO2 
 PCOD9587519
Probable space group: P 6/M M M
;
_chemical_formula_sum "Si O2"
_cell_formula_units_Z 120
_cell_length_a 18.070847
_cell_length_b 18.070847
_cell_length_c 25.865495
_cell_angle_alpha 90.000000
_cell_angle_beta 90.000000
_cell_angle_gamma 120.000000
_cell_volume 7314.900846
_symmetry_space_group_name_H-M "P 6/M M M"
_symmetry_group_IT_number 191
_symmetry_cell_setting 'hexagonal'
loop_
_space_group_symop_operation_xyz
x,y,z
x-y,x,z
-y,x-y,z
-x,-y,z
-x+y,-x,z
y,-x+y,z
x-y,-y,-z
-x,-x+y,-z
y,x,-z
-y,-x,-z
-x+y,y,-z
x,x-y,-z
-x,-y,-z
-x+y,-x,-z
y,-x+y,-z
x,y,-z
x-y,x,-z
-y,x-y,-z
-x+y,y,z
x,x-y,z
-y,-x,z
y,x,z
x-y,-y,z
-x,-x+y,z
loop_
_atom_site_type_symbol
_atom_site_label
_atom_site_fract_x
_atom_site_fract_y
_atom_site_fract_z
Si Si1 0.533064 0.635308 0.703549
Si Si2 0.359384 0.094131 0.500000
Si Si3 0.836443 0.331914 0.588757
Si Si4 0.332536 0.491272 0.900595
Si Si5 0.629737 0.901463 0.000000
Si Si6 0.099757 0.732113 0.196474
O O1 0.435465 0.564535 0.717275
O O2 0.583415 0.583415 0.696386
O O3 0.531768 0.674728 0.648484
O O4 0.580088 0.700073 0.749929
O O5 0.335095 0.167548 0.500000
O O6 0.418446 0.109136 0.549964
O O7 0.280819 0.000000 0.500000
O O8 0.853293 0.426647 0.580105
O O9 0.738006 0.261995 0.578512
O O10 0.258530 0.517059 0.900644
O O11 0.425540 0.574461 0.902246
O O12 0.313532 0.430138 0.949933
O O13 0.317436 0.434513 0.849607
O O14 0.657599 0.828800 0.000000
O O15 0.704312 0.000000 0.000000
O O16 0.167802 0.832199 0.189682
O O17 0.000000 0.703868 0.196210
#
# Coordination Sequence:
#
# PCOD9587519 Si02
#       6
#    24  12  24  24  12  24
#     4   9  17  29  46  68  93 122 157 195 232 272
#     4  10  21  35  51  70  91 117 150 190 235 281
#     4  10  19  30  45  67  97 131 164 194 223 258
#     4  10  20  33  50  73 101 131 160 190 226 271
#     4  10  21  35  51  72  97 127 162 200 241 281
#     4  10  20  33  49  69  93 122 157 197 240 283
#
# _framework density 16.404869999999999
#
# number of rings (size 3 to 8) (size 9 to 14) (size 15 to 20)
#    0.000    2.200    0.000    3.400    0.000    4.400 
#    0.000    2.000    0.000    6.800    0.000    0.000 
#    0.000    4.800    0.000    6.400    0.000    0.400 
#
# Total GULP energy -669523.304038 kJ/mol
# GULP energy per Si atom -5579.360867 kJ/mol
# Density = 1.636753 g / cm^3
# Si number density = 16.404870 Si / 1000 Ang^3
#
#
#
# Elastic Constant Matrix: (Units=GPa)
#
#
# Indices 1 2 3 4 5 6 
#
# 1 93.2204 70.6330 41.4148 0.0000 0.0000 0.0000
# 2 70.6330 93.2204 41.4148 0.0000 0.0000 0.0000
# 3 41.4148 41.4148 76.9674 0.0000 0.0000 0.0000
# 4 0.0000 0.0000 0.0000 16.3953 0.0000 0.0000
# 5 0.0000 0.0000 0.0000 0.0000 16.3953 0.0000
# 6 0.0000 0.0000 0.0000 0.0000 0.0000 11.2937
#
#
#
# Elastic Compliance Matrix: (Units=1/GPa)
#
#
# Indices 1 2 3 4 5 6 
#
# 1 0.026328 -0.017945 -0.004511 0.000000 0.000000 0.000000
# 2 -0.017945 0.026328 -0.004511 0.000000 0.000000 0.000000
# 3 -0.004511 -0.004511 0.017847 0.000000 0.000000 0.000000
# 4 0.000000 0.000000 0.000000 0.060993 0.000000 0.000000
# 5 0.000000 0.000000 0.000000 0.000000 0.060993 0.000000
# 6 0.000000 0.000000 0.000000 0.000000 0.000000 0.088545
#
#
# Mechanical properties :
#
#
# Convention : Reuss Voigt Hill
#
# Bulk Modulus (GPa) = 60.35011 63.37039 61.86025
# Shear Modulus (GPa) = 14.68475 16.14660 15.41567
#
# Velocity S-wave (km/s) = 2.99514 3.14069 3.06878
# Velocity P-wave (km/s) = 6.98777 7.20172 7.09555
#
# Compressibility (1/GPa) = 0.01656998
#
# Stress axis : x y z
#
# Youngs Moduli (GPa) = 37.98259 37.98259 56.03181
#
# Poissons Ratio (x) = 0.68158 0.25276
# Poissons Ratio (y) = 0.68158 0.25276
# Poissons Ratio (z) = 0.17134 0.17134
#
# Static dielectric constant tensor:
#      x y z
#    x 1.537010 0.000000 0.000000 
#    y 0.000000 1.537010 0.000000 
#    z 0.000000 0.000000 1.555890 
# 
# From -- ./inp_files/8533.got.cif
#   From: 2010.05.17/outbox.cif.g08.bks.cpg/sg191_5_cif.got.tgz:8533.got - 2010.05.20 12:20:32.
