data_PCOD9587644
_publ_section_title
;
Structure prediction by ZEFSAII (Michael W. Deem and Ramdas Pophale) SiO2 
 PCOD9587644
Probable space group: P 6/M M M
;
_chemical_formula_sum "Si O2"
_cell_formula_units_Z 168
_cell_length_a 30.897848
_cell_length_b 30.897848
_cell_length_c 13.952290
_cell_angle_alpha 90.000000
_cell_angle_beta 90.000000
_cell_angle_gamma 120.000000
_cell_volume 11535.398202
_symmetry_space_group_name_H-M "P 6/M M M"
_symmetry_group_IT_number 191
_symmetry_cell_setting 'hexagonal'
loop_
_space_group_symop_operation_xyz
x,y,z
x-y,x,z
-y,x-y,z
-x,-y,z
-x+y,-x,z
y,-x+y,z
x-y,-y,-z
-x,-x+y,-z
y,x,-z
-y,-x,-z
-x+y,y,-z
x,x-y,-z
-x,-y,-z
-x+y,-x,-z
y,-x+y,-z
x,y,-z
x-y,x,-z
-y,x-y,-z
-x+y,y,z
x,x-y,z
-y,-x,z
y,x,z
x-y,-y,z
-x,-x+y,z
loop_
_atom_site_type_symbol
_atom_site_label
_atom_site_fract_x
_atom_site_fract_y
_atom_site_fract_z
Si Si1 0.944533 0.300110 0.610697
Si Si2 0.485030 0.690348 0.393294
Si Si3 0.578924 0.059599 0.184158
Si Si4 0.845775 0.589537 0.292228
Si Si5 0.596327 0.538556 0.603978
Si Si6 0.680885 0.145127 0.108616
Si Si7 0.565129 0.334768 0.804039
O O1 0.938335 0.283745 0.500000
O O2 0.897966 0.262684 0.673858
O O3 0.943691 0.352282 0.610834
O O4 0.000000 0.314787 0.643542
O O5 0.473772 0.668469 0.500000
O O6 0.481530 0.740765 0.396436
O O7 0.542163 0.709644 0.362201
O O8 0.449969 0.659716 0.305185
O O9 0.532838 0.065676 0.148970
O O10 0.590026 0.078179 0.295207
O O11 0.629421 0.093472 0.127285
O O12 0.559421 0.000000 0.182691
O O13 0.799327 0.598654 0.297780
O O14 0.849941 0.570944 0.187125
O O15 0.595406 0.515648 0.500000
O O16 0.552665 0.552665 0.602240
O O17 0.670210 0.190262 0.131038
O O18 0.697635 0.148028 0.000000
O O19 0.566883 0.283442 0.809149
O O20 0.617737 0.382264 0.829391
#
# Coordination Sequence:
#
# PCOD9587644 Si02
#       7
#    24  24  24  24  24  24  24
#     4   9  16  27  46  71  98 124 144 164 198 246
#     4   8  15  28  45  66  89 107 124 151 189 235
#     4  10  20  33  49  69  91 114 142 172 205 258
#     4  10  19  31  50  71  89 113 148 183 211 246
#     4   8  14  26  44  65  89 114 136 159 191 237
#     4  11  23  38  52  63  82 108 136 175 221 260
#     4  10  21  36  52  67  81  99 126 161 202 248
#
# _framework density 14.563867
#
# number of rings (size 3 to 8) (size 9 to 14) (size 15 to 20)
#    0.000    2.571    1.429    3.143    0.000    4.000 
#    0.000    2.143    0.000    3.429    0.000    0.000 
#    0.000    0.000    0.000    0.000    0.000    0.000 
#
# Total GULP energy -936829.727566 kJ/mol
# GULP energy per Si atom -5576.367426 kJ/mol
# Density = 1.453072 g / cm^3
# Si number density = 14.563867 Si / 1000 Ang^3
#
#
#
# Elastic Constant Matrix: (Units=GPa)
#
#
# Indices 1 2 3 4 5 6 
#
# 1 59.6427 37.9919 14.2600 0.0000 0.0000 0.0000
# 2 37.9919 59.6427 14.2600 0.0000 0.0000 0.0000
# 3 14.2600 14.2600 52.2130 0.0000 0.0000 0.0000
# 4 0.0000 0.0000 0.0000 1.8570 0.0000 0.0000
# 5 0.0000 0.0000 0.0000 0.0000 1.8570 0.0000
# 6 0.0000 0.0000 0.0000 0.0000 0.0000 10.8254
#
#
#
# Elastic Compliance Matrix: (Units=1/GPa)
#
#
# Indices 1 2 3 4 5 6 
#
# 1 0.028659 -0.017529 -0.003040 0.000000 0.000000 0.000000
# 2 -0.017529 0.028659 -0.003040 0.000000 0.000000 0.000000
# 3 -0.003040 -0.003040 0.020813 0.000000 0.000000 0.000000
# 4 0.000000 0.000000 0.000000 0.538510 0.000000 0.000000
# 5 0.000000 0.000000 0.000000 0.000000 0.538510 0.000000
# 6 0.000000 0.000000 0.000000 0.000000 0.000000 0.092375
#
#
# Mechanical properties :
#
#
# Convention : Reuss Voigt Hill
#
# Bulk Modulus (GPa) = 32.34785 33.83583 33.09184
# Shear Modulus (GPa) = 3.83128 9.90698 6.86913
#
# Velocity S-wave (km/s) = 1.62370 2.61098 2.17412
# Velocity P-wave (km/s) = 5.07685 5.68971 5.39199
#
# Compressibility (1/GPa) = 0.03091396
#
# Stress axis : x y z
#
# Youngs Moduli (GPa) = 34.89320 34.89320 48.04752
#
# Poissons Ratio (x) = 0.61163 0.14606
# Poissons Ratio (y) = 0.61163 0.14606
# Poissons Ratio (z) = 0.10607 0.10607
#
# Static dielectric constant tensor:
#      x y z
#    x 1.486210 0.000000 0.000000 
#    y 0.000000 1.486210 0.000000 
#    z 0.000000 0.000000 1.521390 
# 
# From -- ./inp_files/5395.got.cif
#   From: 2010.05.17/outbox.cif.g08.bks.cpg/sg191_3_cif.got.tgz:5395.got - 2010.05.20 12:20:32.
