data_PCOD9587769
_publ_section_title
;
Structure prediction by ZEFSAII (Michael W. Deem and Ramdas Pophale) SiO2 
 PCOD9587769
Probable space group: P 6/M M M
;
_chemical_formula_sum "Si O2"
_cell_formula_units_Z 90
_cell_length_a 26.711185
_cell_length_b 26.711185
_cell_length_c 7.213824
_cell_angle_alpha 90.000000
_cell_angle_beta 90.000000
_cell_angle_gamma 120.000000
_cell_volume 4457.408989
_symmetry_space_group_name_H-M "P 6/M M M"
_symmetry_group_IT_number 191
_symmetry_cell_setting 'hexagonal'
loop_
_space_group_symop_operation_xyz
x,y,z
x-y,x,z
-y,x-y,z
-x,-y,z
-x+y,-x,z
y,-x+y,z
x-y,-y,-z
-x,-x+y,-z
y,x,-z
-y,-x,-z
-x+y,y,-z
x,x-y,-z
-x,-y,-z
-x+y,-x,-z
y,-x+y,-z
x,y,-z
x-y,x,-z
-y,x-y,-z
-x+y,y,z
x,x-y,z
-y,-x,z
y,x,z
x-y,-y,z
-x,-x+y,z
loop_
_atom_site_type_symbol
_atom_site_label
_atom_site_fract_x
_atom_site_fract_y
_atom_site_fract_z
Si Si1 0.933524 0.555337 0.275021
Si Si2 0.576302 0.423699 0.723640
Si Si3 0.332256 0.066385 0.275107
Si Si4 0.742821 0.371411 0.000000
Si Si5 0.067095 0.134189 0.274330
Si Si6 0.134157 0.268314 0.726314
O O1 0.935054 0.555384 0.500000
O O2 0.886453 0.491002 0.221441
O O3 0.917104 0.603415 0.216927
O O4 0.000000 0.578019 0.216535
O O5 0.579756 0.420245 0.500000
O O6 0.606986 0.393015 0.825530
O O7 0.333461 0.068432 0.500000
O O8 0.303649 0.103210 0.213352
O O9 0.291450 0.000000 0.221935
O O10 0.697775 0.395549 0.000000
O O11 0.100655 0.100655 0.216911
O O12 0.067075 0.134150 0.500000
O O13 0.100633 0.201266 0.216388
O O14 0.133618 0.267236 0.500000
#
# Coordination Sequence:
#
# PCOD9587769 Si02
#       6
#    24  12  24   6  12  12
#     4   8  14  26  47  78 111 135 161 210 270 327
#     4  10  19  36  64  88 107 144 188 220 274 342
#     4   8  13  21  32  51  85 121 151 196 257 310
#     4  10  26  48  59  76 114 150 186 246 286 308
#     4   9  15  20  25  33  49  83 138 202 258 302
#     4   9  14  19  27  42  67 105 153 194 240 309
#
# _framework density 20.191102999999998
#
# number of rings (size 3 to 8) (size 9 to 14) (size 15 to 20)
#    0.133    3.200    0.000    2.933    0.000    5.867 
#    2.400    1.333    0.000    0.000    0.000    0.000 
#    0.000    0.000    0.000    0.000    0.000    0.000 
#
# Total GULP energy -502163.652716 kJ/mol
# GULP energy per Si atom -5579.596141 kJ/mol
# Density = 2.014515 g / cm^3
# Si number density = 20.191103 Si / 1000 Ang^3
#
#
#
# Elastic Constant Matrix: (Units=GPa)
#
#
# Indices 1 2 3 4 5 6 
#
# 1 187.2994 157.2629 26.0688 0.0000 0.0000 0.0000
# 2 157.2629 187.2994 26.0688 0.0000 0.0000 0.0000
# 3 26.0688 26.0688 106.4764 0.0000 0.0000 0.0000
# 4 0.0000 0.0000 0.0000 296.5144 0.0000 0.0000
# 5 0.0000 0.0000 0.0000 0.0000 296.5144 0.0000
# 6 0.0000 0.0000 0.0000 0.0000 0.0000 15.0182
#
#
#
# Elastic Compliance Matrix: (Units=1/GPa)
#
#
# Indices 1 2 3 4 5 6 
#
# 1 0.018153 -0.015139 -0.000738 0.000000 0.000000 0.000000
# 2 -0.015139 0.018153 -0.000738 0.000000 0.000000 0.000000
# 3 -0.000738 -0.000738 0.009753 0.000000 0.000000 0.000000
# 4 0.000000 0.000000 0.000000 0.003373 0.000000 0.000000
# 5 0.000000 0.000000 0.000000 0.000000 0.003373 0.000000
# 6 0.000000 0.000000 0.000000 0.000000 0.000000 0.066586
#
#
# Mechanical properties :
#
#
# Convention : Reuss Voigt Hill
#
# Bulk Modulus (GPa) = 77.94674 99.98621 88.96648
# Shear Modulus (GPa) = 31.86795 139.72106 85.79451
#
# Velocity S-wave (km/s) = 3.97711 8.32764 6.52560
# Velocity P-wave (km/s) = 7.73164 11.92030 10.04668
#
# Compressibility (1/GPa) = 0.01282927
#
# Stress axis : x y z
#
# Youngs Moduli (GPa) = 55.08622 55.08622 102.53178
#
# Poissons Ratio (x) = 0.83398 0.07566
# Poissons Ratio (y) = 0.83398 0.07566
# Poissons Ratio (z) = 0.04065 0.04065
#
# Static dielectric constant tensor:
#      x y z
#    x 1.674940 0.000000 0.000000 
#    y 0.000000 1.674940 0.000000 
#    z 0.000000 0.000000 1.812180 
# 
# From -- ./inp_files/1333.got.cif
#   From: 2010.05.17/outbox.cif.g08.bks.cpg/sg191_1_cif.got.tgz:1333.got - 2010.05.20 12:20:32.
