data_PCOD9587700
_publ_section_title
;
Structure prediction by ZEFSAII (Michael W. Deem and Ramdas Pophale) SiO2 
 PCOD9587700
Probable space group: P 6/M M M
;
_chemical_formula_sum "Si O2"
_cell_formula_units_Z 132
_cell_length_a 17.732593
_cell_length_b 17.732593
_cell_length_c 27.366532
_cell_angle_alpha 90.000000
_cell_angle_beta 90.000000
_cell_angle_gamma 120.000000
_cell_volume 7452.378246
_symmetry_space_group_name_H-M "P 6/M M M"
_symmetry_group_IT_number 191
_symmetry_cell_setting 'hexagonal'
loop_
_space_group_symop_operation_xyz
x,y,z
x-y,x,z
-y,x-y,z
-x,-y,z
-x+y,-x,z
y,-x+y,z
x-y,-y,-z
-x,-x+y,-z
y,x,-z
-y,-x,-z
-x+y,y,-z
x,x-y,-z
-x,-y,-z
-x+y,-x,-z
y,-x+y,-z
x,y,-z
x-y,x,-z
-y,x-y,-z
-x+y,y,z
x,x-y,z
-y,-x,z
y,x,z
x-y,-y,z
-x,-x+y,z
loop_
_atom_site_type_symbol
_atom_site_label
_atom_site_fract_x
_atom_site_fract_y
_atom_site_fract_z
Si Si1 0.817421 0.000000 0.441725
Si Si2 0.894880 0.362439 0.000000
Si Si3 0.540813 0.639686 0.500000
Si Si4 0.412132 0.412132 0.731228
Si Si5 0.491179 0.157606 0.807265
Si Si6 0.329955 0.492612 0.394474
Si Si7 0.372313 0.101799 0.096908
Si Si8 0.317217 0.317217 0.640963
O O1 0.823325 0.911663 0.436456
O O2 0.754779 0.000000 0.397076
O O3 0.791373 0.000000 0.500000
O O4 0.873264 0.306374 0.049006
O O5 0.859208 0.429604 0.000000
O O6 0.000000 0.420498 0.000000
O O7 0.620373 0.620373 0.500000
O O8 0.454827 0.545174 0.500000
O O9 0.532917 0.683278 0.548491
O O10 0.500000 0.500000 0.708763
O O11 0.366650 0.452327 0.764839
O O12 0.334131 0.334131 0.699425
O O13 0.588058 0.176116 0.817684
O O14 0.492002 0.246001 0.793695
O O15 0.432054 0.118881 0.855496
O O16 0.256703 0.513405 0.377318
O O17 0.424878 0.575123 0.387696
O O18 0.320521 0.406923 0.371272
O O19 0.334890 0.167445 0.099670
O O20 0.301545 0.000000 0.094037
#
# Coordination Sequence:
#
# PCOD9587700 Si02
#       8
#    12  12  12  12  24  24  24  12
#     4  10  23  44  70  97 122 148 178 218 272 335
#     4   9  17  28  47  76 112 150 188 233 291 358
#     4   9  17  32  52  73  98 134 172 207 248 297
#     4  10  22  40  59  77 110 154 190 232 284 335
#     4  10  20  35  57  82 109 144 190 240 286 334
#     4  11  22  36  54  77 108 143 179 216 258 311
#     4  10  19  32  52  80 112 151 195 242 295 355
#     4  12  24  39  59  88 114 146 182 226 272 323
#
# _framework density 17.712465999999999
#
# number of rings (size 3 to 8) (size 9 to 14) (size 15 to 20)
#    0.000    1.818    1.818    2.909    1.273    2.545 
#    0.000    0.909    0.000    4.909    0.000    0.000 
#    0.000    2.182    0.000    0.000    0.000    0.000 
#
# Total GULP energy -735080.192867 kJ/mol
# GULP energy per Si atom -5568.789340 kJ/mol
# Density = 1.767215 g / cm^3
# Si number density = 17.712466 Si / 1000 Ang^3
#
#
#
# Elastic Constant Matrix: (Units=GPa)
#
#
# Indices 1 2 3 4 5 6 
#
# 1 120.8997 52.1664 34.2408 0.0000 0.0000 0.0000
# 2 52.1664 120.8997 34.2408 0.0000 0.0000 0.0000
# 3 34.2408 34.2408 68.0731 0.0000 0.0000 0.0000
# 4 0.0000 0.0000 0.0000 17.1113 0.0000 0.0000
# 5 0.0000 0.0000 0.0000 0.0000 17.1113 0.0000
# 6 0.0000 0.0000 0.0000 0.0000 0.0000 34.3667
#
#
#
# Elastic Compliance Matrix: (Units=1/GPa)
#
#
# Indices 1 2 3 4 5 6 
#
# 1 0.010881 -0.003668 -0.003629 0.000000 0.000000 0.000000
# 2 -0.003668 0.010881 -0.003629 0.000000 0.000000 0.000000
# 3 -0.003629 -0.003629 0.018341 0.000000 0.000000 0.000000
# 4 0.000000 0.000000 0.000000 0.058441 0.000000 0.000000
# 5 0.000000 0.000000 0.000000 0.000000 0.058441 0.000000
# 6 0.000000 0.000000 0.000000 0.000000 0.000000 0.029098
#
#
# Mechanical properties :
#
#
# Convention : Reuss Voigt Hill
#
# Bulk Modulus (GPa) = 54.78276 61.24095 58.01185
# Shear Modulus (GPa) = 23.36257 26.33282 24.84769
#
# Velocity S-wave (km/s) = 3.63573 3.85994 3.74951
# Velocity P-wave (km/s) = 6.97286 7.38347 7.18110
#
# Compressibility (1/GPa) = 0.01825392
#
# Stress axis : x y z
#
# Youngs Moduli (GPa) = 91.89930 91.89930 54.52413
#
# Poissons Ratio (x) = 0.33704 0.19785
# Poissons Ratio (y) = 0.33704 0.19785
# Poissons Ratio (z) = 0.33347 0.33347
#
# Static dielectric constant tensor:
#      x y z
#    x 1.608300 0.000000 0.000000 
#    y 0.000000 1.608300 0.000000 
#    z 0.000000 0.000000 1.619260 
# 
# From -- ./inp_files/8766.got.cif
#   From: 2010.05.17/outbox.cif.g08.bks.cpg/sg191_5_cif.got.tgz:8766.got - 2010.05.20 12:20:32.
