data_PCOD9587995
_publ_section_title
;
Structure prediction by ZEFSAII (Michael W. Deem and Ramdas Pophale) SiO2 
 PCOD9587995
Probable space group: P 6/M M M
;
_chemical_formula_sum "Si O2"
_cell_formula_units_Z 132
_cell_length_a 18.180163
_cell_length_b 18.180163
_cell_length_c 29.451171
_cell_angle_alpha 90.000000
_cell_angle_beta 90.000000
_cell_angle_gamma 120.000000
_cell_volume 8430.022707
_symmetry_space_group_name_H-M "P 6/M M M"
_symmetry_group_IT_number 191
_symmetry_cell_setting 'hexagonal'
loop_
_space_group_symop_operation_xyz
x,y,z
x-y,x,z
-y,x-y,z
-x,-y,z
-x+y,-x,z
y,-x+y,z
x-y,-y,-z
-x,-x+y,-z
y,x,-z
-y,-x,-z
-x+y,y,-z
x,x-y,-z
-x,-y,-z
-x+y,-x,-z
y,-x+y,-z
x,y,-z
x-y,x,-z
-y,x-y,-z
-x+y,y,z
x,x-y,z
-y,-x,z
y,x,z
x-y,-y,z
-x,-x+y,z
loop_
_atom_site_type_symbol
_atom_site_label
_atom_site_fract_x
_atom_site_fract_y
_atom_site_fract_z
Si Si1 0.502711 0.833988 0.644220
Si Si2 0.334159 0.000000 0.904526
Si Si3 0.332113 0.492184 0.255431
Si Si4 0.000000 0.824863 0.053505
Si Si5 0.637752 0.535832 0.549154
Si Si6 0.413582 0.000000 0.810092
Si Si7 0.666505 0.503389 0.945154
O O1 0.427884 0.855768 0.642465
O O2 0.466511 0.733256 0.645931
O O3 0.545268 0.866594 0.693290
O O4 0.551990 0.865944 0.596745
O O5 0.328628 0.916552 0.926691
O O6 0.247839 0.000000 0.915810
O O7 0.358767 0.000000 0.852316
O O8 0.245157 0.490314 0.243176
O O9 0.410462 0.589539 0.257521
O O10 0.360412 0.443891 0.220588
O O11 0.915454 0.830907 0.060894
O O12 0.000000 0.802178 0.000000
O O13 0.682519 0.552416 0.500000
O O14 0.563225 0.436776 0.548654
O O15 0.589433 0.589433 0.550108
O O16 0.500000 0.000000 0.825069
O O17 0.748767 0.497534 0.931160
O O18 0.579953 0.420048 0.930200
O O19 0.665713 0.505511 0.000000
#
# Coordination Sequence:
#
# PCOD9587995 Si02
#       7
#    24  12  24  12  24  12  24
#     4   9  16  25  39  57  77 101 132 173 220 267
#     4  12  22  34  52  76 103 129 162 203 243 281
#     4   9  18  32  49  67  87 114 151 194 238 280
#     4  10  21  38  60  85 110 135 162 191 227 275
#     4   8  14  23  34  50  73 102 134 165 201 250
#     4  10  22  36  49  68  93 124 160 196 237 283
#     4  10  20  34  52  74 101 133 166 198 234 280
#
# _framework density 15.658321000000001
#
# number of rings (size 3 to 8) (size 9 to 14) (size 15 to 20)
#    0.000    2.545    0.000    3.364    1.273    6.545 
#    0.000    0.000    0.000    3.273    0.000    0.000 
#    0.000    0.000    0.000    0.000    0.000    0.000 
#
# Total GULP energy -734976.922323 kJ/mol
# GULP energy per Si atom -5568.006987 kJ/mol
# Density = 1.562268 g / cm^3
# Si number density = 15.658321 Si / 1000 Ang^3
#
#
#
# Elastic Constant Matrix: (Units=GPa)
#
#
# Indices 1 2 3 4 5 6 
#
# 1 78.4973 39.0448 49.5521 0.0000 0.0000 0.0000
# 2 39.0448 78.4973 49.5521 0.0000 0.0000 0.0000
# 3 49.5521 49.5521 89.3087 0.0000 0.0000 0.0000
# 4 0.0000 0.0000 0.0000 45.0749 0.0000 0.0000
# 5 0.0000 0.0000 0.0000 0.0000 45.0749 0.0000
# 6 0.0000 0.0000 0.0000 0.0000 0.0000 19.7263
#
#
#
# Elastic Compliance Matrix: (Units=1/GPa)
#
#
# Indices 1 2 3 4 5 6 
#
# 1 0.020666 -0.004681 -0.008870 0.000000 0.000000 0.000000
# 2 -0.004681 0.020666 -0.008870 0.000000 0.000000 0.000000
# 3 -0.008870 -0.008870 0.021040 0.000000 0.000000 0.000000
# 4 0.000000 0.000000 0.000000 0.022185 0.000000 0.000000
# 5 0.000000 0.000000 0.000000 0.000000 0.022185 0.000000
# 6 0.000000 0.000000 0.000000 0.000000 0.000000 0.050694
#
#
# Mechanical properties :
#
#
# Convention : Reuss Voigt Hill
#
# Bulk Modulus (GPa) = 57.03571 58.06681 57.55126
# Shear Modulus (GPa) = 24.02452 29.18550 26.60501
#
# Velocity S-wave (km/s) = 3.92126 4.32197 4.12648
# Velocity P-wave (km/s) = 7.55023 7.87846 7.71609
#
# Compressibility (1/GPa) = 0.01753287
#
# Stress axis : x y z
#
# Youngs Moduli (GPa) = 48.38767 48.38767 47.52948
#
# Poissons Ratio (x) = 0.22648 0.42157
# Poissons Ratio (y) = 0.22648 0.42157
# Poissons Ratio (z) = 0.42918 0.42918
#
# Static dielectric constant tensor:
#      x y z
#    x 1.510390 0.000000 0.000000 
#    y 0.000000 1.510390 0.000000 
#    z 0.000000 0.000000 1.575930 
# 
# From -- ./inp_files/10606.got.cif
#   From: 2010.05.17/outbox.cif.g08.bks.cpg/sg191_6_cif.got.tgz:10606.got - 2010.05.20 12:20:32.
