data_PCOD9587113
_publ_section_title
;
Structure prediction by ZEFSAII (Michael W. Deem and Ramdas Pophale) SiO2 
 PCOD9587113
Probable space group: P 6/M M M
;
_chemical_formula_sum "Si O2"
_cell_formula_units_Z 144
_cell_length_a 21.428607
_cell_length_b 21.428607
_cell_length_c 25.990459
_cell_angle_alpha 90.000000
_cell_angle_beta 90.000000
_cell_angle_gamma 120.000000
_cell_volume 10335.523077
_symmetry_space_group_name_H-M "P 6/M M M"
_symmetry_group_IT_number 191
_symmetry_cell_setting 'hexagonal'
loop_
_space_group_symop_operation_xyz
x,y,z
x-y,x,z
-y,x-y,z
-x,-y,z
-x+y,-x,z
y,-x+y,z
x-y,-y,-z
-x,-x+y,-z
y,x,-z
-y,-x,-z
-x+y,y,-z
x,x-y,-z
-x,-y,-z
-x+y,-x,-z
y,-x+y,-z
x,y,-z
x-y,x,-z
-y,x-y,-z
-x+y,y,z
x,x-y,z
-y,-x,z
y,x,z
x-y,-y,z
-x,-x+y,z
loop_
_atom_site_type_symbol
_atom_site_label
_atom_site_fract_x
_atom_site_fract_y
_atom_site_fract_z
Si Si1 0.287029 0.287029 0.062259
Si Si2 0.082252 0.465504 0.251195
Si Si3 0.857621 0.566359 0.059041
Si Si4 0.855688 0.855688 0.062794
Si Si5 0.465309 0.082126 0.441290
Si Si6 0.333952 0.519917 0.840825
Si Si7 0.483706 0.667479 0.347476
O O1 0.360656 0.289105 0.075849
O O2 0.215854 0.215854 0.080885
O O3 0.283346 0.283346 0.000000
O O4 0.078347 0.539174 0.251626
O O5 0.123998 0.468935 0.199085
O O6 0.131951 0.473447 0.299712
O O7 0.000000 0.401177 0.254106
O O8 0.789719 0.579438 0.059027
O O9 0.839920 0.505308 0.100945
O O10 0.866873 0.548690 0.000000
O O11 0.927990 0.855979 0.078708
O O12 0.854919 0.854919 0.000000
O O13 0.453354 0.097627 0.500000
O O14 0.540752 0.081504 0.441133
O O15 0.476490 0.141060 0.399391
O O16 0.404883 0.000000 0.427946
O O17 0.258295 0.516589 0.831981
O O18 0.399543 0.600458 0.832752
O O19 0.479144 0.739572 0.343747
O O20 0.403338 0.596663 0.347238
#
# Coordination Sequence:
#
# PCOD9587113 Si02
#       7
#    12  24  24  12  24  24  24
#     4   9  16  27  43  59  79 110 139 165 198 233
#     4   9  18  31  46  62  79 102 133 168 205 248
#     4   9  18  31  45  63  85 108 137 169 202 248
#     4   9  15  22  35  57  84 111 137 165 197 234
#     4   8  14  25  40  56  76 107 145 179 210 246
#     4  10  20  33  49  66  85 106 131 167 213 262
#     4  10  18  27  40  59  84 111 139 173 214 258
#
# _framework density 13.932532
#
# number of rings (size 3 to 8) (size 9 to 14) (size 15 to 20)
#    0.000    2.833    0.000    2.417    1.167    5.000 
#    0.000    1.667    0.000    3.500    0.000    0.000 
#    0.000    0.000    0.000    0.000    0.000    0.000 
#
# Total GULP energy -801745.181806 kJ/mol
# GULP energy per Si atom -5567.674874 kJ/mol
# Density = 1.390082 g / cm^3
# Si number density = 13.932532 Si / 1000 Ang^3
#
#
#
# Elastic Constant Matrix: (Units=GPa)
#
#
# Indices 1 2 3 4 5 6 
#
# 1 59.7166 38.7665 37.8162 0.0000 0.0000 0.0000
# 2 38.7665 59.7166 37.8162 0.0000 0.0000 0.0000
# 3 37.8162 37.8162 81.5622 0.0000 0.0000 0.0000
# 4 0.0000 0.0000 0.0000 16.2697 0.0000 0.0000
# 5 0.0000 0.0000 0.0000 0.0000 16.2697 0.0000
# 6 0.0000 0.0000 0.0000 0.0000 0.0000 10.4751
#
#
#
# Elastic Compliance Matrix: (Units=1/GPa)
#
#
# Indices 1 2 3 4 5 6 
#
# 1 0.031751 -0.015982 -0.007311 0.000000 0.000000 0.000000
# 2 -0.015982 0.031751 -0.007311 0.000000 0.000000 0.000000
# 3 -0.007311 -0.007311 0.019040 0.000000 0.000000 0.000000
# 4 0.000000 0.000000 0.000000 0.061464 0.000000 0.000000
# 5 0.000000 0.000000 0.000000 0.000000 0.061464 0.000000
# 6 0.000000 0.000000 0.000000 0.000000 0.000000 0.095465
#
#
# Mechanical properties :
#
#
# Convention : Reuss Voigt Hill
#
# Bulk Modulus (GPa) = 46.87549 47.75480 47.31514
# Shear Modulus (GPa) = 13.54083 14.37601 13.95842
#
# Velocity S-wave (km/s) = 3.12089 3.21570 3.16865
# Velocity P-wave (km/s) = 6.83405 6.93814 6.88629
#
# Compressibility (1/GPa) = 0.02133311
#
# Stress axis : x y z
#
# Youngs Moduli (GPa) = 31.49543 31.49543 52.52039
#
# Poissons Ratio (x) = 0.50335 0.38399
# Poissons Ratio (y) = 0.50335 0.38399
# Poissons Ratio (z) = 0.23027 0.23027
#
# Static dielectric constant tensor:
#      x y z
#    x 1.446410 0.000000 0.000000 
#    y 0.000000 1.446410 0.000000 
#    z 0.000000 0.000000 1.471370 
# 
# From -- ./inp_files/8944.got.cif
#   From: 2010.05.17/outbox.cif.g08.bks.cpg/sg191_5_cif.got.tgz:8944.got - 2010.05.20 12:20:32.
