data_PCOD9587145
_publ_section_title
;
Structure prediction by ZEFSAII (Michael W. Deem and Ramdas Pophale) SiO2 
 PCOD9587145
Probable space group: P 6/M M M
;
_chemical_formula_sum "Si O2"
_cell_formula_units_Z 192
_cell_length_a 23.367008
_cell_length_b 23.367008
_cell_length_c 24.667458
_cell_angle_alpha 90.000000
_cell_angle_beta 90.000000
_cell_angle_gamma 120.000000
_cell_volume 11664.368828
_symmetry_space_group_name_H-M "P 6/M M M"
_symmetry_group_IT_number 191
_symmetry_cell_setting 'hexagonal'
loop_
_space_group_symop_operation_xyz
x,y,z
x-y,x,z
-y,x-y,z
-x,-y,z
-x+y,-x,z
y,-x+y,z
x-y,-y,-z
-x,-x+y,-z
y,x,-z
-y,-x,-z
-x+y,y,-z
x,x-y,-z
-x,-y,-z
-x+y,-x,-z
y,-x+y,-z
x,y,-z
x-y,x,-z
-y,x-y,-z
-x+y,y,z
x,x-y,z
-y,-x,z
y,x,z
x-y,-y,z
-x,-x+y,z
loop_
_atom_site_type_symbol
_atom_site_label
_atom_site_fract_x
_atom_site_fract_y
_atom_site_fract_z
Si Si1 0.391730 0.265399 0.561278
Si Si2 0.075148 0.793944 0.065127
Si Si3 0.355926 0.837668 0.719719
Si Si4 0.333137 0.533745 0.843530
Si Si5 0.796862 0.463394 0.401429
Si Si6 0.685844 0.608151 0.138403
Si Si7 0.077216 0.711732 0.260910
Si Si8 0.204359 0.924898 0.646496
O O1 0.378502 0.277684 0.500000
O O2 0.393182 0.196591 0.562087
O O3 0.465006 0.319722 0.579828
O O4 0.334178 0.252249 0.602870
O O5 0.133186 0.866815 0.081148
O O6 0.087413 0.738540 0.092631
O O7 0.000000 0.773935 0.080287
O O8 0.077110 0.789350 0.000000
O O9 0.435690 0.871379 0.720230
O O10 0.333525 0.800924 0.777436
O O11 0.333419 0.796640 0.664342
O O12 0.324573 0.884389 0.718704
O O13 0.264996 0.529992 0.861016
O O14 0.398081 0.601920 0.860184
O O15 0.336696 0.469273 0.862924
O O16 0.727352 0.454703 0.420711
O O17 0.806094 0.403047 0.419720
O O18 0.627969 0.627969 0.136905
O O19 0.721884 0.633100 0.196729
O O20 0.093372 0.774907 0.296421
O O21 0.000000 0.662749 0.269007
O O22 0.129456 0.870545 0.633674
O O23 0.221202 0.000000 0.647998
#
# Coordination Sequence:
#
# PCOD9587145 Si02
#       8
#    24  24  24  24  24  24  24  24
#     4   9  18  32  49  67  88 116 151 191 230 268
#     4   9  17  30  49  73 101 132 165 200 237 278
#     4   9  17  27  41  63  90 125 161 196 237 280
#     4  10  19  29  43  64  93 127 162 200 244 295
#     4  10  18  28  42  62  89 122 161 201 239 275
#     4   9  18  31  48  72  98 125 160 201 245 287
#     4   9  17  29  46  70  97 124 153 189 234 280
#     4  10  20  34  53  75  97 120 146 179 221 270
#
# _framework density 16.460384999999999
#
# number of rings (size 3 to 8) (size 9 to 14) (size 15 to 20)
#    0.000    2.625    1.250    1.000    0.000    3.500 
#    0.000    3.750    0.000    1.750    0.000    3.500 
#    0.000    1.000    0.000    9.375    0.000    3.250 
#
# Total GULP energy -1069012.816294 kJ/mol
# GULP energy per Si atom -5567.775085 kJ/mol
# Density = 1.642292 g / cm^3
# Si number density = 16.460385 Si / 1000 Ang^3
#
#
#
# Elastic Constant Matrix: (Units=GPa)
#
#
# Indices 1 2 3 4 5 6 
#
# 1 88.0419 63.1728 20.3892 0.0000 0.0000 0.0000
# 2 63.1728 88.0419 20.3892 0.0000 0.0000 0.0000
# 3 20.3892 20.3892 21.7857 0.0000 0.0000 0.0000
# 4 0.0000 0.0000 0.0000 13.2792 0.0000 0.0000
# 5 0.0000 0.0000 0.0000 0.0000 13.2792 0.0000
# 6 0.0000 0.0000 0.0000 0.0000 0.0000 12.4345
#
#
#
# Elastic Compliance Matrix: (Units=1/GPa)
#
#
# Indices 1 2 3 4 5 6 
#
# 1 0.024528 -0.015683 -0.008279 0.000000 0.000000 0.000000
# 2 -0.015683 0.024528 -0.008279 0.000000 0.000000 0.000000
# 3 -0.008279 -0.008279 0.061398 0.000000 0.000000 0.000000
# 4 0.000000 0.000000 0.000000 0.075306 0.000000 0.000000
# 5 0.000000 0.000000 0.000000 0.000000 0.075306 0.000000
# 6 0.000000 0.000000 0.000000 0.000000 0.000000 0.080421
#
#
# Mechanical properties :
#
#
# Convention : Reuss Voigt Hill
#
# Bulk Modulus (GPa) = 21.75128 45.08579 33.41853
# Shear Modulus (GPa) = 11.86829 14.05979 12.96404
#
# Velocity S-wave (km/s) = 2.68810 2.92577 2.80945
# Velocity P-wave (km/s) = 4.78304 6.23406 5.55612
#
# Compressibility (1/GPa) = 0.04597430
#
# Stress axis : x y z
#
# Youngs Moduli (GPa) = 40.76951 40.76951 16.28730
#
# Poissons Ratio (x) = 0.63937 0.13484
# Poissons Ratio (y) = 0.63937 0.13484
# Poissons Ratio (z) = 0.33752 0.33752
#
# Static dielectric constant tensor:
#      x y z
#    x 1.551790 0.000000 0.000000 
#    y 0.000000 1.551790 0.000000 
#    z 0.000000 0.000000 1.571610 
# 
# From -- ./inp_files/9395.got.cif
#   From: 2010.05.17/outbox.cif.g08.bks.cpg/sg191_5_cif.got.tgz:9395.got - 2010.05.20 12:20:32.
