data_PCOD9587180
_publ_section_title
;
Structure prediction by ZEFSAII (Michael W. Deem and Ramdas Pophale) SiO2 
 PCOD9587180
Probable space group: P 6/M M M
;
_chemical_formula_sum "Si O2"
_cell_formula_units_Z 132
_cell_length_a 24.235342
_cell_length_b 24.235342
_cell_length_c 16.686494
_cell_angle_alpha 90.000000
_cell_angle_beta 90.000000
_cell_angle_gamma 120.000000
_cell_volume 8487.778426
_symmetry_space_group_name_H-M "P 6/M M M"
_symmetry_group_IT_number 191
_symmetry_cell_setting 'hexagonal'
loop_
_space_group_symop_operation_xyz
x,y,z
x-y,x,z
-y,x-y,z
-x,-y,z
-x+y,-x,z
y,-x+y,z
x-y,-y,-z
-x,-x+y,-z
y,x,-z
-y,-x,-z
-x+y,y,-z
x,x-y,-z
-x,-y,-z
-x+y,-x,-z
y,-x+y,-z
x,y,-z
x-y,x,-z
-y,x-y,-z
-x+y,y,z
x,x-y,z
-y,-x,z
y,x,z
x-y,-y,z
-x,-x+y,z
loop_
_atom_site_type_symbol
_atom_site_label
_atom_site_fract_x
_atom_site_fract_y
_atom_site_fract_z
Si Si1 0.194344 0.928059 0.182062
Si Si2 0.073000 0.600694 0.903738
Si Si3 0.804875 0.734149 0.622492
Si Si4 0.142101 0.414034 0.810584
Si Si5 0.922705 0.524262 0.500000
Si Si6 0.682514 0.075768 0.641005
O O1 0.123056 0.876945 0.155976
O O2 0.194137 0.929179 0.279719
O O3 0.239796 0.899467 0.160779
O O4 0.222949 0.000000 0.153573
O O5 0.083131 0.541566 0.881936
O O6 0.123153 0.666528 0.863822
O O7 0.000000 0.578902 0.879506
O O8 0.076040 0.606015 0.000000
O O9 0.871924 0.743848 0.595094
O O10 0.785934 0.785934 0.596214
O O11 0.746368 0.664473 0.602030
O O12 0.215245 0.430490 0.811688
O O13 0.117933 0.414476 0.720660
O O14 0.899796 0.449898 0.500000
O O15 0.905068 0.550015 0.578793
O O16 0.000000 0.561808 0.500000
O O17 0.638784 0.000000 0.661241
#
# Coordination Sequence:
#
# PCOD9587180 Si02
#       6
#    24  24  24  24  12  24
#     4   8  13  21  35  56  82 112 145 181 218 255
#     4   9  18  32  49  69  93 120 149 183 226 277
#     4   8  13  22  36  54  77 107 144 182 219 258
#     4  10  18  28  45  69  94 119 151 187 224 270
#     4   9  18  30  43  64  93 120 146 180 226 275
#     4   9  16  27  43  63  90 122 153 185 221 266
#
# _framework density 15.551772
#
# number of rings (size 3 to 8) (size 9 to 14) (size 15 to 20)
#    0.000    3.182    0.000    4.909    0.000    1.091 
#    0.000    3.636    0.000    0.727    0.000    2.545 
#    0.000    0.000    0.000    0.364    0.000   11.091 
#
# Total GULP energy -735098.134947 kJ/mol
# GULP energy per Si atom -5568.925265 kJ/mol
# Density = 1.551638 g / cm^3
# Si number density = 15.551772 Si / 1000 Ang^3
#
#
#
# Elastic Constant Matrix: (Units=GPa)
#
#
# Indices 1 2 3 4 5 6 
#
# 1 110.2419 66.9946 34.5014 0.0000 0.0000 0.0000
# 2 66.9946 110.2419 34.5014 0.0000 0.0000 0.0000
# 3 34.5014 34.5014 29.0788 0.0000 0.0000 0.0000
# 4 0.0000 0.0000 0.0000 7.9628 0.0000 0.0000
# 5 0.0000 0.0000 0.0000 0.0000 7.9628 0.0000
# 6 0.0000 0.0000 0.0000 0.0000 0.0000 21.6236
#
#
#
# Elastic Compliance Matrix: (Units=1/GPa)
#
#
# Indices 1 2 3 4 5 6 
#
# 1 0.016804 -0.006318 -0.012441 0.000000 0.000000 0.000000
# 2 -0.006318 0.016804 -0.012441 0.000000 0.000000 0.000000
# 3 -0.012441 -0.012441 0.063912 0.000000 0.000000 0.000000
# 4 0.000000 0.000000 0.000000 0.125583 0.000000 0.000000
# 5 0.000000 0.000000 0.000000 0.000000 0.125583 0.000000
# 6 0.000000 0.000000 0.000000 0.000000 0.000000 0.046246
#
#
# Mechanical properties :
#
#
# Convention : Reuss Voigt Hill
#
# Bulk Modulus (GPa) = 28.47498 57.95084 43.21291
# Shear Modulus (GPa) = 10.66004 15.08088 12.87046
#
# Velocity S-wave (km/s) = 2.62096 3.11741 2.87990
# Velocity P-wave (km/s) = 5.24488 7.09237 6.23741
#
# Compressibility (1/GPa) = 0.03511855
#
# Stress axis : x y z
#
# Youngs Moduli (GPa) = 59.50831 59.50831 15.64651
#
# Poissons Ratio (x) = 0.37600 0.19466
# Poissons Ratio (y) = 0.37600 0.19466
# Poissons Ratio (z) = 0.74036 0.74036
#
# Static dielectric constant tensor:
#      x y z
#    x 1.515540 0.000000 0.000000 
#    y 0.000000 1.515540 0.000000 
#    z 0.000000 0.000000 1.538490 
# 
# From -- ./inp_files/4899.got.cif
#   From: 2010.05.17/outbox.cif.g08.bks.cpg/sg191_3_cif.got.tgz:4899.got - 2010.05.20 12:20:32.
