data_PCOD9587537
_publ_section_title
;
Structure prediction by ZEFSAII (Michael W. Deem and Ramdas Pophale) SiO2 
 PCOD9587537
Probable space group: P 6/M M M
;
_chemical_formula_sum "Si O2"
_cell_formula_units_Z 144
_cell_length_a 33.503898
_cell_length_b 33.503898
_cell_length_c 8.685143
_cell_angle_alpha 90.000000
_cell_angle_beta 90.000000
_cell_angle_gamma 120.000000
_cell_volume 8443.028996
_symmetry_space_group_name_H-M "P 6/M M M"
_symmetry_group_IT_number 191
_symmetry_cell_setting 'hexagonal'
loop_
_space_group_symop_operation_xyz
x,y,z
x-y,x,z
-y,x-y,z
-x,-y,z
-x+y,-x,z
y,-x+y,z
x-y,-y,-z
-x,-x+y,-z
y,x,-z
-y,-x,-z
-x+y,y,-z
x,x-y,-z
-x,-y,-z
-x+y,-x,-z
y,-x+y,-z
x,y,-z
x-y,x,-z
-y,x-y,-z
-x+y,y,z
x,x-y,z
-y,-x,z
y,x,z
x-y,-y,z
-x,-x+y,z
loop_
_atom_site_type_symbol
_atom_site_label
_atom_site_fract_x
_atom_site_fract_y
_atom_site_fract_z
Si Si1 0.525351 0.808080 0.685742
Si Si2 0.564284 0.948425 0.814129
Si Si3 0.052347 0.194406 0.686031
Si Si4 0.283324 0.900580 0.315708
Si Si5 0.228853 0.946394 0.183967
Si Si6 0.617006 0.143673 0.814093
O O1 0.523109 0.807895 0.500000
O O2 0.518443 0.759222 0.737425
O O3 0.576188 0.849721 0.729694
O O4 0.488799 0.821299 0.750896
O O5 0.600812 0.935349 0.746288
O O6 0.513767 0.907661 0.767809
O O7 0.578072 0.000000 0.767856
O O8 0.566640 0.947418 0.000000
O O9 0.052432 0.195783 0.500000
O O10 0.091349 0.182697 0.735807
O O11 0.064332 0.244409 0.747447
O O12 0.000000 0.158860 0.736462
O O13 0.283017 0.902852 0.500000
O O14 0.247643 0.914355 0.248454
O O15 0.264591 0.000000 0.224737
O O16 0.225718 0.943011 0.000000
O O17 0.576156 0.152312 0.762086
O O18 0.618507 0.145373 0.000000
#
# Coordination Sequence:
#
# PCOD9587537 Si02
#       6
#    24  24  24  24  24  24
#     4   9  19  35  52  70  93 122 156 193 234 281
#     4   9  17  29  45  66  95 131 166 196 227 267
#     4   9  18  33  52  72  94 122 156 193 235 284
#     4  10  19  30  46  68  95 128 165 203 240 275
#     4  10  20  32  46  67  97 131 166 202 237 274
#     4   9  18  32  50  73  98 122 151 189 233 279
#
# _framework density 17.055491
#
# number of rings (size 3 to 8) (size 9 to 14) (size 15 to 20)
#    0.000    2.667    0.000    1.500    0.000    6.000 
#    0.000    3.333    0.000    0.500    0.000    5.833 
#    0.000    0.000    0.000    4.167    0.000    4.333 
#
# Total GULP energy -803013.245941 kJ/mol
# GULP energy per Si atom -5576.480875 kJ/mol
# Density = 1.701667 g / cm^3
# Si number density = 17.055491 Si / 1000 Ang^3
#
#
#
# Elastic Constant Matrix: (Units=GPa)
#
#
# Indices 1 2 3 4 5 6 
#
# 1 120.4566 100.5721 23.6156 0.0000 0.0000 0.0000
# 2 100.5721 120.4566 23.6156 0.0000 0.0000 0.0000
# 3 23.6156 23.6156 8.4730 0.0000 0.0000 0.0000
# 4 0.0000 0.0000 0.0000 21.6631 0.0000 0.0000
# 5 0.0000 0.0000 0.0000 0.0000 21.6631 0.0000
# 6 0.0000 0.0000 0.0000 0.0000 0.0000 9.9422
#
#
#
# Elastic Compliance Matrix: (Units=1/GPa)
#
#
# Indices 1 2 3 4 5 6 
#
# 1 0.030739 -0.019552 -0.031181 0.000000 0.000000 0.000000
# 2 -0.019552 0.030739 -0.031181 0.000000 0.000000 0.000000
# 3 -0.031181 -0.031181 0.291833 0.000000 0.000000 0.000000
# 4 0.000000 0.000000 0.000000 0.046161 0.000000 0.000000
# 5 0.000000 0.000000 0.000000 0.000000 0.046161 0.000000
# 6 0.000000 0.000000 0.000000 0.000000 0.000000 0.100581
#
#
# Mechanical properties :
#
#
# Convention : Reuss Voigt Hill
#
# Bulk Modulus (GPa) = 5.27747 60.55477 32.91612
# Shear Modulus (GPa) = 6.46662 17.42589 11.94625
#
# Velocity S-wave (km/s) = 1.94929 3.19990 2.64944
# Velocity P-wave (km/s) = 2.85786 7.01670 5.35731
#
# Compressibility (1/GPa) = 0.18948477
#
# Stress axis : x y z
#
# Youngs Moduli (GPa) = 32.53212 32.53212 3.42662
#
# Poissons Ratio (x) = 0.63606 0.10684
# Poissons Ratio (y) = 0.63606 0.10684
# Poissons Ratio (z) = 1.01437 1.01437
#
# Static dielectric constant tensor:
#      x y z
#    x 1.567660 0.000000 0.000000 
#    y 0.000000 1.567660 0.000000 
#    z 0.000000 0.000000 1.576170 
# 
# From -- ./inp_files/1960.got.cif
#   From: 2010.05.17/outbox.cif.g08.bks.cpg/sg191_1_cif.got.tgz:1960.got - 2010.05.20 12:20:32.
