data_PCOD9587824
_publ_section_title
;
Structure prediction by ZEFSAII (Michael W. Deem and Ramdas Pophale) SiO2 
 PCOD9587824
Probable space group: P 6/M M M
;
_chemical_formula_sum "Si O2"
_cell_formula_units_Z 120
_cell_length_a 18.006993
_cell_length_b 18.006993
_cell_length_c 26.042803
_cell_angle_alpha 90.000000
_cell_angle_beta 90.000000
_cell_angle_gamma 120.000000
_cell_volume 7313.087150
_symmetry_space_group_name_H-M "P 6/M M M"
_symmetry_group_IT_number 191
_symmetry_cell_setting 'hexagonal'
loop_
_space_group_symop_operation_xyz
x,y,z
x-y,x,z
-y,x-y,z
-x,-y,z
-x+y,-x,z
y,-x+y,z
x-y,-y,-z
-x,-x+y,-z
y,x,-z
-y,-x,-z
-x+y,y,-z
x,x-y,-z
-x,-y,-z
-x+y,-x,-z
y,-x+y,-z
x,y,-z
x-y,x,-z
-y,x-y,-z
-x+y,y,z
x,x-y,z
-y,-x,z
y,x,z
x-y,-y,z
-x,-x+y,z
loop_
_atom_site_type_symbol
_atom_site_label
_atom_site_fract_x
_atom_site_fract_y
_atom_site_fract_z
Si Si1 0.159238 0.492791 0.559459
Si Si2 0.634388 0.903467 0.347820
Si Si3 0.841673 0.508945 0.748458
Si Si4 0.266731 0.366640 0.155358
Si Si5 0.896078 0.363581 0.057646
O O1 0.133961 0.468685 0.500000
O O2 0.258839 0.517678 0.563965
O O3 0.149786 0.574893 0.571644
O O4 0.108541 0.416402 0.599103
O O5 0.660604 0.830302 0.345544
O O6 0.566495 0.882668 0.302005
O O7 0.710555 0.000000 0.342752
O O8 0.741824 0.483648 0.748987
O O9 0.851317 0.425659 0.748768
O O10 0.884922 0.568670 0.797903
O O11 0.166275 0.332549 0.162848
O O12 0.295586 0.295586 0.153225
O O13 0.297275 0.422159 0.103098
O O14 0.866214 0.433107 0.068102
O O15 0.000000 0.418161 0.056664
O O16 0.867849 0.328436 0.000000
#
# Coordination Sequence:
#
# PCOD9587824 Si02
#       5
#    24  24  24  24  24
#     4   9  17  29  46  69  98 131 163 192 223 264
#     4  10  21  35  50  69  93 122 156 195 238 279
#     4  10  20  33  50  73 101 130 156 182 216 263
#     4  10  20  32  47  68  93 122 157 198 241 280
#     4   8  14  26  45  68  92 117 146 181 222 271
#
# _framework density 16.408939
#
# number of rings (size 3 to 8) (size 9 to 14) (size 15 to 20)
#    0.000    2.600    0.000    2.800    0.000    5.200 
#    0.000    3.000    0.000    0.800    0.000    0.000 
#    0.000    4.800    0.000   10.000    0.000    0.000 
#
# Total GULP energy -669124.688021 kJ/mol
# GULP energy per Si atom -5576.039067 kJ/mol
# Density = 1.637159 g / cm^3
# Si number density = 16.408939 Si / 1000 Ang^3
#
#
#
# Elastic Constant Matrix: (Units=GPa)
#
#
# Indices 1 2 3 4 5 6 
#
# 1 85.4520 71.3848 41.5991 0.0000 0.0000 0.0000
# 2 71.3848 85.4520 41.5991 0.0000 0.0000 0.0000
# 3 41.5991 41.5991 80.6850 0.0000 0.0000 0.0000
# 4 0.0000 0.0000 0.0000 18.5294 0.0000 0.0000
# 5 0.0000 0.0000 0.0000 0.0000 18.5294 0.0000
# 6 0.0000 0.0000 0.0000 0.0000 0.0000 7.0336
#
#
#
# Elastic Compliance Matrix: (Units=1/GPa)
#
#
# Indices 1 2 3 4 5 6 
#
# 1 0.039932 -0.031155 -0.004525 0.000000 0.000000 0.000000
# 2 -0.031155 0.039932 -0.004525 0.000000 0.000000 0.000000
# 3 -0.004525 -0.004525 0.017060 0.000000 0.000000 0.000000
# 4 0.000000 0.000000 0.000000 0.053968 0.000000 0.000000
# 5 0.000000 0.000000 0.000000 0.000000 0.053968 0.000000
# 6 0.000000 0.000000 0.000000 0.000000 0.000000 0.142175
#
#
# Mechanical properties :
#
#
# Convention : Reuss Voigt Hill
#
# Bulk Modulus (GPa) = 60.55848 62.30613 61.43230
# Shear Modulus (GPa) = 11.54869 15.28555 13.41712
#
# Velocity S-wave (km/s) = 2.65581 3.05542 2.86260
# Velocity P-wave (km/s) = 6.81105 7.10639 6.96028
#
# Compressibility (1/GPa) = 0.01651296
#
# Stress axis : x y z
#
# Youngs Moduli (GPa) = 25.04264 25.04264 58.61767
#
# Poissons Ratio (x) = 0.78022 0.26524
# Poissons Ratio (y) = 0.78022 0.26524
# Poissons Ratio (z) = 0.11331 0.11331
#
# Static dielectric constant tensor:
#      x y z
#    x 1.536710 0.000000 0.000000 
#    y 0.000000 1.536710 0.000000 
#    z 0.000000 0.000000 1.569160 
# 
# From -- ./inp_files/10272.got.cif
#   From: 2010.05.17/outbox.cif.g08.bks.cpg/sg191_6_cif.got.tgz:10272.got - 2010.05.20 12:20:32.
