data_PCOD9587358
_publ_section_title
;
Structure prediction by ZEFSAII (Michael W. Deem and Ramdas Pophale) SiO2 
 PCOD9587358
Probable space group: P 6/M M M
;
_chemical_formula_sum "Si O2"
_cell_formula_units_Z 52
_cell_length_a 27.031352
_cell_length_b 27.031352
_cell_length_c 7.900621
_cell_angle_alpha 90.000000
_cell_angle_beta 90.000000
_cell_angle_gamma 120.000000
_cell_volume 4999.509481
_symmetry_space_group_name_H-M "P 6/M M M"
_symmetry_group_IT_number 191
_symmetry_cell_setting 'hexagonal'
loop_
_space_group_symop_operation_xyz
x,y,z
x-y,x,z
-y,x-y,z
-x,-y,z
-x+y,-x,z
y,-x+y,z
x-y,-y,-z
-x,-x+y,-z
y,x,-z
-y,-x,-z
-x+y,y,-z
x,x-y,-z
-x,-y,-z
-x+y,-x,-z
y,-x+y,-z
x,y,-z
x-y,x,-z
-y,x-y,-z
-x+y,y,z
x,x-y,z
-y,-x,z
y,x,z
x-y,-y,z
-x,-x+y,z
loop_
_atom_site_type_symbol
_atom_site_label
_atom_site_fract_x
_atom_site_fract_y
_atom_site_fract_z
Si Si1 0.732740 0.465479 0.699776
Si Si2 0.632682 0.485137 0.806758
Si Si3 0.666668 0.333334 0.795848
Si Si4 0.527430 0.592384 0.500000
O O1 0.738600 0.477200 0.500000
O O2 0.692574 0.487449 0.778741
O O3 0.698812 0.397623 0.730372
O O4 0.580514 0.419487 0.781198
O O5 0.623722 0.522946 0.667268
O O6 0.628020 0.500482 0.000000
O O7 0.666667 0.333334 0.000000
O O8 0.578536 0.578536 0.500000
O O9 0.468902 0.531099 0.500000
#
# Coordination Sequence:
#
# PCOD9587358 Si02
#       4
#    12  24   4  12
#     4  12  20  28  38  53  73  92 108 126 156 197
#     4  10  19  29  40  54  70  88 107 128 157 192
#     4  12  22  26  34  54  70  92 112 124 149 199
#     4   9  18  31  42  52  64  81 109 139 160 180
#
# _framework density 10.401021
#
# number of rings (size 3 to 8) (size 9 to 14) (size 15 to 20)
#    0.000    1.615    4.615    2.769    0.000    0.923 
#    0.000    4.615    0.000    0.000    0.000    0.000 
#    0.000    0.000    0.000    0.000    0.000    0.000 
#
# Total GULP energy -289958.032362 kJ/mol
# GULP energy per Si atom -5576.116007 kJ/mol
# Density = 1.037735 g / cm^3
# Si number density = 10.401021 Si / 1000 Ang^3
#
#
#
# Elastic Constant Matrix: (Units=GPa)
#
#
# Indices 1 2 3 4 5 6 
#
# 1 46.2201 27.3485 29.8306 0.0000 0.0000 0.0001
# 2 27.3485 46.2201 29.8307 0.0000 0.0000 -0.0001
# 3 29.8306 29.8307 94.3483 -0.0001 0.0000 0.0000
# 4 0.0000 0.0000 -0.0001 5.3148 0.0000 0.0000
# 5 0.0000 0.0000 0.0000 0.0000 5.3147 0.0000
# 6 0.0001 -0.0001 0.0000 0.0000 0.0000 9.4359
#
#
#
# Elastic Compliance Matrix: (Units=1/GPa)
#
#
# Indices 1 2 3 4 5 6 
#
# 1 0.035635 -0.017355 -0.005780 0.000000 0.000000 0.000000
# 2 -0.017355 0.035635 -0.005780 0.000000 0.000000 0.000000
# 3 -0.005780 -0.005780 0.014254 0.000000 0.000000 0.000000
# 4 0.000000 0.000000 0.000000 0.188155 0.000000 0.000000
# 5 0.000000 0.000000 0.000000 0.000000 0.188156 0.000000
# 6 0.000000 0.000000 0.000000 0.000000 0.000000 0.105978
#
#
# Mechanical properties :
#
#
# Convention : Reuss Voigt Hill
#
# Bulk Modulus (GPa) = 36.10778 40.08981 38.09880
# Shear Modulus (GPa) = 7.87560 10.66500 9.27030
#
# Velocity S-wave (km/s) = 2.75470 3.20563 2.98868
# Velocity P-wave (km/s) = 6.70141 7.23389 6.97273
#
# Compressibility (1/GPa) = 0.02769486
#
# Stress axis : x y z
#
# Youngs Moduli (GPa) = 28.06248 28.06243 70.15672
#
# Poissons Ratio (x) = 0.48702 0.40548
# Poissons Ratio (y) = 0.48702 0.40548
# Poissons Ratio (z) = 0.16219 0.16219
#
# Static dielectric constant tensor:
#      x y z
#    x 1.314820 0.000000 0.000000 
#    y 0.000000 1.314820 0.000000 
#    z 0.000000 0.000000 1.361320 
# 
# From -- ./inp_files/761.got.cif
#   From: 2010.05.17/outbox.cif.g08.bks.cpg/sg191_1_cif.got.tgz:761.got - 2010.05.20 12:20:32.
