data_PCOD9587440
_publ_section_title
;
Structure prediction by ZEFSAII (Michael W. Deem and Ramdas Pophale) SiO2 
 PCOD9587440
Probable space group: P 6/M M M
;
_chemical_formula_sum "Si O2"
_cell_formula_units_Z 132
_cell_length_a 19.030482
_cell_length_b 19.030482
_cell_length_c 26.837241
_cell_angle_alpha 90.000000
_cell_angle_beta 90.000000
_cell_angle_gamma 120.000000
_cell_volume 8417.208289
_symmetry_space_group_name_H-M "P 6/M M M"
_symmetry_group_IT_number 191
_symmetry_cell_setting 'hexagonal'
loop_
_space_group_symop_operation_xyz
x,y,z
x-y,x,z
-y,x-y,z
-x,-y,z
-x+y,-x,z
y,-x+y,z
x-y,-y,-z
-x,-x+y,-z
y,x,-z
-y,-x,-z
-x+y,y,-z
x,x-y,-z
-x,-y,-z
-x+y,-x,-z
y,-x+y,-z
x,y,-z
x-y,x,-z
-y,x-y,-z
-x+y,y,z
x,x-y,z
-y,-x,z
y,x,z
x-y,-y,z
-x,-x+y,z
loop_
_atom_site_type_symbol
_atom_site_label
_atom_site_fract_x
_atom_site_fract_y
_atom_site_fract_z
Si Si1 0.628079 0.531784 0.088055
Si Si2 0.503425 0.333509 0.803202
Si Si3 0.097122 0.739509 0.000000
Si Si4 0.334207 0.502885 0.441248
Si Si5 0.251690 0.343232 0.739859
Si Si6 0.091077 0.342580 0.620981
O O1 0.557044 0.442957 0.069754
O O2 0.581815 0.581815 0.099152
O O3 0.663194 0.519072 0.139251
O O4 0.695872 0.584093 0.047505
O O5 0.524938 0.262469 0.796869
O O6 0.579596 0.420405 0.790558
O O7 0.425631 0.309670 0.769127
O O8 0.164807 0.835194 0.000000
O O9 0.000000 0.710650 0.000000
O O10 0.336115 0.485580 0.500000
O O11 0.261251 0.522502 0.434600
O O12 0.419558 0.580443 0.427799
O O13 0.310876 0.424361 0.408484
O O14 0.159780 0.319559 0.752353
O O15 0.276078 0.276078 0.752345
O O16 0.261976 0.357803 0.680402
O O17 0.160281 0.320562 0.608228
O O18 0.000000 0.274063 0.609094
#
# Coordination Sequence:
#
# PCOD9587440 Si02
#       6
#    24  24  12  24  24  24
#     4   9  17  29  46  67  89 114 145 182 223 264
#     4  10  19  30  44  64  92 124 156 186 215 248
#     4  10  19  31  47  66  89 117 150 186 223 265
#     4   9  17  29  45  65  90 120 152 184 217 253
#     4   9  18  32  49  67  87 113 145 181 221 265
#     4   9  18  32  48  66  88 114 144 179 221 266
#
# _framework density 15.68216
#
# number of rings (size 3 to 8) (size 9 to 14) (size 15 to 20)
#    0.000    2.727    0.000    1.727    0.000    4.364 
#    0.000    2.727    0.000    5.182    0.000    2.545 
#    0.000    0.000    0.000   10.364    0.000    8.727 
#
# Total GULP energy -735451.975224 kJ/mol
# GULP energy per Si atom -5571.605873 kJ/mol
# Density = 1.564647 g / cm^3
# Si number density = 15.682160 Si / 1000 Ang^3
#
#
#
# Elastic Constant Matrix: (Units=GPa)
#
#
# Indices 1 2 3 4 5 6 
#
# 1 100.1165 75.9752 40.3363 0.0000 0.0000 0.0000
# 2 75.9752 100.1165 40.3363 0.0000 0.0000 0.0000
# 3 40.3363 40.3363 26.3975 0.0000 0.0000 0.0000
# 4 0.0000 0.0000 0.0000 20.9909 0.0000 0.0000
# 5 0.0000 0.0000 0.0000 0.0000 20.9909 0.0000
# 6 0.0000 0.0000 0.0000 0.0000 0.0000 12.0706
#
#
#
# Elastic Compliance Matrix: (Units=1/GPa)
#
#
# Indices 1 2 3 4 5 6 
#
# 1 0.030177 -0.011245 -0.028929 0.000000 0.000000 0.000000
# 2 -0.011245 0.030177 -0.028929 0.000000 0.000000 0.000000
# 3 -0.028929 -0.028929 0.126291 0.000000 0.000000 0.000000
# 4 0.000000 0.000000 0.000000 0.047640 0.000000 0.000000
# 5 0.000000 0.000000 0.000000 0.000000 0.047640 0.000000
# 6 0.000000 0.000000 0.000000 0.000000 0.000000 0.082846
#
#
# Mechanical properties :
#
#
# Convention : Reuss Voigt Hill
#
# Bulk Modulus (GPa) = 20.64418 59.99180 40.31799
# Shear Modulus (GPa) = 9.63162 15.47598 12.55380
#
# Velocity S-wave (km/s) = 2.48095 3.14483 2.83241
# Velocity P-wave (km/s) = 4.62596 7.17805 6.03838
#
# Compressibility (1/GPa) = 0.04843981
#
# Stress axis : x y z
#
# Youngs Moduli (GPa) = 33.13734 33.13734 7.91823
#
# Poissons Ratio (x) = 0.37265 0.22906
# Poissons Ratio (y) = 0.37265 0.22906
# Poissons Ratio (z) = 0.95862 0.95862
#
# Static dielectric constant tensor:
#      x y z
#    x 1.514540 0.000000 0.000000 
#    y 0.000000 1.514540 0.000000 
#    z 0.000000 0.000000 1.516570 
# 
# From -- ./inp_files/8692.got.cif
#   From: 2010.05.17/outbox.cif.g08.bks.cpg/sg191_5_cif.got.tgz:8692.got - 2010.05.20 12:20:32.
