data_PCOD9587637
_publ_section_title
;
Structure prediction by ZEFSAII (Michael W. Deem and Ramdas Pophale) SiO2 
 PCOD9587637
Probable space group: P 6/M M M
;
_chemical_formula_sum "Si O2"
_cell_formula_units_Z 108
_cell_length_a 17.961536
_cell_length_b 17.961536
_cell_length_c 23.390475
_cell_angle_alpha 90.000000
_cell_angle_beta 90.000000
_cell_angle_gamma 120.000000
_cell_volume 6535.165933
_symmetry_space_group_name_H-M "P 6/M M M"
_symmetry_group_IT_number 191
_symmetry_cell_setting 'hexagonal'
loop_
_space_group_symop_operation_xyz
x,y,z
x-y,x,z
-y,x-y,z
-x,-y,z
-x+y,-x,z
y,-x+y,z
x-y,-y,-z
-x,-x+y,-z
y,x,-z
-y,-x,-z
-x+y,y,-z
x,x-y,-z
-x,-y,-z
-x+y,-x,-z
y,-x+y,-z
x,y,-z
x-y,x,-z
-y,x-y,-z
-x+y,y,z
x,x-y,z
-y,-x,z
y,x,z
x-y,-y,z
-x,-x+y,z
loop_
_atom_site_type_symbol
_atom_site_label
_atom_site_fract_x
_atom_site_fract_y
_atom_site_fract_z
Si Si1 0.731776 0.097657 0.933261
Si Si2 0.368077 0.268230 0.723012
Si Si3 0.628869 0.897203 0.500000
Si Si4 0.491823 0.158617 0.830650
Si Si5 0.896288 0.363812 0.612557
O O1 0.830818 0.169183 0.922346
O O2 0.676350 0.120401 0.890613
O O3 0.707847 0.000000 0.923094
O O4 0.713768 0.104995 0.000000
O O5 0.333661 0.166831 0.725495
O O6 0.296897 0.296897 0.716793
O O7 0.423174 0.310528 0.780093
O O8 0.433154 0.307131 0.669412
O O9 0.668153 0.834077 0.500000
O O10 0.568847 0.876092 0.555764
O O11 0.696562 0.000000 0.500000
O O12 0.574085 0.148169 0.823147
O O13 0.516985 0.258493 0.829190
O O14 0.861566 0.430783 0.611909
O O15 0.000000 0.421367 0.613180
#
# Coordination Sequence:
#
# PCOD9587637 Si02
#       5
#    24  24  12  24  24
#     4   9  18  32  49  69  93 122 156 193 233 276
#     4  10  20  33  50  72  97 126 160 197 236 278
#     4  10  19  31  49  72  97 127 164 204 243 283
#     4  10  20  33  49  70  96 125 156 191 232 277
#     4   9  17  30  49  71  93 119 153 192 233 279
#
# _framework density 16.525977000000001
#
# number of rings (size 3 to 8) (size 9 to 14) (size 15 to 20)
#    0.000    2.444    0.000    2.556    0.000    4.444 
#    0.000    1.111    0.000    9.444    0.000    1.556 
#    0.000   10.667    0.000    0.222    0.000    1.333 
#
# Total GULP energy -601979.107282 kJ/mol
# GULP energy per Si atom -5573.880623 kJ/mol
# Density = 1.648836 g / cm^3
# Si number density = 16.525977 Si / 1000 Ang^3
#
#
#
# Elastic Constant Matrix: (Units=GPa)
#
#
# Indices 1 2 3 4 5 6 
#
# 1 85.2959 63.3658 34.2519 0.0000 0.0000 0.0000
# 2 63.3658 85.2959 34.2519 0.0000 0.0000 0.0000
# 3 34.2519 34.2519 77.4088 0.0000 0.0000 0.0000
# 4 0.0000 0.0000 0.0000 16.2198 0.0000 0.0000
# 5 0.0000 0.0000 0.0000 0.0000 16.2198 0.0000
# 6 0.0000 0.0000 0.0000 0.0000 0.0000 10.9651
#
#
#
# Elastic Compliance Matrix: (Units=1/GPa)
#
#
# Indices 1 2 3 4 5 6 
#
# 1 0.027024 -0.018575 -0.003739 0.000000 0.000000 0.000000
# 2 -0.018575 0.027024 -0.003739 0.000000 0.000000 0.000000
# 3 -0.003739 -0.003739 0.016227 0.000000 0.000000 0.000000
# 4 0.000000 0.000000 0.000000 0.061653 0.000000 0.000000
# 5 0.000000 0.000000 0.000000 0.000000 0.061653 0.000000
# 6 0.000000 0.000000 0.000000 0.000000 0.000000 0.091199
#
#
# Mechanical properties :
#
#
# Convention : Reuss Voigt Hill
#
# Bulk Modulus (GPa) = 55.03242 56.86000 55.94621
# Shear Modulus (GPa) = 14.57969 16.42300 15.50134
#
# Velocity S-wave (km/s) = 2.97346 3.15583 3.06600
# Velocity P-wave (km/s) = 6.72023 6.91087 6.81622
#
# Compressibility (1/GPa) = 0.01817111
#
# Stress axis : x y z
#
# Youngs Moduli (GPa) = 37.00352 37.00352 61.62533
#
# Poissons Ratio (x) = 0.68734 0.23040
# Poissons Ratio (y) = 0.68734 0.23040
# Poissons Ratio (z) = 0.13835 0.13835
#
# Static dielectric constant tensor:
#      x y z
#    x 1.548100 0.000000 0.000000 
#    y 0.000000 1.548100 0.000000 
#    z 0.000000 0.000000 1.566840 
# 
# From -- ./inp_files/7285.got.cif
#   From: 2010.05.17/outbox.cif.g08.bks.cpg/sg191_4_cif.got.tgz:7285.got - 2010.05.20 12:20:32.
