data_PCOD9587028
_publ_section_title
;
Structure prediction by ZEFSAII (Michael W. Deem and Ramdas Pophale) SiO2 
 PCOD9587028
Probable space group: P 6/M M M
;
_chemical_formula_sum "Si O2"
_cell_formula_units_Z 192
_cell_length_a 24.462181
_cell_length_b 24.462181
_cell_length_c 24.189384
_cell_angle_alpha 90.000000
_cell_angle_beta 90.000000
_cell_angle_gamma 120.000000
_cell_volume 12535.619206
_symmetry_space_group_name_H-M "P 6/M M M"
_symmetry_group_IT_number 191
_symmetry_cell_setting 'hexagonal'
loop_
_space_group_symop_operation_xyz
x,y,z
x-y,x,z
-y,x-y,z
-x,-y,z
-x+y,-x,z
y,-x+y,z
x-y,-y,-z
-x,-x+y,-z
y,x,-z
-y,-x,-z
-x+y,y,-z
x,x-y,-z
-x,-y,-z
-x+y,-x,-z
y,-x+y,-z
x,y,-z
x-y,x,-z
-y,x-y,-z
-x+y,y,z
x,x-y,z
-y,-x,z
y,x,z
x-y,-y,z
-x,-x+y,z
loop_
_atom_site_type_symbol
_atom_site_label
_atom_site_fract_x
_atom_site_fract_y
_atom_site_fract_z
Si Si1 0.924717 0.369954 0.756210
Si Si2 0.669187 0.897006 0.756488
Si Si3 0.597004 0.735668 0.933888
Si Si4 0.922961 0.522028 0.365302
Si Si5 0.731705 0.928498 0.124940
Si Si6 0.625794 0.923240 0.563213
Si Si7 0.267627 0.072121 0.362765
Si Si8 0.600083 0.076049 0.878594
O O1 0.910833 0.298647 0.758702
O O2 0.900839 0.381105 0.697898
O O3 0.904711 0.386409 0.813931
O O4 0.000000 0.415241 0.754426
O O5 0.645023 0.822512 0.757110
O O6 0.712239 0.924835 0.810626
O O7 0.707418 0.923718 0.699818
O O8 0.578675 0.789338 0.918869
O O9 0.666779 0.761699 0.908679
O O10 0.551671 0.666023 0.910311
O O11 0.599429 0.733347 0.000000
O O12 0.904930 0.452465 0.384729
O O13 0.901621 0.561124 0.403862
O O14 0.000000 0.562530 0.364769
O O15 0.752207 0.876104 0.115613
O O16 0.782122 0.000000 0.110634
O O17 0.616257 0.901187 0.500000
O O18 0.672401 0.907708 0.597438
O O19 0.662072 0.000000 0.562269
O O20 0.244149 0.122075 0.368383
O O21 0.216632 0.000000 0.375143
O O22 0.543296 0.086591 0.898400
O O23 0.572955 0.000000 0.882244
#
# Coordination Sequence:
#
# PCOD9587028 Si02
#       8
#    24  24  24  24  24  24  24  24
#     4  10  16  26  43  63  92 122 149 182 222 270
#     4  10  18  27  45  70  91 117 154 194 236 281
#     4  10  21  35  50  68  92 125 162 197 233 275
#     4   9  16  25  39  59  85 119 152 178 207 249
#     4  10  19  31  48  70  94 120 152 192 238 287
#     4   9  17  28  41  59  85 117 152 187 223 267
#     4  10  19  31  47  67  91 120 156 198 244 293
#     4  10  20  31  47  73 100 125 152 186 231 279
#
# _framework density 15.316356000000001
#
# number of rings (size 3 to 8) (size 9 to 14) (size 15 to 20)
#    0.000    2.250    2.500    1.875    0.000    3.250 
#    0.000    1.875    0.000    0.500    0.000    0.000 
#    0.000    3.000    0.000    8.000    0.000    3.875 
#
# Total GULP energy -1069923.487709 kJ/mol
# GULP energy per Si atom -5572.518165 kJ/mol
# Density = 1.528150 g / cm^3
# Si number density = 15.316356 Si / 1000 Ang^3
#
#
#
# Elastic Constant Matrix: (Units=GPa)
#
#
# Indices 1 2 3 4 5 6 
#
# 1 81.1430 46.6813 36.3598 0.0000 0.0000 0.0000
# 2 46.6813 81.1430 36.3598 0.0000 0.0000 0.0000
# 3 36.3598 36.3598 83.3595 0.0000 0.0000 0.0000
# 4 0.0000 0.0000 0.0000 5.9161 0.0000 0.0000
# 5 0.0000 0.0000 0.0000 0.0000 5.9161 0.0000
# 6 0.0000 0.0000 0.0000 0.0000 0.0000 17.2308
#
#
#
# Elastic Compliance Matrix: (Units=1/GPa)
#
#
# Indices 1 2 3 4 5 6 
#
# 1 0.019712 -0.009306 -0.004539 0.000000 0.000000 0.000000
# 2 -0.009306 0.019712 -0.004539 0.000000 0.000000 0.000000
# 3 -0.004539 -0.004539 0.015955 0.000000 0.000000 0.000000
# 4 0.000000 0.000000 0.000000 0.169030 0.000000 0.000000
# 5 0.000000 0.000000 0.000000 0.000000 0.169030 0.000000
# 6 0.000000 0.000000 0.000000 0.000000 0.000000 0.058036
#
#
# Mechanical properties :
#
#
# Convention : Reuss Voigt Hill
#
# Bulk Modulus (GPa) = 53.72957 53.82747 53.77852
# Shear Modulus (GPa) = 10.11237 14.22892 12.17065
#
# Velocity S-wave (km/s) = 2.57229 3.05126 2.82195
# Velocity P-wave (km/s) = 6.63161 6.90171 6.76801
#
# Compressibility (1/GPa) = 0.01861173
#
# Stress axis : x y z
#
# Youngs Moduli (GPa) = 50.73180 50.73180 62.67437
#
# Poissons Ratio (x) = 0.47212 0.28445
# Poissons Ratio (y) = 0.47212 0.28445
# Poissons Ratio (z) = 0.23025 0.23025
#
# Static dielectric constant tensor:
#      x y z
#    x 1.499790 0.000000 0.000000 
#    y 0.000000 1.499790 0.000000 
#    z 0.000000 0.000000 1.531740 
# 
# From -- ./inp_files/9314.got.cif
#   From: 2010.05.17/outbox.cif.g08.bks.cpg/sg191_5_cif.got.tgz:9314.got - 2010.05.20 12:20:32.
