data_PCOD9587891
_publ_section_title
;
Structure prediction by ZEFSAII (Michael W. Deem and Ramdas Pophale) SiO2 
 PCOD9587891
Probable space group: P 6/M M M
;
_chemical_formula_sum "Si O2"
_cell_formula_units_Z 132
_cell_length_a 18.163136
_cell_length_b 18.163136
_cell_length_c 28.592608
_cell_angle_alpha 90.000000
_cell_angle_beta 90.000000
_cell_angle_gamma 120.000000
_cell_volume 8168.946871
_symmetry_space_group_name_H-M "P 6/M M M"
_symmetry_group_IT_number 191
_symmetry_cell_setting 'hexagonal'
loop_
_space_group_symop_operation_xyz
x,y,z
x-y,x,z
-y,x-y,z
-x,-y,z
-x+y,-x,z
y,-x+y,z
x-y,-y,-z
-x,-x+y,-z
y,x,-z
-y,-x,-z
-x+y,y,-z
x,x-y,-z
-x,-y,-z
-x+y,-x,-z
y,-x+y,-z
x,y,-z
x-y,x,-z
-y,x-y,-z
-x+y,y,z
x,x-y,z
-y,-x,z
y,x,z
x-y,-y,z
-x,-x+y,z
loop_
_atom_site_type_symbol
_atom_site_label
_atom_site_fract_x
_atom_site_fract_y
_atom_site_fract_z
Si Si1 0.839847 0.332943 0.822284
Si Si2 0.902522 0.635379 0.739722
Si Si3 0.666557 0.158455 0.447421
Si Si4 0.093911 0.737274 0.368557
Si Si5 0.634994 0.532499 0.000000
Si Si6 0.368169 0.099754 0.909647
O O1 0.850139 0.425070 0.827506
O O2 0.740932 0.259069 0.823792
O O3 0.877946 0.321548 0.773754
O O4 0.885790 0.310780 0.863628
O O5 0.831480 0.662960 0.748291
O O6 0.895926 0.611147 0.684960
O O7 0.000000 0.707005 0.748636
O O8 0.669520 0.127397 0.500000
O O9 0.578568 0.157136 0.442356
O O10 0.745168 0.254833 0.444197
O O11 0.680309 0.107170 0.406455
O O12 0.166802 0.833199 0.377021
O O13 0.000000 0.721905 0.372741
O O14 0.692124 0.568369 0.953866
O O15 0.578056 0.578056 0.000000
O O16 0.568328 0.431673 0.000000
O O17 0.335621 0.167811 0.907910
O O18 0.297418 0.000000 0.913363
#
# Coordination Sequence:
#
# PCOD9587891 Si02
#       6
#    24  24  24  24  12  24
#     4  10  20  33  49  70  96 125 156 190 228 269
#     4   9  18  32  49  68  90 118 151 186 225 269
#     4   9  17  29  45  65  90 120 152 184 218 258
#     4   9  18  32  48  66  89 117 149 185 226 270
#     4   9  17  30  49  72  96 122 154 191 229 272
#     4  10  20  33  50  72  97 126 160 198 239 281
#
# _framework density 16.158753999999998
#
# number of rings (size 3 to 8) (size 9 to 14) (size 15 to 20)
#    0.000    2.636    0.000    1.727    0.000    4.364 
#    0.000    2.727    0.000    5.273    0.000    2.545 
#    0.000    6.545    0.000    4.727    0.000    5.455 
#
# Total GULP energy -735403.771106 kJ/mol
# GULP energy per Si atom -5571.240690 kJ/mol
# Density = 1.612198 g / cm^3
# Si number density = 16.158754 Si / 1000 Ang^3
#
#
#
# Elastic Constant Matrix: (Units=GPa)
#
#
# Indices 1 2 3 4 5 6 
#
# 1 71.9111 62.8773 42.6432 0.0000 0.0000 0.0000
# 2 62.8773 71.9111 42.6432 0.0000 0.0000 0.0000
# 3 42.6432 42.6432 81.6180 0.0000 0.0000 0.0000
# 4 0.0000 0.0000 0.0000 21.1458 0.0000 0.0000
# 5 0.0000 0.0000 0.0000 0.0000 21.1458 0.0000
# 6 0.0000 0.0000 0.0000 0.0000 0.0000 4.5169
#
#
#
# Elastic Compliance Matrix: (Units=1/GPa)
#
#
# Indices 1 2 3 4 5 6 
#
# 1 0.060889 -0.049806 -0.005791 0.000000 0.000000 0.000000
# 2 -0.049806 0.060889 -0.005791 0.000000 0.000000 0.000000
# 3 -0.005791 -0.005791 0.018303 0.000000 0.000000 0.000000
# 4 0.000000 0.000000 0.000000 0.047291 0.000000 0.000000
# 5 0.000000 0.000000 0.000000 0.000000 0.047291 0.000000
# 6 0.000000 0.000000 0.000000 0.000000 0.000000 0.221391
#
#
# Mechanical properties :
#
#
# Convention : Reuss Voigt Hill
#
# Bulk Modulus (GPa) = 57.78098 57.97420 57.87759
# Shear Modulus (GPa) = 8.55289 14.51348 11.53318
#
# Velocity S-wave (km/s) = 2.30316 3.00022 2.67449
# Velocity P-wave (km/s) = 6.55047 6.92514 6.74041
#
# Compressibility (1/GPa) = 0.01730673
#
# Stress axis : x y z
#
# Youngs Moduli (GPa) = 16.42324 16.42324 54.63585
#
# Poissons Ratio (x) = 0.81798 0.31637
# Poissons Ratio (y) = 0.81798 0.31637
# Poissons Ratio (z) = 0.09510 0.09510
#
# Static dielectric constant tensor:
#      x y z
#    x 1.528730 0.000000 0.000000 
#    y 0.000000 1.528730 0.000000 
#    z 0.000000 0.000000 1.562480 
# 
# From -- ./inp_files/8683.got.cif
#   From: 2010.05.17/outbox.cif.g08.bks.cpg/sg191_5_cif.got.tgz:8683.got - 2010.05.20 12:20:32.
