data_PCOD9587613
_publ_section_title
;
Structure prediction by ZEFSAII (Michael W. Deem and Ramdas Pophale) SiO2 
 PCOD9587613
Probable space group: P 6/M M M
;
_chemical_formula_sum "Si O2"
_cell_formula_units_Z 168
_cell_length_a 22.146180
_cell_length_b 22.146180
_cell_length_c 23.882679
_cell_angle_alpha 90.000000
_cell_angle_beta 90.000000
_cell_angle_gamma 120.000000
_cell_volume 10144.048666
_symmetry_space_group_name_H-M "P 6/M M M"
_symmetry_group_IT_number 191
_symmetry_cell_setting 'hexagonal'
loop_
_space_group_symop_operation_xyz
x,y,z
x-y,x,z
-y,x-y,z
-x,-y,z
-x+y,-x,z
y,-x+y,z
x-y,-y,-z
-x,-x+y,-z
y,x,-z
-y,-x,-z
-x+y,y,-z
x,x-y,-z
-x,-y,-z
-x+y,-x,-z
y,-x+y,-z
x,y,-z
x-y,x,-z
-y,x-y,-z
-x+y,y,z
x,x-y,z
-y,-x,z
y,x,z
x-y,-y,z
-x,-x+y,z
loop_
_atom_site_type_symbol
_atom_site_label
_atom_site_fract_x
_atom_site_fract_y
_atom_site_fract_z
Si Si1 0.705522 0.148541 0.061995
Si Si2 0.523304 0.188672 0.825847
Si Si3 0.080644 0.696289 0.769376
Si Si4 0.300231 0.220565 0.121925
Si Si5 0.470465 0.666035 0.431862
Si Si6 0.706001 0.785610 0.669724
Si Si7 0.080626 0.374651 0.435117
O O1 0.776355 0.223646 0.060603
O O2 0.661782 0.155510 0.112532
O O3 0.732123 0.095336 0.079224
O O4 0.673922 0.133804 0.000000
O O5 0.597778 0.195556 0.816160
O O6 0.527234 0.263617 0.823516
O O7 0.463702 0.136013 0.783303
O O8 0.088329 0.751430 0.817534
O O9 0.092663 0.735446 0.710702
O O10 0.000000 0.634785 0.771722
O O11 0.281141 0.140571 0.115209
O O12 0.239065 0.239065 0.116434
O O13 0.467680 0.664900 0.500000
O O14 0.462847 0.731424 0.413308
O O15 0.406605 0.593396 0.411672
O O16 0.546354 0.679048 0.417299
O O17 0.729012 0.864506 0.682016
O O18 0.764949 0.764949 0.678631
O O19 0.677220 0.765420 0.606759
O O20 0.095547 0.366678 0.500000
O O21 0.000000 0.354474 0.431754
#
# Coordination Sequence:
#
# PCOD9587613 Si02
#       7
#    24  24  24  24  24  24  24
#     4   8  15  28  44  63  89 121 157 196 233 267
#     4  10  19  31  48  70  99 132 163 195 233 282
#     4   9  18  33  52  71  89 115 155 201 242 273
#     4   9  16  27  45  67  90 116 149 191 236 281
#     4   9  16  26  41  60  83 112 146 183 223 270
#     4  10  19  32  52  75  98 123 153 190 230 274
#     4   9  18  31  47  69  95 122 152 189 234 279
#
# _framework density 16.561434999999999
#
# number of rings (size 3 to 8) (size 9 to 14) (size 15 to 20)
#    0.000    2.857    0.000    2.857    0.000    2.571 
#    0.000    2.143    0.000    3.714    0.000    6.000 
#    0.000    3.429    0.000    7.143    0.000    0.000 
#
# Total GULP energy -935886.179457 kJ/mol
# GULP energy per Si atom -5570.751068 kJ/mol
# Density = 1.652374 g / cm^3
# Si number density = 16.561435 Si / 1000 Ang^3
#
#
#
# Elastic Constant Matrix: (Units=GPa)
#
#
# Indices 1 2 3 4 5 6 
#
# 1 84.7881 78.6214 25.1514 0.0000 0.0000 0.0000
# 2 78.6214 84.7881 25.1514 0.0000 0.0000 0.0000
# 3 25.1514 25.1514 55.8671 0.0000 0.0000 0.0000
# 4 0.0000 0.0000 0.0000 11.6621 0.0000 0.0000
# 5 0.0000 0.0000 0.0000 0.0000 11.6621 0.0000
# 6 0.0000 0.0000 0.0000 0.0000 0.0000 3.0834
#
#
#
# Elastic Compliance Matrix: (Units=1/GPa)
#
#
# Indices 1 2 3 4 5 6 
#
# 1 0.084632 -0.077528 -0.003198 0.000000 0.000000 0.000000
# 2 -0.077528 0.084632 -0.003198 0.000000 0.000000 0.000000
# 3 -0.003198 -0.003198 0.020779 0.000000 0.000000 0.000000
# 4 0.000000 0.000000 0.000000 0.085748 0.000000 0.000000
# 5 0.000000 0.000000 0.000000 0.000000 0.085748 0.000000
# 6 0.000000 0.000000 0.000000 0.000000 0.000000 0.324319
#
#
# Mechanical properties :
#
#
# Convention : Reuss Voigt Hill
#
# Bulk Modulus (GPa) = 45.05620 53.69905 49.37763
# Shear Modulus (GPa) = 5.80649 11.71612 8.76131
#
# Velocity S-wave (km/s) = 1.87447 2.66265 2.30254
# Velocity P-wave (km/s) = 5.65238 6.47669 6.07852
#
# Compressibility (1/GPa) = 0.02219451
#
# Stress axis : x y z
#
# Youngs Moduli (GPa) = 11.81589 11.81589 48.12466
#
# Poissons Ratio (x) = 0.91606 0.15392
# Poissons Ratio (y) = 0.91606 0.15392
# Poissons Ratio (z) = 0.03779 0.03779
#
# Static dielectric constant tensor:
#      x y z
#    x 1.546570 0.000000 0.000000 
#    y 0.000000 1.546570 0.000000 
#    z 0.000000 0.000000 1.598460 
# 
# From -- ./inp_files/9002.got.cif
#   From: 2010.05.17/outbox.cif.g08.bks.cpg/sg191_5_cif.got.tgz:9002.got - 2010.05.20 12:20:32.
