data_PCOD9587838
_publ_section_title
;
Structure prediction by ZEFSAII (Michael W. Deem and Ramdas Pophale) SiO2 
 PCOD9587838
Probable space group: P 6/M M M
;
_chemical_formula_sum "Si O2"
_cell_formula_units_Z 120
_cell_length_a 22.040526
_cell_length_b 22.040526
_cell_length_c 18.187450
_cell_angle_alpha 90.000000
_cell_angle_beta 90.000000
_cell_angle_gamma 120.000000
_cell_volume 7651.495967
_symmetry_space_group_name_H-M "P 6/M M M"
_symmetry_group_IT_number 191
_symmetry_cell_setting 'hexagonal'
loop_
_space_group_symop_operation_xyz
x,y,z
x-y,x,z
-y,x-y,z
-x,-y,z
-x+y,-x,z
y,-x+y,z
x-y,-y,-z
-x,-x+y,-z
y,x,-z
-y,-x,-z
-x+y,y,-z
x,x-y,-z
-x,-y,-z
-x+y,-x,-z
y,-x+y,-z
x,y,-z
x-y,x,-z
-y,x-y,-z
-x+y,y,z
x,x-y,z
-y,-x,z
y,x,z
x-y,-y,z
-x,-x+y,z
loop_
_atom_site_type_symbol
_atom_site_label
_atom_site_fract_x
_atom_site_fract_y
_atom_site_fract_z
Si Si1 0.779241 0.698621 0.662907
Si Si2 0.433966 0.081843 0.290891
Si Si3 0.665921 0.190481 0.584221
Si Si4 0.611342 0.078994 0.124433
Si Si5 0.332356 0.519816 0.000000
Si Si6 0.707924 0.921421 0.500000
O O1 0.858957 0.717913 0.674903
O O2 0.760410 0.760410 0.670111
O O3 0.725017 0.634452 0.711795
O O4 0.759729 0.670431 0.577991
O O5 0.484070 0.132099 0.354157
O O6 0.466589 0.096291 0.209992
O O7 0.405599 0.000000 0.308433
O O8 0.664666 0.165604 0.500000
O O9 0.606052 0.212104 0.587821
O O10 0.742311 0.257690 0.596988
O O11 0.537120 0.074240 0.111139
O O12 0.597052 0.000000 0.110894
O O13 0.662894 0.140099 0.070204
O O14 0.401911 0.598090 0.000000
O O15 0.262561 0.525121 0.000000
O O16 0.736363 0.868181 0.500000
O O17 0.769655 0.000000 0.500000
#
# Coordination Sequence:
#
# PCOD9587838 Si02
#       6
#    24  24  24  24  12  12
#     4   9  17  28  43  63  88 117 148 184 227 274
#     4  10  20  32  49  72  95 118 150 195 241 282
#     4  10  21  35  49  64  87 123 163 199 235 280
#     4   9  18  34  53  70  91 121 155 187 223 272
#     4  10  20  33  51  75 100 123 148 182 225 270
#     4   8  14  24  38  55  77 107 141 175 213 261
#
# _framework density 15.683208
#
# number of rings (size 3 to 8) (size 9 to 14) (size 15 to 20)
#    0.000    2.600    0.000    1.800    1.400    5.200 
#    0.000    1.000    0.000    2.700    0.000    2.800 
#    0.000    0.000    0.000    0.000    0.000    0.000 
#
# Total GULP energy -668093.118854 kJ/mol
# GULP energy per Si atom -5567.442657 kJ/mol
# Density = 1.564751 g / cm^3
# Si number density = 15.683208 Si / 1000 Ang^3
#
#
#
# Elastic Constant Matrix: (Units=GPa)
#
#
# Indices 1 2 3 4 5 6 
#
# 1 60.6770 34.6081 44.6549 0.0000 0.0000 0.0000
# 2 34.6081 60.6770 44.6549 0.0000 0.0000 0.0000
# 3 44.6549 44.6549 80.3966 0.0000 0.0000 0.0000
# 4 0.0000 0.0000 0.0000 17.6015 0.0000 0.0000
# 5 0.0000 0.0000 0.0000 0.0000 17.6015 0.0000
# 6 0.0000 0.0000 0.0000 0.0000 0.0000 13.0345
#
#
#
# Elastic Compliance Matrix: (Units=1/GPa)
#
#
# Indices 1 2 3 4 5 6 
#
# 1 0.030126 -0.008234 -0.012159 0.000000 0.000000 0.000000
# 2 -0.008234 0.030126 -0.012159 0.000000 0.000000 0.000000
# 3 -0.012159 -0.012159 0.025946 0.000000 0.000000 0.000000
# 4 0.000000 0.000000 0.000000 0.056813 0.000000 0.000000
# 5 0.000000 0.000000 0.000000 0.000000 0.056813 0.000000
# 6 0.000000 0.000000 0.000000 0.000000 0.000000 0.076720
#
#
# Mechanical properties :
#
#
# Convention : Reuss Voigt Hill
#
# Bulk Modulus (GPa) = 47.41204 49.95401 48.68303
# Shear Modulus (GPa) = 14.33979 14.83632 14.58806
#
# Velocity S-wave (km/s) = 3.02709 3.07905 3.05318
# Velocity P-wave (km/s) = 6.52031 6.67546 6.59834
#
# Compressibility (1/GPa) = 0.02109169
#
# Stress axis : x y z
#
# Youngs Moduli (GPa) = 33.19418 33.19418 38.54202
#
# Poissons Ratio (x) = 0.27332 0.46865
# Poissons Ratio (y) = 0.27332 0.46865
# Poissons Ratio (z) = 0.40362 0.40362
#
# Static dielectric constant tensor:
#      x y z
#    x 1.528330 0.000000 0.000000 
#    y 0.000000 1.528330 0.000000 
#    z 0.000000 0.000000 1.543440 
# 
# From -- ./inp_files/6294.got.cif
#   From: 2010.05.17/outbox.cif.g08.bks.cpg/sg191_4_cif.got.tgz:6294.got - 2010.05.20 12:20:32.
