data_PCOD9587734
_publ_section_title
;
Structure prediction by ZEFSAII (Michael W. Deem and Ramdas Pophale) SiO2 
 PCOD9587734
Probable space group: P 6/M M M
;
_chemical_formula_sum "Si O2"
_cell_formula_units_Z 168
_cell_length_a 21.032258
_cell_length_b 21.032258
_cell_length_c 23.076107
_cell_angle_alpha 90.000000
_cell_angle_beta 90.000000
_cell_angle_gamma 120.000000
_cell_volume 8840.258752
_symmetry_space_group_name_H-M "P 6/M M M"
_symmetry_group_IT_number 191
_symmetry_cell_setting 'hexagonal'
loop_
_space_group_symop_operation_xyz
x,y,z
x-y,x,z
-y,x-y,z
-x,-y,z
-x+y,-x,z
y,-x+y,z
x-y,-y,-z
-x,-x+y,-z
y,x,-z
-y,-x,-z
-x+y,y,-z
x,x-y,-z
-x,-y,-z
-x+y,-x,-z
y,-x+y,-z
x,y,-z
x-y,x,-z
-y,x-y,-z
-x+y,y,z
x,x-y,z
-y,-x,z
y,x,z
x-y,-y,z
-x,-x+y,z
loop_
_atom_site_type_symbol
_atom_site_label
_atom_site_fract_x
_atom_site_fract_y
_atom_site_fract_z
Si Si1 0.912812 0.386393 0.592068
Si Si2 0.695179 0.919505 0.896469
Si Si3 0.916425 0.363090 0.274673
Si Si4 0.080266 0.776761 0.758589
Si Si5 0.084524 0.635547 0.934762
Si Si6 0.472842 0.808773 0.829861
Si Si7 0.761785 0.673894 0.431425
O O1 0.884090 0.442045 0.570854
O O2 0.902948 0.381756 0.661519
O O3 0.890150 0.302844 0.574453
O O4 0.000000 0.430735 0.579203
O O5 0.709714 0.854857 0.911807
O O6 0.676853 0.913904 0.827385
O O7 0.626308 0.913222 0.930188
O O8 0.762887 0.000000 0.906296
O O9 0.912462 0.284651 0.276168
O O10 0.859405 0.355708 0.226561
O O11 0.000000 0.421193 0.257031
O O12 0.143765 0.856236 0.743827
O O13 0.000000 0.764002 0.749257
O O14 0.139504 0.640466 0.885860
O O15 0.000000 0.574800 0.922796
O O16 0.103350 0.625513 0.000000
O O17 0.385559 0.771117 0.828591
O O18 0.498929 0.749465 0.831509
O O19 0.772043 0.689039 0.500000
O O20 0.841965 0.683930 0.410077
O O21 0.724802 0.724802 0.409620
#
# Coordination Sequence:
#
# PCOD9587734 Si02
#       7
#    24  24  24  24  24  24  24
#     4   9  18  32  51  78 109 139 175 222 276 330
#     4   9  16  28  46  69  95 121 151 188 234 284
#     4  10  19  33  54  78 102 129 165 212 263 306
#     4   9  16  27  45  69  96 126 161 202 249 300
#     4  10  21  37  57  78  94 111 145 198 254 297
#     4  12  25  39  53  70  97 132 164 192 229 286
#     4   9  18  33  54  81 114 153 196 241 287 333
#
# _framework density 19.003969000000001
#
# number of rings (size 3 to 8) (size 9 to 14) (size 15 to 20)
#    0.000    2.286    1.429    1.857    0.000    4.571 
#    0.000    2.143    0.000    1.571    0.000    3.000 
#    0.000    0.000    0.000   10.714    0.000   11.143 
#
# Total GULP energy -936087.452504 kJ/mol
# GULP energy per Si atom -5571.949122 kJ/mol
# Density = 1.896071 g / cm^3
# Si number density = 19.003969 Si / 1000 Ang^3
#
#
#
# Elastic Constant Matrix: (Units=GPa)
#
#
# Indices 1 2 3 4 5 6 
#
# 1 99.3846 60.0728 22.3399 0.0000 0.0000 0.0000
# 2 60.0728 99.3846 22.3399 0.0000 0.0000 0.0000
# 3 22.3399 22.3399 51.7179 0.0000 0.0000 0.0000
# 4 0.0000 0.0000 0.0000 -30.5736 0.0000 0.0000
# 5 0.0000 0.0000 0.0000 0.0000 -30.5736 0.0000
# 6 0.0000 0.0000 0.0000 0.0000 0.0000 19.6559
#
#
#
# Elastic Compliance Matrix: (Units=1/GPa)
#
#
# Indices 1 2 3 4 5 6 
#
# 1 0.016286 -0.009151 -0.003082 0.000000 0.000000 0.000000
# 2 -0.009151 0.016286 -0.003082 0.000000 0.000000 0.000000
# 3 -0.003082 -0.003082 0.021998 0.000000 0.000000 0.000000
# 4 0.000000 0.000000 0.000000 -0.032708 0.000000 0.000000
# 5 0.000000 0.000000 0.000000 0.000000 -0.032708 0.000000
# 6 0.000000 0.000000 0.000000 0.000000 0.000000 0.050875
#
#
# Mechanical properties :
#
#
# Convention : Reuss Voigt Hill
#
# Bulk Modulus (GPa) = 41.77094 51.11027 46.44060
# Shear Modulus (GPa) = 63.58019 1.41736 32.49877
#
# Velocity S-wave (km/s) = 5.79041 0.86455 4.13983
# Velocity P-wave (km/s) = 8.16903 5.28673 6.88050
#
# Compressibility (1/GPa) = 0.02394009
#
# Stress axis : x y z
#
# Youngs Moduli (GPa) = 61.40145 61.40145 45.45828
#
# Poissons Ratio (x) = 0.56191 0.14010
# Poissons Ratio (y) = 0.56191 0.14010
# Poissons Ratio (z) = 0.18924 0.18924
#
# Static dielectric constant tensor:
#      x y z
#    x 1.606720 0.000000 0.000000 
#    y 0.000000 1.606720 0.000000 
#    z 0.000000 0.000000 1.692820 
# 
# From -- ./inp_files/9023.got.cif
#   From: 2010.05.17/outbox.cif.g08.bks.cpg/sg191_5_cif.got.tgz:9023.got - 2010.05.20 12:20:32.
