data_PCOD9587738
_publ_section_title
;
Structure prediction by ZEFSAII (Michael W. Deem and Ramdas Pophale) SiO2 
 PCOD9587738
Probable space group: P 6/M M M
;
_chemical_formula_sum "Si O2"
_cell_formula_units_Z 168
_cell_length_a 18.128243
_cell_length_b 18.128243
_cell_length_c 35.315117
_cell_angle_alpha 90.000000
_cell_angle_beta 90.000000
_cell_angle_gamma 120.000000
_cell_volume 10050.848094
_symmetry_space_group_name_H-M "P 6/M M M"
_symmetry_group_IT_number 191
_symmetry_cell_setting 'hexagonal'
loop_
_space_group_symop_operation_xyz
x,y,z
x-y,x,z
-y,x-y,z
-x,-y,z
-x+y,-x,z
y,-x+y,z
x-y,-y,-z
-x,-x+y,-z
y,x,-z
-y,-x,-z
-x+y,y,-z
x,x-y,-z
-x,-y,-z
-x+y,-x,-z
y,-x+y,-z
x,y,-z
x-y,x,-z
-y,x-y,-z
-x+y,y,z
x,x-y,z
-y,-x,z
y,x,z
x-y,-y,z
-x,-x+y,z
loop_
_atom_site_type_symbol
_atom_site_label
_atom_site_fract_x
_atom_site_fract_y
_atom_site_fract_z
Si Si1 0.505696 0.667574 0.820475
Si Si2 0.097568 0.195135 0.046024
Si Si3 0.803082 0.606164 0.954686
Si Si4 0.333729 0.839233 0.544135
Si Si5 0.667503 0.507735 0.681434
Si Si6 0.902883 0.268880 0.752125
Si Si7 0.096656 0.365068 0.611160
Si Si8 0.898967 0.535680 0.094120
O O1 0.478181 0.739091 0.816405
O O2 0.425850 0.574151 0.813044
O O3 0.581167 0.692693 0.790779
O O4 0.535839 0.669195 0.863410
O O5 0.147128 0.147128 0.059111
O O6 0.147018 0.294036 0.056196
O O7 0.095862 0.191723 0.000000
O O8 0.710408 0.563120 0.936232
O O9 0.799845 0.599689 0.000000
O O10 0.335796 0.862634 0.500000
O O11 0.424715 0.849429 0.554014
O O12 0.259688 0.740313 0.547954
O O13 0.306769 0.890666 0.572095
O O14 0.740610 0.481219 0.681514
O O15 0.574679 0.425322 0.681584
O O16 0.685200 0.567139 0.717994
O O17 0.684946 0.566486 0.644668
O O18 0.830570 0.169431 0.750451
O O19 0.000000 0.291491 0.749280
O O20 0.169224 0.338447 0.612911
O O21 0.000000 0.290322 0.614905
O O22 0.881389 0.440695 0.086955
O O23 0.000000 0.597806 0.092633
#
# Coordination Sequence:
#
# PCOD9587738 Si02
#       8
#    24  12  12  24  24  24  24  24
#     4  10  19  33  54  80 108 138 169 204 243 291
#     4   9  17  30  51  78 106 134 164 203 252 309
#     4  11  22  37  54  77 104 136 173 212 257 306
#     4   9  17  29  46  69  98 133 172 210 246 289
#     4  10  20  33  50  75 109 145 176 204 239 290
#     4  10  21  35  53  78 106 137 173 214 259 304
#     4  10  21  35  50  69  95 129 167 210 262 313
#     4  10  21  37  56  77 103 136 174 215 255 298
#
# _framework density 16.715007
#
# number of rings (size 3 to 8) (size 9 to 14) (size 15 to 20)
#    0.000    2.143    0.714    2.643    0.000    5.714 
#    0.429    4.286    0.000    0.286    0.000    0.000 
#    0.000    3.429    0.000    3.571    0.000    0.000 
#
# Total GULP energy -937681.637063 kJ/mol
# GULP energy per Si atom -5581.438316 kJ/mol
# Density = 1.667696 g / cm^3
# Si number density = 16.715007 Si / 1000 Ang^3
#
#
#
# Elastic Constant Matrix: (Units=GPa)
#
#
# Indices 1 2 3 4 5 6 
#
# 1 94.8539 81.6918 46.1283 0.0000 0.0000 0.0000
# 2 81.6918 94.8539 46.1283 0.0000 0.0000 0.0000
# 3 46.1283 46.1283 69.9635 0.0000 0.0000 0.0000
# 4 0.0000 0.0000 0.0000 12.0073 0.0000 0.0000
# 5 0.0000 0.0000 0.0000 0.0000 12.0073 0.0000
# 6 0.0000 0.0000 0.0000 0.0000 0.0000 6.5811
#
#
#
# Elastic Compliance Matrix: (Units=1/GPa)
#
#
# Indices 1 2 3 4 5 6 
#
# 1 0.042309 -0.033667 -0.005698 0.000000 0.000000 0.000000
# 2 -0.033667 0.042309 -0.005698 0.000000 0.000000 0.000000
# 3 -0.005698 -0.005698 0.021806 0.000000 0.000000 0.000000
# 4 0.000000 0.000000 0.000000 0.083282 0.000000 0.000000
# 5 0.000000 0.000000 0.000000 0.000000 0.083282 0.000000
# 6 0.000000 0.000000 0.000000 0.000000 0.000000 0.151951
#
#
# Mechanical properties :
#
#
# Convention : Reuss Voigt Hill
#
# Bulk Modulus (GPa) = 61.35302 67.50755 64.43029
# Shear Modulus (GPa) = 9.60621 11.83401 10.72011
#
# Velocity S-wave (km/s) = 2.39990 2.66369 2.53523
# Velocity P-wave (km/s) = 6.66816 7.06650 6.87022
#
# Compressibility (1/GPa) = 0.01629912
#
# Stress axis : x y z
#
# Youngs Moduli (GPa) = 23.63588 23.63588 45.85844
#
# Poissons Ratio (x) = 0.79575 0.26128
# Poissons Ratio (y) = 0.79575 0.26128
# Poissons Ratio (z) = 0.13467 0.13467
#
# Static dielectric constant tensor:
#      x y z
#    x 1.547990 0.000000 0.000000 
#    y 0.000000 1.547990 0.000000 
#    z 0.000000 0.000000 1.562760 
# 
# From -- ./inp_files/10776.got.cif
#   From: 2010.05.17/outbox.cif.g08.bks.cpg/sg191_6_cif.got.tgz:10776.got - 2010.05.20 12:20:32.
