data_PCOD9587427
_publ_section_title
;
Structure prediction by ZEFSAII (Michael W. Deem and Ramdas Pophale) SiO2 
 PCOD9587427
Probable space group: P 6/M M M
;
_chemical_formula_sum "Si O2"
_cell_formula_units_Z 120
_cell_length_a 26.219351
_cell_length_b 26.219351
_cell_length_c 12.953100
_cell_angle_alpha 90.000000
_cell_angle_beta 90.000000
_cell_angle_gamma 120.000000
_cell_volume 7711.666240
_symmetry_space_group_name_H-M "P 6/M M M"
_symmetry_group_IT_number 191
_symmetry_cell_setting 'hexagonal'
loop_
_space_group_symop_operation_xyz
x,y,z
x-y,x,z
-y,x-y,z
-x,-y,z
-x+y,-x,z
y,-x+y,z
x-y,-y,-z
-x,-x+y,-z
y,x,-z
-y,-x,-z
-x+y,y,-z
x,x-y,-z
-x,-y,-z
-x+y,-x,-z
y,-x+y,-z
x,y,-z
x-y,x,-z
-y,x-y,-z
-x+y,y,z
x,x-y,z
-y,-x,z
y,x,z
x-y,-y,z
-x,-x+y,z
loop_
_atom_site_type_symbol
_atom_site_label
_atom_site_fract_x
_atom_site_fract_y
_atom_site_fract_z
Si Si1 0.537919 0.829922 0.119133
Si Si2 0.706483 0.169787 0.500000
Si Si3 0.103156 0.329368 0.500000
Si Si4 0.068877 0.736371 0.120054
Si Si5 0.788712 0.333900 0.307317
Si Si6 0.184979 0.251821 0.300309
O O1 0.548799 0.774400 0.127143
O O2 0.599310 0.887887 0.145698
O O3 0.486558 0.816603 0.199053
O O4 0.522863 0.833709 0.000000
O O5 0.769949 0.230052 0.500000
O O6 0.720459 0.116716 0.500000
O O7 0.673948 0.174166 0.601349
O O8 0.166759 0.333517 0.500000
O O9 0.072133 0.293095 0.602749
O O10 0.079214 0.788121 0.197710
O O11 0.000000 0.687800 0.129092
O O12 0.080318 0.755875 0.000000
O O13 0.786730 0.393365 0.318411
O O14 0.722786 0.277215 0.312648
O O15 0.117273 0.234545 0.312045
O O16 0.198623 0.198623 0.295800
#
# Coordination Sequence:
#
# PCOD9587427 Si02
#       6
#    24  12  12  24  24  24
#     4   9  17  29  45  64  87 116 148 184 228 274
#     4   9  17  28  44  65  87 112 141 175 220 271
#     4   9  17  30  47  67  90 115 145 182 225 270
#     4   9  17  29  47  71  95 118 146 183 229 279
#     4  10  19  30  44  63  88 118 151 186 223 265
#     4  10  19  30  46  69  97 126 154 186 224 265
#
# _framework density 15.560840000000001
#
# number of rings (size 3 to 8) (size 9 to 14) (size 15 to 20)
#    0.000    2.600    0.000    2.600    0.000    4.800 
#    0.000    1.000    0.000    2.000    0.000    2.800 
#    0.000   10.400    0.000    5.000    0.000    0.000 
#
# Total GULP energy -668747.874900 kJ/mol
# GULP energy per Si atom -5572.898957 kJ/mol
# Density = 1.552542 g / cm^3
# Si number density = 15.560840 Si / 1000 Ang^3
#
#
#
# Elastic Constant Matrix: (Units=GPa)
#
#
# Indices 1 2 3 4 5 6 
#
# 1 71.3361 29.6127 29.5557 0.0000 0.0000 0.0000
# 2 29.6127 71.3361 29.5557 0.0000 0.0000 0.0000
# 3 29.5557 29.5557 62.0325 0.0000 0.0000 0.0000
# 4 0.0000 0.0000 0.0000 14.9107 0.0000 0.0000
# 5 0.0000 0.0000 0.0000 0.0000 14.9107 0.0000
# 6 0.0000 0.0000 0.0000 0.0000 0.0000 20.8617
#
#
#
# Elastic Compliance Matrix: (Units=1/GPa)
#
#
# Indices 1 2 3 4 5 6 
#
# 1 0.018853 -0.005114 -0.006546 0.000000 0.000000 0.000000
# 2 -0.005114 0.018853 -0.006546 0.000000 0.000000 0.000000
# 3 -0.006546 -0.006546 0.022358 0.000000 0.000000 0.000000
# 4 0.000000 0.000000 0.000000 0.067066 0.000000 0.000000
# 5 0.000000 0.000000 0.000000 0.000000 0.067066 0.000000
# 6 0.000000 0.000000 0.000000 0.000000 0.000000 0.047935
#
#
# Mechanical properties :
#
#
# Convention : Reuss Voigt Hill
#
# Bulk Modulus (GPa) = 42.27913 42.46146 42.37029
# Shear Modulus (GPa) = 17.45640 17.86866 17.66253
#
# Velocity S-wave (km/s) = 3.35299 3.39235 3.37272
# Velocity P-wave (km/s) = 6.49763 6.53381 6.51575
#
# Compressibility (1/GPa) = 0.02365233
#
# Stress axis : x y z
#
# Youngs Moduli (GPa) = 53.04122 53.04122 44.72588
#
# Poissons Ratio (x) = 0.27126 0.29278
# Poissons Ratio (y) = 0.27126 0.29278
# Poissons Ratio (z) = 0.34721 0.34721
#
# Static dielectric constant tensor:
#      x y z
#    x 1.500960 0.000000 0.000000 
#    y 0.000000 1.500960 0.000000 
#    z 0.000000 0.000000 1.539330 
# 
# From -- ./inp_files/3253.got.cif
#   From: 2010.05.17/outbox.cif.g08.bks.cpg/sg191_2_cif.got.tgz:3253.got - 2010.05.20 12:20:32.
