data_PCOD9587037
_publ_section_title
;
Structure prediction by ZEFSAII (Michael W. Deem and Ramdas Pophale) SiO2 
 PCOD9587037
Probable space group: P 6/M M M
;
_chemical_formula_sum "Si O2"
_cell_formula_units_Z 96
_cell_length_a 33.328103
_cell_length_b 33.328103
_cell_length_c 7.927831
_cell_angle_alpha 90.000000
_cell_angle_beta 90.000000
_cell_angle_gamma 120.000000
_cell_volume 7626.165130
_symmetry_space_group_name_H-M "P 6/M M M"
_symmetry_group_IT_number 191
_symmetry_cell_setting 'hexagonal'
loop_
_space_group_symop_operation_xyz
x,y,z
x-y,x,z
-y,x-y,z
-x,-y,z
-x+y,-x,z
y,-x+y,z
x-y,-y,-z
-x,-x+y,-z
y,x,-z
-y,-x,-z
-x+y,y,-z
x,x-y,-z
-x,-y,-z
-x+y,-x,-z
y,-x+y,-z
x,y,-z
x-y,x,-z
-y,x-y,-z
-x+y,y,z
x,x-y,z
-y,-x,z
y,x,z
x-y,-y,z
-x,-x+y,z
loop_
_atom_site_type_symbol
_atom_site_label
_atom_site_fract_x
_atom_site_fract_y
_atom_site_fract_z
Si Si1 0.947903 0.801447 0.500000
Si Si2 0.943629 0.370771 0.811462
Si Si3 0.056557 0.574493 0.500000
Si Si4 0.087037 0.818757 0.191104
Si Si5 0.717289 0.662714 0.702598
O O1 0.906896 0.813791 0.500000
O O2 0.940274 0.769681 0.664639
O O3 0.000000 0.843640 0.500000
O O4 0.928429 0.393552 0.665775
O O5 0.929884 0.318122 0.771151
O O6 0.000000 0.398966 0.807259
O O7 0.929177 0.374995 0.000000
O O8 0.071392 0.535696 0.500000
O O9 0.000000 0.546274 0.500000
O O10 0.140106 0.859895 0.205954
O O11 0.080994 0.768696 0.224832
O O12 0.071382 0.820193 0.000000
O O13 0.718740 0.660485 0.500000
O O14 0.694880 0.694880 0.745264
#
# Coordination Sequence:
#
# PCOD9587037 Si02
#       5
#    12  24  12  24  24
#     4  10  20  33  47  63  82 102 123 148 180 222
#     4   9  16  25  36  50  68  91 120 151 183 219
#     4   9  16  25  35  48  67  88 114 151 191 227
#     4  10  20  31  43  61  83 104 125 150 183 224
#     4  10  17  26  41  57  74  98 125 153 184 218
#
# _framework density 12.588240000000001
#
# number of rings (size 3 to 8) (size 9 to 14) (size 15 to 20)
#    0.000    2.375    2.500    1.500    0.000    3.500 
#    0.000    2.500    0.000    0.125    0.000    0.000 
#    0.000    0.000    0.000    6.250    0.000    0.000 
#
# Total GULP energy -534890.758435 kJ/mol
# GULP energy per Si atom -5571.778734 kJ/mol
# Density = 1.255959 g / cm^3
# Si number density = 12.588240 Si / 1000 Ang^3
#
#
#
# Elastic Constant Matrix: (Units=GPa)
#
#
# Indices 1 2 3 4 5 6 
#
# 1 60.1940 25.3645 38.4452 0.0000 0.0000 0.0000
# 2 25.3645 60.1940 38.4452 0.0000 0.0000 0.0000
# 3 38.4452 38.4452 106.4693 0.0000 0.0000 0.0000
# 4 0.0000 0.0000 0.0000 5.0589 0.0000 0.0000
# 5 0.0000 0.0000 0.0000 0.0000 5.0589 0.0000
# 6 0.0000 0.0000 0.0000 0.0000 0.0000 17.4148
#
#
#
# Elastic Compliance Matrix: (Units=1/GPa)
#
#
# Indices 1 2 3 4 5 6 
#
# 1 0.023007 -0.005704 -0.006248 0.000000 0.000000 0.000000
# 2 -0.005704 0.023007 -0.006248 0.000000 0.000000 0.000000
# 3 -0.006248 -0.006248 0.013905 0.000000 0.000000 0.000000
# 4 0.000000 0.000000 0.000000 0.197672 0.000000 0.000000
# 5 0.000000 0.000000 0.000000 0.000000 0.197672 0.000000
# 6 0.000000 0.000000 0.000000 0.000000 0.000000 0.057423
#
#
# Mechanical properties :
#
#
# Convention : Reuss Voigt Hill
#
# Bulk Modulus (GPa) = 42.51963 47.92967 45.22465
# Shear Modulus (GPa) = 8.97787 13.81333 11.39560
#
# Velocity S-wave (km/s) = 2.67347 3.31618 3.01201
# Velocity P-wave (km/s) = 6.58639 7.26776 6.93545
#
# Compressibility (1/GPa) = 0.02351855
#
# Stress axis : x y z
#
# Youngs Moduli (GPa) = 43.46492 43.46492 71.91907
#
# Poissons Ratio (x) = 0.24793 0.44934
# Poissons Ratio (y) = 0.24793 0.44934
# Poissons Ratio (z) = 0.27157 0.27157
#
# Static dielectric constant tensor:
#      x y z
#    x 1.390090 0.000000 0.000000 
#    y 0.000000 1.390090 0.000000 
#    z 0.000000 0.000000 1.444040 
# 
# From -- ./inp_files/1601.got.cif
#   From: 2010.05.17/outbox.cif.g08.bks.cpg/sg191_1_cif.got.tgz:1601.got - 2010.05.20 12:20:32.
