data_PCOD9587144
_publ_section_title
;
Structure prediction by ZEFSAII (Michael W. Deem and Ramdas Pophale) SiO2 
 PCOD9587144
Probable space group: P 6/M M M
;
_chemical_formula_sum "Si O2"
_cell_formula_units_Z 144
_cell_length_a 22.780828
_cell_length_b 22.780828
_cell_length_c 21.001580
_cell_angle_alpha 90.000000
_cell_angle_beta 90.000000
_cell_angle_gamma 120.000000
_cell_volume 9438.904907
_symmetry_space_group_name_H-M "P 6/M M M"
_symmetry_group_IT_number 191
_symmetry_cell_setting 'hexagonal'
loop_
_space_group_symop_operation_xyz
x,y,z
x-y,x,z
-y,x-y,z
-x,-y,z
-x+y,-x,z
y,-x+y,z
x-y,-y,-z
-x,-x+y,-z
y,x,-z
-y,-x,-z
-x+y,y,-z
x,x-y,-z
-x,-y,-z
-x+y,-x,-z
y,-x+y,-z
x,y,-z
x-y,x,-z
-y,x-y,-z
-x+y,y,z
x,x-y,z
-y,-x,z
y,x,z
x-y,-y,z
-x,-x+y,z
loop_
_atom_site_type_symbol
_atom_site_label
_atom_site_fract_x
_atom_site_fract_y
_atom_site_fract_z
Si Si1 0.807826 0.473406 0.691235
Si Si2 0.211041 0.287326 0.615120
Si Si3 0.433603 0.287888 0.810969
Si Si4 0.075378 0.285662 0.231173
Si Si5 0.666182 0.472608 0.073927
Si Si6 0.852349 0.562246 0.429358
O O1 0.733744 0.467487 0.691357
O O2 0.800342 0.400171 0.695119
O O3 0.848260 0.519361 0.751589
O O4 0.846042 0.512456 0.627011
O O5 0.136146 0.272291 0.596080
O O6 0.231106 0.231106 0.597963
O O7 0.215278 0.295157 0.692042
O O8 0.265430 0.359778 0.586365
O O9 0.431807 0.215904 0.809900
O O10 0.356148 0.266830 0.799697
O O11 0.469520 0.323448 0.876549
O O12 0.136033 0.272066 0.212593
O O13 0.000000 0.226804 0.215736
O O14 0.730496 0.460992 0.081854
O O15 0.597237 0.402764 0.087071
O O16 0.665580 0.491029 0.000000
O O17 0.863798 0.543663 0.500000
O O18 0.779901 0.559801 0.429412
#
# Coordination Sequence:
#
# PCOD9587144 Si02
#       6
#    24  24  24  24  24  24
#     4  10  18  28  42  61  84 111 146 189 234 274
#     4   9  16  28  47  69  90 112 141 176 213 254
#     4   9  16  27  43  63  87 116 151 187 220 257
#     4   9  16  28  48  71  92 114 143 179 215 253
#     4   9  16  25  39  61  90 122 155 192 234 275
#     4   9  17  29  43  59  82 113 147 182 221 263
#
# _framework density 15.256008
#
# number of rings (size 3 to 8) (size 9 to 14) (size 15 to 20)
#    0.000    2.833    1.667    0.833    0.000    1.333 
#    0.000    1.667    0.000    5.333    0.000    4.667 
#    0.000    0.000    0.000    4.167    0.000    4.333 
#
# Total GULP energy -801785.617501 kJ/mol
# GULP energy per Si atom -5567.955677 kJ/mol
# Density = 1.522128 g / cm^3
# Si number density = 15.256008 Si / 1000 Ang^3
#
#
#
# Elastic Constant Matrix: (Units=GPa)
#
#
# Indices 1 2 3 4 5 6 
#
# 1 66.7949 30.9738 29.9149 0.0000 0.0000 0.0000
# 2 30.9738 66.7949 29.9149 0.0000 0.0000 0.0000
# 3 29.9149 29.9149 63.6064 0.0000 0.0000 0.0000
# 4 0.0000 0.0000 0.0000 11.0855 0.0000 0.0000
# 5 0.0000 0.0000 0.0000 0.0000 11.0855 0.0000
# 6 0.0000 0.0000 0.0000 0.0000 0.0000 17.9106
#
#
#
# Elastic Compliance Matrix: (Units=1/GPa)
#
#
# Indices 1 2 3 4 5 6 
#
# 1 0.021139 -0.006777 -0.006754 0.000000 0.000000 0.000000
# 2 -0.006777 0.021139 -0.006754 0.000000 0.000000 0.000000
# 3 -0.006754 -0.006754 0.022075 0.000000 0.000000 0.000000
# 4 0.000000 0.000000 0.000000 0.090208 0.000000 0.000000
# 5 0.000000 0.000000 0.000000 0.000000 0.090208 0.000000
# 6 0.000000 0.000000 0.000000 0.000000 0.000000 0.055833
#
#
# Mechanical properties :
#
#
# Convention : Reuss Voigt Hill
#
# Bulk Modulus (GPa) = 42.05119 42.08926 42.07023
# Shear Modulus (GPa) = 14.32249 15.10917 14.71583
#
# Velocity S-wave (km/s) = 3.06732 3.15044 3.10916
# Velocity P-wave (km/s) = 6.33784 6.39392 6.36594
#
# Compressibility (1/GPa) = 0.02378054
#
# Stress axis : x y z
#
# Youngs Moduli (GPa) = 47.30584 47.30584 45.29989
#
# Poissons Ratio (x) = 0.32061 0.30598
# Poissons Ratio (y) = 0.32061 0.30598
# Poissons Ratio (z) = 0.31953 0.31953
#
# Static dielectric constant tensor:
#      x y z
#    x 1.496840 0.000000 0.000000 
#    y 0.000000 1.496840 0.000000 
#    z 0.000000 0.000000 1.524070 
# 
# From -- ./inp_files/7589.got.cif
#   From: 2010.05.17/outbox.cif.g08.bks.cpg/sg191_4_cif.got.tgz:7589.got - 2010.05.20 12:20:32.
