data_PCOD9587882
_publ_section_title
;
Structure prediction by ZEFSAII (Michael W. Deem and Ramdas Pophale) SiO2 
 PCOD9587882
Probable space group: P 6/M M M
;
_chemical_formula_sum "Si O2"
_cell_formula_units_Z 132
_cell_length_a 30.482978
_cell_length_b 30.482978
_cell_length_c 11.524059
_cell_angle_alpha 90.000000
_cell_angle_beta 90.000000
_cell_angle_gamma 120.000000
_cell_volume 9273.654037
_symmetry_space_group_name_H-M "P 6/M M M"
_symmetry_group_IT_number 191
_symmetry_cell_setting 'hexagonal'
loop_
_space_group_symop_operation_xyz
x,y,z
x-y,x,z
-y,x-y,z
-x,-y,z
-x+y,-x,z
y,-x+y,z
x-y,-y,-z
-x,-x+y,-z
y,x,-z
-y,-x,-z
-x+y,y,-z
x,x-y,-z
-x,-y,-z
-x+y,-x,-z
y,-x+y,-z
x,y,-z
x-y,x,-z
-y,x-y,-z
-x+y,y,z
x,x-y,z
-y,-x,z
y,x,z
x-y,-y,z
-x,-x+y,z
loop_
_atom_site_type_symbol
_atom_site_label
_atom_site_fract_x
_atom_site_fract_y
_atom_site_fract_z
Si Si1 0.358359 0.000000 0.863104
Si Si2 0.740329 0.157055 0.863372
Si Si3 0.746883 0.746883 0.136176
Si Si4 0.633189 0.059837 0.500000
Si Si5 0.543227 0.905746 0.245813
Si Si6 0.529953 0.059905 0.139107
Si Si7 0.679149 0.738794 0.500000
Si Si8 0.795042 0.692950 0.258037
O O1 0.355471 0.951671 0.802636
O O2 0.306197 0.000000 0.848508
O O3 0.368696 0.000000 0.000000
O O4 0.784897 0.215104 0.851947
O O5 0.689399 0.143142 0.794045
O O6 0.763946 0.123615 0.813706
O O7 0.728697 0.145245 0.000000
O O8 0.787884 0.736073 0.195846
O O9 0.756395 0.756395 0.000000
O O10 0.630201 0.086476 0.616776
O O11 0.687584 0.062724 0.500000
O O12 0.591311 0.000000 0.500000
O O13 0.499937 0.913256 0.187622
O O14 0.500000 0.000000 0.173311
O O15 0.530728 0.061455 0.000000
O O16 0.720538 0.720538 0.500000
O O17 0.684303 0.770357 0.615037
O O18 0.852397 0.704793 0.263783
#
# Coordination Sequence:
#
# PCOD9587882 Si02
#       8
#    12  24  12  12  24  12  12  24
#     4  11  18  28  47  65  90 125 158 192 234 277
#     4  10  20  33  49  69  94 122 155 198 243 284
#     4  11  20  31  48  69  93 129 164 199 245 286
#     4  11  20  32  47  66  95 134 167 195 231 288
#     4  12  21  34  48  68  95 127 161 197 238 284
#     4  11  22  33  49  73  95 120 160 202 238 288
#     4  11  19  33  50  66  91 128 169 200 235 284
#     4  11  21  32  47  70  94 123 165 205 238 279
#
# _framework density 14.233871000000001
#
# number of rings (size 3 to 8) (size 9 to 14) (size 15 to 20)
#    0.000    1.000    6.364    2.455    0.000    1.455 
#    0.000    1.364    0.000    0.000    0.000    0.000 
#    0.909    0.000    1.091    0.273    0.909    2.364 
#
# Total GULP energy -737238.788979 kJ/mol
# GULP energy per Si atom -5585.142341 kJ/mol
# Density = 1.420147 g / cm^3
# Si number density = 14.233871 Si / 1000 Ang^3
#
#
#
# Elastic Constant Matrix: (Units=GPa)
#
#
# Indices 1 2 3 4 5 6 
#
# 1 67.6560 32.7427 35.8050 0.0000 0.0000 0.0000
# 2 32.7427 67.6560 35.8050 0.0000 0.0000 0.0000
# 3 35.8050 35.8050 109.1466 0.0000 0.0000 0.0000
# 4 0.0000 0.0000 0.0000 9.7277 0.0000 0.0000
# 5 0.0000 0.0000 0.0000 0.0000 9.7277 0.0000
# 6 0.0000 0.0000 0.0000 0.0000 0.0000 17.4567
#
#
#
# Elastic Compliance Matrix: (Units=1/GPa)
#
#
# Indices 1 2 3 4 5 6 
#
# 1 0.020822 -0.007820 -0.004265 0.000000 0.000000 0.000000
# 2 -0.007820 0.020822 -0.004265 0.000000 0.000000 0.000000
# 3 -0.004265 -0.004265 0.011961 0.000000 0.000000 0.000000
# 4 0.000000 0.000000 0.000000 0.102799 0.000000 0.000000
# 5 0.000000 0.000000 0.000000 0.000000 0.102799 0.000000
# 6 0.000000 0.000000 0.000000 0.000000 0.000000 0.057285
#
#
# Mechanical properties :
#
#
# Convention : Reuss Voigt Hill
#
# Bulk Modulus (GPa) = 47.83773 50.35154 49.09463
# Shear Modulus (GPa) = 14.03871 16.72281 15.38076
#
# Velocity S-wave (km/s) = 3.14393 3.43134 3.29078
# Velocity P-wave (km/s) = 6.84547 7.15193 7.00037
#
# Compressibility (1/GPa) = 0.02090400
#
# Stress axis : x y z
#
# Youngs Moduli (GPa) = 48.02497 48.02497 83.60844
#
# Poissons Ratio (x) = 0.37555 0.35663
# Poissons Ratio (y) = 0.37555 0.35663
# Poissons Ratio (z) = 0.20485 0.20485
#
# Static dielectric constant tensor:
#      x y z
#    x 1.463640 0.000000 0.000000 
#    y 0.000000 1.463640 0.000000 
#    z 0.000000 0.000000 1.486210 
# 
# From -- ./inp_files/3544.got.cif
#   From: 2010.05.17/outbox.cif.g08.bks.cpg/sg191_2_cif.got.tgz:3544.got - 2010.05.20 12:20:32.
