data_PCOD9587763
_publ_section_title
;
Structure prediction by ZEFSAII (Michael W. Deem and Ramdas Pophale) SiO2 
 PCOD9587763
Probable space group: P 6/M M M
;
_chemical_formula_sum "Si O2"
_cell_formula_units_Z 120
_cell_length_a 18.056888
_cell_length_b 18.056888
_cell_length_c 25.123846
_cell_angle_alpha 90.000000
_cell_angle_beta 90.000000
_cell_angle_gamma 120.000000
_cell_volume 7094.185870
_symmetry_space_group_name_H-M "P 6/M M M"
_symmetry_group_IT_number 191
_symmetry_cell_setting 'hexagonal'
loop_
_space_group_symop_operation_xyz
x,y,z
x-y,x,z
-y,x-y,z
-x,-y,z
-x+y,-x,z
y,-x+y,z
x-y,-y,-z
-x,-x+y,-z
y,x,-z
-y,-x,-z
-x+y,y,-z
x,x-y,-z
-x,-y,-z
-x+y,-x,-z
y,-x+y,-z
x,y,-z
x-y,x,-z
-y,x-y,-z
-x+y,y,z
x,x-y,z
-y,-x,z
y,x,z
x-y,-y,z
-x,-x+y,z
loop_
_atom_site_type_symbol
_atom_site_label
_atom_site_fract_x
_atom_site_fract_y
_atom_site_fract_z
Si Si1 0.266958 0.899265 0.261184
Si Si2 0.099184 0.900817 0.564843
Si Si3 0.800899 0.199102 0.436417
Si Si4 0.535006 0.636278 0.632709
Si Si5 0.364209 0.265079 0.061551
Si Si6 0.896699 0.531618 0.158954
O O1 0.166249 0.833752 0.265673
O O2 0.314318 0.886405 0.311748
O O3 0.302196 0.875974 0.208529
O O4 0.297311 0.000000 0.258910
O O5 0.098473 0.901528 0.500000
O O6 0.148955 0.851046 0.580712
O O7 0.000000 0.850674 0.582172
O O8 0.799661 0.200340 0.500000
O O9 0.849592 0.293539 0.412101
O O10 0.435980 0.564021 0.636792
O O11 0.587074 0.587074 0.621306
O O12 0.329423 0.164712 0.068359
O O13 0.294942 0.294942 0.071646
O O14 0.440320 0.314981 0.103374
O O15 0.392220 0.286872 0.000000
O O16 0.862214 0.431107 0.164047
O O17 0.000000 0.577936 0.159584
#
# Coordination Sequence:
#
# PCOD9587763 Si02
#       6
#    24  12  12  24  24  24
#     4  10  19  34  57  82 107 136 173 216 260 306
#     4   9  17  30  51  80 112 142 172 208 251 300
#     4  11  22  37  56  79 106 138 174 213 256 315
#     4  10  21  38  58  78 102 135 174 216 262 311
#     4   9  17  29  46  70 102 140 180 220 262 310
#     4   9  17  29  48  74 100 128 167 214 259 304
#
# _framework density 16.915261000000001
#
# number of rings (size 3 to 8) (size 9 to 14) (size 15 to 20)
#    0.000    2.400    1.000    1.900    0.000    4.800 
#    0.600    3.000    0.000    4.800    0.000    1.400 
#    0.000    4.800    0.000    0.200    0.000    0.000 
#
# Total GULP energy -668792.723496 kJ/mol
# GULP energy per Si atom -5573.272696 kJ/mol
# Density = 1.687676 g / cm^3
# Si number density = 16.915261 Si / 1000 Ang^3
#
#
#
# Elastic Constant Matrix: (Units=GPa)
#
#
# Indices 1 2 3 4 5 6 
#
# 1 98.7833 66.4923 44.6046 0.0000 0.0000 0.0000
# 2 66.4923 98.7833 44.6046 0.0000 0.0000 0.0000
# 3 44.6046 44.6046 86.0361 0.0000 0.0000 0.0000
# 4 0.0000 0.0000 0.0000 17.6109 0.0000 0.0000
# 5 0.0000 0.0000 0.0000 0.0000 17.6109 0.0000
# 6 0.0000 0.0000 0.0000 0.0000 0.0000 16.1455
#
#
#
# Elastic Compliance Matrix: (Units=1/GPa)
#
#
# Indices 1 2 3 4 5 6 
#
# 1 0.019685 -0.011283 -0.004356 0.000000 0.000000 0.000000
# 2 -0.011283 0.019685 -0.004356 0.000000 0.000000 0.000000
# 3 -0.004356 -0.004356 0.016139 0.000000 0.000000 0.000000
# 4 0.000000 0.000000 0.000000 0.056783 0.000000 0.000000
# 5 0.000000 0.000000 0.000000 0.000000 0.056783 0.000000
# 6 0.000000 0.000000 0.000000 0.000000 0.000000 0.061937
#
#
# Mechanical properties :
#
#
# Convention : Reuss Voigt Hill
#
# Bulk Modulus (GPa) = 64.43446 66.11174 65.27310
# Shear Modulus (GPa) = 18.10448 18.80022 18.45235
#
# Velocity S-wave (km/s) = 3.27510 3.33744 3.30642
# Velocity P-wave (km/s) = 7.24409 7.34985 7.29716
#
# Compressibility (1/GPa) = 0.01551965
#
# Stress axis : x y z
#
# Youngs Moduli (GPa) = 50.80020 50.80020 61.96032
#
# Poissons Ratio (x) = 0.57320 0.26988
# Poissons Ratio (y) = 0.57320 0.26988
# Poissons Ratio (z) = 0.22127 0.22127
#
# Static dielectric constant tensor:
#      x y z
#    x 1.566430 0.000000 0.000000 
#    y 0.000000 1.566430 0.000000 
#    z 0.000000 0.000000 1.577850 
# 
# From -- ./inp_files/8634.got.cif
#   From: 2010.05.17/outbox.cif.g08.bks.cpg/sg191_5_cif.got.tgz:8634.got - 2010.05.20 12:20:32.
