data_PCOD9587367
_publ_section_title
;
Structure prediction by ZEFSAII (Michael W. Deem and Ramdas Pophale) SiO2 
 PCOD9587367
Probable space group: P 6/M M M
;
_chemical_formula_sum "Si O2"
_cell_formula_units_Z 144
_cell_length_a 21.953986
_cell_length_b 21.953986
_cell_length_c 24.794939
_cell_angle_alpha 90.000000
_cell_angle_beta 90.000000
_cell_angle_gamma 120.000000
_cell_volume 10349.525567
_symmetry_space_group_name_H-M "P 6/M M M"
_symmetry_group_IT_number 191
_symmetry_cell_setting 'hexagonal'
loop_
_space_group_symop_operation_xyz
x,y,z
x-y,x,z
-y,x-y,z
-x,-y,z
-x+y,-x,z
y,-x+y,z
x-y,-y,-z
-x,-x+y,-z
y,x,-z
-y,-x,-z
-x+y,y,-z
x,x-y,-z
-x,-y,-z
-x+y,-x,-z
y,-x+y,-z
x,y,-z
x-y,x,-z
-y,x-y,-z
-x+y,y,z
x,x-y,z
-y,-x,z
y,x,z
x-y,-y,z
-x,-x+y,z
loop_
_atom_site_type_symbol
_atom_site_label
_atom_site_fract_x
_atom_site_fract_y
_atom_site_fract_z
Si Si1 0.273303 0.873597 0.560304
Si Si2 0.578023 0.660380 0.725869
Si Si3 0.811314 0.478187 0.061521
Si Si4 0.918211 0.531702 0.843750
Si Si5 0.188422 0.665055 0.638550
Si Si6 0.779054 0.701045 0.340097
O O1 0.292880 0.903016 0.500000
O O2 0.199766 0.800235 0.556906
O O3 0.326982 0.852841 0.587446
O O4 0.257425 0.917654 0.604119
O O5 0.601575 0.601575 0.716761
O O6 0.558889 0.656738 0.788475
O O7 0.513579 0.650119 0.689038
O O8 0.644417 0.733550 0.706123
O O9 0.739133 0.478266 0.069696
O O10 0.797772 0.398886 0.065822
O O11 0.868112 0.523024 0.106697
O O12 0.835942 0.501891 0.000000
O O13 0.910177 0.455088 0.833139
O O14 0.000000 0.583067 0.857427
O O15 0.204220 0.602110 0.631877
O O16 0.260218 0.739783 0.645717
O O17 0.858442 0.716883 0.339499
O O18 0.766465 0.766465 0.334724
#
# Coordination Sequence:
#
# PCOD9587367 Si02
#       6
#    24  24  24  24  24  24
#     4   8  15  28  43  58  77 102 133 166 196 227
#     4   9  17  30  46  61  78 102 134 171 208 242
#     4   9  17  28  41  57  78 105 135 165 198 237
#     4   9  17  28  42  60  80 102 131 168 207 244
#     4  10  19  29  41  58  82 110 138 169 206 249
#     4   9  17  29  46  66  86 108 133 163 199 238
#
# _framework density 13.913682
#
# number of rings (size 3 to 8) (size 9 to 14) (size 15 to 20)
#    0.000    3.000    0.000    2.333    0.000    4.000 
#    0.000    1.667    0.000    3.167    0.000    4.667 
#    0.000    0.000    0.000    4.167    0.000    0.000 
#
# Total GULP energy -801640.912632 kJ/mol
# GULP energy per Si atom -5566.950782 kJ/mol
# Density = 1.388201 g / cm^3
# Si number density = 13.913682 Si / 1000 Ang^3
#
#
#
# Elastic Constant Matrix: (Units=GPa)
#
#
# Indices 1 2 3 4 5 6 
#
# 1 65.4273 33.7131 48.2630 0.0000 0.0000 0.0000
# 2 33.7131 65.4273 48.2630 0.0000 0.0000 0.0000
# 3 48.2630 48.2630 119.6768 0.0000 0.0000 0.0000
# 4 0.0000 0.0000 0.0000 14.3370 0.0000 0.0000
# 5 0.0000 0.0000 0.0000 0.0000 14.3370 0.0000
# 6 0.0000 0.0000 0.0000 0.0000 0.0000 15.8571
#
#
#
# Elastic Compliance Matrix: (Units=1/GPa)
#
#
# Indices 1 2 3 4 5 6 
#
# 1 0.024070 -0.007462 -0.006697 0.000000 0.000000 0.000000
# 2 -0.007462 0.024070 -0.006697 0.000000 0.000000 0.000000
# 3 -0.006697 -0.006697 0.013758 0.000000 0.000000 0.000000
# 4 0.000000 0.000000 0.000000 0.069749 0.000000 0.000000
# 5 0.000000 0.000000 0.000000 0.000000 0.069749 0.000000
# 6 0.000000 0.000000 0.000000 0.000000 0.000000 0.063063
#
#
# Mechanical properties :
#
#
# Convention : Reuss Voigt Hill
#
# Bulk Modulus (GPa) = 49.54672 56.77886 53.16279
# Shear Modulus (GPa) = 15.97953 16.92573 16.45263
#
# Velocity S-wave (km/s) = 3.39259 3.49159 3.44245
# Velocity P-wave (km/s) = 7.14378 7.55986 7.35476
#
# Compressibility (1/GPa) = 0.02018297
#
# Stress axis : x y z
#
# Youngs Moduli (GPa) = 41.54625 41.54625 72.68650
#
# Poissons Ratio (x) = 0.31002 0.48681
# Poissons Ratio (y) = 0.31002 0.48681
# Poissons Ratio (z) = 0.27825 0.27825
#
# Static dielectric constant tensor:
#      x y z
#    x 1.449680 0.000000 0.000000 
#    y 0.000000 1.449680 0.000000 
#    z 0.000000 0.000000 1.464300 
# 
# From -- ./inp_files/9938.got.cif
#   From: 2010.05.17/outbox.cif.g08.bks.cpg/sg191_5_cif.got.tgz:9938.got - 2010.05.20 12:20:32.
