data_PCOD9587287
_publ_section_title
;
Structure prediction by ZEFSAII (Michael W. Deem and Ramdas Pophale) SiO2 
 PCOD9587287
Probable space group: P 6/M M M
;
_chemical_formula_sum "Si O2"
_cell_formula_units_Z 120
_cell_length_a 23.268040
_cell_length_b 23.268040
_cell_length_c 15.626720
_cell_angle_alpha 90.000000
_cell_angle_beta 90.000000
_cell_angle_gamma 120.000000
_cell_volume 7326.862909
_symmetry_space_group_name_H-M "P 6/M M M"
_symmetry_group_IT_number 191
_symmetry_cell_setting 'hexagonal'
loop_
_space_group_symop_operation_xyz
x,y,z
x-y,x,z
-y,x-y,z
-x,-y,z
-x+y,-x,z
y,-x+y,z
x-y,-y,-z
-x,-x+y,-z
y,x,-z
-y,-x,-z
-x+y,y,-z
x,x-y,-z
-x,-y,-z
-x+y,-x,-z
y,-x+y,-z
x,y,-z
x-y,x,-z
-y,x-y,-z
-x+y,y,z
x,x-y,z
-y,-x,z
y,x,z
x-y,-y,z
-x,-x+y,z
loop_
_atom_site_type_symbol
_atom_site_label
_atom_site_fract_x
_atom_site_fract_y
_atom_site_fract_z
Si Si1 0.851384 0.566584 0.658873
Si Si2 0.666449 0.470888 0.500000
Si Si3 0.078765 0.670056 0.828758
Si Si4 0.919292 0.525768 0.000000
Si Si5 0.205823 0.281162 0.603628
Si Si6 0.205121 0.279939 0.897645
O O1 0.780247 0.560494 0.676170
O O2 0.840355 0.516067 0.582812
O O3 0.881603 0.555201 0.744390
O O4 0.899439 0.642988 0.630187
O O5 0.597577 0.402424 0.500000
O O6 0.729286 0.458573 0.500000
O O7 0.101975 0.648760 0.913630
O O8 0.087225 0.742146 0.847313
O O9 0.000000 0.620307 0.817492
O O10 0.899353 0.449677 0.000000
O O11 0.000000 0.568877 0.000000
O O12 0.204517 0.279158 0.500000
O O13 0.132288 0.264576 0.632443
O O14 0.233057 0.233057 0.634124
O O15 0.131191 0.262382 0.877386
O O16 0.222950 0.222950 0.879724
O O17 0.216313 0.294547 0.000000
#
# Coordination Sequence:
#
# PCOD9587287 Si02
#       6
#    24  12  24  12  24  24
#     4  10  19  32  50  75 100 126 161 206 252 292
#     4  10  21  38  57  75  98 127 162 200 243 297
#     4  10  18  30  48  71  97 129 165 200 243 293
#     4   9  18  32  47  64  93 130 162 189 226 288
#     4   9  16  28  47  69  96 131 168 205 247 293
#     4   9  16  27  44  67  95 127 165 209 253 295
#
# _framework density 16.378088000000002
#
# number of rings (size 3 to 8) (size 9 to 14) (size 15 to 20)
#    0.000    2.500    2.000    1.300    0.000    0.800 
#    0.000    0.000    0.000    4.600    0.000    2.800 
#    0.000    0.000    0.000    6.800    0.000    9.200 
#
# Total GULP energy -669139.129526 kJ/mol
# GULP energy per Si atom -5576.159413 kJ/mol
# Density = 1.634081 g / cm^3
# Si number density = 16.378088 Si / 1000 Ang^3
#
#
#
# Elastic Constant Matrix: (Units=GPa)
#
#
# Indices 1 2 3 4 5 6 
#
# 1 88.7254 54.9244 56.2023 0.0000 0.0000 0.0000
# 2 54.9244 88.7254 56.2023 0.0000 0.0000 0.0000
# 3 56.2023 56.2023 116.2074 0.0000 0.0000 0.0000
# 4 0.0000 0.0000 0.0000 5.8637 0.0000 0.0000
# 5 0.0000 0.0000 0.0000 0.0000 5.8637 0.0000
# 6 0.0000 0.0000 0.0000 0.0000 0.0000 16.9005
#
#
#
# Elastic Compliance Matrix: (Units=1/GPa)
#
#
# Indices 1 2 3 4 5 6 
#
# 1 0.020392 -0.009193 -0.005417 0.000000 0.000000 0.000000
# 2 -0.009193 0.020392 -0.005417 0.000000 0.000000 0.000000
# 3 -0.005417 -0.005417 0.013845 0.000000 0.000000 0.000000
# 4 0.000000 0.000000 0.000000 0.170541 0.000000 0.000000
# 5 0.000000 0.000000 0.000000 0.000000 0.170541 0.000000
# 6 0.000000 0.000000 0.000000 0.000000 0.000000 0.059170
#
#
# Mechanical properties :
#
#
# Convention : Reuss Voigt Hill
#
# Bulk Modulus (GPa) = 68.59770 69.81291 69.20531
# Shear Modulus (GPa) = 10.00416 14.14752 12.07584
#
# Velocity S-wave (km/s) = 2.47417 2.94225 2.71830
# Velocity P-wave (km/s) = 7.08073 7.36619 7.22487
#
# Compressibility (1/GPa) = 0.01457775
#
# Stress axis : x y z
#
# Youngs Moduli (GPa) = 49.03786 49.03786 72.22956
#
# Poissons Ratio (x) = 0.45078 0.39125
# Poissons Ratio (y) = 0.45078 0.39125
# Poissons Ratio (z) = 0.26562 0.26562
#
# Static dielectric constant tensor:
#      x y z
#    x 1.534380 0.000000 0.000000 
#    y 0.000000 1.534380 0.000000 
#    z 0.000000 0.000000 1.581260 
# 
# From -- ./inp_files/4813.got.cif
#   From: 2010.05.17/outbox.cif.g08.bks.cpg/sg191_3_cif.got.tgz:4813.got - 2010.05.20 12:20:32.
