data_PCOD9587991
_publ_section_title
;
Structure prediction by ZEFSAII (Michael W. Deem and Ramdas Pophale) SiO2 
 PCOD9587991
Probable space group: P 6/M M M
;
_chemical_formula_sum "Si O2"
_cell_formula_units_Z 192
_cell_length_a 23.848183
_cell_length_b 23.848183
_cell_length_c 21.748651
_cell_angle_alpha 90.000000
_cell_angle_beta 90.000000
_cell_angle_gamma 120.000000
_cell_volume 10712.073580
_symmetry_space_group_name_H-M "P 6/M M M"
_symmetry_group_IT_number 191
_symmetry_cell_setting 'hexagonal'
loop_
_space_group_symop_operation_xyz
x,y,z
x-y,x,z
-y,x-y,z
-x,-y,z
-x+y,-x,z
y,-x+y,z
x-y,-y,-z
-x,-x+y,-z
y,x,-z
-y,-x,-z
-x+y,y,-z
x,x-y,-z
-x,-y,-z
-x+y,-x,-z
y,-x+y,-z
x,y,-z
x-y,x,-z
-y,x-y,-z
-x+y,y,z
x,x-y,z
-y,-x,z
y,x,z
x-y,-y,z
-x,-x+y,z
loop_
_atom_site_type_symbol
_atom_site_label
_atom_site_fract_x
_atom_site_fract_y
_atom_site_fract_z
Si Si1 0.463381 0.798024 0.876179
Si Si2 0.809093 0.736740 0.241076
Si Si3 0.696868 0.622155 0.699678
Si Si4 0.074630 0.664018 0.072069
Si Si5 0.649667 0.576447 0.431458
Si Si6 0.073921 0.277723 0.093861
Si Si7 0.496760 0.686081 0.736989
Si Si8 0.334520 0.791470 0.598214
O O1 0.397249 0.794498 0.899104
O O2 0.467975 0.733988 0.893959
O O3 0.527233 0.865215 0.896262
O O4 0.461592 0.798530 0.801599
O O5 0.883512 0.767023 0.254418
O O6 0.781739 0.781739 0.261886
O O7 0.767433 0.668866 0.274635
O O8 0.798606 0.725165 0.168114
O O9 0.654073 0.654073 0.717055
O O10 0.694771 0.614602 0.626147
O O11 0.668586 0.552648 0.730070
O O12 0.084824 0.736501 0.076999
O O13 0.000000 0.615797 0.094829
O O14 0.075773 0.649642 0.000000
O O15 0.675702 0.599791 0.500000
O O16 0.587787 0.587787 0.425112
O O17 0.641226 0.505549 0.424381
O O18 0.134234 0.268467 0.073513
O O19 0.000000 0.225446 0.073779
O O20 0.527363 0.763682 0.737777
O O21 0.458508 0.664665 0.672912
O O22 0.385175 0.770350 0.577317
O O23 0.261363 0.738638 0.579933
#
# Coordination Sequence:
#
# PCOD9587991 Si02
#       8
#    24  24  24  24  24  24  24  24
#     4  11  23  38  56  77 102 132 165 201 242 292
#     4   9  16  26  43  68  96 125 157 195 239 284
#     4   9  16  27  46  71  96 120 151 195 243 289
#     4  10  22  39  57  77 101 130 165 205 249 295
#     4   9  19  35  51  67  91 125 162 196 234 286
#     4   9  17  30  50  76 105 135 167 204 245 289
#     4   9  18  32  50  72  97 125 156 190 232 283
#     4  10  20  34  52  73  97 125 158 198 242 285
#
# _framework density 17.9237
#
# number of rings (size 3 to 8) (size 9 to 14) (size 15 to 20)
#    0.000    2.500    0.000    2.125    0.000    6.250 
#    0.000    2.500    0.000    4.000    0.000    1.750 
#    0.000    0.000    0.000    3.125    0.000    3.250 
#
# Total GULP energy -1068855.020797 kJ/mol
# GULP energy per Si atom -5566.953233 kJ/mol
# Density = 1.788291 g / cm^3
# Si number density = 17.923700 Si / 1000 Ang^3
#
#
#
# Elastic Constant Matrix: (Units=GPa)
#
#
# Indices 1 2 3 4 5 6 
#
# 1 100.5322 63.9856 25.4990 0.0000 0.0000 0.0000
# 2 63.9856 100.5322 25.4990 0.0000 0.0000 0.0000
# 3 25.4990 25.4990 36.4875 0.0000 0.0000 0.0000
# 4 0.0000 0.0000 0.0000 -5.1404 0.0000 0.0000
# 5 0.0000 0.0000 0.0000 0.0000 -5.1404 0.0000
# 6 0.0000 0.0000 0.0000 0.0000 0.0000 18.2733
#
#
#
# Elastic Compliance Matrix: (Units=1/GPa)
#
#
# Indices 1 2 3 4 5 6 
#
# 1 0.017561 -0.009802 -0.005422 0.000000 0.000000 0.000000
# 2 -0.009802 0.017561 -0.005422 0.000000 0.000000 0.000000
# 3 -0.005422 -0.005422 0.034986 0.000000 0.000000 0.000000
# 4 0.000000 0.000000 0.000000 -0.194538 0.000000 0.000000
# 5 0.000000 0.000000 0.000000 0.000000 -0.194538 0.000000
# 6 0.000000 0.000000 0.000000 0.000000 0.000000 0.054725
#
#
# Mechanical properties :
#
#
# Convention : Reuss Voigt Hill
#
# Bulk Modulus (GPa) = 34.70521 51.94657 43.32589
# Shear Modulus (GPa) = -23.43602 9.76973 -6.83315
#
# Velocity S-wave (km/s) = -3.61992 2.33721 -1.95464
# Velocity P-wave (km/s) = 1.39033 6.02730 4.37387
#
# Compressibility (1/GPa) = 0.02881412
#
# Stress axis : x y z
#
# Youngs Moduli (GPa) = 56.94501 56.94501 28.58321
#
# Poissons Ratio (x) = 0.55815 0.15499
# Poissons Ratio (y) = 0.55815 0.15499
# Poissons Ratio (z) = 0.30878 0.30878
#
# Static dielectric constant tensor:
#      x y z
#    x 1.623800 0.000000 0.000000 
#    y 0.000000 1.623800 0.000000 
#    z 0.000000 0.000000 1.638560 
# 
# From -- ./inp_files/8141.got.cif
#   From: 2010.05.17/outbox.cif.g08.bks.cpg/sg191_5_cif.got.tgz:8141.got - 2010.05.20 12:20:32.
