data_PCOD9587038
_publ_section_title
;
Structure prediction by ZEFSAII (Michael W. Deem and Ramdas Pophale) SiO2 
 PCOD9587038
Probable space group: P 6/M M M
;
_chemical_formula_sum "Si O2"
_cell_formula_units_Z 72
_cell_length_a 22.359088
_cell_length_b 22.359088
_cell_length_c 10.593175
_cell_angle_alpha 90.000000
_cell_angle_beta 90.000000
_cell_angle_gamma 120.000000
_cell_volume 4586.326291
_symmetry_space_group_name_H-M "P 6/M M M"
_symmetry_group_IT_number 191
_symmetry_cell_setting 'hexagonal'
loop_
_space_group_symop_operation_xyz
x,y,z
x-y,x,z
-y,x-y,z
-x,-y,z
-x+y,-x,z
y,-x+y,z
x-y,-y,-z
-x,-x+y,-z
y,x,-z
-y,-x,-z
-x+y,y,-z
x,x-y,-z
-x,-y,-z
-x+y,-x,-z
y,-x+y,-z
x,y,-z
x-y,x,-z
-y,x-y,-z
-x+y,y,z
x,x-y,z
-y,-x,z
y,x,z
x-y,-y,z
-x,-x+y,z
loop_
_atom_site_type_symbol
_atom_site_label
_atom_site_fract_x
_atom_site_fract_y
_atom_site_fract_z
Si Si1 0.441377 0.148220 0.252762
Si Si2 0.293598 0.215969 0.349659
Si Si3 0.809808 0.475087 0.500000
Si Si4 0.811317 0.477273 0.000000
O O1 0.441532 0.220766 0.254826
O O2 0.361559 0.091918 0.272927
O O3 0.484634 0.150066 0.374713
O O4 0.479083 0.149424 0.124104
O O5 0.311028 0.226577 0.500000
O O6 0.276999 0.138500 0.320104
O O7 0.232746 0.232746 0.327778
O O8 0.736535 0.473069 0.500000
O O9 0.797367 0.398684 0.500000
O O10 0.734332 0.468664 0.000000
O O11 0.805552 0.402776 0.000000
#
# Coordination Sequence:
#
# PCOD9587038 Si02
#       4
#    24  24  12  12
#     4   9  17  29  44  64  90 122 157 195 236 277
#     4   9  16  29  51  75  96 119 152 191 228 270
#     4  10  17  26  41  61  86 115 154 202 247 285
#     4  10  19  30  45  65  92 125 162 204 251 293
#
# _framework density 15.698840000000001
#
# number of rings (size 3 to 8) (size 9 to 14) (size 15 to 20)
#    0.000    2.667    1.667    1.333    0.000    0.000 
#    0.000    4.167    0.000    6.333    0.000    2.333 
#    0.000    0.000    0.000    0.000    0.000   19.667 
#
# Total GULP energy -400930.750896 kJ/mol
# GULP energy per Si atom -5568.482651 kJ/mol
# Density = 1.566311 g / cm^3
# Si number density = 15.698840 Si / 1000 Ang^3
#
#
#
# Elastic Constant Matrix: (Units=GPa)
#
#
# Indices 1 2 3 4 5 6 
#
# 1 82.5341 44.7912 41.0028 0.0000 0.0000 0.0000
# 2 44.7912 82.5341 41.0028 0.0000 0.0000 0.0000
# 3 41.0028 41.0028 106.9867 0.0000 0.0000 0.0000
# 4 0.0000 0.0000 0.0000 12.6857 0.0000 0.0000
# 5 0.0000 0.0000 0.0000 0.0000 12.6857 0.0000
# 6 0.0000 0.0000 0.0000 0.0000 0.0000 18.8714
#
#
#
# Elastic Compliance Matrix: (Units=1/GPa)
#
#
# Indices 1 2 3 4 5 6 
#
# 1 0.018461 -0.008034 -0.003997 0.000000 0.000000 0.000000
# 2 -0.008034 0.018461 -0.003997 0.000000 0.000000 0.000000
# 3 -0.003997 -0.003997 0.012410 0.000000 0.000000 0.000000
# 4 0.000000 0.000000 0.000000 0.078829 0.000000 0.000000
# 5 0.000000 0.000000 0.000000 0.000000 0.078829 0.000000
# 6 0.000000 0.000000 0.000000 0.000000 0.000000 0.052990
#
#
# Mechanical properties :
#
#
# Convention : Reuss Voigt Hill
#
# Bulk Modulus (GPa) = 57.87015 58.40539 58.13777
# Shear Modulus (GPa) = 16.79009 18.53243 17.66126
#
# Velocity S-wave (km/s) = 3.27389 3.43956 3.35775
# Velocity P-wave (km/s) = 7.15778 7.28413 7.22123
#
# Compressibility (1/GPa) = 0.01728007
#
# Stress axis : x y z
#
# Youngs Moduli (GPa) = 54.16684 54.16684 80.57825
#
# Poissons Ratio (x) = 0.43515 0.32203
# Poissons Ratio (y) = 0.43515 0.32203
# Poissons Ratio (z) = 0.21648 0.21648
#
# Static dielectric constant tensor:
#      x y z
#    x 1.513860 0.000000 0.000000 
#    y 0.000000 1.513860 0.000000 
#    z 0.000000 0.000000 1.534410 
# 
# From -- ./inp_files/908.got.cif
#   From: 2010.05.17/outbox.cif.g08.bks.cpg/sg191_1_cif.got.tgz:908.got - 2010.05.20 12:20:32.
