data_PCOD9587139
_publ_section_title
;
Structure prediction by ZEFSAII (Michael W. Deem and Ramdas Pophale) SiO2 
 PCOD9587139
Probable space group: P 6/M M M
;
_chemical_formula_sum "Si O2"
_cell_formula_units_Z 108
_cell_length_a 27.156216
_cell_length_b 27.156216
_cell_length_c 13.441498
_cell_angle_alpha 90.000000
_cell_angle_beta 90.000000
_cell_angle_gamma 120.000000
_cell_volume 8584.535723
_symmetry_space_group_name_H-M "P 6/M M M"
_symmetry_group_IT_number 191
_symmetry_cell_setting 'hexagonal'
loop_
_space_group_symop_operation_xyz
x,y,z
x-y,x,z
-y,x-y,z
-x,-y,z
-x+y,-x,z
y,-x+y,z
x-y,-y,-z
-x,-x+y,-z
y,x,-z
-y,-x,-z
-x+y,y,-z
x,x-y,-z
-x,-y,-z
-x+y,-x,-z
y,-x+y,-z
x,y,-z
x-y,x,-z
-y,x-y,-z
-x+y,y,z
x,x-y,z
-y,-x,z
y,x,z
x-y,-y,z
-x,-x+y,z
loop_
_atom_site_type_symbol
_atom_site_label
_atom_site_fract_x
_atom_site_fract_y
_atom_site_fract_z
Si Si1 0.067474 0.433605 0.765062
Si Si2 0.569951 0.840670 0.115229
Si Si3 0.931551 0.465776 0.112648
Si Si4 0.666834 0.445078 0.195392
Si Si5 0.485053 0.854117 0.387114
O O1 0.103510 0.408569 0.817638
O O2 0.081541 0.491016 0.827068
O O3 0.093642 0.457661 0.656970
O O4 0.000000 0.392636 0.765730
O O5 0.587455 0.793728 0.144822
O O6 0.501402 0.807699 0.128506
O O7 0.584341 0.855468 0.000000
O O8 0.000000 0.500000 0.105109
O O9 0.908614 0.454307 0.000000
O O10 0.711541 0.423081 0.195651
O O11 0.604734 0.395266 0.165010
O O12 0.661865 0.465613 0.306523
O O13 0.490775 0.839053 0.500000
O O14 0.434771 0.869541 0.386145
#
# Coordination Sequence:
#
# PCOD9587139 Si02
#       5
#    24  24  12  24  24
#     4  10  18  28  41  58  74  91 117 144 173 210
#     4   9  18  30  41  54  74  97 116 138 175 217
#     4   9  16  24  35  55  77  91 108 138 171 201
#     4   9  17  28  40  53  68  89 120 153 180 213
#     4   9  17  28  39  51  70  92 111 138 180 222
#
# _framework density 12.580762
#
# number of rings (size 3 to 8) (size 9 to 14) (size 15 to 20)
#    0.000    2.778    1.111    0.889    1.556    2.667 
#    0.000    1.111    0.000    2.667    0.000    0.000 
#    0.000    0.000    0.000    0.000    0.000    0.000 
#
# Total GULP energy -601360.066419 kJ/mol
# GULP energy per Si atom -5568.148763 kJ/mol
# Density = 1.255213 g / cm^3
# Si number density = 12.580762 Si / 1000 Ang^3
#
#
#
# Elastic Constant Matrix: (Units=GPa)
#
#
# Indices 1 2 3 4 5 6 
#
# 1 29.7387 -0.0469 -12.6165 0.0000 0.0000 0.0000
# 2 -0.0469 29.7387 -12.6165 0.0000 0.0000 0.0000
# 3 -12.6165 -12.6165 22.7045 0.0000 0.0000 0.0000
# 4 0.0000 0.0000 0.0000 9.0051 0.0000 0.0000
# 5 0.0000 0.0000 0.0000 0.0000 9.0051 0.0000
# 6 0.0000 0.0000 0.0000 0.0000 0.0000 14.8928
#
#
#
# Elastic Compliance Matrix: (Units=1/GPa)
#
#
# Indices 1 2 3 4 5 6 
#
# 1 0.048694 0.015121 0.035461 0.000000 0.000000 0.000000
# 2 0.015121 0.048694 0.035461 0.000000 0.000000 0.000000
# 3 0.035461 0.035461 0.083454 0.000000 0.000000 0.000000
# 4 0.000000 0.000000 0.000000 0.111048 0.000000 0.000000
# 5 0.000000 0.000000 0.000000 0.000000 0.111048 0.000000
# 6 0.000000 0.000000 0.000000 0.000000 0.000000 0.067147
#
#
# Mechanical properties :
#
#
# Convention : Reuss Voigt Hill
#
# Bulk Modulus (GPa) = 2.83344 3.51357 3.17351
# Shear Modulus (GPa) = 12.02955 13.74471 12.88713
#
# Velocity S-wave (km/s) = 3.09558 3.30891 3.20402
# Velocity P-wave (km/s) = 3.87736 4.17102 4.02687
#
# Compressibility (1/GPa) = 0.35292741
#
# Stress axis : x y z
#
# Youngs Moduli (GPa) = 20.53634 20.53634 11.98266
#
# Poissons Ratio (x) = -0.31053 -0.42492
# Poissons Ratio (y) = -0.31053 -0.42492
# Poissons Ratio (z) = -0.72824 -0.72824
#
# Static dielectric constant tensor:
#      x y z
#    x 1.411020 0.000000 0.000000 
#    y 0.000000 1.411020 0.000000 
#    z 0.000000 0.000000 1.433430 
# 
# From -- ./inp_files/3074.got.cif
#   From: 2010.05.17/outbox.cif.g08.bks.cpg/sg191_2_cif.got.tgz:3074.got - 2010.05.20 12:20:32.
