data_PCOD9587656
_publ_section_title
;
Structure prediction by ZEFSAII (Michael W. Deem and Ramdas Pophale) SiO2 
 PCOD9587656
Probable space group: P 6/M M M
;
_chemical_formula_sum "Si O2"
_cell_formula_units_Z 108
_cell_length_a 21.225431
_cell_length_b 21.225431
_cell_length_c 19.693958
_cell_angle_alpha 90.000000
_cell_angle_beta 90.000000
_cell_angle_gamma 120.000000
_cell_volume 7683.811011
_symmetry_space_group_name_H-M "P 6/M M M"
_symmetry_group_IT_number 191
_symmetry_cell_setting 'hexagonal'
loop_
_space_group_symop_operation_xyz
x,y,z
x-y,x,z
-y,x-y,z
-x,-y,z
-x+y,-x,z
y,-x+y,z
x-y,-y,-z
-x,-x+y,-z
y,x,-z
-y,-x,-z
-x+y,y,-z
x,x-y,-z
-x,-y,-z
-x+y,-x,-z
y,-x+y,-z
x,y,-z
x-y,x,-z
-y,x-y,-z
-x+y,y,z
x,x-y,z
-y,-x,z
y,x,z
x-y,-y,z
-x,-x+y,z
loop_
_atom_site_type_symbol
_atom_site_label
_atom_site_fract_x
_atom_site_fract_y
_atom_site_fract_z
Si Si1 0.516955 0.333382 0.076296
Si Si2 0.083706 0.167412 0.582345
Si Si3 0.169387 0.338774 0.417719
Si Si4 0.414794 0.326877 0.651239
Si Si5 0.455855 0.544146 0.422550
Si Si6 0.086543 0.617409 0.794274
O O1 0.516207 0.258104 0.084159
O O2 0.599427 0.400574 0.080076
O O3 0.474400 0.345551 0.137072
O O4 0.490034 0.335500 0.000000
O O5 0.126483 0.126483 0.605938
O O6 0.081727 0.163454 0.500000
O O7 0.126355 0.252711 0.598842
O O8 0.173300 0.346600 0.500000
O O9 0.249311 0.375719 0.384845
O O10 0.364331 0.364331 0.645825
O O11 0.490827 0.380845 0.614305
O O12 0.435347 0.329066 0.730354
O O13 0.500000 0.500000 0.421940
O O14 0.443427 0.556574 0.500000
O O15 0.100976 0.550488 0.777413
O O16 0.000000 0.579091 0.804580
#
# Coordination Sequence:
#
# PCOD9587656 Si02
#       6
#    24  12  12  24  12  24
#     4   9  17  28  44  66  90 115 142 173 210 254
#     4   9  17  30  47  66  89 117 146 177 221 282
#     4  11  22  31  44  68  93 116 146 194 242 274
#     4  10  19  32  47  65  88 115 148 186 228 274
#     4   9  16  28  48  65  78 106 147 186 221 259
#     4   9  17  30  46  64  86 112 145 182 218 259
#
# _framework density 14.055526
#
# number of rings (size 3 to 8) (size 9 to 14) (size 15 to 20)
#    0.000    2.556    1.111    1.667    1.556    4.000 
#    0.000    2.222    0.000    0.444    0.000    1.556 
#    0.000    0.000    0.000    0.000    0.000    0.000 
#
# Total GULP energy -601594.651079 kJ/mol
# GULP energy per Si atom -5570.320843 kJ/mol
# Density = 1.402353 g / cm^3
# Si number density = 14.055526 Si / 1000 Ang^3
#
#
#
# Elastic Constant Matrix: (Units=GPa)
#
#
# Indices 1 2 3 4 5 6 
#
# 1 82.0021 48.8008 58.4240 0.0000 0.0000 0.0000
# 2 48.8008 82.0021 58.4240 0.0000 0.0000 0.0000
# 3 58.4240 58.4240 124.6449 0.0000 0.0000 0.0000
# 4 0.0000 0.0000 0.0000 20.2387 0.0000 0.0000
# 5 0.0000 0.0000 0.0000 0.0000 20.2387 0.0000
# 6 0.0000 0.0000 0.0000 0.0000 0.0000 16.6007
#
#
#
# Elastic Compliance Matrix: (Units=1/GPa)
#
#
# Indices 1 2 3 4 5 6 
#
# 1 0.021636 -0.008484 -0.006165 0.000000 0.000000 0.000000
# 2 -0.008484 0.021636 -0.006165 0.000000 0.000000 0.000000
# 3 -0.006165 -0.006165 0.013802 0.000000 0.000000 0.000000
# 4 0.000000 0.000000 0.000000 0.049410 0.000000 0.000000
# 5 0.000000 0.000000 0.000000 0.000000 0.049410 0.000000
# 6 0.000000 0.000000 0.000000 0.000000 0.000000 0.060239
#
#
# Mechanical properties :
#
#
# Convention : Reuss Voigt Hill
#
# Bulk Modulus (GPa) = 64.73634 68.88298 66.80966
# Shear Modulus (GPa) = 19.01810 19.61563 19.31686
#
# Velocity S-wave (km/s) = 3.68240 3.73980 3.71121
# Velocity P-wave (km/s) = 8.01484 8.23179 8.12404
#
# Compressibility (1/GPa) = 0.01544727
#
# Stress axis : x y z
#
# Youngs Moduli (GPa) = 46.21993 46.21993 72.45386
#
# Poissons Ratio (x) = 0.39211 0.44666
# Poissons Ratio (y) = 0.39211 0.44666
# Poissons Ratio (z) = 0.28493 0.28493
#
# Static dielectric constant tensor:
#      x y z
#    x 1.447220 0.000000 0.000000 
#    y 0.000000 1.447220 0.000000 
#    z 0.000000 0.000000 1.467150 
# 
# From -- ./inp_files/6165.got.cif
#   From: 2010.05.17/outbox.cif.g08.bks.cpg/sg191_4_cif.got.tgz:6165.got - 2010.05.20 12:20:32.
