data_PCOD9587466
_publ_section_title
;
Structure prediction by ZEFSAII (Michael W. Deem and Ramdas Pophale) SiO2 
 PCOD9587466
Probable space group: P 6/M M M
;
_chemical_formula_sum "Si O2"
_cell_formula_units_Z 108
_cell_length_a 18.438187
_cell_length_b 18.438187
_cell_length_c 23.003004
_cell_angle_alpha 90.000000
_cell_angle_beta 90.000000
_cell_angle_gamma 120.000000
_cell_volume 6772.540600
_symmetry_space_group_name_H-M "P 6/M M M"
_symmetry_group_IT_number 191
_symmetry_cell_setting 'hexagonal'
loop_
_space_group_symop_operation_xyz
x,y,z
x-y,x,z
-y,x-y,z
-x,-y,z
-x+y,-x,z
y,-x+y,z
x-y,-y,-z
-x,-x+y,-z
y,x,-z
-y,-x,-z
-x+y,y,-z
x,x-y,-z
-x,-y,-z
-x+y,-x,-z
y,-x+y,-z
x,y,-z
x-y,x,-z
-y,x-y,-z
-x+y,y,z
x,x-y,z
-y,-x,z
y,x,z
x-y,-y,z
-x,-x+y,z
loop_
_atom_site_type_symbol
_atom_site_label
_atom_site_fract_x
_atom_site_fract_y
_atom_site_fract_z
Si Si1 0.101626 0.468556 0.934172
Si Si2 0.166526 0.667404 0.594974
Si Si3 0.263592 0.358248 0.500000
Si Si4 0.739868 0.099548 0.170062
Si Si5 0.367855 0.467475 0.723412
O O1 0.129743 0.564872 0.920166
O O2 0.122819 0.420787 0.885579
O O3 0.000000 0.419947 0.934837
O O4 0.129027 0.464585 0.000000
O O5 0.150733 0.575367 0.581239
O O6 0.262634 0.737367 0.583735
O O7 0.111806 0.693369 0.555447
O O8 0.146139 0.668544 0.662849
O O9 0.283808 0.283808 0.500000
O O10 0.166378 0.332756 0.500000
O O11 0.839084 0.160917 0.171411
O O12 0.698603 0.116284 0.226680
O O13 0.706156 0.000000 0.168012
O O14 0.440289 0.559712 0.743390
O O15 0.415626 0.415626 0.711546
#
# Coordination Sequence:
#
# PCOD9587466 Si02
#       5
#    24  24  12  24  24
#     4   8  14  26  45  67  88 110 137 170 211 261
#     4  10  19  30  45  67  97 130 160 186 213 250
#     4  10  21  35  51  70  91 117 150 190 233 273
#     4  10  19  30  45  65  89 117 152 193 233 272
#     4   9  17  29  46  67  89 115 149 188 228 270
#
# _framework density 15.946747999999999
#
# number of rings (size 3 to 8) (size 9 to 14) (size 15 to 20)
#    0.000    2.667    0.000    3.222    0.000    4.889 
#    0.000    1.111    0.000    5.222    0.000    0.000 
#    0.000    0.000    0.000   12.667    0.000    0.000 
#
# Total GULP energy -601866.495787 kJ/mol
# GULP energy per Si atom -5572.837924 kJ/mol
# Density = 1.591045 g / cm^3
# Si number density = 15.946748 Si / 1000 Ang^3
#
#
#
# Elastic Constant Matrix: (Units=GPa)
#
#
# Indices 1 2 3 4 5 6 
#
# 1 78.1230 47.6897 34.2599 0.0000 0.0000 0.0000
# 2 47.6897 78.1230 34.2599 0.0000 0.0000 0.0000
# 3 34.2599 34.2599 61.2201 0.0000 0.0000 0.0000
# 4 0.0000 0.0000 0.0000 12.7712 0.0000 0.0000
# 5 0.0000 0.0000 0.0000 0.0000 12.7712 0.0000
# 6 0.0000 0.0000 0.0000 0.0000 0.0000 15.2167
#
#
#
# Elastic Compliance Matrix: (Units=1/GPa)
#
#
# Indices 1 2 3 4 5 6 
#
# 1 0.022146 -0.010713 -0.006398 0.000000 0.000000 0.000000
# 2 -0.010713 0.022146 -0.006398 0.000000 0.000000 0.000000
# 3 -0.006398 -0.006398 0.023495 0.000000 0.000000 0.000000
# 4 0.000000 0.000000 0.000000 0.078301 0.000000 0.000000
# 5 0.000000 0.000000 0.000000 0.000000 0.078301 0.000000
# 6 0.000000 0.000000 0.000000 0.000000 0.000000 0.065717
#
#
# Mechanical properties :
#
#
# Convention : Reuss Voigt Hill
#
# Bulk Modulus (GPa) = 48.14879 49.98725 49.06802
# Shear Modulus (GPa) = 14.53285 14.90223 14.71754
#
# Velocity S-wave (km/s) = 3.02211 3.06028 3.04125
# Velocity P-wave (km/s) = 6.51434 6.62582 6.57031
#
# Compressibility (1/GPa) = 0.02076895
#
# Stress axis : x y z
#
# Youngs Moduli (GPa) = 45.15537 45.15537 42.56149
#
# Poissons Ratio (x) = 0.48375 0.27231
# Poissons Ratio (y) = 0.48375 0.27231
# Poissons Ratio (z) = 0.28890 0.28890
#
# Static dielectric constant tensor:
#      x y z
#    x 1.526050 0.000000 0.000000 
#    y 0.000000 1.526050 0.000000 
#    z 0.000000 0.000000 1.544290 
# 
# From -- ./inp_files/7305.got.cif
#   From: 2010.05.17/outbox.cif.g08.bks.cpg/sg191_4_cif.got.tgz:7305.got - 2010.05.20 12:20:32.
