data_PCOD9587168
_publ_section_title
;
Structure prediction by ZEFSAII (Michael W. Deem and Ramdas Pophale) SiO2 
 PCOD9587168
Probable space group: P 6/M M M
;
_chemical_formula_sum "Si O2"
_cell_formula_units_Z 132
_cell_length_a 17.481600
_cell_length_b 17.481600
_cell_length_c 30.342424
_cell_angle_alpha 90.000000
_cell_angle_beta 90.000000
_cell_angle_gamma 120.000000
_cell_volume 8030.512495
_symmetry_space_group_name_H-M "P 6/M M M"
_symmetry_group_IT_number 191
_symmetry_cell_setting 'hexagonal'
loop_
_space_group_symop_operation_xyz
x,y,z
x-y,x,z
-y,x-y,z
-x,-y,z
-x+y,-x,z
y,-x+y,z
x-y,-y,-z
-x,-x+y,-z
y,x,-z
-y,-x,-z
-x+y,y,-z
x,x-y,-z
-x,-y,-z
-x+y,-x,-z
y,-x+y,-z
x,y,-z
x-y,x,-z
-y,x-y,-z
-x+y,y,z
x,x-y,z
-y,-x,z
y,x,z
x-y,-y,z
-x,-x+y,z
loop_
_atom_site_type_symbol
_atom_site_label
_atom_site_fract_x
_atom_site_fract_y
_atom_site_fract_z
Si Si1 0.333112 0.847820 0.950823
Si Si2 0.714396 0.104396 0.596731
Si Si3 0.840602 0.330725 0.684542
Si Si4 0.893824 0.360668 0.217369
Si Si5 0.553393 0.106786 0.550415
Si Si6 0.266808 0.365284 0.867625
O O1 0.426091 0.852182 0.946651
O O2 0.253343 0.746658 0.948202
O O3 0.318233 0.896992 0.910490
O O4 0.328545 0.880544 0.000000
O O5 0.816538 0.183463 0.587745
O O6 0.695431 0.109689 0.648502
O O7 0.646113 0.130287 0.573371
O O8 0.680732 0.000000 0.585735
O O9 0.863258 0.431629 0.679168
O O10 0.736897 0.263104 0.677250
O O11 0.862721 0.319048 0.734602
O O12 0.859363 0.429682 0.211017
O O13 0.871373 0.299214 0.175216
O O14 0.000000 0.416883 0.218833
O O15 0.569163 0.138325 0.500000
O O16 0.500000 0.000000 0.550492
O O17 0.165207 0.330414 0.875309
O O18 0.289619 0.289619 0.859760
#
# Coordination Sequence:
#
# PCOD9587168 Si02
#       6
#    24  24  24  24  12  24
#     4   9  17  29  46  68  94 123 151 177 207 249
#     4  10  20  34  53  75 102 136 174 215 258 305
#     4  10  18  28  44  67  97 131 167 202 237 279
#     4   9  17  28  44  66  92 122 153 186 226 275
#     4   9  18  34  54  76 104 136 168 204 247 295
#     4  10  20  33  47  64  87 114 148 189 233 277
#
# _framework density 16.437307000000001
#
# number of rings (size 3 to 8) (size 9 to 14) (size 15 to 20)
#    0.000    2.455    0.909    2.000    0.000    3.273 
#    0.545    0.909    0.000    6.182    0.000    0.000 
#    0.000    0.000    0.000   14.909    0.000    0.000 
#
# Total GULP energy -734953.076239 kJ/mol
# GULP energy per Si atom -5567.826335 kJ/mol
# Density = 1.639990 g / cm^3
# Si number density = 16.437307 Si / 1000 Ang^3
#
#
#
# Elastic Constant Matrix: (Units=GPa)
#
#
# Indices 1 2 3 4 5 6 
#
# 1 43.0041 60.7492 26.7509 0.0000 0.0000 0.0000
# 2 60.7492 43.0041 26.7509 0.0000 0.0000 0.0000
# 3 26.7509 26.7509 82.0493 0.0000 0.0000 0.0000
# 4 0.0000 0.0000 0.0000 14.7222 0.0000 0.0000
# 5 0.0000 0.0000 0.0000 0.0000 14.7222 0.0000
# 6 0.0000 0.0000 0.0000 0.0000 0.0000 -8.8726
#
#
#
# Elastic Compliance Matrix: (Units=1/GPa)
#
#
# Indices 1 2 3 4 5 6 
#
# 1 -0.022384 0.033970 -0.003777 0.000000 0.000000 0.000000
# 2 0.033970 -0.022384 -0.003777 0.000000 0.000000 0.000000
# 3 -0.003777 -0.003777 0.014651 0.000000 0.000000 0.000000
# 4 0.000000 0.000000 0.000000 0.067925 0.000000 0.000000
# 5 0.000000 0.000000 0.000000 0.000000 0.067925 0.000000
# 6 0.000000 0.000000 0.000000 0.000000 0.000000 -0.112707
#
#
# Mechanical properties :
#
#
# Convention : Reuss Voigt Hill
#
# Bulk Modulus (GPa) = 44.02697 44.06216 44.04456
# Shear Modulus (GPa) = -95.72652 7.70144 -44.01254
#
# Velocity S-wave (km/s) = -7.63962 2.16691 -5.18017
# Velocity P-wave (km/s) = 7.13971 5.75544 2.98751
#
# Compressibility (1/GPa) = 0.02271335
#
# Stress axis : x y z
#
# Youngs Moduli (GPa) = -44.67547 -44.67547 68.25479
#
# Poissons Ratio (x) = 1.51762 0.25783
# Poissons Ratio (y) = 1.51762 0.25783
# Poissons Ratio (z) = -0.16876 -0.16876
#
# Static dielectric constant tensor:
#      x y z
#    x 1.553500 0.000000 0.000000 
#    y 0.000000 1.553500 0.000000 
#    z 0.000000 0.000000 1.581360 
# 
# From -- ./inp_files/10462.got.cif
#   From: 2010.05.17/outbox.cif.g08.bks.cpg/sg191_6_cif.got.tgz:10462.got - 2010.05.20 12:20:32.
