data_PCOD9587549
_publ_section_title
;
Structure prediction by ZEFSAII (Michael W. Deem and Ramdas Pophale) SiO2 
 PCOD9587549
Probable space group: P 6/M M M
;
_chemical_formula_sum "Si O2"
_cell_formula_units_Z 120
_cell_length_a 18.353385
_cell_length_b 18.353385
_cell_length_c 24.342842
_cell_angle_alpha 90.000000
_cell_angle_beta 90.000000
_cell_angle_gamma 120.000000
_cell_volume 7101.241162
_symmetry_space_group_name_H-M "P 6/M M M"
_symmetry_group_IT_number 191
_symmetry_cell_setting 'hexagonal'
loop_
_space_group_symop_operation_xyz
x,y,z
x-y,x,z
-y,x-y,z
-x,-y,z
-x+y,-x,z
y,-x+y,z
x-y,-y,-z
-x,-x+y,-z
y,x,-z
-y,-x,-z
-x+y,y,-z
x,x-y,-z
-x,-y,-z
-x+y,-x,-z
y,-x+y,-z
x,y,-z
x-y,x,-z
-y,x-y,-z
-x+y,y,z
x,x-y,z
-y,-x,z
y,x,z
x-y,-y,z
-x,-x+y,z
loop_
_atom_site_type_symbol
_atom_site_label
_atom_site_fract_x
_atom_site_fract_y
_atom_site_fract_z
Si Si1 0.367506 0.900484 0.737613
Si Si2 0.099593 0.359760 0.161073
Si Si3 0.831397 0.000000 0.433113
Si Si4 0.332145 0.836408 0.615923
Si Si5 0.337517 0.000000 0.565850
Si Si6 0.897885 0.366196 0.937920
O O1 0.442408 0.884815 0.757795
O O2 0.301485 0.884581 0.785019
O O3 0.331062 0.849984 0.681609
O O4 0.413192 0.000000 0.723621
O O5 0.160641 0.321281 0.162469
O O6 0.123664 0.421546 0.108699
O O7 0.000000 0.293695 0.158519
O O8 0.831317 0.915659 0.415355
O O9 0.747143 0.000000 0.415764
O O10 0.831925 0.000000 0.500000
O O11 0.416624 0.833248 0.603738
O O12 0.249069 0.750932 0.599418
O O13 0.336004 0.916943 0.587559
O O14 0.338534 0.000000 0.500000
O O15 0.869522 0.434761 0.925448
O O16 0.000000 0.419414 0.938477
O O17 0.870542 0.333808 0.000000
#
# Coordination Sequence:
#
# PCOD9587549 Si02
#       6
#    24  24  12  24  12  24
#     4   9  17  32  54  78 101 127 160 201 252 307
#     4  10  19  30  47  72 100 132 172 218 260 300
#     4   9  17  31  53  81 109 135 165 204 249 295
#     4  11  22  37  56  79 106 136 171 213 259 307
#     4  11  23  39  57  77 103 139 176 209 249 303
#     4   8  14  26  45  69  96 126 160 199 247 304
#
# _framework density 16.898454999999998
#
# number of rings (size 3 to 8) (size 9 to 14) (size 15 to 20)
#    0.000    2.400    1.000    3.000    0.000    5.200 
#    0.000    0.000    0.000    5.800    0.000    0.000 
#    0.000    0.000    0.000    5.000    0.000    0.000 
#
# Total GULP energy -669113.877244 kJ/mol
# GULP energy per Si atom -5575.948977 kJ/mol
# Density = 1.685999 g / cm^3
# Si number density = 16.898455 Si / 1000 Ang^3
#
#
#
# Elastic Constant Matrix: (Units=GPa)
#
#
# Indices 1 2 3 4 5 6 
#
# 1 127.4322 79.5301 39.9471 0.0000 0.0000 0.0000
# 2 79.5301 127.4322 39.9471 0.0000 0.0000 0.0000
# 3 39.9471 39.9471 47.4849 0.0000 0.0000 0.0000
# 4 0.0000 0.0000 0.0000 10.4326 0.0000 0.0000
# 5 0.0000 0.0000 0.0000 0.0000 10.4326 0.0000
# 6 0.0000 0.0000 0.0000 0.0000 0.0000 23.9511
#
#
#
# Elastic Compliance Matrix: (Units=1/GPa)
#
#
# Indices 1 2 3 4 5 6 
#
# 1 0.014016 -0.006860 -0.006020 0.000000 0.000000 0.000000
# 2 -0.006860 0.014016 -0.006020 0.000000 0.000000 0.000000
# 3 -0.006020 -0.006020 0.031188 0.000000 0.000000 0.000000
# 4 0.000000 0.000000 0.000000 0.095853 0.000000 0.000000
# 5 0.000000 0.000000 0.000000 0.000000 0.095853 0.000000
# 6 0.000000 0.000000 0.000000 0.000000 0.000000 0.041752
#
#
# Mechanical properties :
#
#
# Convention : Reuss Voigt Hill
#
# Bulk Modulus (GPa) = 46.68543 69.02199 57.85371
# Shear Modulus (GPa) = 14.80972 18.49160 16.65066
#
# Velocity S-wave (km/s) = 2.96361 3.31158 3.14241
# Velocity P-wave (km/s) = 6.27675 7.45358 6.89034
#
# Compressibility (1/GPa) = 0.02141996
#
# Stress axis : x y z
#
# Youngs Moduli (GPa) = 71.34828 71.34828 32.06401
#
# Poissons Ratio (x) = 0.48946 0.19302
# Poissons Ratio (y) = 0.48946 0.19302
# Poissons Ratio (z) = 0.42950 0.42950
#
# Static dielectric constant tensor:
#      x y z
#    x 1.564110 0.000000 0.000000 
#    y 0.000000 1.564110 0.000000 
#    z 0.000000 0.000000 1.574610 
# 
# From -- ./inp_files/9539.got.cif
#   From: 2010.05.17/outbox.cif.g08.bks.cpg/sg191_5_cif.got.tgz:9539.got - 2010.05.20 12:20:32.
