data_PCOD9587157
_publ_section_title
;
Structure prediction by ZEFSAII (Michael W. Deem and Ramdas Pophale) SiO2 
 PCOD9587157
Probable space group: P 6/M M M
;
_chemical_formula_sum "Si O2"
_cell_formula_units_Z 120
_cell_length_a 22.425833
_cell_length_b 22.425833
_cell_length_c 18.031304
_cell_angle_alpha 90.000000
_cell_angle_beta 90.000000
_cell_angle_gamma 120.000000
_cell_volume 7853.349667
_symmetry_space_group_name_H-M "P 6/M M M"
_symmetry_group_IT_number 191
_symmetry_cell_setting 'hexagonal'
loop_
_space_group_symop_operation_xyz
x,y,z
x-y,x,z
-y,x-y,z
-x,-y,z
-x+y,-x,z
y,-x+y,z
x-y,-y,-z
-x,-x+y,-z
y,x,-z
-y,-x,-z
-x+y,y,-z
x,x-y,-z
-x,-y,-z
-x+y,-x,-z
y,-x+y,-z
x,y,-z
x-y,x,-z
-y,x-y,-z
-x+y,y,z
x,x-y,z
-y,-x,z
y,x,z
x-y,-y,z
-x,-x+y,z
loop_
_atom_site_type_symbol
_atom_site_label
_atom_site_fract_x
_atom_site_fract_y
_atom_site_fract_z
Si Si1 0.425815 0.345352 0.124262
Si Si2 0.393499 0.918078 0.289772
Si Si3 0.073803 0.786366 0.500000
Si Si4 0.217551 0.295293 0.193194
Si Si5 0.369971 0.254436 0.648961
Si Si6 0.333932 0.521916 0.000000
O O1 0.396140 0.396140 0.100770
O O2 0.463158 0.372676 0.203301
O O3 0.358592 0.271081 0.141335
O O4 0.478142 0.339134 0.068988
O O5 0.445209 0.890417 0.304772
O O6 0.326051 0.887637 0.338836
O O7 0.434078 0.000000 0.302741
O O8 0.136397 0.863603 0.500000
O O9 0.080688 0.750136 0.426263
O O10 0.000000 0.780021 0.500000
O O11 0.140043 0.280086 0.182352
O O12 0.233424 0.233424 0.181528
O O13 0.240087 0.322984 0.277671
O O14 0.386749 0.193375 0.646347
O O15 0.400716 0.599285 0.000000
O O16 0.261544 0.523088 0.000000
#
# Coordination Sequence:
#
# PCOD9587157 Si02
#       6
#    24  24  12  24  24  12
#     4   9  18  32  50  68  84 107 144 187 223 253
#     4   9  16  28  46  66  86 107 134 172 217 260
#     4  10  18  28  43  64  89 115 143 175 211 251
#     4   9  16  28  46  67  89 114 145 180 219 260
#     4   9  17  28  43  62  86 115 145 178 214 253
#     4  12  24  35  45  61  90 123 149 173 209 258
#
# _framework density 15.280105000000001
#
# number of rings (size 3 to 8) (size 9 to 14) (size 15 to 20)
#    0.000    2.600    0.000    4.600    0.000    2.400 
#    0.000    0.500    0.000    2.500    0.000    0.000 
#    0.000    4.800    0.000    0.000    0.000   21.200 
#
# Total GULP energy -668361.412727 kJ/mol
# GULP energy per Si atom -5569.678439 kJ/mol
# Density = 1.524533 g / cm^3
# Si number density = 15.280105 Si / 1000 Ang^3
#
#
#
# Elastic Constant Matrix: (Units=GPa)
#
#
# Indices 1 2 3 4 5 6 
#
# 1 107.2315 74.1097 36.2550 0.0000 0.0000 0.0000
# 2 74.1097 107.2315 36.2550 0.0000 0.0000 0.0000
# 3 36.2550 36.2550 55.4965 0.0000 0.0000 0.0000
# 4 0.0000 0.0000 0.0000 12.6512 0.0000 0.0000
# 5 0.0000 0.0000 0.0000 0.0000 12.6512 0.0000
# 6 0.0000 0.0000 0.0000 0.0000 0.0000 16.5609
#
#
#
# Elastic Compliance Matrix: (Units=1/GPa)
#
#
# Indices 1 2 3 4 5 6 
#
# 1 0.018828 -0.011364 -0.004876 0.000000 0.000000 0.000000
# 2 -0.011364 0.018828 -0.004876 0.000000 0.000000 0.000000
# 3 -0.004876 -0.004876 0.024390 0.000000 0.000000 0.000000
# 4 0.000000 0.000000 0.000000 0.079044 0.000000 0.000000
# 5 0.000000 0.000000 0.000000 0.000000 0.079044 0.000000
# 6 0.000000 0.000000 0.000000 0.000000 0.000000 0.060383
#
#
# Mechanical properties :
#
#
# Convention : Reuss Voigt Hill
#
# Bulk Modulus (GPa) = 50.47003 62.57765 56.52384
# Shear Modulus (GPa) = 15.18124 16.59533 15.88828
#
# Velocity S-wave (km/s) = 3.15545 3.29914 3.22809
# Velocity P-wave (km/s) = 6.81010 7.45352 7.13906
#
# Compressibility (1/GPa) = 0.01981374
#
# Stress axis : x y z
#
# Youngs Moduli (GPa) = 53.11269 53.11269 40.99983
#
# Poissons Ratio (x) = 0.60355 0.19993
# Poissons Ratio (y) = 0.60355 0.19993
# Poissons Ratio (z) = 0.25899 0.25899
#
# Static dielectric constant tensor:
#      x y z
#    x 1.507110 0.000000 0.000000 
#    y 0.000000 1.507110 0.000000 
#    z 0.000000 0.000000 1.516470 
# 
# From -- ./inp_files/6284.got.cif
#   From: 2010.05.17/outbox.cif.g08.bks.cpg/sg191_4_cif.got.tgz:6284.got - 2010.05.20 12:20:32.
