data_PCOD9587992
_publ_section_title
;
Structure prediction by ZEFSAII (Michael W. Deem and Ramdas Pophale) SiO2 
 PCOD9587992
Probable space group: P 6/M M M
;
_chemical_formula_sum "Si O2"
_cell_formula_units_Z 168
_cell_length_a 23.475520
_cell_length_b 23.475520
_cell_length_c 21.248438
_cell_angle_alpha 90.000000
_cell_angle_beta 90.000000
_cell_angle_gamma 120.000000
_cell_volume 10141.170483
_symmetry_space_group_name_H-M "P 6/M M M"
_symmetry_group_IT_number 191
_symmetry_cell_setting 'hexagonal'
loop_
_space_group_symop_operation_xyz
x,y,z
x-y,x,z
-y,x-y,z
-x,-y,z
-x+y,-x,z
y,-x+y,z
x-y,-y,-z
-x,-x+y,-z
y,x,-z
-y,-x,-z
-x+y,y,-z
x,x-y,-z
-x,-y,-z
-x+y,-x,-z
y,-x+y,-z
x,y,-z
x-y,x,-z
-y,x-y,-z
-x+y,y,z
x,x-y,z
-y,-x,z
y,x,z
x-y,-y,z
-x,-x+y,z
loop_
_atom_site_type_symbol
_atom_site_label
_atom_site_fract_x
_atom_site_fract_y
_atom_site_fract_z
Si Si1 0.354415 0.274537 0.431455
Si Si2 0.474753 0.397236 0.753723
Si Si3 0.400940 0.325641 0.927408
Si Si4 0.522702 0.600762 0.602148
Si Si5 0.720516 0.923951 0.691314
Si Si6 0.380351 0.257258 0.804754
Si Si7 0.204254 0.538008 0.075737
O O1 0.341065 0.241886 0.500000
O O2 0.317325 0.317325 0.430287
O O3 0.431849 0.326948 0.424839
O O4 0.326096 0.229526 0.370383
O O5 0.547810 0.452191 0.774456
O O6 0.427053 0.427053 0.768668
O O7 0.476009 0.393217 0.677903
O O8 0.443059 0.325129 0.781968
O O9 0.383881 0.383881 0.920973
O O10 0.361989 0.272268 0.873465
O O11 0.476290 0.344884 0.915677
O O12 0.385478 0.302029 0.000000
O O13 0.447351 0.552650 0.582160
O O14 0.560650 0.560650 0.587044
O O15 0.747442 0.873721 0.697087
O O16 0.675436 0.914031 0.752137
O O17 0.774485 0.000000 0.685229
O O18 0.393520 0.196760 0.808089
O O19 0.262951 0.525901 0.098670
O O20 0.211358 0.605679 0.100607
O O21 0.211822 0.544847 0.000000
#
# Coordination Sequence:
#
# PCOD9587992 Si02
#       7
#    24  24  24  24  24  24  24
#     4   9  16  26  42  66  98 130 158 194 236 277
#     4   9  16  28  48  70  94 126 163 202 238 277
#     4  10  21  35  50  68  92 123 160 205 252 296
#     4   8  13  22  38  61  91 127 162 197 236 273
#     4  10  20  34  52  73  97 126 160 196 237 291
#     4  11  21  33  52  73  96 126 159 199 244 295
#     4   9  17  30  48  69  94 124 158 196 239 287
#
# _framework density 16.566134999999999
#
# number of rings (size 3 to 8) (size 9 to 14) (size 15 to 20)
#    0.000    2.571    1.429    2.714    0.000    2.857 
#    0.000    2.857    0.000    0.429    0.000    0.000 
#    0.000    0.000    0.000    3.571    0.000   13.000 
#
# Total GULP energy -935733.611597 kJ/mol
# GULP energy per Si atom -5569.842926 kJ/mol
# Density = 1.652843 g / cm^3
# Si number density = 16.566135 Si / 1000 Ang^3
#
#
#
# Elastic Constant Matrix: (Units=GPa)
#
#
# Indices 1 2 3 4 5 6 
#
# 1 87.0356 53.4954 29.7332 0.0000 0.0000 0.0000
# 2 53.4954 87.0356 29.7332 0.0000 0.0000 0.0000
# 3 29.7332 29.7332 86.9311 0.0000 0.0000 0.0000
# 4 0.0000 0.0000 0.0000 -3.4003 0.0000 0.0000
# 5 0.0000 0.0000 0.0000 0.0000 -3.4003 0.0000
# 6 0.0000 0.0000 0.0000 0.0000 0.0000 16.7701
#
#
#
# Elastic Compliance Matrix: (Units=1/GPa)
#
#
# Indices 1 2 3 4 5 6 
#
# 1 0.019068 -0.010747 -0.002846 0.000000 0.000000 0.000000
# 2 -0.010747 0.019068 -0.002846 0.000000 0.000000 0.000000
# 3 -0.002846 -0.002846 0.013450 0.000000 0.000000 0.000000
# 4 0.000000 0.000000 0.000000 -0.294088 0.000000 0.000000
# 5 0.000000 0.000000 0.000000 0.000000 -0.294088 0.000000
# 6 0.000000 0.000000 0.000000 0.000000 0.000000 0.059630
#
#
# Mechanical properties :
#
#
# Convention : Reuss Voigt Hill
#
# Bulk Modulus (GPa) = 53.45526 54.10287 53.77906
# Shear Modulus (GPa) = -11.41949 11.86324 0.22187
#
# Velocity S-wave (km/s) = -2.62835 2.67893 0.36637
# Velocity P-wave (km/s) = 4.80904 6.50373 5.71950
#
# Compressibility (1/GPa) = 0.01870723
#
# Stress axis : x y z
#
# Youngs Moduli (GPa) = 52.44517 52.44517 74.34931
#
# Poissons Ratio (x) = 0.56365 0.21158
# Poissons Ratio (y) = 0.56365 0.21158
# Poissons Ratio (z) = 0.14924 0.14924
#
# Static dielectric constant tensor:
#      x y z
#    x 1.556230 0.000000 0.000000 
#    y 0.000000 1.556230 0.000000 
#    z 0.000000 0.000000 1.610650 
# 
# From -- ./inp_files/7905.got.cif
#   From: 2010.05.17/outbox.cif.g08.bks.cpg/sg191_4_cif.got.tgz:7905.got - 2010.05.20 12:20:32.
