data_PCOD9587453
_publ_section_title
;
Structure prediction by ZEFSAII (Michael W. Deem and Ramdas Pophale) SiO2 
 PCOD9587453
Probable space group: P 6/M M M
;
_chemical_formula_sum "Si O2"
_cell_formula_units_Z 120
_cell_length_a 18.047008
_cell_length_b 18.047008
_cell_length_c 27.811733
_cell_angle_alpha 90.000000
_cell_angle_beta 90.000000
_cell_angle_gamma 120.000000
_cell_volume 7844.569315
_symmetry_space_group_name_H-M "P 6/M M M"
_symmetry_group_IT_number 191
_symmetry_cell_setting 'hexagonal'
loop_
_space_group_symop_operation_xyz
x,y,z
x-y,x,z
-y,x-y,z
-x,-y,z
-x+y,-x,z
y,-x+y,z
x-y,-y,-z
-x,-x+y,-z
y,x,-z
-y,-x,-z
-x+y,y,-z
x,x-y,-z
-x,-y,-z
-x+y,-x,-z
y,-x+y,-z
x,y,-z
x-y,x,-z
-y,x-y,-z
-x+y,y,z
x,x-y,z
-y,-x,z
y,x,z
x-y,-y,z
-x,-x+y,z
loop_
_atom_site_type_symbol
_atom_site_label
_atom_site_fract_x
_atom_site_fract_y
_atom_site_fract_z
Si Si1 0.667822 0.156893 0.876055
Si Si2 0.899102 0.268385 0.783284
Si Si3 0.359606 0.265465 0.500000
Si Si4 0.668194 0.504763 0.417124
Si Si5 0.364451 0.466790 0.310517
Si Si6 0.410338 0.000000 0.054741
O O1 0.581575 0.163150 0.873386
O O2 0.750753 0.249248 0.885984
O O3 0.684915 0.122661 0.826026
O O4 0.652725 0.085670 0.915993
O O5 0.832630 0.167371 0.788307
O O6 0.880102 0.300529 0.733082
O O7 0.000000 0.300055 0.784966
O O8 0.280800 0.280800 0.500000
O O9 0.335405 0.167703 0.500000
O O10 0.418604 0.309573 0.546507
O O11 0.737970 0.475940 0.426767
O O12 0.573191 0.426810 0.424723
O O13 0.675623 0.532659 0.361649
O O14 0.435298 0.564702 0.298175
O O15 0.416500 0.416500 0.317226
O O16 0.500000 0.000000 0.053150
O O17 0.382708 0.000000 0.000000
#
# Coordination Sequence:
#
# PCOD9587453 Si02
#       6
#    24  24  12  24  24  12
#     4  10  19  31  48  70  96 126 160 196 234 276
#     4  10  19  31  48  69  93 122 155 193 236 284
#     4  10  21  35  51  68  87 113 148 190 235 281
#     4  10  19  30  44  65  94 128 162 194 225 260
#     4   9  17  28  44  66  92 122 157 194 232 273
#     4   9  18  32  48  66  92 126 159 192 232 272
#
# _framework density 15.297207
#
# number of rings (size 3 to 8) (size 9 to 14) (size 15 to 20)
#    0.000    2.300    1.000    2.500    0.000    2.800 
#    0.000    1.000    0.000    7.900    0.000    0.000 
#    0.000    0.000    0.000    6.400    0.000    9.100 
#
# Total GULP energy -668944.118384 kJ/mol
# GULP energy per Si atom -5574.534320 kJ/mol
# Density = 1.526239 g / cm^3
# Si number density = 15.297207 Si / 1000 Ang^3
#
#
#
# Elastic Constant Matrix: (Units=GPa)
#
#
# Indices 1 2 3 4 5 6 
#
# 1 88.5304 59.3420 45.4678 0.0000 0.0000 0.0000
# 2 59.3420 88.5304 45.4678 0.0000 0.0000 0.0000
# 3 45.4678 45.4678 80.3261 0.0000 0.0000 0.0000
# 4 0.0000 0.0000 0.0000 15.9733 0.0000 0.0000
# 5 0.0000 0.0000 0.0000 0.0000 15.9733 0.0000
# 6 0.0000 0.0000 0.0000 0.0000 0.0000 14.5942
#
#
#
# Elastic Compliance Matrix: (Units=1/GPa)
#
#
# Indices 1 2 3 4 5 6 
#
# 1 0.022317 -0.011943 -0.005872 0.000000 0.000000 0.000000
# 2 -0.011943 0.022317 -0.005872 0.000000 0.000000 0.000000
# 3 -0.005872 -0.005872 0.019097 0.000000 0.000000 0.000000
# 4 0.000000 0.000000 0.000000 0.062604 0.000000 0.000000
# 5 0.000000 0.000000 0.000000 0.000000 0.062604 0.000000
# 6 0.000000 0.000000 0.000000 0.000000 0.000000 0.068521
#
#
# Mechanical properties :
#
#
# Convention : Reuss Voigt Hill
#
# Bulk Modulus (GPa) = 61.13828 61.99356 61.56592
# Shear Modulus (GPa) = 16.11417 16.44878 16.28147
#
# Velocity S-wave (km/s) = 3.24914 3.28270 3.26597
# Velocity P-wave (km/s) = 7.35728 7.41500 7.38620
#
# Compressibility (1/GPa) = 0.01635637
#
# Stress axis : x y z
#
# Youngs Moduli (GPa) = 44.80909 44.80909 52.36519
#
# Poissons Ratio (x) = 0.53517 0.30748
# Poissons Ratio (y) = 0.53517 0.30748
# Poissons Ratio (z) = 0.26311 0.26311
#
# Static dielectric constant tensor:
#      x y z
#    x 1.496140 0.000000 0.000000 
#    y 0.000000 1.496140 0.000000 
#    z 0.000000 0.000000 1.512410 
# 
# From -- ./inp_files/9537.got.cif
#   From: 2010.05.17/outbox.cif.g08.bks.cpg/sg191_5_cif.got.tgz:9537.got - 2010.05.20 12:20:32.
