data_PCOD9587192
_publ_section_title
;
Structure prediction by ZEFSAII (Michael W. Deem and Ramdas Pophale) SiO2 
 PCOD9587192
Probable space group: P 6/M M M
;
_chemical_formula_sum "Si O2"
_cell_formula_units_Z 168
_cell_length_a 22.071627
_cell_length_b 22.071627
_cell_length_c 24.804171
_cell_angle_alpha 90.000000
_cell_angle_beta 90.000000
_cell_angle_gamma 120.000000
_cell_volume 10464.634029
_symmetry_space_group_name_H-M "P 6/M M M"
_symmetry_group_IT_number 191
_symmetry_cell_setting 'hexagonal'
loop_
_space_group_symop_operation_xyz
x,y,z
x-y,x,z
-y,x-y,z
-x,-y,z
-x+y,-x,z
y,-x+y,z
x-y,-y,-z
-x,-x+y,-z
y,x,-z
-y,-x,-z
-x+y,y,-z
x,x-y,-z
-x,-y,-z
-x+y,-x,-z
y,-x+y,-z
x,y,-z
x-y,x,-z
-y,x-y,-z
-x+y,y,z
x,x-y,z
-y,-x,z
y,x,z
x-y,-y,z
-x,-x+y,z
loop_
_atom_site_type_symbol
_atom_site_label
_atom_site_fract_x
_atom_site_fract_y
_atom_site_fract_z
Si Si1 0.718811 0.573968 0.563220
Si Si2 0.188956 0.523542 0.260913
Si Si3 0.084591 0.472052 0.059440
Si Si4 0.426205 0.343875 0.824994
Si Si5 0.079596 0.468153 0.352416
Si Si6 0.078674 0.782230 0.233918
Si Si7 0.079395 0.787802 0.640061
O O1 0.716942 0.587067 0.500000
O O2 0.771856 0.543712 0.570328
O O3 0.642804 0.531012 0.589428
O O4 0.752081 0.644307 0.598870
O O5 0.258670 0.517339 0.257113
O O6 0.207853 0.603927 0.268720
O O7 0.137998 0.492077 0.209356
O O8 0.138091 0.476810 0.309599
O O9 0.106112 0.553056 0.067472
O O10 0.101789 0.442104 0.112182
O O11 0.000000 0.429966 0.057234
O O12 0.109623 0.464589 0.000000
O O13 0.404565 0.404565 0.818109
O O14 0.360739 0.273822 0.801641
O O15 0.074152 0.537076 0.344777
O O16 0.000000 0.403202 0.345750
O O17 0.140134 0.859866 0.221646
O O18 0.084559 0.769186 0.297612
O O19 0.000000 0.766749 0.225763
O O20 0.129767 0.870234 0.635446
O O21 0.000000 0.762037 0.628081
#
# Coordination Sequence:
#
# PCOD9587192 Si02
#       7
#    24  24  24  24  24  24  24
#     4  10  20  33  49  68  91 119 148 177 212 260
#     4  11  22  35  50  67  91 122 156 192 228 272
#     4   8  14  25  41  63  92 123 153 184 220 266
#     4  10  18  28  47  73  97 120 148 188 236 279
#     4  10  21  35  51  71  92 114 143 185 235 278
#     4   9  17  29  46  68  94 123 154 189 231 278
#     4   9  17  29  45  65  89 117 147 179 216 258
#
# _framework density 16.054072999999999
#
# number of rings (size 3 to 8) (size 9 to 14) (size 15 to 20)
#    0.000    2.429    0.000    3.571    0.000    5.143 
#    0.000    0.714    0.000    2.286    0.000    2.000 
#    0.000    1.143    0.000    3.571    0.000    3.714 
#
# Total GULP energy -935615.481188 kJ/mol
# GULP energy per Si atom -5569.139769 kJ/mol
# Density = 1.601753 g / cm^3
# Si number density = 16.054073 Si / 1000 Ang^3
#
#
#
# Elastic Constant Matrix: (Units=GPa)
#
#
# Indices 1 2 3 4 5 6 
#
# 1 66.1299 31.9125 22.0647 0.0000 0.0000 0.0000
# 2 31.9125 66.1299 22.0647 0.0000 0.0000 0.0000
# 3 22.0647 22.0647 95.5961 0.0000 0.0000 0.0000
# 4 0.0000 0.0000 0.0000 13.3807 0.0000 0.0000
# 5 0.0000 0.0000 0.0000 0.0000 13.3807 0.0000
# 6 0.0000 0.0000 0.0000 0.0000 0.0000 17.1087
#
#
#
# Elastic Compliance Matrix: (Units=1/GPa)
#
#
# Indices 1 2 3 4 5 6 
#
# 1 0.020303 -0.008921 -0.002627 0.000000 0.000000 0.000000
# 2 -0.008921 0.020303 -0.002627 0.000000 0.000000 0.000000
# 3 -0.002627 -0.002627 0.011673 0.000000 0.000000 0.000000
# 4 0.000000 0.000000 0.000000 0.074735 0.000000 0.000000
# 5 0.000000 0.000000 0.000000 0.000000 0.074735 0.000000
# 6 0.000000 0.000000 0.000000 0.000000 0.000000 0.058450
#
#
# Mechanical properties :
#
#
# Convention : Reuss Voigt Hill
#
# Bulk Modulus (GPa) = 41.78995 42.21552 42.00274
# Shear Modulus (GPa) = 16.86188 18.89497 17.87842
#
# Velocity S-wave (km/s) = 3.24438 3.43440 3.34074
# Velocity P-wave (km/s) = 6.33419 6.48689 6.41099
#
# Compressibility (1/GPa) = 0.02392920
#
# Stress axis : x y z
#
# Youngs Moduli (GPa) = 49.25263 49.25263 85.66469
#
# Poissons Ratio (x) = 0.43940 0.22505
# Poissons Ratio (y) = 0.43940 0.22505
# Poissons Ratio (z) = 0.12939 0.12939
#
# Static dielectric constant tensor:
#      x y z
#    x 1.552500 0.000000 0.000000 
#    y 0.000000 1.552500 0.000000 
#    z 0.000000 0.000000 1.557720 
# 
# From -- ./inp_files/8005.got.cif
#   From: 2010.05.17/outbox.cif.g08.bks.cpg/sg191_5_cif.got.tgz:8005.got - 2010.05.20 12:20:32.
