data_PCOD9587673
_publ_section_title
;
Structure prediction by ZEFSAII (Michael W. Deem and Ramdas Pophale) SiO2 
 PCOD9587673
Probable space group: P 6/M M M
;
_chemical_formula_sum "Si O2"
_cell_formula_units_Z 60
_cell_length_a 22.919761
_cell_length_b 22.919761
_cell_length_c 7.920603
_cell_angle_alpha 90.000000
_cell_angle_beta 90.000000
_cell_angle_gamma 120.000000
_cell_volume 3603.371563
_symmetry_space_group_name_H-M "P 6/M M M"
_symmetry_group_IT_number 191
_symmetry_cell_setting 'hexagonal'
loop_
_space_group_symop_operation_xyz
x,y,z
x-y,x,z
-y,x-y,z
-x,-y,z
-x+y,-x,z
y,-x+y,z
x-y,-y,-z
-x,-x+y,-z
y,x,-z
-y,-x,-z
-x+y,y,-z
x,x-y,-z
-x,-y,-z
-x+y,-x,-z
y,-x+y,-z
x,y,-z
x-y,x,-z
-y,x-y,-z
-x+y,y,z
x,x-y,z
-y,-x,z
y,x,z
x-y,-y,z
-x,-x+y,z
loop_
_atom_site_type_symbol
_atom_site_label
_atom_site_fract_x
_atom_site_fract_y
_atom_site_fract_z
Si Si1 0.192882 0.527380 0.000000
Si Si2 0.924791 0.716414 0.204597
Si Si3 0.146407 0.711976 0.687714
O O1 0.153215 0.484854 0.835103
O O2 0.266218 0.532435 0.000000
O O3 0.201015 0.600508 0.000000
O O4 0.864852 0.729703 0.260161
O O5 0.906825 0.642910 0.270004
O O6 0.000000 0.771352 0.256250
O O7 0.922527 0.713034 0.000000
O O8 0.135047 0.682515 0.500000
O O9 0.218193 0.781808 0.687830
#
# Coordination Sequence:
#
# PCOD9587673 Si02
#       3
#    12  24  24
#     4  10  19  32  49  71  98 127 158 196 243 295
#     4   9  16  28  48  73  99 127 161 201 242 283
#     4   9  17  30  48  69  94 126 164 203 240 279
#
# _framework density 16.651073
#
# number of rings (size 3 to 8) (size 9 to 14) (size 15 to 20)
#    0.000    2.800    2.000    0.200    0.000    1.600 
#    0.000    0.000    0.000    5.200    0.000    5.600 
#    0.000    0.000    0.000   10.000    0.000   10.400 
#
# Total GULP energy -334239.988162 kJ/mol
# GULP energy per Si atom -5570.666469 kJ/mol
# Density = 1.661317 g / cm^3
# Si number density = 16.651073 Si / 1000 Ang^3
#
#
#
# Elastic Constant Matrix: (Units=GPa)
#
#
# Indices 1 2 3 4 5 6 
#
# 1 85.6389 43.6193 45.7184 0.0000 0.0000 0.0000
# 2 43.6193 85.6389 45.7184 0.0000 0.0000 0.0000
# 3 45.7184 45.7184 98.6276 0.0000 0.0000 0.0000
# 4 0.0000 0.0000 0.0000 1.8368 0.0000 0.0000
# 5 0.0000 0.0000 0.0000 0.0000 1.8368 0.0000
# 6 0.0000 0.0000 0.0000 0.0000 0.0000 21.0098
#
#
#
# Elastic Compliance Matrix: (Units=1/GPa)
#
#
# Indices 1 2 3 4 5 6 
#
# 1 0.017655 -0.006144 -0.005336 0.000000 0.000000 0.000000
# 2 -0.006144 0.017655 -0.005336 0.000000 0.000000 0.000000
# 3 -0.005336 -0.005336 0.015086 0.000000 0.000000 0.000000
# 4 0.000000 0.000000 0.000000 0.544416 0.000000 0.000000
# 5 0.000000 0.000000 0.000000 0.000000 0.544416 0.000000
# 6 0.000000 0.000000 0.000000 0.000000 0.000000 0.047597
#
#
# Mechanical properties :
#
#
# Convention : Reuss Voigt Hill
#
# Bulk Modulus (GPa) = 59.64979 60.00197 59.82588
# Shear Modulus (GPa) = 4.07816 13.92666 9.00241
#
# Velocity S-wave (km/s) = 1.56669 2.89517 2.32771
# Velocity P-wave (km/s) = 6.25890 6.87671 6.57506
#
# Compressibility (1/GPa) = 0.01676452
#
# Stress axis : x y z
#
# Youngs Moduli (GPa) = 56.64211 56.64211 66.28658
#
# Poissons Ratio (x) = 0.34799 0.35370
# Poissons Ratio (y) = 0.34799 0.35370
# Poissons Ratio (z) = 0.30224 0.30224
#
# Static dielectric constant tensor:
#      x y z
#    x 1.542780 0.000000 0.000000 
#    y 0.000000 1.542780 0.000000 
#    z 0.000000 0.000000 1.599450 
# 
# From -- ./inp_files/532.got.cif
#   From: 2010.05.17/outbox.cif.g08.bks.cpg/sg191_1_cif.got.tgz:532.got - 2010.05.20 12:20:32.
