data_PCOD9587061
_publ_section_title
;
Structure prediction by ZEFSAII (Michael W. Deem and Ramdas Pophale) SiO2 
 PCOD9587061
Probable space group: P 6/M M M
;
_chemical_formula_sum "Si O2"
_cell_formula_units_Z 180
_cell_length_a 21.248887
_cell_length_b 21.248887
_cell_length_c 31.864388
_cell_angle_alpha 90.000000
_cell_angle_beta 90.000000
_cell_angle_gamma 120.000000
_cell_volume 12459.728737
_symmetry_space_group_name_H-M "P 6/M M M"
_symmetry_group_IT_number 191
_symmetry_cell_setting 'hexagonal'
loop_
_space_group_symop_operation_xyz
x,y,z
x-y,x,z
-y,x-y,z
-x,-y,z
-x+y,-x,z
y,-x+y,z
x-y,-y,-z
-x,-x+y,-z
y,x,-z
-y,-x,-z
-x+y,y,-z
x,x-y,-z
-x,-y,-z
-x+y,-x,-z
y,-x+y,-z
x,y,-z
x-y,x,-z
-y,x-y,-z
-x+y,y,z
x,x-y,z
-y,-x,z
y,x,z
x-y,-y,z
-x,-x+y,z
loop_
_atom_site_type_symbol
_atom_site_label
_atom_site_fract_x
_atom_site_fract_y
_atom_site_fract_z
Si Si1 0.666489 0.183923 0.250605
Si Si2 0.534909 0.617949 0.577250
Si Si3 0.521630 0.335212 0.092174
Si Si4 0.183548 0.515594 0.500000
Si Si5 0.083207 0.465156 0.672691
Si Si6 0.380464 0.083702 0.953024
Si Si7 0.357343 0.914946 0.170353
Si Si8 0.222683 0.303699 0.132272
O O1 0.600766 0.201532 0.253727
O O2 0.742753 0.257248 0.243638
O O3 0.666478 0.141981 0.292856
O O4 0.646718 0.126900 0.212701
O O5 0.458381 0.541620 0.577204
O O6 0.595653 0.595653 0.567746
O O7 0.526704 0.665301 0.541337
O O8 0.545752 0.646390 0.624939
O O9 0.517770 0.258885 0.101653
O O10 0.602663 0.397338 0.081918
O O11 0.463945 0.322651 0.055925
O O12 0.493416 0.361538 0.131918
O O13 0.262503 0.525005 0.500000
O O14 0.188486 0.594243 0.500000
O O15 0.082560 0.541280 0.673210
O O16 0.000000 0.403781 0.682568
O O17 0.335469 0.092476 0.915234
O O18 0.362005 0.000000 0.949252
O O19 0.359596 0.092890 0.000000
O O20 0.281749 0.913495 0.161361
O O21 0.419202 0.000000 0.170260
O O22 0.143123 0.286245 0.142838
O O23 0.237549 0.237549 0.135213
#
# Coordination Sequence:
#
# PCOD9587061 Si02
#       8
#    24  24  24  12  24  24  24  24
#     4  11  21  31  43  60  85 113 137 162 199 251
#     4   8  14  26  42  56  70  94 132 172 206 240
#     4  11  22  34  47  63  86 113 137 163 200 249
#     4  10  18  25  35  53  78 105 130 162 207 258
#     4   8  15  28  44  59  74  96 131 173 207 235
#     4   9  18  32  50  69  85 105 137 177 212 234
#     4  10  20  33  50  67  80 101 137 179 213 235
#     4   9  17  30  48  69  91 112 135 165 202 241
#
# _framework density 14.446542000000001
#
# number of rings (size 3 to 8) (size 9 to 14) (size 15 to 20)
#    0.000    2.533    0.000    5.733    0.000    5.067 
#    0.000    2.000    0.000    2.533    0.000    0.000 
#    0.000    0.000    0.000    3.333    0.000    0.000 
#
# Total GULP energy -1002883.689449 kJ/mol
# GULP energy per Si atom -5571.576052 kJ/mol
# Density = 1.441366 g / cm^3
# Si number density = 14.446542 Si / 1000 Ang^3
#
#
#
# Elastic Constant Matrix: (Units=GPa)
#
#
# Indices 1 2 3 4 5 6 
#
# 1 59.7235 38.6831 12.1324 0.0000 0.0000 0.0000
# 2 38.6831 59.7235 12.1324 0.0000 0.0000 0.0000
# 3 12.1324 12.1324 46.7874 0.0000 0.0000 0.0000
# 4 0.0000 0.0000 0.0000 6.8448 0.0000 0.0000
# 5 0.0000 0.0000 0.0000 0.0000 6.8448 0.0000
# 6 0.0000 0.0000 0.0000 0.0000 0.0000 10.5202
#
#
#
# Elastic Compliance Matrix: (Units=1/GPa)
#
#
# Indices 1 2 3 4 5 6 
#
# 1 0.029192 -0.018336 -0.002815 0.000000 0.000000 0.000000
# 2 -0.018336 0.029192 -0.002815 0.000000 0.000000 0.000000
# 3 -0.002815 -0.002815 0.022833 0.000000 0.000000 0.000000
# 4 0.000000 0.000000 0.000000 0.146096 0.000000 0.000000
# 5 0.000000 0.000000 0.000000 0.000000 0.146096 0.000000
# 6 0.000000 0.000000 0.000000 0.000000 0.000000 0.095055
#
#
# Mechanical properties :
#
#
# Convention : Reuss Voigt Hill
#
# Bulk Modulus (GPa) = 30.04353 32.45891 31.25122
# Shear Modulus (GPa) = 9.47883 11.72773 10.60328
#
# Velocity S-wave (km/s) = 2.56428 2.85230 2.71212
# Velocity P-wave (km/s) = 5.44141 5.77621 5.61131
#
# Compressibility (1/GPa) = 0.03328504
#
# Stress axis : x y z
#
# Youngs Moduli (GPa) = 34.25621 34.25621 43.79583
#
# Poissons Ratio (x) = 0.62811 0.12329
# Poissons Ratio (y) = 0.62811 0.12329
# Poissons Ratio (z) = 0.09643 0.09643
#
# Static dielectric constant tensor:
#      x y z
#    x 1.470810 0.000000 0.000000 
#    y 0.000000 1.470810 0.000000 
#    z 0.000000 0.000000 1.494720 
# 
# From -- ./inp_files/10877.got.cif
#   From: 2010.05.17/outbox.cif.g08.bks.cpg/sg191_6_cif.got.tgz:10877.got - 2010.05.20 12:20:32.
