data_PCOD9587994
_publ_section_title
;
Structure prediction by ZEFSAII (Michael W. Deem and Ramdas Pophale) SiO2 
 PCOD9587994
Probable space group: P 6/M M M
;
_chemical_formula_sum "Si O2"
_cell_formula_units_Z 168
_cell_length_a 22.504604
_cell_length_b 22.504604
_cell_length_c 21.679082
_cell_angle_alpha 90.000000
_cell_angle_beta 90.000000
_cell_angle_gamma 120.000000
_cell_volume 9508.549472
_symmetry_space_group_name_H-M "P 6/M M M"
_symmetry_group_IT_number 191
_symmetry_cell_setting 'hexagonal'
loop_
_space_group_symop_operation_xyz
x,y,z
x-y,x,z
-y,x-y,z
-x,-y,z
-x+y,-x,z
y,-x+y,z
x-y,-y,-z
-x,-x+y,-z
y,x,-z
-y,-x,-z
-x+y,y,-z
x,x-y,-z
-x,-y,-z
-x+y,-x,-z
y,-x+y,-z
x,y,-z
x-y,x,-z
-y,x-y,-z
-x+y,y,z
x,x-y,z
-y,-x,z
y,x,z
x-y,-y,z
-x,-x+y,z
loop_
_atom_site_type_symbol
_atom_site_label
_atom_site_fract_x
_atom_site_fract_y
_atom_site_fract_z
Si Si1 0.471976 0.666435 0.601812
Si Si2 0.919134 0.297788 0.203410
Si Si3 0.920248 0.300337 0.568571
Si Si4 0.079633 0.788302 0.681327
Si Si5 0.200829 0.534504 0.073427
Si Si6 0.472914 0.666531 0.249597
Si Si7 0.693099 0.612148 0.068812
O O1 0.468899 0.734450 0.585013
O O2 0.401884 0.598116 0.584899
O O3 0.539259 0.670104 0.573958
O O4 0.480291 0.666897 0.676129
O O5 0.908758 0.243963 0.256486
O O6 0.866696 0.325019 0.218459
O O7 0.907004 0.267322 0.133683
O O8 0.000000 0.356625 0.206824
O O9 0.912879 0.270111 0.500000
O O10 0.904665 0.246610 0.623208
O O11 0.000000 0.358353 0.576149
O O12 0.131517 0.868484 0.680370
O O13 0.000000 0.764984 0.678250
O O14 0.259740 0.519479 0.096641
O O15 0.208219 0.604109 0.099126
O O16 0.125855 0.469234 0.078971
O O17 0.211239 0.544265 0.000000
O O18 0.465071 0.732536 0.234912
O O19 0.404665 0.595336 0.234260
O O20 0.640708 0.640708 0.066222
O O21 0.726883 0.626235 0.000000
#
# Coordination Sequence:
#
# PCOD9587994 Si02
#       7
#    24  24  24  24  24  24  24
#     4  10  20  34  52  74 102 138 180 224 270 321
#     4  10  20  34  54  78 101 129 169 216 262 309
#     4  10  21  36  55  81 111 142 177 219 267 314
#     4  10  20  36  58  84 112 142 176 212 252 299
#     4   9  17  29  45  65  89 118 154 198 248 300
#     4  10  20  34  52  73  99 132 171 215 263 316
#     4   9  19  35  52  71  97 128 163 205 255 310
#
# _framework density 17.668310000000002
#
# number of rings (size 3 to 8) (size 9 to 14) (size 15 to 20)
#    0.000    2.286    1.429    1.286    0.000    5.714 
#    0.000    5.000    0.000    2.714    0.000    0.000 
#    0.000    0.000    0.000    3.571    0.000    0.000 
#
# Total GULP energy -936520.268553 kJ/mol
# GULP energy per Si atom -5574.525408 kJ/mol
# Density = 1.762810 g / cm^3
# Si number density = 17.668310 Si / 1000 Ang^3
#
#
#
# Elastic Constant Matrix: (Units=GPa)
#
#
# Indices 1 2 3 4 5 6 
#
# 1 68.3436 46.2087 36.8001 0.0000 0.0000 0.0000
# 2 46.2087 68.3436 36.8001 0.0000 0.0000 0.0000
# 3 36.8001 36.8001 113.3062 0.0000 0.0000 0.0000
# 4 0.0000 0.0000 0.0000 -1.4969 0.0000 0.0000
# 5 0.0000 0.0000 0.0000 0.0000 -1.4969 0.0000
# 6 0.0000 0.0000 0.0000 0.0000 0.0000 11.0675
#
#
#
# Elastic Compliance Matrix: (Units=1/GPa)
#
#
# Indices 1 2 3 4 5 6 
#
# 1 0.028105 -0.017073 -0.003583 0.000000 0.000000 0.000000
# 2 -0.017073 0.028105 -0.003583 0.000000 0.000000 0.000000
# 3 -0.003583 -0.003583 0.011153 0.000000 0.000000 0.000000
# 4 0.000000 0.000000 0.000000 -0.668029 0.000000 0.000000
# 5 0.000000 0.000000 0.000000 0.000000 -0.668029 0.000000
# 6 0.000000 0.000000 0.000000 0.000000 0.000000 0.090355
#
#
# Mechanical properties :
#
#
# Convention : Reuss Voigt Hill
#
# Bulk Modulus (GPa) = 52.95301 54.40126 53.67714
# Shear Modulus (GPa) = -4.45011 10.29368 2.92179
#
# Velocity S-wave (km/s) = -1.58876 2.41634 1.28735
# Velocity P-wave (km/s) = 5.16431 6.21628 5.71455
#
# Compressibility (1/GPa) = 0.01888467
#
# Stress axis : x y z
#
# Youngs Moduli (GPa) = 35.58141 35.58141 89.66197
#
# Poissons Ratio (x) = 0.60748 0.32125
# Poissons Ratio (y) = 0.60748 0.32125
# Poissons Ratio (z) = 0.12749 0.12749
#
# Static dielectric constant tensor:
#      x y z
#    x 1.574750 0.000000 0.000000 
#    y 0.000000 1.574750 0.000000 
#    z 0.000000 0.000000 1.692140 
# 
# From -- ./inp_files/9021.got.cif
#   From: 2010.05.17/outbox.cif.g08.bks.cpg/sg191_5_cif.got.tgz:9021.got - 2010.05.20 12:20:32.
