data_PCOD9587720
_publ_section_title
;
Structure prediction by ZEFSAII (Michael W. Deem and Ramdas Pophale) SiO2 
 PCOD9587720
Probable space group: P 6/M M M
;
_chemical_formula_sum "Si O2"
_cell_formula_units_Z 102
_cell_length_a 23.347169
_cell_length_b 23.347169
_cell_length_c 13.927988
_cell_angle_alpha 90.000000
_cell_angle_beta 90.000000
_cell_angle_gamma 120.000000
_cell_volume 6574.874532
_symmetry_space_group_name_H-M "P 6/M M M"
_symmetry_group_IT_number 191
_symmetry_cell_setting 'hexagonal'
loop_
_space_group_symop_operation_xyz
x,y,z
x-y,x,z
-y,x-y,z
-x,-y,z
-x+y,-x,z
y,-x+y,z
x-y,-y,-z
-x,-x+y,-z
y,x,-z
-y,-x,-z
-x+y,y,-z
x,x-y,-z
-x,-y,-z
-x+y,-x,-z
y,-x+y,-z
x,y,-z
x-y,x,-z
-y,x-y,-z
-x+y,y,z
x,x-y,z
-y,-x,z
y,x,z
x-y,-y,z
-x,-x+y,z
loop_
_atom_site_type_symbol
_atom_site_label
_atom_site_fract_x
_atom_site_fract_y
_atom_site_fract_z
Si Si1 0.867812 0.604590 0.697623
Si Si2 0.500000 0.500000 0.271989
Si Si3 0.623459 0.000000 0.386327
Si Si4 0.293128 0.840105 0.107794
Si Si5 0.887030 0.443515 0.111149
Si Si6 0.665719 0.206504 0.613358
O O1 0.814901 0.629802 0.679320
O O2 0.936320 0.630019 0.642565
O O3 0.878766 0.601656 0.811185
O O4 0.828420 0.527595 0.667469
O O5 0.560305 0.560305 0.332919
O O6 0.530420 0.469581 0.197419
O O7 0.612261 0.000000 0.500000
O O8 0.235689 0.764312 0.117548
O O9 0.364530 0.847198 0.120049
O O10 0.290211 0.862500 0.000000
O O11 0.914214 0.457107 0.000000
O O12 0.662145 0.190257 0.500000
O O13 0.593277 0.186554 0.647446
O O14 0.715212 0.284789 0.621590
#
# Coordination Sequence:
#
# PCOD9587720 Si02
#       6
#    24   6  12  24  12  24
#     4  10  21  37  53  69  95 124 157 200 251 302
#     4  12  22  36  48  74 108 128 166 210 256 312
#     4  12  25  37  53  74  97 131 169 209 254 299
#     4   9  18  33  50  67  90 122 160 205 256 307
#     4  10  19  33  53  72  95 127 166 215 265 316
#     4   9  17  28  43  60  81 112 152 194 235 280
#
# _framework density 15.513604000000001
#
# number of rings (size 3 to 8) (size 9 to 14) (size 15 to 20)
#    0.000    2.118    2.353    1.294    3.294    2.353 
#    0.706    0.588    0.000    0.000    0.000    0.000 
#    0.000    0.000    0.000    0.353    0.000    1.529 
#
# Total GULP energy -568174.406614 kJ/mol
# GULP energy per Si atom -5570.337320 kJ/mol
# Density = 1.547829 g / cm^3
# Si number density = 15.513604 Si / 1000 Ang^3
#
#
#
# Elastic Constant Matrix: (Units=GPa)
#
#
# Indices 1 2 3 4 5 6 
#
# 1 49.4924 25.4445 34.1911 0.0000 0.0000 0.0000
# 2 25.4445 49.4924 34.1911 0.0000 0.0000 0.0000
# 3 34.1911 34.1911 95.4700 0.0000 0.0000 0.0000
# 4 0.0000 0.0000 0.0000 16.7920 0.0000 0.0000
# 5 0.0000 0.0000 0.0000 0.0000 16.7920 0.0000
# 6 0.0000 0.0000 0.0000 0.0000 0.0000 12.0239
#
#
#
# Elastic Compliance Matrix: (Units=1/GPa)
#
#
# Indices 1 2 3 4 5 6 
#
# 1 0.030703 -0.010880 -0.007099 0.000000 0.000000 0.000000
# 2 -0.010880 0.030703 -0.007099 0.000000 0.000000 0.000000
# 3 -0.007099 -0.007099 0.015559 0.000000 0.000000 0.000000
# 4 0.000000 0.000000 0.000000 0.059552 0.000000 0.000000
# 5 0.000000 0.000000 0.000000 0.000000 0.059552 0.000000
# 6 0.000000 0.000000 0.000000 0.000000 0.000000 0.083167
#
#
# Mechanical properties :
#
#
# Convention : Reuss Voigt Hill
#
# Bulk Modulus (GPa) = 37.30209 42.45648 39.87928
# Shear Modulus (GPa) = 14.77840 15.83013 15.30426
#
# Velocity S-wave (km/s) = 3.08978 3.19784 3.14428
# Velocity P-wave (km/s) = 6.06844 6.40793 6.24050
#
# Compressibility (1/GPa) = 0.02680815
#
# Stress axis : x y z
#
# Youngs Moduli (GPa) = 32.56981 32.56981 64.26961
#
# Poissons Ratio (x) = 0.35437 0.45627
# Poissons Ratio (y) = 0.35437 0.45627
# Poissons Ratio (z) = 0.23122 0.23122
#
# Static dielectric constant tensor:
#      x y z
#    x 1.523350 0.000000 0.000000 
#    y 0.000000 1.523350 0.000000 
#    z 0.000000 0.000000 1.611080 
# 
# From -- ./inp_files/4609.got.cif
#   From: 2010.05.17/outbox.cif.g08.bks.cpg/sg191_3_cif.got.tgz:4609.got - 2010.05.20 12:20:32.
