data_PCOD9587194
_publ_section_title
;
Structure prediction by ZEFSAII (Michael W. Deem and Ramdas Pophale) SiO2 
 PCOD9587194
Probable space group: P 6/M M M
;
_chemical_formula_sum "Si O2"
_cell_formula_units_Z 192
_cell_length_a 29.806063
_cell_length_b 29.806063
_cell_length_c 17.581170
_cell_angle_alpha 90.000000
_cell_angle_beta 90.000000
_cell_angle_gamma 120.000000
_cell_volume 13526.568469
_symmetry_space_group_name_H-M "P 6/M M M"
_symmetry_group_IT_number 191
_symmetry_cell_setting 'hexagonal'
loop_
_space_group_symop_operation_xyz
x,y,z
x-y,x,z
-y,x-y,z
-x,-y,z
-x+y,-x,z
y,-x+y,z
x-y,-y,-z
-x,-x+y,-z
y,x,-z
-y,-x,-z
-x+y,y,-z
x,x-y,-z
-x,-y,-z
-x+y,-x,-z
y,-x+y,-z
x,y,-z
x-y,x,-z
-y,x-y,-z
-x+y,y,z
x,x-y,z
-y,-x,z
y,x,z
x-y,-y,z
-x,-x+y,z
loop_
_atom_site_type_symbol
_atom_site_label
_atom_site_fract_x
_atom_site_fract_y
_atom_site_fract_z
Si Si1 0.058816 0.840540 0.585951
Si Si2 0.334936 0.473716 0.307049
Si Si3 0.333295 0.559382 0.587853
Si Si4 0.246619 0.858679 0.800025
Si Si5 0.607530 0.940610 0.090549
Si Si6 0.699350 0.941159 0.303918
Si Si7 0.059027 0.477954 0.806578
Si Si8 0.613306 0.671380 0.411668
O O1 0.064634 0.824200 0.500000
O O2 0.099746 0.900255 0.593682
O O3 0.068688 0.807950 0.648763
O O4 0.000000 0.826494 0.593269
O O5 0.333018 0.520593 0.348230
O O6 0.284521 0.435998 0.255618
O O7 0.384316 0.487870 0.253665
O O8 0.338200 0.439003 0.374247
O O9 0.332963 0.541345 0.500000
O O10 0.282098 0.564195 0.595898
O O11 0.384968 0.615033 0.595715
O O12 0.195578 0.804423 0.819823
O O13 0.282500 0.895077 0.868555
O O14 0.231116 0.896197 0.754807
O O15 0.555389 0.936584 0.125033
O O16 0.652626 0.000000 0.109615
O O17 0.605350 0.935373 0.000000
O O18 0.658957 0.941116 0.364784
O O19 0.730413 0.000000 0.271506
O O20 0.063888 0.531944 0.830592
O O21 0.000000 0.442435 0.775147
O O22 0.616796 0.684507 0.500000
O O23 0.623208 0.623208 0.403470
#
# Coordination Sequence:
#
# PCOD9587194 Si02
#       8
#    24  24  24  24  24  24  24  24
#     4   9  16  25  37  53  74 101 134 172 211 246
#     4  10  18  29  43  61  85 110 134 162 199 240
#     4  10  20  33  47  60  75  99 135 178 218 249
#     4  10  19  29  43  63  86 110 134 160 192 234
#     4   9  18  32  48  65  85 108 133 161 193 229
#     4   9  16  26  40  57  79 107 138 170 200 230
#     4   9  17  29  46  67  88 109 132 158 190 230
#     4   9  16  25  38  57  82 112 142 167 192 227
#
# _framework density 14.194288
#
# number of rings (size 3 to 8) (size 9 to 14) (size 15 to 20)
#    0.000    2.625    0.000    2.750    0.000    5.500 
#    0.000    1.250    0.000    6.125    0.000    6.125 
#    0.000    0.000    0.000    0.000    0.000   37.250 
#
# Total GULP energy -1068943.318634 kJ/mol
# GULP energy per Si atom -5567.413118 kJ/mol
# Density = 1.416198 g / cm^3
# Si number density = 14.194288 Si / 1000 Ang^3
#
#
#
# Elastic Constant Matrix: (Units=GPa)
#
#
# Indices 1 2 3 4 5 6 
#
# 1 84.8745 55.5181 42.7976 0.0000 0.0000 0.0000
# 2 55.5181 84.8745 42.7976 0.0000 0.0000 0.0000
# 3 42.7976 42.7976 61.7206 0.0000 0.0000 0.0000
# 4 0.0000 0.0000 0.0000 13.1964 0.0000 0.0000
# 5 0.0000 0.0000 0.0000 0.0000 13.1964 0.0000
# 6 0.0000 0.0000 0.0000 0.0000 0.0000 14.6782
#
#
#
# Elastic Compliance Matrix: (Units=1/GPa)
#
#
# Indices 1 2 3 4 5 6 
#
# 1 0.023202 -0.010862 -0.008556 0.000000 0.000000 0.000000
# 2 -0.010862 0.023202 -0.008556 0.000000 0.000000 0.000000
# 3 -0.008556 -0.008556 0.028068 0.000000 0.000000 0.000000
# 4 0.000000 0.000000 0.000000 0.075778 0.000000 0.000000
# 5 0.000000 0.000000 0.000000 0.000000 0.075778 0.000000
# 6 0.000000 0.000000 0.000000 0.000000 0.000000 0.068128
#
#
# Mechanical properties :
#
#
# Convention : Reuss Voigt Hill
#
# Bulk Modulus (GPa) = 53.99033 57.07737 55.53385
# Shear Modulus (GPa) = 14.03387 14.23794 14.13591
#
# Velocity S-wave (km/s) = 3.14777 3.17057 3.15919
# Velocity P-wave (km/s) = 7.16453 7.32818 7.24682
#
# Compressibility (1/GPa) = 0.01852183
#
# Stress axis : x y z
#
# Youngs Moduli (GPa) = 43.10002 43.10002 35.62754
#
# Poissons Ratio (x) = 0.46816 0.30484
# Poissons Ratio (y) = 0.46816 0.30484
# Poissons Ratio (z) = 0.36878 0.36878
#
# Static dielectric constant tensor:
#      x y z
#    x 1.466830 0.000000 0.000000 
#    y 0.000000 1.466830 0.000000 
#    z 0.000000 0.000000 1.455110 
# 
# From -- ./inp_files/5538.got.cif
#   From: 2010.05.17/outbox.cif.g08.bks.cpg/sg191_3_cif.got.tgz:5538.got - 2010.05.20 12:20:32.
