data_PCOD9587125
_publ_section_title
;
Structure prediction by ZEFSAII (Michael W. Deem and Ramdas Pophale) SiO2 
 PCOD9587125
Probable space group: P 6/M M M
;
_chemical_formula_sum "Si O2"
_cell_formula_units_Z 168
_cell_length_a 22.939371
_cell_length_b 22.939371
_cell_length_c 24.985995
_cell_angle_alpha 90.000000
_cell_angle_beta 90.000000
_cell_angle_gamma 120.000000
_cell_volume 11386.501064
_symmetry_space_group_name_H-M "P 6/M M M"
_symmetry_group_IT_number 191
_symmetry_cell_setting 'hexagonal'
loop_
_space_group_symop_operation_xyz
x,y,z
x-y,x,z
-y,x-y,z
-x,-y,z
-x+y,-x,z
y,-x+y,z
x-y,-y,-z
-x,-x+y,-z
y,x,-z
-y,-x,-z
-x+y,y,-z
x,x-y,-z
-x,-y,-z
-x+y,-x,-z
y,-x+y,-z
x,y,-z
x-y,x,-z
-y,x-y,-z
-x+y,y,z
x,x-y,z
-y,-x,z
y,x,z
x-y,-y,z
-x,-x+y,z
loop_
_atom_site_type_symbol
_atom_site_label
_atom_site_fract_x
_atom_site_fract_y
_atom_site_fract_z
Si Si1 0.921473 0.584403 0.132936
Si Si2 0.803427 0.333252 0.064402
Si Si3 0.333639 0.804960 0.561788
Si Si4 0.469294 0.077412 0.249621
Si Si5 0.923442 0.713128 0.821594
Si Si6 0.209555 0.923634 0.305585
Si Si7 0.566231 0.714233 0.659694
O O1 0.867682 0.532546 0.091565
O O2 0.910150 0.547007 0.189790
O O3 0.912582 0.648623 0.145069
O O4 0.000000 0.613889 0.117544
O O5 0.800023 0.400012 0.079147
O O6 0.734521 0.265479 0.079865
O O7 0.809043 0.332917 0.000000
O O8 0.334812 0.825749 0.500000
O O9 0.403692 0.807383 0.573155
O O10 0.271656 0.728345 0.566318
O O11 0.318908 0.848265 0.604259
O O12 0.541360 0.082719 0.250933
O O13 0.464780 0.126171 0.292424
O O14 0.413994 0.000000 0.263037
O O15 0.865200 0.730400 0.833252
O O16 0.918866 0.696172 0.757967
O O17 0.000000 0.771973 0.831003
O O18 0.132227 0.867774 0.315328
O O19 0.255940 0.902235 0.338486
O O20 0.230163 0.000000 0.316463
O O21 0.556709 0.778355 0.669662
#
# Coordination Sequence:
#
# PCOD9587125 Si02
#       7
#    24  24  24  24  24  24  24
#     4  10  19  31  48  70  93 117 148 186 230 277
#     4  10  21  36  52  67  86 117 156 195 234 279
#     4   9  17  29  44  61  83 114 153 194 233 272
#     4  10  19  30  44  62  86 115 144 176 218 267
#     4   9  16  27  45  68  93 119 147 180 217 262
#     4   9  16  27  44  66  90 115 144 176 213 258
#     4  10  18  27  43  65  87 113 146 184 224 266
#
# _framework density 14.754313
#
# number of rings (size 3 to 8) (size 9 to 14) (size 15 to 20)
#    0.000    2.429    1.429    2.000    0.000    2.857 
#    0.000    0.714    0.000    2.286    0.000    7.000 
#    0.000    0.000    0.000    0.000    0.000    0.000 
#
# Total GULP energy -936233.096976 kJ/mol
# GULP energy per Si atom -5572.816053 kJ/mol
# Density = 1.472073 g / cm^3
# Si number density = 14.754313 Si / 1000 Ang^3
#
#
#
# Elastic Constant Matrix: (Units=GPa)
#
#
# Indices 1 2 3 4 5 6 
#
# 1 97.8813 64.6156 44.9864 0.0000 0.0000 0.0000
# 2 64.6156 97.8813 44.9864 0.0000 0.0000 0.0000
# 3 44.9864 44.9864 42.9368 0.0000 0.0000 0.0000
# 4 0.0000 0.0000 0.0000 22.3976 0.0000 0.0000
# 5 0.0000 0.0000 0.0000 0.0000 22.3976 0.0000
# 6 0.0000 0.0000 0.0000 0.0000 0.0000 16.6329
#
#
#
# Elastic Compliance Matrix: (Units=1/GPa)
#
#
# Indices 1 2 3 4 5 6 
#
# 1 0.022359 -0.007702 -0.015356 0.000000 0.000000 0.000000
# 2 -0.007702 0.022359 -0.015356 0.000000 0.000000 0.000000
# 3 -0.015356 -0.015356 0.055468 0.000000 0.000000 0.000000
# 4 0.000000 0.000000 0.000000 0.044648 0.000000 0.000000
# 5 0.000000 0.000000 0.000000 0.000000 0.044648 0.000000
# 6 0.000000 0.000000 0.000000 0.000000 0.000000 0.060122
#
#
# Mechanical properties :
#
#
# Convention : Reuss Voigt Hill
#
# Bulk Modulus (GPa) = 42.81399 60.87514 51.84457
# Shear Modulus (GPa) = 14.96031 17.89301 16.42666
#
# Velocity S-wave (km/s) = 3.18773 3.48621 3.34030
# Velocity P-wave (km/s) = 6.52915 7.58641 7.07755
#
# Compressibility (1/GPa) = 0.02335685
#
# Stress axis : x y z
#
# Youngs Moduli (GPa) = 44.72526 44.72526 18.02830
#
# Poissons Ratio (x) = 0.34449 0.27684
# Poissons Ratio (y) = 0.34449 0.27684
# Poissons Ratio (z) = 0.68681 0.68681
#
# Static dielectric constant tensor:
#      x y z
#    x 1.485970 0.000000 0.000000 
#    y 0.000000 1.485970 0.000000 
#    z 0.000000 0.000000 1.472510 
# 
# From -- ./inp_files/8000.got.cif
#   From: 2010.05.17/outbox.cif.g08.bks.cpg/sg191_4_cif.got.tgz:8000.got - 2010.05.20 12:20:32.
