data_PCOD9587819
_publ_section_title
;
Structure prediction by ZEFSAII (Michael W. Deem and Ramdas Pophale) SiO2 
 PCOD9587819
Probable space group: P 6/M M M
;
_chemical_formula_sum "Si O2"
_cell_formula_units_Z 96
_cell_length_a 18.173284
_cell_length_b 18.173284
_cell_length_c 20.587728
_cell_angle_alpha 90.000000
_cell_angle_beta 90.000000
_cell_angle_gamma 120.000000
_cell_volume 5888.516286
_symmetry_space_group_name_H-M "P 6/M M M"
_symmetry_group_IT_number 191
_symmetry_cell_setting 'hexagonal'
loop_
_space_group_symop_operation_xyz
x,y,z
x-y,x,z
-y,x-y,z
-x,-y,z
-x+y,-x,z
y,-x+y,z
x-y,-y,-z
-x,-x+y,-z
y,x,-z
-y,-x,-z
-x+y,y,-z
x,x-y,-z
-x,-y,-z
-x+y,-x,-z
y,-x+y,-z
x,y,-z
x-y,x,-z
-y,x-y,-z
-x+y,y,z
x,x-y,z
-y,-x,z
y,x,z
x-y,-y,z
-x,-x+y,z
loop_
_atom_site_type_symbol
_atom_site_label
_atom_site_fract_x
_atom_site_fract_y
_atom_site_fract_z
Si Si1 0.264480 0.363452 0.693916
Si Si2 0.903353 0.264837 0.076679
Si Si3 0.506725 0.666897 0.188161
Si Si4 0.896992 0.364987 0.426751
O O1 0.164794 0.329588 0.701849
O O2 0.293240 0.293240 0.690386
O O3 0.312379 0.426217 0.753990
O O4 0.297124 0.421266 0.629148
O O5 0.832723 0.167278 0.090942
O O6 0.878367 0.321349 0.121126
O O7 0.000000 0.290442 0.090872
O O8 0.897686 0.279242 0.000000
O O9 0.482550 0.741275 0.190338
O O10 0.424710 0.575291 0.194642
O O11 0.868912 0.331777 0.500000
O O12 0.867716 0.433858 0.412054
O O13 0.000000 0.418923 0.427910
#
# Coordination Sequence:
#
# PCOD9587819 Si02
#       4
#    24  24  24  24
#     4  10  20  32  47  68  93 121 154 193 235 276
#     4   9  18  32  49  69  93 122 156 193 232 271
#     4  10  20  33  49  70  96 124 152 183 222 269
#     4   8  14  26  45  68  92 117 146 181 221 266
#
# _framework density 16.302917999999998
#
# number of rings (size 3 to 8) (size 9 to 14) (size 15 to 20)
#    0.000    2.750    0.000    2.500    0.000    4.000 
#    0.000    1.250    0.000    2.500    0.000    1.750 
#    0.000    6.000    0.000    6.500    0.000    0.000 
#
# Total GULP energy -534899.281978 kJ/mol
# GULP energy per Si atom -5571.867521 kJ/mol
# Density = 1.626581 g / cm^3
# Si number density = 16.302918 Si / 1000 Ang^3
#
#
#
# Elastic Constant Matrix: (Units=GPa)
#
#
# Indices 1 2 3 4 5 6 
#
# 1 85.1199 67.0314 39.0400 0.0000 0.0000 0.0000
# 2 67.0314 85.1199 39.0400 0.0000 0.0000 0.0000
# 3 39.0400 39.0400 57.6274 0.0000 0.0000 0.0000
# 4 0.0000 0.0000 0.0000 19.3142 0.0000 0.0000
# 5 0.0000 0.0000 0.0000 0.0000 19.3142 0.0000
# 6 0.0000 0.0000 0.0000 0.0000 0.0000 9.0443
#
#
#
# Elastic Compliance Matrix: (Units=1/GPa)
#
#
# Indices 1 2 3 4 5 6 
#
# 1 0.032679 -0.022604 -0.006825 0.000000 0.000000 0.000000
# 2 -0.022604 0.032679 -0.006825 0.000000 0.000000 0.000000
# 3 -0.006825 -0.006825 0.026601 0.000000 0.000000 0.000000
# 4 0.000000 0.000000 0.000000 0.051775 0.000000 0.000000
# 5 0.000000 0.000000 0.000000 0.000000 0.051775 0.000000
# 6 0.000000 0.000000 0.000000 0.000000 0.000000 0.110567
#
#
# Mechanical properties :
#
#
# Convention : Reuss Voigt Hill
#
# Bulk Modulus (GPa) = 51.41610 57.56557 54.49084
# Shear Modulus (GPa) = 12.98461 15.05156 14.01809
#
# Velocity S-wave (km/s) = 2.82522 3.04179 2.93550
# Velocity P-wave (km/s) = 6.49992 6.90820 6.70717
#
# Compressibility (1/GPa) = 0.01944916
#
# Stress axis : x y z
#
# Youngs Moduli (GPa) = 30.60034 30.60034 37.59302
#
# Poissons Ratio (x) = 0.69170 0.25659
# Poissons Ratio (y) = 0.69170 0.25659
# Poissons Ratio (z) = 0.20886 0.20886
#
# Static dielectric constant tensor:
#      x y z
#    x 1.535070 0.000000 0.000000 
#    y 0.000000 1.535070 0.000000 
#    z 0.000000 0.000000 1.569860 
# 
# From -- ./inp_files/7096.got.cif
#   From: 2010.05.17/outbox.cif.g08.bks.cpg/sg191_4_cif.got.tgz:7096.got - 2010.05.20 12:20:32.
