data_PCOD9587826
_publ_section_title
;
Structure prediction by ZEFSAII (Michael W. Deem and Ramdas Pophale) SiO2 
 PCOD9587826
Probable space group: P 6/M M M
;
_chemical_formula_sum "Si O2"
_cell_formula_units_Z 108
_cell_length_a 17.862951
_cell_length_b 17.862951
_cell_length_c 23.646459
_cell_angle_alpha 90.000000
_cell_angle_beta 90.000000
_cell_angle_gamma 120.000000
_cell_volume 6534.361555
_symmetry_space_group_name_H-M "P 6/M M M"
_symmetry_group_IT_number 191
_symmetry_cell_setting 'hexagonal'
loop_
_space_group_symop_operation_xyz
x,y,z
x-y,x,z
-y,x-y,z
-x,-y,z
-x+y,-x,z
y,-x+y,z
x-y,-y,-z
-x,-x+y,-z
y,x,-z
-y,-x,-z
-x+y,y,-z
x,x-y,-z
-x,-y,-z
-x+y,-x,-z
y,-x+y,-z
x,y,-z
x-y,x,-z
-y,x-y,-z
-x+y,y,z
x,x-y,z
-y,-x,z
y,x,z
x-y,-y,z
-x,-x+y,z
loop_
_atom_site_type_symbol
_atom_site_label
_atom_site_fract_x
_atom_site_fract_y
_atom_site_fract_z
Si Si1 0.732129 0.100337 0.672342
Si Si2 0.629071 0.901601 0.889945
Si Si3 0.157260 0.667499 0.000000
Si Si4 0.895252 0.362369 0.436758
Si Si5 0.667288 0.156971 0.220214
O O1 0.833145 0.166856 0.681331
O O2 0.702537 0.125848 0.614476
O O3 0.681682 0.114762 0.723814
O O4 0.703705 0.000000 0.669669
O O5 0.656842 0.828421 0.890292
O O6 0.570482 0.884821 0.834434
O O7 0.705597 0.000000 0.890386
O O8 0.568721 0.884097 0.944651
O O9 0.258430 0.741571 0.000000
O O10 0.146705 0.573353 0.000000
O O11 0.867108 0.325560 0.500000
O O12 0.864872 0.432436 0.426467
O O13 0.000000 0.417447 0.437776
O O14 0.573601 0.147202 0.218503
O O15 0.742287 0.257713 0.220534
#
# Coordination Sequence:
#
# PCOD9587826 Si02
#       5
#    24  24  12  24  24
#     4  10  20  32  47  68  93 122 157 198 241 281
#     4  10  21  35  51  72  97 127 162 201 243 282
#     4  10  20  33  50  73 102 134 165 196 232 277
#     4   8  14  26  45  68  92 117 146 181 222 271
#     4  10  20  33  50  73 101 130 157 186 224 273
#
# _framework density 16.528010999999999
#
# number of rings (size 3 to 8) (size 9 to 14) (size 15 to 20)
#    0.000    2.444    0.000    3.333    0.000    4.889 
#    0.000    2.222    0.000    0.889    0.000    0.000 
#    0.000    8.000    0.000    5.556    0.000    0.889 
#
# Total GULP energy -602338.579404 kJ/mol
# GULP energy per Si atom -5577.209069 kJ/mol
# Density = 1.649039 g / cm^3
# Si number density = 16.528011 Si / 1000 Ang^3
#
#
#
# Elastic Constant Matrix: (Units=GPa)
#
#
# Indices 1 2 3 4 5 6 
#
# 1 94.7212 78.4842 42.9757 0.0000 0.0000 0.0000
# 2 78.4842 94.7212 42.9757 0.0000 0.0000 0.0000
# 3 42.9757 42.9757 120.5376 0.0000 0.0000 0.0000
# 4 0.0000 0.0000 0.0000 33.8108 0.0000 0.0000
# 5 0.0000 0.0000 0.0000 0.0000 33.8108 0.0000
# 6 0.0000 0.0000 0.0000 0.0000 0.0000 8.1185
#
#
#
# Elastic Compliance Matrix: (Units=1/GPa)
#
#
# Indices 1 2 3 4 5 6 
#
# 1 0.034301 -0.027287 -0.002501 0.000000 0.000000 0.000000
# 2 -0.027287 0.034301 -0.002501 0.000000 0.000000 0.000000
# 3 -0.002501 -0.002501 0.010079 0.000000 0.000000 0.000000
# 4 0.000000 0.000000 0.000000 0.029576 0.000000 0.000000
# 5 0.000000 0.000000 0.000000 0.000000 0.029576 0.000000
# 6 0.000000 0.000000 0.000000 0.000000 0.000000 0.123175
#
#
# Mechanical properties :
#
#
# Convention : Reuss Voigt Hill
#
# Bulk Modulus (GPa) = 70.89733 70.98345 70.94039
# Shear Modulus (GPa) = 15.13830 24.85097 19.99464
#
# Velocity S-wave (km/s) = 3.02970 3.88179 3.48191
# Velocity P-wave (km/s) = 7.43150 7.94554 7.69282
#
# Compressibility (1/GPa) = 0.01410490
#
# Stress axis : x y z
#
# Youngs Moduli (GPa) = 29.15360 29.15360 99.21136
#
# Poissons Ratio (x) = 0.79550 0.24812
# Poissons Ratio (y) = 0.79550 0.24812
# Poissons Ratio (z) = 0.07291 0.07291
#
# Static dielectric constant tensor:
#      x y z
#    x 1.541590 0.000000 0.000000 
#    y 0.000000 1.541590 0.000000 
#    z 0.000000 0.000000 1.565590 
# 
# From -- ./inp_files/7307.got.cif
#   From: 2010.05.17/outbox.cif.g08.bks.cpg/sg191_4_cif.got.tgz:7307.got - 2010.05.20 12:20:32.
