data_PCOD9587954
_publ_section_title
;
Structure prediction by ZEFSAII (Michael W. Deem and Ramdas Pophale) SiO2 
 PCOD9587954
Probable space group: P 6/M M M
;
_chemical_formula_sum "Si O2"
_cell_formula_units_Z 192
_cell_length_a 24.361802
_cell_length_b 24.361802
_cell_length_c 21.163102
_cell_angle_alpha 90.000000
_cell_angle_beta 90.000000
_cell_angle_gamma 120.000000
_cell_volume 10877.492064
_symmetry_space_group_name_H-M "P 6/M M M"
_symmetry_group_IT_number 191
_symmetry_cell_setting 'hexagonal'
loop_
_space_group_symop_operation_xyz
x,y,z
x-y,x,z
-y,x-y,z
-x,-y,z
-x+y,-x,z
y,-x+y,z
x-y,-y,-z
-x,-x+y,-z
y,x,-z
-y,-x,-z
-x+y,y,-z
x,x-y,-z
-x,-y,-z
-x+y,-x,-z
y,-x+y,-z
x,y,-z
x-y,x,-z
-y,x-y,-z
-x+y,y,z
x,x-y,z
-y,-x,z
y,x,z
x-y,-y,z
-x,-x+y,z
loop_
_atom_site_type_symbol
_atom_site_label
_atom_site_fract_x
_atom_site_fract_y
_atom_site_fract_z
Si Si1 0.804128 0.075472 0.796038
Si Si2 0.264336 0.396967 0.569381
Si Si3 0.479939 0.837014 0.265944
Si Si4 0.679765 0.753253 0.930792
Si Si5 0.626555 0.700588 0.294917
Si Si6 0.071094 0.450627 0.073919
Si Si7 0.333591 0.790645 0.593806
Si Si8 0.543466 0.333146 0.127320
O O1 0.877870 0.122131 0.781776
O O2 0.790764 0.093477 0.865741
O O3 0.761286 0.088667 0.747163
O O4 0.778251 0.000000 0.793867
O O5 0.268508 0.372213 0.500000
O O6 0.194452 0.388903 0.575947
O O7 0.279847 0.370388 0.631745
O O8 0.312364 0.472736 0.570384
O O9 0.433361 0.866722 0.263698
O O10 0.554393 0.886158 0.271127
O O11 0.461780 0.796508 0.330018
O O12 0.465317 0.796197 0.202906
O O13 0.732218 0.732218 0.935360
O O14 0.613469 0.688415 0.922503
O O15 0.677723 0.779697 0.000000
O O16 0.651732 0.651732 0.287819
O O17 0.137297 0.502785 0.103853
O O18 0.000000 0.430792 0.098836
O O19 0.071684 0.466498 0.000000
O O20 0.402262 0.804523 0.573637
O O21 0.279197 0.720804 0.575264
O O22 0.525257 0.262629 0.104359
O O23 0.616392 0.383609 0.112016
#
# Coordination Sequence:
#
# PCOD9587954 Si02
#       8
#    24  24  24  24  24  24  24  24
#     4  10  20  33  51  76 105 135 167 206 251 299
#     4   9  18  32  48  66  92 127 163 199 242 294
#     4   9  19  33  48  69  96 126 161 200 242 293
#     4   8  15  29  49  75 106 134 161 199 246 293
#     4  10  20  33  51  75 100 127 162 205 253 302
#     4   9  19  36  55  74  96 124 164 211 255 303
#     4   9  16  27  44  65  89 118 154 197 242 284
#     4  11  23  37  53  73  98 129 165 207 257 313
#
# _framework density 17.651126999999999
#
# number of rings (size 3 to 8) (size 9 to 14) (size 15 to 20)
#    0.000    2.625    0.000    2.500    0.000    6.250 
#    0.000    4.375    0.000    1.625    0.000    3.500 
#    0.000    0.000    0.000    3.125    0.000    0.000 
#
# Total GULP energy -1069408.094327 kJ/mol
# GULP energy per Si atom -5569.833825 kJ/mol
# Density = 1.761095 g / cm^3
# Si number density = 17.651127 Si / 1000 Ang^3
#
#
#
# Elastic Constant Matrix: (Units=GPa)
#
#
# Indices 1 2 3 4 5 6 
#
# 1 78.0626 48.1783 31.4096 0.0000 0.0000 0.0000
# 2 48.1783 78.0626 31.4096 0.0000 0.0000 0.0000
# 3 31.4096 31.4096 74.5732 0.0000 0.0000 0.0000
# 4 0.0000 0.0000 0.0000 160.6900 0.0000 0.0000
# 5 0.0000 0.0000 0.0000 0.0000 160.6900 0.0000
# 6 0.0000 0.0000 0.0000 0.0000 0.0000 14.9421
#
#
#
# Elastic Compliance Matrix: (Units=1/GPa)
#
#
# Indices 1 2 3 4 5 6 
#
# 1 0.021742 -0.011720 -0.004221 0.000000 0.000000 0.000000
# 2 -0.011720 0.021742 -0.004221 0.000000 0.000000 0.000000
# 3 -0.004221 -0.004221 0.016965 0.000000 0.000000 0.000000
# 4 0.000000 0.000000 0.000000 0.006223 0.000000 0.000000
# 5 0.000000 0.000000 0.000000 0.000000 0.006223 0.000000
# 6 0.000000 0.000000 0.000000 0.000000 0.000000 0.066925
#
#
# Mechanical properties :
#
#
# Convention : Reuss Voigt Hill
#
# Bulk Modulus (GPa) = 49.69027 50.29928 49.99477
# Shear Modulus (GPa) = 26.75880 75.24447 51.00163
#
# Velocity S-wave (km/s) = 3.89779 6.53615 5.38117
# Velocity P-wave (km/s) = 6.96200 9.24770 8.18503
#
# Compressibility (1/GPa) = 0.02012466
#
# Stress axis : x y z
#
# Youngs Moduli (GPa) = 45.99357 45.99357 58.94334
#
# Poissons Ratio (x) = 0.53906 0.24881
# Poissons Ratio (y) = 0.53906 0.24881
# Poissons Ratio (z) = 0.19414 0.19414
#
# Static dielectric constant tensor:
#      x y z
#    x 1.602600 0.000000 0.000000 
#    y 0.000000 1.602600 0.000000 
#    z 0.000000 0.000000 1.642470 
# 
# From -- ./inp_files/8080.got.cif
#   From: 2010.05.17/outbox.cif.g08.bks.cpg/sg191_5_cif.got.tgz:8080.got - 2010.05.20 12:20:32.
