data_PCOD9587291
_publ_section_title
;
Structure prediction by ZEFSAII (Michael W. Deem and Ramdas Pophale) SiO2 
 PCOD9587291
Probable space group: P 6/M M M
;
_chemical_formula_sum "Si O2"
_cell_formula_units_Z 120
_cell_length_a 27.599162
_cell_length_b 27.599162
_cell_length_c 12.074995
_cell_angle_alpha 90.000000
_cell_angle_beta 90.000000
_cell_angle_gamma 120.000000
_cell_volume 7965.432884
_symmetry_space_group_name_H-M "P 6/M M M"
_symmetry_group_IT_number 191
_symmetry_cell_setting 'hexagonal'
loop_
_space_group_symop_operation_xyz
x,y,z
x-y,x,z
-y,x-y,z
-x,-y,z
-x+y,-x,z
y,-x+y,z
x-y,-y,-z
-x,-x+y,-z
y,x,-z
-y,-x,-z
-x+y,y,-z
x,x-y,-z
-x,-y,-z
-x+y,-x,-z
y,-x+y,-z
x,y,-z
x-y,x,-z
-y,x-y,-z
-x+y,y,z
x,x-y,z
-y,-x,z
y,x,z
x-y,-y,z
-x,-x+y,z
loop_
_atom_site_type_symbol
_atom_site_label
_atom_site_fract_x
_atom_site_fract_y
_atom_site_fract_z
Si Si1 0.447465 0.780367 0.760407
Si Si2 0.658734 0.063313 0.000000
Si Si3 0.641019 0.168299 0.000000
Si Si4 0.936015 0.174333 0.867949
Si Si5 0.064565 0.344253 0.774026
Si Si6 0.560461 0.838048 0.630894
O O1 0.392638 0.785276 0.738951
O O2 0.434752 0.717376 0.741334
O O3 0.500793 0.821049 0.685935
O O4 0.465118 0.796901 0.888476
O O5 0.643689 0.111901 0.000000
O O6 0.694485 0.069124 0.890851
O O7 0.606686 0.000000 0.000000
O O8 0.577257 0.154513 0.000000
O O9 0.888846 0.111155 0.843364
O O10 0.924555 0.217883 0.801065
O O11 0.000000 0.191033 0.845836
O O12 0.932716 0.183806 0.000000
O O13 0.108731 0.389341 0.690441
O O14 0.000000 0.316606 0.736296
O O15 0.559547 0.846814 0.500000
O O16 0.568123 0.784062 0.648513
#
# Coordination Sequence:
#
# PCOD9587291 Si02
#       6
#    24  12  12  24  24  24
#     4  10  20  34  52  73  96 122 154 195 243 292
#     4  10  18  30  48  73  99 122 153 193 231 287
#     4  10  19  32  50  73  98 124 150 187 244 295
#     4   9  16  26  42  67  97 127 159 196 238 281
#     4  10  18  31  50  72  98 124 155 195 240 286
#     4  10  21  35  50  70  95 125 163 200 232 276
#
# _framework density 15.065094
#
# number of rings (size 3 to 8) (size 9 to 14) (size 15 to 20)
#    0.000    2.200    3.000    1.100    0.000    1.000 
#    0.000    1.000    0.000    2.000    0.000    2.800 
#    0.000    0.000    0.000    0.000    0.000    0.000 
#
# Total GULP energy -668975.503408 kJ/mol
# GULP energy per Si atom -5574.795862 kJ/mol
# Density = 1.503081 g / cm^3
# Si number density = 15.065094 Si / 1000 Ang^3
#
#
#
# Elastic Constant Matrix: (Units=GPa)
#
#
# Indices 1 2 3 4 5 6 
#
# 1 110.8562 72.2236 51.7537 0.0000 0.0000 0.0000
# 2 72.2236 110.8562 51.7537 0.0000 0.0000 0.0000
# 3 51.7537 51.7537 82.4075 0.0000 0.0000 0.0000
# 4 0.0000 0.0000 0.0000 13.6941 0.0000 0.0000
# 5 0.0000 0.0000 0.0000 0.0000 13.6941 0.0000
# 6 0.0000 0.0000 0.0000 0.0000 0.0000 19.3163
#
#
#
# Elastic Compliance Matrix: (Units=1/GPa)
#
#
# Indices 1 2 3 4 5 6 
#
# 1 0.017177 -0.008708 -0.005319 0.000000 0.000000 0.000000
# 2 -0.008708 0.017177 -0.005319 0.000000 0.000000 0.000000
# 3 -0.005319 -0.005319 0.018816 0.000000 0.000000 0.000000
# 4 0.000000 0.000000 0.000000 0.073024 0.000000 0.000000
# 5 0.000000 0.000000 0.000000 0.000000 0.073024 0.000000
# 6 0.000000 0.000000 0.000000 0.000000 0.000000 0.051770
#
#
# Mechanical properties :
#
#
# Convention : Reuss Voigt Hill
#
# Bulk Modulus (GPa) = 69.06768 72.84242 70.95505
# Shear Modulus (GPa) = 16.97768 17.90019 17.43894
#
# Velocity S-wave (km/s) = 3.36066 3.45075 3.40600
# Velocity P-wave (km/s) = 7.81053 8.02083 7.91638
#
# Compressibility (1/GPa) = 0.01447855
#
# Stress axis : x y z
#
# Youngs Moduli (GPa) = 58.21737 58.21737 53.14765
#
# Poissons Ratio (x) = 0.50695 0.28268
# Poissons Ratio (y) = 0.50695 0.28268
# Poissons Ratio (z) = 0.30965 0.30965
#
# Static dielectric constant tensor:
#      x y z
#    x 1.486380 0.000000 0.000000 
#    y 0.000000 1.486380 0.000000 
#    z 0.000000 0.000000 1.484730 
# 
# From -- ./inp_files/3243.got.cif
#   From: 2010.05.17/outbox.cif.g08.bks.cpg/sg191_2_cif.got.tgz:3243.got - 2010.05.20 12:20:32.
