data_PCOD9587983
_publ_section_title
;
Structure prediction by ZEFSAII (Michael W. Deem and Ramdas Pophale) SiO2 
 PCOD9587983
Probable space group: P 6/M M M
;
_chemical_formula_sum "Si O2"
_cell_formula_units_Z 144
_cell_length_a 32.772430
_cell_length_b 32.772430
_cell_length_c 8.937901
_cell_angle_alpha 90.000000
_cell_angle_beta 90.000000
_cell_angle_gamma 120.000000
_cell_volume 8313.491568
_symmetry_space_group_name_H-M "P 6/M M M"
_symmetry_group_IT_number 191
_symmetry_cell_setting 'hexagonal'
loop_
_space_group_symop_operation_xyz
x,y,z
x-y,x,z
-y,x-y,z
-x,-y,z
-x+y,-x,z
y,-x+y,z
x-y,-y,-z
-x,-x+y,-z
y,x,-z
-y,-x,-z
-x+y,y,-z
x,x-y,-z
-x,-y,-z
-x+y,-x,-z
y,-x+y,-z
x,y,-z
x-y,x,-z
-y,x-y,-z
-x+y,y,z
x,x-y,z
-y,-x,z
y,x,z
x-y,-y,z
-x,-x+y,z
loop_
_atom_site_type_symbol
_atom_site_label
_atom_site_fract_x
_atom_site_fract_y
_atom_site_fract_z
Si Si1 0.901145 0.198018 0.828581
Si Si2 0.428885 0.666726 0.319577
Si Si3 0.147736 0.393813 0.325070
Si Si4 0.854191 0.801734 0.319790
Si Si5 0.426409 0.478601 0.181865
Si Si6 0.665638 0.147513 0.179760
O O1 0.851055 0.148946 0.829101
O O2 0.891044 0.234566 0.740982
O O3 0.936397 0.184454 0.748991
O O4 0.914642 0.212528 0.000000
O O5 0.433896 0.667485 0.500000
O O6 0.430378 0.715189 0.276035
O O7 0.378710 0.621291 0.281037
O O8 0.471302 0.662856 0.246041
O O9 0.139249 0.397276 0.500000
O O10 0.198174 0.396348 0.311870
O O11 0.149690 0.436651 0.235383
O O12 0.852046 0.797435 0.500000
O O13 0.905654 0.811307 0.272408
O O14 0.841469 0.841469 0.277393
O O15 0.471357 0.528644 0.224770
O O16 0.438299 0.438299 0.231099
O O17 0.378581 0.476269 0.231106
O O18 0.425323 0.477382 0.000000
O O19 0.664956 0.149549 0.000000
#
# Coordination Sequence:
#
# PCOD9587983 Si02
#       6
#    24  24  24  24  24  24
#     4   9  17  30  49  72  96 123 159 204 251 296
#     4  10  21  37  55  74 100 137 178 216 257 309
#     4  10  20  34  51  70  97 135 172 202 240 296
#     4   9  17  30  49  73 102 137 176 216 259 309
#     4   8  15  30  51  72  94 121 153 190 235 289
#     4  11  21  32  51  79 105 129 163 208 255 302
#
# _framework density 17.321242999999999
#
# number of rings (size 3 to 8) (size 9 to 14) (size 15 to 20)
#    0.000    2.500    0.000    3.167    0.000    7.333 
#    0.000    0.833    0.000    6.167    0.000    7.000 
#    0.000    0.000    0.000    4.167    0.000    4.333 
#
# Total GULP energy -802948.880050 kJ/mol
# GULP energy per Si atom -5576.033889 kJ/mol
# Density = 1.728182 g / cm^3
# Si number density = 17.321243 Si / 1000 Ang^3
#
#
#
# Elastic Constant Matrix: (Units=GPa)
#
#
# Indices 1 2 3 4 5 6 
#
# 1 116.6757 71.7987 38.4842 0.0000 0.0000 0.0000
# 2 71.7987 116.6757 38.4842 0.0000 0.0000 0.0000
# 3 38.4842 38.4842 33.1669 0.0000 0.0000 0.0000
# 4 0.0000 0.0000 0.0000 18.8612 0.0000 0.0000
# 5 0.0000 0.0000 0.0000 0.0000 18.8612 0.0000
# 6 0.0000 0.0000 0.0000 0.0000 0.0000 22.4385
#
#
#
# Elastic Compliance Matrix: (Units=1/GPa)
#
#
# Indices 1 2 3 4 5 6 
#
# 1 0.016184 -0.006100 -0.011701 0.000000 0.000000 0.000000
# 2 -0.006100 0.016184 -0.011701 0.000000 0.000000 0.000000
# 3 -0.011701 -0.011701 0.057304 0.000000 0.000000 0.000000
# 4 0.000000 0.000000 0.000000 0.053019 0.000000 0.000000
# 5 0.000000 0.000000 0.000000 0.000000 0.053019 0.000000
# 6 0.000000 0.000000 0.000000 0.000000 0.000000 0.044566
#
#
# Mechanical properties :
#
#
# Convention : Reuss Voigt Hill
#
# Bulk Modulus (GPa) = 32.60630 62.67249 47.63940
# Shear Modulus (GPa) = 16.15512 19.88229 18.01870
#
# Velocity S-wave (km/s) = 3.05729 3.39168 3.22881
# Velocity P-wave (km/s) = 5.59714 7.18324 6.43921
#
# Compressibility (1/GPa) = 0.03066892
#
# Stress axis : x y z
#
# Youngs Moduli (GPa) = 61.79103 61.79103 17.45089
#
# Poissons Ratio (x) = 0.37690 0.20419
# Poissons Ratio (y) = 0.37690 0.20419
# Poissons Ratio (z) = 0.72300 0.72300
#
# Static dielectric constant tensor:
#      x y z
#    x 1.578050 0.000000 0.000000 
#    y 0.000000 1.578050 0.000000 
#    z 0.000000 0.000000 1.586530 
# 
# From -- ./inp_files/1969.got.cif
#   From: 2010.05.17/outbox.cif.g08.bks.cpg/sg191_1_cif.got.tgz:1969.got - 2010.05.20 12:20:32.
