data_PCOD9587894
_publ_section_title
;
Structure prediction by ZEFSAII (Michael W. Deem and Ramdas Pophale) SiO2 
 PCOD9587894
Probable space group: P 6/M M M
;
_chemical_formula_sum "Si O2"
_cell_formula_units_Z 88
_cell_length_a 18.228410
_cell_length_b 18.228410
_cell_length_c 19.962430
_cell_angle_alpha 90.000000
_cell_angle_beta 90.000000
_cell_angle_gamma 120.000000
_cell_volume 5744.359540
_symmetry_space_group_name_H-M "P 6/M M M"
_symmetry_group_IT_number 191
_symmetry_cell_setting 'hexagonal'
loop_
_space_group_symop_operation_xyz
x,y,z
x-y,x,z
-y,x-y,z
-x,-y,z
-x+y,-x,z
y,-x+y,z
x-y,-y,-z
-x,-x+y,-z
y,x,-z
-y,-x,-z
-x+y,y,-z
x,x-y,-z
-x,-y,-z
-x+y,-x,-z
y,-x+y,-z
x,y,-z
x-y,x,-z
-y,x-y,-z
-x+y,y,z
x,x-y,z
-y,-x,z
y,x,z
x-y,-y,z
-x,-x+y,z
loop_
_atom_site_type_symbol
_atom_site_label
_atom_site_fract_x
_atom_site_fract_y
_atom_site_fract_z
Si Si1 0.470540 0.235270 0.580051
Si Si2 0.100435 0.636153 0.327138
Si Si3 0.902097 0.634034 0.803661
Si Si4 0.495294 0.161587 0.077964
Si Si5 0.333334 0.666667 0.580282
O O1 0.460466 0.230233 0.500000
O O2 0.439578 0.293672 0.615433
O O3 0.569752 0.284876 0.599617
O O4 0.126748 0.563374 0.326657
O O5 0.117551 0.684781 0.256611
O O6 0.000000 0.586549 0.337644
O O7 0.830993 0.661985 0.801652
O O8 0.889569 0.582443 0.872247
O O9 0.000000 0.706955 0.797104
O O10 0.575600 0.151199 0.095111
O O11 0.519802 0.259901 0.084095
O O12 0.473396 0.137617 0.000000
O O13 0.333334 0.666667 0.500000
#
# Coordination Sequence:
#
# PCOD9587894 Si02
#       5
#    12  24  24  24   4
#     4  11  20  32  48  67  93 126 160 195 234 274
#     4  10  20  33  49  70  96 125 158 196 234 274
#     4  10  20  34  51  70  93 122 156 194 238 285
#     4   9  17  29  46  70 101 135 168 199 228 261
#     4   9  18  30  45  66  93 123 157 191 226 276
#
# _framework density 15.319375000000001
#
# number of rings (size 3 to 8) (size 9 to 14) (size 15 to 20)
#    0.000    2.182    2.727    1.091    0.000    3.818 
#    0.000    2.727    0.000    0.273    0.000    0.000 
#    0.000    0.000    0.000    6.818    0.000   12.409 
#
# Total GULP energy -490279.702220 kJ/mol
# GULP energy per Si atom -5571.360253 kJ/mol
# Density = 1.528451 g / cm^3
# Si number density = 15.319375 Si / 1000 Ang^3
#
#
#
# Elastic Constant Matrix: (Units=GPa)
#
#
# Indices 1 2 3 4 5 6 
#
# 1 69.1262 42.1865 36.8862 0.0000 0.0000 0.0000
# 2 42.1865 69.1261 36.8862 0.0000 0.0000 0.0000
# 3 36.8862 36.8862 75.2648 0.0000 0.0000 0.0001
# 4 0.0000 0.0000 0.0000 18.7839 0.0000 0.0000
# 5 0.0000 0.0000 0.0000 0.0000 18.7839 0.0000
# 6 0.0000 0.0000 0.0001 0.0000 0.0000 13.4696
#
#
#
# Elastic Compliance Matrix: (Units=1/GPa)
#
#
# Indices 1 2 3 4 5 6 
#
# 1 0.025213 -0.011907 -0.006521 0.000000 0.000000 0.000000
# 2 -0.011907 0.025213 -0.006521 0.000000 0.000000 0.000000
# 3 -0.006521 -0.006521 0.019678 0.000000 0.000000 0.000000
# 4 0.000000 0.000000 0.000000 0.053237 0.000000 0.000000
# 5 0.000000 0.000000 0.000000 0.000000 0.053237 0.000000
# 6 0.000000 0.000000 0.000000 0.000000 0.000000 0.074241
#
#
# Mechanical properties :
#
#
# Convention : Reuss Voigt Hill
#
# Bulk Modulus (GPa) = 49.49138 49.49275 49.49206
# Shear Modulus (GPa) = 16.26275 16.71137 16.48706
#
# Velocity S-wave (km/s) = 3.26173 3.30641 3.28414
# Velocity P-wave (km/s) = 6.82361 6.85229 6.83797
#
# Compressibility (1/GPa) = 0.02020554
#
# Stress axis : x y z
#
# Youngs Moduli (GPa) = 39.66269 39.66258 50.81851
#
# Poissons Ratio (x) = 0.47227 0.33137
# Poissons Ratio (y) = 0.47228 0.33138
# Poissons Ratio (z) = 0.25863 0.25863
#
# Static dielectric constant tensor:
#      x y z
#    x 1.529000 0.000000 0.000000 
#    y 0.000000 1.529000 0.000000 
#    z 0.000000 0.000000 1.508110 
# 
# From -- ./inp_files/5813.got.cif
#   From: 2010.05.17/outbox.cif.g08.bks.cpg/sg191_3_cif.got.tgz:5813.got - 2010.05.20 12:20:32.
