data_PCOD9587655
_publ_section_title
;
Structure prediction by ZEFSAII (Michael W. Deem and Ramdas Pophale) SiO2 
 PCOD9587655
Probable space group: P 6/M M M
;
_chemical_formula_sum "Si O2"
_cell_formula_units_Z 96
_cell_length_a 31.287049
_cell_length_b 31.287049
_cell_length_c 7.828484
_cell_angle_alpha 90.000000
_cell_angle_beta 90.000000
_cell_angle_gamma 120.000000
_cell_volume 6636.475641
_symmetry_space_group_name_H-M "P 6/M M M"
_symmetry_group_IT_number 191
_symmetry_cell_setting 'hexagonal'
loop_
_space_group_symop_operation_xyz
x,y,z
x-y,x,z
-y,x-y,z
-x,-y,z
-x+y,-x,z
y,-x+y,z
x-y,-y,-z
-x,-x+y,-z
y,x,-z
-y,-x,-z
-x+y,y,-z
x,x-y,-z
-x,-y,-z
-x+y,-x,-z
y,-x+y,-z
x,y,-z
x-y,x,-z
-y,x-y,-z
-x+y,y,z
x,x-y,z
-y,-x,z
y,x,z
x-y,-y,z
-x,-x+y,z
loop_
_atom_site_type_symbol
_atom_site_label
_atom_site_fract_x
_atom_site_fract_y
_atom_site_fract_z
Si Si1 0.435424 0.769493 0.000000
Si Si2 0.856143 0.613208 0.205366
Si Si3 0.845510 0.787941 0.500000
Si Si4 0.719850 0.777655 0.199951
Si Si5 0.804552 0.505291 0.688574
O O1 0.467648 0.798604 0.164515
O O2 0.382383 0.764766 0.000000
O O3 0.430377 0.715188 0.000000
O O4 0.810198 0.620396 0.258920
O O5 0.906380 0.662829 0.246941
O O6 0.846783 0.561704 0.280310
O O7 0.853324 0.607427 0.000000
O O8 0.829618 0.829618 0.500000
O O9 0.903095 0.806189 0.500000
O O10 0.820276 0.754081 0.667479
O O11 0.737184 0.737184 0.212005
O O12 0.726065 0.794094 0.000000
O O13 0.808881 0.488763 0.500000
O O14 0.753704 0.507407 0.696412
#
# Coordination Sequence:
#
# PCOD9587655 Si02
#       5
#    12  24  12  24  24
#     4  10  19  32  46  62  85 113 145 181 220 259
#     4   9  15  25  42  62  85 115 147 176 210 256
#     4  10  20  32  46  65  90 122 157 191 229 271
#     4   9  18  30  43  64  95 124 150 183 218 263
#     4   9  17  28  42  61  84 109 141 180 216 256
#
# _framework density 14.465509000000001
#
# number of rings (size 3 to 8) (size 9 to 14) (size 15 to 20)
#    0.000    2.750    1.250    0.875    1.750    2.000 
#    0.000    0.000    0.000    1.625    0.000    0.000 
#    0.000    2.000    0.000    8.500    0.000    0.000 
#
# Total GULP energy -534694.981024 kJ/mol
# GULP energy per Si atom -5569.739386 kJ/mol
# Density = 1.443258 g / cm^3
# Si number density = 14.465509 Si / 1000 Ang^3
#
#
#
# Elastic Constant Matrix: (Units=GPa)
#
#
# Indices 1 2 3 4 5 6 
#
# 1 76.9154 34.5583 44.0422 0.0000 0.0000 0.0000
# 2 34.5583 76.9154 44.0422 0.0000 0.0000 0.0000
# 3 44.0422 44.0422 90.1911 0.0000 0.0000 0.0000
# 4 0.0000 0.0000 0.0000 6.8870 0.0000 0.0000
# 5 0.0000 0.0000 0.0000 0.0000 6.8870 0.0000
# 6 0.0000 0.0000 0.0000 0.0000 0.0000 21.1785
#
#
#
# Elastic Compliance Matrix: (Units=1/GPa)
#
#
# Indices 1 2 3 4 5 6 
#
# 1 0.019108 -0.004501 -0.007133 0.000000 0.000000 0.000000
# 2 -0.004501 0.019108 -0.007133 0.000000 0.000000 0.000000
# 3 -0.007133 -0.007133 0.018054 0.000000 0.000000 0.000000
# 4 0.000000 0.000000 0.000000 0.145201 0.000000 0.000000
# 5 0.000000 0.000000 0.000000 0.000000 0.145201 0.000000
# 6 0.000000 0.000000 0.000000 0.000000 0.000000 0.047218
#
#
# Mechanical properties :
#
#
# Convention : Reuss Voigt Hill
#
# Bulk Modulus (GPa) = 53.37243 54.36745 53.86994
# Shear Modulus (GPa) = 11.42419 15.08246 13.25333
#
# Velocity S-wave (km/s) = 2.81331 3.23251 3.03017
# Velocity P-wave (km/s) = 6.89415 7.18317 7.04015
#
# Compressibility (1/GPa) = 0.01873627
#
# Stress axis : x y z
#
# Youngs Moduli (GPa) = 52.33434 52.33434 55.38987
#
# Poissons Ratio (x) = 0.23555 0.39509
# Poissons Ratio (y) = 0.23555 0.39509
# Poissons Ratio (z) = 0.37330 0.37330
#
# Static dielectric constant tensor:
#      x y z
#    x 1.458090 0.000000 0.000000 
#    y 0.000000 1.458090 0.000000 
#    z 0.000000 0.000000 1.517900 
# 
# From -- ./inp_files/1576.got.cif
#   From: 2010.05.17/outbox.cif.g08.bks.cpg/sg191_1_cif.got.tgz:1576.got - 2010.05.20 12:20:32.
