data_PCOD9587312
_publ_section_title
;
Structure prediction by ZEFSAII (Michael W. Deem and Ramdas Pophale) SiO2 
 PCOD9587312
Probable space group: P 6/M M M
;
_chemical_formula_sum "Si O2"
_cell_formula_units_Z 108
_cell_length_a 27.712049
_cell_length_b 27.712049
_cell_length_c 10.509515
_cell_angle_alpha 90.000000
_cell_angle_beta 90.000000
_cell_angle_gamma 120.000000
_cell_volume 6989.571994
_symmetry_space_group_name_H-M "P 6/M M M"
_symmetry_group_IT_number 191
_symmetry_cell_setting 'hexagonal'
loop_
_space_group_symop_operation_xyz
x,y,z
x-y,x,z
-y,x-y,z
-x,-y,z
-x+y,-x,z
y,-x+y,z
x-y,-y,-z
-x,-x+y,-z
y,x,-z
-y,-x,-z
-x+y,y,-z
x,x-y,-z
-x,-y,-z
-x+y,-x,-z
y,-x+y,-z
x,y,-z
x-y,x,-z
-y,x-y,-z
-x+y,y,z
x,x-y,z
-y,-x,z
y,x,z
x-y,-y,z
-x,-x+y,z
loop_
_atom_site_type_symbol
_atom_site_label
_atom_site_fract_x
_atom_site_fract_y
_atom_site_fract_z
Si Si1 0.674631 0.783333 0.728275
Si Si2 0.170152 0.716197 0.646346
Si Si3 0.580668 0.580668 0.846181
Si Si4 0.065473 0.236994 0.500000
Si Si5 0.492884 0.875277 0.848756
Si Si6 0.310872 0.310872 0.148632
O O1 0.676055 0.838028 0.786584
O O2 0.612635 0.745744 0.671043
O O3 0.721344 0.805046 0.619405
O O4 0.687614 0.744212 0.815060
O O5 0.160766 0.695243 0.500000
O O6 0.233963 0.766038 0.657479
O O7 0.155134 0.669521 0.753562
O O8 0.586686 0.527716 0.813092
O O9 0.635260 0.635260 0.793532
O O10 0.580635 0.580635 0.000000
O O11 0.104909 0.209818 0.500000
O O12 0.000000 0.194824 0.500000
O O13 0.427908 0.855816 0.835992
O O14 0.503914 0.870261 0.000000
O O15 0.317929 0.317929 0.000000
#
# Coordination Sequence:
#
# PCOD9587312 Si02
#       6
#    24  24  12  12  24  12
#     4  10  19  31  48  71  99 132 167 203 245 292
#     4  10  20  34  52  75 101 128 161 204 254 303
#     4   9  17  30  47  70  98 132 168 200 237 284
#     4  10  18  30  50  73  95 127 169 207 245 293
#     4  10  20  34  52  73 100 135 170 203 244 295
#     4  11  20  30  47  71 100 137 173 203 244 291
#
# _framework density 15.451591000000001
#
# number of rings (size 3 to 8) (size 9 to 14) (size 15 to 20)
#    0.000    2.000    4.444    0.333    0.000    2.667 
#    0.000    3.889    0.000    1.889    0.000    0.000 
#    0.000    0.000    0.000    0.000    0.000   10.111 
#
# Total GULP energy -601399.538009 kJ/mol
# GULP energy per Si atom -5568.514241 kJ/mol
# Density = 1.541642 g / cm^3
# Si number density = 15.451591 Si / 1000 Ang^3
#
#
#
# Elastic Constant Matrix: (Units=GPa)
#
#
# Indices 1 2 3 4 5 6 
#
# 1 93.7353 47.1660 44.4955 0.0000 0.0000 0.0000
# 2 47.1660 93.7353 44.4955 0.0000 0.0000 0.0000
# 3 44.4955 44.4955 69.8170 0.0000 0.0000 0.0000
# 4 0.0000 0.0000 0.0000 18.3001 0.0000 0.0000
# 5 0.0000 0.0000 0.0000 0.0000 18.3001 0.0000
# 6 0.0000 0.0000 0.0000 0.0000 0.0000 23.2847
#
#
#
# Elastic Compliance Matrix: (Units=1/GPa)
#
#
# Indices 1 2 3 4 5 6 
#
# 1 0.016676 -0.004797 -0.007570 0.000000 0.000000 0.000000
# 2 -0.004797 0.016676 -0.007570 0.000000 0.000000 0.000000
# 3 -0.007570 -0.007570 0.023973 0.000000 0.000000 0.000000
# 4 0.000000 0.000000 0.000000 0.054644 0.000000 0.000000
# 5 0.000000 0.000000 0.000000 0.000000 0.054644 0.000000
# 6 0.000000 0.000000 0.000000 0.000000 0.000000 0.042947
#
#
# Mechanical properties :
#
#
# Convention : Reuss Voigt Hill
#
# Bulk Modulus (GPa) = 57.31266 58.84458 58.07862
# Shear Modulus (GPa) = 19.58845 20.05235 19.82040
#
# Velocity S-wave (km/s) = 3.56438 3.60634 3.58542
# Velocity P-wave (km/s) = 7.35609 7.45029 7.40334
#
# Compressibility (1/GPa) = 0.01744815
#
# Stress axis : x y z
#
# Youngs Moduli (GPa) = 59.96669 59.96669 41.71435
#
# Poissons Ratio (x) = 0.28769 0.31579
# Poissons Ratio (y) = 0.28769 0.31579
# Poissons Ratio (z) = 0.45397 0.45397
#
# Static dielectric constant tensor:
#      x y z
#    x 1.515690 0.000000 0.000000 
#    y 0.000000 1.515690 0.000000 
#    z 0.000000 0.000000 1.509460 
# 
# From -- ./inp_files/2989.got.cif
#   From: 2010.05.17/outbox.cif.g08.bks.cpg/sg191_2_cif.got.tgz:2989.got - 2010.05.20 12:20:32.
