data_PCOD9587926
_publ_section_title
;
Structure prediction by ZEFSAII (Michael W. Deem and Ramdas Pophale) SiO2 
 PCOD9587926
Probable space group: P 6/M M M
;
_chemical_formula_sum "Si O2"
_cell_formula_units_Z 108
_cell_length_a 17.898823
_cell_length_b 17.898823
_cell_length_c 23.462561
_cell_angle_alpha 90.000000
_cell_angle_beta 90.000000
_cell_angle_gamma 120.000000
_cell_volume 6509.610345
_symmetry_space_group_name_H-M "P 6/M M M"
_symmetry_group_IT_number 191
_symmetry_cell_setting 'hexagonal'
loop_
_space_group_symop_operation_xyz
x,y,z
x-y,x,z
-y,x-y,z
-x,-y,z
-x+y,-x,z
y,-x+y,z
x-y,-y,-z
-x,-x+y,-z
y,x,-z
-y,-x,-z
-x+y,y,-z
x,x-y,-z
-x,-y,-z
-x+y,-x,-z
y,-x+y,-z
x,y,-z
x-y,x,-z
-y,x-y,-z
-x+y,y,z
x,x-y,z
-y,-x,z
y,x,z
x-y,-y,z
-x,-x+y,z
loop_
_atom_site_type_symbol
_atom_site_label
_atom_site_fract_x
_atom_site_fract_y
_atom_site_fract_z
Si Si1 0.270130 0.366761 0.829532
Si Si2 0.332702 0.842487 0.278284
Si Si3 0.508651 0.842033 0.065618
Si Si4 0.895912 0.532488 0.500000
Si Si5 0.100528 0.730086 0.611817
O O1 0.170458 0.340915 0.826681
O O2 0.289545 0.289545 0.823657
O O3 0.318071 0.434985 0.778766
O O4 0.308625 0.416623 0.888845
O O5 0.426356 0.852712 0.280482
O O6 0.258090 0.741910 0.278619
O O7 0.314131 0.885661 0.332499
O O8 0.425567 0.851134 0.077945
O O9 0.483574 0.741787 0.070086
O O10 0.535112 0.868746 0.000000
O O11 0.860841 0.430421 0.500000
O O12 0.874318 0.567454 0.443226
O O13 0.000000 0.578989 0.500000
O O14 0.168124 0.831877 0.615657
O O15 0.000000 0.701327 0.607087
#
# Coordination Sequence:
#
# PCOD9587926 Si02
#       5
#    24  24  24  12  24
#     4  10  21  35  50  69  93 122 156 195 239 283
#     4  10  20  33  50  73 101 131 160 190 226 271
#     4   9  17  29  46  69  98 131 163 192 223 264
#     4   9  17  30  49  72  96 122 154 191 231 280
#     4  10  20  33  50  72  97 127 163 203 245 285
#
# _framework density 16.590855000000001
#
# number of rings (size 3 to 8) (size 9 to 14) (size 15 to 20)
#    0.000    2.333    0.000    2.778    0.000    5.333 
#    0.000    3.333    0.000    3.556    0.000    0.000 
#    0.000    8.000    0.000    5.556    0.000    0.889 
#
# Total GULP energy -602558.906043 kJ/mol
# GULP energy per Si atom -5579.249130 kJ/mol
# Density = 1.655309 g / cm^3
# Si number density = 16.590855 Si / 1000 Ang^3
#
#
#
# Elastic Constant Matrix: (Units=GPa)
#
#
# Indices 1 2 3 4 5 6 
#
# 1 88.7869 75.6359 38.8978 0.0000 0.0000 0.0000
# 2 75.6359 88.7869 38.8978 0.0000 0.0000 0.0000
# 3 38.8978 38.8978 90.2173 0.0000 0.0000 0.0000
# 4 0.0000 0.0000 0.0000 15.6786 0.0000 0.0000
# 5 0.0000 0.0000 0.0000 0.0000 15.6786 0.0000
# 6 0.0000 0.0000 0.0000 0.0000 0.0000 6.5755
#
#
#
# Elastic Compliance Matrix: (Units=1/GPa)
#
#
# Indices 1 2 3 4 5 6 
#
# 1 0.041840 -0.034200 -0.003294 0.000000 0.000000 0.000000
# 2 -0.034200 0.041840 -0.003294 0.000000 0.000000 0.000000
# 3 -0.003294 -0.003294 0.013925 0.000000 0.000000 0.000000
# 4 0.000000 0.000000 0.000000 0.063781 0.000000 0.000000
# 5 0.000000 0.000000 0.000000 0.000000 0.063781 0.000000
# 6 0.000000 0.000000 0.000000 0.000000 0.000000 0.152080
#
#
# Mechanical properties :
#
#
# Convention : Reuss Voigt Hill
#
# Bulk Modulus (GPa) = 62.38674 63.85044 63.11859
# Shear Modulus (GPa) = 10.77195 15.21049 12.99122
#
# Velocity S-wave (km/s) = 2.55084 3.03115 2.80131
# Velocity P-wave (km/s) = 6.80885 7.12877 6.97065
#
# Compressibility (1/GPa) = 0.01602905
#
# Stress axis : x y z
#
# Youngs Moduli (GPa) = 23.90035 23.90035 71.81301
#
# Poissons Ratio (x) = 0.81739 0.23657
# Poissons Ratio (y) = 0.81739 0.23657
# Poissons Ratio (z) = 0.07873 0.07873
#
# Static dielectric constant tensor:
#      x y z
#    x 1.543910 0.000000 0.000000 
#    y 0.000000 1.543910 0.000000 
#    z 0.000000 0.000000 1.567160 
# 
# From -- ./inp_files/7281.got.cif
#   From: 2010.05.17/outbox.cif.g08.bks.cpg/sg191_4_cif.got.tgz:7281.got - 2010.05.20 12:20:32.
