data_PCOD9587042
_publ_section_title
;
Structure prediction by ZEFSAII (Michael W. Deem and Ramdas Pophale) SiO2 
 PCOD9587042
Probable space group: P 6/M M M
;
_chemical_formula_sum "Si O2"
_cell_formula_units_Z 138
_cell_length_a 31.926610
_cell_length_b 31.926610
_cell_length_c 8.084823
_cell_angle_alpha 90.000000
_cell_angle_beta 90.000000
_cell_angle_gamma 120.000000
_cell_volume 7136.853178
_symmetry_space_group_name_H-M "P 6/M M M"
_symmetry_group_IT_number 191
_symmetry_cell_setting 'hexagonal'
loop_
_space_group_symop_operation_xyz
x,y,z
x-y,x,z
-y,x-y,z
-x,-y,z
-x+y,-x,z
y,-x+y,z
x-y,-y,-z
-x,-x+y,-z
y,x,-z
-y,-x,-z
-x+y,y,-z
x,x-y,-z
-x,-y,-z
-x+y,-x,-z
y,-x+y,-z
x,y,-z
x-y,x,-z
-y,x-y,-z
-x+y,y,z
x,x-y,z
-y,-x,z
y,x,z
x-y,-y,z
-x,-x+y,z
loop_
_atom_site_type_symbol
_atom_site_label
_atom_site_fract_x
_atom_site_fract_y
_atom_site_fract_z
Si Si1 0.424163 0.945334 0.300017
Si Si2 0.941674 0.883348 0.500000
Si Si3 0.765713 0.138099 0.200038
Si Si4 0.106168 0.893833 0.309761
Si Si5 0.146075 0.471481 0.804348
Si Si6 0.762107 0.428724 0.301480
Si Si7 0.269102 0.054198 0.300197
O O1 0.421678 0.943454 0.500000
O O2 0.468587 0.937173 0.251757
O O3 0.374176 0.903807 0.230827
O O4 0.439809 0.000000 0.249443
O O5 0.915355 0.915355 0.500000
O O6 0.922749 0.845498 0.343607
O O7 0.815508 0.184493 0.256041
O O8 0.720348 0.142652 0.260820
O O9 0.765989 0.090271 0.254664
O O10 0.765030 0.138371 0.000000
O O11 0.115518 0.884483 0.500000
O O12 0.075377 0.840292 0.236921
O O13 0.190683 0.520231 0.734320
O O14 0.153797 0.472836 0.000000
O O15 0.757707 0.423970 0.500000
O O16 0.713780 0.427559 0.237811
O O17 0.766581 0.383291 0.238197
O O18 0.265597 0.051361 0.500000
O O19 0.248508 0.000000 0.237056
#
# Coordination Sequence:
#
# PCOD9587042 Si02
#       7
#    24   6  24  12  24  24  24
#     4   9  19  37  59  81 107 141 181 225 271 321
#     4  10  17  26  44  74 116 156 186 218 270 338
#     4  10  22  39  54  72 104 144 180 218 267 320
#     4   8  16  29  47  71 104 138 172 221 267 312
#     4  11  23  37  55  80 112 146 181 223 275 334
#     4  10  21  38  60  85 112 144 182 226 274 330
#     4  10  19  33  55  81 104 134 180 226 272 323
#
# _framework density 19.336254
#
# number of rings (size 3 to 8) (size 9 to 14) (size 15 to 20)
#    0.261    1.913    0.870    2.826    0.000    7.304 
#    0.000    4.348    0.000    1.043    0.000    0.000 
#    0.000    0.000    0.000    0.000    0.000    6.174 
#
# Total GULP energy -769869.271789 kJ/mol
# GULP energy per Si atom -5578.762839 kJ/mol
# Density = 1.929224 g / cm^3
# Si number density = 19.336254 Si / 1000 Ang^3
#
#
#
# Elastic Constant Matrix: (Units=GPa)
#
#
# Indices 1 2 3 4 5 6 
#
# 1 177.7539 123.5085 9.0095 0.0000 0.0000 0.0000
# 2 123.5085 177.7539 9.0095 0.0000 0.0000 0.0000
# 3 9.0095 9.0095 11.3729 0.0000 0.0000 0.0000
# 4 0.0000 0.0000 0.0000 -46.1032 0.0000 0.0000
# 5 0.0000 0.0000 0.0000 0.0000 -46.1032 0.0000
# 6 0.0000 0.0000 0.0000 0.0000 0.0000 27.1227
#
#
#
# Elastic Compliance Matrix: (Units=1/GPa)
#
#
# Indices 1 2 3 4 5 6 
#
# 1 0.010960 -0.007475 -0.002760 0.000000 0.000000 0.000000
# 2 -0.007475 0.010960 -0.002760 0.000000 0.000000 0.000000
# 3 -0.002760 -0.002760 0.092302 0.000000 0.000000 0.000000
# 4 0.000000 0.000000 0.000000 -0.021690 0.000000 0.000000
# 5 0.000000 0.000000 0.000000 0.000000 -0.021690 0.000000
# 6 0.000000 0.000000 0.000000 0.000000 0.000000 0.036869
#
#
# Mechanical properties :
#
#
# Convention : Reuss Voigt Hill
#
# Bulk Modulus (GPa) = 11.33409 72.21508 41.77459
# Shear Modulus (GPa) = 30.65394 2.00679 16.33036
#
# Velocity S-wave (km/s) = 3.98591 1.01985 2.90926
# Velocity P-wave (km/s) = 5.20170 6.23016 5.73901
#
# Compressibility (1/GPa) = 0.08822937
#
# Stress axis : x y z
#
# Youngs Moduli (GPa) = 91.24419 91.24419 10.83402
#
# Poissons Ratio (x) = 0.68206 0.02991
# Poissons Ratio (y) = 0.68206 0.02991
# Poissons Ratio (z) = 0.25187 0.25187
#
# Static dielectric constant tensor:
#      x y z
#    x 1.663540 0.000000 0.000000 
#    y 0.000000 1.663540 0.000000 
#    z 0.000000 0.000000 1.691130 
# 
# From -- ./inp_files/2046.got.cif
#   From: 2010.05.17/outbox.cif.g08.bks.cpg/sg191_2_cif.got.tgz:2046.got - 2010.05.20 12:20:32.
