data_PCOD9587840
_publ_section_title
;
Structure prediction by ZEFSAII (Michael W. Deem and Ramdas Pophale) SiO2 
 PCOD9587840
Probable space group: P 6/M M M
;
_chemical_formula_sum "Si O2"
_cell_formula_units_Z 108
_cell_length_a 25.581410
_cell_length_b 25.581410
_cell_length_c 12.098132
_cell_angle_alpha 90.000000
_cell_angle_beta 90.000000
_cell_angle_gamma 120.000000
_cell_volume 6856.427798
_symmetry_space_group_name_H-M "P 6/M M M"
_symmetry_group_IT_number 191
_symmetry_cell_setting 'hexagonal'
loop_
_space_group_symop_operation_xyz
x,y,z
x-y,x,z
-y,x-y,z
-x,-y,z
-x+y,-x,z
y,-x+y,z
x-y,-y,-z
-x,-x+y,-z
y,x,-z
-y,-x,-z
-x+y,y,-z
x,x-y,-z
-x,-y,-z
-x+y,-x,-z
y,-x+y,-z
x,y,-z
x-y,x,-z
-y,x-y,-z
-x+y,y,z
x,x-y,z
-y,-x,z
y,x,z
x-y,-y,z
-x,-x+y,z
loop_
_atom_site_type_symbol
_atom_site_label
_atom_site_fract_x
_atom_site_fract_y
_atom_site_fract_z
Si Si1 0.832861 0.167140 0.375363
Si Si2 0.071948 0.475204 0.500000
Si Si3 0.536277 0.463724 0.866985
Si Si4 0.809640 0.069003 0.000000
Si Si5 0.258812 0.329301 0.780635
Si Si6 0.759325 0.518650 0.370362
Si Si7 0.340848 0.467039 0.269589
O O1 0.843303 0.156698 0.500000
O O2 0.791171 0.105242 0.312346
O O3 0.796093 0.203908 0.374685
O O4 0.092384 0.546192 0.500000
O O5 0.094971 0.459161 0.610685
O O6 0.000000 0.438994 0.500000
O O7 0.500000 0.500000 0.842705
O O8 0.502347 0.398244 0.809427
O O9 0.539664 0.460337 0.000000
O O10 0.776208 0.076456 0.893683
O O11 0.879144 0.120857 0.000000
O O12 0.795408 0.000000 0.000000
O O13 0.301886 0.301886 0.756665
O O14 0.298388 0.401652 0.783858
O O15 0.749267 0.498533 0.500000
O O16 0.698885 0.502136 0.302333
#
# Coordination Sequence:
#
# PCOD9587840 Si02
#       7
#    12  12  12  12  24  12  24
#     4   9  18  31  45  69 104 133 165 206 250 303
#     4  11  20  31  52  82 112 139 174 222 279 339
#     4  11  24  39  55  78 113 147 181 230 287 338
#     4  10  20  36  56  78 107 143 185 223 261 307
#     4  10  20  32  50  73 102 140 177 212 256 314
#     4   9  18  34  52  77 101 134 168 217 266 320
#     4  11  21  36  53  77 109 140 180 221 275 332
#
# _framework density 15.751644000000001
#
# number of rings (size 3 to 8) (size 9 to 14) (size 15 to 20)
#    0.000    1.778    3.333    2.000    3.111    0.444 
#    0.000    0.556    0.000    0.556    0.000    0.000 
#    0.000    0.000    0.000    0.000    0.000   10.111 
#
# Total GULP energy -602261.869250 kJ/mol
# GULP energy per Si atom -5576.498789 kJ/mol
# Density = 1.571579 g / cm^3
# Si number density = 15.751644 Si / 1000 Ang^3
#
#
#
# Elastic Constant Matrix: (Units=GPa)
#
#
# Indices 1 2 3 4 5 6 
#
# 1 88.7619 46.8734 45.2528 0.0000 0.0000 0.0000
# 2 46.8734 88.7619 45.2528 0.0000 0.0000 0.0000
# 3 45.2528 45.2528 108.1327 0.0000 0.0000 0.0000
# 4 0.0000 0.0000 0.0000 17.1041 0.0000 0.0000
# 5 0.0000 0.0000 0.0000 0.0000 17.1041 0.0000
# 6 0.0000 0.0000 0.0000 0.0000 0.0000 20.9443
#
#
#
# Elastic Compliance Matrix: (Units=1/GPa)
#
#
# Indices 1 2 3 4 5 6 
#
# 1 0.017051 -0.006822 -0.004281 0.000000 0.000000 0.000000
# 2 -0.006822 0.017051 -0.004281 0.000000 0.000000 0.000000
# 3 -0.004281 -0.004281 0.012831 0.000000 0.000000 0.000000
# 4 0.000000 0.000000 0.000000 0.058465 0.000000 0.000000
# 5 0.000000 0.000000 0.000000 0.000000 0.058465 0.000000
# 6 0.000000 0.000000 0.000000 0.000000 0.000000 0.047746
#
#
# Mechanical properties :
#
#
# Convention : Reuss Voigt Hill
#
# Bulk Modulus (GPa) = 61.85856 62.26827 62.06342
# Shear Modulus (GPa) = 20.18039 20.91568 20.54804
#
# Velocity S-wave (km/s) = 3.58321 3.64791 3.61571
# Velocity P-wave (km/s) = 7.51503 7.57364 7.54439
#
# Compressibility (1/GPa) = 0.01616591
#
# Stress axis : x y z
#
# Youngs Moduli (GPa) = 58.64746 58.64746 77.93683
#
# Poissons Ratio (x) = 0.40008 0.33364
# Poissons Ratio (y) = 0.40008 0.33364
# Poissons Ratio (z) = 0.25106 0.25106
#
# Static dielectric constant tensor:
#      x y z
#    x 1.527950 0.000000 0.000000 
#    y 0.000000 1.527950 0.000000 
#    z 0.000000 0.000000 1.517810 
# 
# From -- ./inp_files/3041.got.cif
#   From: 2010.05.17/outbox.cif.g08.bks.cpg/sg191_2_cif.got.tgz:3041.got - 2010.05.20 12:20:32.
