data_PCOD9587943
_publ_section_title
;
Structure prediction by ZEFSAII (Michael W. Deem and Ramdas Pophale) SiO2 
 PCOD9587943
Probable space group: P 6/M M M
;
_chemical_formula_sum "Si O2"
_cell_formula_units_Z 168
_cell_length_a 17.934943
_cell_length_b 17.934943
_cell_length_c 35.677828
_cell_angle_alpha 90.000000
_cell_angle_beta 90.000000
_cell_angle_gamma 120.000000
_cell_volume 9938.687621
_symmetry_space_group_name_H-M "P 6/M M M"
_symmetry_group_IT_number 191
_symmetry_cell_setting 'hexagonal'
loop_
_space_group_symop_operation_xyz
x,y,z
x-y,x,z
-y,x-y,z
-x,-y,z
-x+y,-x,z
y,-x+y,z
x-y,-y,-z
-x,-x+y,-z
y,x,-z
-y,-x,-z
-x+y,y,-z
x,x-y,-z
-x,-y,-z
-x+y,-x,-z
y,-x+y,-z
x,y,-z
x-y,x,-z
-y,x-y,-z
-x+y,y,z
x,x-y,z
-y,-x,z
y,x,z
x-y,-y,z
-x,-x+y,z
loop_
_atom_site_type_symbol
_atom_site_label
_atom_site_fract_x
_atom_site_fract_y
_atom_site_fract_z
Si Si1 0.268850 0.899699 0.814554
Si Si2 0.099424 0.370176 0.329433
Si Si3 0.490062 0.157430 0.257051
Si Si4 0.896020 0.364441 0.112744
Si Si5 0.599780 0.799890 0.544773
Si Si6 0.900391 0.099610 0.454353
Si Si7 0.633674 0.900133 0.956917
Si Si8 0.534892 0.897778 0.405205
O O1 0.167695 0.832306 0.810142
O O2 0.316953 0.885143 0.779584
O O3 0.301791 0.875193 0.852148
O O4 0.297286 0.000000 0.816555
O O5 0.169922 0.339843 0.328033
O O6 0.115621 0.430830 0.293503
O O7 0.116525 0.427953 0.366489
O O8 0.000000 0.295734 0.330073
O O9 0.573782 0.147563 0.257450
O O10 0.515444 0.257722 0.256787
O O11 0.860861 0.430431 0.116541
O O12 0.873468 0.314675 0.073446
O O13 0.000000 0.421644 0.112907
O O14 0.596712 0.798356 0.500000
O O15 0.700715 0.850358 0.556746
O O16 0.554498 0.705233 0.562242
O O17 0.901214 0.098787 0.500000
O O18 0.000000 0.149977 0.442028
O O19 0.669697 0.834849 0.952783
O O20 0.703328 0.000000 0.950249
O O21 0.603423 0.893253 0.000000
O O22 0.435272 0.870544 0.401853
O O23 0.587449 0.000000 0.412504
#
# Coordination Sequence:
#
# PCOD9587943 Si02
#       8
#    24  24  24  24  12  12  24  24
#     4  10  20  33  50  74 104 137 172 210 254 304
#     4  10  20  36  58  82 107 137 173 212 255 303
#     4  10  20  33  52  80 111 141 172 210 255 303
#     4   9  17  29  46  68  93 122 158 201 249 302
#     4  11  22  37  56  79 106 140 177 216 259 306
#     4   9  17  30  51  80 112 142 172 209 256 311
#     4   9  17  29  46  68  93 124 166 214 259 302
#     4  10  21  38  58  79 104 136 175 216 258 305
#
# _framework density 16.903639999999999
#
# number of rings (size 3 to 8) (size 9 to 14) (size 15 to 20)
#    0.000    2.286    0.714    2.357    0.000    4.000 
#    0.429    2.143    0.000    3.571    0.000    1.000 
#    0.000    6.857    0.000    0.143    0.000    0.571 
#
# Total GULP energy -936830.856361 kJ/mol
# GULP energy per Si atom -5576.374145 kJ/mol
# Density = 1.686517 g / cm^3
# Si number density = 16.903640 Si / 1000 Ang^3
#
#
#
# Elastic Constant Matrix: (Units=GPa)
#
#
# Indices 1 2 3 4 5 6 
#
# 1 99.9664 71.7051 41.3942 0.0000 0.0000 0.0000
# 2 71.7051 99.9664 41.3942 0.0000 0.0000 0.0000
# 3 41.3942 41.3942 99.8915 0.0000 0.0000 0.0000
# 4 0.0000 0.0000 0.0000 16.0819 0.0000 0.0000
# 5 0.0000 0.0000 0.0000 0.0000 16.0819 0.0000
# 6 0.0000 0.0000 0.0000 0.0000 0.0000 14.1307
#
#
#
# Elastic Compliance Matrix: (Units=1/GPa)
#
#
# Indices 1 2 3 4 5 6 
#
# 1 0.021332 -0.014052 -0.003017 0.000000 0.000000 0.000000
# 2 -0.014052 0.021332 -0.003017 0.000000 0.000000 0.000000
# 3 -0.003017 -0.003017 0.012511 0.000000 0.000000 0.000000
# 4 0.000000 0.000000 0.000000 0.062182 0.000000 0.000000
# 5 0.000000 0.000000 0.000000 0.000000 0.062182 0.000000
# 6 0.000000 0.000000 0.000000 0.000000 0.000000 0.070768
#
#
# Mechanical properties :
#
#
# Convention : Reuss Voigt Hill
#
# Bulk Modulus (GPa) = 66.64908 67.64568 67.14738
# Shear Modulus (GPa) = 16.92169 18.94762 17.93466
#
# Velocity S-wave (km/s) = 3.16740 3.35165 3.26082
# Velocity P-wave (km/s) = 7.27262 7.42181 7.34760
#
# Compressibility (1/GPa) = 0.01500396
#
# Stress axis : x y z
#
# Youngs Moduli (GPa) = 46.87807 46.87807 79.92916
#
# Poissons Ratio (x) = 0.65873 0.24112
# Poissons Ratio (y) = 0.65873 0.24112
# Poissons Ratio (z) = 0.14142 0.14142
#
# Static dielectric constant tensor:
#      x y z
#    x 1.562010 0.000000 0.000000 
#    y 0.000000 1.562010 0.000000 
#    z 0.000000 0.000000 1.573780 
# 
# From -- ./inp_files/10787.got.cif
#   From: 2010.05.17/outbox.cif.g08.bks.cpg/sg191_6_cif.got.tgz:10787.got - 2010.05.20 12:20:32.
