data_PCOD9587320
_publ_section_title
;
Structure prediction by ZEFSAII (Michael W. Deem and Ramdas Pophale) SiO2 
 PCOD9587320
Probable space group: P 6/M M M
;
_chemical_formula_sum "Si O2"
_cell_formula_units_Z 192
_cell_length_a 23.514312
_cell_length_b 23.514312
_cell_length_c 21.622382
_cell_angle_alpha 90.000000
_cell_angle_beta 90.000000
_cell_angle_gamma 120.000000
_cell_volume 10353.774930
_symmetry_space_group_name_H-M "P 6/M M M"
_symmetry_group_IT_number 191
_symmetry_cell_setting 'hexagonal'
loop_
_space_group_symop_operation_xyz
x,y,z
x-y,x,z
-y,x-y,z
-x,-y,z
-x+y,-x,z
y,-x+y,z
x-y,-y,-z
-x,-x+y,-z
y,x,-z
-y,-x,-z
-x+y,y,-z
x,x-y,-z
-x,-y,-z
-x+y,-x,-z
y,-x+y,-z
x,y,-z
x-y,x,-z
-y,x-y,-z
-x+y,y,z
x,x-y,z
-y,-x,z
y,x,z
x-y,-y,z
-x,-x+y,z
loop_
_atom_site_type_symbol
_atom_site_label
_atom_site_fract_x
_atom_site_fract_y
_atom_site_fract_z
Si Si1 0.276048 0.073774 0.425146
Si Si2 0.211012 0.286656 0.817984
Si Si3 0.612450 0.739918 0.071062
Si Si4 0.454847 0.787589 0.262648
Si Si5 0.903943 0.318028 0.248400
Si Si6 0.602402 0.073291 0.127663
Si Si7 0.463188 0.796755 0.411645
Si Si8 0.665961 0.073694 0.393049
O O1 0.274747 0.073948 0.500000
O O2 0.264883 0.132442 0.402851
O O3 0.347251 0.086091 0.405647
O O4 0.223346 0.000000 0.404281
O O5 0.135673 0.271345 0.810900
O O6 0.227659 0.227659 0.814775
O O7 0.238776 0.326160 0.882739
O O8 0.259059 0.342325 0.768674
O O9 0.594563 0.797282 0.077065
O O10 0.552699 0.670171 0.092183
O O11 0.629935 0.737145 0.000000
O O12 0.407020 0.814039 0.241856
O O13 0.426137 0.713069 0.243366
O O14 0.529868 0.828397 0.243008
O O15 0.456962 0.790751 0.337026
O O16 0.932469 0.374828 0.197028
O O17 0.924663 0.340916 0.318571
O O18 0.547011 0.094021 0.126673
O O19 0.568594 0.000000 0.100235
O O20 0.396027 0.792053 0.433482
O O21 0.471389 0.735695 0.432286
O O22 0.526810 0.867575 0.422757
O O23 0.615401 0.000000 0.415282
#
# Coordination Sequence:
#
# PCOD9587320 Si02
#       8
#    24  24  24  24  24  24  24  24
#     4   9  18  33  53  77 105 136 169 205 246 294
#     4  10  20  33  50  71  95 122 151 188 235 288
#     4   9  18  33  52  72  95 126 164 204 243 283
#     4   9  16  25  38  57  84 119 157 195 233 275
#     4  10  18  31  46  67  98 129 162 198 241 291
#     4  10  20  32  47  69  98 130 162 200 246 293
#     4   9  17  28  42  61  86 118 155 194 236 283
#     4  10  19  30  48  73  98 126 161 203 251 300
#
# _framework density 18.543960999999999
#
# number of rings (size 3 to 8) (size 9 to 14) (size 15 to 20)
#    0.000    2.500    0.000    3.625    0.000    5.000 
#    0.000    0.625    0.000    0.875    0.000    2.625 
#    0.000    1.000    0.000    6.250    0.000    2.125 
#
# Total GULP energy -1069655.052659 kJ/mol
# GULP energy per Si atom -5571.120066 kJ/mol
# Density = 1.850175 g / cm^3
# Si number density = 18.543961 Si / 1000 Ang^3
#
#
#
# Elastic Constant Matrix: (Units=GPa)
#
#
# Indices 1 2 3 4 5 6 
#
# 1 115.6590 85.3123 9.8777 0.0000 0.0000 0.0000
# 2 85.3123 115.6590 9.8777 0.0000 0.0000 0.0000
# 3 9.8777 9.8777 42.6739 0.0000 0.0000 0.0000
# 4 0.0000 0.0000 0.0000 20.0610 0.0000 0.0000
# 5 0.0000 0.0000 0.0000 0.0000 20.0610 0.0000
# 6 0.0000 0.0000 0.0000 0.0000 0.0000 15.1733
#
#
#
# Elastic Compliance Matrix: (Units=1/GPa)
#
#
# Indices 1 2 3 4 5 6 
#
# 1 0.019022 -0.013930 -0.001179 0.000000 0.000000 0.000000
# 2 -0.013930 0.019022 -0.001179 0.000000 0.000000 0.000000
# 3 -0.001179 -0.001179 0.023979 0.000000 0.000000 0.000000
# 4 0.000000 0.000000 0.000000 0.049848 0.000000 0.000000
# 5 0.000000 0.000000 0.000000 0.000000 0.049848 0.000000
# 6 0.000000 0.000000 0.000000 0.000000 0.000000 0.065905
#
#
# Mechanical properties :
#
#
# Convention : Reuss Voigt Hill
#
# Bulk Modulus (GPa) = 33.95791 53.79194 43.87493
# Shear Modulus (GPa) = 18.51743 22.32067 20.41905
#
# Velocity S-wave (km/s) = 3.16344 3.47315 3.32191
# Velocity P-wave (km/s) = 5.62983 6.71971 6.19877
#
# Compressibility (1/GPa) = 0.02944822
#
# Stress axis : x y z
#
# Youngs Moduli (GPa) = 52.57031 52.57031 41.70293
#
# Poissons Ratio (x) = 0.73233 0.04915
# Poissons Ratio (y) = 0.73233 0.04915
# Poissons Ratio (z) = 0.06196 0.06196
#
# Static dielectric constant tensor:
#      x y z
#    x 1.669340 0.000000 0.000000 
#    y 0.000000 1.669340 0.000000 
#    z 0.000000 0.000000 1.667710 
# 
# From -- ./inp_files/9330.got.cif
#   From: 2010.05.17/outbox.cif.g08.bks.cpg/sg191_5_cif.got.tgz:9330.got - 2010.05.20 12:20:32.
