data_PCOD9587608
_publ_section_title
;
Structure prediction by ZEFSAII (Michael W. Deem and Ramdas Pophale) SiO2 
 PCOD9587608
Probable space group: P 6/M M M
;
_chemical_formula_sum "Si O2"
_cell_formula_units_Z 108
_cell_length_a 16.896626
_cell_length_b 16.896626
_cell_length_c 26.120996
_cell_angle_alpha 90.000000
_cell_angle_beta 90.000000
_cell_angle_gamma 120.000000
_cell_volume 6458.331704
_symmetry_space_group_name_H-M "P 6/M M M"
_symmetry_group_IT_number 191
_symmetry_cell_setting 'hexagonal'
loop_
_space_group_symop_operation_xyz
x,y,z
x-y,x,z
-y,x-y,z
-x,-y,z
-x+y,-x,z
y,-x+y,z
x-y,-y,-z
-x,-x+y,-z
y,x,-z
-y,-x,-z
-x+y,y,-z
x,x-y,-z
-x,-y,-z
-x+y,-x,-z
y,-x+y,-z
x,y,-z
x-y,x,-z
-y,x-y,-z
-x+y,y,z
x,x-y,z
-y,-x,z
y,x,z
x-y,-y,z
-x,-x+y,z
loop_
_atom_site_type_symbol
_atom_site_label
_atom_site_fract_x
_atom_site_fract_y
_atom_site_fract_z
Si Si1 0.515860 0.666839 0.393196
Si Si2 0.284326 0.389122 0.287530
Si Si3 0.384293 0.283799 0.500000
Si Si4 0.716666 0.105414 0.061613
Si Si5 0.889169 0.444585 0.767859
Si Si6 0.555419 0.110837 0.115179
O O1 0.482331 0.741166 0.393249
O O2 0.433390 0.566611 0.382343
O O3 0.589751 0.698138 0.348100
O O4 0.557344 0.671412 0.448903
O O5 0.179829 0.359658 0.276146
O O6 0.319110 0.319110 0.272589
O O7 0.350696 0.486870 0.260559
O O8 0.299133 0.299133 0.500000
O O9 0.358724 0.179362 0.500000
O O10 0.820454 0.179547 0.075533
O O11 0.648509 0.135726 0.086195
O O12 0.680596 0.000000 0.077010
O O13 0.708591 0.105951 0.000000
O O14 0.856452 0.428226 0.826351
O O15 0.000000 0.500000 0.768033
O O16 0.500000 0.000000 0.116079
#
# Coordination Sequence:
#
# PCOD9587608 Si02
#       6
#    24  24  12  24  12  12
#     4  10  19  31  48  70  97 126 157 191 232 282
#     4  10  20  34  52  72  97 130 165 202 243 291
#     4  10  21  33  47  68  91 119 152 192 237 283
#     4   9  17  30  49  72  99 132 168 205 246 291
#     4   9  18  33  50  70  96 125 158 199 243 289
#     4   9  17  30  49  70  95 126 161 201 243 287
#
# _framework density 16.722584999999999
#
# number of rings (size 3 to 8) (size 9 to 14) (size 15 to 20)
#    0.000    2.444    1.111    1.556    0.000    4.000 
#    1.333    1.111    0.000    0.556    0.000    1.556 
#    0.000    5.333    0.000   11.111    0.000    6.222 
#
# Total GULP energy -601949.955116 kJ/mol
# GULP energy per Si atom -5573.610696 kJ/mol
# Density = 1.668452 g / cm^3
# Si number density = 16.722585 Si / 1000 Ang^3
#
#
#
# Elastic Constant Matrix: (Units=GPa)
#
#
# Indices 1 2 3 4 5 6 
#
# 1 84.5331 54.6959 18.7785 0.0000 0.0000 0.0000
# 2 54.6959 84.5331 18.7785 0.0000 0.0000 0.0000
# 3 18.7785 18.7785 42.0451 0.0000 0.0000 0.0000
# 4 0.0000 0.0000 0.0000 11.5580 0.0000 0.0000
# 5 0.0000 0.0000 0.0000 0.0000 11.5580 0.0000
# 6 0.0000 0.0000 0.0000 0.0000 0.0000 14.9186
#
#
#
# Elastic Compliance Matrix: (Units=1/GPa)
#
#
# Indices 1 2 3 4 5 6 
#
# 1 0.020841 -0.012674 -0.003647 0.000000 0.000000 0.000000
# 2 -0.012674 0.020841 -0.003647 0.000000 0.000000 0.000000
# 3 -0.003647 -0.003647 0.027042 0.000000 0.000000 0.000000
# 4 0.000000 0.000000 0.000000 0.086520 0.000000 0.000000
# 5 0.000000 0.000000 0.000000 0.000000 0.086520 0.000000
# 6 0.000000 0.000000 0.000000 0.000000 0.000000 0.067030
#
#
# Mechanical properties :
#
#
# Convention : Reuss Voigt Hill
#
# Bulk Modulus (GPa) = 34.73990 43.95746 39.34868
# Shear Modulus (GPa) = 13.95372 15.53081 14.74226
#
# Velocity S-wave (km/s) = 2.89177 3.05082 2.97236
# Velocity P-wave (km/s) = 5.65413 6.22522 5.94653
#
# Compressibility (1/GPa) = 0.02878534
#
# Stress axis : x y z
#
# Youngs Moduli (GPa) = 47.98301 47.98301 36.97960
#
# Poissons Ratio (x) = 0.60816 0.13488
# Poissons Ratio (y) = 0.60816 0.13488
# Poissons Ratio (z) = 0.17501 0.17501
#
# Static dielectric constant tensor:
#      x y z
#    x 1.562960 0.000000 0.000000 
#    y 0.000000 1.562960 0.000000 
#    z 0.000000 0.000000 1.580320 
# 
# From -- ./inp_files/9505.got.cif
#   From: 2010.05.17/outbox.cif.g08.bks.cpg/sg191_5_cif.got.tgz:9505.got - 2010.05.20 12:20:32.
