data_PCOD9587131
_publ_section_title
;
Structure prediction by ZEFSAII (Michael W. Deem and Ramdas Pophale) SiO2 
 PCOD9587131
Probable space group: P 6/M M M
;
_chemical_formula_sum "Si O2"
_cell_formula_units_Z 132
_cell_length_a 18.037901
_cell_length_b 18.037901
_cell_length_c 25.068513
_cell_angle_alpha 90.000000
_cell_angle_beta 90.000000
_cell_angle_gamma 120.000000
_cell_volume 7063.683036
_symmetry_space_group_name_H-M "P 6/M M M"
_symmetry_group_IT_number 191
_symmetry_cell_setting 'hexagonal'
loop_
_space_group_symop_operation_xyz
x,y,z
x-y,x,z
-y,x-y,z
-x,-y,z
-x+y,-x,z
y,-x+y,z
x-y,-y,-z
-x,-x+y,-z
y,x,-z
-y,-x,-z
-x+y,y,-z
x,x-y,-z
-x,-y,-z
-x+y,-x,-z
y,-x+y,-z
x,y,-z
x-y,x,-z
-y,x-y,-z
-x+y,y,z
x,x-y,z
-y,-x,z
y,x,z
x-y,-y,z
-x,-x+y,z
loop_
_atom_site_type_symbol
_atom_site_label
_atom_site_fract_x
_atom_site_fract_y
_atom_site_fract_z
Si Si1 0.323639 0.323639 0.740564
Si Si2 0.363516 0.905183 0.889271
Si Si3 0.837571 0.330198 0.000000
Si Si4 0.333529 0.836638 0.561972
Si Si5 0.330071 0.834575 0.221960
Si Si6 0.000000 0.819451 0.818417
Si Si7 0.000000 0.413701 0.362163
Si Si8 0.178178 0.000000 0.940784
O O1 0.324101 0.409716 0.757270
O O2 0.244942 0.244942 0.772518
O O3 0.343090 0.343090 0.677454
O O4 0.454738 0.909475 0.895405
O O5 0.318984 0.878427 0.946232
O O6 0.319905 0.840044 0.841692
O O7 0.386063 0.000000 0.873811
O O8 0.738070 0.261931 0.000000
O O9 0.849486 0.424743 0.000000
O O10 0.334375 0.861998 0.500000
O O11 0.402288 0.804575 0.565596
O O12 0.239946 0.760055 0.575391
O O13 0.366982 0.916561 0.600908
O O14 0.422206 0.844411 0.232227
O O15 0.254585 0.745416 0.243099
O O16 0.912927 0.825854 0.813253
O O17 0.000000 0.787736 0.880176
O O18 0.000000 0.500000 0.338800
O O19 0.085091 0.914910 0.941112
O O20 0.217680 0.000000 0.000000
#
# Coordination Sequence:
#
# PCOD9587131 Si02
#       8
#    12  24  12  24  24  12  12  12
#     4  12  24  40  58  80 114 158 197 238 290 342
#     4   9  17  31  50  71  96 128 165 211 268 332
#     4  10  18  27  43  69 100 129 164 211 268 333
#     4   9  17  31  54  85 120 156 194 238 287 336
#     4  11  22  38  59  81 106 139 183 233 284 340
#     4  10  21  38  61  88 116 148 188 236 292 356
#     4  10  21  36  55  79 112 156 203 243 283 334
#     4   8  13  24  48  81 113 139 166 208 268 342
#
# _framework density 18.687135000000001
#
# number of rings (size 3 to 8) (size 9 to 14) (size 15 to 20)
#    0.000    2.182    0.909    3.091    0.000    5.455 
#    0.000    1.818    2.000    2.182    0.000    0.000 
#    0.000    0.000    0.000    0.000    0.000    9.636 
#
# Total GULP energy -735263.455849 kJ/mol
# GULP energy per Si atom -5570.177696 kJ/mol
# Density = 1.864460 g / cm^3
# Si number density = 18.687135 Si / 1000 Ang^3
#
#
#
# Elastic Constant Matrix: (Units=GPa)
#
#
# Indices 1 2 3 4 5 6 
#
# 1 86.3097 42.5088 37.6759 0.0000 0.0000 0.0000
# 2 42.5088 86.3097 37.6759 0.0000 0.0000 0.0000
# 3 37.6759 37.6759 71.7039 0.0000 0.0000 0.0000
# 4 0.0000 0.0000 0.0000 18.7886 0.0000 0.0000
# 5 0.0000 0.0000 0.0000 0.0000 18.7886 0.0000
# 6 0.0000 0.0000 0.0000 0.0000 0.0000 21.9004
#
#
#
# Elastic Compliance Matrix: (Units=1/GPa)
#
#
# Indices 1 2 3 4 5 6 
#
# 1 0.017019 -0.005812 -0.005889 0.000000 0.000000 0.000000
# 2 -0.005812 0.017019 -0.005889 0.000000 0.000000 0.000000
# 3 -0.005889 -0.005889 0.020135 0.000000 0.000000 0.000000
# 4 0.000000 0.000000 0.000000 0.053224 0.000000 0.000000
# 5 0.000000 0.000000 0.000000 0.000000 0.053224 0.000000
# 6 0.000000 0.000000 0.000000 0.000000 0.000000 0.045661
#
#
# Mechanical properties :
#
#
# Convention : Reuss Voigt Hill
#
# Bulk Modulus (GPa) = 52.64730 53.33827 52.99278
# Shear Modulus (GPa) = 20.17827 20.32638 20.25232
#
# Velocity S-wave (km/s) = 3.28959 3.30164 3.29562
# Velocity P-wave (km/s) = 6.53167 6.56804 6.54988
#
# Compressibility (1/GPa) = 0.01899433
#
# Stress axis : x y z
#
# Youngs Moduli (GPa) = 58.75765 58.75765 49.66549
#
# Poissons Ratio (x) = 0.34147 0.29247
# Poissons Ratio (y) = 0.34147 0.29247
# Poissons Ratio (z) = 0.34602 0.34602
#
# Static dielectric constant tensor:
#      x y z
#    x 1.637520 0.000000 0.000000 
#    y 0.000000 1.637520 0.000000 
#    z 0.000000 0.000000 1.717810 
# 
# From -- ./inp_files/8757.got.cif
#   From: 2010.05.17/outbox.cif.g08.bks.cpg/sg191_5_cif.got.tgz:8757.got - 2010.05.20 12:20:32.
