data_PCOD9587450
_publ_section_title
;
Structure prediction by ZEFSAII (Michael W. Deem and Ramdas Pophale) SiO2 
 PCOD9587450
Probable space group: P 6/M M M
;
_chemical_formula_sum "Si O2"
_cell_formula_units_Z 168
_cell_length_a 18.493957
_cell_length_b 18.493957
_cell_length_c 34.116861
_cell_angle_alpha 90.000000
_cell_angle_beta 90.000000
_cell_angle_gamma 120.000000
_cell_volume 10105.536728
_symmetry_space_group_name_H-M "P 6/M M M"
_symmetry_group_IT_number 191
_symmetry_cell_setting 'hexagonal'
loop_
_space_group_symop_operation_xyz
x,y,z
x-y,x,z
-y,x-y,z
-x,-y,z
-x+y,-x,z
y,-x+y,z
x-y,-y,-z
-x,-x+y,-z
y,x,-z
-y,-x,-z
-x+y,y,-z
x,x-y,-z
-x,-y,-z
-x+y,-x,-z
y,-x+y,-z
x,y,-z
x-y,x,-z
-y,x-y,-z
-x+y,y,z
x,x-y,z
-y,-x,z
y,x,z
x-y,-y,z
-x,-x+y,z
loop_
_atom_site_type_symbol
_atom_site_label
_atom_site_fract_x
_atom_site_fract_y
_atom_site_fract_z
Si Si1 0.000000 0.167925 0.952278
Si Si2 0.334020 0.833262 0.825689
Si Si3 0.000000 0.336067 0.047015
Si Si4 0.906334 0.259234 0.545231
Si Si5 0.836827 0.503270 0.919680
Si Si6 0.501997 0.834451 0.393252
Si Si7 0.367374 0.467562 0.693090
Si Si8 0.903379 0.261569 0.235691
O O1 0.084007 0.168014 0.939742
O O2 0.000000 0.251853 0.939984
O O3 0.000000 0.167458 0.000000
O O4 0.424434 0.848867 0.813623
O O5 0.262516 0.737485 0.817799
O O6 0.334943 0.845666 0.872388
O O7 0.305947 0.889617 0.802060
O O8 0.082921 0.417960 0.061882
O O9 0.000000 0.336772 0.000000
O O10 0.897931 0.280279 0.500000
O O11 0.836396 0.163604 0.551560
O O12 0.887163 0.313121 0.575655
O O13 0.000000 0.279023 0.550586
O O14 0.750994 0.501988 0.930084
O O15 0.832310 0.416155 0.930666
O O16 0.423484 0.846968 0.398970
O O17 0.477237 0.738619 0.398717
O O18 0.532657 0.860731 0.348705
O O19 0.436773 0.563227 0.703050
O O20 0.418157 0.418157 0.688562
O O21 0.301506 0.420630 0.727309
O O22 0.836230 0.163771 0.233754
O O23 0.000000 0.287920 0.238695
#
# Coordination Sequence:
#
# PCOD9587450 Si02
#       8
#    12  24  12  24  24  24  24  24
#     4   9  17  31  53  79 105 133 165 203 249 301
#     4   9  18  32  52  77 104 132 162 196 236 282
#     4  11  23  37  53  77 107 137 169 211 257 299
#     4   9  18  32  49  68  89 116 153 198 247 297
#     4  10  21  37  56  77 103 136 174 212 252 298
#     4  10  19  30  44  64  94 131 169 205 240 279
#     4   9  17  29  46  70  98 127 159 197 242 292
#     4  10  20  33  50  73 100 130 164 202 244 290
#
# _framework density 16.624551
#
# number of rings (size 3 to 8) (size 9 to 14) (size 15 to 20)
#    0.000    2.429    0.000    2.429    1.000    4.857 
#    0.000    0.714    0.000    6.571    0.000    1.000 
#    0.000    0.000    0.000    4.571    0.000    3.143 
#
# Total GULP energy -936884.062390 kJ/mol
# GULP energy per Si atom -5576.690848 kJ/mol
# Density = 1.658671 g / cm^3
# Si number density = 16.624551 Si / 1000 Ang^3
#
#
#
# Elastic Constant Matrix: (Units=GPa)
#
#
# Indices 1 2 3 4 5 6 
#
# 1 113.4305 76.5018 39.7648 0.0000 0.0000 0.0000
# 2 76.5018 113.4305 39.7648 0.0000 0.0000 0.0000
# 3 39.7648 39.7648 36.6771 0.0000 0.0000 0.0000
# 4 0.0000 0.0000 0.0000 21.6667 0.0000 0.0000
# 5 0.0000 0.0000 0.0000 0.0000 21.6667 0.0000
# 6 0.0000 0.0000 0.0000 0.0000 0.0000 18.4643
#
#
#
# Elastic Compliance Matrix: (Units=1/GPa)
#
#
# Indices 1 2 3 4 5 6 
#
# 1 0.018361 -0.008718 -0.010454 0.000000 0.000000 0.000000
# 2 -0.008718 0.018361 -0.010454 0.000000 0.000000 0.000000
# 3 -0.010454 -0.010454 0.049934 0.000000 0.000000 0.000000
# 4 0.000000 0.000000 0.000000 0.046154 0.000000 0.000000
# 5 0.000000 0.000000 0.000000 0.000000 0.046154 0.000000
# 6 0.000000 0.000000 0.000000 0.000000 0.000000 0.054158
#
#
# Mechanical properties :
#
#
# Convention : Reuss Voigt Hill
#
# Bulk Modulus (GPa) = 36.49418 63.95563 50.22491
# Shear Modulus (GPa) = 16.58325 19.52665 18.05495
#
# Velocity S-wave (km/s) = 3.16177 3.43091 3.29909
# Velocity P-wave (km/s) = 5.94380 7.36539 6.69245
#
# Compressibility (1/GPa) = 0.02740163
#
# Stress axis : x y z
#
# Youngs Moduli (GPa) = 54.46367 54.46367 20.02657
#
# Poissons Ratio (x) = 0.47483 0.20936
# Poissons Ratio (y) = 0.47483 0.20936
# Poissons Ratio (z) = 0.56938 0.56938
#
# Static dielectric constant tensor:
#      x y z
#    x 1.547360 0.000000 0.000000 
#    y 0.000000 1.547360 0.000000 
#    z 0.000000 0.000000 1.559780 
# 
# From -- ./inp_files/10785.got.cif
#   From: 2010.05.17/outbox.cif.g08.bks.cpg/sg191_6_cif.got.tgz:10785.got - 2010.05.20 12:20:32.
