data_PCOD9587666
_publ_section_title
;
Structure prediction by ZEFSAII (Michael W. Deem and Ramdas Pophale) SiO2 
 PCOD9587666
Probable space group: P 6/M M M
;
_chemical_formula_sum "Si O2"
_cell_formula_units_Z 180
_cell_length_a 27.165125
_cell_length_b 27.165125
_cell_length_c 18.253130
_cell_angle_alpha 90.000000
_cell_angle_beta 90.000000
_cell_angle_gamma 120.000000
_cell_volume 11665.178645
_symmetry_space_group_name_H-M "P 6/M M M"
_symmetry_group_IT_number 191
_symmetry_cell_setting 'hexagonal'
loop_
_space_group_symop_operation_xyz
x,y,z
x-y,x,z
-y,x-y,z
-x,-y,z
-x+y,-x,z
y,-x+y,z
x-y,-y,-z
-x,-x+y,-z
y,x,-z
-y,-x,-z
-x+y,y,-z
x,x-y,-z
-x,-y,-z
-x+y,-x,-z
y,-x+y,-z
x,y,-z
x-y,x,-z
-y,x-y,-z
-x+y,y,z
x,x-y,z
-y,-x,z
y,x,z
x-y,-y,z
-x,-x+y,z
loop_
_atom_site_type_symbol
_atom_site_label
_atom_site_fract_x
_atom_site_fract_y
_atom_site_fract_z
Si Si1 0.825947 0.762252 0.000000
Si Si2 0.789523 0.690744 0.147628
Si Si3 0.666430 0.218745 0.413248
Si Si4 0.601244 0.931974 0.203565
Si Si5 0.522202 0.931169 0.081455
Si Si6 0.568897 0.725351 0.337853
Si Si7 0.935327 0.675702 0.583530
Si Si8 0.237801 0.174343 0.703241
O O1 0.800245 0.724301 0.072287
O O2 0.811579 0.811579 0.000000
O O3 0.892160 0.784319 0.000000
O O4 0.833148 0.666296 0.148873
O O5 0.724023 0.645791 0.157784
O O6 0.806776 0.732211 0.217630
O O7 0.665388 0.205370 0.500000
O O8 0.605127 0.210253 0.393331
O O9 0.715429 0.284572 0.404574
O O10 0.686996 0.182286 0.366603
O O11 0.548507 0.916059 0.149838
O O12 0.583070 0.887457 0.270577
O O13 0.632358 0.000000 0.223676
O O14 0.456459 0.912917 0.090843
O O15 0.556776 0.000000 0.079768
O O16 0.529706 0.912255 0.000000
O O17 0.578056 0.789028 0.322828
O O18 0.613112 0.728865 0.399422
O O19 0.931122 0.691351 0.500000
O O20 0.929644 0.716187 0.642641
O O21 0.000000 0.687447 0.592754
O O22 0.220244 0.110122 0.690765
O O23 0.187001 0.187001 0.699636
#
# Coordination Sequence:
#
# PCOD9587666 Si02
#       8
#    12  24  24  24  24  24  24  24
#     4  10  20  32  48  69  95 125 157 195 237 289
#     4  10  20  33  47  69  99 127 159 198 241 288
#     4   9  18  33  53  74  94 119 154 196 238 277
#     4  11  20  30  48  69  93 127 163 194 231 281
#     4   8  16  31  48  67  90 118 157 200 234 266
#     4  11  21  32  47  70 100 128 155 191 238 288
#     4  10  20  33  49  69  94 127 165 200 236 285
#     4  10  19  32  49  68  93 124 159 201 244 290
#
# _framework density 15.430539
#
# number of rings (size 3 to 8) (size 9 to 14) (size 15 to 20)
#    0.000    2.133    1.333    3.333    0.933    2.667 
#    0.000    0.000    0.000    1.400    0.000    4.667 
#    0.000    3.200    0.000    3.333    0.000    0.933 
#
# Total GULP energy -1002857.160285 kJ/mol
# GULP energy per Si atom -5571.428668 kJ/mol
# Density = 1.539542 g / cm^3
# Si number density = 15.430539 Si / 1000 Ang^3
#
#
#
# Elastic Constant Matrix: (Units=GPa)
#
#
# Indices 1 2 3 4 5 6 
#
# 1 88.2913 46.9448 42.9021 0.0000 0.0000 0.0000
# 2 46.9448 88.2913 42.9021 0.0000 0.0000 0.0000
# 3 42.9021 42.9021 105.4913 0.0000 0.0000 0.0000
# 4 0.0000 0.0000 0.0000 28.2496 0.0000 0.0000
# 5 0.0000 0.0000 0.0000 0.0000 28.2496 0.0000
# 6 0.0000 0.0000 0.0000 0.0000 0.0000 20.6732
#
#
#
# Elastic Compliance Matrix: (Units=1/GPa)
#
#
# Indices 1 2 3 4 5 6 
#
# 1 0.017076 -0.007110 -0.004053 0.000000 0.000000 0.000000
# 2 -0.007110 0.017076 -0.004053 0.000000 0.000000 0.000000
# 3 -0.004053 -0.004053 0.012776 0.000000 0.000000 0.000000
# 4 0.000000 0.000000 0.000000 0.035399 0.000000 0.000000
# 5 0.000000 0.000000 0.000000 0.000000 0.035399 0.000000
# 6 0.000000 0.000000 0.000000 0.000000 0.000000 0.048372
#
#
# Mechanical properties :
#
#
# Convention : Reuss Voigt Hill
#
# Bulk Modulus (GPa) = 60.62100 60.84131 60.73116
# Shear Modulus (GPa) = 24.74904 25.38949 25.06927
#
# Velocity S-wave (km/s) = 4.00922 4.06076 4.03507
# Velocity P-wave (km/s) = 7.79765 7.84226 7.81999
#
# Compressibility (1/GPa) = 0.01649593
#
# Stress axis : x y z
#
# Youngs Moduli (GPa) = 58.56184 58.56184 78.27097
#
# Poissons Ratio (x) = 0.41637 0.31724
# Poissons Ratio (y) = 0.41637 0.31724
# Poissons Ratio (z) = 0.23736 0.23736
#
# Static dielectric constant tensor:
#      x y z
#    x 1.511140 0.000000 0.000000 
#    y 0.000000 1.511140 0.000000 
#    z 0.000000 0.000000 1.533820 
# 
# From -- ./inp_files/6903.got.cif
#   From: 2010.05.17/outbox.cif.g08.bks.cpg/sg191_4_cif.got.tgz:6903.got - 2010.05.20 12:20:32.
