data_PCOD9587507
_publ_section_title
;
Structure prediction by ZEFSAII (Michael W. Deem and Ramdas Pophale) SiO2 
 PCOD9587507
Probable space group: P 6/M M M
;
_chemical_formula_sum "Si O2"
_cell_formula_units_Z 132
_cell_length_a 18.269094
_cell_length_b 18.269094
_cell_length_c 28.980001
_cell_angle_alpha 90.000000
_cell_angle_beta 90.000000
_cell_angle_gamma 120.000000
_cell_volume 8376.508790
_symmetry_space_group_name_H-M "P 6/M M M"
_symmetry_group_IT_number 191
_symmetry_cell_setting 'hexagonal'
loop_
_space_group_symop_operation_xyz
x,y,z
x-y,x,z
-y,x-y,z
-x,-y,z
-x+y,-x,z
y,-x+y,z
x-y,-y,-z
-x,-x+y,-z
y,x,-z
-y,-x,-z
-x+y,y,-z
x,x-y,-z
-x,-y,-z
-x+y,-x,-z
y,-x+y,-z
x,y,-z
x-y,x,-z
-y,x-y,-z
-x+y,y,z
x,x-y,z
-y,-x,z
y,x,z
x-y,-y,z
-x,-x+y,z
loop_
_atom_site_type_symbol
_atom_site_label
_atom_site_fract_x
_atom_site_fract_y
_atom_site_fract_z
Si Si1 0.904821 0.265983 0.733630
Si Si2 0.666383 0.507957 0.651004
Si Si3 0.467197 0.366131 0.085573
Si Si4 0.834864 0.332164 0.187924
Si Si5 0.360877 0.261035 0.000000
Si Si6 0.158396 0.492261 0.450505
O O1 0.831810 0.168191 0.732385
O O2 0.888382 0.311821 0.690475
O O3 0.888939 0.307085 0.779116
O O4 0.000000 0.285260 0.732764
O O5 0.744263 0.488525 0.650981
O O6 0.578050 0.421951 0.659262
O O7 0.663124 0.542686 0.599862
O O8 0.561818 0.438183 0.071725
O O9 0.415207 0.415207 0.093113
O O10 0.472958 0.328479 0.134327
O O11 0.420003 0.300618 0.044885
O O12 0.851338 0.425669 0.197378
O O13 0.737442 0.262559 0.196911
O O14 0.294396 0.294396 0.000000
O O15 0.322320 0.161160 0.000000
O O16 0.114470 0.454754 0.500000
O O17 0.246660 0.493319 0.451561
O O18 0.175481 0.587741 0.449666
#
# Coordination Sequence:
#
# PCOD9587507 Si02
#       6
#    24  24  24  24  12  24
#     4  10  21  35  50  67  86 110 141 179 223 268
#     4   9  16  25  39  61  90 123 156 186 213 243
#     4   9  17  29  46  67  90 118 152 189 226 262
#     4  10  19  30  45  67  97 130 160 185 208 238
#     4  10  19  31  47  66  89 117 152 192 233 277
#     4   8  12  18  30  50  78 113 152 189 218 241
#
# _framework density 15.758355
#
# number of rings (size 3 to 8) (size 9 to 14) (size 15 to 20)
#    0.000    2.727    0.000    2.455    0.000    5.455 
#    0.000    1.818    0.000    3.364    0.000    2.545 
#    0.000    0.000    0.000    5.818    0.000    0.000 
#
# Total GULP energy -735165.295195 kJ/mol
# GULP energy per Si atom -5569.434055 kJ/mol
# Density = 1.572249 g / cm^3
# Si number density = 15.758355 Si / 1000 Ang^3
#
#
#
# Elastic Constant Matrix: (Units=GPa)
#
#
# Indices 1 2 3 4 5 6 
#
# 1 61.2126 43.0195 35.9894 0.0000 0.0000 0.0000
# 2 43.0195 61.2126 35.9894 0.0000 0.0000 0.0000
# 3 35.9894 35.9894 77.6590 0.0000 0.0000 0.0000
# 4 0.0000 0.0000 0.0000 9.4121 0.0000 0.0000
# 5 0.0000 0.0000 0.0000 0.0000 9.4121 0.0000
# 6 0.0000 0.0000 0.0000 0.0000 0.0000 9.0966
#
#
#
# Elastic Compliance Matrix: (Units=1/GPa)
#
#
# Indices 1 2 3 4 5 6 
#
# 1 0.034538 -0.020428 -0.006539 0.000000 0.000000 0.000000
# 2 -0.020428 0.034538 -0.006539 0.000000 0.000000 0.000000
# 3 -0.006539 -0.006539 0.018937 0.000000 0.000000 0.000000
# 4 0.000000 0.000000 0.000000 0.106246 0.000000 0.000000
# 5 0.000000 0.000000 0.000000 0.000000 0.106246 0.000000
# 6 0.000000 0.000000 0.000000 0.000000 0.000000 0.109932
#
#
# Mechanical properties :
#
#
# Convention : Reuss Voigt Hill
#
# Bulk Modulus (GPa) = 47.61630 47.78676 47.70153
# Shear Modulus (GPa) = 10.32102 11.25653 10.78877
#
# Velocity S-wave (km/s) = 2.56199 2.67558 2.61940
# Velocity P-wave (km/s) = 6.24771 6.31945 6.28368
#
# Compressibility (1/GPa) = 0.02100121
#
# Stress axis : x y z
#
# Youngs Moduli (GPa) = 28.95393 28.95393 52.80596
#
# Poissons Ratio (x) = 0.59148 0.34528
# Poissons Ratio (y) = 0.59148 0.34528
# Poissons Ratio (z) = 0.18932 0.18932
#
# Static dielectric constant tensor:
#      x y z
#    x 1.513340 0.000000 0.000000 
#    y 0.000000 1.513340 0.000000 
#    z 0.000000 0.000000 1.571670 
# 
# From -- ./inp_files/9796.got.cif
#   From: 2010.05.17/outbox.cif.g08.bks.cpg/sg191_5_cif.got.tgz:9796.got - 2010.05.20 12:20:32.
