data_PCOD9587803
_publ_section_title
;
Structure prediction by ZEFSAII (Michael W. Deem and Ramdas Pophale) SiO2 
 PCOD9587803
Probable space group: P 6/M M M
;
_chemical_formula_sum "Si O2"
_cell_formula_units_Z 72
_cell_length_a 18.331283
_cell_length_b 18.331283
_cell_length_c 15.445596
_cell_angle_alpha 90.000000
_cell_angle_beta 90.000000
_cell_angle_gamma 120.000000
_cell_volume 4494.910276
_symmetry_space_group_name_H-M "P 6/M M M"
_symmetry_group_IT_number 191
_symmetry_cell_setting 'hexagonal'
loop_
_space_group_symop_operation_xyz
x,y,z
x-y,x,z
-y,x-y,z
-x,-y,z
-x+y,-x,z
y,-x+y,z
x-y,-y,-z
-x,-x+y,-z
y,x,-z
-y,-x,-z
-x+y,y,-z
x,x-y,-z
-x,-y,-z
-x+y,-x,-z
y,-x+y,-z
x,y,-z
x-y,x,-z
-y,x-y,-z
-x+y,y,z
x,x-y,z
-y,-x,z
y,x,z
x-y,-y,z
-x,-x+y,z
loop_
_atom_site_type_symbol
_atom_site_label
_atom_site_fract_x
_atom_site_fract_y
_atom_site_fract_z
Si Si1 0.897788 0.366217 0.902066
Si Si2 0.359215 0.097365 0.253757
Si Si3 0.503699 0.666000 0.398794
O O1 0.869001 0.434501 0.881865
O O2 0.875974 0.297457 0.828961
O O3 0.000000 0.419441 0.903058
O O4 0.870346 0.334184 0.000000
O O5 0.326259 0.163130 0.261939
O O6 0.417789 0.109260 0.336516
O O7 0.289120 0.000000 0.244809
O O8 0.523788 0.663417 0.500000
O O9 0.481088 0.740544 0.389818
O O10 0.423600 0.576401 0.375746
#
# Coordination Sequence:
#
# PCOD9587803 Si02
#       3
#    24  24  24
#     4   8  14  26  45  68  92 116 141 170 207 255
#     4  10  20  32  46  65  89 117 151 192 235 274
#     4   9  17  29  46  69  97 126 151 174 205 252
#
# _framework density 16.018117
#
# number of rings (size 3 to 8) (size 9 to 14) (size 15 to 20)
#    0.000    3.000    0.000    2.333    0.000    4.667 
#    0.000    1.667    0.000    1.000    0.000    0.000 
#    0.000    0.000    0.000   16.667    0.000    0.000 
#
# Total GULP energy -401103.334864 kJ/mol
# GULP energy per Si atom -5570.879651 kJ/mol
# Density = 1.598166 g / cm^3
# Si number density = 16.018117 Si / 1000 Ang^3
#
#
#
# Elastic Constant Matrix: (Units=GPa)
#
#
# Indices 1 2 3 4 5 6 
#
# 1 68.0225 49.8403 35.3059 0.0000 0.0000 0.0000
# 2 49.8403 68.0225 35.3059 0.0000 0.0000 0.0000
# 3 35.3059 35.3059 59.9765 0.0000 0.0000 0.0000
# 4 0.0000 0.0000 0.0000 16.7929 0.0000 0.0000
# 5 0.0000 0.0000 0.0000 0.0000 16.7929 0.0000
# 6 0.0000 0.0000 0.0000 0.0000 0.0000 9.0911
#
#
#
# Elastic Compliance Matrix: (Units=1/GPa)
#
#
# Indices 1 2 3 4 5 6 
#
# 1 0.034053 -0.020946 -0.007715 0.000000 0.000000 0.000000
# 2 -0.020946 0.034053 -0.007715 0.000000 0.000000 0.000000
# 3 -0.007715 -0.007715 0.025757 0.000000 0.000000 0.000000
# 4 0.000000 0.000000 0.000000 0.059549 0.000000 0.000000
# 5 0.000000 0.000000 0.000000 0.000000 0.059549 0.000000
# 6 0.000000 0.000000 0.000000 0.000000 0.000000 0.109998
#
#
# Mechanical properties :
#
#
# Convention : Reuss Voigt Hill
#
# Bulk Modulus (GPa) = 47.37429 48.54732 47.96080
# Shear Modulus (GPa) = 12.41466 13.57331 12.99399
#
# Velocity S-wave (km/s) = 2.78697 2.91412 2.85126
# Velocity P-wave (km/s) = 6.32423 6.45727 6.39110
#
# Compressibility (1/GPa) = 0.02110850
#
# Stress axis : x y z
#
# Youngs Moduli (GPa) = 29.36603 29.36603 38.82461
#
# Poissons Ratio (x) = 0.61510 0.29955
# Poissons Ratio (y) = 0.61510 0.29955
# Poissons Ratio (z) = 0.22657 0.22657
#
# Static dielectric constant tensor:
#      x y z
#    x 1.527040 0.000000 0.000000 
#    y 0.000000 1.527040 0.000000 
#    z 0.000000 0.000000 1.558650 
# 
# From -- ./inp_files/3804.got.cif
#   From: 2010.05.17/outbox.cif.g08.bks.cpg/sg191_2_cif.got.tgz:3804.got - 2010.05.20 12:20:32.
