data_PCOD9587462
_publ_section_title
;
Structure prediction by ZEFSAII (Michael W. Deem and Ramdas Pophale) SiO2 
 PCOD9587462
Probable space group: P 6/M M M
;
_chemical_formula_sum "Si O2"
_cell_formula_units_Z 120
_cell_length_a 23.306359
_cell_length_b 23.306359
_cell_length_c 15.124492
_cell_angle_alpha 90.000000
_cell_angle_beta 90.000000
_cell_angle_gamma 120.000000
_cell_volume 7114.760609
_symmetry_space_group_name_H-M "P 6/M M M"
_symmetry_group_IT_number 191
_symmetry_cell_setting 'hexagonal'
loop_
_space_group_symop_operation_xyz
x,y,z
x-y,x,z
-y,x-y,z
-x,-y,z
-x+y,-x,z
y,-x+y,z
x-y,-y,-z
-x,-x+y,-z
y,x,-z
-y,-x,-z
-x+y,y,-z
x,x-y,-z
-x,-y,-z
-x+y,-x,-z
y,-x+y,-z
x,y,-z
x-y,x,-z
-y,x-y,-z
-x+y,y,z
x,x-y,z
-y,-x,z
y,x,z
x-y,-y,z
-x,-x+y,z
loop_
_atom_site_type_symbol
_atom_site_label
_atom_site_fract_x
_atom_site_fract_y
_atom_site_fract_z
Si Si1 0.283020 0.426719 0.399561
Si Si2 0.573281 0.856301 0.100439
Si Si3 0.470375 0.665707 0.250000
Si Si4 0.721778 0.795568 0.607978
Si Si5 0.278222 0.073791 0.107978
O O1 0.308197 0.435644 0.500000
O O2 0.213246 0.426492 0.402170
O O3 0.329124 0.485424 0.334688
O O4 0.260627 0.352738 0.367047
O O5 0.573508 0.786754 0.097829
O O6 0.514576 0.843700 0.165312
O O7 0.647262 0.907889 0.132953
O O8 0.564356 0.872553 0.000000
O O9 0.463010 0.731505 0.250000
O O10 0.399640 0.600361 0.250000
O O11 0.721534 0.796699 0.500000
O O12 0.733802 0.866901 0.637741
O O13 0.774463 0.774463 0.636558
O O14 0.266198 0.133099 0.137741
O O15 0.225537 0.000000 0.136558
O O16 0.278466 0.075165 0.000000
#
# Coordination Sequence:
#
# PCOD9587462 Si02
#       5
#    24  24  24  24  24
#     4   8  15  28  44  62  85 115 151 186 218 255
#     4   8  15  28  44  62  85 115 151 186 218 255
#     4  10  19  30  45  65  88 113 142 180 227 275
#     4   8  13  23  42  66  89 115 149 187 223 258
#     4   8  13  23  42  66  89 115 149 187 223 258
#
# _framework density 16.866343000000001
#
# number of rings (size 3 to 8) (size 9 to 14) (size 15 to 20)
#    0.000    3.600    0.000    2.600    0.000    0.800 
#    0.000    1.000    0.000    5.200    0.000    8.400 
#    0.000    0.000    0.000    0.000    0.000   23.600 
#
# Total GULP energy -668063.716521 kJ/mol
# GULP energy per Si atom -5567.197638 kJ/mol
# Density = 1.682795 g / cm^3
# Si number density = 16.866343 Si / 1000 Ang^3
#
#
#
# Elastic Constant Matrix: (Units=GPa)
#
#
# Indices 1 2 3 4 5 6 
#
# 1 106.4439 59.8284 34.8993 0.0000 0.0000 0.0000
# 2 59.8284 106.4439 34.8993 0.0000 0.0000 0.0000
# 3 34.8993 34.8993 62.6256 0.0000 0.0000 0.0000
# 4 0.0000 0.0000 0.0000 -66.8141 0.0000 0.0000
# 5 0.0000 0.0000 0.0000 0.0000 -66.8141 0.0000
# 6 0.0000 0.0000 0.0000 0.0000 0.0000 23.3077
#
#
#
# Elastic Compliance Matrix: (Units=1/GPa)
#
#
# Indices 1 2 3 4 5 6 
#
# 1 0.014651 -0.006801 -0.004375 0.000000 0.000000 0.000000
# 2 -0.006801 0.014651 -0.004375 0.000000 0.000000 0.000000
# 3 -0.004375 -0.004375 0.020844 0.000000 0.000000 0.000000
# 4 0.000000 0.000000 0.000000 -0.014967 0.000000 0.000000
# 5 0.000000 0.000000 0.000000 0.000000 -0.014967 0.000000
# 6 0.000000 0.000000 0.000000 0.000000 0.000000 0.042904
#
#
# Mechanical properties :
#
#
# Convention : Reuss Voigt Hill
#
# Bulk Modulus (GPa) = 52.50557 59.41857 55.96207
# Shear Modulus (GPa) = 49.71798 -12.33835 18.68982
#
# Velocity S-wave (km/s) = 5.43522 -2.70763 3.33244
# Velocity P-wave (km/s) = 8.40159 5.05278 6.93244
#
# Compressibility (1/GPa) = 0.01904560
#
# Stress axis : x y z
#
# Youngs Moduli (GPa) = 68.25260 68.25260 47.97544
#
# Poissons Ratio (x) = 0.46416 0.20989
# Poissons Ratio (y) = 0.46416 0.20989
# Poissons Ratio (z) = 0.29860 0.29860
#
# Static dielectric constant tensor:
#      x y z
#    x 1.557170 0.000000 0.000000 
#    y 0.000000 1.557170 0.000000 
#    z 0.000000 0.000000 1.629740 
# 
# From -- ./inp_files/4720.got.cif
#   From: 2010.05.17/outbox.cif.g08.bks.cpg/sg191_3_cif.got.tgz:4720.got - 2010.05.20 12:20:32.
