data_PCOD9587575
_publ_section_title
;
Structure prediction by ZEFSAII (Michael W. Deem and Ramdas Pophale) SiO2 
 PCOD9587575
Probable space group: P 6/M M M
;
_chemical_formula_sum "Si O2"
_cell_formula_units_Z 168
_cell_length_a 22.819194
_cell_length_b 22.819194
_cell_length_c 23.434123
_cell_angle_alpha 90.000000
_cell_angle_beta 90.000000
_cell_angle_gamma 120.000000
_cell_volume 10567.686911
_symmetry_space_group_name_H-M "P 6/M M M"
_symmetry_group_IT_number 191
_symmetry_cell_setting 'hexagonal'
loop_
_space_group_symop_operation_xyz
x,y,z
x-y,x,z
-y,x-y,z
-x,-y,z
-x+y,-x,z
y,-x+y,z
x-y,-y,-z
-x,-x+y,-z
y,x,-z
-y,-x,-z
-x+y,y,-z
x,x-y,-z
-x,-y,-z
-x+y,-x,-z
y,-x+y,-z
x,y,-z
x-y,x,-z
-y,x-y,-z
-x+y,y,z
x,x-y,z
-y,-x,z
y,x,z
x-y,-y,z
-x,-x+y,z
loop_
_atom_site_type_symbol
_atom_site_label
_atom_site_fract_x
_atom_site_fract_y
_atom_site_fract_z
Si Si1 0.534923 0.333734 0.068534
Si Si2 0.076813 0.689048 0.064501
Si Si3 0.394113 0.474421 0.767573
Si Si4 0.745504 0.118605 0.180239
Si Si5 0.666806 0.471071 0.568582
Si Si6 0.078415 0.417051 0.644209
Si Si7 0.785643 0.708632 0.295767
O O1 0.528521 0.264261 0.090759
O O2 0.600253 0.399748 0.091897
O O3 0.465868 0.334788 0.074557
O O4 0.544002 0.333583 0.000000
O O5 0.087446 0.737800 0.117449
O O6 0.000000 0.628568 0.066657
O O7 0.088531 0.718312 0.000000
O O8 0.447555 0.552446 0.778656
O O9 0.432152 0.432152 0.780345
O O10 0.325046 0.438429 0.802387
O O11 0.373801 0.461101 0.700980
O O12 0.804790 0.195211 0.179147
O O13 0.763681 0.082805 0.230958
O O14 0.667099 0.478024 0.500000
O O15 0.733667 0.467333 0.584439
O O16 0.598570 0.401431 0.583953
O O17 0.667737 0.534566 0.598789
O O18 0.088194 0.354616 0.664725
O O19 0.000000 0.384127 0.625418
O O20 0.862211 0.724422 0.304369
O O21 0.768233 0.768233 0.305205
#
# Coordination Sequence:
#
# PCOD9587575 Si02
#       7
#    24  24  24  24  24  24  24
#     4   9  17  29  44  60  78 102 132 164 200 245
#     4  10  20  32  45  61  83 110 140 177 219 262
#     4   9  17  30  48  67  88 114 144 182 225 268
#     4  10  19  31  47  65  86 112 143 178 217 264
#     4  10  20  32  45  62  89 127 167 203 239 282
#     4   9  17  30  48  70  93 117 152 196 239 278
#     4   9  17  30  50  73  95 119 147 181 219 263
#
# _framework density 15.897519000000001
#
# number of rings (size 3 to 8) (size 9 to 14) (size 15 to 20)
#    0.000    2.571    0.000    3.714    0.000    4.571 
#    0.000    2.143    0.000    0.429    0.000    0.000 
#    0.000    0.000    0.000    0.000    0.000    0.000 
#
# Total GULP energy -936100.577124 kJ/mol
# GULP energy per Si atom -5572.027245 kJ/mol
# Density = 1.586134 g / cm^3
# Si number density = 15.897519 Si / 1000 Ang^3
#
#
#
# Elastic Constant Matrix: (Units=GPa)
#
#
# Indices 1 2 3 4 5 6 
#
# 1 86.5959 67.4411 37.6127 0.0000 0.0000 0.0000
# 2 67.4411 86.5959 37.6127 0.0000 0.0000 0.0000
# 3 37.6127 37.6127 49.9208 0.0000 0.0000 0.0000
# 4 0.0000 0.0000 0.0000 7.1208 0.0000 0.0000
# 5 0.0000 0.0000 0.0000 0.0000 7.1208 0.0000
# 6 0.0000 0.0000 0.0000 0.0000 0.0000 9.5774
#
#
#
# Elastic Compliance Matrix: (Units=1/GPa)
#
#
# Indices 1 2 3 4 5 6 
#
# 1 0.031239 -0.020967 -0.007739 0.000000 0.000000 0.000000
# 2 -0.020967 0.031239 -0.007739 0.000000 0.000000 0.000000
# 3 -0.007739 -0.007739 0.031693 0.000000 0.000000 0.000000
# 4 0.000000 0.000000 0.000000 0.140434 0.000000 0.000000
# 5 0.000000 0.000000 0.000000 0.000000 0.140434 0.000000
# 6 0.000000 0.000000 0.000000 0.000000 0.000000 0.104412
#
#
# Mechanical properties :
#
#
# Convention : Reuss Voigt Hill
#
# Bulk Modulus (GPa) = 46.99139 56.49393 51.74266
# Shear Modulus (GPa) = 8.93760 10.12688 9.53224
#
# Velocity S-wave (km/s) = 2.37365 2.52664 2.45134
# Velocity P-wave (km/s) = 6.09388 6.64269 6.37420
#
# Compressibility (1/GPa) = 0.02128049
#
# Stress axis : x y z
#
# Youngs Moduli (GPa) = 32.01154 32.01154 31.55231
#
# Poissons Ratio (x) = 0.67120 0.24418
# Poissons Ratio (y) = 0.67120 0.24418
# Poissons Ratio (z) = 0.24773 0.24773
#
# Static dielectric constant tensor:
#      x y z
#    x 1.526250 0.000000 0.000000 
#    y 0.000000 1.526250 0.000000 
#    z 0.000000 0.000000 1.559620 
# 
# From -- ./inp_files/7985.got.cif
#   From: 2010.05.17/outbox.cif.g08.bks.cpg/sg191_4_cif.got.tgz:7985.got - 2010.05.20 12:20:32.
