data_PCOD9587523
_publ_section_title
;
Structure prediction by ZEFSAII (Michael W. Deem and Ramdas Pophale) SiO2 
 PCOD9587523
Probable space group: P 6/M M M
;
_chemical_formula_sum "Si O2"
_cell_formula_units_Z 150
_cell_length_a 18.224715
_cell_length_b 18.224715
_cell_length_c 32.859233
_cell_angle_alpha 90.000000
_cell_angle_beta 90.000000
_cell_angle_gamma 120.000000
_cell_volume 9451.691645
_symmetry_space_group_name_H-M "P 6/M M M"
_symmetry_group_IT_number 191
_symmetry_cell_setting 'hexagonal'
loop_
_space_group_symop_operation_xyz
x,y,z
x-y,x,z
-y,x-y,z
-x,-y,z
-x+y,-x,z
y,-x+y,z
x-y,-y,-z
-x,-x+y,-z
y,x,-z
-y,-x,-z
-x+y,y,-z
x,x-y,-z
-x,-y,-z
-x+y,-x,-z
y,-x+y,-z
x,y,-z
x-y,x,-z
-y,x-y,-z
-x+y,y,z
x,x-y,z
-y,-x,z
y,x,z
x-y,-y,z
-x,-x+y,z
loop_
_atom_site_type_symbol
_atom_site_label
_atom_site_fract_x
_atom_site_fract_y
_atom_site_fract_z
Si Si1 0.098824 0.733945 0.647249
Si Si2 0.901285 0.538030 0.566280
Si Si3 0.532949 0.898670 0.724547
Si Si4 0.094170 0.735463 0.116618
Si Si5 0.496870 0.332108 0.185220
Si Si6 0.161466 0.666094 0.047455
Si Si7 0.770673 0.541345 0.500000
O O1 0.167369 0.832632 0.642281
O O2 0.106970 0.681585 0.609625
O O3 0.119147 0.699440 0.688442
O O4 0.000000 0.708289 0.648713
O O5 0.886008 0.443004 0.569822
O O6 0.835369 0.540660 0.535265
O O7 0.000000 0.596941 0.553305
O O8 0.437349 0.874698 0.712845
O O9 0.528637 0.855959 0.767612
O O10 0.584239 0.000000 0.730933
O O11 0.167219 0.832782 0.116398
O O12 0.110433 0.691840 0.155642
O O13 0.108913 0.691207 0.077394
O O14 0.000000 0.718429 0.117073
O O15 0.524622 0.262311 0.177213
O O16 0.574179 0.425822 0.177508
O O17 0.152536 0.576268 0.058024
O O18 0.259298 0.740702 0.051677
O O19 0.138215 0.664003 0.000000
#
# Coordination Sequence:
#
# PCOD9587523 Si02
#       7
#    24  24  24  24  24  24   6
#     4  10  19  34  53  73  96 124 161 200 240 286
#     4  10  21  37  53  71 100 134 163 195 238 281
#     4   9  17  29  48  71  96 128 164 200 235 274
#     4  10  21  35  50  68  92 121 155 199 247 294
#     4  10  19  30  45  69 101 135 168 197 229 267
#     4   9  17  29  46  69  98 133 169 200 230 267
#     4  12  20  34  52  74  96 126 170 198 228 272
#
# _framework density 15.870174
#
# number of rings (size 3 to 8) (size 9 to 14) (size 15 to 20)
#    0.000    2.240    0.800    2.720    0.000    5.440 
#    1.920    2.400    0.000    1.600    0.000    0.000 
#    0.000    0.000    0.000   14.560    0.000    0.000 
#
# Total GULP energy -835017.485976 kJ/mol
# GULP energy per Si atom -5566.783240 kJ/mol
# Density = 1.583405 g / cm^3
# Si number density = 15.870174 Si / 1000 Ang^3
#
#
#
# Elastic Constant Matrix: (Units=GPa)
#
#
# Indices 1 2 3 4 5 6 
#
# 1 89.4214 67.7998 44.2482 0.0000 0.0000 0.0000
# 2 67.7998 89.4214 44.2482 0.0000 0.0000 0.0000
# 3 44.2482 44.2482 67.3111 0.0000 0.0000 0.0000
# 4 0.0000 0.0000 0.0000 18.8975 0.0000 0.0000
# 5 0.0000 0.0000 0.0000 0.0000 18.8975 0.0000
# 6 0.0000 0.0000 0.0000 0.0000 0.0000 10.8108
#
#
#
# Elastic Compliance Matrix: (Units=1/GPa)
#
#
# Indices 1 2 3 4 5 6 
#
# 1 0.028173 -0.018077 -0.006637 0.000000 0.000000 0.000000
# 2 -0.018077 0.028173 -0.006637 0.000000 0.000000 0.000000
# 3 -0.006637 -0.006637 0.023582 0.000000 0.000000 0.000000
# 4 0.000000 0.000000 0.000000 0.052917 0.000000 0.000000
# 5 0.000000 0.000000 0.000000 0.000000 0.052917 0.000000
# 6 0.000000 0.000000 0.000000 0.000000 0.000000 0.092500
#
#
# Mechanical properties :
#
#
# Convention : Reuss Voigt Hill
#
# Bulk Modulus (GPa) = 58.04867 62.08291 60.06579
# Shear Modulus (GPa) = 14.42144 15.71170 15.06657
#
# Velocity S-wave (km/s) = 3.01776 3.14986 3.08452
# Velocity P-wave (km/s) = 6.98564 7.24106 7.11450
#
# Compressibility (1/GPa) = 0.01722692
#
# Stress axis : x y z
#
# Youngs Moduli (GPa) = 35.49488 35.49488 42.40479
#
# Poissons Ratio (x) = 0.64163 0.28144
# Poissons Ratio (y) = 0.64163 0.28144
# Poissons Ratio (z) = 0.23558 0.23558
#
# Static dielectric constant tensor:
#      x y z
#    x 1.517430 0.000000 0.000000 
#    y 0.000000 1.517430 0.000000 
#    z 0.000000 0.000000 1.536070 
# 
# From -- ./inp_files/10639.got.cif
#   From: 2010.05.17/outbox.cif.g08.bks.cpg/sg191_6_cif.got.tgz:10639.got - 2010.05.20 12:20:32.
