data_PCOD9587303
_publ_section_title
;
Structure prediction by ZEFSAII (Michael W. Deem and Ramdas Pophale) SiO2 
 PCOD9587303
Probable space group: P 6/M M M
;
_chemical_formula_sum "Si O2"
_cell_formula_units_Z 144
_cell_length_a 21.103960
_cell_length_b 21.103960
_cell_length_c 23.943772
_cell_angle_alpha 90.000000
_cell_angle_beta 90.000000
_cell_angle_gamma 120.000000
_cell_volume 9235.302180
_symmetry_space_group_name_H-M "P 6/M M M"
_symmetry_group_IT_number 191
_symmetry_cell_setting 'hexagonal'
loop_
_space_group_symop_operation_xyz
x,y,z
x-y,x,z
-y,x-y,z
-x,-y,z
-x+y,-x,z
y,-x+y,z
x-y,-y,-z
-x,-x+y,-z
y,x,-z
-y,-x,-z
-x+y,y,-z
x,x-y,-z
-x,-y,-z
-x+y,-x,-z
y,-x+y,-z
x,y,-z
x-y,x,-z
-y,x-y,-z
-x+y,y,z
x,x-y,z
-y,-x,z
y,x,z
x-y,-y,z
-x,-x+y,z
loop_
_atom_site_type_symbol
_atom_site_label
_atom_site_fract_x
_atom_site_fract_y
_atom_site_fract_z
Si Si1 0.915341 0.534443 0.000000
Si Si2 0.181504 0.515614 0.892541
Si Si3 0.664841 0.477988 0.320652
Si Si4 0.085691 0.441546 0.783070
Si Si5 0.694473 0.610521 0.386788
Si Si6 0.225426 0.918871 0.726208
Si Si7 0.772567 0.084235 0.500000
O O1 0.868509 0.528781 0.945418
O O2 0.919088 0.459544 0.000000
O O3 0.000000 0.599426 0.000000
O O4 0.256356 0.512711 0.889431
O O5 0.199201 0.599601 0.897698
O O6 0.131321 0.481192 0.837860
O O7 0.744577 0.489153 0.307665
O O8 0.606223 0.393778 0.329096
O O9 0.637334 0.508532 0.269872
O O10 0.670440 0.527448 0.373511
O O11 0.086933 0.367008 0.770165
O O12 0.000000 0.417910 0.785832
O O13 0.628376 0.628376 0.385341
O O14 0.746478 0.655999 0.334735
O O15 0.736003 0.640246 0.444780
O O16 0.144196 0.855805 0.735242
O O17 0.238920 0.000000 0.728783
O O18 0.857694 0.142307 0.500000
O O19 0.751796 0.000000 0.500000
#
# Coordination Sequence:
#
# PCOD9587303 Si02
#       7
#    12  24  24  24  24  24  12
#     4   9  19  34  50  66  86 115 152 192 226 260
#     4  11  21  33  48  67  93 122 153 187 227 275
#     4  11  21  33  48  67  93 121 150 185 231 284
#     4  10  20  32  49  69  89 117 152 192 231 267
#     4   9  18  31  49  69  88 114 149 191 230 265
#     4   9  16  28  45  66  90 115 145 180 222 267
#     4  10  18  30  49  72  95 119 151 189 230 272
#
# _framework density 15.592343
#
# number of rings (size 3 to 8) (size 9 to 14) (size 15 to 20)
#    0.000    2.083    0.000    7.083    0.000    3.000 
#    0.000    2.917    0.000    1.750    0.000    1.167 
#    0.000    4.000    0.000    0.000    0.000    0.333 
#
# Total GULP energy -803029.615289 kJ/mol
# GULP energy per Si atom -5576.594551 kJ/mol
# Density = 1.555685 g / cm^3
# Si number density = 15.592343 Si / 1000 Ang^3
#
#
#
# Elastic Constant Matrix: (Units=GPa)
#
#
# Indices 1 2 3 4 5 6 
#
# 1 89.2559 58.4199 32.3659 0.0000 0.0000 0.0000
# 2 58.4199 89.2559 32.3659 0.0000 0.0000 0.0000
# 3 32.3659 32.3659 80.6470 0.0000 0.0000 0.0000
# 4 0.0000 0.0000 0.0000 13.8922 0.0000 0.0000
# 5 0.0000 0.0000 0.0000 0.0000 13.8922 0.0000
# 6 0.0000 0.0000 0.0000 0.0000 0.0000 15.4180
#
#
#
# Elastic Compliance Matrix: (Units=1/GPa)
#
#
# Indices 1 2 3 4 5 6 
#
# 1 0.020323 -0.012106 -0.003298 0.000000 0.000000 0.000000
# 2 -0.012106 0.020323 -0.003298 0.000000 0.000000 0.000000
# 3 -0.003298 -0.003298 0.015047 0.000000 0.000000 0.000000
# 4 0.000000 0.000000 0.000000 0.071983 0.000000 0.000000
# 5 0.000000 0.000000 0.000000 0.000000 0.071983 0.000000
# 6 0.000000 0.000000 0.000000 0.000000 0.000000 0.064859
#
#
# Mechanical properties :
#
#
# Convention : Reuss Voigt Hill
#
# Bulk Modulus (GPa) = 54.67506 56.16250 55.41878
# Shear Modulus (GPa) = 16.23278 17.70761 16.97019
#
# Velocity S-wave (km/s) = 3.23007 3.37361 3.30262
# Velocity P-wave (km/s) = 7.00375 7.16048 7.08255
#
# Compressibility (1/GPa) = 0.01828987
#
# Stress axis : x y z
#
# Youngs Moduli (GPa) = 49.20443 49.20443 66.45980
#
# Poissons Ratio (x) = 0.59568 0.21917
# Poissons Ratio (y) = 0.59568 0.21917
# Poissons Ratio (z) = 0.16226 0.16226
#
# Static dielectric constant tensor:
#      x y z
#    x 1.519970 0.000000 0.000000 
#    y 0.000000 1.519970 0.000000 
#    z 0.000000 0.000000 1.518630 
# 
# From -- ./inp_files/7651.got.cif
#   From: 2010.05.17/outbox.cif.g08.bks.cpg/sg191_4_cif.got.tgz:7651.got - 2010.05.20 12:20:32.
