data_PCOD9587931
_publ_section_title
;
Structure prediction by ZEFSAII (Michael W. Deem and Ramdas Pophale) SiO2 
 PCOD9587931
Probable space group: P 6/M M M
;
_chemical_formula_sum "Si O2"
_cell_formula_units_Z 144
_cell_length_a 33.078744
_cell_length_b 33.078744
_cell_length_c 9.172612
_cell_angle_alpha 90.000000
_cell_angle_beta 90.000000
_cell_angle_gamma 120.000000
_cell_volume 8692.039216
_symmetry_space_group_name_H-M "P 6/M M M"
_symmetry_group_IT_number 191
_symmetry_cell_setting 'hexagonal'
loop_
_space_group_symop_operation_xyz
x,y,z
x-y,x,z
-y,x-y,z
-x,-y,z
-x+y,-x,z
y,-x+y,z
x-y,-y,-z
-x,-x+y,-z
y,x,-z
-y,-x,-z
-x+y,y,-z
x,x-y,-z
-x,-y,-z
-x+y,-x,-z
y,-x+y,-z
x,y,-z
x-y,x,-z
-y,x-y,-z
-x+y,y,z
x,x-y,z
-y,-x,z
y,x,z
x-y,-y,z
-x,-x+y,z
loop_
_atom_site_type_symbol
_atom_site_label
_atom_site_fract_x
_atom_site_fract_y
_atom_site_fract_z
Si Si1 0.222844 0.943081 0.666822
Si Si2 0.142224 0.522617 0.832951
Si Si3 0.946793 0.142556 0.826387
Si Si4 0.332977 0.571251 0.324902
Si Si5 0.358140 0.301930 0.164784
Si Si6 0.440819 0.054275 0.674628
O O1 0.217300 0.927402 0.500000
O O2 0.174656 0.931059 0.741826
O O3 0.252165 0.925997 0.761034
O O4 0.252979 0.000000 0.665832
O O5 0.144032 0.572016 0.835966
O O6 0.190322 0.533820 0.753352
O O7 0.094999 0.487069 0.748718
O O8 0.140569 0.506908 0.000000
O O9 0.911096 0.088905 0.795821
O O10 0.000000 0.159884 0.785957
O O11 0.945729 0.150454 0.000000
O O12 0.332770 0.565033 0.500000
O O13 0.284121 0.568241 0.283986
O O14 0.376902 0.623099 0.292624
O O15 0.325942 0.325942 0.154729
O O16 0.400270 0.336603 0.267458
O O17 0.372949 0.299183 0.000000
O O18 0.444469 0.057361 0.500000
O O19 0.424081 0.000000 0.714843
#
# Coordination Sequence:
#
# PCOD9587931 Si02
#       6
#    24  24  24  24  24  24
#     4   9  16  26  42  65  91 116 144 181 225 272
#     4  10  21  35  50  71 101 136 173 213 256 301
#     4   9  17  29  45  65  90 121 156 193 235 284
#     4   9  17  31  53  79 104 129 159 198 246 301
#     4   9  16  27  45  68  93 120 151 188 230 277
#     4  10  20  33  50  72  98 131 173 217 256 294
#
# _framework density 16.566884000000002
#
# number of rings (size 3 to 8) (size 9 to 14) (size 15 to 20)
#    0.000    2.667    0.000    2.167    0.000    7.667 
#    0.000    1.667    0.000    2.167    0.000    1.167 
#    0.000    0.000    0.000    4.167    0.000    4.333 
#
# Total GULP energy -802012.485076 kJ/mol
# GULP energy per Si atom -5569.531146 kJ/mol
# Density = 1.652918 g / cm^3
# Si number density = 16.566884 Si / 1000 Ang^3
#
#
#
# Elastic Constant Matrix: (Units=GPa)
#
#
# Indices 1 2 3 4 5 6 
#
# 1 76.3422 40.5990 43.0360 0.0000 0.0000 0.0000
# 2 40.5990 76.3422 43.0360 0.0000 0.0000 0.0000
# 3 43.0360 43.0360 76.6089 0.0000 0.0000 0.0000
# 4 0.0000 0.0000 0.0000 19.0580 0.0000 0.0000
# 5 0.0000 0.0000 0.0000 0.0000 19.0580 0.0000
# 6 0.0000 0.0000 0.0000 0.0000 0.0000 17.8716
#
#
#
# Elastic Compliance Matrix: (Units=1/GPa)
#
#
# Indices 1 2 3 4 5 6 
#
# 1 0.021278 -0.006699 -0.008190 0.000000 0.000000 0.000000
# 2 -0.006699 0.021278 -0.008190 0.000000 0.000000 0.000000
# 3 -0.008190 -0.008190 0.022255 0.000000 0.000000 0.000000
# 4 0.000000 0.000000 0.000000 0.052472 0.000000 0.000000
# 5 0.000000 0.000000 0.000000 0.000000 0.052472 0.000000
# 6 0.000000 0.000000 0.000000 0.000000 0.000000 0.055955
#
#
# Mechanical properties :
#
#
# Convention : Reuss Voigt Hill
#
# Bulk Modulus (GPa) = 53.60956 53.62613 53.61785
# Shear Modulus (GPa) = 17.98003 18.03900 18.00952
#
# Velocity S-wave (km/s) = 3.29796 3.30337 3.30067
# Velocity P-wave (km/s) = 6.85068 6.85488 6.85278
#
# Compressibility (1/GPa) = 0.01865339
#
# Stress axis : x y z
#
# Youngs Moduli (GPa) = 46.99595 46.99595 44.93327
#
# Poissons Ratio (x) = 0.31482 0.36801
# Poissons Ratio (y) = 0.31482 0.36801
# Poissons Ratio (z) = 0.38491 0.38491
#
# Static dielectric constant tensor:
#      x y z
#    x 1.550490 0.000000 0.000000 
#    y 0.000000 1.550490 0.000000 
#    z 0.000000 0.000000 1.568210 
# 
# From -- ./inp_files/1994.got.cif
#   From: 2010.05.17/outbox.cif.g08.bks.cpg/sg191_1_cif.got.tgz:1994.got - 2010.05.20 12:20:32.
