data_PCOD9587758
_publ_section_title
;
Structure prediction by ZEFSAII (Michael W. Deem and Ramdas Pophale) SiO2 
 PCOD9587758
Probable space group: P 6/M M M
;
_chemical_formula_sum "Si O2"
_cell_formula_units_Z 114
_cell_length_a 20.642956
_cell_length_b 20.642956
_cell_length_c 16.010946
_cell_angle_alpha 90.000000
_cell_angle_beta 90.000000
_cell_angle_gamma 120.000000
_cell_volume 5908.692625
_symmetry_space_group_name_H-M "P 6/M M M"
_symmetry_group_IT_number 191
_symmetry_cell_setting 'hexagonal'
loop_
_space_group_symop_operation_xyz
x,y,z
x-y,x,z
-y,x-y,z
-x,-y,z
-x+y,-x,z
y,-x+y,z
x-y,-y,-z
-x,-x+y,-z
y,x,-z
-y,-x,-z
-x+y,y,-z
x,x-y,-z
-x,-y,-z
-x+y,-x,-z
y,-x+y,-z
x,y,-z
x-y,x,-z
-y,x-y,-z
-x+y,y,z
x,x-y,z
-y,-x,z
y,x,z
x-y,-y,z
-x,-x+y,z
loop_
_atom_site_type_symbol
_atom_site_label
_atom_site_fract_x
_atom_site_fract_y
_atom_site_fract_z
Si Si1 0.708055 0.000000 0.809088
Si Si2 0.864900 0.286956 0.093998
Si Si3 0.470227 0.309270 0.592008
Si Si4 0.000000 0.359881 0.640793
Si Si5 0.500000 0.500000 0.729954
Si Si6 0.000000 0.154844 0.901290
Si Si7 0.416134 0.583867 0.268668
Si Si8 0.406265 0.812529 0.092430
O O1 0.707468 0.072726 0.844254
O O2 0.695399 0.000000 0.710894
O O3 0.780923 0.000000 0.844335
O O4 0.784200 0.215800 0.114193
O O5 0.855971 0.359652 0.091842
O O6 0.885251 0.275528 0.000000
O O7 0.506382 0.336302 0.500000
O O8 0.447216 0.223608 0.599428
O O9 0.398773 0.320077 0.594788
O O10 0.525470 0.352421 0.669120
O O11 0.000000 0.433105 0.678900
O O12 0.541304 0.458697 0.768915
O O13 0.074968 0.149935 0.887074
O O14 0.000000 0.173580 0.000000
O O15 0.389709 0.610292 0.187106
O O16 0.386416 0.772832 0.000000
#
# Coordination Sequence:
#
# PCOD9587758 Si02
#       8
#    12  24  24  12   6  12  12  12
#     4  12  22  32  55  86 116 148 183 236 304 361
#     4  10  21  37  54  76 108 149 198 250 293 337
#     4  10  21  38  60  84 110 143 184 235 294 350
#     4  10  21  34  55  82 112 146 183 226 277 346
#     4   8  16  32  52  76 100 140 188 220 260 318
#     4  10  21  38  59  83 113 155 204 250 295 349
#     4  10  19  34  55  79 108 139 179 228 277 333
#     4  10  22  37  54  78 110 154 195 232 277 332
#
# _framework density 19.293607999999999
#
# number of rings (size 3 to 8) (size 9 to 14) (size 15 to 20)
#    0.000    1.895    0.000    4.842    0.000    6.737 
#    1.263    6.053    0.000    0.000    0.000    0.000 
#    0.000    0.000    0.000    0.000    0.000   11.158 
#
# Total GULP energy -635267.009925 kJ/mol
# GULP energy per Si atom -5572.517631 kJ/mol
# Density = 1.924969 g / cm^3
# Si number density = 19.293608 Si / 1000 Ang^3
#
#
#
# Elastic Constant Matrix: (Units=GPa)
#
#
# Indices 1 2 3 4 5 6 
#
# 1 98.9490 50.9840 37.7071 0.0000 0.0000 0.0000
# 2 50.9840 98.9490 37.7071 0.0000 0.0000 0.0000
# 3 37.7071 37.7071 134.0385 0.0000 0.0000 0.0000
# 4 0.0000 0.0000 0.0000 38.4319 0.0000 0.0000
# 5 0.0000 0.0000 0.0000 0.0000 38.4319 0.0000
# 6 0.0000 0.0000 0.0000 0.0000 0.0000 23.9825
#
#
#
# Elastic Compliance Matrix: (Units=1/GPa)
#
#
# Indices 1 2 3 4 5 6 
#
# 1 0.014309 -0.006540 -0.002186 0.000000 0.000000 0.000000
# 2 -0.006540 0.014309 -0.002186 0.000000 0.000000 0.000000
# 3 -0.002186 -0.002186 0.008690 0.000000 0.000000 0.000000
# 4 0.000000 0.000000 0.000000 0.026020 0.000000 0.000000
# 5 0.000000 0.000000 0.000000 0.000000 0.026020 0.000000
# 6 0.000000 0.000000 0.000000 0.000000 0.000000 0.041697
#
#
# Mechanical properties :
#
#
# Convention : Reuss Voigt Hill
#
# Bulk Modulus (GPa) = 64.57459 64.97032 64.77246
# Shear Modulus (GPa) = 31.63985 33.87180 32.75582
#
# Velocity S-wave (km/s) = 4.05398 4.19453 4.12485
# Velocity P-wave (km/s) = 7.44682 7.56349 7.50538
#
# Compressibility (1/GPa) = 0.01548597
#
# Stress axis : x y z
#
# Youngs Moduli (GPa) = 69.88734 69.88734 115.07229
#
# Poissons Ratio (x) = 0.45705 0.25149
# Poissons Ratio (y) = 0.45705 0.25149
# Poissons Ratio (z) = 0.15274 0.15274
#
# Static dielectric constant tensor:
#      x y z
#    x 1.607250 0.000000 0.000000 
#    y 0.000000 1.607250 0.000000 
#    z 0.000000 0.000000 1.727050 
# 
# From -- ./inp_files/4464.got.cif
#   From: 2010.05.17/outbox.cif.g08.bks.cpg/sg191_3_cif.got.tgz:4464.got - 2010.05.20 12:20:32.
