data_PCOD9587676
_publ_section_title
;
Structure prediction by ZEFSAII (Michael W. Deem and Ramdas Pophale) SiO2 
 PCOD9587676
Probable space group: P 6/M M M
;
_chemical_formula_sum "Si O2"
_cell_formula_units_Z 168
_cell_length_a 22.329447
_cell_length_b 22.329447
_cell_length_c 26.031726
_cell_angle_alpha 90.000000
_cell_angle_beta 90.000000
_cell_angle_gamma 120.000000
_cell_volume 11240.600980
_symmetry_space_group_name_H-M "P 6/M M M"
_symmetry_group_IT_number 191
_symmetry_cell_setting 'hexagonal'
loop_
_space_group_symop_operation_xyz
x,y,z
x-y,x,z
-y,x-y,z
-x,-y,z
-x+y,-x,z
y,-x+y,z
x-y,-y,-z
-x,-x+y,-z
y,x,-z
-y,-x,-z
-x+y,y,-z
x,x-y,-z
-x,-y,-z
-x+y,-x,-z
y,-x+y,-z
x,y,-z
x-y,x,-z
-y,x-y,-z
-x+y,y,z
x,x-y,z
-y,-x,z
y,x,z
x-y,-y,z
-x,-x+y,z
loop_
_atom_site_type_symbol
_atom_site_label
_atom_site_fract_x
_atom_site_fract_y
_atom_site_fract_z
Si Si1 0.532563 0.611727 0.355968
Si Si2 0.080587 0.427258 0.759075
Si Si3 0.808187 0.335151 0.160181
Si Si4 0.076708 0.288778 0.206072
Si Si5 0.524210 0.191260 0.559296
Si Si6 0.785160 0.077795 0.081800
Si Si7 0.297472 0.847527 0.055955
O O1 0.459063 0.540938 0.350941
O O2 0.588346 0.588346 0.369159
O O3 0.551505 0.647097 0.300322
O O4 0.523111 0.655852 0.400176
O O5 0.135161 0.486907 0.795870
O O6 0.086263 0.359619 0.771115
O O7 0.000000 0.404620 0.768843
O O8 0.785716 0.392858 0.160798
O O9 0.741528 0.258473 0.166717
O O10 0.843876 0.337514 0.105510
O O11 0.138108 0.276215 0.222514
O O12 0.079836 0.296001 0.144021
O O13 0.000000 0.228679 0.219603
O O14 0.503241 0.169854 0.500000
O O15 0.601725 0.203449 0.564740
O O16 0.524587 0.262294 0.568397
O O17 0.860841 0.139160 0.065295
O O18 0.728717 0.097657 0.063080
O O19 0.762819 0.000000 0.066178
O O20 0.226666 0.773335 0.055480
O O21 0.331256 0.857242 0.000000
#
# Coordination Sequence:
#
# PCOD9587676 Si02
#       7
#    24  24  24  24  24  24  24
#     4   9  18  31  45  64  89 116 149 187 226 268
#     4  10  19  32  50  69  90 117 150 189 230 268
#     4  11  22  35  50  68  92 120 150 183 224 277
#     4   9  16  27  45  67  89 114 145 179 216 259
#     4   9  17  29  45  65  89 118 151 186 224 265
#     4   9  16  28  46  68  91 115 145 180 220 264
#     4   9  18  32  48  65  85 110 143 183 221 258
#
# _framework density 14.945819999999999
#
# number of rings (size 3 to 8) (size 9 to 14) (size 15 to 20)
#    0.000    2.571    1.429    1.143    0.000    3.429 
#    0.000    1.429    0.000    2.857    0.000    4.000 
#    0.000    0.000    0.000    3.571    0.000    3.714 
#
# Total GULP energy -936157.622063 kJ/mol
# GULP energy per Si atom -5572.366798 kJ/mol
# Density = 1.491180 g / cm^3
# Si number density = 14.945820 Si / 1000 Ang^3
#
#
#
# Elastic Constant Matrix: (Units=GPa)
#
#
# Indices 1 2 3 4 5 6 
#
# 1 65.3319 29.2640 51.0447 0.0000 0.0000 0.0000
# 2 29.2640 65.3319 51.0447 0.0000 0.0000 0.0000
# 3 51.0447 51.0447 102.1812 0.0000 0.0000 0.0000
# 4 0.0000 0.0000 0.0000 1.4321 0.0000 0.0000
# 5 0.0000 0.0000 0.0000 0.0000 1.4321 0.0000
# 6 0.0000 0.0000 0.0000 0.0000 0.0000 18.0339
#
#
#
# Elastic Compliance Matrix: (Units=1/GPa)
#
#
# Indices 1 2 3 4 5 6 
#
# 1 0.025331 -0.002394 -0.011458 0.000000 0.000000 0.000000
# 2 -0.002394 0.025331 -0.011458 0.000000 0.000000 0.000000
# 3 -0.011458 -0.011458 0.021235 0.000000 0.000000 0.000000
# 4 0.000000 0.000000 0.000000 0.698286 0.000000 0.000000
# 5 0.000000 0.000000 0.000000 0.000000 0.698286 0.000000
# 6 0.000000 0.000000 0.000000 0.000000 0.000000 0.055451
#
#
# Mechanical properties :
#
#
# Convention : Reuss Voigt Hill
#
# Bulk Modulus (GPa) = 47.00174 55.06133 51.03154
# Shear Modulus (GPa) = 3.16129 10.94572 7.05350
#
# Velocity S-wave (km/s) = 1.45594 2.70915 2.17477
# Velocity P-wave (km/s) = 5.86026 6.83422 6.36590
#
# Compressibility (1/GPa) = 0.02127581
#
# Stress axis : x y z
#
# Youngs Moduli (GPa) = 39.47665 39.47665 47.09288
#
# Poissons Ratio (x) = 0.09451 0.53961
# Poissons Ratio (y) = 0.09451 0.53961
# Poissons Ratio (z) = 0.45234 0.45234
#
# Static dielectric constant tensor:
#      x y z
#    x 1.491720 0.000000 0.000000 
#    y 0.000000 1.491720 0.000000 
#    z 0.000000 0.000000 1.497730 
# 
# From -- ./inp_files/10054.got.cif
#   From: 2010.05.17/outbox.cif.g08.bks.cpg/sg191_6_cif.got.tgz:10054.got - 2010.05.20 12:20:32.
