data_PCOD9587258
_publ_section_title
;
Structure prediction by ZEFSAII (Michael W. Deem and Ramdas Pophale) SiO2 
 PCOD9587258
Probable space group: P 6/M M M
;
_chemical_formula_sum "Si O2"
_cell_formula_units_Z 144
_cell_length_a 22.255978
_cell_length_b 22.255978
_cell_length_c 21.342736
_cell_angle_alpha 90.000000
_cell_angle_beta 90.000000
_cell_angle_gamma 120.000000
_cell_volume 9155.331853
_symmetry_space_group_name_H-M "P 6/M M M"
_symmetry_group_IT_number 191
_symmetry_cell_setting 'hexagonal'
loop_
_space_group_symop_operation_xyz
x,y,z
x-y,x,z
-y,x-y,z
-x,-y,z
-x+y,-x,z
y,-x+y,z
x-y,-y,-z
-x,-x+y,-z
y,x,-z
-y,-x,-z
-x+y,y,-z
x,x-y,-z
-x,-y,-z
-x+y,-x,-z
y,-x+y,-z
x,y,-z
x-y,x,-z
-y,x-y,-z
-x+y,y,z
x,x-y,z
-y,-x,z
y,x,z
x-y,-y,z
-x,-x+y,z
loop_
_atom_site_type_symbol
_atom_site_label
_atom_site_fract_x
_atom_site_fract_y
_atom_site_fract_z
Si Si1 0.344559 0.426194 0.296435
Si Si2 0.526538 0.191313 0.803309
Si Si3 0.921890 0.215576 0.098172
Si Si4 0.916015 0.387736 0.431475
Si Si5 0.298675 0.451928 0.931868
Si Si6 0.788446 0.076378 0.750441
O O1 0.404068 0.404068 0.289676
O O2 0.352139 0.485678 0.249547
O O3 0.344110 0.448376 0.368119
O O4 0.272876 0.358013 0.278647
O O5 0.607074 0.214148 0.801624
O O6 0.515898 0.257949 0.795264
O O7 0.494608 0.156420 0.870703
O O8 0.860346 0.139654 0.077977
O O9 0.901703 0.272183 0.075931
O O10 0.919986 0.216484 0.174063
O O11 0.000000 0.238292 0.079016
O O12 0.891374 0.353566 0.500000
O O13 0.896951 0.448476 0.425688
O O14 0.000000 0.427330 0.433003
O O15 0.227767 0.455534 0.932488
O O16 0.332901 0.476633 0.000000
O O17 0.862307 0.137694 0.730211
O O18 0.773285 0.000000 0.734511
#
# Coordination Sequence:
#
# PCOD9587258 Si02
#       6
#    24  24  24  24  24  24
#     4  10  18  29  49  74  96 120 153 194 237 279
#     4  11  22  35  50  68  93 124 158 195 235 283
#     4   9  16  28  46  68  93 122 156 192 233 280
#     4   8  14  25  41  64  95 126 154 186 227 275
#     4   9  18  32  48  65  86 114 150 193 236 274
#     4   9  16  27  45  68  93 121 154 192 233 276
#
# _framework density 15.728539
#
# number of rings (size 3 to 8) (size 9 to 14) (size 15 to 20)
#    0.000    2.667    1.667    1.667    0.000    1.667 
#    0.000    0.000    0.000    3.333    0.000    4.667 
#    0.000    1.333    0.000    4.167    0.000    4.333 
#
# Total GULP energy -801849.234010 kJ/mol
# GULP energy per Si atom -5568.397458 kJ/mol
# Density = 1.569274 g / cm^3
# Si number density = 15.728539 Si / 1000 Ang^3
#
#
#
# Elastic Constant Matrix: (Units=GPa)
#
#
# Indices 1 2 3 4 5 6 
#
# 1 56.1684 20.6164 37.0195 0.0000 0.0000 0.0000
# 2 20.6164 56.1684 37.0195 0.0000 0.0000 0.0000
# 3 37.0195 37.0195 114.1644 0.0000 0.0000 0.0000
# 4 0.0000 0.0000 0.0000 -21.0318 0.0000 0.0000
# 5 0.0000 0.0000 0.0000 0.0000 -21.0318 0.0000
# 6 0.0000 0.0000 0.0000 0.0000 0.0000 17.7760
#
#
#
# Elastic Compliance Matrix: (Units=1/GPa)
#
#
# Indices 1 2 3 4 5 6 
#
# 1 0.023538 -0.004590 -0.006144 0.000000 0.000000 0.000000
# 2 -0.004590 0.023538 -0.006144 0.000000 0.000000 0.000000
# 3 -0.006144 -0.006144 0.012744 0.000000 0.000000 0.000000
# 4 0.000000 0.000000 0.000000 -0.047547 0.000000 0.000000
# 5 0.000000 0.000000 0.000000 0.000000 -0.047547 0.000000
# 6 0.000000 0.000000 0.000000 0.000000 0.000000 0.056256
#
#
# Mechanical properties :
#
#
# Convention : Reuss Voigt Hill
#
# Bulk Modulus (GPa) = 38.36837 46.20133 42.28485
# Shear Modulus (GPa) = 78.83309 3.93221 41.38265
#
# Velocity S-wave (km/s) = 7.08730 1.58287 5.13495
# Velocity P-wave (km/s) = 9.56139 5.72526 7.88032
#
# Compressibility (1/GPa) = 0.02606314
#
# Stress axis : x y z
#
# Youngs Moduli (GPa) = 42.48483 42.48483 78.46866
#
# Poissons Ratio (x) = 0.19500 0.48212
# Poissons Ratio (y) = 0.19500 0.48212
# Poissons Ratio (z) = 0.26103 0.26103
#
# Static dielectric constant tensor:
#      x y z
#    x 1.522040 0.000000 0.000000 
#    y 0.000000 1.522040 0.000000 
#    z 0.000000 0.000000 1.553190 
# 
# From -- ./inp_files/6555.got.cif
#   From: 2010.05.17/outbox.cif.g08.bks.cpg/sg191_4_cif.got.tgz:6555.got - 2010.05.20 12:20:32.
