data_PCOD9587457
_publ_section_title
;
Structure prediction by ZEFSAII (Michael W. Deem and Ramdas Pophale) SiO2 
 PCOD9587457
Probable space group: P 6/M M M
;
_chemical_formula_sum "Si O2"
_cell_formula_units_Z 120
_cell_length_a 17.881069
_cell_length_b 17.881069
_cell_length_c 32.210586
_cell_angle_alpha 90.000000
_cell_angle_beta 90.000000
_cell_angle_gamma 120.000000
_cell_volume 8919.001064
_symmetry_space_group_name_H-M "P 6/M M M"
_symmetry_group_IT_number 191
_symmetry_cell_setting 'hexagonal'
loop_
_space_group_symop_operation_xyz
x,y,z
x-y,x,z
-y,x-y,z
-x,-y,z
-x+y,-x,z
y,-x+y,z
x-y,-y,-z
-x,-x+y,-z
y,x,-z
-y,-x,-z
-x+y,y,-z
x,x-y,-z
-x,-y,-z
-x+y,-x,-z
y,-x+y,-z
x,y,-z
x-y,x,-z
-y,x-y,-z
-x+y,y,z
x,x-y,z
-y,-x,z
y,x,z
x-y,-y,z
-x,-x+y,z
loop_
_atom_site_type_symbol
_atom_site_label
_atom_site_fract_x
_atom_site_fract_y
_atom_site_fract_z
Si Si1 0.590463 0.000000 0.644531
Si Si2 0.591070 0.000000 0.739337
Si Si3 0.844448 0.512401 0.416392
Si Si4 0.511013 0.844087 0.798250
Si Si5 0.333063 0.844091 0.106398
Si Si6 0.591009 0.591009 0.952422
Si Si7 0.725521 0.624601 0.500000
O O1 0.617553 0.000000 0.691904
O O2 0.568211 0.914180 0.618923
O O3 0.500000 0.000000 0.645965
O O4 0.571165 0.915719 0.765335
O O5 0.500000 0.000000 0.738860
O O6 0.750583 0.501166 0.408227
O O7 0.839221 0.419611 0.419088
O O8 0.878970 0.564228 0.459532
O O9 0.414560 0.829120 0.793349
O O10 0.509990 0.754995 0.792726
O O11 0.537290 0.874195 0.845927
O O12 0.414626 0.829252 0.101460
O O13 0.245063 0.754938 0.100883
O O14 0.344400 0.915695 0.073490
O O15 0.500000 0.500000 0.952751
O O16 0.616473 0.616473 0.000000
O O17 0.697340 0.697340 0.500000
O O18 0.827894 0.655788 0.500000
#
# Coordination Sequence:
#
# PCOD9587457 Si02
#       7
#    12  12  24  24  24  12  12
#     4   9  18  30  42  56  80 112 140 170 207 245
#     4   9  17  28  40  56  78 106 137 167 206 249
#     4  10  19  30  45  64  87 114 145 178 213 250
#     4   9  16  26  41  59  78 101 132 170 208 245
#     4   9  16  26  40  57  76 100 132 169 206 242
#     4   9  17  27  37  51  74 103 132 163 200 239
#     4  10  19  31  49  70  91 116 144 178 217 257
#
# _framework density 13.454421
#
# number of rings (size 3 to 8) (size 9 to 14) (size 15 to 20)
#    0.000    2.700    1.000    1.500    0.000    5.600 
#    0.000    1.000    0.000    3.700    0.000    0.000 
#    0.000    0.000    0.000    0.600    0.000   12.700 
#
# Total GULP energy -668321.343616 kJ/mol
# GULP energy per Si atom -5569.344530 kJ/mol
# Density = 1.342380 g / cm^3
# Si number density = 13.454421 Si / 1000 Ang^3
#
#
#
# Elastic Constant Matrix: (Units=GPa)
#
#
# Indices 1 2 3 4 5 6 
#
# 1 71.5206 40.9447 56.7263 0.0000 0.0000 0.0000
# 2 40.9447 71.5206 56.7263 0.0000 0.0000 0.0000
# 3 56.7263 56.7263 132.1572 0.0000 0.0000 0.0000
# 4 0.0000 0.0000 0.0000 13.8366 0.0000 0.0000
# 5 0.0000 0.0000 0.0000 0.0000 13.8366 0.0000
# 6 0.0000 0.0000 0.0000 0.0000 0.0000 15.2879
#
#
#
# Elastic Compliance Matrix: (Units=1/GPa)
#
#
# Indices 1 2 3 4 5 6 
#
# 1 0.024194 -0.008512 -0.006731 0.000000 0.000000 0.000000
# 2 -0.008512 0.024194 -0.006731 0.000000 0.000000 0.000000
# 3 -0.006731 -0.006731 0.013345 0.000000 0.000000 0.000000
# 4 0.000000 0.000000 0.000000 0.072272 0.000000 0.000000
# 5 0.000000 0.000000 0.000000 0.000000 0.072272 0.000000
# 6 0.000000 0.000000 0.000000 0.000000 0.000000 0.065411
#
#
# Mechanical properties :
#
#
# Convention : Reuss Voigt Hill
#
# Bulk Modulus (GPa) = 56.22937 64.88812 60.55874
# Shear Modulus (GPa) = 15.54898 16.64562 16.09730
#
# Velocity S-wave (km/s) = 3.40321 3.52118 3.46270
# Velocity P-wave (km/s) = 7.57137 8.05385 7.81633
#
# Compressibility (1/GPa) = 0.01778430
#
# Stress axis : x y z
#
# Youngs Moduli (GPa) = 41.33301 41.33301 74.93275
#
# Poissons Ratio (x) = 0.35182 0.50439
# Poissons Ratio (y) = 0.35182 0.50439
# Poissons Ratio (z) = 0.27822 0.27822
#
# Static dielectric constant tensor:
#      x y z
#    x 1.419480 0.000000 0.000000 
#    y 0.000000 1.419480 0.000000 
#    z 0.000000 0.000000 1.455170 
# 
# From -- ./inp_files/10344.got.cif
#   From: 2010.05.17/outbox.cif.g08.bks.cpg/sg191_6_cif.got.tgz:10344.got - 2010.05.20 12:20:32.
