data_PCOD9587132
_publ_section_title
;
Structure prediction by ZEFSAII (Michael W. Deem and Ramdas Pophale) SiO2 
 PCOD9587132
Probable space group: P 6/M M M
;
_chemical_formula_sum "Si O2"
_cell_formula_units_Z 168
_cell_length_a 23.043507
_cell_length_b 23.043507
_cell_length_c 24.019583
_cell_angle_alpha 90.000000
_cell_angle_beta 90.000000
_cell_angle_gamma 120.000000
_cell_volume 11045.700048
_symmetry_space_group_name_H-M "P 6/M M M"
_symmetry_group_IT_number 191
_symmetry_cell_setting 'hexagonal'
loop_
_space_group_symop_operation_xyz
x,y,z
x-y,x,z
-y,x-y,z
-x,-y,z
-x+y,-x,z
y,-x+y,z
x-y,-y,-z
-x,-x+y,-z
y,x,-z
-y,-x,-z
-x+y,y,-z
x,x-y,-z
-x,-y,-z
-x+y,-x,-z
y,-x+y,-z
x,y,-z
x-y,x,-z
-y,x-y,-z
-x+y,y,z
x,x-y,z
-y,-x,z
y,x,z
x-y,-y,z
-x,-x+y,z
loop_
_atom_site_type_symbol
_atom_site_label
_atom_site_fract_x
_atom_site_fract_y
_atom_site_fract_z
Si Si1 0.918854 0.392299 0.438312
Si Si2 0.793359 0.073514 0.149738
Si Si3 0.392846 0.125824 0.062466
Si Si4 0.076131 0.285671 0.719374
Si Si5 0.336850 0.920365 0.322401
Si Si6 0.333337 0.529440 0.751453
Si Si7 0.468858 0.666175 0.115740
O O1 0.895670 0.361927 0.500000
O O2 0.898157 0.449079 0.429847
O O3 0.900719 0.345269 0.385059
O O4 0.000000 0.432818 0.439885
O O5 0.867875 0.132126 0.137281
O O6 0.743714 0.082393 0.108707
O O7 0.779244 0.081031 0.214373
O O8 0.782253 0.000000 0.142831
O O9 0.393582 0.196791 0.062346
O O10 0.466561 0.144653 0.081818
O O11 0.376872 0.098253 0.000000
O O12 0.134703 0.269406 0.706367
O O13 0.086275 0.351127 0.687546
O O14 0.000000 0.226797 0.709094
O O15 0.343686 0.869318 0.281039
O O16 0.391300 0.000000 0.313616
O O17 0.262681 0.525361 0.736782
O O18 0.396335 0.603666 0.740709
O O19 0.331714 0.517560 0.817981
O O20 0.457183 0.728592 0.104180
O O21 0.402924 0.597077 0.102476
#
# Coordination Sequence:
#
# PCOD9587132 Si02
#       7
#    24  24  24  24  24  24  24
#     4   8  14  25  40  59  86 118 149 182 221 264
#     4   9  17  30  48  68  89 114 144 176 211 254
#     4   9  17  28  42  61  84 109 137 170 210 255
#     4   9  17  29  46  68  93 119 146 179 221 267
#     4  10  18  27  44  69  91 112 142 181 225 269
#     4  10  19  30  44  61  84 114 147 183 222 266
#     4   9  17  29  44  61  81 108 143 182 222 259
#
# _framework density 15.209538999999999
#
# number of rings (size 3 to 8) (size 9 to 14) (size 15 to 20)
#    0.000    2.857    0.000    2.429    0.000    4.857 
#    0.000    0.000    0.000    4.143    0.000    3.000 
#    0.000    1.143    0.000    3.571    0.000    3.714 
#
# Total GULP energy -935364.621250 kJ/mol
# GULP energy per Si atom -5567.646555 kJ/mol
# Density = 1.517492 g / cm^3
# Si number density = 15.209539 Si / 1000 Ang^3
#
#
#
# Elastic Constant Matrix: (Units=GPa)
#
#
# Indices 1 2 3 4 5 6 
#
# 1 68.2453 33.4107 33.9785 0.0000 0.0000 0.0000
# 2 33.4107 68.2453 33.9785 0.0000 0.0000 0.0000
# 3 33.9785 33.9785 43.2672 0.0000 0.0000 0.0000
# 4 0.0000 0.0000 0.0000 12.7597 0.0000 0.0000
# 5 0.0000 0.0000 0.0000 0.0000 12.7597 0.0000
# 6 0.0000 0.0000 0.0000 0.0000 0.0000 17.4173
#
#
#
# Elastic Compliance Matrix: (Units=1/GPa)
#
#
# Indices 1 2 3 4 5 6 
#
# 1 0.024708 -0.003999 -0.016263 0.000000 0.000000 0.000000
# 2 -0.003999 0.024708 -0.016263 0.000000 0.000000 0.000000
# 3 -0.016263 -0.016263 0.048656 0.000000 0.000000 0.000000
# 4 0.000000 0.000000 0.000000 0.078371 0.000000 0.000000
# 5 0.000000 0.000000 0.000000 0.000000 0.078371 0.000000
# 6 0.000000 0.000000 0.000000 0.000000 0.000000 0.057414
#
#
# Mechanical properties :
#
#
# Convention : Reuss Voigt Hill
#
# Bulk Modulus (GPa) = 39.96629 42.49924 41.23277
# Shear Modulus (GPa) = 12.70263 13.81338 13.25801
#
# Velocity S-wave (km/s) = 2.89307 3.01691 2.95564
# Velocity P-wave (km/s) = 6.12324 6.33552 6.23028
#
# Compressibility (1/GPa) = 0.02502109
#
# Stress axis : x y z
#
# Youngs Moduli (GPa) = 40.47274 40.47274 20.55266
#
# Poissons Ratio (x) = 0.16185 0.33425
# Poissons Ratio (y) = 0.16185 0.33425
# Poissons Ratio (z) = 0.65821 0.65821
#
# Static dielectric constant tensor:
#      x y z
#    x 1.497590 0.000000 0.000000 
#    y 0.000000 1.497590 0.000000 
#    z 0.000000 0.000000 1.515770 
# 
# From -- ./inp_files/7936.got.cif
#   From: 2010.05.17/outbox.cif.g08.bks.cpg/sg191_4_cif.got.tgz:7936.got - 2010.05.20 12:20:32.
