data_PCOD9587100
_publ_section_title
;
Structure prediction by ZEFSAII (Michael W. Deem and Ramdas Pophale) SiO2 
 PCOD9587100
Probable space group: P 6/M M M
;
_chemical_formula_sum "Si O2"
_cell_formula_units_Z 120
_cell_length_a 18.381016
_cell_length_b 18.381016
_cell_length_c 25.819051
_cell_angle_alpha 90.000000
_cell_angle_beta 90.000000
_cell_angle_gamma 120.000000
_cell_volume 7554.573193
_symmetry_space_group_name_H-M "P 6/M M M"
_symmetry_group_IT_number 191
_symmetry_cell_setting 'hexagonal'
loop_
_space_group_symop_operation_xyz
x,y,z
x-y,x,z
-y,x-y,z
-x,-y,z
-x+y,-x,z
y,-x+y,z
x-y,-y,-z
-x,-x+y,-z
y,x,-z
-y,-x,-z
-x+y,y,-z
x,x-y,-z
-x,-y,-z
-x+y,-x,-z
y,-x+y,-z
x,y,-z
x-y,x,-z
-y,x-y,-z
-x+y,y,z
x,x-y,z
-y,-x,z
y,x,z
x-y,-y,z
-x,-x+y,z
loop_
_atom_site_type_symbol
_atom_site_label
_atom_site_fract_x
_atom_site_fract_y
_atom_site_fract_z
Si Si1 0.100669 0.466797 0.390569
Si Si2 0.500714 0.669067 0.500000
Si Si3 0.641937 0.905761 0.000000
Si Si4 0.836750 0.502803 0.792568
Si Si5 0.497260 0.333964 0.914050
Si Si6 0.638825 0.902462 0.294530
O O1 0.132049 0.566025 0.383102
O O2 0.132384 0.452920 0.445765
O O3 0.121667 0.425113 0.342976
O O4 0.000000 0.420205 0.392910
O O5 0.426759 0.573242 0.500000
O O6 0.465860 0.732930 0.500000
O O7 0.582085 0.889619 0.049538
O O8 0.666289 0.833145 0.000000
O O9 0.717587 0.000000 0.000000
O O10 0.739607 0.479213 0.786701
O O11 0.847523 0.423762 0.778263
O O12 0.858008 0.521598 0.853323
O O13 0.889693 0.582308 0.756168
O O14 0.520712 0.260356 0.920321
O O15 0.576665 0.423335 0.928256
O O16 0.670077 0.835039 0.292092
O O17 0.709087 0.000000 0.299451
#
# Coordination Sequence:
#
# PCOD9587100 Si02
#       6
#    24  12  12  24  24  24
#     4   9  17  29  45  64  86 113 144 178 217 260
#     4  10  18  27  39  57  84 117 151 181 207 238
#     4  10  21  35  49  66  89 117 150 190 235 277
#     4   9  17  29  46  69  97 128 158 185 212 246
#     4   9  17  29  46  69  98 130 159 183 209 247
#     4  10  20  33  48  66  88 114 146 185 229 274
#
# _framework density 15.884418999999999
#
# number of rings (size 3 to 8) (size 9 to 14) (size 15 to 20)
#    0.000    2.600    0.000    2.300    0.000    5.600 
#    0.000    3.000    0.000    6.700    0.000    0.000 
#    0.000    0.000    0.000   10.000    0.000   20.800 
#
# Total GULP energy -668823.720507 kJ/mol
# GULP energy per Si atom -5573.531004 kJ/mol
# Density = 1.584827 g / cm^3
# Si number density = 15.884419 Si / 1000 Ang^3
#
#
#
# Elastic Constant Matrix: (Units=GPa)
#
#
# Indices 1 2 3 4 5 6 
#
# 1 65.2320 48.7913 34.4589 0.0000 0.0000 0.0000
# 2 48.7913 65.2320 34.4589 0.0000 0.0000 0.0000
# 3 34.4589 34.4589 64.8899 0.0000 0.0000 0.0000
# 4 0.0000 0.0000 0.0000 15.8353 0.0000 0.0000
# 5 0.0000 0.0000 0.0000 0.0000 15.8353 0.0000
# 6 0.0000 0.0000 0.0000 0.0000 0.0000 8.2204
#
#
#
# Elastic Compliance Matrix: (Units=1/GPa)
#
#
# Indices 1 2 3 4 5 6 
#
# 1 0.036870 -0.023954 -0.006859 0.000000 0.000000 0.000000
# 2 -0.023954 0.036870 -0.006859 0.000000 0.000000 0.000000
# 3 -0.006859 -0.006859 0.022695 0.000000 0.000000 0.000000
# 4 0.000000 0.000000 0.000000 0.063150 0.000000 0.000000
# 5 0.000000 0.000000 0.000000 0.000000 0.063150 0.000000
# 6 0.000000 0.000000 0.000000 0.000000 0.000000 0.121649
#
#
# Mechanical properties :
#
#
# Convention : Reuss Voigt Hill
#
# Bulk Modulus (GPa) = 47.41199 47.86358 47.63778
# Shear Modulus (GPa) = 11.71623 13.15450 12.43537
#
# Velocity S-wave (km/s) = 2.71881 2.88086 2.80101
# Velocity P-wave (km/s) = 6.30625 6.42368 6.36524
#
# Compressibility (1/GPa) = 0.02109171
#
# Stress axis : x y z
#
# Youngs Moduli (GPa) = 27.12231 27.12231 44.06229
#
# Poissons Ratio (x) = 0.64970 0.30221
# Poissons Ratio (y) = 0.64970 0.30221
# Poissons Ratio (z) = 0.18602 0.18602
#
# Static dielectric constant tensor:
#      x y z
#    x 1.515170 0.000000 0.000000 
#    y 0.000000 1.515170 0.000000 
#    z 0.000000 0.000000 1.556240 
# 
# From -- ./inp_files/8536.got.cif
#   From: 2010.05.17/outbox.cif.g08.bks.cpg/sg191_5_cif.got.tgz:8536.got - 2010.05.20 12:20:32.
