data_PCOD9587968
_publ_section_title
;
Structure prediction by ZEFSAII (Michael W. Deem and Ramdas Pophale) SiO2 
 PCOD9587968
Probable space group: P 6/M M M
;
_chemical_formula_sum "Si O2"
_cell_formula_units_Z 126
_cell_length_a 31.686735
_cell_length_b 31.686735
_cell_length_c 7.945779
_cell_angle_alpha 90.000000
_cell_angle_beta 90.000000
_cell_angle_gamma 120.000000
_cell_volume 6909.109838
_symmetry_space_group_name_H-M "P 6/M M M"
_symmetry_group_IT_number 191
_symmetry_cell_setting 'hexagonal'
loop_
_space_group_symop_operation_xyz
x,y,z
x-y,x,z
-y,x-y,z
-x,-y,z
-x+y,-x,z
y,-x+y,z
x-y,-y,-z
-x,-x+y,-z
y,x,-z
-y,-x,-z
-x+y,y,-z
x,x-y,-z
-x,-y,-z
-x+y,-x,-z
y,-x+y,-z
x,y,-z
x-y,x,-z
-y,x-y,-z
-x+y,y,z
x,x-y,z
-y,-x,z
y,x,z
x-y,-y,z
-x,-x+y,z
loop_
_atom_site_type_symbol
_atom_site_label
_atom_site_fract_x
_atom_site_fract_y
_atom_site_fract_z
Si Si1 0.138141 0.374392 0.700271
Si Si2 0.798147 0.854143 0.000000
Si Si3 0.396582 0.698291 0.500000
Si Si4 0.424272 0.478875 0.298264
Si Si5 0.735629 0.792657 0.307468
Si Si6 0.474267 0.737134 0.793124
Si Si7 0.471507 0.323189 0.809189
O O1 0.141946 0.385228 0.500000
O O2 0.187484 0.374967 0.752226
O O3 0.092519 0.321053 0.724308
O O4 0.132194 0.414998 0.794771
O O5 0.765222 0.831940 0.834407
O O6 0.836480 0.836480 0.000000
O O7 0.822187 0.911094 0.000000
O O8 0.359861 0.719722 0.500000
O O9 0.427623 0.713812 0.671259
O O10 0.426943 0.478591 0.500000
O O11 0.469792 0.530209 0.237566
O O12 0.436545 0.436545 0.239461
O O13 0.373171 0.476676 0.261825
O O14 0.745842 0.811815 0.500000
O O15 0.752291 0.752291 0.295278
O O16 0.502220 0.707094 0.745836
O O17 0.467518 0.733759 0.000000
O O18 0.488262 0.335118 0.000000
#
# Coordination Sequence:
#
# PCOD9587968 Si02
#       7
#    24  12   6  24  24  12  24
#     4  10  20  33  53  79 108 148 192 234 277 333
#     4  10  20  34  54  79 108 148 191 241 297 349
#     4  10  26  46  70 102 112 156 207 242 322 368
#     4   9  20  40  63  87 114 146 190 241 290 346
#     4   9  19  35  53  78 113 150 193 241 289 343
#     4  10  24  44  64  92 136 164 200 255 298 375
#     4  11  23  37  57  87 119 159 193 235 296 344
#
# _framework density 18.236792000000001
#
# number of rings (size 3 to 8) (size 9 to 14) (size 15 to 20)
#    0.095    2.095    0.952    1.714    4.000    3.810 
#    0.000    4.762    0.000    0.095    0.000    0.000 
#    0.000    0.000    0.000    4.762    0.000    0.000 
#
# Total GULP energy -701610.607288 kJ/mol
# GULP energy per Si atom -5568.338153 kJ/mol
# Density = 1.819528 g / cm^3
# Si number density = 18.236792 Si / 1000 Ang^3
#
#
#
# Elastic Constant Matrix: (Units=GPa)
#
#
# Indices 1 2 3 4 5 6 
#
# 1 173.2347 10.4383 42.5088 0.0000 0.0000 0.0000
# 2 10.4383 173.2347 42.5088 0.0000 0.0000 0.0000
# 3 42.5088 42.5088 46.3741 0.0000 0.0000 0.0000
# 4 0.0000 0.0000 0.0000 -3.4432 0.0000 0.0000
# 5 0.0000 0.0000 0.0000 0.0000 -3.4432 0.0000
# 6 0.0000 0.0000 0.0000 0.0000 0.0000 81.3982
#
#
#
# Elastic Compliance Matrix: (Units=1/GPa)
#
#
# Indices 1 2 3 4 5 6 
#
# 1 0.007800 0.001657 -0.008669 0.000000 0.000000 0.000000
# 2 0.001657 0.007800 -0.008669 0.000000 0.000000 0.000000
# 3 -0.008669 -0.008669 0.037456 0.000000 0.000000 0.000000
# 4 0.000000 0.000000 0.000000 -0.290426 0.000000 0.000000
# 5 0.000000 0.000000 0.000000 0.000000 -0.290426 0.000000
# 6 0.000000 0.000000 0.000000 0.000000 0.000000 0.012285
#
#
# Mechanical properties :
#
#
# Convention : Reuss Voigt Hill
#
# Bulk Modulus (GPa) = 46.09322 64.86169 55.47745
# Shear Modulus (GPa) = -10.48395 34.72820 12.12212
#
# Velocity S-wave (km/s) = -2.40027 4.36855 2.58099
# Velocity P-wave (km/s) = 4.20096 7.81596 6.27445
#
# Compressibility (1/GPa) = 0.02169516
#
# Stress axis : x y z
#
# Youngs Moduli (GPa) = 128.20800 128.20800 26.69786
#
# Poissons Ratio (x) = -0.21246 0.23144
# Poissons Ratio (y) = -0.21246 0.23144
# Poissons Ratio (z) = 1.11140 1.11140
#
# Static dielectric constant tensor:
#      x y z
#    x 1.625530 0.000000 0.000000 
#    y 0.000000 1.625530 0.000000 
#    z 0.000000 0.000000 1.723960 
# 
# From -- ./inp_files/1897.got.cif
#   From: 2010.05.17/outbox.cif.g08.bks.cpg/sg191_1_cif.got.tgz:1897.got - 2010.05.20 12:20:32.
