data_PCOD9587389
_publ_section_title
;
Structure prediction by ZEFSAII (Michael W. Deem and Ramdas Pophale) SiO2 
 PCOD9587389
Probable space group: P 6/M M M
;
_chemical_formula_sum "Si O2"
_cell_formula_units_Z 108
_cell_length_a 18.333409
_cell_length_b 18.333409
_cell_length_c 23.314882
_cell_angle_alpha 90.000000
_cell_angle_beta 90.000000
_cell_angle_gamma 120.000000
_cell_volume 6786.569608
_symmetry_space_group_name_H-M "P 6/M M M"
_symmetry_group_IT_number 191
_symmetry_cell_setting 'hexagonal'
loop_
_space_group_symop_operation_xyz
x,y,z
x-y,x,z
-y,x-y,z
-x,-y,z
-x+y,-x,z
y,-x+y,z
x-y,-y,-z
-x,-x+y,-z
y,x,-z
-y,-x,-z
-x+y,y,-z
x,x-y,-z
-x,-y,-z
-x+y,-x,-z
y,-x+y,-z
x,y,-z
x-y,x,-z
-y,x-y,-z
-x+y,y,z
x,x-y,z
-y,-x,z
y,x,z
x-y,-y,z
-x,-x+y,z
loop_
_atom_site_type_symbol
_atom_site_label
_atom_site_fract_x
_atom_site_fract_y
_atom_site_fract_z
Si Si1 0.902638 0.261844 0.163102
Si Si2 0.366192 0.897857 0.603981
Si Si3 0.100562 0.740073 0.500000
Si Si4 0.468422 0.102213 0.266331
Si Si5 0.334003 0.496327 0.067052
O O1 0.836871 0.163130 0.157689
O O2 0.875988 0.297448 0.217906
O O3 0.890726 0.308518 0.108283
O O4 0.000000 0.289116 0.169015
O O5 0.434734 0.869468 0.590312
O O6 0.297795 0.877097 0.555451
O O7 0.334127 0.870127 0.668807
O O8 0.419667 0.000000 0.604949
O O9 0.159769 0.840232 0.500000
O O10 0.000000 0.703771 0.500000
O O11 0.565436 0.130871 0.252904
O O12 0.419339 0.000000 0.267024
O O13 0.259469 0.518937 0.073010
O O14 0.423593 0.576408 0.082335
O O15 0.336593 0.476273 0.000000
#
# Coordination Sequence:
#
# PCOD9587389 Si02
#       5
#    24  24  12  24  24
#     4  10  20  32  46  65  89 117 151 192 234 270
#     4   8  14  26  45  67  88 110 137 170 211 261
#     4  10  19  29  43  64  89 117 152 194 235 273
#     4   8  14  26  45  68  91 112 135 166 207 259
#     4   9  17  29  46  69  97 126 151 174 205 252
#
# _framework density 15.913783
#
# number of rings (size 3 to 8) (size 9 to 14) (size 15 to 20)
#    0.000    3.111    0.000    2.556    0.000    4.889 
#    0.000    1.111    0.000    2.556    0.000    0.000 
#    0.000    0.000    0.000   16.667    0.000    0.000 
#
# Total GULP energy -601363.431339 kJ/mol
# GULP energy per Si atom -5568.179920 kJ/mol
# Density = 1.587756 g / cm^3
# Si number density = 15.913783 Si / 1000 Ang^3
#
#
#
# Elastic Constant Matrix: (Units=GPa)
#
#
# Indices 1 2 3 4 5 6 
#
# 1 66.4827 44.7574 36.6292 0.0000 0.0000 0.0000
# 2 44.7574 66.4827 36.6292 0.0000 0.0000 0.0000
# 3 36.6292 36.6292 66.4736 0.0000 0.0000 0.0000
# 4 0.0000 0.0000 0.0000 11.1703 0.0000 0.0000
# 5 0.0000 0.0000 0.0000 0.0000 11.1703 0.0000
# 6 0.0000 0.0000 0.0000 0.0000 0.0000 10.8626
#
#
#
# Elastic Compliance Matrix: (Units=1/GPa)
#
#
# Indices 1 2 3 4 5 6 
#
# 1 0.030070 -0.015960 -0.007775 0.000000 0.000000 0.000000
# 2 -0.015960 0.030070 -0.007775 0.000000 0.000000 0.000000
# 3 -0.007775 -0.007775 0.023612 0.000000 0.000000 0.000000
# 4 0.000000 0.000000 0.000000 0.089523 0.000000 0.000000
# 5 0.000000 0.000000 0.000000 0.000000 0.089523 0.000000
# 6 0.000000 0.000000 0.000000 0.000000 0.000000 0.092059
#
#
# Mechanical properties :
#
#
# Convention : Reuss Voigt Hill
#
# Bulk Modulus (GPa) = 48.23496 48.38561 48.31028
# Shear Modulus (GPa) = 11.77060 12.06884 11.91972
#
# Velocity S-wave (km/s) = 2.72260 2.75687 2.73979
# Velocity P-wave (km/s) = 6.34503 6.37218 6.35862
#
# Compressibility (1/GPa) = 0.02073185
#
# Stress axis : x y z
#
# Youngs Moduli (GPa) = 33.25614 33.25614 42.35109
#
# Poissons Ratio (x) = 0.53076 0.32928
# Poissons Ratio (y) = 0.53076 0.32928
# Poissons Ratio (z) = 0.25857 0.25857
#
# Static dielectric constant tensor:
#      x y z
#    x 1.523200 0.000000 0.000000 
#    y 0.000000 1.523200 0.000000 
#    z 0.000000 0.000000 1.556200 
# 
# From -- ./inp_files/8315.got.cif
#   From: 2010.05.17/outbox.cif.g08.bks.cpg/sg191_5_cif.got.tgz:8315.got - 2010.05.20 12:20:32.
