data_PCOD9587296
_publ_section_title
;
Structure prediction by ZEFSAII (Michael W. Deem and Ramdas Pophale) SiO2 
 PCOD9587296
Probable space group: P 6/M M M
;
_chemical_formula_sum "Si O2"
_cell_formula_units_Z 144
_cell_length_a 21.119412
_cell_length_b 21.119412
_cell_length_c 24.220939
_cell_angle_alpha 90.000000
_cell_angle_beta 90.000000
_cell_angle_gamma 120.000000
_cell_volume 9355.893138
_symmetry_space_group_name_H-M "P 6/M M M"
_symmetry_group_IT_number 191
_symmetry_cell_setting 'hexagonal'
loop_
_space_group_symop_operation_xyz
x,y,z
x-y,x,z
-y,x-y,z
-x,-y,z
-x+y,-x,z
y,-x+y,z
x-y,-y,-z
-x,-x+y,-z
y,x,-z
-y,-x,-z
-x+y,y,-z
x,x-y,-z
-x,-y,-z
-x+y,-x,-z
y,-x+y,-z
x,y,-z
x-y,x,-z
-y,x-y,-z
-x+y,y,z
x,x-y,z
-y,-x,z
y,x,z
x-y,-y,z
-x,-x+y,z
loop_
_atom_site_type_symbol
_atom_site_label
_atom_site_fract_x
_atom_site_fract_y
_atom_site_fract_z
Si Si1 0.915267 0.534300 0.000000
Si Si2 0.181051 0.515011 0.893234
Si Si3 0.663744 0.478193 0.318164
Si Si4 0.085846 0.440269 0.784713
Si Si5 0.729254 0.609357 0.387916
Si Si6 0.226421 0.920961 0.726228
Si Si7 0.768391 0.079035 0.500000
O O1 0.868191 0.528375 0.053889
O O2 0.919168 0.459584 0.000000
O O3 0.000000 0.599335 0.000000
O O4 0.256599 0.513197 0.890470
O O5 0.197544 0.598772 0.896894
O O6 0.130319 0.478148 0.839774
O O7 0.744673 0.489345 0.307930
O O8 0.605781 0.394220 0.327339
O O9 0.638674 0.507432 0.265992
O O10 0.667984 0.528650 0.369680
O O11 0.087066 0.366093 0.770258
O O12 0.000000 0.416499 0.787000
O O13 0.802449 0.604897 0.392894
O O14 0.742162 0.659395 0.334171
O O15 0.726528 0.643810 0.445473
O O16 0.145755 0.854246 0.730463
O O17 0.235631 0.000000 0.732760
O O18 0.850813 0.149188 0.500000
O O19 0.762387 0.000000 0.500000
#
# Coordination Sequence:
#
# PCOD9587296 Si02
#       7
#    12  24  24  24  24  24  12
#     4   9  19  34  50  66  86 115 150 186 222 264
#     4  11  21  33  48  67  92 120 152 188 228 272
#     4  10  19  32  49  69  93 119 149 186 233 283
#     4  10  20  32  47  66  90 120 153 190 227 266
#     4   8  16  29  44  63  87 115 146 180 216 259
#     4   9  16  28  45  65  88 114 145 180 221 266
#     4  10  18  30  49  70  91 117 151 189 228 270
#
# _framework density 15.391368999999999
#
# number of rings (size 3 to 8) (size 9 to 14) (size 15 to 20)
#    0.000    2.417    0.000    4.583    0.000    2.667 
#    0.000    2.917    0.000    0.750    0.000    1.167 
#    0.000    4.000    0.000    0.000    0.000    0.333 
#
# Total GULP energy -801783.928440 kJ/mol
# GULP energy per Si atom -5567.943948 kJ/mol
# Density = 1.535634 g / cm^3
# Si number density = 15.391369 Si / 1000 Ang^3
#
#
#
# Elastic Constant Matrix: (Units=GPa)
#
#
# Indices 1 2 3 4 5 6 
#
# 1 80.4004 61.8043 34.8458 0.0000 0.0000 0.0000
# 2 61.8043 80.4004 34.8458 0.0000 0.0000 0.0000
# 3 34.8458 34.8458 88.4840 0.0000 0.0000 0.0000
# 4 0.0000 0.0000 0.0000 10.6439 0.0000 0.0000
# 5 0.0000 0.0000 0.0000 0.0000 10.6439 0.0000
# 6 0.0000 0.0000 0.0000 0.0000 0.0000 9.2980
#
#
#
# Elastic Compliance Matrix: (Units=1/GPa)
#
#
# Indices 1 2 3 4 5 6 
#
# 1 0.031244 -0.022530 -0.003432 0.000000 0.000000 0.000000
# 2 -0.022530 0.031244 -0.003432 0.000000 0.000000 0.000000
# 3 -0.003432 -0.003432 0.014004 0.000000 0.000000 0.000000
# 4 0.000000 0.000000 0.000000 0.093951 0.000000 0.000000
# 5 0.000000 0.000000 0.000000 0.000000 0.093951 0.000000
# 6 0.000000 0.000000 0.000000 0.000000 0.000000 0.107549
#
#
# Mechanical properties :
#
#
# Convention : Reuss Voigt Hill
#
# Bulk Modulus (GPa) = 56.47925 56.91959 56.69942
# Shear Modulus (GPa) = 11.45126 13.96975 12.71050
#
# Velocity S-wave (km/s) = 2.73060 3.01597 2.87683
# Velocity P-wave (km/s) = 6.83496 7.01355 6.92483
#
# Compressibility (1/GPa) = 0.01770562
#
# Stress axis : x y z
#
# Youngs Moduli (GPa) = 32.00583 32.00583 71.40679
#
# Poissons Ratio (x) = 0.72111 0.24504
# Poissons Ratio (y) = 0.72111 0.24504
# Poissons Ratio (z) = 0.10983 0.10983
#
# Static dielectric constant tensor:
#      x y z
#    x 1.520370 0.000000 0.000000 
#    y 0.000000 1.520370 0.000000 
#    z 0.000000 0.000000 1.521240 
# 
# From -- ./inp_files/7652.got.cif
#   From: 2010.05.17/outbox.cif.g08.bks.cpg/sg191_4_cif.got.tgz:7652.got - 2010.05.20 12:20:32.
