data_PCOD9587903
_publ_section_title
;
Structure prediction by ZEFSAII (Michael W. Deem and Ramdas Pophale) SiO2 
 PCOD9587903
Probable space group: P 6/M M M
;
_chemical_formula_sum "Si O2"
_cell_formula_units_Z 132
_cell_length_a 18.116931
_cell_length_b 18.116931
_cell_length_c 28.604842
_cell_angle_alpha 90.000000
_cell_angle_beta 90.000000
_cell_angle_gamma 120.000000
_cell_volume 8130.915459
_symmetry_space_group_name_H-M "P 6/M M M"
_symmetry_group_IT_number 191
_symmetry_cell_setting 'hexagonal'
loop_
_space_group_symop_operation_xyz
x,y,z
x-y,x,z
-y,x-y,z
-x,-y,z
-x+y,-x,z
y,-x+y,z
x-y,-y,-z
-x,-x+y,-z
y,x,-z
-y,-x,-z
-x+y,y,-z
x,x-y,-z
-x,-y,-z
-x+y,-x,-z
y,-x+y,-z
x,y,-z
x-y,x,-z
-y,x-y,-z
-x+y,y,z
x,x-y,z
-y,-x,z
y,x,z
x-y,-y,z
-x,-x+y,z
loop_
_atom_site_type_symbol
_atom_site_label
_atom_site_fract_x
_atom_site_fract_y
_atom_site_fract_z
Si Si1 0.839954 0.332902 0.823265
Si Si2 0.902268 0.634475 0.740070
Si Si3 0.666565 0.157969 0.447545
Si Si4 0.094076 0.736625 0.367901
Si Si5 0.667634 0.508313 0.000000
Si Si6 0.368541 0.098068 0.911205
O O1 0.850569 0.425285 0.828872
O O2 0.740520 0.259481 0.824922
O O3 0.877667 0.321764 0.774552
O O4 0.885381 0.309784 0.864466
O O5 0.831178 0.662355 0.748345
O O6 0.895475 0.609398 0.685433
O O7 0.000000 0.706333 0.748752
O O8 0.669701 0.126504 0.500000
O O9 0.578427 0.156854 0.442753
O O10 0.745459 0.254542 0.444397
O O11 0.679907 0.106856 0.406258
O O12 0.167186 0.832814 0.376163
O O13 0.000000 0.721526 0.371688
O O14 0.685301 0.567433 0.045300
O O15 0.574579 0.425422 0.000000
O O16 0.740855 0.481710 0.000000
O O17 0.340761 0.170381 0.912522
O O18 0.294343 0.000000 0.912977
#
# Coordination Sequence:
#
# PCOD9587903 Si02
#       6
#    24  24  24  24  12  24
#     4  10  20  33  49  70  97 128 160 192 226 265
#     4   9  18  32  49  68  90 118 151 187 228 272
#     4   9  17  29  45  65  90 120 152 184 218 258
#     4   9  18  32  48  66  89 117 149 185 227 273
#     4  10  20  33  50  73 102 134 165 196 232 275
#     4  10  21  35  51  72  97 126 159 197 241 284
#
# _framework density 16.234332999999999
#
# number of rings (size 3 to 8) (size 9 to 14) (size 15 to 20)
#    0.000    2.545    0.000    1.818    0.000    5.091 
#    0.000    4.545    0.000    2.727    0.000    2.545 
#    0.000    6.545    0.000    4.727    0.000    5.455 
#
# Total GULP energy -735714.109367 kJ/mol
# GULP energy per Si atom -5573.591738 kJ/mol
# Density = 1.619738 g / cm^3
# Si number density = 16.234333 Si / 1000 Ang^3
#
#
#
# Elastic Constant Matrix: (Units=GPa)
#
#
# Indices 1 2 3 4 5 6 
#
# 1 77.8231 73.4605 44.7108 0.0000 0.0000 0.0000
# 2 73.4605 77.8231 44.7108 0.0000 0.0000 0.0000
# 3 44.7108 44.7108 83.9576 0.0000 0.0000 0.0000
# 4 0.0000 0.0000 0.0000 17.9193 0.0000 0.0000
# 5 0.0000 0.0000 0.0000 0.0000 17.9193 0.0000
# 6 0.0000 0.0000 0.0000 0.0000 0.0000 2.1813
#
#
#
# Elastic Compliance Matrix: (Units=1/GPa)
#
#
# Indices 1 2 3 4 5 6 
#
# 1 0.119434 -0.109788 -0.005137 0.000000 0.000000 0.000000
# 2 -0.109788 0.119434 -0.005137 0.000000 0.000000 0.000000
# 3 -0.005137 -0.005137 0.017382 0.000000 0.000000 0.000000
# 4 0.000000 0.000000 0.000000 0.055806 0.000000 0.000000
# 5 0.000000 0.000000 0.000000 0.000000 0.055806 0.000000
# 6 0.000000 0.000000 0.000000 0.000000 0.000000 0.458443
#
#
# Mechanical properties :
#
#
# Convention : Reuss Voigt Hill
#
# Bulk Modulus (GPa) = 62.00889 62.81865 62.41377
# Shear Modulus (GPa) = 4.66503 12.71877 8.69190
#
# Velocity S-wave (km/s) = 1.69700 2.80205 2.31639
# Velocity P-wave (km/s) = 6.48990 7.01766 6.75893
#
# Compressibility (1/GPa) = 0.01612672
#
# Stress axis : x y z
#
# Youngs Moduli (GPa) = 8.37281 8.37281 57.52969
#
# Poissons Ratio (x) = 0.91923 0.29554
# Poissons Ratio (y) = 0.91923 0.29554
# Poissons Ratio (z) = 0.04301 0.04301
#
# Static dielectric constant tensor:
#      x y z
#    x 1.527300 0.000000 0.000000 
#    y 0.000000 1.527300 0.000000 
#    z 0.000000 0.000000 1.565540 
# 
# From -- ./inp_files/8681.got.cif
#   From: 2010.05.17/outbox.cif.g08.bks.cpg/sg191_5_cif.got.tgz:8681.got - 2010.05.20 12:20:32.
