data_PCOD9587580
_publ_section_title
;
Structure prediction by ZEFSAII (Michael W. Deem and Ramdas Pophale) SiO2 
 PCOD9587580
Probable space group: P 6/M M M
;
_chemical_formula_sum "Si O2"
_cell_formula_units_Z 192
_cell_length_a 23.290597
_cell_length_b 23.290597
_cell_length_c 23.639119
_cell_angle_alpha 90.000000
_cell_angle_beta 90.000000
_cell_angle_gamma 120.000000
_cell_volume 11105.117555
_symmetry_space_group_name_H-M "P 6/M M M"
_symmetry_group_IT_number 191
_symmetry_cell_setting 'hexagonal'
loop_
_space_group_symop_operation_xyz
x,y,z
x-y,x,z
-y,x-y,z
-x,-y,z
-x+y,-x,z
y,-x+y,z
x-y,-y,-z
-x,-x+y,-z
y,x,-z
-y,-x,-z
-x+y,y,-z
x,x-y,-z
-x,-y,-z
-x+y,-x,-z
y,-x+y,-z
x,y,-z
x-y,x,-z
-y,x-y,-z
-x+y,y,z
x,x-y,z
-y,-x,z
y,x,z
x-y,-y,z
-x,-x+y,z
loop_
_atom_site_type_symbol
_atom_site_label
_atom_site_fract_x
_atom_site_fract_y
_atom_site_fract_z
Si Si1 0.279775 0.075471 0.931179
Si Si2 0.587074 0.859308 0.241210
Si Si3 0.540666 0.336235 0.680834
Si Si4 0.335366 0.258723 0.562934
Si Si5 0.283638 0.435450 0.067680
Si Si6 0.685446 0.508800 0.561003
Si Si7 0.921003 0.527719 0.846674
Si Si8 0.204327 0.923646 0.685658
O O1 0.260348 0.130174 0.912271
O O2 0.357282 0.105465 0.916893
O O3 0.234818 0.000000 0.910876
O O4 0.276694 0.074018 0.000000
O O5 0.589828 0.794914 0.217215
O O6 0.528511 0.830035 0.287198
O O7 0.564680 0.897880 0.198362
O O8 0.655692 0.903894 0.274338
O O9 0.564562 0.282281 0.678608
O O10 0.596768 0.403233 0.708569
O O11 0.527190 0.350941 0.617494
O O12 0.314133 0.226473 0.500000
O O13 0.315483 0.315483 0.564398
O O14 0.413648 0.289517 0.566127
O O15 0.303496 0.217064 0.619621
O O16 0.227198 0.454396 0.082258
O O17 0.353338 0.475661 0.098946
O O18 0.291350 0.440145 0.000000
O O19 0.651977 0.485200 0.500000
O O20 0.751591 0.503181 0.560414
O O21 0.909180 0.454590 0.831046
O O22 0.000000 0.572957 0.856759
O O23 0.128423 0.871578 0.698766
O O24 0.227582 0.000000 0.693778
#
# Coordination Sequence:
#
# PCOD9587580 Si02
#       8
#    24  24  24  24  24  24  24  24
#     4   8  13  22  39  64  93 125 161 200 240 281
#     4  10  20  36  55  72  94 130 173 214 253 291
#     4  10  19  31  47  67  90 120 161 209 260 311
#     4   9  16  26  44  70  98 126 159 203 252 302
#     4   9  18  34  56  79 102 131 167 206 245 286
#     4   9  16  27  43  62  87 119 156 199 249 306
#     4  11  23  36  52  77 108 138 165 199 247 302
#     4  10  19  32  52  77 103 132 167 208 252 297
#
# _framework density 17.289327
#
# number of rings (size 3 to 8) (size 9 to 14) (size 15 to 20)
#    0.000    2.500    1.250    2.750    0.000    2.000 
#    0.000    0.625    0.000    4.875    0.000    2.625 
#    0.000    0.000    0.000    3.125    0.000   26.000 
#
# Total GULP energy -1069140.075701 kJ/mol
# GULP energy per Si atom -5568.437894 kJ/mol
# Density = 1.724998 g / cm^3
# Si number density = 17.289327 Si / 1000 Ang^3
#
#
#
# Elastic Constant Matrix: (Units=GPa)
#
#
# Indices 1 2 3 4 5 6 
#
# 1 84.8795 50.2394 28.2065 0.0000 0.0000 0.0000
# 2 50.2394 84.8795 28.2065 0.0000 0.0000 0.0000
# 3 28.2065 28.2065 58.8063 0.0000 0.0000 0.0000
# 4 0.0000 0.0000 0.0000 -23.9903 0.0000 0.0000
# 5 0.0000 0.0000 0.0000 0.0000 -23.9903 0.0000
# 6 0.0000 0.0000 0.0000 0.0000 0.0000 17.3200
#
#
#
# Elastic Compliance Matrix: (Units=1/GPa)
#
#
# Indices 1 2 3 4 5 6 
#
# 1 0.019061 -0.009807 -0.004439 0.000000 0.000000 0.000000
# 2 -0.009807 0.019061 -0.004439 0.000000 0.000000 0.000000
# 3 -0.004439 -0.004439 0.021263 0.000000 0.000000 0.000000
# 4 0.000000 0.000000 0.000000 -0.041684 0.000000 0.000000
# 5 0.000000 0.000000 0.000000 0.000000 -0.041684 0.000000
# 6 0.000000 0.000000 0.000000 0.000000 0.000000 0.057737
#
#
# Mechanical properties :
#
#
# Convention : Reuss Voigt Hill
#
# Bulk Modulus (GPa) = 45.42089 49.09669 47.25879
# Shear Modulus (GPa) = 63.72438 1.99542 32.85990
#
# Velocity S-wave (km/s) = 6.07764 1.07547 4.36430
# Velocity P-wave (km/s) = 8.69358 5.47731 7.26565
#
# Compressibility (1/GPa) = 0.02201630
#
# Stress axis : x y z
#
# Youngs Moduli (GPa) = 52.46259 52.46259 47.02993
#
# Poissons Ratio (x) = 0.51451 0.20875
# Poissons Ratio (y) = 0.51451 0.20875
# Poissons Ratio (z) = 0.23287 0.23287
#
# Static dielectric constant tensor:
#      x y z
#    x 1.565200 0.000000 0.000000 
#    y 0.000000 1.565200 0.000000 
#    z 0.000000 0.000000 1.637780 
# 
# From -- ./inp_files/9348.got.cif
#   From: 2010.05.17/outbox.cif.g08.bks.cpg/sg191_5_cif.got.tgz:9348.got - 2010.05.20 12:20:32.
