data_PCOD9587130
_publ_section_title
;
Structure prediction by ZEFSAII (Michael W. Deem and Ramdas Pophale) SiO2 
 PCOD9587130
Probable space group: P 6/M M M
;
_chemical_formula_sum "Si O2"
_cell_formula_units_Z 60
_cell_length_a 21.819592
_cell_length_b 21.819592
_cell_length_c 7.396684
_cell_angle_alpha 90.000000
_cell_angle_beta 90.000000
_cell_angle_gamma 120.000000
_cell_volume 3049.726883
_symmetry_space_group_name_H-M "P 6/M M M"
_symmetry_group_IT_number 191
_symmetry_cell_setting 'hexagonal'
loop_
_space_group_symop_operation_xyz
x,y,z
x-y,x,z
-y,x-y,z
-x,-y,z
-x+y,-x,z
y,-x+y,z
x-y,-y,-z
-x,-x+y,-z
y,x,-z
-y,-x,-z
-x+y,y,-z
x,x-y,-z
-x,-y,-z
-x+y,-x,-z
y,-x+y,-z
x,y,-z
x-y,x,-z
-y,x-y,-z
-x+y,y,z
x,x-y,z
-y,-x,z
y,x,z
x-y,-y,z
-x,-x+y,z
loop_
_atom_site_type_symbol
_atom_site_label
_atom_site_fract_x
_atom_site_fract_y
_atom_site_fract_z
Si Si1 0.917817 0.325720 0.278862
Si Si2 0.914620 0.457310 0.715249
Si Si3 0.838163 0.919082 0.783840
Si Si4 0.835213 0.670425 0.283349
O O1 0.916391 0.325682 0.500000
O O2 0.890037 0.378596 0.217020
O O3 0.875870 0.245296 0.216393
O O4 0.000000 0.361254 0.227110
O O5 0.901340 0.450670 0.500000
O O6 0.000000 0.500000 0.738512
O O7 0.876061 0.876061 0.715157
O O8 0.754177 0.877089 0.751607
O O9 0.847047 0.923524 0.000000
O O10 0.831584 0.663167 0.500000
#
# Coordination Sequence:
#
# PCOD9587130 Si02
#       4
#    24  12  12  12
#     4   8  13  21  34  54  80 108 135 164 204 254
#     4   7  10  18  32  49  72 103 133 154 177 225
#     4  10  21  36  50  62  81 115 155 188 222 273
#     4  10  18  27  43  68  92 109 135 185 237 267
#
# _framework density 19.673891999999999
#
# number of rings (size 3 to 8) (size 9 to 14) (size 15 to 20)
#    0.000    3.400    0.000    3.800    0.000    3.200 
#    0.000    0.000    0.000    2.000    0.000    7.000 
#    0.000    8.000    0.000    0.000    0.000    0.000 
#
# Total GULP energy -334334.826629 kJ/mol
# GULP energy per Si atom -5572.247110 kJ/mol
# Density = 1.962911 g / cm^3
# Si number density = 19.673892 Si / 1000 Ang^3
#
#
#
# Elastic Constant Matrix: (Units=GPa)
#
#
# Indices 1 2 3 4 5 6 
#
# 1 181.1271 125.1466 3.1048 0.0000 0.0000 0.0000
# 2 125.1466 181.1271 3.1048 0.0000 0.0000 0.0000
# 3 3.1048 3.1048 62.0088 0.0000 0.0000 0.0000
# 4 0.0000 0.0000 0.0000 3.9328 0.0000 0.0000
# 5 0.0000 0.0000 0.0000 0.0000 3.9328 0.0000
# 6 0.0000 0.0000 0.0000 0.0000 0.0000 27.9902
#
#
#
# Elastic Compliance Matrix: (Units=1/GPa)
#
#
# Indices 1 2 3 4 5 6 
#
# 1 0.010566 -0.007298 -0.000164 0.000000 0.000000 0.000000
# 2 -0.007298 0.010566 -0.000164 0.000000 0.000000 0.000000
# 3 -0.000164 -0.000164 0.016143 0.000000 0.000000 0.000000
# 4 0.000000 0.000000 0.000000 0.254275 0.000000 0.000000
# 5 0.000000 0.000000 0.000000 0.000000 0.254275 0.000000
# 6 0.000000 0.000000 0.000000 0.000000 0.000000 0.035727
#
#
# Mechanical properties :
#
#
# Convention : Reuss Voigt Hill
#
# Bulk Modulus (GPa) = 45.40237 76.33059 60.86648
# Shear Modulus (GPa) = 8.27620 26.69827 17.48724
#
# Velocity S-wave (km/s) = 2.05325 3.68780 2.98460
# Velocity P-wave (km/s) = 5.36178 7.55085 6.54843
#
# Compressibility (1/GPa) = 0.02202528
#
# Stress axis : x y z
#
# Youngs Moduli (GPa) = 94.64433 94.64433 61.94587
#
# Poissons Ratio (x) = 0.69067 0.01014
# Poissons Ratio (y) = 0.69067 0.01014
# Poissons Ratio (z) = 0.01549 0.01549
#
# Static dielectric constant tensor:
#      x y z
#    x 1.684860 0.000000 0.000000 
#    y 0.000000 1.684860 0.000000 
#    z 0.000000 0.000000 1.757060 
# 
# From -- ./inp_files/582.got.cif
#   From: 2010.05.17/outbox.cif.g08.bks.cpg/sg191_1_cif.got.tgz:582.got - 2010.05.20 12:20:32.
