data_PCOD9587707
_publ_section_title
;
Structure prediction by ZEFSAII (Michael W. Deem and Ramdas Pophale) SiO2 
 PCOD9587707
Probable space group: P 6/M M M
;
_chemical_formula_sum "Si O2"
_cell_formula_units_Z 96
_cell_length_a 23.227146
_cell_length_b 23.227146
_cell_length_c 11.277249
_cell_angle_alpha 90.000000
_cell_angle_beta 90.000000
_cell_angle_gamma 120.000000
_cell_volume 5268.967272
_symmetry_space_group_name_H-M "P 6/M M M"
_symmetry_group_IT_number 191
_symmetry_cell_setting 'hexagonal'
loop_
_space_group_symop_operation_xyz
x,y,z
x-y,x,z
-y,x-y,z
-x,-y,z
-x+y,-x,z
y,-x+y,z
x-y,-y,-z
-x,-x+y,-z
y,x,-z
-y,-x,-z
-x+y,y,-z
x,x-y,-z
-x,-y,-z
-x+y,-x,-z
y,-x+y,-z
x,y,-z
x-y,x,-z
-y,x-y,-z
-x+y,y,z
x,x-y,z
-y,-x,z
y,x,z
x-y,-y,z
-x,-x+y,z
loop_
_atom_site_type_symbol
_atom_site_label
_atom_site_fract_x
_atom_site_fract_y
_atom_site_fract_z
Si Si1 0.782767 0.565533 0.859486
Si Si2 0.158306 0.079153 0.641125
Si Si3 0.151738 0.848263 0.699401
Si Si4 0.662324 0.921273 0.500000
Si Si5 0.000000 0.569025 0.642902
Si Si6 0.495376 0.635329 0.249234
Si Si7 0.179051 0.685167 0.500000
O O1 0.819162 0.638324 0.797110
O O2 0.705043 0.525027 0.819365
O O3 0.786346 0.572692 0.000000
O O4 0.114849 0.114849 0.659421
O O5 0.178470 0.089235 0.500000
O O6 0.224450 0.112225 0.721915
O O7 0.102573 0.786896 0.615987
O O8 0.582965 0.878652 0.500000
O O9 0.696876 0.000000 0.500000
O O10 0.934708 0.553611 0.716922
O O11 0.000000 0.500000 0.645554
O O12 0.000000 0.580895 0.500000
O O13 0.430610 0.569391 0.197705
O O14 0.475188 0.647716 0.379363
O O15 0.246790 0.753211 0.500000
#
# Coordination Sequence:
#
# PCOD9587707 Si02
#       7
#    12  12  12  12  12  24  12
#     4  12  27  47  63  79 116 166 217 266 300 341
#     4  10  19  32  56  95 139 174 201 237 297 374
#     4  11  20  37  55  88 122 163 209 253 303 363
#     4  11  19  29  57  90 119 154 190 240 308 378
#     4   9  18  32  59  99 129 149 174 224 305 386
#     4  11  22  39  63  92 123 152 193 243 304 375
#     4  12  19  34  54  89 127 155 180 232 310 373
#
# _framework density 18.219889999999999
#
# number of rings (size 3 to 8) (size 9 to 14) (size 15 to 20)
#    0.000    1.125    7.500    1.250    1.750    1.000 
#    3.000    0.625    0.000    2.250    0.000    0.000 
#    0.000    1.000    0.000    0.000    0.000    0.000 
#
# Total GULP energy -535208.403449 kJ/mol
# GULP energy per Si atom -5575.087536 kJ/mol
# Density = 1.817842 g / cm^3
# Si number density = 18.219890 Si / 1000 Ang^3
#
#
#
# Elastic Constant Matrix: (Units=GPa)
#
#
# Indices 1 2 3 4 5 6 
#
# 1 135.8024 76.0618 45.3999 0.0000 0.0000 0.0000
# 2 76.0618 135.8024 45.3999 0.0000 0.0000 0.0000
# 3 45.3999 45.3999 92.9407 0.0000 0.0000 0.0000
# 4 0.0000 0.0000 0.0000 3.7180 0.0000 0.0000
# 5 0.0000 0.0000 0.0000 0.0000 3.7180 0.0000
# 6 0.0000 0.0000 0.0000 0.0000 0.0000 29.8703
#
#
#
# Elastic Compliance Matrix: (Units=1/GPa)
#
#
# Indices 1 2 3 4 5 6 
#
# 1 0.011354 -0.005385 -0.002916 0.000000 0.000000 0.000000
# 2 -0.005385 0.011354 -0.002916 0.000000 0.000000 0.000000
# 3 -0.002916 -0.002916 0.013609 0.000000 0.000000 0.000000
# 4 0.000000 0.000000 0.000000 0.268965 0.000000 0.000000
# 5 0.000000 0.000000 0.000000 0.000000 0.268965 0.000000
# 6 0.000000 0.000000 0.000000 0.000000 0.000000 0.033478
#
#
# Mechanical properties :
#
#
# Convention : Reuss Voigt Hill
#
# Bulk Modulus (GPa) = 72.02774 77.58541 74.80658
# Shear Modulus (GPa) = 7.87666 20.64018 14.25842
#
# Velocity S-wave (km/s) = 2.08146 3.36942 2.80049
# Velocity P-wave (km/s) = 6.73758 7.60346 7.18358
#
# Compressibility (1/GPa) = 0.01388354
#
# Stress axis : x y z
#
# Youngs Moduli (GPa) = 88.07156 88.07156 73.48344
#
# Poissons Ratio (x) = 0.47423 0.21429
# Poissons Ratio (y) = 0.47423 0.21429
# Poissons Ratio (z) = 0.25683 0.25683
#
# Static dielectric constant tensor:
#      x y z
#    x 1.671660 0.000000 0.000000 
#    y 0.000000 1.671660 0.000000 
#    z 0.000000 0.000000 1.610320 
# 
# From -- ./inp_files/2891.got.cif
#   From: 2010.05.17/outbox.cif.g08.bks.cpg/sg191_2_cif.got.tgz:2891.got - 2010.05.20 12:20:32.
