data_PCOD9587798
_publ_section_title
;
Structure prediction by ZEFSAII (Michael W. Deem and Ramdas Pophale) SiO2 
 PCOD9587798
Probable space group: P 6/M M M
;
_chemical_formula_sum "Si O2"
_cell_formula_units_Z 132
_cell_length_a 17.842602
_cell_length_b 17.842602
_cell_length_c 29.484426
_cell_angle_alpha 90.000000
_cell_angle_beta 90.000000
_cell_angle_gamma 120.000000
_cell_volume 8129.047952
_symmetry_space_group_name_H-M "P 6/M M M"
_symmetry_group_IT_number 191
_symmetry_cell_setting 'hexagonal'
loop_
_space_group_symop_operation_xyz
x,y,z
x-y,x,z
-y,x-y,z
-x,-y,z
-x+y,-x,z
y,-x+y,z
x-y,-y,-z
-x,-x+y,-z
y,x,-z
-y,-x,-z
-x+y,y,-z
x,x-y,-z
-x,-y,-z
-x+y,-x,-z
y,-x+y,-z
x,y,-z
x-y,x,-z
-y,x-y,-z
-x+y,y,z
x,x-y,z
-y,-x,z
y,x,z
x-y,-y,z
-x,-x+y,z
loop_
_atom_site_type_symbol
_atom_site_label
_atom_site_fract_x
_atom_site_fract_y
_atom_site_fract_z
Si Si1 0.268777 0.369119 0.763497
Si Si2 0.533220 0.894855 0.852346
Si Si3 0.641850 0.101936 0.048943
Si Si4 0.489622 0.332524 0.500000
Si Si5 0.510449 0.843151 0.676728
Si Si6 0.629088 0.727433 0.411671
O O1 0.167562 0.335124 0.757158
O O2 0.296764 0.296764 0.765507
O O3 0.300264 0.424761 0.809709
O O4 0.318180 0.433082 0.721701
O O5 0.432328 0.864655 0.845177
O O6 0.545906 0.863703 0.901742
O O7 0.582588 0.000000 0.854964
O O8 0.553126 0.106252 0.049790
O O9 0.610616 0.000000 0.048146
O O10 0.684421 0.138711 0.000000
O O11 0.573266 0.426735 0.500000
O O12 0.516723 0.258362 0.500000
O O13 0.431210 0.315475 0.455573
O O14 0.426534 0.853068 0.675411
O O15 0.484527 0.742264 0.676870
O O16 0.570575 0.885034 0.632881
O O17 0.656804 0.828402 0.411938
O O18 0.705861 0.705861 0.412043
#
# Coordination Sequence:
#
# PCOD9587798 Si02
#       6
#    24  24  24  12  24  24
#     4  10  20  32  46  64  86 114 148 187 230 272
#     4   8  13  22  38  60  84 109 137 168 204 252
#     4   7   9  14  27  50  79 107 133 162 197 239
#     4  10  20  33  50  73 102 134 165 196 232 277
#     4  10  20  33  50  73 101 130 156 181 212 255
#     4  10  21  35  51  72  97 127 162 201 243 281
#
# _framework density 16.238064000000001
#
# number of rings (size 3 to 8) (size 9 to 14) (size 15 to 20)
#    0.000    2.909    0.000    3.818    0.000    3.636 
#    0.000    1.818    0.000    1.273    0.000    0.000 
#    0.000    6.545    0.000    0.000    0.000    0.727 
#
# Total GULP energy -735166.211550 kJ/mol
# GULP energy per Si atom -5569.440997 kJ/mol
# Density = 1.620111 g / cm^3
# Si number density = 16.238064 Si / 1000 Ang^3
#
#
#
# Elastic Constant Matrix: (Units=GPa)
#
#
# Indices 1 2 3 4 5 6 
#
# 1 78.7654 65.3610 38.3142 0.0000 0.0000 0.0000
# 2 65.3610 78.7654 38.3142 0.0000 0.0000 0.0000
# 3 38.3142 38.3142 150.1805 0.0000 0.0000 0.0000
# 4 0.0000 0.0000 0.0000 21.0261 0.0000 0.0000
# 5 0.0000 0.0000 0.0000 0.0000 21.0261 0.0000
# 6 0.0000 0.0000 0.0000 0.0000 0.0000 6.7022
#
#
#
# Elastic Compliance Matrix: (Units=1/GPa)
#
#
# Indices 1 2 3 4 5 6 
#
# 1 0.041315 -0.033288 -0.002048 0.000000 0.000000 0.000000
# 2 -0.033288 0.041315 -0.002048 0.000000 0.000000 0.000000
# 3 -0.002048 -0.002048 0.007704 0.000000 0.000000 0.000000
# 4 0.000000 0.000000 0.000000 0.047560 0.000000 0.000000
# 5 0.000000 0.000000 0.000000 0.000000 0.047560 0.000000
# 6 0.000000 0.000000 0.000000 0.000000 0.000000 0.149204
#
#
# Mechanical properties :
#
#
# Convention : Reuss Voigt Hill
#
# Bulk Modulus (GPa) = 64.24129 65.74338 64.99233
# Shear Modulus (GPa) = 12.05945 20.79902 16.42924
#
# Velocity S-wave (km/s) = 2.72815 3.58282 3.18429
# Velocity P-wave (km/s) = 7.04072 7.59543 7.32333
#
# Compressibility (1/GPa) = 0.01556631
#
# Stress axis : x y z
#
# Youngs Moduli (GPa) = 24.20447 24.20447 129.80981
#
# Poissons Ratio (x) = 0.80571 0.26584
# Poissons Ratio (y) = 0.80571 0.26584
# Poissons Ratio (z) = 0.04957 0.04957
#
# Static dielectric constant tensor:
#      x y z
#    x 1.526840 0.000000 0.000000 
#    y 0.000000 1.526840 0.000000 
#    z 0.000000 0.000000 1.585460 
# 
# From -- ./inp_files/9810.got.cif
#   From: 2010.05.17/outbox.cif.g08.bks.cpg/sg191_5_cif.got.tgz:9810.got - 2010.05.20 12:20:32.
