data_PCOD9587263
_publ_section_title
;
Structure prediction by ZEFSAII (Michael W. Deem and Ramdas Pophale) SiO2 
 PCOD9587263
Probable space group: P 6/M M M
;
_chemical_formula_sum "Si O2"
_cell_formula_units_Z 96
_cell_length_a 23.358498
_cell_length_b 23.358498
_cell_length_c 11.685177
_cell_angle_alpha 90.000000
_cell_angle_beta 90.000000
_cell_angle_gamma 120.000000
_cell_volume 5521.483180
_symmetry_space_group_name_H-M "P 6/M M M"
_symmetry_group_IT_number 191
_symmetry_cell_setting 'hexagonal'
loop_
_space_group_symop_operation_xyz
x,y,z
x-y,x,z
-y,x-y,z
-x,-y,z
-x+y,-x,z
y,-x+y,z
x-y,-y,-z
-x,-x+y,-z
y,x,-z
-y,-x,-z
-x+y,y,-z
x,x-y,-z
-x,-y,-z
-x+y,-x,-z
y,-x+y,-z
x,y,-z
x-y,x,-z
-y,x-y,-z
-x+y,y,z
x,x-y,z
-y,-x,z
y,x,z
x-y,-y,z
-x,-x+y,z
loop_
_atom_site_type_symbol
_atom_site_label
_atom_site_fract_x
_atom_site_fract_y
_atom_site_fract_z
Si Si1 0.764593 0.692999 0.000000
Si Si2 0.392360 0.921625 0.205887
Si Si3 0.163413 0.460284 0.000000
Si Si4 0.073919 0.270810 0.743338
Si Si5 0.272635 0.856475 0.636090
O O1 0.747685 0.618681 0.000000
O O2 0.800012 0.725965 0.118293
O O3 0.698319 0.698319 0.000000
O O4 0.460343 0.920685 0.211199
O O5 0.346893 0.890549 0.317562
O O6 0.414784 0.000000 0.188586
O O7 0.345624 0.870407 0.107895
O O8 0.242943 0.485886 0.000000
O O9 0.123043 0.246086 0.704744
O O10 0.104215 0.345334 0.698395
O O11 0.000000 0.227335 0.702326
O O12 0.271411 0.863363 0.500000
O O13 0.221317 0.778684 0.663830
#
# Coordination Sequence:
#
# PCOD9587263 Si02
#       5
#    12  24  12  24  24
#     4  10  18  29  49  77 106 131 164 209 258 308
#     4  11  23  37  55  81 111 141 173 213 265 323
#     4  12  21  34  56  79 106 139 176 211 256 312
#     4  10  19  31  49  75 105 136 171 212 257 304
#     4  10  21  37  56  78 104 136 175 217 262 312
#
# _framework density 17.386631999999999
#
# number of rings (size 3 to 8) (size 9 to 14) (size 15 to 20)
#    0.000    1.500    2.500    4.125    0.000    3.500 
#    0.000    1.250    0.000    7.250    0.000    0.000 
#    0.000    3.000    0.000    6.250    0.000    0.000 
#
# Total GULP energy -534803.324850 kJ/mol
# GULP energy per Si atom -5570.867967 kJ/mol
# Density = 1.734706 g / cm^3
# Si number density = 17.386632 Si / 1000 Ang^3
#
#
#
# Elastic Constant Matrix: (Units=GPa)
#
#
# Indices 1 2 3 4 5 6 
#
# 1 99.7940 50.1969 21.9885 0.0000 0.0000 0.0000
# 2 50.1969 99.7940 21.9885 0.0000 0.0000 0.0000
# 3 21.9885 21.9885 66.6707 0.0000 0.0000 0.0000
# 4 0.0000 0.0000 0.0000 31.9914 0.0000 0.0000
# 5 0.0000 0.0000 0.0000 0.0000 31.9914 0.0000
# 6 0.0000 0.0000 0.0000 0.0000 0.0000 24.7986
#
#
#
# Elastic Compliance Matrix: (Units=1/GPa)
#
#
# Indices 1 2 3 4 5 6 
#
# 1 0.013772 -0.006391 -0.002434 0.000000 0.000000 0.000000
# 2 -0.006391 0.013772 -0.002434 0.000000 0.000000 0.000000
# 3 -0.002434 -0.002434 0.016605 0.000000 0.000000 0.000000
# 4 0.000000 0.000000 0.000000 0.031258 0.000000 0.000000
# 5 0.000000 0.000000 0.000000 0.000000 0.031258 0.000000
# 6 0.000000 0.000000 0.000000 0.000000 0.000000 0.040325
#
#
# Mechanical properties :
#
#
# Convention : Reuss Voigt Hill
#
# Bulk Modulus (GPa) = 46.23346 50.51185 48.37265
# Shear Modulus (GPa) = 28.29364 29.22859 28.76112
#
# Velocity S-wave (km/s) = 4.03838 4.10456 4.07161
# Velocity P-wave (km/s) = 6.95657 7.18181 7.07009
#
# Compressibility (1/GPa) = 0.02162936
#
# Stress axis : x y z
#
# Youngs Moduli (GPa) = 72.61309 72.61309 60.22369
#
# Poissons Ratio (x) = 0.46406 0.14660
# Poissons Ratio (y) = 0.46406 0.14660
# Poissons Ratio (z) = 0.17676 0.17676
#
# Static dielectric constant tensor:
#      x y z
#    x 1.610690 0.000000 0.000000 
#    y 0.000000 1.610690 0.000000 
#    z 0.000000 0.000000 1.635920 
# 
# From -- ./inp_files/2799.got.cif
#   From: 2010.05.17/outbox.cif.g08.bks.cpg/sg191_2_cif.got.tgz:2799.got - 2010.05.20 12:20:32.
