data_PCOD9587895
_publ_section_title
;
Structure prediction by ZEFSAII (Michael W. Deem and Ramdas Pophale) SiO2 
 PCOD9587895
Probable space group: P 6/M M M
;
_chemical_formula_sum "Si O2"
_cell_formula_units_Z 168
_cell_length_a 18.195685
_cell_length_b 18.195685
_cell_length_c 36.159957
_cell_angle_alpha 90.000000
_cell_angle_beta 90.000000
_cell_angle_gamma 120.000000
_cell_volume 10368.008789
_symmetry_space_group_name_H-M "P 6/M M M"
_symmetry_group_IT_number 191
_symmetry_cell_setting 'hexagonal'
loop_
_space_group_symop_operation_xyz
x,y,z
x-y,x,z
-y,x-y,z
-x,-y,z
-x+y,-x,z
y,-x+y,z
x-y,-y,-z
-x,-x+y,-z
y,x,-z
-y,-x,-z
-x+y,y,-z
x,x-y,-z
-x,-y,-z
-x+y,-x,-z
y,-x+y,-z
x,y,-z
x-y,x,-z
-y,x-y,-z
-x+y,y,z
x,x-y,z
-y,-x,z
y,x,z
x-y,-y,z
-x,-x+y,z
loop_
_atom_site_type_symbol
_atom_site_label
_atom_site_fract_x
_atom_site_fract_y
_atom_site_fract_z
Si Si1 0.332925 0.839559 0.743561
Si Si2 0.364443 0.266930 0.808565
Si Si3 0.532516 0.896872 0.958977
Si Si4 0.097284 0.731587 0.324919
Si Si5 0.160744 0.667075 0.393245
Si Si6 0.902141 0.643456 0.893978
Si Si7 0.264685 0.361388 0.456238
O O1 0.424686 0.849372 0.739475
O O2 0.259289 0.740712 0.742561
O O3 0.321725 0.878524 0.781687
O O4 0.310509 0.884579 0.710654
O O5 0.337343 0.168672 0.801430
O O6 0.292706 0.292706 0.801972
O O7 0.388854 0.284107 0.851888
O O8 0.434038 0.868075 0.954539
O O9 0.570542 0.872707 0.924596
O O10 0.582638 0.000000 0.958987
O O11 0.545501 0.870630 0.000000
O O12 0.169013 0.830988 0.324833
O O13 0.115401 0.689845 0.360617
O O14 0.000000 0.708300 0.324859
O O15 0.150383 0.575192 0.389018
O O16 0.259679 0.740322 0.392011
O O17 0.122479 0.678617 0.431502
O O18 0.841485 0.682970 0.896440
O O19 0.000000 0.710152 0.900810
O O20 0.278124 0.380207 0.500000
O O21 0.167252 0.334503 0.447830
O O22 0.291042 0.291042 0.447888
#
# Coordination Sequence:
#
# PCOD9587895 Si02
#       7
#    24  24  24  24  24  24  24
#     4  10  20  33  49  70  97 127 156 185 220 264
#     4   9  18  31  46  65  89 118 151 188 230 271
#     4   8  14  25  41  61  84 109 138 174 216 260
#     4  10  21  35  51  72  97 125 156 192 234 275
#     4  10  20  33  49  70  97 128 160 193 230 272
#     4   9  17  29  45  65  89 117 150 187 226 268
#     4   9  18  32  49  69  93 122 156 194 237 282
#
# _framework density 16.203689000000001
#
# number of rings (size 3 to 8) (size 9 to 14) (size 15 to 20)
#    0.000    2.714    0.000    2.000    0.000    4.000 
#    0.000    3.571    0.000    1.714    0.000    3.000 
#    0.000    6.857    0.000    3.857    0.000    4.286 
#
# Total GULP energy -935831.654345 kJ/mol
# GULP energy per Si atom -5570.426514 kJ/mol
# Density = 1.616681 g / cm^3
# Si number density = 16.203689 Si / 1000 Ang^3
#
#
#
# Elastic Constant Matrix: (Units=GPa)
#
#
# Indices 1 2 3 4 5 6 
#
# 1 88.5154 68.3180 42.4266 0.0000 0.0000 0.0000
# 2 68.3180 88.5154 42.4266 0.0000 0.0000 0.0000
# 3 42.4266 42.4266 65.3964 0.0000 0.0000 0.0000
# 4 0.0000 0.0000 0.0000 19.5193 0.0000 0.0000
# 5 0.0000 0.0000 0.0000 0.0000 19.5193 0.0000
# 6 0.0000 0.0000 0.0000 0.0000 0.0000 10.0987
#
#
#
# Elastic Compliance Matrix: (Units=1/GPa)
#
#
# Indices 1 2 3 4 5 6 
#
# 1 0.029668 -0.019843 -0.006374 0.000000 0.000000 0.000000
# 2 -0.019843 0.029668 -0.006374 0.000000 0.000000 0.000000
# 3 -0.006374 -0.006374 0.023562 0.000000 0.000000 0.000000
# 4 0.000000 0.000000 0.000000 0.051231 0.000000 0.000000
# 5 0.000000 0.000000 0.000000 0.000000 0.051231 0.000000
# 6 0.000000 0.000000 0.000000 0.000000 0.000000 0.099022
#
#
# Mechanical properties :
#
#
# Convention : Reuss Voigt Hill
#
# Bulk Modulus (GPa) = 56.44774 60.97438 58.71106
# Shear Modulus (GPa) = 14.06590 15.77789 14.92189
#
# Velocity S-wave (km/s) = 2.94950 3.12384 3.03792
# Velocity P-wave (km/s) = 6.81992 7.12199 6.97259
#
# Compressibility (1/GPa) = 0.01771550
#
# Stress axis : x y z
#
# Youngs Moduli (GPa) = 33.70640 33.70640 42.44196
#
# Poissons Ratio (x) = 0.66884 0.27052
# Poissons Ratio (y) = 0.66884 0.27052
# Poissons Ratio (z) = 0.21484 0.21484
#
# Static dielectric constant tensor:
#      x y z
#    x 1.530890 0.000000 0.000000 
#    y 0.000000 1.530890 0.000000 
#    z 0.000000 0.000000 1.567390 
# 
# From -- ./inp_files/10763.got.cif
#   From: 2010.05.17/outbox.cif.g08.bks.cpg/sg191_6_cif.got.tgz:10763.got - 2010.05.20 12:20:32.
