data_PCOD9587610
_publ_section_title
;
Structure prediction by ZEFSAII (Michael W. Deem and Ramdas Pophale) SiO2 
 PCOD9587610
Probable space group: P 6/M M M
;
_chemical_formula_sum "Si O2"
_cell_formula_units_Z 132
_cell_length_a 18.058971
_cell_length_b 18.058971
_cell_length_c 30.734389
_cell_angle_alpha 90.000000
_cell_angle_beta 90.000000
_cell_angle_gamma 120.000000
_cell_volume 8680.429548
_symmetry_space_group_name_H-M "P 6/M M M"
_symmetry_group_IT_number 191
_symmetry_cell_setting 'hexagonal'
loop_
_space_group_symop_operation_xyz
x,y,z
x-y,x,z
-y,x-y,z
-x,-y,z
-x+y,-x,z
y,-x+y,z
x-y,-y,-z
-x,-x+y,-z
y,x,-z
-y,-x,-z
-x+y,y,-z
x,x-y,-z
-x,-y,-z
-x+y,-x,-z
y,-x+y,-z
x,y,-z
x-y,x,-z
-y,x-y,-z
-x+y,y,z
x,x-y,z
-y,-x,z
y,x,z
x-y,-y,z
-x,-x+y,z
loop_
_atom_site_type_symbol
_atom_site_label
_atom_site_fract_x
_atom_site_fract_y
_atom_site_fract_z
Si Si1 0.841610 0.508571 0.276831
Si Si2 0.489304 0.332056 0.111921
Si Si3 0.589583 0.000000 0.049518
Si Si4 0.270431 0.901696 0.804046
Si Si5 0.359291 0.265044 0.549121
Si Si6 0.508431 0.666437 0.375627
O O1 0.742167 0.484333 0.274234
O O2 0.849119 0.424560 0.269026
O O3 0.890271 0.580495 0.240867
O O4 0.871323 0.539523 0.326216
O O5 0.499224 0.249612 0.102505
O O6 0.581721 0.418280 0.114667
O O7 0.433185 0.347507 0.075981
O O8 0.437977 0.313935 0.157211
O O9 0.500000 0.000000 0.048010
O O10 0.617311 0.000000 0.000000
O O11 0.169911 0.830090 0.804648
O O12 0.295801 0.000000 0.809250
O O13 0.395729 0.291373 0.500000
O O14 0.336372 0.168186 0.555046
O O15 0.279585 0.279585 0.552024
O O16 0.425659 0.319446 0.586518
O O17 0.490693 0.745346 0.378989
O O18 0.421801 0.578200 0.381221
#
# Coordination Sequence:
#
# PCOD9587610 Si02
#       6
#    24  24  12  24  24  24
#     4   9  17  28  44  66  94 126 157 187 219 258
#     4  10  19  31  48  70  97 128 162 198 236 279
#     4   9  18  32  48  66  92 126 161 199 238 272
#     4  10  20  33  49  69  93 122 154 190 232 278
#     4   9  18  32  48  64  83 109 142 181 226 274
#     4   9  17  29  44  64  91 123 156 187 218 254
#
# _framework density 15.206619999999999
#
# number of rings (size 3 to 8) (size 9 to 14) (size 15 to 20)
#    0.000    2.636    0.909    1.091    0.000    4.364 
#    0.000    4.545    0.000    2.545    0.000    1.273 
#    0.000    0.000    0.000    9.091    0.000   13.000 
#
# Total GULP energy -735317.826745 kJ/mol
# GULP energy per Si atom -5570.589597 kJ/mol
# Density = 1.517201 g / cm^3
# Si number density = 15.206620 Si / 1000 Ang^3
#
#
#
# Elastic Constant Matrix: (Units=GPa)
#
#
# Indices 1 2 3 4 5 6 
#
# 1 70.8168 64.9061 53.8539 0.0000 0.0000 0.0000
# 2 64.9061 70.8168 53.8539 0.0000 0.0000 0.0000
# 3 53.8539 53.8539 104.8823 0.0000 0.0000 0.0000
# 4 0.0000 0.0000 0.0000 18.9024 0.0000 0.0000
# 5 0.0000 0.0000 0.0000 0.0000 18.9024 0.0000
# 6 0.0000 0.0000 0.0000 0.0000 0.0000 2.9553
#
#
#
# Elastic Compliance Matrix: (Units=1/GPa)
#
#
# Indices 1 2 3 4 5 6 
#
# 1 0.090810 -0.078375 -0.006385 0.000000 0.000000 0.000000
# 2 -0.078375 0.090810 -0.006385 0.000000 0.000000 0.000000
# 3 -0.006385 -0.006385 0.016092 0.000000 0.000000 0.000000
# 4 0.000000 0.000000 0.000000 0.052903 0.000000 0.000000
# 5 0.000000 0.000000 0.000000 0.000000 0.052903 0.000000
# 6 0.000000 0.000000 0.000000 0.000000 0.000000 0.338370
#
#
# Mechanical properties :
#
#
# Convention : Reuss Voigt Hill
#
# Bulk Modulus (GPa) = 64.84447 65.74928 65.29688
# Shear Modulus (GPa) = 6.02905 13.07883 9.55394
#
# Velocity S-wave (km/s) = 1.99333 2.93588 2.50926
# Velocity P-wave (km/s) = 6.93056 7.40430 7.17134
#
# Compressibility (1/GPa) = 0.01542152
#
# Stress axis : x y z
#
# Youngs Moduli (GPa) = 11.01202 11.01202 62.14461
#
# Poissons Ratio (x) = 0.86307 0.39679
# Poissons Ratio (y) = 0.86307 0.39679
# Poissons Ratio (z) = 0.07031 0.07031
#
# Static dielectric constant tensor:
#      x y z
#    x 1.487310 0.000000 0.000000 
#    y 0.000000 1.487310 0.000000 
#    z 0.000000 0.000000 1.525790 
# 
# From -- ./inp_files/8704.got.cif
#   From: 2010.05.17/outbox.cif.g08.bks.cpg/sg191_5_cif.got.tgz:8704.got - 2010.05.20 12:20:32.
