data_PCOD9587850
_publ_section_title
;
Structure prediction by ZEFSAII (Michael W. Deem and Ramdas Pophale) SiO2 
 PCOD9587850
Probable space group: P 6/M M M
;
_chemical_formula_sum "Si O2"
_cell_formula_units_Z 132
_cell_length_a 18.334956
_cell_length_b 18.334956
_cell_length_c 28.014481
_cell_angle_alpha 90.000000
_cell_angle_beta 90.000000
_cell_angle_gamma 120.000000
_cell_volume 8155.919995
_symmetry_space_group_name_H-M "P 6/M M M"
_symmetry_group_IT_number 191
_symmetry_cell_setting 'hexagonal'
loop_
_space_group_symop_operation_xyz
x,y,z
x-y,x,z
-y,x-y,z
-x,-y,z
-x+y,-x,z
y,-x+y,z
x-y,-y,-z
-x,-x+y,-z
y,x,-z
-y,-x,-z
-x+y,y,-z
x,x-y,-z
-x,-y,-z
-x+y,-x,-z
y,-x+y,-z
x,y,-z
x-y,x,-z
-y,x-y,-z
-x+y,y,z
x,x-y,z
-y,-x,z
y,x,z
x-y,-y,z
-x,-x+y,z
loop_
_atom_site_type_symbol
_atom_site_label
_atom_site_fract_x
_atom_site_fract_y
_atom_site_fract_z
Si Si1 0.358689 0.097334 0.692075
Si Si2 0.366959 0.898284 0.224734
Si Si3 0.161486 0.666791 0.500000
Si Si4 0.736020 0.097747 0.136719
Si Si5 0.665939 0.503226 0.055956
Si Si6 0.357508 0.095453 0.420028
O O1 0.326817 0.163409 0.700652
O O2 0.438279 0.122876 0.726108
O O3 0.380303 0.101976 0.636029
O O4 0.290886 0.000000 0.702812
O O5 0.432138 0.864275 0.221110
O O6 0.304003 0.876496 0.180578
O O7 0.423045 0.000000 0.223717
O O8 0.258655 0.741346 0.500000
O O9 0.153479 0.576740 0.500000
O O10 0.118588 0.682206 0.453880
O O11 0.835138 0.164863 0.134968
O O12 0.693015 0.109836 0.089423
O O13 0.708338 0.000000 0.142312
O O14 0.739914 0.479827 0.061053
O O15 0.576056 0.423945 0.069500
O O16 0.662605 0.521763 0.000000
O O17 0.330943 0.165472 0.429830
O O18 0.285961 0.000000 0.429393
#
# Coordination Sequence:
#
# PCOD9587850 Si02
#       6
#    24  24  12  24  24  24
#     4   9  17  30  48  69  93 122 156 192 230 271
#     4   9  17  29  46  68  92 117 146 181 220 263
#     4  10  20  33  48  67  92 120 149 182 224 273
#     4  10  20  33  49  69  93 121 154 192 233 275
#     4   9  17  29  46  69  97 127 156 186 223 269
#     4   9  18  31  47  68  93 121 153 190 231 272
#
# _framework density 16.184562
#
# number of rings (size 3 to 8) (size 9 to 14) (size 15 to 20)
#    0.000    2.727    0.000    1.636    0.000    3.636 
#    0.000    2.727    0.000    4.545    0.000    2.545 
#    0.000    6.545    0.000    4.909    0.000    0.000 
#
# Total GULP energy -735352.473172 kJ/mol
# GULP energy per Si atom -5570.852069 kJ/mol
# Density = 1.614773 g / cm^3
# Si number density = 16.184562 Si / 1000 Ang^3
#
#
#
# Elastic Constant Matrix: (Units=GPa)
#
#
# Indices 1 2 3 4 5 6 
#
# 1 89.2678 64.9840 42.0319 0.0000 0.0000 0.0000
# 2 64.9840 89.2678 42.0319 0.0000 0.0000 0.0000
# 3 42.0319 42.0319 55.2510 0.0000 0.0000 0.0000
# 4 0.0000 0.0000 0.0000 20.1939 0.0000 0.0000
# 5 0.0000 0.0000 0.0000 0.0000 20.1939 0.0000
# 6 0.0000 0.0000 0.0000 0.0000 0.0000 12.1419
#
#
#
# Elastic Compliance Matrix: (Units=1/GPa)
#
#
# Indices 1 2 3 4 5 6 
#
# 1 0.026127 -0.015053 -0.008425 0.000000 0.000000 0.000000
# 2 -0.015053 0.026127 -0.008425 0.000000 0.000000 0.000000
# 3 -0.008425 -0.008425 0.030917 0.000000 0.000000 0.000000
# 4 0.000000 0.000000 0.000000 0.049520 0.000000 0.000000
# 5 0.000000 0.000000 0.000000 0.000000 0.049520 0.000000
# 6 0.000000 0.000000 0.000000 0.000000 0.000000 0.082359
#
#
# Mechanical properties :
#
#
# Convention : Reuss Voigt Hill
#
# Bulk Modulus (GPa) = 51.63406 59.09801 55.36604
# Shear Modulus (GPa) = 14.93298 16.15520 15.54409
#
# Velocity S-wave (km/s) = 3.04084 3.16283 3.10244
# Velocity P-wave (km/s) = 6.65594 7.06628 6.86418
#
# Compressibility (1/GPa) = 0.01936706
#
# Stress axis : x y z
#
# Youngs Moduli (GPa) = 38.27482 38.27482 32.34459
#
# Poissons Ratio (x) = 0.57614 0.27249
# Poissons Ratio (y) = 0.57614 0.27249
# Poissons Ratio (z) = 0.32245 0.32245
#
# Static dielectric constant tensor:
#      x y z
#    x 1.534110 0.000000 0.000000 
#    y 0.000000 1.534110 0.000000 
#    z 0.000000 0.000000 1.561350 
# 
# From -- ./inp_files/9799.got.cif
#   From: 2010.05.17/outbox.cif.g08.bks.cpg/sg191_5_cif.got.tgz:9799.got - 2010.05.20 12:20:32.
