data_PCOD9587155
_publ_section_title
;
Structure prediction by ZEFSAII (Michael W. Deem and Ramdas Pophale) SiO2 
 PCOD9587155
Probable space group: P 6/M M M
;
_chemical_formula_sum "Si O2"
_cell_formula_units_Z 144
_cell_length_a 22.213511
_cell_length_b 22.213511
_cell_length_c 19.882655
_cell_angle_alpha 90.000000
_cell_angle_beta 90.000000
_cell_angle_gamma 120.000000
_cell_volume 8496.487503
_symmetry_space_group_name_H-M "P 6/M M M"
_symmetry_group_IT_number 191
_symmetry_cell_setting 'hexagonal'
loop_
_space_group_symop_operation_xyz
x,y,z
x-y,x,z
-y,x-y,z
-x,-y,z
-x+y,-x,z
y,-x+y,z
x-y,-y,-z
-x,-x+y,-z
y,x,-z
-y,-x,-z
-x+y,y,-z
x,x-y,-z
-x,-y,-z
-x+y,-x,-z
y,-x+y,-z
x,y,-z
x-y,x,-z
-y,x-y,-z
-x+y,y,z
x,x-y,z
-y,-x,z
y,x,z
x-y,-y,z
-x,-x+y,z
loop_
_atom_site_type_symbol
_atom_site_label
_atom_site_fract_x
_atom_site_fract_y
_atom_site_fract_z
Si Si1 0.161541 0.459533 0.079400
Si Si2 0.612382 0.918951 0.372051
Si Si3 0.210328 0.922075 0.267785
Si Si4 0.528342 0.194350 0.580559
Si Si5 0.216684 0.296488 0.106094
Si Si6 0.541053 0.082105 0.082321
Si Si7 0.781117 0.081086 0.500000
O O1 0.236843 0.473685 0.107061
O O2 0.109400 0.376636 0.086183
O O3 0.123953 0.501656 0.104859
O O4 0.172382 0.475224 0.000000
O O5 0.639892 0.901818 0.304279
O O6 0.531418 0.872136 0.383042
O O7 0.652194 0.906953 0.434427
O O8 0.637443 0.000000 0.371922
O O9 0.132651 0.867350 0.287946
O O10 0.215936 0.921181 0.187493
O O11 0.234948 0.000000 0.290294
O O12 0.519176 0.183289 0.500000
O O13 0.604329 0.208657 0.597381
O O14 0.520275 0.260138 0.597029
O O15 0.138582 0.277164 0.084351
O O16 0.247027 0.247027 0.083377
O O17 0.500000 0.000000 0.102577
O O18 0.540684 0.081367 0.000000
O O19 0.862079 0.137921 0.500000
O O20 0.759171 0.000000 0.500000
#
# Coordination Sequence:
#
# PCOD9587155 Si02
#       7
#    24  24  24  24  24  12  12
#     4   9  17  29  45  68  94 118 148 185 226 267
#     4  10  19  30  46  67  87 109 139 179 223 261
#     4   9  17  29  46  66  88 115 146 179 217 261
#     4  10  19  30  45  64  88 116 145 176 212 258
#     4   9  17  29  46  67  91 119 150 184 221 263
#     4   9  16  26  42  64  90 120 150 181 221 267
#     4  10  18  28  43  64  87 109 137 173 214 256
#
# _framework density 16.948180000000001
#
# number of rings (size 3 to 8) (size 9 to 14) (size 15 to 20)
#    0.000    2.583    0.833    2.167    0.000    2.000 
#    0.500    0.833    1.833    0.417    0.000    2.333 
#    0.000    4.000    0.000    4.333    0.000    4.667 
#
# Total GULP energy -802127.570958 kJ/mol
# GULP energy per Si atom -5570.330354 kJ/mol
# Density = 1.690960 g / cm^3
# Si number density = 16.948180 Si / 1000 Ang^3
#
#
#
# Elastic Constant Matrix: (Units=GPa)
#
#
# Indices 1 2 3 4 5 6 
#
# 1 69.7609 75.4285 2.1048 0.0000 0.0000 0.0000
# 2 75.4285 69.7609 2.1048 0.0000 0.0000 0.0000
# 3 2.1048 2.1048 18.1671 0.0000 0.0000 0.0000
# 4 0.0000 0.0000 0.0000 12.9653 0.0000 0.0000
# 5 0.0000 0.0000 0.0000 0.0000 12.9653 0.0000
# 6 0.0000 0.0000 0.0000 0.0000 0.0000 -2.8338
#
#
#
# Elastic Compliance Matrix: (Units=1/GPa)
#
#
# Indices 1 2 3 4 5 6 
#
# 1 -0.084765 0.091676 -0.000801 0.000000 0.000000 0.000000
# 2 0.091676 -0.084765 -0.000801 0.000000 0.000000 0.000000
# 3 -0.000801 -0.000801 0.055230 0.000000 0.000000 0.000000
# 4 0.000000 0.000000 0.000000 0.077129 0.000000 0.000000
# 5 0.000000 0.000000 0.000000 0.000000 0.077129 0.000000
# 6 0.000000 0.000000 0.000000 0.000000 0.000000 -0.352882
#
#
# Mechanical properties :
#
#
# Convention : Reuss Voigt Hill
#
# Bulk Modulus (GPa) = 15.18630 35.21836 25.20233
# Shear Modulus (GPa) = -10.61295 9.82272 -0.39512
#
# Velocity S-wave (km/s) = -2.50511 2.41005 -0.48336
# Velocity P-wave (km/s) = 0.78257 5.34505 3.81982
#
# Compressibility (1/GPa) = 0.06584883
#
# Stress axis : x y z
#
# Youngs Moduli (GPa) = -11.79732 -11.79732 18.10610
#
# Poissons Ratio (x) = 1.08153 0.01450
# Poissons Ratio (y) = 1.08153 0.01450
# Poissons Ratio (z) = -0.00945 -0.00945
#
# Static dielectric constant tensor:
#      x y z
#    x 1.573080 0.000000 0.000000 
#    y 0.000000 1.573080 0.000000 
#    z 0.000000 0.000000 1.739630 
# 
# From -- ./inp_files/7682.got.cif
#   From: 2010.05.17/outbox.cif.g08.bks.cpg/sg191_4_cif.got.tgz:7682.got - 2010.05.20 12:20:32.
