data_PCOD9587265
_publ_section_title
;
Structure prediction by ZEFSAII (Michael W. Deem and Ramdas Pophale) SiO2 
 PCOD9587265
Probable space group: P 6/M M M
;
_chemical_formula_sum "Si O2"
_cell_formula_units_Z 168
_cell_length_a 23.593954
_cell_length_b 23.593954
_cell_length_c 20.398943
_cell_angle_alpha 90.000000
_cell_angle_beta 90.000000
_cell_angle_gamma 120.000000
_cell_volume 9834.216224
_symmetry_space_group_name_H-M "P 6/M M M"
_symmetry_group_IT_number 191
_symmetry_cell_setting 'hexagonal'
loop_
_space_group_symop_operation_xyz
x,y,z
x-y,x,z
-y,x-y,z
-x,-y,z
-x+y,-x,z
y,-x+y,z
x-y,-y,-z
-x,-x+y,-z
y,x,-z
-y,-x,-z
-x+y,y,-z
x,x-y,-z
-x,-y,-z
-x+y,-x,-z
y,-x+y,-z
x,y,-z
x-y,x,-z
-y,x-y,-z
-x+y,y,z
x,x-y,z
-y,-x,z
y,x,z
x-y,-y,z
-x,-x+y,z
loop_
_atom_site_type_symbol
_atom_site_label
_atom_site_fract_x
_atom_site_fract_y
_atom_site_fract_z
Si Si1 0.206102 0.282928 0.665372
Si Si2 0.815190 0.312177 0.755136
Si Si3 0.334647 0.799617 0.608049
Si Si4 0.924807 0.605726 0.423106
Si Si5 0.640703 0.925122 0.785097
Si Si6 0.664858 0.203633 0.901328
Si Si7 0.611143 0.873759 0.071142
O O1 0.131629 0.263258 0.650323
O O2 0.227644 0.227644 0.659215
O O3 0.256540 0.343452 0.619398
O O4 0.223877 0.312724 0.738839
O O5 0.765695 0.234306 0.756759
O O6 0.801988 0.336657 0.687561
O O7 0.885232 0.318621 0.759912
O O8 0.800840 0.337631 0.821995
O O9 0.398699 0.797397 0.584403
O O10 0.266158 0.733843 0.589503
O O11 0.334640 0.866120 0.588449
O O12 0.923547 0.619575 0.500000
O O13 0.000000 0.623416 0.408018
O O14 0.642804 0.910923 0.861801
O O15 0.664875 0.000000 0.775657
O O16 0.596691 0.193381 0.925573
O O17 0.724973 0.275028 0.918872
O O18 0.684804 0.151060 0.924175
O O19 0.615010 0.807505 0.072672
O O20 0.636280 0.905993 0.000000
#
# Coordination Sequence:
#
# PCOD9587265 Si02
#       7
#    24  24  24  24  24  24  24
#     4  10  19  33  56  84 111 138 172 213 254 298
#     4   9  17  30  47  67  93 124 158 198 247 302
#     4  11  22  35  53  76 105 139 175 216 264 321
#     4  10  22  39  58  80 105 137 177 220 267 311
#     4  10  18  29  50  75  97 122 160 208 254 298
#     4   9  16  26  42  63  86 112 147 194 246 299
#     4   9  18  31  45  62  89 125 159 192 240 302
#
# _framework density 17.083210999999999
#
# number of rings (size 3 to 8) (size 9 to 14) (size 15 to 20)
#    0.000    2.286    1.429    3.286    0.000    2.286 
#    0.000    2.143    0.000   12.143    0.000    4.000 
#    0.000    0.000    0.000    3.571    0.000    0.000 
#
# Total GULP energy -936140.921160 kJ/mol
# GULP energy per Si atom -5572.267388 kJ/mol
# Density = 1.704433 g / cm^3
# Si number density = 17.083211 Si / 1000 Ang^3
#
#
#
# Elastic Constant Matrix: (Units=GPa)
#
#
# Indices 1 2 3 4 5 6 
#
# 1 94.6733 67.3534 20.5994 0.0000 0.0000 0.0000
# 2 67.3534 94.6733 20.5994 0.0000 0.0000 0.0000
# 3 20.5994 20.5994 86.6914 0.0000 0.0000 0.0000
# 4 0.0000 0.0000 0.0000 0.8444 0.0000 0.0000
# 5 0.0000 0.0000 0.0000 0.0000 0.8444 0.0000
# 6 0.0000 0.0000 0.0000 0.0000 0.0000 13.6600
#
#
#
# Elastic Compliance Matrix: (Units=1/GPa)
#
#
# Indices 1 2 3 4 5 6 
#
# 1 0.021586 -0.015017 -0.001561 0.000000 0.000000 0.000000
# 2 -0.015017 0.021586 -0.001561 0.000000 0.000000 0.000000
# 3 -0.001561 -0.001561 0.012277 0.000000 0.000000 0.000000
# 4 0.000000 0.000000 0.000000 1.184248 0.000000 0.000000
# 5 0.000000 0.000000 0.000000 0.000000 1.184248 0.000000
# 6 0.000000 0.000000 0.000000 0.000000 0.000000 0.073207
#
#
# Mechanical properties :
#
#
# Convention : Reuss Voigt Hill
#
# Bulk Modulus (GPa) = 52.16220 54.79363 53.47791
# Shear Modulus (GPa) = 1.96864 14.23548 8.10206
#
# Velocity S-wave (km/s) = 1.07466 2.88983 2.18014
# Velocity P-wave (km/s) = 5.66924 6.57868 6.14082
#
# Compressibility (1/GPa) = 0.01917097
#
# Stress axis : x y z
#
# Youngs Moduli (GPa) = 46.32627 46.32627 81.45358
#
# Poissons Ratio (x) = 0.69570 0.12714
# Poissons Ratio (y) = 0.69570 0.12714
# Poissons Ratio (z) = 0.07231 0.07231
#
# Static dielectric constant tensor:
#      x y z
#    x 1.571570 0.000000 0.000000 
#    y 0.000000 1.571570 0.000000 
#    z 0.000000 0.000000 1.648340 
# 
# From -- ./inp_files/7975.got.cif
#   From: 2010.05.17/outbox.cif.g08.bks.cpg/sg191_4_cif.got.tgz:7975.got - 2010.05.20 12:20:32.
