data_PCOD9587694
_publ_section_title
;
Structure prediction by ZEFSAII (Michael W. Deem and Ramdas Pophale) SiO2 
 PCOD9587694
Probable space group: P 6/M M M
;
_chemical_formula_sum "Si O2"
_cell_formula_units_Z 156
_cell_length_a 21.935297
_cell_length_b 21.935297
_cell_length_c 23.098596
_cell_angle_alpha 90.000000
_cell_angle_beta 90.000000
_cell_angle_gamma 120.000000
_cell_volume 9625.055730
_symmetry_space_group_name_H-M "P 6/M M M"
_symmetry_group_IT_number 191
_symmetry_cell_setting 'hexagonal'
loop_
_space_group_symop_operation_xyz
x,y,z
x-y,x,z
-y,x-y,z
-x,-y,z
-x+y,-x,z
y,-x+y,z
x-y,-y,-z
-x,-x+y,-z
y,x,-z
-y,-x,-z
-x+y,y,-z
x,x-y,-z
-x,-y,-z
-x+y,-x,-z
y,-x+y,-z
x,y,-z
x-y,x,-z
-y,x-y,-z
-x+y,y,z
x,x-y,z
-y,-x,z
y,x,z
x-y,-y,z
-x,-x+y,z
loop_
_atom_site_type_symbol
_atom_site_label
_atom_site_fract_x
_atom_site_fract_y
_atom_site_fract_z
Si Si1 0.079198 0.292500 0.272235
Si Si2 0.666670 0.185776 0.000000
Si Si3 0.078705 0.782239 0.588107
Si Si4 0.152883 0.447609 0.780650
Si Si5 0.082181 0.641641 0.564980
Si Si6 0.192917 0.665169 0.337348
Si Si7 0.918493 0.385913 0.893591
O O1 0.132610 0.265219 0.257735
O O2 0.080737 0.301521 0.341797
O O3 0.109392 0.368522 0.243771
O O4 0.000000 0.241371 0.253994
O O5 0.656868 0.136402 0.055271
O O6 0.740402 0.259599 0.000000
O O7 0.599528 0.199056 0.000000
O O8 0.142465 0.857536 0.569875
O O9 0.088482 0.718358 0.566231
O O10 0.000000 0.763628 0.571706
O O11 0.230517 0.461034 0.797114
O O12 0.162905 0.497612 0.726247
O O13 0.112158 0.456147 0.834145
O O14 0.099794 0.629172 0.500000
O O15 0.132979 0.642263 0.614324
O O16 0.000000 0.586103 0.576385
O O17 0.220525 0.610263 0.338405
O O18 0.255691 0.744310 0.348618
O O19 0.919575 0.459788 0.889921
O O20 0.000000 0.407157 0.904021
#
# Coordination Sequence:
#
# PCOD9587694 Si02
#       7
#    24  12  24  24  24  24  24
#     4   9  16  27  45  68  94 122 154 193 236 283
#     4  10  20  35  53  73  98 131 170 208 243 282
#     4   9  16  28  46  68  92 119 151 189 234 283
#     4  10  19  32  51  74  98 126 163 205 244 285
#     4  10  21  36  54  74  94 119 156 205 256 300
#     4  11  23  38  54  73  99 131 164 199 241 295
#     4  10  20  33  50  73 101 131 162 199 245 295
#
# _framework density 16.207698000000001
#
# number of rings (size 3 to 8) (size 9 to 14) (size 15 to 20)
#    0.000    2.154    1.538    2.308    0.000    3.385 
#    0.000    0.769    0.000    6.154    0.000    2.154 
#    0.000    0.000    0.000    3.846    0.000    4.000 
#
# Total GULP energy -870242.972940 kJ/mol
# GULP energy per Si atom -5578.480596 kJ/mol
# Density = 1.617081 g / cm^3
# Si number density = 16.207698 Si / 1000 Ang^3
#
#
#
# Elastic Constant Matrix: (Units=GPa)
#
#
# Indices 1 2 3 4 5 6 
#
# 1 77.6693 34.0855 46.4568 0.0000 0.0000 0.0000
# 2 34.0855 77.6693 46.4568 0.0000 0.0000 0.0000
# 3 46.4568 46.4568 96.6387 0.0000 0.0000 0.0000
# 4 0.0000 0.0000 0.0000 -36.2260 0.0000 0.0000
# 5 0.0000 0.0000 0.0000 0.0000 -36.2260 0.0000
# 6 0.0000 0.0000 0.0000 0.0000 0.0000 21.7919
#
#
#
# Elastic Compliance Matrix: (Units=1/GPa)
#
#
# Indices 1 2 3 4 5 6 
#
# 1 0.018925 -0.004019 -0.007166 0.000000 0.000000 0.000000
# 2 -0.004019 0.018925 -0.007166 0.000000 0.000000 0.000000
# 3 -0.007166 -0.007166 0.017237 0.000000 0.000000 0.000000
# 4 0.000000 0.000000 0.000000 -0.027604 0.000000 0.000000
# 5 0.000000 0.000000 0.000000 0.000000 -0.027604 0.000000
# 6 0.000000 0.000000 0.000000 0.000000 0.000000 0.045889
#
#
# Mechanical properties :
#
#
# Convention : Reuss Voigt Hill
#
# Bulk Modulus (GPa) = 54.38841 56.21950 55.30396
# Shear Modulus (GPa) = 56.43581 -1.80014 27.31784
#
# Velocity S-wave (km/s) = 5.90728 -1.05503 4.10992
# Velocity P-wave (km/s) = 8.95310 5.76872 7.53114
#
# Compressibility (1/GPa) = 0.01838627
#
# Stress axis : x y z
#
# Youngs Moduli (GPa) = 52.84028 52.84028 58.01423
#
# Poissons Ratio (x) = 0.21238 0.41570
# Poissons Ratio (y) = 0.21238 0.41570
# Poissons Ratio (z) = 0.37863 0.37863
#
# Static dielectric constant tensor:
#      x y z
#    x 1.539540 0.000000 0.000000 
#    y 0.000000 1.539540 0.000000 
#    z 0.000000 0.000000 1.541590 
# 
# From -- ./inp_files/7734.got.cif
#   From: 2010.05.17/outbox.cif.g08.bks.cpg/sg191_4_cif.got.tgz:7734.got - 2010.05.20 12:20:32.
