data_PCOD9587593
_publ_section_title
;
Structure prediction by ZEFSAII (Michael W. Deem and Ramdas Pophale) SiO2 
 PCOD9587593
Probable space group: P 6/M M M
;
_chemical_formula_sum "Si O2"
_cell_formula_units_Z 168
_cell_length_a 28.246879
_cell_length_b 28.246879
_cell_length_c 16.089227
_cell_angle_alpha 90.000000
_cell_angle_beta 90.000000
_cell_angle_gamma 120.000000
_cell_volume 11117.490063
_symmetry_space_group_name_H-M "P 6/M M M"
_symmetry_group_IT_number 191
_symmetry_cell_setting 'hexagonal'
loop_
_space_group_symop_operation_xyz
x,y,z
x-y,x,z
-y,x-y,z
-x,-y,z
-x+y,-x,z
y,-x+y,z
x-y,-y,-z
-x,-x+y,-z
y,x,-z
-y,-x,-z
-x+y,y,-z
x,x-y,-z
-x,-y,-z
-x+y,-x,-z
y,-x+y,-z
x,y,-z
x-y,x,-z
-y,x-y,-z
-x+y,y,z
x,x-y,z
-y,-x,z
y,x,z
x-y,-y,z
-x,-x+y,z
loop_
_atom_site_type_symbol
_atom_site_label
_atom_site_fract_x
_atom_site_fract_y
_atom_site_fract_z
Si Si1 0.126046 0.873955 0.400155
Si Si2 0.162615 0.222830 0.901009
Si Si3 0.066393 0.587400 0.747589
Si Si4 0.066013 0.650125 0.592008
Si Si5 0.414867 0.350206 0.093987
Si Si6 0.314722 0.065832 0.668436
Si Si7 0.652526 0.770883 0.849150
Si Si8 0.062897 0.937104 0.601472
O O1 0.127029 0.872972 0.500000
O O2 0.187975 0.906654 0.367310
O O3 0.094450 0.905551 0.373198
O O4 0.103918 0.207835 0.865166
O O5 0.189572 0.189572 0.864270
O O6 0.201637 0.287166 0.888709
O O7 0.156523 0.213159 0.000000
O O8 0.085379 0.542690 0.745293
O O9 0.085750 0.627445 0.668113
O O10 0.079555 0.620330 0.833781
O O11 0.000000 0.553390 0.743861
O O12 0.086371 0.647409 0.500000
O O13 0.076382 0.710419 0.611541
O O14 0.000000 0.612172 0.590955
O O15 0.369539 0.369539 0.106058
O O16 0.387080 0.285294 0.104827
O O17 0.436063 0.366342 0.000000
O O18 0.339339 0.094353 0.756367
O O19 0.276663 0.000000 0.677430
O O20 0.635980 0.817990 0.849677
O O21 0.062643 0.937358 0.500000
O O22 0.000000 0.905553 0.628663
#
# Coordination Sequence:
#
# PCOD9587593 Si02
#       8
#    12  24  24  24  24  24  24  12
#     4  11  22  33  44  65  87 111 151 201 255 311
#     4   9  17  28  43  63  84 106 135 176 229 290
#     4   9  17  29  45  67  95 124 156 192 220 248
#     4   9  17  29  46  65  86 119 158 192 227 265
#     4  10  19  31  48  68  93 126 158 189 229 278
#     4  11  20  32  47  63  87 119 154 196 245 298
#     4  11  20  31  46  65  88 116 150 193 238 286
#     4   9  17  30  47  64  82 105 139 191 260 335
#
# _framework density 15.111325000000001
#
# number of rings (size 3 to 8) (size 9 to 14) (size 15 to 20)
#    0.000    2.143    2.143    2.643    0.000    4.286 
#    0.000    2.857    0.000    0.143    0.000    1.000 
#    0.000    0.000    0.000    0.429    0.286    1.857 
#
# Total GULP energy -936424.174888 kJ/mol
# GULP energy per Si atom -5573.953422 kJ/mol
# Density = 1.507693 g / cm^3
# Si number density = 15.111325 Si / 1000 Ang^3
#
#
#
# Elastic Constant Matrix: (Units=GPa)
#
#
# Indices 1 2 3 4 5 6 
#
# 1 79.2611 36.8777 36.1847 0.0000 0.0000 0.0000
# 2 36.8777 79.2611 36.1847 0.0000 0.0000 0.0000
# 3 36.1847 36.1847 92.4849 0.0000 0.0000 0.0000
# 4 0.0000 0.0000 0.0000 14.8236 0.0000 0.0000
# 5 0.0000 0.0000 0.0000 0.0000 14.8236 0.0000
# 6 0.0000 0.0000 0.0000 0.0000 0.0000 21.1917
#
#
#
# Elastic Compliance Matrix: (Units=1/GPa)
#
#
# Indices 1 2 3 4 5 6 
#
# 1 0.017490 -0.006104 -0.004455 0.000000 0.000000 0.000000
# 2 -0.006104 0.017490 -0.004455 0.000000 0.000000 0.000000
# 3 -0.004455 -0.004455 0.014299 0.000000 0.000000 0.000000
# 4 0.000000 0.000000 0.000000 0.067460 0.000000 0.000000
# 5 0.000000 0.000000 0.000000 0.000000 0.067460 0.000000
# 6 0.000000 0.000000 0.000000 0.000000 0.000000 0.047188
#
#
# Mechanical properties :
#
#
# Convention : Reuss Voigt Hill
#
# Bulk Modulus (GPa) = 51.94367 52.16681 52.05524
# Shear Modulus (GPa) = 18.66842 19.61845 19.14344
#
# Velocity S-wave (km/s) = 3.51863 3.60705 3.56311
# Velocity P-wave (km/s) = 7.13837 7.20724 7.17289
#
# Compressibility (1/GPa) = 0.01925163
#
# Stress axis : x y z
#
# Youngs Moduli (GPa) = 57.17477 57.17477 69.93718
#
# Poissons Ratio (x) = 0.34899 0.31156
# Poissons Ratio (y) = 0.34899 0.31156
# Poissons Ratio (z) = 0.25471 0.25471
#
# Static dielectric constant tensor:
#      x y z
#    x 1.489890 0.000000 0.000000 
#    y 0.000000 1.489890 0.000000 
#    z 0.000000 0.000000 1.543520 
# 
# From -- ./inp_files/5357.got.cif
#   From: 2010.05.17/outbox.cif.g08.bks.cpg/sg191_3_cif.got.tgz:5357.got - 2010.05.20 12:20:32.
