data_PCOD9587008
_publ_section_title
;
Structure prediction by ZEFSAII (Michael W. Deem and Ramdas Pophale) SiO2 
 PCOD9587008
Probable space group: P -6 2 C
;
_chemical_formula_sum "Si O2"
_cell_formula_units_Z 84
_cell_length_a 17.661849
_cell_length_b 17.661849
_cell_length_c 14.380727
_cell_angle_alpha 90.000000
_cell_angle_beta 90.000000
_cell_angle_gamma 120.000000
_cell_volume 3884.935461
_symmetry_space_group_name_H-M "P -6 2 C"
_symmetry_group_IT_number 190
_symmetry_cell_setting 'hexagonal'
loop_
_space_group_symop_operation_xyz
x,y,z
-x+y,-x,1/2-z
-y,x-y,z
x,y,1/2-z
-x+y,-x,z
-y,x-y,1/2-z
x-y,-y,-z
-x,-x+y,-z
y,x,-z
y,x,1/2+z
x-y,-y,1/2+z
-x,-x+y,1/2+z
loop_
_atom_site_type_symbol
_atom_site_label
_atom_site_fract_x
_atom_site_fract_y
_atom_site_fract_z
Si Si1 0.283476 0.145061 0.144903
Si Si2 0.822520 0.774868 0.641218
Si Si3 0.636479 0.463581 0.957299
Si Si4 0.238039 0.286005 0.405769
Si Si5 0.029369 0.396224 0.147631
Si Si6 0.485953 0.299779 0.857824
Si Si7 0.712034 0.534033 0.143407
O O1 0.295691 0.121172 0.250000
O O2 0.256620 0.218410 0.150203
O O3 0.381675 0.183795 0.105552
O O4 0.208281 0.051003 0.107517
O O5 0.852090 0.793454 0.750000
O O6 0.893391 0.760584 0.586791
O O7 0.732177 0.683007 0.639027
O O8 0.614945 0.539803 0.936904
O O9 0.550861 0.377122 0.925414
O O10 0.717374 0.492567 0.886654
O O11 0.671434 0.463674 0.060896
O O12 0.286392 0.286392 0.500000
O O13 0.271102 0.383888 0.370701
O O14 0.061174 0.438174 0.250000
O O15 0.925681 0.353948 0.148757
O O16 0.508020 0.323481 0.750000
O O17 0.722795 0.509198 0.250000
#
# Coordination Sequence:
#
# PCOD9587008 Si02
#       7
#    12  12  12  12  12  12  12
#     4   9  19  37  62  90 123 171 226 273 331 398
#     4   9  18  36  61  87 119 169 222 269 325 393
#     4  12  23  41  65  96 124 167 221 273 337 412
#     4  12  24  38  59  94 138 178 220 275 348 411
#     4   9  17  34  64  93 118 156 214 270 318 379
#     4  12  26  43  66  95 134 174 221 288 354 413
#     4   9  20  39  64  94 126 166 217 274 323 392
#
# _framework density 21.621981000000002
#
# number of rings (size 3 to 8) (size 9 to 14) (size 15 to 20)
#    0.000    1.714    1.429    5.857    0.000    1.714 
#    0.857    0.714    0.000    1.714    0.000    0.000 
#    0.000    0.000    0.000    0.000    0.000    0.000 
#
# Total GULP energy -468349.442287 kJ/mol
# GULP energy per Si atom -5575.588599 kJ/mol
# Density = 2.157277 g / cm^3
# Si number density = 21.621981 Si / 1000 Ang^3
#
#
#
# Elastic Constant Matrix: (Units=GPa)
#
#
# Indices 1 2 3 4 5 6 
#
# 1 64.0087 79.8370 30.0642 0.0000 0.0000 0.0000
# 2 79.8370 64.0087 30.0642 0.0000 0.0000 0.0000
# 3 30.0642 30.0642 85.8909 0.0000 0.0000 0.0000
# 4 0.0000 0.0000 0.0000 -256.0057 0.0000 0.0000
# 5 0.0000 0.0000 0.0000 0.0000 -256.0057 0.0000
# 6 0.0000 0.0000 0.0000 0.0000 0.0000 -7.9141
#
#
#
# Elastic Compliance Matrix: (Units=1/GPa)
#
#
# Indices 1 2 3 4 5 6 
#
# 1 -0.027517 0.035661 -0.002850 0.000000 0.000000 0.000000
# 2 0.035661 -0.027517 -0.002850 0.000000 0.000000 0.000000
# 3 -0.002850 -0.002850 0.013638 0.000000 0.000000 0.000000
# 4 0.000000 0.000000 0.000000 -0.003906 0.000000 0.000000
# 5 0.000000 0.000000 0.000000 0.000000 -0.003906 0.000000
# 6 0.000000 0.000000 0.000000 0.000000 0.000000 -0.126356
#
#
# Mechanical properties :
#
#
# Convention : Reuss Voigt Hill
#
# Bulk Modulus (GPa) = 53.98622 54.87103 54.42863
# Shear Modulus (GPa) = -21.80453 -99.05560 -60.43006
#
# Velocity S-wave (km/s) = -3.17904 -6.77583 -5.29236
# Velocity P-wave (km/s) = 3.39814 5.98192 3.48109
#
# Compressibility (1/GPa) = 0.01852324
#
# Stress axis : x y z
#
# Youngs Moduli (GPa) = -36.34076 -36.34076 73.32382
#
# Poissons Ratio (x) = 1.29594 0.20900
# Poissons Ratio (y) = 1.29594 0.20900
# Poissons Ratio (z) = -0.10359 -0.10359
#
# Static dielectric constant tensor:
#      x y z
#    x 1.825700 0.000000 0.000000 
#    y 0.000000 1.825700 0.000000 
#    z 0.000000 0.000000 1.921060 
# 
# From -- ./inp_files/3148.got.cif
#   From: 2010.05.17/outbox.cif.g08.bks.cpg/sg190_2_cif.got.tgz:3148.got - 2010.05.20 12:16:56.
