data_PCOD9587404
_publ_section_title
;
Structure prediction by ZEFSAII (Michael W. Deem and Ramdas Pophale) SiO2 
 PCOD9587404
Probable space group: P 6/M M M
;
_chemical_formula_sum "Si O2"
_cell_formula_units_Z 144
_cell_length_a 20.817427
_cell_length_b 20.817427
_cell_length_c 20.530963
_cell_angle_alpha 90.000000
_cell_angle_beta 90.000000
_cell_angle_gamma 120.000000
_cell_volume 7705.379849
_symmetry_space_group_name_H-M "P 6/M M M"
_symmetry_group_IT_number 191
_symmetry_cell_setting 'hexagonal'
loop_
_space_group_symop_operation_xyz
x,y,z
x-y,x,z
-y,x-y,z
-x,-y,z
-x+y,-x,z
y,-x+y,z
x-y,-y,-z
-x,-x+y,-z
y,x,-z
-y,-x,-z
-x+y,y,-z
x,x-y,-z
-x,-y,-z
-x+y,-x,-z
y,-x+y,-z
x,y,-z
x-y,x,-z
-y,x-y,-z
-x+y,y,z
x,x-y,z
-y,-x,z
y,x,z
x-y,-y,z
-x,-x+y,z
loop_
_atom_site_type_symbol
_atom_site_label
_atom_site_fract_x
_atom_site_fract_y
_atom_site_fract_z
Si Si1 0.475653 0.811011 0.609363
Si Si2 0.087613 0.761702 0.077486
Si Si3 0.089040 0.614587 0.114730
Si Si4 0.695633 0.916350 0.712946
Si Si5 0.689869 0.526008 0.756484
Si Si6 0.641388 0.724297 0.429001
O O1 0.414478 0.828956 0.584190
O O2 0.449842 0.724921 0.601495
O O3 0.488953 0.829358 0.686498
O O4 0.555652 0.857628 0.577267
O O5 0.158221 0.841780 0.101856
O O6 0.107499 0.695454 0.087445
O O7 0.000000 0.727586 0.101178
O O8 0.084288 0.770773 0.000000
O O9 0.110246 0.555123 0.083991
O O10 0.124106 0.632695 0.186540
O O11 0.000000 0.569991 0.117301
O O12 0.726697 0.863349 0.731826
O O13 0.614275 0.883349 0.743435
O O14 0.682291 0.911297 0.634731
O O15 0.746218 0.000000 0.732168
O O16 0.753708 0.507415 0.775791
O O17 0.669324 0.759373 0.500000
O O18 0.654330 0.654330 0.425449
#
# Coordination Sequence:
#
# PCOD9587404 Si02
#       6
#    24  24  24  24  24  24
#     4  10  20  32  45  61  84 114 144 174 211 260
#     4   9  18  33  53  76 102 134 172 212 253 298
#     4  10  19  29  45  71 100 128 159 197 239 284
#     4   9  17  29  46  67  90 116 146 183 227 274
#     4   9  17  30  47  65  87 117 153 191 229 268
#     4   9  18  32  48  64  81 103 136 180 224 262
#
# _framework density 18.688241000000001
#
# number of rings (size 3 to 8) (size 9 to 14) (size 15 to 20)
#    0.000    2.667    0.000    3.167    0.000    3.000 
#    0.000    2.500    0.000    5.000    0.000    1.167 
#    0.000    0.000    0.000    9.500    0.000    3.667 
#
# Total GULP energy -801663.768561 kJ/mol
# GULP energy per Si atom -5567.109504 kJ/mol
# Density = 1.864571 g / cm^3
# Si number density = 18.688241 Si / 1000 Ang^3
#
#
#
# Elastic Constant Matrix: (Units=GPa)
#
#
# Indices 1 2 3 4 5 6 
#
# 1 79.7121 57.3329 3.5835 0.0000 0.0000 0.0000
# 2 57.3329 79.7121 3.5835 0.0000 0.0000 0.0000
# 3 3.5835 3.5835 40.9141 0.0000 0.0000 0.0000
# 4 0.0000 0.0000 0.0000 25.4605 0.0000 0.0000
# 5 0.0000 0.0000 0.0000 0.0000 25.4605 0.0000
# 6 0.0000 0.0000 0.0000 0.0000 0.0000 11.1896
#
#
#
# Elastic Compliance Matrix: (Units=1/GPa)
#
#
# Indices 1 2 3 4 5 6 
#
# 1 0.026007 -0.018677 -0.000642 0.000000 0.000000 0.000000
# 2 -0.018677 0.026007 -0.000642 0.000000 0.000000 0.000000
# 3 -0.000642 -0.000642 0.024554 0.000000 0.000000 0.000000
# 4 0.000000 0.000000 0.000000 0.039277 0.000000 0.000000
# 5 0.000000 0.000000 0.000000 0.000000 0.039277 0.000000
# 6 0.000000 0.000000 0.000000 0.000000 0.000000 0.089369
#
#
# Mechanical properties :
#
#
# Convention : Reuss Voigt Hill
#
# Bulk Modulus (GPa) = 27.28765 36.59314 31.94039
# Shear Modulus (GPa) = 16.85614 21.47802 19.16708
#
# Velocity S-wave (km/s) = 3.00653 3.39378 3.20601
# Velocity P-wave (km/s) = 5.16580 5.91442 5.55274
#
# Compressibility (1/GPa) = 0.03664662
#
# Stress axis : x y z
#
# Youngs Moduli (GPa) = 38.45065 38.45065 40.72674
#
# Poissons Ratio (x) = 0.71814 0.02615
# Poissons Ratio (y) = 0.71814 0.02615
# Poissons Ratio (z) = 0.02469 0.02469
#
# Static dielectric constant tensor:
#      x y z
#    x 1.667800 0.000000 0.000000 
#    y 0.000000 1.667800 0.000000 
#    z 0.000000 0.000000 1.692060 
# 
# From -- ./inp_files/7591.got.cif
#   From: 2010.05.17/outbox.cif.g08.bks.cpg/sg191_4_cif.got.tgz:7591.got - 2010.05.20 12:20:32.
