data_PCOD9587925
_publ_section_title
;
Structure prediction by ZEFSAII (Michael W. Deem and Ramdas Pophale) SiO2 
 PCOD9587925
Probable space group: P 6/M M M
;
_chemical_formula_sum "Si O2"
_cell_formula_units_Z 132
_cell_length_a 17.813765
_cell_length_b 17.813765
_cell_length_c 29.464498
_cell_angle_alpha 90.000000
_cell_angle_beta 90.000000
_cell_angle_gamma 120.000000
_cell_volume 8097.316511
_symmetry_space_group_name_H-M "P 6/M M M"
_symmetry_group_IT_number 191
_symmetry_cell_setting 'hexagonal'
loop_
_space_group_symop_operation_xyz
x,y,z
x-y,x,z
-y,x-y,z
-x,-y,z
-x+y,-x,z
y,-x+y,z
x-y,-y,-z
-x,-x+y,-z
y,x,-z
-y,-x,-z
-x+y,y,-z
x,x-y,-z
-x,-y,-z
-x+y,-x,-z
y,-x+y,-z
x,y,-z
x-y,x,-z
-y,x-y,-z
-x+y,y,z
x,x-y,z
-y,-x,z
y,x,z
x-y,-y,z
-x,-x+y,z
loop_
_atom_site_type_symbol
_atom_site_label
_atom_site_fract_x
_atom_site_fract_y
_atom_site_fract_z
Si Si1 0.271812 0.368828 0.764683
Si Si2 0.512458 0.845789 0.851791
Si Si3 0.666516 0.153561 0.048733
Si Si4 0.467543 0.362919 0.500000
Si Si5 0.510565 0.667289 0.677282
Si Si6 0.629226 0.729857 0.410727
O O1 0.171706 0.343412 0.763709
O O2 0.290382 0.290382 0.761189
O O3 0.313140 0.421514 0.810988
O O4 0.317788 0.433761 0.722642
O O5 0.424427 0.848854 0.845149
O O6 0.491671 0.745836 0.851687
O O7 0.550425 0.884542 0.901766
O O8 0.582966 0.165931 0.049474
O O9 0.753399 0.246601 0.047828
O O10 0.663042 0.110102 0.000000
O O11 0.420693 0.420693 0.500000
O O12 0.569996 0.430005 0.500000
O O13 0.432918 0.306551 0.454650
O O14 0.484439 0.742220 0.677059
O O15 0.426762 0.573239 0.675954
O O16 0.571359 0.685174 0.633683
O O17 0.663941 0.831971 0.407308
O O18 0.701387 0.701387 0.414830
#
# Coordination Sequence:
#
# PCOD9587925 Si02
#       6
#    24  24  24  12  24  24
#     4  10  21  35  50  68  89 115 147 184 227 272
#     4   9  16  25  39  61  90 123 156 187 217 251
#     4   8  12  18  30  50  78 113 152 189 219 246
#     4   9  17  30  49  72  96 122 154 191 231 280
#     4  10  20  33  50  73 101 131 160 189 221 259
#     4  10  20  33  50  72  97 127 163 203 245 285
#
# _framework density 16.301697000000001
#
# number of rings (size 3 to 8) (size 9 to 14) (size 15 to 20)
#    0.000    2.636    0.000    2.455    0.000    5.455 
#    0.000    1.818    0.000    3.455    0.000    2.545 
#    0.000    6.545    0.000    0.000    0.000    0.727 
#
# Total GULP energy -735432.382324 kJ/mol
# GULP energy per Si atom -5571.457442 kJ/mol
# Density = 1.626459 g / cm^3
# Si number density = 16.301697 Si / 1000 Ang^3
#
#
#
# Elastic Constant Matrix: (Units=GPa)
#
#
# Indices 1 2 3 4 5 6 
#
# 1 68.1572 62.2263 36.9658 0.0000 0.0000 0.0000
# 2 62.2263 68.1572 36.9658 0.0000 0.0000 0.0000
# 3 36.9658 36.9658 146.5807 0.0000 0.0000 0.0000
# 4 0.0000 0.0000 0.0000 -6.5750 0.0000 0.0000
# 5 0.0000 0.0000 0.0000 0.0000 -6.5750 0.0000
# 6 0.0000 0.0000 0.0000 0.0000 0.0000 2.9654
#
#
#
# Elastic Compliance Matrix: (Units=1/GPa)
#
#
# Indices 1 2 3 4 5 6 
#
# 1 0.088779 -0.079830 -0.002257 0.000000 0.000000 0.000000
# 2 -0.079830 0.088779 -0.002257 0.000000 0.000000 0.000000
# 3 -0.002257 -0.002257 0.007961 0.000000 0.000000 0.000000
# 4 0.000000 0.000000 0.000000 -0.152092 0.000000 0.000000
# 5 0.000000 0.000000 0.000000 0.000000 -0.152092 0.000000
# 6 0.000000 0.000000 0.000000 0.000000 0.000000 0.337218
#
#
# Mechanical properties :
#
#
# Convention : Reuss Voigt Hill
#
# Bulk Modulus (GPa) = 59.41187 61.69010 60.55099
# Shear Modulus (GPa) = 12.72749 7.74558 10.23653
#
# Velocity S-wave (km/s) = 2.79721 2.18213 2.50860
# Velocity P-wave (km/s) = 6.85251 6.65386 6.75391
#
# Compressibility (1/GPa) = 0.01683165
#
# Stress axis : x y z
#
# Youngs Moduli (GPa) = 11.26390 11.26390 125.61989
#
# Poissons Ratio (x) = 0.89919 0.28352
# Poissons Ratio (y) = 0.89919 0.28352
# Poissons Ratio (z) = 0.02542 0.02542
#
# Static dielectric constant tensor:
#      x y z
#    x 1.527640 0.000000 0.000000 
#    y 0.000000 1.527640 0.000000 
#    z 0.000000 0.000000 1.592320 
# 
# From -- ./inp_files/9808.got.cif
#   From: 2010.05.17/outbox.cif.g08.bks.cpg/sg191_5_cif.got.tgz:9808.got - 2010.05.20 12:20:32.
