data_PCOD9587424
_publ_section_title
;
Structure prediction by ZEFSAII (Michael W. Deem and Ramdas Pophale) SiO2 
 PCOD9587424
Probable space group: P 6/M M M
;
_chemical_formula_sum "Si O2"
_cell_formula_units_Z 168
_cell_length_a 22.479100
_cell_length_b 22.479100
_cell_length_c 25.296106
_cell_angle_alpha 90.000000
_cell_angle_beta 90.000000
_cell_angle_gamma 120.000000
_cell_volume 11069.860366
_symmetry_space_group_name_H-M "P 6/M M M"
_symmetry_group_IT_number 191
_symmetry_cell_setting 'hexagonal'
loop_
_space_group_symop_operation_xyz
x,y,z
x-y,x,z
-y,x-y,z
-x,-y,z
-x+y,-x,z
y,-x+y,z
x-y,-y,-z
-x,-x+y,-z
y,x,-z
-y,-x,-z
-x+y,y,-z
x,x-y,-z
-x,-y,-z
-x+y,-x,-z
y,-x+y,-z
x,y,-z
x-y,x,-z
-y,x-y,-z
-x+y,y,z
x,x-y,z
-y,-x,z
y,x,z
x-y,-y,z
-x,-x+y,z
loop_
_atom_site_type_symbol
_atom_site_label
_atom_site_fract_x
_atom_site_fract_y
_atom_site_fract_z
Si Si1 0.530757 0.197292 0.425984
Si Si2 0.609480 0.080229 0.850724
Si Si3 0.920179 0.591432 0.257256
Si Si4 0.919980 0.295752 0.559104
Si Si5 0.333215 0.536286 0.299672
Si Si6 0.218176 0.918751 0.334243
Si Si7 0.472420 0.805541 0.061511
O O1 0.595218 0.190435 0.443809
O O2 0.533794 0.266897 0.444732
O O3 0.456899 0.132307 0.438196
O O4 0.537196 0.204850 0.362717
O O5 0.545519 0.091038 0.832243
O O6 0.664102 0.092342 0.804611
O O7 0.645392 0.131249 0.899215
O O8 0.573222 0.000000 0.865952
O O9 0.872743 0.519615 0.284857
O O10 0.905875 0.647261 0.286079
O O11 0.000000 0.619446 0.266856
O O12 0.911472 0.263978 0.500000
O O13 0.907007 0.246873 0.609716
O O14 0.000000 0.354430 0.563377
O O15 0.257900 0.515800 0.279491
O O16 0.388911 0.611090 0.280048
O O17 0.137825 0.862176 0.330816
O O18 0.241981 0.000000 0.332566
O O19 0.392903 0.785806 0.066105
O O20 0.480179 0.740090 0.074590
O O21 0.491983 0.824129 0.000000
#
# Coordination Sequence:
#
# PCOD9587424 Si02
#       7
#    24  24  24  24  24  24  24
#     4  10  20  33  48  65  87 117 152 188 226 270
#     4   9  18  31  45  64  91 121 155 194 233 274
#     4  10  19  31  48  69  92 117 149 190 231 271
#     4  10  21  36  53  73  94 116 147 190 236 278
#     4  10  19  30  44  62  86 115 148 184 223 268
#     4  10  20  35  54  76  99 123 150 180 220 269
#     4   9  17  29  45  65  89 118 153 193 236 279
#
# _framework density 15.176342999999999
#
# number of rings (size 3 to 8) (size 9 to 14) (size 15 to 20)
#    0.000    2.286    1.429    1.714    0.000    5.714 
#    0.000    3.571    0.000    2.714    0.000    0.000 
#    0.000    0.000    0.000    3.571    0.000    0.000 
#
# Total GULP energy -935621.933135 kJ/mol
# GULP energy per Si atom -5569.178173 kJ/mol
# Density = 1.514180 g / cm^3
# Si number density = 15.176343 Si / 1000 Ang^3
#
#
#
# Elastic Constant Matrix: (Units=GPa)
#
#
# Indices 1 2 3 4 5 6 
#
# 1 63.9872 53.9716 47.5699 0.0000 0.0000 0.0000
# 2 53.9716 63.9872 47.5699 0.0000 0.0000 0.0000
# 3 47.5699 47.5699 72.0067 0.0000 0.0000 0.0000
# 4 0.0000 0.0000 0.0000 574.7212 0.0000 0.0000
# 5 0.0000 0.0000 0.0000 0.0000 574.7212 0.0000
# 6 0.0000 0.0000 0.0000 0.0000 0.0000 5.0078
#
#
#
# Elastic Compliance Matrix: (Units=1/GPa)
#
#
# Indices 1 2 3 4 5 6 
#
# 1 0.058995 -0.040848 -0.011988 0.000000 0.000000 0.000000
# 2 -0.040848 0.058995 -0.011988 0.000000 0.000000 0.000000
# 3 -0.011988 -0.011988 0.029727 0.000000 0.000000 0.000000
# 4 0.000000 0.000000 0.000000 0.001740 0.000000 0.000000
# 5 0.000000 0.000000 0.000000 0.000000 0.001740 0.000000
# 6 0.000000 0.000000 0.000000 0.000000 0.000000 0.199687
#
#
# Mechanical properties :
#
#
# Convention : Reuss Voigt Hill
#
# Bulk Modulus (GPa) = 55.34789 55.35600 55.35194
# Shear Modulus (GPa) = 10.27628 234.28135 122.27881
#
# Velocity S-wave (km/s) = 2.60499 12.43816 8.98593
# Velocity P-wave (km/s) = 6.75255 15.58305 12.00892
#
# Compressibility (1/GPa) = 0.01806754
#
# Stress axis : x y z
#
# Youngs Moduli (GPa) = 16.95054 16.95054 33.63904
#
# Poissons Ratio (x) = 0.69240 0.40328
# Poissons Ratio (y) = 0.69240 0.40328
# Poissons Ratio (z) = 0.20321 0.20321
#
# Static dielectric constant tensor:
#      x y z
#    x 1.499210 0.000000 0.000000 
#    y 0.000000 1.499210 0.000000 
#    z 0.000000 0.000000 1.537670 
# 
# From -- ./inp_files/9000.got.cif
#   From: 2010.05.17/outbox.cif.g08.bks.cpg/sg191_5_cif.got.tgz:9000.got - 2010.05.20 12:20:32.
