data_PCOD9587584
_publ_section_title
;
Structure prediction by ZEFSAII (Michael W. Deem and Ramdas Pophale) SiO2 
 PCOD9587584
Probable space group: P 6/M M M
;
_chemical_formula_sum "Si O2"
_cell_formula_units_Z 120
_cell_length_a 17.934954
_cell_length_b 17.934954
_cell_length_c 30.020625
_cell_angle_alpha 90.000000
_cell_angle_beta 90.000000
_cell_angle_gamma 120.000000
_cell_volume 8362.784306
_symmetry_space_group_name_H-M "P 6/M M M"
_symmetry_group_IT_number 191
_symmetry_cell_setting 'hexagonal'
loop_
_space_group_symop_operation_xyz
x,y,z
x-y,x,z
-y,x-y,z
-x,-y,z
-x+y,-x,z
y,-x+y,z
x-y,-y,-z
-x,-x+y,-z
y,x,-z
-y,-x,-z
-x+y,y,-z
x,x-y,-z
-x,-y,-z
-x+y,-x,-z
y,-x+y,-z
x,y,-z
x-y,x,-z
-y,x-y,-z
-x+y,y,z
x,x-y,z
-y,-x,z
y,x,z
x-y,-y,z
-x,-x+y,z
loop_
_atom_site_type_symbol
_atom_site_label
_atom_site_fract_x
_atom_site_fract_y
_atom_site_fract_z
Si Si1 0.491539 0.158025 0.715741
Si Si2 0.901872 0.270319 0.798558
Si Si3 0.409333 0.000000 0.448997
Si Si4 0.489474 0.332739 0.613545
Si Si5 0.409701 0.000000 0.949269
Si Si6 0.843548 0.332095 0.115304
O O1 0.574701 0.149401 0.725606
O O2 0.516653 0.258327 0.717582
O O3 0.418046 0.109707 0.752089
O O4 0.463457 0.128583 0.664924
O O5 0.830392 0.169609 0.799895
O O6 0.876914 0.315245 0.837982
O O7 0.000000 0.294662 0.804061
O O8 0.345195 0.915854 0.421218
O O9 0.500000 0.000000 0.449578
O O10 0.383577 0.000000 0.500000
O O11 0.490260 0.245130 0.606282
O O12 0.585736 0.414265 0.608966
O O13 0.431869 0.085570 0.921828
O O14 0.500000 0.000000 0.950734
O O15 0.382095 0.000000 0.000000
O O16 0.837513 0.418757 0.117635
O O17 0.750712 0.249289 0.105981
#
# Coordination Sequence:
#
# PCOD9587584 Si02
#       6
#    24  24  12  24  12  24
#     4   9  17  27  42  64  91 120 149 179 211 252
#     4  10  20  32  47  68  93 121 150 182 221 267
#     4   9  18  30  41  57  81 107 141 186 230 264
#     4   9  17  29  44  62  84 114 149 183 217 258
#     4   9  18  32  47  63  87 119 155 196 236 270
#     4  10  19  31  47  68  94 124 157 191 228 271
#
# _framework density 14.349288
#
# number of rings (size 3 to 8) (size 9 to 14) (size 15 to 20)
#    0.000    2.600    1.000    1.200    1.400    3.600 
#    0.000    2.000    0.000    2.600    0.000    0.000 
#    0.000    0.000    0.000    0.300    0.000   10.400 
#
# Total GULP energy -668742.299369 kJ/mol
# GULP energy per Si atom -5572.852495 kJ/mol
# Density = 1.431663 g / cm^3
# Si number density = 14.349288 Si / 1000 Ang^3
#
#
#
# Elastic Constant Matrix: (Units=GPa)
#
#
# Indices 1 2 3 4 5 6 
#
# 1 81.1926 53.9581 53.7588 0.0000 0.0000 0.0000
# 2 53.9581 81.1926 53.7588 0.0000 0.0000 0.0000
# 3 53.7588 53.7588 107.5603 0.0000 0.0000 0.0000
# 4 0.0000 0.0000 0.0000 16.4536 0.0000 0.0000
# 5 0.0000 0.0000 0.0000 0.0000 16.4536 0.0000
# 6 0.0000 0.0000 0.0000 0.0000 0.0000 13.6173
#
#
#
# Elastic Compliance Matrix: (Units=1/GPa)
#
#
# Indices 1 2 3 4 5 6 
#
# 1 0.024501 -0.012218 -0.006139 0.000000 0.000000 0.000000
# 2 -0.012218 0.024501 -0.006139 0.000000 0.000000 0.000000
# 3 -0.006139 -0.006139 0.015434 0.000000 0.000000 0.000000
# 4 0.000000 0.000000 0.000000 0.060777 0.000000 0.000000
# 5 0.000000 0.000000 0.000000 0.000000 0.060777 0.000000
# 6 0.000000 0.000000 0.000000 0.000000 0.000000 0.073436
#
#
# Mechanical properties :
#
#
# Convention : Reuss Voigt Hill
#
# Bulk Modulus (GPa) = 64.75219 65.87743 65.31481
# Shear Modulus (GPa) = 15.94570 16.53622 16.24096
#
# Velocity S-wave (km/s) = 3.33716 3.39839 3.36792
# Velocity P-wave (km/s) = 7.75065 7.83635 7.79362
#
# Compressibility (1/GPa) = 0.01544349
#
# Stress axis : x y z
#
# Youngs Moduli (GPa) = 40.81538 40.81538 64.79311
#
# Poissons Ratio (x) = 0.49866 0.39777
# Poissons Ratio (y) = 0.49866 0.39777
# Poissons Ratio (z) = 0.25057 0.25057
#
# Static dielectric constant tensor:
#      x y z
#    x 1.455310 0.000000 0.000000 
#    y 0.000000 1.455310 0.000000 
#    z 0.000000 0.000000 1.486220 
# 
# From -- ./inp_files/9605.got.cif
#   From: 2010.05.17/outbox.cif.g08.bks.cpg/sg191_5_cif.got.tgz:9605.got - 2010.05.20 12:20:32.
