data_PCOD9587071
_publ_section_title
;
Structure prediction by ZEFSAII (Michael W. Deem and Ramdas Pophale) SiO2 
 PCOD9587071
Probable space group: P 6/M M M
;
_chemical_formula_sum "Si O2"
_cell_formula_units_Z 108
_cell_length_a 29.710831
_cell_length_b 29.710831
_cell_length_c 10.548555
_cell_angle_alpha 90.000000
_cell_angle_beta 90.000000
_cell_angle_gamma 120.000000
_cell_volume 8064.049804
_symmetry_space_group_name_H-M "P 6/M M M"
_symmetry_group_IT_number 191
_symmetry_cell_setting 'hexagonal'
loop_
_space_group_symop_operation_xyz
x,y,z
x-y,x,z
-y,x-y,z
-x,-y,z
-x+y,-x,z
y,-x+y,z
x-y,-y,-z
-x,-x+y,-z
y,x,-z
-y,-x,-z
-x+y,y,-z
x,x-y,-z
-x,-y,-z
-x+y,-x,-z
y,-x+y,-z
x,y,-z
x-y,x,-z
-y,x-y,-z
-x+y,y,z
x,x-y,z
-y,-x,z
y,x,z
x-y,-y,z
-x,-x+y,z
loop_
_atom_site_type_symbol
_atom_site_label
_atom_site_fract_x
_atom_site_fract_y
_atom_site_fract_z
Si Si1 0.903412 0.701348 0.000000
Si Si2 0.531653 0.468348 0.648392
Si Si3 0.063164 0.678372 0.000000
Si Si4 0.936528 0.312568 0.500000
Si Si5 0.936840 0.371349 0.257816
Si Si6 0.939246 0.777326 0.762503
Si Si7 0.726650 0.789073 0.500000
O O1 0.929063 0.737014 0.875997
O O2 0.843041 0.686081 0.000000
O O3 0.913204 0.653234 0.000000
O O4 0.500000 0.500000 0.649558
O O5 0.539174 0.460827 0.500000
O O6 0.494244 0.413829 0.716104
O O7 0.078505 0.658357 0.874845
O O8 0.000000 0.651564 0.000000
O O9 0.920662 0.331741 0.374845
O O10 0.917152 0.251678 0.500000
O O11 0.000000 0.343515 0.500000
O O12 0.000000 0.403796 0.258601
O O13 0.899040 0.798080 0.782038
O O14 0.925244 0.746651 0.629024
O O15 0.000000 0.820265 0.760624
O O16 0.754064 0.754064 0.500000
#
# Coordination Sequence:
#
# PCOD9587071 Si02
#       7
#    12  12  12  12  24  24  12
#     4  10  20  32  46  61  80 105 130 165 213 256
#     4   9  14  23  35  49  75 105 137 169 195 221
#     4  10  18  27  38  56  78  97 129 171 208 241
#     4   9  14  22  35  51  68  95 131 158 191 229
#     4   9  16  23  35  52  73 104 134 166 201 225
#     4  10  19  31  46  63  81 102 126 157 206 262
#     4   9  17  27  41  60  81 100 125 163 200 238
#
# _framework density 13.392773
#
# number of rings (size 3 to 8) (size 9 to 14) (size 15 to 20)
#    0.000    2.556    1.111    2.667    0.000    4.000 
#    0.000    2.222    0.000    0.222    0.000    0.000 
#    0.000    5.333    0.000    0.000    0.000    0.889 
#
# Total GULP energy -601483.967805 kJ/mol
# GULP energy per Si atom -5569.295998 kJ/mol
# Density = 1.336229 g / cm^3
# Si number density = 13.392773 Si / 1000 Ang^3
#
#
#
# Elastic Constant Matrix: (Units=GPa)
#
#
# Indices 1 2 3 4 5 6 
#
# 1 75.8104 40.8275 41.6642 0.0000 0.0000 0.0000
# 2 40.8275 75.8104 41.6642 0.0000 0.0000 0.0000
# 3 41.6642 41.6642 125.9102 0.0000 0.0000 0.0000
# 4 0.0000 0.0000 0.0000 15.4584 0.0000 0.0000
# 5 0.0000 0.0000 0.0000 0.0000 15.4584 0.0000
# 6 0.0000 0.0000 0.0000 0.0000 0.0000 17.4915
#
#
#
# Elastic Compliance Matrix: (Units=1/GPa)
#
#
# Indices 1 2 3 4 5 6 
#
# 1 0.019907 -0.008679 -0.003715 0.000000 0.000000 0.000000
# 2 -0.008679 0.019907 -0.003715 0.000000 0.000000 0.000000
# 3 -0.003715 -0.003715 0.010401 0.000000 0.000000 0.000000
# 4 0.000000 0.000000 0.000000 0.064690 0.000000 0.000000
# 5 0.000000 0.000000 0.000000 0.000000 0.064690 0.000000
# 6 0.000000 0.000000 0.000000 0.000000 0.000000 0.057171
#
#
# Mechanical properties :
#
#
# Convention : Reuss Voigt Hill
#
# Bulk Modulus (GPa) = 55.56986 58.42693 56.99840
# Shear Modulus (GPa) = 18.18300 19.90665 19.04483
#
# Velocity S-wave (km/s) = 3.68866 3.85953 3.77506
# Velocity P-wave (km/s) = 7.72814 7.97382 7.85194
#
# Compressibility (1/GPa) = 0.01799537
#
# Stress axis : x y z
#
# Youngs Moduli (GPa) = 50.23452 50.23452 96.14450
#
# Poissons Ratio (x) = 0.43597 0.35721
# Poissons Ratio (y) = 0.43597 0.35721
# Poissons Ratio (z) = 0.18664 0.18664
#
# Static dielectric constant tensor:
#      x y z
#    x 1.422590 0.000000 0.000000 
#    y 0.000000 1.422590 0.000000 
#    z 0.000000 0.000000 1.452140 
# 
# From -- ./inp_files/1798.got.cif
#   From: 2010.05.17/outbox.cif.g08.bks.cpg/sg191_1_cif.got.tgz:1798.got - 2010.05.20 12:20:32.
