data_PCOD9587317
_publ_section_title
;
Structure prediction by ZEFSAII (Michael W. Deem and Ramdas Pophale) SiO2 
 PCOD9587317
Probable space group: P 6/M M M
;
_chemical_formula_sum "Si O2"
_cell_formula_units_Z 108
_cell_length_a 21.835305
_cell_length_b 21.835305
_cell_length_c 16.353134
_cell_angle_alpha 90.000000
_cell_angle_beta 90.000000
_cell_angle_gamma 120.000000
_cell_volume 6752.275480
_symmetry_space_group_name_H-M "P 6/M M M"
_symmetry_group_IT_number 191
_symmetry_cell_setting 'hexagonal'
loop_
_space_group_symop_operation_xyz
x,y,z
x-y,x,z
-y,x-y,z
-x,-y,z
-x+y,-x,z
y,-x+y,z
x-y,-y,-z
-x,-x+y,-z
y,x,-z
-y,-x,-z
-x+y,y,-z
x,x-y,-z
-x,-y,-z
-x+y,-x,-z
y,-x+y,-z
x,y,-z
x-y,x,-z
-y,x-y,-z
-x+y,y,z
x,x-y,z
-y,-x,z
y,x,z
x-y,-y,z
-x,-x+y,z
loop_
_atom_site_type_symbol
_atom_site_label
_atom_site_fract_x
_atom_site_fract_y
_atom_site_fract_z
Si Si1 0.698386 0.919673 0.833514
Si Si2 0.477113 0.664928 0.258505
Si Si3 0.918366 0.623714 0.333754
Si Si4 0.219992 0.918114 0.500000
Si Si5 0.700363 0.151397 0.910060
O O1 0.717807 0.858904 0.849168
O O2 0.667958 0.910650 0.741078
O O3 0.630681 0.903253 0.889162
O O4 0.759560 0.000000 0.844548
O O5 0.469819 0.734910 0.259755
O O6 0.404224 0.595777 0.279785
O O7 0.542215 0.678622 0.316344
O O8 0.501386 0.657601 0.166692
O O9 0.906064 0.651265 0.419279
O O10 0.000000 0.642847 0.331736
O O11 0.137347 0.862654 0.500000
O O12 0.241312 0.000000 0.500000
O O13 0.772378 0.227623 0.911418
O O14 0.667372 0.138346 0.000000
#
# Coordination Sequence:
#
# PCOD9587317 Si02
#       5
#    24  24  24  12  24
#     4   9  16  27  44  65  89 116 147 183 224 269
#     4  10  19  31  47  67  94 125 155 186 225 277
#     4   9  18  32  50  70  90 116 151 193 234 266
#     4  10  18  30  51  76  99 121 151 191 232 272
#     4   8  15  28  44  62  85 113 146 185 224 261
#
# _framework density 15.994607999999999
#
# number of rings (size 3 to 8) (size 9 to 14) (size 15 to 20)
#    0.000    2.889    0.000    3.556    0.000    1.333 
#    0.000    0.556    0.000    3.667    0.000    7.778 
#    0.000    5.333    0.000    5.556    0.000    0.444 
#
# Total GULP energy -601620.807894 kJ/mol
# GULP energy per Si atom -5570.563036 kJ/mol
# Density = 1.595820 g / cm^3
# Si number density = 15.994608 Si / 1000 Ang^3
#
#
#
# Elastic Constant Matrix: (Units=GPa)
#
#
# Indices 1 2 3 4 5 6 
#
# 1 91.1362 70.6036 15.7233 0.0000 0.0000 0.0000
# 2 70.6036 91.1362 15.7233 0.0000 0.0000 0.0000
# 3 15.7233 15.7233 62.4229 0.0000 0.0000 0.0000
# 4 0.0000 0.0000 0.0000 10.2039 0.0000 0.0000
# 5 0.0000 0.0000 0.0000 0.0000 10.2039 0.0000
# 6 0.0000 0.0000 0.0000 0.0000 0.0000 10.2663
#
#
#
# Elastic Compliance Matrix: (Units=1/GPa)
#
#
# Indices 1 2 3 4 5 6 
#
# 1 0.027602 -0.021101 -0.001638 0.000000 0.000000 0.000000
# 2 -0.021101 0.027602 -0.001638 0.000000 0.000000 0.000000
# 3 -0.001638 -0.001638 0.016845 0.000000 0.000000 0.000000
# 4 0.000000 0.000000 0.000000 0.098001 0.000000 0.000000
# 5 0.000000 0.000000 0.000000 0.000000 0.098001 0.000000
# 6 0.000000 0.000000 0.000000 0.000000 0.000000 0.097406
#
#
# Mechanical properties :
#
#
# Convention : Reuss Voigt Hill
#
# Bulk Modulus (GPa) = 42.92423 49.86618 46.39521
# Shear Modulus (GPa) = 11.84903 15.64451 13.74677
#
# Velocity S-wave (km/s) = 2.72474 3.13087 2.93484
# Velocity P-wave (km/s) = 6.06580 6.65690 6.36821
#
# Compressibility (1/GPa) = 0.02329687
#
# Stress axis : x y z
#
# Youngs Moduli (GPa) = 36.22915 36.22915 59.36592
#
# Poissons Ratio (x) = 0.76447 0.09721
# Poissons Ratio (y) = 0.76447 0.09721
# Poissons Ratio (z) = 0.05933 0.05933
#
# Static dielectric constant tensor:
#      x y z
#    x 1.524080 0.000000 0.000000 
#    y 0.000000 1.524080 0.000000 
#    z 0.000000 0.000000 1.556290 
# 
# From -- ./inp_files/6114.got.cif
#   From: 2010.05.17/outbox.cif.g08.bks.cpg/sg191_4_cif.got.tgz:6114.got - 2010.05.20 12:20:32.
