data_PCOD9587878
_publ_section_title
;
Structure prediction by ZEFSAII (Michael W. Deem and Ramdas Pophale) SiO2 
 PCOD9587878
Probable space group: P 6/M M M
;
_chemical_formula_sum "Si O2"
_cell_formula_units_Z 108
_cell_length_a 18.323061
_cell_length_b 18.323061
_cell_length_c 23.369303
_cell_angle_alpha 90.000000
_cell_angle_beta 90.000000
_cell_angle_gamma 120.000000
_cell_volume 6794.733788
_symmetry_space_group_name_H-M "P 6/M M M"
_symmetry_group_IT_number 191
_symmetry_cell_setting 'hexagonal'
loop_
_space_group_symop_operation_xyz
x,y,z
x-y,x,z
-y,x-y,z
-x,-y,z
-x+y,-x,z
y,-x+y,z
x-y,-y,-z
-x,-x+y,-z
y,x,-z
-y,-x,-z
-x+y,y,-z
x,x-y,-z
-x,-y,-z
-x+y,-x,-z
y,-x+y,-z
x,y,-z
x-y,x,-z
-y,x-y,-z
-x+y,y,z
x,x-y,z
-y,-x,z
y,x,z
x-y,-y,z
-x,-x+y,z
loop_
_atom_site_type_symbol
_atom_site_label
_atom_site_fract_x
_atom_site_fract_y
_atom_site_fract_z
Si Si1 0.494603 0.161233 0.709715
Si Si2 0.738575 0.645069 0.065319
Si Si3 0.733298 0.098500 0.391685
Si Si4 0.633953 0.532305 0.500000
Si Si5 0.333857 0.494787 0.841457
O O1 0.576383 0.152765 0.696988
O O2 0.518035 0.259018 0.705536
O O3 0.419064 0.110778 0.665694
O O4 0.468627 0.134359 0.775576
O O5 0.834293 0.668585 0.074179
O O6 0.722317 0.722317 0.070702
O O7 0.683526 0.575627 0.112092
O O8 0.715123 0.611993 0.000000
O O9 0.832797 0.167204 0.390854
O O10 0.691371 0.122918 0.443880
O O11 0.705381 0.000000 0.398074
O O12 0.577548 0.577548 0.500000
O O13 0.567624 0.432377 0.500000
O O14 0.256454 0.512908 0.846359
O O15 0.421092 0.578909 0.852085
#
# Coordination Sequence:
#
# PCOD9587878 Si02
#       5
#    24  24  24  12  24
#     4   9  17  29  46  68  94 123 153 185 221 262
#     4   9  18  32  48  65  86 113 145 182 225 270
#     4  10  20  33  49  69  93 122 156 194 235 276
#     4   9  17  30  49  72  96 120 146 177 215 262
#     4   9  17  29  45  66  93 124 155 184 215 254
#
# _framework density 15.894663
#
# number of rings (size 3 to 8) (size 9 to 14) (size 15 to 20)
#    0.000    2.778    0.000    1.444    0.000    4.889 
#    0.000    3.333    0.000    4.889    0.000    1.556 
#    0.000    2.667    0.000   11.111    0.000    5.778 
#
# Total GULP energy -601618.470761 kJ/mol
# GULP energy per Si atom -5570.541396 kJ/mol
# Density = 1.585849 g / cm^3
# Si number density = 15.894663 Si / 1000 Ang^3
#
#
#
# Elastic Constant Matrix: (Units=GPa)
#
#
# Indices 1 2 3 4 5 6 
#
# 1 66.2303 58.3269 48.5219 0.0000 0.0000 0.0000
# 2 58.3269 66.2303 48.5219 0.0000 0.0000 0.0000
# 3 48.5219 48.5219 81.6805 0.0000 0.0000 0.0000
# 4 0.0000 0.0000 0.0000 20.4926 0.0000 0.0000
# 5 0.0000 0.0000 0.0000 0.0000 20.4926 0.0000
# 6 0.0000 0.0000 0.0000 0.0000 0.0000 3.9517
#
#
#
# Elastic Compliance Matrix: (Units=1/GPa)
#
#
# Indices 1 2 3 4 5 6 
#
# 1 0.070737 -0.055791 -0.008878 0.000000 0.000000 0.000000
# 2 -0.055791 0.070737 -0.008878 0.000000 0.000000 0.000000
# 3 -0.008878 -0.008878 0.022791 0.000000 0.000000 0.000000
# 4 0.000000 0.000000 0.000000 0.048798 0.000000 0.000000
# 5 0.000000 0.000000 0.000000 0.000000 0.048798 0.000000
# 6 0.000000 0.000000 0.000000 0.000000 0.000000 0.253055
#
#
# Mechanical properties :
#
#
# Convention : Reuss Voigt Hill
#
# Bulk Modulus (GPa) = 58.24479 58.32026 58.28252
# Shear Modulus (GPa) = 7.48802 12.90542 10.19672
#
# Velocity S-wave (km/s) = 2.17284 2.85254 2.53557
# Velocity P-wave (km/s) = 6.55887 6.90077 6.73199
#
# Compressibility (1/GPa) = 0.01716892
#
# Stress axis : x y z
#
# Youngs Moduli (GPa) = 14.13697 14.13697 43.87669
#
# Poissons Ratio (x) = 0.78871 0.38955
# Poissons Ratio (y) = 0.78871 0.38955
# Poissons Ratio (z) = 0.12551 0.12551
#
# Static dielectric constant tensor:
#      x y z
#    x 1.518460 0.000000 0.000000 
#    y 0.000000 1.518460 0.000000 
#    z 0.000000 0.000000 1.551780 
# 
# From -- ./inp_files/7319.got.cif
#   From: 2010.05.17/outbox.cif.g08.bks.cpg/sg191_4_cif.got.tgz:7319.got - 2010.05.20 12:20:32.
