data_PCOD9587140
_publ_section_title
;
Structure prediction by ZEFSAII (Michael W. Deem and Ramdas Pophale) SiO2 
 PCOD9587140
Probable space group: P 6/M M M
;
_chemical_formula_sum "Si O2"
_cell_formula_units_Z 96
_cell_length_a 30.311244
_cell_length_b 30.311244
_cell_length_c 8.081358
_cell_angle_alpha 90.000000
_cell_angle_beta 90.000000
_cell_angle_gamma 120.000000
_cell_volume 6430.170653
_symmetry_space_group_name_H-M "P 6/M M M"
_symmetry_group_IT_number 191
_symmetry_cell_setting 'hexagonal'
loop_
_space_group_symop_operation_xyz
x,y,z
x-y,x,z
-y,x-y,z
-x,-y,z
-x+y,-x,z
y,-x+y,z
x-y,-y,-z
-x,-x+y,-z
y,x,-z
-y,-x,-z
-x+y,y,-z
x,x-y,-z
-x,-y,-z
-x+y,-x,-z
y,-x+y,-z
x,y,-z
x-y,x,-z
-y,x-y,-z
-x+y,y,z
x,x-y,z
-y,-x,z
y,x,z
x-y,-y,z
-x,-x+y,z
loop_
_atom_site_type_symbol
_atom_site_label
_atom_site_fract_x
_atom_site_fract_y
_atom_site_fract_z
Si Si1 0.207667 0.415334 0.689580
Si Si2 0.694313 0.120846 0.803397
Si Si3 0.848676 0.697351 0.809235
Si Si4 0.691410 0.749657 0.797206
Si Si5 0.058152 0.478992 0.699742
O O1 0.199075 0.398150 0.500000
O O2 0.175823 0.443275 0.725993
O O3 0.182248 0.364495 0.801985
O O4 0.715008 0.082893 0.747330
O O5 0.635527 0.096434 0.759573
O O6 0.700163 0.125666 0.000000
O O7 0.903501 0.710993 0.738040
O O8 0.857086 0.714172 0.000000
O O9 0.724616 0.724616 0.743178
O O10 0.691946 0.750670 0.000000
O O11 0.058150 0.478669 0.500000
O O12 0.070368 0.535184 0.753186
O O13 0.000000 0.439957 0.754329
#
# Coordination Sequence:
#
# PCOD9587140 Si02
#       5
#    12  24  12  24  24
#     4  10  18  28  42  58  78 104 130 161 205 247
#     4  10  18  28  42  60  81 104 136 173 205 241
#     4   8  14  24  36  52  74  98 127 164 198 232
#     4   8  13  21  34  52  73  98 127 160 199 236
#     4   9  18  31  44  60  86 117 144 171 205 245
#
# _framework density 14.929619000000001
#
# number of rings (size 3 to 8) (size 9 to 14) (size 15 to 20)
#    0.000    3.000    0.000    4.875    0.000    2.000 
#    0.000    1.250    0.000    6.750    0.000    0.000 
#    1.250    0.000    2.250    0.375    2.250   12.000 
#
# Total GULP energy -534421.925738 kJ/mol
# GULP energy per Si atom -5566.895060 kJ/mol
# Density = 1.489564 g / cm^3
# Si number density = 14.929619 Si / 1000 Ang^3
#
#
#
# Elastic Constant Matrix: (Units=GPa)
#
#
# Indices 1 2 3 4 5 6 
#
# 1 110.1997 60.5718 12.4485 0.0000 0.0000 0.0000
# 2 60.5718 110.1997 12.4485 0.0000 0.0000 0.0000
# 3 12.4485 12.4485 23.5290 0.0000 0.0000 0.0000
# 4 0.0000 0.0000 0.0000 12.3558 0.0000 0.0000
# 5 0.0000 0.0000 0.0000 0.0000 12.3558 0.0000
# 6 0.0000 0.0000 0.0000 0.0000 0.0000 24.8140
#
#
#
# Elastic Compliance Matrix: (Units=1/GPa)
#
#
# Indices 1 2 3 4 5 6 
#
# 1 0.013248 -0.006902 -0.003357 0.000000 0.000000 0.000000
# 2 -0.006902 0.013248 -0.003357 0.000000 0.000000 0.000000
# 3 -0.003357 -0.003357 0.046053 0.000000 0.000000 0.000000
# 4 0.000000 0.000000 0.000000 0.080934 0.000000 0.000000
# 5 0.000000 0.000000 0.000000 0.000000 0.080934 0.000000
# 6 0.000000 0.000000 0.000000 0.000000 0.000000 0.040300
#
#
# Mechanical properties :
#
#
# Convention : Reuss Voigt Hill
#
# Bulk Modulus (GPa) = 22.06765 46.09622 34.08193
# Shear Modulus (GPa) = 15.77021 20.46909 18.11965
#
# Velocity S-wave (km/s) = 3.25361 3.70677 3.48756
# Velocity P-wave (km/s) = 5.37846 7.01875 6.25263
#
# Compressibility (1/GPa) = 0.04531520
#
# Stress axis : x y z
#
# Youngs Moduli (GPa) = 75.48549 75.48549 21.71409
#
# Poissons Ratio (x) = 0.52103 0.07290
# Poissons Ratio (y) = 0.52103 0.07290
# Poissons Ratio (z) = 0.25341 0.25341
#
# Static dielectric constant tensor:
#      x y z
#    x 1.501800 0.000000 0.000000 
#    y 0.000000 1.501800 0.000000 
#    z 0.000000 0.000000 1.540170 
# 
# From -- ./inp_files/1514.got.cif
#   From: 2010.05.17/outbox.cif.g08.bks.cpg/sg191_1_cif.got.tgz:1514.got - 2010.05.20 12:20:32.
