data_PCOD9587091
_publ_section_title
;
Structure prediction by ZEFSAII (Michael W. Deem and Ramdas Pophale) SiO2 
 PCOD9587091
Probable space group: P 6/M M M
;
_chemical_formula_sum "Si O2"
_cell_formula_units_Z 120
_cell_length_a 17.267878
_cell_length_b 17.267878
_cell_length_c 27.879791
_cell_angle_alpha 90.000000
_cell_angle_beta 90.000000
_cell_angle_gamma 120.000000
_cell_volume 7199.429591
_symmetry_space_group_name_H-M "P 6/M M M"
_symmetry_group_IT_number 191
_symmetry_cell_setting 'hexagonal'
loop_
_space_group_symop_operation_xyz
x,y,z
x-y,x,z
-y,x-y,z
-x,-y,z
-x+y,-x,z
y,-x+y,z
x-y,-y,-z
-x,-x+y,-z
y,x,-z
-y,-x,-z
-x+y,y,-z
x,x-y,-z
-x,-y,-z
-x+y,-x,-z
y,-x+y,-z
x,y,-z
x-y,x,-z
-y,x-y,-z
-x+y,y,z
x,x-y,z
-y,-x,z
y,x,z
x-y,-y,z
-x,-x+y,z
loop_
_atom_site_type_symbol
_atom_site_label
_atom_site_fract_x
_atom_site_fract_y
_atom_site_fract_z
Si Si1 0.666962 0.513644 0.294934
Si Si2 0.162878 0.669787 0.000000
Si Si3 0.359415 0.893346 0.897722
Si Si4 0.609824 0.895267 0.393595
Si Si5 0.445906 0.554095 0.554844
Si Si6 0.102628 0.376758 0.199657
O O1 0.741632 0.483263 0.294962
O O2 0.569308 0.430692 0.304064
O O3 0.695792 0.586036 0.337198
O O4 0.672462 0.557381 0.243454
O O5 0.131225 0.688068 0.050591
O O6 0.269314 0.730687 0.000000
O O7 0.129829 0.564915 0.000000
O O8 0.427189 0.854378 0.895329
O O9 0.301239 0.870308 0.850205
O O10 0.419066 0.000000 0.897045
O O11 0.635194 0.817597 0.403554
O O12 0.514870 0.867694 0.419510
O O13 0.680682 0.000000 0.405889
O O14 0.500000 0.500000 0.554738
O O15 0.429907 0.570094 0.500000
O O16 0.170586 0.341172 0.209114
O O17 0.000000 0.301632 0.196578
#
# Coordination Sequence:
#
# PCOD9587091 Si02
#       6
#    24  12  24  24  12  24
#     4  10  19  31  49  73 101 131 162 197 238 285
#     4  10  18  27  39  55  80 113 147 179 211 252
#     4   9  17  29  44  62  83 110 144 181 223 270
#     4  10  20  34  53  76 104 139 177 216 258 304
#     4   9  18  34  54  76 104 136 170 209 253 303
#     4  10  20  32  47  67  90 117 150 190 234 280
#
# _framework density 16.667987
#
# number of rings (size 3 to 8) (size 9 to 14) (size 15 to 20)
#    0.000    2.300    1.000    2.400    0.000    3.600 
#    0.600    0.000    0.000    6.800    0.000    0.000 
#    0.000    4.800    0.000    5.000    0.000   20.800 
#
# Total GULP energy -668170.892318 kJ/mol
# GULP energy per Si atom -5568.090769 kJ/mol
# Density = 1.663005 g / cm^3
# Si number density = 16.667987 Si / 1000 Ang^3
#
#
#
# Elastic Constant Matrix: (Units=GPa)
#
#
# Indices 1 2 3 4 5 6 
#
# 1 67.6171 42.2473 10.3992 0.0000 0.0000 0.0000
# 2 42.2473 67.6171 10.3992 0.0000 0.0000 0.0000
# 3 10.3992 10.3992 87.9511 0.0000 0.0000 0.0000
# 4 0.0000 0.0000 0.0000 11.6303 0.0000 0.0000
# 5 0.0000 0.0000 0.0000 0.0000 11.6303 0.0000
# 6 0.0000 0.0000 0.0000 0.0000 0.0000 12.6849
#
#
#
# Elastic Compliance Matrix: (Units=1/GPa)
#
#
# Indices 1 2 3 4 5 6 
#
# 1 0.024364 -0.015053 -0.001101 0.000000 0.000000 0.000000
# 2 -0.015053 0.024364 -0.001101 0.000000 0.000000 0.000000
# 3 -0.001101 -0.001101 0.011630 0.000000 0.000000 0.000000
# 4 0.000000 0.000000 0.000000 0.085982 0.000000 0.000000
# 5 0.000000 0.000000 0.000000 0.000000 0.085982 0.000000
# 6 0.000000 0.000000 0.000000 0.000000 0.000000 0.078834
#
#
# Mechanical properties :
#
#
# Convention : Reuss Voigt Hill
#
# Bulk Modulus (GPa) = 38.68785 38.80851 38.74818
# Shear Modulus (GPa) = 14.11306 17.86508 15.98907
#
# Velocity S-wave (km/s) = 2.91300 3.27742 3.10057
# Velocity P-wave (km/s) = 5.88008 6.13643 6.00962
#
# Compressibility (1/GPa) = 0.02584791
#
# Stress axis : x y z
#
# Youngs Moduli (GPa) = 41.04461 41.04461 85.98240
#
# Poissons Ratio (x) = 0.61785 0.09465
# Poissons Ratio (y) = 0.61785 0.09465
# Poissons Ratio (z) = 0.04518 0.04518
#
# Static dielectric constant tensor:
#      x y z
#    x 1.567330 0.000000 0.000000 
#    y 0.000000 1.567330 0.000000 
#    z 0.000000 0.000000 1.596450 
# 
# From -- ./inp_files/8638.got.cif
#   From: 2010.05.17/outbox.cif.g08.bks.cpg/sg191_5_cif.got.tgz:8638.got - 2010.05.20 12:20:32.
