data_PCOD9587087
_publ_section_title
;
Structure prediction by ZEFSAII (Michael W. Deem and Ramdas Pophale) SiO2 
 PCOD9587087
Probable space group: P 6/M M M
;
_chemical_formula_sum "Si O2"
_cell_formula_units_Z 120
_cell_length_a 18.097736
_cell_length_b 18.097736
_cell_length_c 26.352427
_cell_angle_alpha 90.000000
_cell_angle_beta 90.000000
_cell_angle_gamma 120.000000
_cell_volume 7474.802944
_symmetry_space_group_name_H-M "P 6/M M M"
_symmetry_group_IT_number 191
_symmetry_cell_setting 'hexagonal'
loop_
_space_group_symop_operation_xyz
x,y,z
x-y,x,z
-y,x-y,z
-x,-y,z
-x+y,-x,z
y,-x+y,z
x-y,-y,-z
-x,-x+y,-z
y,x,-z
-y,-x,-z
-x+y,y,-z
x,x-y,-z
-x,-y,-z
-x+y,-x,-z
y,-x+y,-z
x,y,-z
x-y,x,-z
-y,x-y,-z
-x+y,y,z
x,x-y,z
-y,-x,z
y,x,z
x-y,-y,z
-x,-x+y,z
loop_
_atom_site_type_symbol
_atom_site_label
_atom_site_fract_x
_atom_site_fract_y
_atom_site_fract_z
Si Si1 0.159261 0.491665 0.902575
Si Si2 0.166815 0.497105 0.500000
Si Si3 0.540753 0.638472 0.392859
Si Si4 0.097267 0.366921 0.807262
Si Si5 0.629569 0.901347 0.000000
Si Si6 0.330857 0.495872 0.716792
O O1 0.259115 0.518229 0.902901
O O2 0.148971 0.574486 0.903858
O O3 0.118464 0.434724 0.852555
O O4 0.117019 0.430435 0.950910
O O5 0.267592 0.535183 0.500000
O O6 0.144899 0.572450 0.500000
O O7 0.131732 0.448244 0.446992
O O8 0.449351 0.550650 0.395346
O O9 0.611776 0.611776 0.386992
O O10 0.534951 0.681740 0.341466
O O11 0.170061 0.340122 0.809721
O O12 0.111234 0.418986 0.755142
O O13 0.000000 0.292228 0.811526
O O14 0.657528 0.828764 0.000000
O O15 0.703743 0.000000 0.000000
O O16 0.263808 0.527615 0.728084
O O17 0.427054 0.572947 0.723202
#
# Coordination Sequence:
#
# PCOD9587087 Si02
#       6
#    24  12  24  24  12  24
#     4  10  20  33  50  73 102 134 165 195 228 269
#     4  10  18  27  39  55  76 101 132 174 225 276
#     4   9  17  28  41  56  76 106 144 183 220 261
#     4  10  21  35  51  71  94 122 155 193 236 279
#     4  10  21  35  51  72  97 127 162 202 247 289
#     4  10  19  30  45  66  93 123 154 187 223 265
#
# _framework density 16.053934999999999
#
# number of rings (size 3 to 8) (size 9 to 14) (size 15 to 20)
#    0.000    2.200    0.000    3.500    0.000    5.200 
#    0.000    5.000    0.000    0.300    0.000    0.000 
#    0.000    4.800    0.000    0.000    0.000    0.400 
#
# Total GULP energy -668897.020902 kJ/mol
# GULP energy per Si atom -5574.141841 kJ/mol
# Density = 1.601740 g / cm^3
# Si number density = 16.053935 Si / 1000 Ang^3
#
#
#
# Elastic Constant Matrix: (Units=GPa)
#
#
# Indices 1 2 3 4 5 6 
#
# 1 77.8111 61.3437 33.6846 0.0000 0.0000 0.0000
# 2 61.3437 77.8111 33.6846 0.0000 0.0000 0.0000
# 3 33.6846 33.6846 95.8322 0.0000 0.0000 0.0000
# 4 0.0000 0.0000 0.0000 13.4521 0.0000 0.0000
# 5 0.0000 0.0000 0.0000 0.0000 13.4521 0.0000
# 6 0.0000 0.0000 0.0000 0.0000 0.0000 8.2337
#
#
#
# Elastic Compliance Matrix: (Units=1/GPa)
#
#
# Indices 1 2 3 4 5 6 
#
# 1 0.034693 -0.026033 -0.003044 0.000000 0.000000 0.000000
# 2 -0.026033 0.034693 -0.003044 0.000000 0.000000 0.000000
# 3 -0.003044 -0.003044 0.012575 0.000000 0.000000 0.000000
# 4 0.000000 0.000000 0.000000 0.074338 0.000000 0.000000
# 5 0.000000 0.000000 0.000000 0.000000 0.074338 0.000000
# 6 0.000000 0.000000 0.000000 0.000000 0.000000 0.121452
#
#
# Mechanical properties :
#
#
# Convention : Reuss Voigt Hill
#
# Bulk Modulus (GPa) = 56.43699 56.54227 56.48963
# Shear Modulus (GPa) = 11.84172 15.21035 13.52603
#
# Velocity S-wave (km/s) = 2.71886 3.08141 2.90580
# Velocity P-wave (km/s) = 6.71470 6.92508 6.82070
#
# Compressibility (1/GPa) = 0.01771887
#
# Stress axis : x y z
#
# Youngs Moduli (GPa) = 28.82433 28.82433 79.52440
#
# Poissons Ratio (x) = 0.75038 0.24207
# Poissons Ratio (y) = 0.75038 0.24207
# Poissons Ratio (z) = 0.08774 0.08774
#
# Static dielectric constant tensor:
#      x y z
#    x 1.526840 0.000000 0.000000 
#    y 0.000000 1.526840 0.000000 
#    z 0.000000 0.000000 1.568420 
# 
# From -- ./inp_files/8581.got.cif
#   From: 2010.05.17/outbox.cif.g08.bks.cpg/sg191_5_cif.got.tgz:8581.got - 2010.05.20 12:20:32.
