data_PCOD9587489
_publ_section_title
;
Structure prediction by ZEFSAII (Michael W. Deem and Ramdas Pophale) SiO2 
 PCOD9587489
Probable space group: P 6/M M M
;
_chemical_formula_sum "Si O2"
_cell_formula_units_Z 120
_cell_length_a 18.378763
_cell_length_b 18.378763
_cell_length_c 25.531585
_cell_angle_alpha 90.000000
_cell_angle_beta 90.000000
_cell_angle_gamma 120.000000
_cell_volume 7468.630317
_symmetry_space_group_name_H-M "P 6/M M M"
_symmetry_group_IT_number 191
_symmetry_cell_setting 'hexagonal'
loop_
_space_group_symop_operation_xyz
x,y,z
x-y,x,z
-y,x-y,z
-x,-y,z
-x+y,-x,z
y,-x+y,z
x-y,-y,-z
-x,-x+y,-z
y,x,-z
-y,-x,-z
-x+y,y,-z
x,x-y,-z
-x,-y,-z
-x+y,-x,-z
y,-x+y,-z
x,y,-z
x-y,x,-z
-y,x-y,-z
-x+y,y,z
x,x-y,z
-y,-x,z
y,x,z
x-y,-y,z
-x,-x+y,z
loop_
_atom_site_type_symbol
_atom_site_label
_atom_site_fract_x
_atom_site_fract_y
_atom_site_fract_z
Si Si1 0.502525 0.666057 0.709576
Si Si2 0.263662 0.905844 0.500000
Si Si3 0.836501 0.333996 0.586504
Si Si4 0.331414 0.496768 0.886702
Si Si5 0.635886 0.095753 0.000000
Si Si6 0.094986 0.735073 0.202909
O O1 0.478567 0.739284 0.716160
O O2 0.423559 0.576442 0.724416
O O3 0.520582 0.663626 0.648047
O O4 0.582613 0.693117 0.745831
O O5 0.166747 0.833254 0.500000
O O6 0.307403 0.889709 0.449913
O O7 0.282127 0.000000 0.500000
O O8 0.846899 0.423450 0.571933
O O9 0.739461 0.260540 0.579822
O O10 0.262735 0.525469 0.877861
O O11 0.424859 0.575142 0.879794
O O12 0.321940 0.462949 0.945973
O O13 0.309582 0.422581 0.845943
O O14 0.546605 0.093209 0.000000
O O15 0.614871 0.000000 0.000000
O O16 0.167518 0.832483 0.202177
O O17 0.000000 0.714904 0.201433
#
# Coordination Sequence:
#
# PCOD9587489 Si02
#       6
#    24  12  24  24  12  24
#     4   9  17  29  46  69  98 131 163 190 215 248
#     4  10  21  35  49  66  89 117 150 190 237 283
#     4   9  17  29  46  69  98 131 162 188 214 250
#     4  10  19  30  45  66  94 127 160 191 223 263
#     4   9  17  28  42  60  84 119 163 205 235 256
#     4  10  21  35  50  68  90 117 149 188 234 280
#
# _framework density 16.067202999999999
#
# number of rings (size 3 to 8) (size 9 to 14) (size 15 to 20)
#    0.000    2.500    0.000    2.400    0.000    5.600 
#    0.000    6.000    0.000    0.300    0.000    0.000 
#    0.000    0.000    0.000   10.000    0.000   20.800 
#
# Total GULP energy -669339.362885 kJ/mol
# GULP energy per Si atom -5577.828024 kJ/mol
# Density = 1.603063 g / cm^3
# Si number density = 16.067203 Si / 1000 Ang^3
#
#
#
# Elastic Constant Matrix: (Units=GPa)
#
#
# Indices 1 2 3 4 5 6 
#
# 1 77.6726 64.5981 35.4410 0.0000 0.0000 0.0000
# 2 64.5981 77.6726 35.4410 0.0000 0.0000 0.0000
# 3 35.4410 35.4410 60.9252 0.0000 0.0000 0.0000
# 4 0.0000 0.0000 0.0000 13.9047 0.0000 0.0000
# 5 0.0000 0.0000 0.0000 0.0000 13.9047 0.0000
# 6 0.0000 0.0000 0.0000 0.0000 0.0000 6.5373
#
#
#
# Elastic Compliance Matrix: (Units=1/GPa)
#
#
# Indices 1 2 3 4 5 6 
#
# 1 0.043191 -0.033294 -0.005757 0.000000 0.000000 0.000000
# 2 -0.033294 0.043191 -0.005757 0.000000 0.000000 0.000000
# 3 -0.005757 -0.005757 0.023112 0.000000 0.000000 0.000000
# 4 0.000000 0.000000 0.000000 0.071918 0.000000 0.000000
# 5 0.000000 0.000000 0.000000 0.000000 0.071918 0.000000
# 6 0.000000 0.000000 0.000000 0.000000 0.000000 0.152969
#
#
# Mechanical properties :
#
#
# Convention : Reuss Voigt Hill
#
# Bulk Modulus (GPa) = 50.30964 54.13672 52.22318
# Shear Modulus (GPa) = 9.94943 12.25536 11.10239
#
# Velocity S-wave (km/s) = 2.49115 2.76480 2.63153
# Velocity P-wave (km/s) = 6.29718 6.63018 6.46582
#
# Compressibility (1/GPa) = 0.01987691
#
# Stress axis : x y z
#
# Youngs Moduli (GPa) = 23.15301 23.15301 43.26787
#
# Poissons Ratio (x) = 0.77085 0.24911
# Poissons Ratio (y) = 0.77085 0.24911
# Poissons Ratio (z) = 0.13330 0.13330
#
# Static dielectric constant tensor:
#      x y z
#    x 1.522200 0.000000 0.000000 
#    y 0.000000 1.522200 0.000000 
#    z 0.000000 0.000000 1.558940 
# 
# From -- ./inp_files/8534.got.cif
#   From: 2010.05.17/outbox.cif.g08.bks.cpg/sg191_5_cif.got.tgz:8534.got - 2010.05.20 12:20:32.
