data_PCOD9587547
_publ_section_title
;
Structure prediction by ZEFSAII (Michael W. Deem and Ramdas Pophale) SiO2 
 PCOD9587547
Probable space group: P 6/M M M
;
_chemical_formula_sum "Si O2"
_cell_formula_units_Z 144
_cell_length_a 33.556009
_cell_length_b 33.556009
_cell_length_c 8.550566
_cell_angle_alpha 90.000000
_cell_angle_beta 90.000000
_cell_angle_gamma 120.000000
_cell_volume 8338.080807
_symmetry_space_group_name_H-M "P 6/M M M"
_symmetry_group_IT_number 191
_symmetry_cell_setting 'hexagonal'
loop_
_space_group_symop_operation_xyz
x,y,z
x-y,x,z
-y,x-y,z
-x,-y,z
-x+y,-x,z
y,-x+y,z
x-y,-y,-z
-x,-x+y,-z
y,x,-z
-y,-x,-z
-x+y,y,-z
x,x-y,-z
-x,-y,-z
-x+y,-x,-z
y,-x+y,-z
x,y,-z
x-y,x,-z
-y,x-y,-z
-x+y,y,z
x,x-y,z
-y,-x,z
y,x,z
x-y,-y,z
-x,-x+y,z
loop_
_atom_site_type_symbol
_atom_site_label
_atom_site_fract_x
_atom_site_fract_y
_atom_site_fract_z
Si Si1 0.101510 0.295143 0.313049
Si Si2 0.280547 0.896710 0.187324
Si Si3 0.948757 0.563166 0.190265
Si Si4 0.143560 0.526598 0.810660
Si Si5 0.808575 0.526378 0.312535
Si Si6 0.051621 0.193593 0.188923
O O1 0.098603 0.292939 0.500000
O O2 0.152922 0.305843 0.267807
O O3 0.093095 0.335270 0.253003
O O4 0.066967 0.245065 0.244189
O O5 0.333045 0.933067 0.234424
O O6 0.271892 0.847475 0.246539
O O7 0.278538 0.895941 0.000000
O O8 0.907663 0.513253 0.239110
O O9 0.000000 0.579286 0.246476
O O10 0.949623 0.562360 0.000000
O O11 0.152735 0.576368 0.760893
O O12 0.178477 0.511000 0.747387
O O13 0.144682 0.525716 0.000000
O O14 0.811215 0.528417 0.500000
O O15 0.758447 0.516893 0.264261
O O16 0.091699 0.183397 0.242945
O O17 0.000000 0.158290 0.242525
O O18 0.051805 0.193350 0.000000
#
# Coordination Sequence:
#
# PCOD9587547 Si02
#       6
#    24  24  24  24  24  24
#     4  10  20  32  46  67  96 128 162 199 239 285
#     4  10  19  30  47  71  98 130 167 204 241 280
#     4   8  15  28  45  67  95 125 158 195 231 268
#     4   9  18  32  51  75  98 122 157 199 242 289
#     4  10  20  33  50  72  97 127 162 198 241 293
#     4   9  18  33  52  72  94 123 160 199 239 287
#
# _framework density 17.270161000000002
#
# number of rings (size 3 to 8) (size 9 to 14) (size 15 to 20)
#    0.000    2.667    0.000    3.000    0.000    6.000 
#    0.000    3.333    0.000   12.500    0.000    5.833 
#    0.000    0.000    0.000    4.167    0.000    4.333 
#
# Total GULP energy -802990.760857 kJ/mol
# GULP energy per Si atom -5576.324728 kJ/mol
# Density = 1.723085 g / cm^3
# Si number density = 17.270161 Si / 1000 Ang^3
#
#
#
# Elastic Constant Matrix: (Units=GPa)
#
#
# Indices 1 2 3 4 5 6 
#
# 1 95.9489 72.5385 15.2997 0.0000 0.0000 0.0000
# 2 72.5385 95.9489 15.2997 0.0000 0.0000 0.0000
# 3 15.2997 15.2997 15.6821 0.0000 0.0000 0.0000
# 4 0.0000 0.0000 0.0000 3.2049 0.0000 0.0000
# 5 0.0000 0.0000 0.0000 0.0000 3.2049 0.0000
# 6 0.0000 0.0000 0.0000 0.0000 0.0000 11.7052
#
#
#
# Elastic Compliance Matrix: (Units=1/GPa)
#
#
# Indices 1 2 3 4 5 6 
#
# 1 0.024965 -0.017751 -0.007037 0.000000 0.000000 0.000000
# 2 -0.017751 0.024965 -0.007037 0.000000 0.000000 0.000000
# 3 -0.007037 -0.007037 0.077498 0.000000 0.000000 0.000000
# 4 0.000000 0.000000 0.000000 0.312021 0.000000 0.000000
# 5 0.000000 0.000000 0.000000 0.000000 0.312021 0.000000
# 6 0.000000 0.000000 0.000000 0.000000 0.000000 0.085432
#
#
# Mechanical properties :
#
#
# Convention : Reuss Voigt Hill
#
# Bulk Modulus (GPa) = 15.68002 45.98396 30.83199
# Shear Modulus (GPa) = 5.42409 10.58581 8.00495
#
# Velocity S-wave (km/s) = 1.77413 2.47848 2.15527
# Velocity P-wave (km/s) = 3.64633 5.90546 4.90766
#
# Compressibility (1/GPa) = 0.06377544
#
# Stress axis : x y z
#
# Youngs Moduli (GPa) = 40.05666 40.05666 12.90351
#
# Poissons Ratio (x) = 0.71106 0.09081
# Poissons Ratio (y) = 0.71106 0.09081
# Poissons Ratio (z) = 0.28189 0.28189
#
# Static dielectric constant tensor:
#      x y z
#    x 1.578710 0.000000 0.000000 
#    y 0.000000 1.578710 0.000000 
#    z 0.000000 0.000000 1.585320 
# 
# From -- ./inp_files/1979.got.cif
#   From: 2010.05.17/outbox.cif.g08.bks.cpg/sg191_1_cif.got.tgz:1979.got - 2010.05.20 12:20:32.
