data_PCOD9587787
_publ_section_title
;
Structure prediction by ZEFSAII (Michael W. Deem and Ramdas Pophale) SiO2 
 PCOD9587787
Probable space group: P 6/M M M
;
_chemical_formula_sum "Si O2"
_cell_formula_units_Z 132
_cell_length_a 24.182412
_cell_length_b 24.182412
_cell_length_c 16.202789
_cell_angle_alpha 90.000000
_cell_angle_beta 90.000000
_cell_angle_gamma 120.000000
_cell_volume 8205.775674
_symmetry_space_group_name_H-M "P 6/M M M"
_symmetry_group_IT_number 191
_symmetry_cell_setting 'hexagonal'
loop_
_space_group_symop_operation_xyz
x,y,z
x-y,x,z
-y,x-y,z
-x,-y,z
-x+y,-x,z
y,-x+y,z
x-y,-y,-z
-x,-x+y,-z
y,x,-z
-y,-x,-z
-x+y,y,-z
x,x-y,-z
-x,-y,-z
-x+y,-x,-z
y,-x+y,-z
x,y,-z
x-y,x,-z
-y,x-y,-z
-x+y,y,z
x,x-y,z
-y,-x,z
y,x,z
x-y,-y,z
-x,-x+y,z
loop_
_atom_site_type_symbol
_atom_site_label
_atom_site_fract_x
_atom_site_fract_y
_atom_site_fract_z
Si Si1 0.262533 0.397835 0.829410
Si Si2 0.807515 0.737396 0.098351
Si Si3 0.402000 0.475259 0.400533
Si Si4 0.601822 0.075245 0.901312
Si Si5 0.793491 0.718944 0.500000
Si Si6 0.387758 0.130334 0.638311
O O1 0.209314 0.418627 0.842862
O O2 0.243115 0.336329 0.885793
O O3 0.333818 0.451203 0.851152
O O4 0.254800 0.373758 0.735347
O O5 0.874753 0.749505 0.132869
O O6 0.782101 0.782101 0.133185
O O7 0.814418 0.746887 0.000000
O O8 0.404281 0.475801 0.500000
O O9 0.453292 0.546709 0.371882
O O10 0.429461 0.429461 0.371965
O O11 0.328773 0.444616 0.377190
O O12 0.544362 0.088724 0.882130
O O13 0.574102 0.000000 0.884334
O O14 0.614100 0.084573 0.000000
O O15 0.774170 0.774170 0.500000
O O16 0.868636 0.737272 0.500000
O O17 0.760545 0.672459 0.579178
O O18 0.406527 0.203264 0.620465
#
# Coordination Sequence:
#
# PCOD9587787 Si02
#       6
#    24  24  24  24  12  24
#     4  10  20  31  45  69  96 122 156 194 232 277
#     4   9  17  29  45  65  90 119 149 183 225 272
#     4   9  17  29  46  68  91 115 146 185 227 270
#     4   9  18  32  49  70  96 124 154 190 233 280
#     4  10  20  34  51  70  95 127 159 193 237 287
#     4  10  20  32  47  68  95 126 157 192 235 280
#
# _framework density 16.08623
#
# number of rings (size 3 to 8) (size 9 to 14) (size 15 to 20)
#    0.000    2.545    0.909    2.727    0.000    6.182 
#    0.000    1.818    0.000    1.000    0.000    1.273 
#    0.000    0.000    0.000    9.091    0.000    4.727 
#
# Total GULP energy -735357.058238 kJ/mol
# GULP energy per Si atom -5570.886805 kJ/mol
# Density = 1.604962 g / cm^3
# Si number density = 16.086230 Si / 1000 Ang^3
#
#
#
# Elastic Constant Matrix: (Units=GPa)
#
#
# Indices 1 2 3 4 5 6 
#
# 1 96.8343 57.8952 23.4115 0.0000 0.0000 0.0000
# 2 57.8952 96.8343 23.4115 0.0000 0.0000 0.0000
# 3 23.4115 23.4115 30.9348 0.0000 0.0000 0.0000
# 4 0.0000 0.0000 0.0000 9.4903 0.0000 0.0000
# 5 0.0000 0.0000 0.0000 0.0000 9.4903 0.0000
# 6 0.0000 0.0000 0.0000 0.0000 0.0000 19.4695
#
#
#
# Elastic Compliance Matrix: (Units=1/GPa)
#
#
# Indices 1 2 3 4 5 6 
#
# 1 0.017032 -0.008649 -0.006344 0.000000 0.000000 0.000000
# 2 -0.008649 0.017032 -0.006344 0.000000 0.000000 0.000000
# 3 -0.006344 -0.006344 0.041928 0.000000 0.000000 0.000000
# 4 0.000000 0.000000 0.000000 0.105370 0.000000 0.000000
# 5 0.000000 0.000000 0.000000 0.000000 0.105370 0.000000
# 6 0.000000 0.000000 0.000000 0.000000 0.000000 0.051362
#
#
# Mechanical properties :
#
#
# Convention : Reuss Voigt Hill
#
# Bulk Modulus (GPa) = 30.01413 48.22665 39.12039
# Shear Modulus (GPa) = 12.75915 15.68238 14.22077
#
# Velocity S-wave (km/s) = 2.81939 3.12572 2.97650
# Velocity P-wave (km/s) = 5.41270 6.56293 6.01537
#
# Compressibility (1/GPa) = 0.03331765
#
# Stress axis : x y z
#
# Youngs Moduli (GPa) = 58.71334 58.71334 23.85019
#
# Poissons Ratio (x) = 0.50783 0.15131
# Poissons Ratio (y) = 0.50783 0.15131
# Poissons Ratio (z) = 0.37248 0.37248
#
# Static dielectric constant tensor:
#      x y z
#    x 1.543560 0.000000 0.000000 
#    y 0.000000 1.543560 0.000000 
#    z 0.000000 0.000000 1.575930 
# 
# From -- ./inp_files/4934.got.cif
#   From: 2010.05.17/outbox.cif.g08.bks.cpg/sg191_3_cif.got.tgz:4934.got - 2010.05.20 12:20:32.
