data_PCOD9587290
_publ_section_title
;
Structure prediction by ZEFSAII (Michael W. Deem and Ramdas Pophale) SiO2 
 PCOD9587290
Probable space group: P 6/M M M
;
_chemical_formula_sum "Si O2"
_cell_formula_units_Z 84
_cell_length_a 18.875146
_cell_length_b 18.875146
_cell_length_c 16.909585
_cell_angle_alpha 90.000000
_cell_angle_beta 90.000000
_cell_angle_gamma 120.000000
_cell_volume 5217.280902
_symmetry_space_group_name_H-M "P 6/M M M"
_symmetry_group_IT_number 191
_symmetry_cell_setting 'hexagonal'
loop_
_space_group_symop_operation_xyz
x,y,z
x-y,x,z
-y,x-y,z
-x,-y,z
-x+y,-x,z
y,-x+y,z
x-y,-y,-z
-x,-x+y,-z
y,x,-z
-y,-x,-z
-x+y,y,-z
x,x-y,-z
-x,-y,-z
-x+y,-x,-z
y,-x+y,-z
x,y,-z
x-y,x,-z
-y,x-y,-z
-x+y,y,z
x,x-y,z
-y,-x,z
y,x,z
x-y,-y,z
-x,-x+y,z
loop_
_atom_site_type_symbol
_atom_site_label
_atom_site_fract_x
_atom_site_fract_y
_atom_site_fract_z
Si Si1 0.466575 0.094974 0.333101
Si Si2 0.667596 0.498569 0.166437
Si Si3 0.095698 0.904303 0.596197
Si Si4 0.808495 0.616990 0.594800
Si Si5 0.093281 0.632888 0.000000
O O1 0.561107 0.122213 0.352220
O O2 0.463855 0.105542 0.238283
O O3 0.430242 0.145908 0.374114
O O4 0.412783 0.000000 0.354658
O O5 0.750956 0.501911 0.188730
O O6 0.595073 0.404928 0.158610
O O7 0.675718 0.539568 0.081459
O O8 0.095472 0.904529 0.500000
O O9 0.143532 0.856469 0.620656
O O10 0.000000 0.856384 0.621037
O O11 0.808340 0.616680 0.500000
O O12 0.092473 0.546237 0.000000
O O13 0.000000 0.610531 0.000000
#
# Coordination Sequence:
#
# PCOD9587290 Si02
#       5
#    24  24  12  12  12
#     4  10  21  37  55  74 101 138 176 213 258 310
#     4  10  18  30  48  72 100 130 165 206 251 297
#     4   9  17  30  51  78 105 129 155 197 259 327
#     4  11  22  37  54  76 101 131 174 225 267 308
#     4   9  17  28  44  68  98 131 166 201 240 293
#
# _framework density 16.100341
#
# number of rings (size 3 to 8) (size 9 to 14) (size 15 to 20)
#    0.000    2.143    1.429    2.571    0.000    6.286 
#    0.857    2.857    0.000    0.000    0.000    0.000 
#    0.000    0.000    0.000    0.000    0.000    0.000 
#
# Total GULP energy -468179.283664 kJ/mol
# GULP energy per Si atom -5573.562901 kJ/mol
# Density = 1.606370 g / cm^3
# Si number density = 16.100341 Si / 1000 Ang^3
#
#
#
# Elastic Constant Matrix: (Units=GPa)
#
#
# Indices 1 2 3 4 5 6 
#
# 1 108.3478 65.8061 29.1252 0.0000 0.0000 0.0000
# 2 65.8061 108.3478 29.1252 0.0000 0.0000 0.0000
# 3 29.1252 29.1252 51.8034 0.0000 0.0000 0.0000
# 4 0.0000 0.0000 0.0000 17.7746 0.0000 0.0000
# 5 0.0000 0.0000 0.0000 0.0000 17.7746 0.0000
# 6 0.0000 0.0000 0.0000 0.0000 0.0000 21.2709
#
#
#
# Elastic Compliance Matrix: (Units=1/GPa)
#
#
# Indices 1 2 3 4 5 6 
#
# 1 0.015289 -0.008217 -0.003976 0.000000 0.000000 0.000000
# 2 -0.008217 0.015289 -0.003976 0.000000 0.000000 0.000000
# 3 -0.003976 -0.003976 0.023775 0.000000 0.000000 0.000000
# 4 0.000000 0.000000 0.000000 0.056260 0.000000 0.000000
# 5 0.000000 0.000000 0.000000 0.000000 0.056260 0.000000
# 6 0.000000 0.000000 0.000000 0.000000 0.000000 0.047013
#
#
# Mechanical properties :
#
#
# Convention : Reuss Voigt Hill
#
# Bulk Modulus (GPa) = 45.42486 57.40132 51.41309
# Shear Modulus (GPa) = 19.71902 20.99351 20.35626
#
# Velocity S-wave (km/s) = 3.50345 3.61490 3.55961
# Velocity P-wave (km/s) = 6.68135 7.29061 6.99262
#
# Compressibility (1/GPa) = 0.02201438
#
# Stress axis : x y z
#
# Youngs Moduli (GPa) = 65.40593 65.40593 42.06173
#
# Poissons Ratio (x) = 0.53745 0.16724
# Poissons Ratio (y) = 0.53745 0.16724
# Poissons Ratio (z) = 0.26006 0.26006
#
# Static dielectric constant tensor:
#      x y z
#    x 1.529380 0.000000 0.000000 
#    y 0.000000 1.529380 0.000000 
#    z 0.000000 0.000000 1.548030 
# 
# From -- ./inp_files/4023.got.cif
#   From: 2010.05.17/outbox.cif.g08.bks.cpg/sg191_3_cif.got.tgz:4023.got - 2010.05.20 12:20:32.
