data_PCOD9587310
_publ_section_title
;
Structure prediction by ZEFSAII (Michael W. Deem and Ramdas Pophale) SiO2 
 PCOD9587310
Probable space group: P 6/M M M
;
_chemical_formula_sum "Si O2"
_cell_formula_units_Z 180
_cell_length_a 21.906894
_cell_length_b 21.906894
_cell_length_c 30.175290
_cell_angle_alpha 90.000000
_cell_angle_beta 90.000000
_cell_angle_gamma 120.000000
_cell_volume 12541.332957
_symmetry_space_group_name_H-M "P 6/M M M"
_symmetry_group_IT_number 191
_symmetry_cell_setting 'hexagonal'
loop_
_space_group_symop_operation_xyz
x,y,z
x-y,x,z
-y,x-y,z
-x,-y,z
-x+y,-x,z
y,-x+y,z
x-y,-y,-z
-x,-x+y,-z
y,x,-z
-y,-x,-z
-x+y,y,-z
x,x-y,-z
-x,-y,-z
-x+y,-x,-z
y,-x+y,-z
x,y,-z
x-y,x,-z
-y,x-y,-z
-x+y,y,z
x,x-y,z
-y,-x,z
y,x,z
x-y,-y,z
-x,-x+y,z
loop_
_atom_site_type_symbol
_atom_site_label
_atom_site_fract_x
_atom_site_fract_y
_atom_site_fract_z
Si Si1 0.386100 0.467025 0.627293
Si Si2 0.475912 0.664668 0.199948
Si Si3 0.542491 0.084982 0.950072
Si Si4 0.782165 0.079119 0.872928
Si Si5 0.783818 0.706114 0.233945
Si Si6 0.916487 0.355015 0.119720
Si Si7 0.667005 0.478903 0.550341
Si Si8 0.918341 0.349599 0.272906
O O1 0.457157 0.542844 0.632477
O O2 0.411948 0.411948 0.615800
O O3 0.341715 0.474909 0.588098
O O4 0.349666 0.446225 0.675148
O O5 0.486457 0.743229 0.201276
O O6 0.394228 0.605773 0.194487
O O7 0.520289 0.655785 0.160136
O O8 0.505870 0.646239 0.243740
O O9 0.610733 0.102737 0.920993
O O10 0.500000 0.000000 0.953178
O O11 0.556757 0.113513 0.000000
O O12 0.858608 0.141393 0.886064
O O13 0.776287 0.082019 0.819268
O O14 0.719683 0.090157 0.891392
O O15 0.763442 0.000000 0.884090
O O16 0.859330 0.718660 0.247121
O O17 0.769850 0.769850 0.243622
O O18 0.722035 0.637323 0.257211
O O19 0.000000 0.407188 0.131437
O O20 0.665912 0.503439 0.500000
O O21 0.738178 0.476355 0.556077
O O22 0.599624 0.400377 0.554019
O O23 0.000000 0.411629 0.265249
#
# Coordination Sequence:
#
# PCOD9587310 Si02
#       8
#    24  24  12  24  24  24  24  24
#     4   9  18  31  44  61  84 109 137 174 222 270
#     4  12  23  33  44  62  88 120 150 181 216 263
#     4   9  18  32  50  74  98 116 142 184 233 279
#     4   9  16  27  44  68  94 119 150 187 226 266
#     4   9  16  26  41  62  87 114 143 176 213 253
#     4  10  18  30  50  72  89 112 146 187 230 269
#     4   9  17  29  45  63  82 107 142 180 215 253
#     4  10  19  31  47  65  86 111 143 184 227 267
#
# _framework density 14.352542
#
# number of rings (size 3 to 8) (size 9 to 14) (size 15 to 20)
#    0.000    2.333    2.000    1.867    0.000    3.200 
#    0.000    1.333    0.000    3.467    0.000    1.867 
#    0.000    0.000    0.000    0.000    0.000    0.000 
#
# Total GULP energy -1002864.357893 kJ/mol
# GULP energy per Si atom -5571.468655 kJ/mol
# Density = 1.431987 g / cm^3
# Si number density = 14.352542 Si / 1000 Ang^3
#
#
#
# Elastic Constant Matrix: (Units=GPa)
#
#
# Indices 1 2 3 4 5 6 
#
# 1 80.4277 45.3052 40.8613 0.0000 0.0000 0.0000
# 2 45.3052 80.4277 40.8613 0.0000 0.0000 0.0000
# 3 40.8613 40.8613 65.3903 0.0000 0.0000 0.0000
# 4 0.0000 0.0000 0.0000 11.7333 0.0000 0.0000
# 5 0.0000 0.0000 0.0000 0.0000 11.7333 0.0000
# 6 0.0000 0.0000 0.0000 0.0000 0.0000 17.5612
#
#
#
# Elastic Compliance Matrix: (Units=1/GPa)
#
#
# Indices 1 2 3 4 5 6 
#
# 1 0.020932 -0.007539 -0.008369 0.000000 0.000000 0.000000
# 2 -0.007539 0.020932 -0.008369 0.000000 0.000000 0.000000
# 3 -0.008369 -0.008369 0.025752 0.000000 0.000000 0.000000
# 4 0.000000 0.000000 0.000000 0.085227 0.000000 0.000000
# 5 0.000000 0.000000 0.000000 0.000000 0.085227 0.000000
# 6 0.000000 0.000000 0.000000 0.000000 0.000000 0.056944
#
#
# Mechanical properties :
#
#
# Convention : Reuss Voigt Hill
#
# Bulk Modulus (GPa) = 52.46060 53.36680 52.91370
# Shear Modulus (GPa) = 14.28880 14.82010 14.55445
#
# Velocity S-wave (km/s) = 3.15867 3.21686 3.18790
# Velocity P-wave (km/s) = 7.06638 7.14571 7.10615
#
# Compressibility (1/GPa) = 0.01906192
#
# Stress axis : x y z
#
# Youngs Moduli (GPa) = 47.77283 47.77283 38.83175
#
# Poissons Ratio (x) = 0.36018 0.32498
# Poissons Ratio (y) = 0.36018 0.32498
# Poissons Ratio (z) = 0.39981 0.39981
#
# Static dielectric constant tensor:
#      x y z
#    x 1.474760 0.000000 0.000000 
#    y 0.000000 1.474760 0.000000 
#    z 0.000000 0.000000 1.465970 
# 
# From -- ./inp_files/10890.got.cif
#   From: 2010.05.17/outbox.cif.g08.bks.cpg/sg191_6_cif.got.tgz:10890.got - 2010.05.20 12:20:32.
