data_PCOD9587493
_publ_section_title
;
Structure prediction by ZEFSAII (Michael W. Deem and Ramdas Pophale) SiO2 
 PCOD9587493
Probable space group: P 6/M M M
;
_chemical_formula_sum "Si O2"
_cell_formula_units_Z 132
_cell_length_a 18.044463
_cell_length_b 18.044463
_cell_length_c 28.790817
_cell_angle_alpha 90.000000
_cell_angle_beta 90.000000
_cell_angle_gamma 120.000000
_cell_volume 8118.439244
_symmetry_space_group_name_H-M "P 6/M M M"
_symmetry_group_IT_number 191
_symmetry_cell_setting 'hexagonal'
loop_
_space_group_symop_operation_xyz
x,y,z
x-y,x,z
-y,x-y,z
-x,-y,z
-x+y,-x,z
y,-x+y,z
x-y,-y,-z
-x,-x+y,-z
y,x,-z
-y,-x,-z
-x+y,y,-z
x,x-y,-z
-x,-y,-z
-x+y,-x,-z
y,-x+y,-z
x,y,-z
x-y,x,-z
-y,x-y,-z
-x+y,y,z
x,x-y,z
-y,-x,z
y,x,z
x-y,-y,z
-x,-x+y,z
loop_
_atom_site_type_symbol
_atom_site_label
_atom_site_fract_x
_atom_site_fract_y
_atom_site_fract_z
Si Si1 0.636087 0.532390 0.947802
Si Si2 0.491226 0.158554 0.227327
Si Si3 0.269633 0.366725 0.314895
Si Si4 0.836507 0.505419 0.398882
Si Si5 0.366718 0.099922 0.859553
Si Si6 0.459000 0.361608 0.500000
O O1 0.566730 0.433271 0.938035
O O2 0.581598 0.581598 0.948731
O O3 0.702780 0.578287 0.906970
O O4 0.670760 0.538775 0.000000
O O5 0.574508 0.149016 0.227400
O O6 0.516428 0.258214 0.226896
O O7 0.433017 0.117290 0.272714
O O8 0.431942 0.115481 0.182462
O O9 0.170030 0.340059 0.313075
O O10 0.291215 0.291215 0.311479
O O11 0.308744 0.419822 0.362253
O O12 0.737016 0.474032 0.390222
O O13 0.854120 0.427060 0.393207
O O14 0.858387 0.539095 0.451652
O O15 0.332950 0.166475 0.852760
O O16 0.295814 0.000000 0.861148
O O17 0.383420 0.383420 0.500000
O O18 0.548010 0.451991 0.500000
#
# Coordination Sequence:
#
# PCOD9587493 Si02
#       6
#    24  24  24  24  24  12
#     4   8  14  26  45  68  92 117 146 181 222 271
#     4  10  20  33  50  73 101 130 157 185 220 265
#     4  10  21  35  51  71  94 122 155 193 235 276
#     4  10  19  30  45  66  94 127 161 195 231 273
#     4  10  20  32  47  68  93 122 157 198 241 281
#     4   9  17  28  42  60  84 119 163 205 237 266
#
# _framework density 16.259283
#
# number of rings (size 3 to 8) (size 9 to 14) (size 15 to 20)
#    0.000    2.455    0.000    3.364    0.000    4.364 
#    0.000    2.727    0.000    0.727    0.000    0.000 
#    0.000    4.364    0.000    4.545    0.000   18.909 
#
# Total GULP energy -735904.932808 kJ/mol
# GULP energy per Si atom -5575.037370 kJ/mol
# Density = 1.622228 g / cm^3
# Si number density = 16.259283 Si / 1000 Ang^3
#
#
#
# Elastic Constant Matrix: (Units=GPa)
#
#
# Indices 1 2 3 4 5 6 
#
# 1 84.7573 65.2685 36.8050 0.0000 0.0000 0.0000
# 2 65.2685 84.7573 36.8050 0.0000 0.0000 0.0000
# 3 36.8050 36.8050 103.4887 0.0000 0.0000 0.0000
# 4 0.0000 0.0000 0.0000 19.3906 0.0000 0.0000
# 5 0.0000 0.0000 0.0000 0.0000 19.3906 0.0000
# 6 0.0000 0.0000 0.0000 0.0000 0.0000 9.7444
#
#
#
# Elastic Compliance Matrix: (Units=1/GPa)
#
#
# Indices 1 2 3 4 5 6 
#
# 1 0.029693 -0.021618 -0.002872 0.000000 0.000000 0.000000
# 2 -0.021618 0.029693 -0.002872 0.000000 0.000000 0.000000
# 3 -0.002872 -0.002872 0.011705 0.000000 0.000000 0.000000
# 4 0.000000 0.000000 0.000000 0.051571 0.000000 0.000000
# 5 0.000000 0.000000 0.000000 0.000000 0.051571 0.000000
# 6 0.000000 0.000000 0.000000 0.000000 0.000000 0.102623
#
#
# Mechanical properties :
#
#
# Convention : Reuss Voigt Hill
#
# Bulk Modulus (GPa) = 61.09527 61.19560 61.14543
# Shear Modulus (GPa) = 14.83520 18.64679 16.74100
#
# Velocity S-wave (km/s) = 3.02390 3.39018 3.21226
# Velocity P-wave (km/s) = 7.06039 7.28309 7.17261
#
# Compressibility (1/GPa) = 0.01636788
#
# Stress axis : x y z
#
# Youngs Moduli (GPa) = 33.67802 33.67802 85.43033
#
# Poissons Ratio (x) = 0.72807 0.24532
# Poissons Ratio (y) = 0.72807 0.24532
# Poissons Ratio (z) = 0.09671 0.09671
#
# Static dielectric constant tensor:
#      x y z
#    x 1.534030 0.000000 0.000000 
#    y 0.000000 1.534030 0.000000 
#    z 0.000000 0.000000 1.563440 
# 
# From -- ./inp_files/9767.got.cif
#   From: 2010.05.17/outbox.cif.g08.bks.cpg/sg191_5_cif.got.tgz:9767.got - 2010.05.20 12:20:32.
