data_PCOD9587176
_publ_section_title
;
Structure prediction by ZEFSAII (Michael W. Deem and Ramdas Pophale) SiO2 
 PCOD9587176
Probable space group: P 6/M M M
;
_chemical_formula_sum "Si O2"
_cell_formula_units_Z 168
_cell_length_a 23.171916
_cell_length_b 23.171916
_cell_length_c 21.410930
_cell_angle_alpha 90.000000
_cell_angle_beta 90.000000
_cell_angle_gamma 120.000000
_cell_volume 9956.118436
_symmetry_space_group_name_H-M "P 6/M M M"
_symmetry_group_IT_number 191
_symmetry_cell_setting 'hexagonal'
loop_
_space_group_symop_operation_xyz
x,y,z
x-y,x,z
-y,x-y,z
-x,-y,z
-x+y,-x,z
y,-x+y,z
x-y,-y,-z
-x,-x+y,-z
y,x,-z
-y,-x,-z
-x+y,y,-z
x,x-y,-z
-x,-y,-z
-x+y,-x,-z
y,-x+y,-z
x,y,-z
x-y,x,-z
-y,x-y,-z
-x+y,y,z
x,x-y,z
-y,-x,z
y,x,z
x-y,-y,z
-x,-x+y,z
loop_
_atom_site_type_symbol
_atom_site_label
_atom_site_fract_x
_atom_site_fract_y
_atom_site_fract_z
Si Si1 0.284174 0.208291 0.250802
Si Si2 0.587606 0.921141 0.692430
Si Si3 0.849919 0.285748 0.069830
Si Si4 0.567634 0.851531 0.570518
Si Si5 0.076341 0.792475 0.101728
Si Si6 0.198715 0.926384 0.573267
Si Si7 0.392326 0.922376 0.175873
O O1 0.267359 0.133680 0.263756
O O2 0.227256 0.227256 0.262574
O O3 0.350397 0.261064 0.287912
O O4 0.297612 0.218469 0.176356
O O5 0.548796 0.878052 0.631887
O O6 0.543732 0.905278 0.754707
O O7 0.620223 0.000000 0.678637
O O8 0.775375 0.224626 0.081898
O O9 0.896675 0.252337 0.070933
O O10 0.876494 0.340637 0.123539
O O11 0.852302 0.312350 0.000000
O O12 0.547817 0.860582 0.500000
O O13 0.549953 0.774977 0.576572
O O14 0.648364 0.895295 0.573309
O O15 0.130458 0.869543 0.088370
O O16 0.000000 0.767421 0.085085
O O17 0.187346 0.932200 0.500000
O O18 0.128177 0.871824 0.600598
O O19 0.234424 0.000000 0.600537
O O20 0.459186 0.918371 0.173424
O O21 0.413816 0.000000 0.164832
#
# Coordination Sequence:
#
# PCOD9587176 Si02
#       7
#    24  24  24  24  24  24  24
#     4   9  16  26  42  64  90 123 164 208 253 298
#     4  10  18  28  45  67  92 125 162 200 243 293
#     4  10  20  33  52  78 105 134 169 208 249 292
#     4   9  17  27  41  65  93 118 148 190 241 292
#     4   9  16  27  43  65  95 129 168 213 259 303
#     4   8  13  21  32  47  71 104 141 182 230 283
#     4  10  21  36  53  76 106 137 168 200 239 291
#
# _framework density 16.874046
#
# number of rings (size 3 to 8) (size 9 to 14) (size 15 to 20)
#    0.000    2.714    1.429    2.143    0.000    2.857 
#    0.000    0.714    0.000    1.143    0.000    5.000 
#    0.000    0.000    0.000    8.143    0.000   31.857 
#
# Total GULP energy -936109.598759 kJ/mol
# GULP energy per Si atom -5572.080945 kJ/mol
# Density = 1.683564 g / cm^3
# Si number density = 16.874046 Si / 1000 Ang^3
#
#
#
# Elastic Constant Matrix: (Units=GPa)
#
#
# Indices 1 2 3 4 5 6 
#
# 1 44.7420 16.9467 38.8077 0.0000 0.0000 0.0000
# 2 16.9467 44.7420 38.8077 0.0000 0.0000 0.0000
# 3 38.8077 38.8077 145.2417 0.0000 0.0000 0.0000
# 4 0.0000 0.0000 0.0000 2.7993 0.0000 0.0000
# 5 0.0000 0.0000 0.0000 0.0000 2.7993 0.0000
# 6 0.0000 0.0000 0.0000 0.0000 0.0000 13.8976
#
#
#
# Elastic Compliance Matrix: (Units=1/GPa)
#
#
# Indices 1 2 3 4 5 6 
#
# 1 0.030199 -0.005779 -0.006525 0.000000 0.000000 0.000000
# 2 -0.005779 0.030199 -0.006525 0.000000 0.000000 0.000000
# 3 -0.006525 -0.006525 0.010372 0.000000 0.000000 0.000000
# 4 0.000000 0.000000 0.000000 0.357233 0.000000 0.000000
# 5 0.000000 0.000000 0.000000 0.000000 0.357233 0.000000
# 6 0.000000 0.000000 0.000000 0.000000 0.000000 0.071955
#
#
# Mechanical properties :
#
#
# Convention : Reuss Voigt Hill
#
# Bulk Modulus (GPa) = 30.20040 47.09445 38.64743
# Shear Modulus (GPa) = 5.51947 13.24349 9.38148
#
# Velocity S-wave (km/s) = 1.81055 2.80455 2.36046
# Velocity P-wave (km/s) = 4.72305 6.20139 5.51201
#
# Compressibility (1/GPa) = 0.03311214
#
# Stress axis : x y z
#
# Youngs Moduli (GPa) = 33.11419 33.11419 96.41482
#
# Poissons Ratio (x) = 0.19136 0.62909
# Poissons Ratio (y) = 0.19136 0.62909
# Poissons Ratio (z) = 0.21606 0.21606
#
# Static dielectric constant tensor:
#      x y z
#    x 1.560370 0.000000 0.000000 
#    y 0.000000 1.560370 0.000000 
#    z 0.000000 0.000000 1.644170 
# 
# From -- ./inp_files/7941.got.cif
#   From: 2010.05.17/outbox.cif.g08.bks.cpg/sg191_4_cif.got.tgz:7941.got - 2010.05.20 12:20:32.
