data_PCOD9587749
_publ_section_title
;
Structure prediction by ZEFSAII (Michael W. Deem and Ramdas Pophale) SiO2 
 PCOD9587749
Probable space group: P 6/M M M
;
_chemical_formula_sum "Si O2"
_cell_formula_units_Z 96
_cell_length_a 17.418682
_cell_length_b 17.418682
_cell_length_c 20.504359
_cell_angle_alpha 90.000000
_cell_angle_beta 90.000000
_cell_angle_gamma 120.000000
_cell_volume 5387.749683
_symmetry_space_group_name_H-M "P 6/M M M"
_symmetry_group_IT_number 191
_symmetry_cell_setting 'hexagonal'
loop_
_space_group_symop_operation_xyz
x,y,z
x-y,x,z
-y,x-y,z
-x,-y,z
-x+y,-x,z
y,-x+y,z
x-y,-y,-z
-x,-x+y,-z
y,x,-z
-y,-x,-z
-x+y,y,-z
x,x-y,-z
-x,-y,-z
-x+y,-x,-z
y,-x+y,-z
x,y,-z
x-y,x,-z
-y,x-y,-z
-x+y,y,z
x,x-y,z
-y,-x,z
y,x,z
x-y,-y,z
-x,-x+y,z
loop_
_atom_site_type_symbol
_atom_site_label
_atom_site_fract_x
_atom_site_fract_y
_atom_site_fract_z
Si Si1 0.000000 0.700967 0.071745
Si Si2 0.666228 0.155419 0.110879
Si Si3 0.819091 0.000000 0.422495
Si Si4 0.000000 0.302801 0.687806
Si Si5 0.183158 0.183158 0.807237
Si Si6 0.666165 0.510697 0.267823
O O1 0.085108 0.688505 0.079728
O O2 0.000000 0.763446 0.128672
O O3 0.000000 0.736527 0.000000
O O4 0.571659 0.143317 0.091152
O O5 0.745320 0.254681 0.097345
O O6 0.663759 0.141488 0.189378
O O7 0.742599 0.000000 0.379755
O O8 0.912344 0.087657 0.407089
O O9 0.803765 0.000000 0.500000
O O10 0.085613 0.398849 0.698039
O O11 0.000000 0.239314 0.745008
O O12 0.175845 0.087923 0.806124
O O13 0.745345 0.490690 0.280356
O O14 0.571934 0.428067 0.286905
#
# Coordination Sequence:
#
# PCOD9587749 Si02
#       6
#    12  24  12  12  12  24
#     4  12  25  40  58  77 105 146 188 229 280 341
#     4  10  20  36  57  82 110 142 182 230 285 341
#     4  10  21  37  58  86 121 158 192 230 281 340
#     4  12  21  35  61  90 117 147 187 233 280 329
#     4  12  25  42  61  83 108 138 179 228 281 334
#     4  10  19  33  55  85 118 152 188 231 281 334
#
# _framework density 17.818200999999998
#
# number of rings (size 3 to 8) (size 9 to 14) (size 15 to 20)
#    0.000    1.250    2.500    4.500    0.000    7.500 
#    0.000    1.250    0.000    3.750    0.000    0.000 
#    0.000    2.000    0.000    0.000    0.000    0.000 
#
# Total GULP energy -536832.086148 kJ/mol
# GULP energy per Si atom -5592.000897 kJ/mol
# Density = 1.777765 g / cm^3
# Si number density = 17.818201 Si / 1000 Ang^3
#
#
#
# Elastic Constant Matrix: (Units=GPa)
#
#
# Indices 1 2 3 4 5 6 
#
# 1 83.8168 92.2315 39.5642 0.0000 0.0000 0.0000
# 2 92.2315 83.8168 39.5642 0.0000 0.0000 0.0000
# 3 39.5642 39.5642 46.0820 0.0000 0.0000 0.0000
# 4 0.0000 0.0000 0.0000 -15.9651 0.0000 0.0000
# 5 0.0000 0.0000 0.0000 0.0000 -15.9651 0.0000
# 6 0.0000 0.0000 0.0000 0.0000 0.0000 -4.2074
#
#
#
# Elastic Compliance Matrix: (Units=1/GPa)
#
#
# Indices 1 2 3 4 5 6 
#
# 1 -0.054795 0.064044 -0.007941 0.000000 0.000000 0.000000
# 2 0.064044 -0.054795 -0.007941 0.000000 0.000000 0.000000
# 3 -0.007941 -0.007941 0.035337 0.000000 0.000000 0.000000
# 4 0.000000 0.000000 0.000000 -0.062637 0.000000 0.000000
# 5 0.000000 0.000000 0.000000 0.000000 -0.062637 0.000000
# 6 0.000000 0.000000 0.000000 0.000000 0.000000 -0.237677
#
#
# Mechanical properties :
#
#
# Convention : Reuss Voigt Hill
#
# Bulk Modulus (GPa) = 45.30929 61.82616 53.56773
# Shear Modulus (GPa) = -9.50266 -4.40382 -6.95324
#
# Velocity S-wave (km/s) = -2.31186 -1.57381 -1.97757
# Velocity P-wave (km/s) = 4.28458 5.60991 4.99143
#
# Compressibility (1/GPa) = 0.02207053
#
# Stress axis : x y z
#
# Youngs Moduli (GPa) = -18.25001 -18.25001 28.29906
#
# Poissons Ratio (x) = 1.16881 0.22474
# Poissons Ratio (y) = 1.16881 0.22474
# Poissons Ratio (z) = -0.14493 -0.14493
#
# Static dielectric constant tensor:
#      x y z
#    x 1.594020 0.000000 0.000000 
#    y 0.000000 1.594020 0.000000 
#    z 0.000000 0.000000 1.595870 
# 
# From -- ./inp_files/7251.got.cif
#   From: 2010.05.17/outbox.cif.g08.bks.cpg/sg191_4_cif.got.tgz:7251.got - 2010.05.20 12:20:32.
