data_PCOD9587941
_publ_section_title
;
Structure prediction by ZEFSAII (Michael W. Deem and Ramdas Pophale) SiO2 
 PCOD9587941
Probable space group: P 6/M M M
;
_chemical_formula_sum "Si O2"
_cell_formula_units_Z 132
_cell_length_a 18.082615
_cell_length_b 18.082615
_cell_length_c 28.818037
_cell_angle_alpha 90.000000
_cell_angle_beta 90.000000
_cell_angle_gamma 120.000000
_cell_volume 8160.513693
_symmetry_space_group_name_H-M "P 6/M M M"
_symmetry_group_IT_number 191
_symmetry_cell_setting 'hexagonal'
loop_
_space_group_symop_operation_xyz
x,y,z
x-y,x,z
-y,x-y,z
-x,-y,z
-x+y,-x,z
y,-x+y,z
x-y,-y,-z
-x,-x+y,-z
y,x,-z
-y,-x,-z
-x+y,y,-z
x,x-y,-z
-x,-y,-z
-x+y,-x,-z
y,-x+y,-z
x,y,-z
x-y,x,-z
-y,x-y,-z
-x+y,y,z
x,x-y,z
-y,-x,z
y,x,z
x-y,-y,z
-x,-x+y,z
loop_
_atom_site_type_symbol
_atom_site_label
_atom_site_fract_x
_atom_site_fract_y
_atom_site_fract_z
Si Si1 0.508451 0.667604 0.910858
Si Si2 0.094158 0.358851 0.447574
Si Si3 0.841720 0.508115 0.367756
Si Si4 0.097235 0.729947 0.823371
Si Si5 0.098626 0.370403 0.000000
Si Si6 0.158728 0.666930 0.737810
O O1 0.481674 0.740837 0.911175
O O2 0.425612 0.574389 0.912015
O O3 0.565325 0.683900 0.865062
O O4 0.569613 0.686553 0.955088
O O5 0.104242 0.395065 0.500000
O O6 0.167949 0.335897 0.441195
O O7 0.106283 0.425422 0.407826
O O8 0.000000 0.279330 0.444399
O O9 0.745204 0.490408 0.371384
O O10 0.843422 0.421711 0.374072
O O11 0.870698 0.538509 0.314952
O O12 0.170416 0.829585 0.825128
O O13 0.110004 0.690841 0.775757
O O14 0.000000 0.707837 0.827499
O O15 0.171217 0.342434 0.000000
O O16 0.000000 0.296108 0.000000
O O17 0.151042 0.575521 0.746507
O O18 0.258096 0.741905 0.740625
#
# Coordination Sequence:
#
# PCOD9587941 Si02
#       6
#    24  24  24  24  12  24
#     4  10  20  33  50  73 102 134 164 192 224 267
#     4   9  18  32  48  65  86 113 145 182 226 274
#     4   9  17  29  45  66  93 125 158 188 217 252
#     4  10  21  35  50  69  93 122 155 193 237 280
#     4  10  21  35  51  72  97 127 162 202 247 287
#     4   9  17  29  46  68  95 126 157 187 219 258
#
# _framework density 16.175453000000001
#
# number of rings (size 3 to 8) (size 9 to 14) (size 15 to 20)
#    0.000    2.545    0.000    1.909    0.000    5.818 
#    0.000    5.455    0.000    1.545    0.000    1.273 
#    0.000    4.364    0.000    9.091    0.000    5.091 
#
# Total GULP energy -735886.744427 kJ/mol
# GULP energy per Si atom -5574.899579 kJ/mol
# Density = 1.613864 g / cm^3
# Si number density = 16.175453 Si / 1000 Ang^3
#
#
#
# Elastic Constant Matrix: (Units=GPa)
#
#
# Indices 1 2 3 4 5 6 
#
# 1 74.0098 75.8556 52.4667 0.0000 0.0000 0.0000
# 2 75.8556 74.0098 52.4667 0.0000 0.0000 0.0000
# 3 52.4667 52.4667 106.5313 0.0000 0.0000 0.0000
# 4 0.0000 0.0000 0.0000 13.5916 0.0000 0.0000
# 5 0.0000 0.0000 0.0000 0.0000 13.5916 0.0000
# 6 0.0000 0.0000 0.0000 0.0000 0.0000 -0.9229
#
#
#
# Elastic Compliance Matrix: (Units=1/GPa)
#
#
# Indices 1 2 3 4 5 6 
#
# 1 -0.265782 0.275966 -0.005016 0.000000 0.000000 0.000000
# 2 0.275966 -0.265782 -0.005016 0.000000 0.000000 0.000000
# 3 -0.005016 -0.005016 0.014328 0.000000 0.000000 0.000000
# 4 0.000000 0.000000 0.000000 0.073575 0.000000 0.000000
# 5 0.000000 0.000000 0.000000 0.000000 0.073575 0.000000
# 6 0.000000 0.000000 0.000000 0.000000 0.000000 -1.083496
#
#
# Mechanical properties :
#
#
# Convention : Reuss Voigt Hill
#
# Bulk Modulus (GPa) = 68.33768 68.45877 68.39823
# Shear Modulus (GPa) = -2.52452 10.16949 3.82248
#
# Velocity S-wave (km/s) = -1.25064 2.51011 1.53892
# Velocity P-wave (km/s) = 6.34461 7.12849 6.74794
#
# Compressibility (1/GPa) = 0.01463322
#
# Stress axis : x y z
#
# Youngs Moduli (GPa) = -3.76249 -3.76249 69.79497
#
# Poissons Ratio (x) = 1.03832 0.35009
# Poissons Ratio (y) = 1.03832 0.35009
# Poissons Ratio (z) = -0.01887 -0.01887
#
# Static dielectric constant tensor:
#      x y z
#    x 1.522370 0.000000 0.000000 
#    y 0.000000 1.522370 0.000000 
#    z 0.000000 0.000000 1.564460 
# 
# From -- ./inp_files/8707.got.cif
#   From: 2010.05.17/outbox.cif.g08.bks.cpg/sg191_5_cif.got.tgz:8707.got - 2010.05.20 12:20:32.
