data_PCOD9587933
_publ_section_title
;
Structure prediction by ZEFSAII (Michael W. Deem and Ramdas Pophale) SiO2 
 PCOD9587933
Probable space group: P 6/M M M
;
_chemical_formula_sum "Si O2"
_cell_formula_units_Z 120
_cell_length_a 18.340303
_cell_length_b 18.340303
_cell_length_c 24.183718
_cell_angle_alpha 90.000000
_cell_angle_beta 90.000000
_cell_angle_gamma 120.000000
_cell_volume 7044.768309
_symmetry_space_group_name_H-M "P 6/M M M"
_symmetry_group_IT_number 191
_symmetry_cell_setting 'hexagonal'
loop_
_space_group_symop_operation_xyz
x,y,z
x-y,x,z
-y,x-y,z
-x,-y,z
-x+y,-x,z
y,-x+y,z
x-y,-y,-z
-x,-x+y,-z
y,x,-z
-y,-x,-z
-x+y,y,-z
x,x-y,-z
-x,-y,-z
-x+y,-x,-z
y,-x+y,-z
x,y,-z
x-y,x,-z
-y,x-y,-z
-x+y,y,z
x,x-y,z
-y,-x,z
y,x,z
x-y,-y,z
-x,-x+y,z
loop_
_atom_site_type_symbol
_atom_site_label
_atom_site_fract_x
_atom_site_fract_y
_atom_site_fract_z
Si Si1 0.641066 0.737642 0.842536
Si Si2 0.000000 0.831293 0.567321
Si Si3 0.662137 0.000000 0.566286
Si Si4 0.332088 0.836786 0.382149
Si Si5 0.666169 0.503900 0.064472
Si Si6 0.899847 0.532678 0.259144
O O1 0.671307 0.835654 0.846656
O O2 0.713119 0.713119 0.839113
O O3 0.581338 0.691041 0.894938
O O4 0.581910 0.699243 0.788594
O O5 0.915587 0.831174 0.585235
O O6 0.000000 0.831921 0.500000
O O7 0.000000 0.746925 0.584632
O O8 0.580677 0.916964 0.588401
O O9 0.660843 0.000000 0.500000
O O10 0.416639 0.833278 0.393730
O O11 0.249010 0.750991 0.398511
O O12 0.330612 0.851379 0.316208
O O13 0.740547 0.481094 0.070140
O O14 0.576548 0.423453 0.078286
O O15 0.664476 0.525401 0.000000
O O16 0.881689 0.440845 0.239800
O O17 0.000000 0.586108 0.271601
#
# Coordination Sequence:
#
# PCOD9587933 Si02
#       6
#    24  12  12  24  24  24
#     4  10  20  33  50  73 100 132 171 216 261 305
#     4   9  17  31  53  81 109 135 165 204 249 297
#     4  11  23  39  57  77 103 139 176 209 253 313
#     4  11  22  37  56  79 106 137 174 217 261 306
#     4   9  17  29  46  71 105 143 177 207 244 296
#     4   9  17  32  54  79 105 133 164 201 248 301
#
# _framework density 17.033916999999999
#
# number of rings (size 3 to 8) (size 9 to 14) (size 15 to 20)
#    0.000    2.200    1.000    2.600    0.000    4.800 
#    0.000    1.000    0.000    7.800    0.000    0.000 
#    0.000    0.000    0.000    5.000    0.000    0.000 
#
# Total GULP energy -669657.736680 kJ/mol
# GULP energy per Si atom -5580.481139 kJ/mol
# Density = 1.699515 g / cm^3
# Si number density = 17.033917 Si / 1000 Ang^3
#
#
#
# Elastic Constant Matrix: (Units=GPa)
#
#
# Indices 1 2 3 4 5 6 
#
# 1 131.0031 89.0487 42.2063 0.0000 0.0000 0.0000
# 2 89.0487 131.0031 42.2063 0.0000 0.0000 0.0000
# 3 42.2063 42.2063 46.4747 0.0000 0.0000 0.0000
# 4 0.0000 0.0000 0.0000 20.7107 0.0000 0.0000
# 5 0.0000 0.0000 0.0000 0.0000 20.7107 0.0000
# 6 0.0000 0.0000 0.0000 0.0000 0.0000 20.9772
#
#
#
# Elastic Compliance Matrix: (Units=1/GPa)
#
#
# Indices 1 2 3 4 5 6 
#
# 1 0.015405 -0.008431 -0.006333 0.000000 0.000000 0.000000
# 2 -0.008431 0.015405 -0.006333 0.000000 0.000000 0.000000
# 3 -0.006333 -0.006333 0.033020 0.000000 0.000000 0.000000
# 4 0.000000 0.000000 0.000000 0.048284 0.000000 0.000000
# 5 0.000000 0.000000 0.000000 0.000000 0.048284 0.000000
# 6 0.000000 0.000000 0.000000 0.000000 0.000000 0.047671
#
#
# Mechanical properties :
#
#
# Convention : Reuss Voigt Hill
#
# Bulk Modulus (GPa) = 46.22196 72.82261 59.52228
# Shear Modulus (GPa) = 19.41929 21.48100 20.45014
#
# Velocity S-wave (km/s) = 3.38011 3.55501 3.46866
# Velocity P-wave (km/s) = 6.51365 7.72626 7.14573
#
# Compressibility (1/GPa) = 0.02163474
#
# Stress axis : x y z
#
# Youngs Moduli (GPa) = 64.91540 64.91540 30.28423
#
# Poissons Ratio (x) = 0.54729 0.19180
# Poissons Ratio (y) = 0.54729 0.19180
# Poissons Ratio (z) = 0.41113 0.41113
#
# Static dielectric constant tensor:
#      x y z
#    x 1.560230 0.000000 0.000000 
#    y 0.000000 1.560230 0.000000 
#    z 0.000000 0.000000 1.575550 
# 
# From -- ./inp_files/8594.got.cif
#   From: 2010.05.17/outbox.cif.g08.bks.cpg/sg191_5_cif.got.tgz:8594.got - 2010.05.20 12:20:32.
