data_PCOD9587664
_publ_section_title
;
Structure prediction by ZEFSAII (Michael W. Deem and Ramdas Pophale) SiO2 
 PCOD9587664
Probable space group: P 6/M M M
;
_chemical_formula_sum "Si O2"
_cell_formula_units_Z 144
_cell_length_a 22.870792
_cell_length_b 22.870792
_cell_length_c 18.682562
_cell_angle_alpha 90.000000
_cell_angle_beta 90.000000
_cell_angle_gamma 120.000000
_cell_volume 8463.099995
_symmetry_space_group_name_H-M "P 6/M M M"
_symmetry_group_IT_number 191
_symmetry_cell_setting 'hexagonal'
loop_
_space_group_symop_operation_xyz
x,y,z
x-y,x,z
-y,x-y,z
-x,-y,z
-x+y,-x,z
y,-x+y,z
x-y,-y,-z
-x,-x+y,-z
y,x,-z
-y,-x,-z
-x+y,y,-z
x,x-y,-z
-x,-y,-z
-x+y,-x,-z
y,-x+y,-z
x,y,-z
x-y,x,-z
-y,x-y,-z
-x+y,y,z
x,x-y,z
-y,-x,z
y,x,z
x-y,-y,z
-x,-x+y,z
loop_
_atom_site_type_symbol
_atom_site_label
_atom_site_fract_x
_atom_site_fract_y
_atom_site_fract_z
Si Si1 0.079752 0.472801 0.199223
Si Si2 0.666025 0.202019 0.583290
Si Si3 0.923610 0.206781 0.086917
Si Si4 0.712476 0.788886 0.418237
Si Si5 0.410154 0.272178 0.311880
Si Si6 0.288428 0.442390 0.085240
O O1 0.091592 0.545796 0.224125
O O2 0.101031 0.432506 0.254571
O O3 0.124854 0.481332 0.129796
O O4 0.000000 0.427751 0.183477
O O5 0.662616 0.183344 0.500000
O O6 0.592691 0.185382 0.607726
O O7 0.718038 0.281963 0.587926
O O8 0.697235 0.166854 0.629840
O O9 0.868177 0.131824 0.112039
O O10 0.893010 0.255396 0.102559
O O11 0.000000 0.238105 0.113630
O O12 0.925560 0.203913 0.000000
O O13 0.684114 0.768391 0.500000
O O14 0.733627 0.866814 0.411226
O O15 0.771818 0.771818 0.411818
O O16 0.657412 0.749296 0.356893
O O17 0.405925 0.202963 0.282806
O O18 0.230532 0.461064 0.102726
O O19 0.299476 0.449748 0.000000
#
# Coordination Sequence:
#
# PCOD9587664 Si02
#       6
#    24  24  24  24  24  24
#     4  11  23  35  48  69  98 129 156 187 233 287
#     4   9  16  26  42  64  89 118 156 203 250 291
#     4   8  13  22  39  63  88 113 142 178 218 259
#     4   9  17  30  50  75 101 130 165 204 243 282
#     4  10  19  32  49  67  92 127 166 204 239 277
#     4   9  18  34  55  74  90 112 147 192 239 286
#
# _framework density 17.015042000000001
#
# number of rings (size 3 to 8) (size 9 to 14) (size 15 to 20)
#    0.000    2.667    0.000    3.667    0.000    4.000 
#    0.000    0.833    0.000    4.000    0.000    9.333 
#    0.000    0.000    0.000    0.000    0.000   34.667 
#
# Total GULP energy -802115.261643 kJ/mol
# GULP energy per Si atom -5570.244873 kJ/mol
# Density = 1.697631 g / cm^3
# Si number density = 17.015042 Si / 1000 Ang^3
#
#
#
# Elastic Constant Matrix: (Units=GPa)
#
#
# Indices 1 2 3 4 5 6 
#
# 1 77.4664 37.8237 32.8123 0.0000 0.0000 0.0000
# 2 37.8237 77.4664 32.8123 0.0000 0.0000 0.0000
# 3 32.8123 32.8123 50.0835 0.0000 0.0000 0.0000
# 4 0.0000 0.0000 0.0000 18.8741 0.0000 0.0000
# 5 0.0000 0.0000 0.0000 0.0000 18.8741 0.0000
# 6 0.0000 0.0000 0.0000 0.0000 0.0000 19.8214
#
#
#
# Elastic Compliance Matrix: (Units=1/GPa)
#
#
# Indices 1 2 3 4 5 6 
#
# 1 0.019529 -0.005697 -0.009062 0.000000 0.000000 0.000000
# 2 -0.005697 0.019529 -0.009062 0.000000 0.000000 0.000000
# 3 -0.009062 -0.009062 0.031841 0.000000 0.000000 0.000000
# 4 0.000000 0.000000 0.000000 0.052983 0.000000 0.000000
# 5 0.000000 0.000000 0.000000 0.000000 0.052983 0.000000
# 6 0.000000 0.000000 0.000000 0.000000 0.000000 0.050451
#
#
# Mechanical properties :
#
#
# Convention : Reuss Voigt Hill
#
# Bulk Modulus (GPa) = 42.99879 45.76809 44.38344
# Shear Modulus (GPa) = 17.68611 18.28511 17.98561
#
# Velocity S-wave (km/s) = 3.22753 3.28173 3.25474
# Velocity P-wave (km/s) = 6.26220 6.42781 6.34554
#
# Compressibility (1/GPa) = 0.02325647
#
# Stress axis : x y z
#
# Youngs Moduli (GPa) = 51.20682 51.20682 31.40638
#
# Poissons Ratio (x) = 0.29171 0.28461
# Poissons Ratio (y) = 0.29171 0.28461
# Poissons Ratio (z) = 0.46404 0.46404
#
# Static dielectric constant tensor:
#      x y z
#    x 1.571370 0.000000 0.000000 
#    y 0.000000 1.571370 0.000000 
#    z 0.000000 0.000000 1.597440 
# 
# From -- ./inp_files/7617.got.cif
#   From: 2010.05.17/outbox.cif.g08.bks.cpg/sg191_4_cif.got.tgz:7617.got - 2010.05.20 12:20:32.
