data_PCOD9587401
_publ_section_title
;
Structure prediction by ZEFSAII (Michael W. Deem and Ramdas Pophale) SiO2 
 PCOD9587401
Probable space group: P 6/M M M
;
_chemical_formula_sum "Si O2"
_cell_formula_units_Z 168
_cell_length_a 32.833968
_cell_length_b 32.833968
_cell_length_c 11.773721
_cell_angle_alpha 90.000000
_cell_angle_beta 90.000000
_cell_angle_gamma 120.000000
_cell_volume 10992.364302
_symmetry_space_group_name_H-M "P 6/M M M"
_symmetry_group_IT_number 191
_symmetry_cell_setting 'hexagonal'
loop_
_space_group_symop_operation_xyz
x,y,z
x-y,x,z
-y,x-y,z
-x,-y,z
-x+y,-x,z
y,-x+y,z
x-y,-y,-z
-x,-x+y,-z
y,x,-z
-y,-x,-z
-x+y,y,-z
x,x-y,-z
-x,-y,-z
-x+y,-x,-z
y,-x+y,-z
x,y,-z
x-y,x,-z
-y,x-y,-z
-x+y,y,z
x,x-y,z
-y,-x,z
y,x,z
x-y,-y,z
-x,-x+y,z
loop_
_atom_site_type_symbol
_atom_site_label
_atom_site_fract_x
_atom_site_fract_y
_atom_site_fract_z
Si Si1 0.567858 0.734678 0.500000
Si Si2 0.529560 0.151531 0.863077
Si Si3 0.199687 0.053497 0.864635
Si Si4 0.285000 0.902536 0.135663
Si Si5 0.944111 0.714972 0.268182
Si Si6 0.948224 0.554039 0.863057
Si Si7 0.718209 0.533273 0.746931
Si Si8 0.677528 0.789646 0.500000
O O1 0.568491 0.784246 0.500000
O O2 0.542590 0.709813 0.383474
O O3 0.622482 0.749238 0.500000
O O4 0.582770 0.165539 0.837778
O O5 0.494839 0.096950 0.828130
O O6 0.509303 0.181090 0.801925
O O7 0.524838 0.154018 0.000000
O O8 0.186717 0.093359 0.836915
O O9 0.246038 0.062942 0.797433
O O10 0.159709 0.000000 0.839542
O O11 0.209246 0.056098 0.000000
O O12 0.255258 0.922910 0.194112
O O13 0.340669 0.935178 0.161541
O O14 0.271195 0.851380 0.184180
O O15 0.279390 0.900562 0.000000
O O16 0.917607 0.701941 0.387959
O O17 0.000000 0.736986 0.282812
O O18 0.000000 0.569147 0.818565
O O19 0.950132 0.551384 0.000000
O O20 0.763212 0.526423 0.751903
O O21 0.679295 0.839648 0.500000
#
# Coordination Sequence:
#
# PCOD9587401 Si02
#       8
#    12  24  24  24  24  24  24  12
#     4   9  18  33  52  70  92 122 162 210 249 276
#     4   9  18  31  47  71 101 127 154 195 245 294
#     4   9  18  32  49  69  93 122 156 196 245 298
#     4  10  19  29  44  69 101 130 160 200 240 282
#     4  11  21  32  47  68  96 131 167 200 242 294
#     4   8  14  25  41  62  89 122 156 188 224 264
#     4  10  19  33  52  73  96 127 166 205 246 292
#     4  11  21  35  49  64  92 129 169 214 248 277
#
# _framework density 15.283336
#
# number of rings (size 3 to 8) (size 9 to 14) (size 15 to 20)
#    0.000    2.429    1.429    2.786    0.000    3.429 
#    0.000    1.786    0.000    0.429    0.000    1.000 
#    0.000    2.571    0.000    0.000    0.000   14.857 
#
# Total GULP energy -936277.317960 kJ/mol
# GULP energy per Si atom -5573.079274 kJ/mol
# Density = 1.524855 g / cm^3
# Si number density = 15.283336 Si / 1000 Ang^3
#
#
#
# Elastic Constant Matrix: (Units=GPa)
#
#
# Indices 1 2 3 4 5 6 
#
# 1 91.1530 63.0910 46.9880 0.0000 0.0000 0.0000
# 2 63.0910 91.1530 46.9880 0.0000 0.0000 0.0000
# 3 46.9880 46.9880 77.6441 0.0000 0.0000 0.0000
# 4 0.0000 0.0000 0.0000 17.4986 0.0000 0.0000
# 5 0.0000 0.0000 0.0000 0.0000 17.4986 0.0000
# 6 0.0000 0.0000 0.0000 0.0000 0.0000 14.0310
#
#
#
# Elastic Compliance Matrix: (Units=1/GPa)
#
#
# Indices 1 2 3 4 5 6 
#
# 1 0.022953 -0.012683 -0.006215 0.000000 0.000000 0.000000
# 2 -0.012683 0.022953 -0.006215 0.000000 0.000000 0.000000
# 3 -0.006215 -0.006215 0.020402 0.000000 0.000000 0.000000
# 4 0.000000 0.000000 0.000000 0.057148 0.000000 0.000000
# 5 0.000000 0.000000 0.000000 0.000000 0.057148 0.000000
# 6 0.000000 0.000000 0.000000 0.000000 0.000000 0.071271
#
#
# Mechanical properties :
#
#
# Convention : Reuss Voigt Hill
#
# Bulk Modulus (GPa) = 62.18443 63.78713 62.98578
# Shear Modulus (GPa) = 16.26234 16.66449 16.46341
#
# Velocity S-wave (km/s) = 3.26553 3.30566 3.28565
# Velocity P-wave (km/s) = 7.41581 7.50978 7.46295
#
# Compressibility (1/GPa) = 0.01608120
#
# Stress axis : x y z
#
# Youngs Moduli (GPa) = 43.56799 43.56799 49.01577
#
# Poissons Ratio (x) = 0.55256 0.30463
# Poissons Ratio (y) = 0.55256 0.30463
# Poissons Ratio (z) = 0.27078 0.27078
#
# Static dielectric constant tensor:
#      x y z
#    x 1.504540 0.000000 0.000000 
#    y 0.000000 1.504540 0.000000 
#    z 0.000000 0.000000 1.498360 
# 
# From -- ./inp_files/3653.got.cif
#   From: 2010.05.17/outbox.cif.g08.bks.cpg/sg191_2_cif.got.tgz:3653.got - 2010.05.20 12:20:32.
