data_PCOD9587236
_publ_section_title
;
Structure prediction by ZEFSAII (Michael W. Deem and Ramdas Pophale) SiO2 
 PCOD9587236
Probable space group: P 6/M M M
;
_chemical_formula_sum "Si O2"
_cell_formula_units_Z 120
_cell_length_a 17.252490
_cell_length_b 17.252490
_cell_length_c 30.401575
_cell_angle_alpha 90.000000
_cell_angle_beta 90.000000
_cell_angle_gamma 120.000000
_cell_volume 7836.646989
_symmetry_space_group_name_H-M "P 6/M M M"
_symmetry_group_IT_number 191
_symmetry_cell_setting 'hexagonal'
loop_
_space_group_symop_operation_xyz
x,y,z
x-y,x,z
-y,x-y,z
-x,-y,z
-x+y,-x,z
y,-x+y,z
x-y,-y,-z
-x,-x+y,-z
y,x,-z
-y,-x,-z
-x+y,y,-z
x,x-y,-z
-x,-y,-z
-x+y,-x,-z
y,-x+y,-z
x,y,-z
x-y,x,-z
-y,x-y,-z
-x+y,y,z
x,x-y,z
-y,-x,z
y,x,z
x-y,-y,z
-x,-x+y,z
loop_
_atom_site_type_symbol
_atom_site_label
_atom_site_fract_x
_atom_site_fract_y
_atom_site_fract_z
Si Si1 0.846329 0.333272 0.277047
Si Si2 0.723430 0.097353 0.636946
Si Si3 0.893238 0.446619 0.862052
Si Si4 0.848780 0.516149 0.450871
Si Si5 0.607793 0.392208 0.950832
Si Si6 0.714247 0.609609 0.186824
O O1 0.861244 0.430622 0.267806
O O2 0.741138 0.258863 0.277223
O O3 0.884471 0.329434 0.324523
O O4 0.889718 0.303491 0.238645
O O5 0.824732 0.175269 0.640513
O O6 0.686896 0.104905 0.589483
O O7 0.709014 0.000000 0.642974
O O8 0.849799 0.424900 0.910118
O O9 0.869615 0.515051 0.837022
O O10 0.000000 0.500000 0.865219
O O11 0.880704 0.554125 0.500000
O O12 0.744507 0.489013 0.448534
O O13 0.858194 0.429097 0.446246
O O14 0.570390 0.285195 0.947829
O O15 0.587908 0.412093 0.000000
O O16 0.816856 0.633711 0.177361
O O17 0.681180 0.681180 0.175961
#
# Coordination Sequence:
#
# PCOD9587236 Si02
#       6
#    24  24  12  24  12  24
#     4  10  19  31  46  67  96 125 155 183 216 265
#     4  10  21  34  48  64  84 113 142 178 225 269
#     4  10  18  29  46  70  96 124 161 202 246 290
#     4   9  17  29  45  66  91 118 147 173 200 241
#     4   8  16  29  44  62  90 128 168 201 228 270
#     4  10  20  32  47  68  95 126 160 203 246 290
#
# _framework density 15.312671
#
# number of rings (size 3 to 8) (size 9 to 14) (size 15 to 20)
#    0.200    2.200    1.000    2.200    0.000    3.800 
#    0.600    3.000    0.000    0.400    0.000    0.000 
#    0.000    4.800    0.000    5.000    0.000    0.000 
#
# Total GULP energy -668400.337287 kJ/mol
# GULP energy per Si atom -5570.002811 kJ/mol
# Density = 1.527782 g / cm^3
# Si number density = 15.312671 Si / 1000 Ang^3
#
#
#
# Elastic Constant Matrix: (Units=GPa)
#
#
# Indices 1 2 3 4 5 6 
#
# 1 51.0219 49.7281 12.8283 0.0000 0.0000 0.0000
# 2 49.7281 51.0219 12.8283 0.0000 0.0000 0.0000
# 3 12.8283 12.8283 73.3308 0.0000 0.0000 0.0000
# 4 0.0000 0.0000 0.0000 15.1502 0.0000 0.0000
# 5 0.0000 0.0000 0.0000 0.0000 15.1502 0.0000
# 6 0.0000 0.0000 0.0000 0.0000 0.0000 0.6469
#
#
#
# Elastic Compliance Matrix: (Units=1/GPa)
#
#
# Indices 1 2 3 4 5 6 
#
# 1 0.391666 -0.381277 -0.001817 0.000000 0.000000 0.000000
# 2 -0.381277 0.391666 -0.001817 0.000000 0.000000 0.000000
# 3 -0.001817 -0.001817 0.014273 0.000000 0.000000 0.000000
# 4 0.000000 0.000000 0.000000 0.066006 0.000000 0.000000
# 5 0.000000 0.000000 0.000000 0.000000 0.066006 0.000000
# 6 0.000000 0.000000 0.000000 0.000000 0.000000 1.545886
#
#
# Mechanical properties :
#
#
# Convention : Reuss Voigt Hill
#
# Bulk Modulus (GPa) = 35.99697 36.23823 36.11760
# Shear Modulus (GPa) = 1.53629 12.85542 7.19586
#
# Velocity S-wave (km/s) = 1.00273 2.90061 2.17014
# Velocity P-wave (km/s) = 4.98995 5.91058 5.46967
#
# Compressibility (1/GPa) = 0.02778011
#
# Stress axis : x y z
#
# Youngs Moduli (GPa) = 2.55320 2.55320 70.06399
#
# Poissons Ratio (x) = 0.97348 0.12733
# Poissons Ratio (y) = 0.97348 0.12733
# Poissons Ratio (z) = 0.00464 0.00464
#
# Static dielectric constant tensor:
#      x y z
#    x 1.507460 0.000000 0.000000 
#    y 0.000000 1.507460 0.000000 
#    z 0.000000 0.000000 1.516500 
# 
# From -- ./inp_files/9586.got.cif
#   From: 2010.05.17/outbox.cif.g08.bks.cpg/sg191_5_cif.got.tgz:9586.got - 2010.05.20 12:20:32.
