data_PCOD9587981
_publ_section_title
;
Structure prediction by ZEFSAII (Michael W. Deem and Ramdas Pophale) SiO2 
 PCOD9587981
Probable space group: P 6/M M M
;
_chemical_formula_sum "Si O2"
_cell_formula_units_Z 120
_cell_length_a 18.229420
_cell_length_b 18.229420
_cell_length_c 27.671166
_cell_angle_alpha 90.000000
_cell_angle_beta 90.000000
_cell_angle_gamma 120.000000
_cell_volume 7963.496500
_symmetry_space_group_name_H-M "P 6/M M M"
_symmetry_group_IT_number 191
_symmetry_cell_setting 'hexagonal'
loop_
_space_group_symop_operation_xyz
x,y,z
x-y,x,z
-y,x-y,z
-x,-y,z
-x+y,-x,z
y,-x+y,z
x-y,-y,-z
-x,-x+y,-z
y,x,-z
-y,-x,-z
-x+y,y,-z
x,x-y,-z
-x,-y,-z
-x+y,-x,-z
y,-x+y,-z
x,y,-z
x-y,x,-z
-y,x-y,-z
-x+y,y,z
x,x-y,z
-y,-x,z
y,x,z
x-y,-y,z
-x,-x+y,z
loop_
_atom_site_type_symbol
_atom_site_label
_atom_site_fract_x
_atom_site_fract_y
_atom_site_fract_z
Si Si1 0.837310 0.504067 0.268160
Si Si2 0.163642 0.497114 0.058390
Si Si3 0.000000 0.174582 0.057208
Si Si4 0.000000 0.585944 0.799179
Si Si5 0.839716 0.506963 0.381164
Si Si6 0.000000 0.410756 0.444500
Si Si7 0.334523 0.334523 0.100582
O O1 0.757936 0.515871 0.256581
O O2 0.810942 0.405471 0.263995
O O3 0.917055 0.555301 0.233641
O O4 0.861535 0.527667 0.324437
O O5 0.251048 0.502096 0.073645
O O6 0.160611 0.580306 0.074496
O O7 0.083384 0.412541 0.077255
O O8 0.161724 0.495901 0.000000
O O9 0.000000 0.248362 0.088678
O O10 0.084436 0.168872 0.065694
O O11 0.000000 0.195502 0.000000
O O12 0.000000 0.500000 0.815680
O O13 0.000000 0.641201 0.843783
O O14 0.753789 0.507578 0.391007
O O15 0.825531 0.412766 0.388490
O O16 0.916334 0.569598 0.415257
O O17 0.000000 0.500000 0.444518
O O18 0.000000 0.386248 0.500000
#
# Coordination Sequence:
#
# PCOD9587981 Si02
#       7
#    24  24  12  12  24  12  12
#     4   9  17  30  48  67  86 112 149 191 230 266
#     4  10  20  34  51  70  93 122 155 189 225 267
#     4  10  21  38  59  80  99 119 145 180 224 273
#     4  10  21  34  46  64  93 125 152 182 225 272
#     4   9  16  27  44  64  85 112 150 193 230 263
#     4   9  17  27  38  56  86 121 150 177 216 264
#     4  12  22  33  50  73  98 123 152 186 224 269
#
# _framework density 15.068758000000001
#
# number of rings (size 3 to 8) (size 9 to 14) (size 15 to 20)
#    0.000    2.300    0.000    3.700    0.000    9.600 
#    0.000    0.000    0.000    3.600    0.000    0.000 
#    0.000    0.000    0.000    0.300    0.000    9.800 
#
# Total GULP energy -669418.950692 kJ/mol
# GULP energy per Si atom -5578.491256 kJ/mol
# Density = 1.503446 g / cm^3
# Si number density = 15.068758 Si / 1000 Ang^3
#
#
#
# Elastic Constant Matrix: (Units=GPa)
#
#
# Indices 1 2 3 4 5 6 
#
# 1 111.8658 60.3334 60.1904 0.0000 0.0000 0.0000
# 2 60.3334 111.8658 60.1904 0.0000 0.0000 0.0000
# 3 60.1904 60.1904 70.2094 0.0000 0.0000 0.0000
# 4 0.0000 0.0000 0.0000 -33.8778 0.0000 0.0000
# 5 0.0000 0.0000 0.0000 0.0000 -33.8778 0.0000
# 6 0.0000 0.0000 0.0000 0.0000 0.0000 25.7662
#
#
#
# Elastic Compliance Matrix: (Units=1/GPa)
#
#
# Indices 1 2 3 4 5 6 
#
# 1 0.016949 -0.002456 -0.012425 0.000000 0.000000 0.000000
# 2 -0.002456 0.016949 -0.012425 0.000000 0.000000 0.000000
# 3 -0.012425 -0.012425 0.035547 0.000000 0.000000 0.000000
# 4 0.000000 0.000000 0.000000 -0.029518 0.000000 0.000000
# 5 0.000000 0.000000 0.000000 0.000000 -0.029518 0.000000
# 6 0.000000 0.000000 0.000000 0.000000 0.000000 0.038811
#
#
# Mechanical properties :
#
#
# Convention : Reuss Voigt Hill
#
# Bulk Modulus (GPa) = 67.41552 72.81885 70.11719
# Shear Modulus (GPa) = 45.96521 -0.84944 22.55788
#
# Velocity S-wave (km/s) = 5.52900 -0.75162 3.87330
# Velocity P-wave (km/s) = 9.25179 6.90478 8.16308
#
# Compressibility (1/GPa) = 0.01483338
#
# Stress axis : x y z
#
# Youngs Moduli (GPa) = 58.99930 58.99930 28.13154
#
# Poissons Ratio (x) = 0.14490 0.34954
# Poissons Ratio (y) = 0.14490 0.34954
# Poissons Ratio (z) = 0.73308 0.73308
#
# Static dielectric constant tensor:
#      x y z
#    x 1.480530 0.000000 0.000000 
#    y 0.000000 1.480530 0.000000 
#    z 0.000000 0.000000 1.501240 
# 
# From -- ./inp_files/8659.got.cif
#   From: 2010.05.17/outbox.cif.g08.bks.cpg/sg191_5_cif.got.tgz:8659.got - 2010.05.20 12:20:32.
