data_PCOD9587660
_publ_section_title
;
Structure prediction by ZEFSAII (Michael W. Deem and Ramdas Pophale) SiO2 
 PCOD9587660
Probable space group: P 6/M M M
;
_chemical_formula_sum "Si O2"
_cell_formula_units_Z 96
_cell_length_a 28.645729
_cell_length_b 28.645729
_cell_length_c 8.908442
_cell_angle_alpha 90.000000
_cell_angle_beta 90.000000
_cell_angle_gamma 120.000000
_cell_volume 6330.706019
_symmetry_space_group_name_H-M "P 6/M M M"
_symmetry_group_IT_number 191
_symmetry_cell_setting 'hexagonal'
loop_
_space_group_symop_operation_xyz
x,y,z
x-y,x,z
-y,x-y,z
-x,-y,z
-x+y,-x,z
y,-x+y,z
x-y,-y,-z
-x,-x+y,-z
y,x,-z
-y,-x,-z
-x+y,y,-z
x,x-y,-z
-x,-y,-z
-x+y,-x,-z
y,-x+y,-z
x,y,-z
x-y,x,-z
-y,x-y,-z
-x+y,y,z
x,x-y,z
-y,-x,z
y,x,z
x-y,-y,z
-x,-x+y,z
loop_
_atom_site_type_symbol
_atom_site_label
_atom_site_fract_x
_atom_site_fract_y
_atom_site_fract_z
Si Si1 0.710595 0.000000 0.321245
Si Si2 0.780493 0.668831 0.179242
Si Si3 0.392298 0.000000 0.820319
Si Si4 0.449050 0.170652 0.677655
Si Si5 0.110774 0.501282 0.819724
O O1 0.705966 0.945584 0.255934
O O2 0.656773 0.000000 0.264794
O O3 0.711926 0.000000 0.500000
O O4 0.841507 0.683013 0.213743
O O5 0.742393 0.607982 0.239123
O O6 0.774540 0.669193 0.000000
O O7 0.395858 0.946969 0.784936
O O8 0.382795 0.000000 0.000000
O O9 0.440871 0.159802 0.500000
O O10 0.464741 0.232371 0.703314
O O11 0.491557 0.155162 0.740579
O O12 0.111884 0.555942 0.775070
O O13 0.117498 0.502281 0.000000
#
# Coordination Sequence:
#
# PCOD9587660 Si02
#       5
#    12  24  12  24  24
#     4  12  22  31  49  75 105 135 165 205 248 284
#     4  10  20  34  52  72  96 131 171 205 239 283
#     4  10  19  32  48  68  97 131 162 193 235 291
#     4  10  20  33  49  70  95 121 152 195 245 294
#     4  10  20  33  50  71  95 125 159 197 243 294
#
# _framework density 15.164185
#
# number of rings (size 3 to 8) (size 9 to 14) (size 15 to 20)
#    0.000    1.750    2.500    3.000    0.000    5.000 
#    0.000    0.000    0.000    2.750    0.000    0.000 
#    0.000    0.000    0.000    0.375    0.000    7.250 
#
# Total GULP energy -535985.993219 kJ/mol
# GULP energy per Si atom -5583.187429 kJ/mol
# Density = 1.512967 g / cm^3
# Si number density = 15.164185 Si / 1000 Ang^3
#
#
#
# Elastic Constant Matrix: (Units=GPa)
#
#
# Indices 1 2 3 4 5 6 
#
# 1 102.0431 56.6623 52.4800 0.0000 0.0000 0.0000
# 2 56.6623 102.0431 52.4800 0.0000 0.0000 0.0000
# 3 52.4800 52.4800 62.5403 0.0000 0.0000 0.0000
# 4 0.0000 0.0000 0.0000 15.7949 0.0000 0.0000
# 5 0.0000 0.0000 0.0000 0.0000 15.7949 0.0000
# 6 0.0000 0.0000 0.0000 0.0000 0.0000 22.6904
#
#
#
# Elastic Compliance Matrix: (Units=1/GPa)
#
#
# Indices 1 2 3 4 5 6 
#
# 1 0.018097 -0.003939 -0.011881 0.000000 0.000000 0.000000
# 2 -0.003939 0.018097 -0.011881 0.000000 0.000000 0.000000
# 3 -0.011881 -0.011881 0.035929 0.000000 0.000000 0.000000
# 4 0.000000 0.000000 0.000000 0.063311 0.000000 0.000000
# 5 0.000000 0.000000 0.000000 0.000000 0.063311 0.000000
# 6 0.000000 0.000000 0.000000 0.000000 0.000000 0.044072
#
#
# Mechanical properties :
#
#
# Convention : Reuss Voigt Hill
#
# Bulk Modulus (GPa) = 59.79995 65.54122 62.67059
# Shear Modulus (GPa) = 16.45859 17.85633 17.15746
#
# Velocity S-wave (km/s) = 3.29805 3.43524 3.36735
# Velocity P-wave (km/s) = 7.35007 7.68436 7.51907
#
# Compressibility (1/GPa) = 0.01672242
#
# Stress axis : x y z
#
# Youngs Moduli (GPa) = 55.25751 55.25751 27.83260
#
# Poissons Ratio (x) = 0.21764 0.33068
# Poissons Ratio (y) = 0.21764 0.33068
# Poissons Ratio (z) = 0.65651 0.65651
#
# Static dielectric constant tensor:
#      x y z
#    x 1.496070 0.000000 0.000000 
#    y 0.000000 1.496070 0.000000 
#    z 0.000000 0.000000 1.505160 
# 
# From -- ./inp_files/1566.got.cif
#   From: 2010.05.17/outbox.cif.g08.bks.cpg/sg191_1_cif.got.tgz:1566.got - 2010.05.20 12:20:32.
