data_PCOD9587413
_publ_section_title
;
Structure prediction by ZEFSAII (Michael W. Deem and Ramdas Pophale) SiO2 
 PCOD9587413
Probable space group: P 6/M M M
;
_chemical_formula_sum "Si O2"
_cell_formula_units_Z 180
_cell_length_a 21.333989
_cell_length_b 21.333989
_cell_length_c 31.656104
_cell_angle_alpha 90.000000
_cell_angle_beta 90.000000
_cell_angle_gamma 120.000000
_cell_volume 12477.633622
_symmetry_space_group_name_H-M "P 6/M M M"
_symmetry_group_IT_number 191
_symmetry_cell_setting 'hexagonal'
loop_
_space_group_symop_operation_xyz
x,y,z
x-y,x,z
-y,x-y,z
-x,-y,z
-x+y,-x,z
y,-x+y,z
x-y,-y,-z
-x,-x+y,-z
y,x,-z
-y,-x,-z
-x+y,y,-z
x,x-y,-z
-x,-y,-z
-x+y,-x,-z
y,-x+y,-z
x,y,-z
x-y,x,-z
-y,x-y,-z
-x+y,y,z
x,x-y,z
-y,-x,z
y,x,z
x-y,-y,z
-x,-x+y,z
loop_
_atom_site_type_symbol
_atom_site_label
_atom_site_fract_x
_atom_site_fract_y
_atom_site_fract_z
Si Si1 0.580240 0.718295 0.657357
Si Si2 0.918535 0.227548 0.265479
Si Si3 0.617059 0.534833 0.951856
Si Si4 0.084541 0.657856 0.795625
Si Si5 0.333444 0.815132 0.500000
Si Si6 0.817109 0.332433 0.873855
Si Si7 0.527238 0.333671 0.731076
Si Si8 0.468403 0.385679 0.420215
O O1 0.589791 0.794896 0.642766
O O2 0.642374 0.736582 0.692312
O O3 0.506570 0.678435 0.684741
O O4 0.571789 0.667379 0.618708
O O5 0.854828 0.145173 0.264317
O O6 0.910895 0.270786 0.225503
O O7 0.000000 0.243261 0.265893
O O8 0.540433 0.459568 0.952378
O O9 0.596052 0.596052 0.940321
O O10 0.664193 0.521514 0.917804
O O11 0.645168 0.548007 0.000000
O O12 0.131925 0.670028 0.837107
O O13 0.123094 0.634933 0.760108
O O14 0.000000 0.600793 0.802310
O O15 0.257002 0.742999 0.500000
O O16 0.398730 0.797460 0.500000
O O17 0.344936 0.862873 0.458387
O O18 0.813825 0.406913 0.869781
O O19 0.737411 0.262590 0.871669
O O20 0.509341 0.254671 0.747119
O O21 0.611724 0.388276 0.731204
O O22 0.546892 0.453109 0.407049
O O23 0.421890 0.421890 0.435089
#
# Coordination Sequence:
#
# PCOD9587413 Si02
#       8
#    24  24  24  24  12  24  24  24
#     4   9  17  29  44  62  84 110 140 170 197 234
#     4   9  17  30  47  66  88 112 138 168 203 242
#     4   8  15  29  47  63  78 100 133 170 204 240
#     4  10  20  32  45  60  79 106 142 181 213 244
#     4  10  20  33  47  61  78 103 134 168 205 246
#     4  11  21  31  43  60  84 111 138 170 211 257
#     4  10  19  30  43  60  84 111 138 169 208 252
#     4  10  19  30  44  62  83 105 132 168 209 246
#
# _framework density 14.425813
#
# number of rings (size 3 to 8) (size 9 to 14) (size 15 to 20)
#    0.000    2.400    0.000    4.933    0.000    3.200 
#    0.000    1.333    0.000    5.200    0.000    0.000 
#    0.000    0.000    0.000    0.000    0.000    0.000 
#
# Total GULP energy -1002793.944701 kJ/mol
# GULP energy per Si atom -5571.077471 kJ/mol
# Density = 1.439298 g / cm^3
# Si number density = 14.425813 Si / 1000 Ang^3
#
#
#
# Elastic Constant Matrix: (Units=GPa)
#
#
# Indices 1 2 3 4 5 6 
#
# 1 87.3398 51.0057 44.1920 0.0000 0.0000 0.0000
# 2 51.0057 87.3398 44.1920 0.0000 0.0000 0.0000
# 3 44.1920 44.1920 69.7194 0.0000 0.0000 0.0000
# 4 0.0000 0.0000 0.0000 17.3860 0.0000 0.0000
# 5 0.0000 0.0000 0.0000 0.0000 17.3860 0.0000
# 6 0.0000 0.0000 0.0000 0.0000 0.0000 18.1670
#
#
#
# Elastic Compliance Matrix: (Units=1/GPa)
#
#
# Indices 1 2 3 4 5 6 
#
# 1 0.019835 -0.007688 -0.007700 0.000000 0.000000 0.000000
# 2 -0.007688 0.019835 -0.007700 0.000000 0.000000 0.000000
# 3 -0.007700 -0.007700 0.024104 0.000000 0.000000 0.000000
# 4 0.000000 0.000000 0.000000 0.057517 0.000000 0.000000
# 5 0.000000 0.000000 0.000000 0.000000 0.057517 0.000000
# 6 0.000000 0.000000 0.000000 0.000000 0.000000 0.055045
#
#
# Mechanical properties :
#
#
# Convention : Reuss Voigt Hill
#
# Bulk Modulus (GPa) = 56.81754 58.13091 57.47423
# Shear Modulus (GPa) = 17.48902 17.58844 17.53873
#
# Velocity S-wave (km/s) = 3.48565 3.49554 3.49060
# Velocity P-wave (km/s) = 7.46131 7.52833 7.49489
#
# Compressibility (1/GPa) = 0.01760020
#
# Stress axis : x y z
#
# Youngs Moduli (GPa) = 50.41637 50.41637 41.48677
#
# Poissons Ratio (x) = 0.38758 0.31943
# Poissons Ratio (y) = 0.38758 0.31943
# Poissons Ratio (z) = 0.38819 0.38819
#
# Static dielectric constant tensor:
#      x y z
#    x 1.469110 0.000000 0.000000 
#    y 0.000000 1.469110 0.000000 
#    z 0.000000 0.000000 1.483590 
# 
# From -- ./inp_files/10881.got.cif
#   From: 2010.05.17/outbox.cif.g08.bks.cpg/sg191_6_cif.got.tgz:10881.got - 2010.05.20 12:20:32.
