data_PCOD9587856
_publ_section_title
;
Structure prediction by ZEFSAII (Michael W. Deem and Ramdas Pophale) SiO2 
 PCOD9587856
Probable space group: P 6/M M M
;
_chemical_formula_sum "Si O2"
_cell_formula_units_Z 192
_cell_length_a 23.208640
_cell_length_b 23.208640
_cell_length_c 24.718140
_cell_angle_alpha 90.000000
_cell_angle_beta 90.000000
_cell_angle_gamma 120.000000
_cell_volume 11530.437962
_symmetry_space_group_name_H-M "P 6/M M M"
_symmetry_group_IT_number 191
_symmetry_cell_setting 'hexagonal'
loop_
_space_group_symop_operation_xyz
x,y,z
x-y,x,z
-y,x-y,z
-x,-y,z
-x+y,-x,z
y,-x+y,z
x-y,-y,-z
-x,-x+y,-z
y,x,-z
-y,-x,-z
-x+y,y,-z
x,x-y,-z
-x,-y,-z
-x+y,-x,-z
y,-x+y,-z
x,y,-z
x-y,x,-z
-y,x-y,-z
-x+y,y,z
x,x-y,z
-y,-x,z
y,x,z
x-y,-y,z
-x,-x+y,z
loop_
_atom_site_type_symbol
_atom_site_label
_atom_site_fract_x
_atom_site_fract_y
_atom_site_fract_z
Si Si1 0.417696 0.276020 0.364794
Si Si2 0.681399 0.603262 0.248905
Si Si3 0.802974 0.470216 0.935970
Si Si4 0.284751 0.076354 0.942259
Si Si5 0.714737 0.923467 0.823453
Si Si6 0.392289 0.468954 0.143888
Si Si7 0.606126 0.531439 0.437625
Si Si8 0.923232 0.208871 0.563249
O O1 0.432833 0.216417 0.365612
O O2 0.417874 0.299583 0.304068
O O3 0.467557 0.338669 0.400027
O O4 0.346546 0.248315 0.395387
O O5 0.634815 0.634815 0.261520
O O6 0.748083 0.660765 0.220966
O O7 0.643865 0.549126 0.201994
O O8 0.737261 0.474521 0.922045
O O9 0.789648 0.394824 0.927939
O O10 0.867575 0.518376 0.900516
O O11 0.816157 0.484838 0.000000
O O12 0.260920 0.130460 0.942161
O O13 0.317832 0.085192 0.883621
O O14 0.226555 0.000000 0.942693
O O15 0.321899 0.086937 0.000000
O O16 0.736210 0.868105 0.818219
O O17 0.773046 0.000000 0.819809
O O18 0.462057 0.537944 0.147452
O O19 0.411958 0.411958 0.131015
O O20 0.627709 0.544411 0.500000
O O21 0.538196 0.461805 0.435360
O O22 0.587344 0.587344 0.420618
O O23 0.917434 0.225240 0.500000
O O24 0.869061 0.130940 0.570096
O O25 0.000000 0.230901 0.572139
#
# Coordination Sequence:
#
# PCOD9587856 Si02
#       8
#    24  24  24  24  24  24  24  24
#     4  11  21  31  48  74 100 126 157 195 239 284
#     4  10  20  33  48  67  93 126 161 195 234 284
#     4   9  17  30  50  75 101 130 165 203 241 283
#     4   8  13  22  37  55  74 100 137 180 225 272
#     4   9  17  29  44  62  87 119 154 193 237 285
#     4   9  19  35  53  74  99 126 158 197 243 293
#     4   9  18  33  53  76 101 129 161 196 232 273
#     4   9  17  29  46  69  97 127 158 195 239 283
#
# _framework density 16.651579000000002
#
# number of rings (size 3 to 8) (size 9 to 14) (size 15 to 20)
#    0.000    2.750    0.000    2.375    0.000    4.000 
#    0.000    3.125    0.000    4.375    0.000    4.375 
#    0.000    0.000    0.000    4.000    0.000    5.500 
#
# Total GULP energy -1069102.151245 kJ/mol
# GULP energy per Si atom -5568.240371 kJ/mol
# Density = 1.661368 g / cm^3
# Si number density = 16.651579 Si / 1000 Ang^3
#
#
#
# Elastic Constant Matrix: (Units=GPa)
#
#
# Indices 1 2 3 4 5 6 
#
# 1 70.3686 37.6966 46.6617 0.0000 0.0000 0.0000
# 2 37.6966 70.3686 46.6617 0.0000 0.0000 0.0000
# 3 46.6617 46.6617 92.5897 0.0000 0.0000 0.0000
# 4 0.0000 0.0000 0.0000 37.0513 0.0000 0.0000
# 5 0.0000 0.0000 0.0000 0.0000 37.0513 0.0000
# 6 0.0000 0.0000 0.0000 0.0000 0.0000 16.3360
#
#
#
# Elastic Compliance Matrix: (Units=1/GPa)
#
#
# Indices 1 2 3 4 5 6 
#
# 1 0.023496 -0.007111 -0.008257 0.000000 0.000000 0.000000
# 2 -0.007111 0.023496 -0.008257 0.000000 0.000000 0.000000
# 3 -0.008257 -0.008257 0.019123 0.000000 0.000000 0.000000
# 4 0.000000 0.000000 0.000000 0.026990 0.000000 0.000000
# 5 0.000000 0.000000 0.000000 0.000000 0.026990 0.000000
# 6 0.000000 0.000000 0.000000 0.000000 0.000000 0.061214
#
#
# Mechanical properties :
#
#
# Convention : Reuss Voigt Hill
#
# Bulk Modulus (GPa) = 53.01324 55.04077 54.02701
# Shear Modulus (GPa) = 21.29043 24.90817 23.09930
#
# Velocity S-wave (km/s) = 3.57961 3.87181 3.72857
# Velocity P-wave (km/s) = 6.99933 7.28794 7.14509
#
# Compressibility (1/GPa) = 0.01886321
#
# Stress axis : x y z
#
# Youngs Moduli (GPa) = 42.56075 42.56075 52.29336
#
# Poissons Ratio (x) = 0.30267 0.43179
# Poissons Ratio (y) = 0.30267 0.43179
# Poissons Ratio (z) = 0.35143 0.35143
#
# Static dielectric constant tensor:
#      x y z
#    x 1.561320 0.000000 0.000000 
#    y 0.000000 1.561320 0.000000 
#    z 0.000000 0.000000 1.530130 
# 
# From -- ./inp_files/8160.got.cif
#   From: 2010.05.17/outbox.cif.g08.bks.cpg/sg191_5_cif.got.tgz:8160.got - 2010.05.20 12:20:32.
