data_PCOD9587221
_publ_section_title
;
Structure prediction by ZEFSAII (Michael W. Deem and Ramdas Pophale) SiO2 
 PCOD9587221
Probable space group: P 6/M M M
;
_chemical_formula_sum "Si O2"
_cell_formula_units_Z 132
_cell_length_a 24.217157
_cell_length_b 24.217157
_cell_length_c 16.136860
_cell_angle_alpha 90.000000
_cell_angle_beta 90.000000
_cell_angle_gamma 120.000000
_cell_volume 8195.887293
_symmetry_space_group_name_H-M "P 6/M M M"
_symmetry_group_IT_number 191
_symmetry_cell_setting 'hexagonal'
loop_
_space_group_symop_operation_xyz
x,y,z
x-y,x,z
-y,x-y,z
-x,-y,z
-x+y,-x,z
y,-x+y,z
x-y,-y,-z
-x,-x+y,-z
y,x,-z
-y,-x,-z
-x+y,y,-z
x,x-y,-z
-x,-y,-z
-x+y,-x,-z
y,-x+y,-z
x,y,-z
x-y,x,-z
-y,x-y,-z
-x+y,y,z
x,x-y,z
-y,-x,z
y,x,z
x-y,-y,z
-x,-x+y,z
loop_
_atom_site_type_symbol
_atom_site_label
_atom_site_fract_x
_atom_site_fract_y
_atom_site_fract_z
Si Si1 0.260720 0.396587 0.832890
Si Si2 0.808316 0.738187 0.097705
Si Si3 0.402033 0.479156 0.597457
Si Si4 0.601593 0.075245 0.900613
Si Si5 0.796044 0.720391 0.500000
Si Si6 0.359209 0.076343 0.659043
O O1 0.210047 0.420094 0.844491
O O2 0.240947 0.336682 0.893303
O O3 0.333200 0.448965 0.851279
O O4 0.251231 0.364794 0.742556
O O5 0.875311 0.750622 0.133905
O O6 0.779208 0.779208 0.135001
O O7 0.817826 0.752034 0.000000
O O8 0.392738 0.485462 0.500000
O O9 0.450354 0.549647 0.631854
O O10 0.440555 0.440555 0.602941
O O11 0.334385 0.432239 0.636492
O O12 0.544951 0.089902 0.880698
O O13 0.572799 0.000000 0.882550
O O14 0.612845 0.083745 0.000000
O O15 0.774488 0.774488 0.500000
O O16 0.870845 0.741689 0.500000
O O17 0.762804 0.676637 0.581381
O O18 0.321691 0.000000 0.675209
#
# Coordination Sequence:
#
# PCOD9587221 Si02
#       6
#    24  24  24  24  12  24
#     4  11  21  30  44  69  98 125 154 190 231 277
#     4   9  17  29  45  65  90 120 151 184 225 273
#     4   8  13  23  40  63  90 117 145 177 215 259
#     4   9  18  33  52  72  94 121 153 191 234 277
#     4  10  20  34  49  64  87 121 159 197 241 293
#     4  10  18  29  45  66  93 127 159 189 227 272
#
# _framework density 16.105637999999999
#
# number of rings (size 3 to 8) (size 9 to 14) (size 15 to 20)
#    0.000    2.545    0.909    3.818    0.000    3.273 
#    0.000    1.818    0.000    0.636    0.000    1.273 
#    0.000    0.000    0.000    6.182    0.000    4.364 
#
# Total GULP energy -735036.216748 kJ/mol
# GULP energy per Si atom -5568.456187 kJ/mol
# Density = 1.606898 g / cm^3
# Si number density = 16.105638 Si / 1000 Ang^3
#
#
#
# Elastic Constant Matrix: (Units=GPa)
#
#
# Indices 1 2 3 4 5 6 
#
# 1 89.5243 54.7218 24.9134 0.0000 0.0000 0.0000
# 2 54.7218 89.5243 24.9134 0.0000 0.0000 0.0000
# 3 24.9134 24.9134 39.7688 0.0000 0.0000 0.0000
# 4 0.0000 0.0000 0.0000 11.6428 0.0000 0.0000
# 5 0.0000 0.0000 0.0000 0.0000 11.6428 0.0000
# 6 0.0000 0.0000 0.0000 0.0000 0.0000 17.4013
#
#
#
# Elastic Compliance Matrix: (Units=1/GPa)
#
#
# Indices 1 2 3 4 5 6 
#
# 1 0.018790 -0.009943 -0.005542 0.000000 0.000000 0.000000
# 2 -0.009943 0.018790 -0.005542 0.000000 0.000000 0.000000
# 3 -0.005542 -0.005542 0.032089 0.000000 0.000000 0.000000
# 4 0.000000 0.000000 0.000000 0.085890 0.000000 0.000000
# 5 0.000000 0.000000 0.000000 0.000000 0.085890 0.000000
# 6 0.000000 0.000000 0.000000 0.000000 0.000000 0.057467
#
#
# Mechanical properties :
#
#
# Convention : Reuss Voigt Hill
#
# Bulk Modulus (GPa) = 36.21315 47.54608 41.87961
# Shear Modulus (GPa) = 14.27845 15.75529 15.01687
#
# Velocity S-wave (km/s) = 2.98073 3.13109 3.05683
# Velocity P-wave (km/s) = 5.86344 6.53124 6.20633
#
# Compressibility (1/GPa) = 0.02761428
#
# Stress axis : x y z
#
# Youngs Moduli (GPa) = 53.21899 53.21899 31.16302
#
# Poissons Ratio (x) = 0.52917 0.17271
# Poissons Ratio (y) = 0.52917 0.17271
# Poissons Ratio (z) = 0.29496 0.29496
#
# Static dielectric constant tensor:
#      x y z
#    x 1.546560 0.000000 0.000000 
#    y 0.000000 1.546560 0.000000 
#    z 0.000000 0.000000 1.583480 
# 
# From -- ./inp_files/4935.got.cif
#   From: 2010.05.17/outbox.cif.g08.bks.cpg/sg191_3_cif.got.tgz:4935.got - 2010.05.20 12:20:32.
