data_PCOD9587318
_publ_section_title
;
Structure prediction by ZEFSAII (Michael W. Deem and Ramdas Pophale) SiO2 
 PCOD9587318
Probable space group: P 6/M M M
;
_chemical_formula_sum "Si O2"
_cell_formula_units_Z 144
_cell_length_a 21.876244
_cell_length_b 21.876244
_cell_length_c 21.054157
_cell_angle_alpha 90.000000
_cell_angle_beta 90.000000
_cell_angle_gamma 120.000000
_cell_volume 8725.975840
_symmetry_space_group_name_H-M "P 6/M M M"
_symmetry_group_IT_number 191
_symmetry_cell_setting 'hexagonal'
loop_
_space_group_symop_operation_xyz
x,y,z
x-y,x,z
-y,x-y,z
-x,-y,z
-x+y,-x,z
y,-x+y,z
x-y,-y,-z
-x,-x+y,-z
y,x,-z
-y,-x,-z
-x+y,y,-z
x,x-y,-z
-x,-y,-z
-x+y,-x,-z
y,-x+y,-z
x,y,-z
x-y,x,-z
-y,x-y,-z
-x+y,y,z
x,x-y,z
-y,-x,z
y,x,z
x-y,-y,z
-x,-x+y,z
loop_
_atom_site_type_symbol
_atom_site_label
_atom_site_fract_x
_atom_site_fract_y
_atom_site_fract_z
Si Si1 0.349182 0.431723 0.292017
Si Si2 0.525503 0.189760 0.816609
Si Si3 0.921759 0.217014 0.094578
Si Si4 0.914855 0.385214 0.431287
Si Si5 0.359110 0.440510 0.927625
Si Si6 0.786730 0.076446 0.752101
O O1 0.412203 0.412203 0.285524
O O2 0.352251 0.488912 0.242692
O O3 0.346014 0.453328 0.364417
O O4 0.277989 0.360092 0.275612
O O5 0.608567 0.217133 0.815215
O O6 0.510509 0.255255 0.816184
O O7 0.492371 0.139927 0.878514
O O8 0.857073 0.142928 0.073324
O O9 0.913930 0.282922 0.072785
O O10 0.919672 0.217788 0.171466
O O11 0.000000 0.234499 0.076023
O O12 0.888538 0.348480 0.500000
O O13 0.899306 0.449653 0.428678
O O14 0.000000 0.421581 0.432372
O O15 0.415031 0.415031 0.908552
O O16 0.375150 0.467237 0.000000
O O17 0.860004 0.139997 0.730060
O O18 0.774462 0.000000 0.735949
#
# Coordination Sequence:
#
# PCOD9587318 Si02
#       6
#    24  24  24  24  24  24
#     4  10  18  30  52  79 101 124 160 207 254 292
#     4  12  25  39  53  70  97 133 169 201 235 284
#     4   9  16  28  46  69  96 125 157 193 236 284
#     4   8  14  25  42  68 102 133 158 189 237 297
#     4  10  21  37  57  79  98 117 149 200 258 303
#     4   9  16  27  45  69  96 125 158 197 241 288
#
# _framework density 16.502452000000002
#
# number of rings (size 3 to 8) (size 9 to 14) (size 15 to 20)
#    0.000    2.333    1.667    2.667    0.000    3.667 
#    0.000    0.833    0.000    3.333    0.000    2.333 
#    0.000    1.333    0.000    4.167    0.000    4.333 
#
# Total GULP energy -802523.235631 kJ/mol
# GULP energy per Si atom -5573.078025 kJ/mol
# Density = 1.646489 g / cm^3
# Si number density = 16.502452 Si / 1000 Ang^3
#
#
#
# Elastic Constant Matrix: (Units=GPa)
#
#
# Indices 1 2 3 4 5 6 
#
# 1 66.0449 29.6359 38.0535 0.0000 0.0000 0.0000
# 2 29.6359 66.0449 38.0535 0.0000 0.0000 0.0000
# 3 38.0535 38.0535 113.4544 0.0000 0.0000 0.0000
# 4 0.0000 0.0000 0.0000 26.1713 0.0000 0.0000
# 5 0.0000 0.0000 0.0000 0.0000 26.1713 0.0000
# 6 0.0000 0.0000 0.0000 0.0000 0.0000 18.2045
#
#
#
# Elastic Compliance Matrix: (Units=1/GPa)
#
#
# Indices 1 2 3 4 5 6 
#
# 1 0.020860 -0.006606 -0.004781 0.000000 0.000000 0.000000
# 2 -0.006606 0.020860 -0.004781 0.000000 0.000000 0.000000
# 3 -0.004781 -0.004781 0.012021 0.000000 0.000000 0.000000
# 4 0.000000 0.000000 0.000000 0.038210 0.000000 0.000000
# 5 0.000000 0.000000 0.000000 0.000000 0.038210 0.000000
# 6 0.000000 0.000000 0.000000 0.000000 0.000000 0.054932
#
#
# Mechanical properties :
#
#
# Convention : Reuss Voigt Hill
#
# Bulk Modulus (GPa) = 46.71602 50.78111 48.74857
# Shear Modulus (GPa) = 22.26542 23.42949 22.84745
#
# Velocity S-wave (km/s) = 3.67716 3.77206 3.72491
# Velocity P-wave (km/s) = 6.81165 7.05761 6.93572
#
# Compressibility (1/GPa) = 0.02140593
#
# Stress axis : x y z
#
# Youngs Moduli (GPa) = 47.93849 47.93849 83.18566
#
# Poissons Ratio (x) = 0.31667 0.39771
# Poissons Ratio (y) = 0.31667 0.39771
# Poissons Ratio (z) = 0.22920 0.22920
#
# Static dielectric constant tensor:
#      x y z
#    x 1.555270 0.000000 0.000000 
#    y 0.000000 1.555270 0.000000 
#    z 0.000000 0.000000 1.585630 
# 
# From -- ./inp_files/7595.got.cif
#   From: 2010.05.17/outbox.cif.g08.bks.cpg/sg191_4_cif.got.tgz:7595.got - 2010.05.20 12:20:32.
