data_PCOD9587759
_publ_section_title
;
Structure prediction by ZEFSAII (Michael W. Deem and Ramdas Pophale) SiO2 
 PCOD9587759
Probable space group: P 6/M M M
;
_chemical_formula_sum "Si O2"
_cell_formula_units_Z 123
_cell_length_a 18.144233
_cell_length_b 18.144233
_cell_length_c 25.335187
_cell_angle_alpha 90.000000
_cell_angle_beta 90.000000
_cell_angle_gamma 120.000000
_cell_volume 7223.238826
_symmetry_space_group_name_H-M "P 6/M M M"
_symmetry_group_IT_number 191
_symmetry_cell_setting 'hexagonal'
loop_
_space_group_symop_operation_xyz
x,y,z
x-y,x,z
-y,x-y,z
-x,-y,z
-x+y,-x,z
y,-x+y,z
x-y,-y,-z
-x,-x+y,-z
y,x,-z
-y,-x,-z
-x+y,y,-z
x,x-y,-z
-x,-y,-z
-x+y,-x,-z
y,-x+y,-z
x,y,-z
x-y,x,-z
-y,x-y,-z
-x+y,y,z
x,x-y,z
-y,-x,z
y,x,z
x-y,-y,z
-x,-x+y,z
loop_
_atom_site_type_symbol
_atom_site_label
_atom_site_fract_x
_atom_site_fract_y
_atom_site_fract_z
Si Si1 0.837512 0.504001 0.436264
Si Si2 0.838933 0.332967 0.202291
Si Si3 0.666480 0.666480 0.612072
Si Si4 0.585610 0.000000 0.279420
Si Si5 0.704360 0.130125 0.000000
Si Si6 0.500000 0.500000 0.000000
Si Si7 0.000000 0.824601 0.438047
Si Si8 0.741494 0.095919 0.883741
O O1 0.841918 0.507557 0.500000
O O2 0.748756 0.497511 0.420589
O O3 0.840390 0.420195 0.419310
O O4 0.916542 0.588153 0.413612
O O5 0.820691 0.410345 0.196717
O O6 0.753777 0.246223 0.217628
O O7 0.915784 0.362746 0.243803
O O8 0.872173 0.315106 0.147315
O O9 0.642815 0.642815 0.672932
O O10 0.752680 0.752680 0.598433
O O11 0.500000 0.000000 0.298773
O O12 0.602179 0.076219 0.000000
O O13 0.730424 0.102480 0.053976
O O14 0.765346 0.234655 0.000000
O O15 0.915430 0.830860 0.429926
O O16 0.000000 0.800631 0.500000
O O17 0.838155 0.161845 0.869003
O O18 0.709392 0.000000 0.868339
#
# Coordination Sequence:
#
# PCOD9587759 Si02
#       8
#    24  24  12  12  12   3  12  24
#     4  10  20  34  52  76 108 144 177 210 254 313
#     4  10  21  36  56  76 102 137 181 228 273 323
#     4  12  22  34  55  82 106 135 176 227 274 307
#     4  10  22  39  55  73 102 140 178 225 276 324
#     4  10  22  34  50  84 115 152 204 229 282 369
#     4  12  20  32  60  68 116 180 186 244 316 330
#     4  10  21  38  60  86 115 146 175 209 258 320
#     4  10  19  34  55  81 111 145 186 232 276 337
#
# _framework density 17.028372999999998
#
# number of rings (size 3 to 8) (size 9 to 14) (size 15 to 20)
#    0.000    1.756    1.951    2.829    1.366    5.073 
#    0.293    0.000    0.000    2.537    0.000    0.000 
#    0.000    2.341    0.000    0.000    0.000    0.000 
#
# Total GULP energy -685233.727450 kJ/mol
# GULP energy per Si atom -5571.005914 kJ/mol
# Density = 1.698962 g / cm^3
# Si number density = 17.028373 Si / 1000 Ang^3
#
#
#
# Elastic Constant Matrix: (Units=GPa)
#
#
# Indices 1 2 3 4 5 6 
#
# 1 136.2584 71.8352 38.4777 0.0000 0.0000 0.0000
# 2 71.8352 136.2584 38.4777 0.0000 0.0000 0.0000
# 3 38.4777 38.4777 59.2760 0.0000 0.0000 0.0000
# 4 0.0000 0.0000 0.0000 -5.5644 0.0000 0.0000
# 5 0.0000 0.0000 0.0000 0.0000 -5.5644 0.0000
# 6 0.0000 0.0000 0.0000 0.0000 0.0000 32.2116
#
#
#
# Elastic Compliance Matrix: (Units=1/GPa)
#
#
# Indices 1 2 3 4 5 6 
#
# 1 0.010923 -0.004599 -0.004105 0.000000 0.000000 0.000000
# 2 -0.004599 0.010923 -0.004105 0.000000 0.000000 0.000000
# 3 -0.004105 -0.004105 0.022199 0.000000 0.000000 0.000000
# 4 0.000000 0.000000 0.000000 -0.179712 0.000000 0.000000
# 5 0.000000 0.000000 0.000000 0.000000 -0.179712 0.000000
# 6 0.000000 0.000000 0.000000 0.000000 0.000000 0.031045
#
#
# Mechanical properties :
#
#
# Convention : Reuss Voigt Hill
#
# Bulk Modulus (GPa) = 54.26754 69.93044 62.09899
# Shear Modulus (GPa) = -19.79611 16.41671 -1.68970
#
# Velocity S-wave (km/s) = -3.41330 3.10833 -0.99722
# Velocity P-wave (km/s) = 4.05018 7.35109 5.93475
#
# Compressibility (1/GPa) = 0.01842722
#
# Stress axis : x y z
#
# Youngs Moduli (GPa) = 91.55053 91.55053 45.04655
#
# Poissons Ratio (x) = 0.42108 0.18491
# Poissons Ratio (y) = 0.42108 0.18491
# Poissons Ratio (z) = 0.37579 0.37579
#
# Static dielectric constant tensor:
#      x y z
#    x 1.569970 0.000000 0.000000 
#    y 0.000000 1.569970 0.000000 
#    z 0.000000 0.000000 1.572120 
# 
# From -- ./inp_files/8673.got.cif
#   From: 2010.05.17/outbox.cif.g08.bks.cpg/sg191_5_cif.got.tgz:8673.got - 2010.05.20 12:20:32.
