data_PCOD9587934
_publ_section_title
;
Structure prediction by ZEFSAII (Michael W. Deem and Ramdas Pophale) SiO2 
 PCOD9587934
Probable space group: P 6/M M M
;
_chemical_formula_sum "Si O2"
_cell_formula_units_Z 132
_cell_length_a 17.961812
_cell_length_b 17.961812
_cell_length_c 28.941016
_cell_angle_alpha 90.000000
_cell_angle_beta 90.000000
_cell_angle_gamma 120.000000
_cell_volume 8086.204082
_symmetry_space_group_name_H-M "P 6/M M M"
_symmetry_group_IT_number 191
_symmetry_cell_setting 'hexagonal'
loop_
_space_group_symop_operation_xyz
x,y,z
x-y,x,z
-y,x-y,z
-x,-y,z
-x+y,-x,z
y,-x+y,z
x-y,-y,-z
-x,-x+y,-z
y,x,-z
-y,-x,-z
-x+y,y,-z
x,x-y,-z
-x,-y,-z
-x+y,-x,-z
y,-x+y,-z
x,y,-z
x-y,x,-z
-y,x-y,-z
-x+y,y,z
x,x-y,z
-y,-x,z
y,x,z
x-y,-y,z
-x,-x+y,z
loop_
_atom_site_type_symbol
_atom_site_label
_atom_site_fract_x
_atom_site_fract_y
_atom_site_fract_z
Si Si1 0.841613 0.508984 0.775867
Si Si2 0.841337 0.333484 0.946643
Si Si3 0.333986 0.490859 0.500000
Si Si4 0.666065 0.510590 0.398634
Si Si5 0.096466 0.365723 0.862636
Si Si6 0.903146 0.632926 0.311761
O O1 0.741173 0.482346 0.775839
O O2 0.852053 0.426027 0.775393
O O3 0.882948 0.566724 0.821188
O O4 0.883311 0.568224 0.731057
O O5 0.850485 0.425243 0.936137
O O6 0.741502 0.258499 0.942802
O O7 0.891753 0.308384 0.910358
O O8 0.867327 0.334254 0.000000
O O9 0.410178 0.589823 0.500000
O O10 0.242931 0.485861 0.500000
O O11 0.340771 0.456441 0.449851
O O12 0.745896 0.491791 0.399431
O O13 0.577312 0.422689 0.389476
O O14 0.688317 0.579236 0.358513
O O15 0.169800 0.339599 0.860722
O O16 0.000000 0.289065 0.858153
O O17 0.829466 0.658931 0.311020
O O18 0.000000 0.709832 0.308412
#
# Coordination Sequence:
#
# PCOD9587934 Si02
#       6
#    24  24  12  24  24  24
#     4  10  20  33  50  73 102 134 163 187 212 249
#     4   9  17  29  46  69  98 131 163 192 223 264
#     4   8  13  22  37  59  88 123 160 192 219 250
#     4   9  16  26  42  65  94 127 160 190 219 255
#     4  10  21  35  50  69  93 122 156 196 242 285
#     4  10  21  35  50  68  90 118 151 190 236 280
#
# _framework density 16.324100000000001
#
# number of rings (size 3 to 8) (size 9 to 14) (size 15 to 20)
#    0.000    2.545    0.000    2.273    0.000    6.182 
#    0.000    5.000    0.000    2.000    0.000    0.000 
#    0.000    4.364    0.000    4.545    0.000   10.727 
#
# Total GULP energy -736044.425260 kJ/mol
# GULP energy per Si atom -5576.094131 kJ/mol
# Density = 1.628695 g / cm^3
# Si number density = 16.324100 Si / 1000 Ang^3
#
#
#
# Elastic Constant Matrix: (Units=GPa)
#
#
# Indices 1 2 3 4 5 6 
#
# 1 78.7790 73.2783 44.5081 0.0000 0.0000 0.0000
# 2 73.2783 78.7790 44.5081 0.0000 0.0000 0.0000
# 3 44.5081 44.5081 90.7333 0.0000 0.0000 0.0000
# 4 0.0000 0.0000 0.0000 2.9762 0.0000 0.0000
# 5 0.0000 0.0000 0.0000 0.0000 2.9762 0.0000
# 6 0.0000 0.0000 0.0000 0.0000 0.0000 2.7503
#
#
#
# Elastic Compliance Matrix: (Units=1/GPa)
#
#
# Indices 1 2 3 4 5 6 
#
# 1 0.095511 -0.086285 -0.004526 0.000000 0.000000 0.000000
# 2 -0.086285 0.095511 -0.004526 0.000000 0.000000 0.000000
# 3 -0.004526 -0.004526 0.015461 0.000000 0.000000 0.000000
# 4 0.000000 0.000000 0.000000 0.335997 0.000000 0.000000
# 5 0.000000 0.000000 0.000000 0.000000 0.335997 0.000000
# 6 0.000000 0.000000 0.000000 0.000000 0.000000 0.363591
#
#
# Mechanical properties :
#
#
# Convention : Reuss Voigt Hill
#
# Bulk Modulus (GPa) = 63.24925 63.65338 63.45132
# Shear Modulus (GPa) = 3.47703 7.47368 5.47536
#
# Velocity S-wave (km/s) = 1.46103 2.14202 1.83342
# Velocity P-wave (km/s) = 6.45571 6.72278 6.59060
#
# Compressibility (1/GPa) = 0.01581046
#
# Stress axis : x y z
#
# Youngs Moduli (GPa) = 10.47004 10.47004 64.67775
#
# Poissons Ratio (x) = 0.90341 0.29271
# Poissons Ratio (y) = 0.90341 0.29271
# Poissons Ratio (z) = 0.04738 0.04738
#
# Static dielectric constant tensor:
#      x y z
#    x 1.525460 0.000000 0.000000 
#    y 0.000000 1.525460 0.000000 
#    z 0.000000 0.000000 1.581150 
# 
# From -- ./inp_files/9719.got.cif
#   From: 2010.05.17/outbox.cif.g08.bks.cpg/sg191_5_cif.got.tgz:9719.got - 2010.05.20 12:20:32.
