data_PCOD9587387
_publ_section_title
;
Structure prediction by ZEFSAII (Michael W. Deem and Ramdas Pophale) SiO2 
 PCOD9587387
Probable space group: P 6/M M M
;
_chemical_formula_sum "Si O2"
_cell_formula_units_Z 96
_cell_length_a 17.952618
_cell_length_b 17.952618
_cell_length_c 22.836684
_cell_angle_alpha 90.000000
_cell_angle_beta 90.000000
_cell_angle_gamma 120.000000
_cell_volume 6374.105598
_symmetry_space_group_name_H-M "P 6/M M M"
_symmetry_group_IT_number 191
_symmetry_cell_setting 'hexagonal'
loop_
_space_group_symop_operation_xyz
x,y,z
x-y,x,z
-y,x-y,z
-x,-y,z
-x+y,-x,z
y,-x+y,z
x-y,-y,-z
-x,-x+y,-z
y,x,-z
-y,-x,-z
-x+y,y,-z
x,x-y,-z
-x,-y,-z
-x+y,-x,-z
y,-x+y,-z
x,y,-z
x-y,x,-z
-y,x-y,-z
-x+y,y,z
x,x-y,z
-y,-x,z
y,x,z
x-y,-y,z
-x,-x+y,z
loop_
_atom_site_type_symbol
_atom_site_label
_atom_site_fract_x
_atom_site_fract_y
_atom_site_fract_z
Si Si1 0.837003 0.331031 0.627635
Si Si2 0.631119 0.729414 0.734996
Si Si3 0.590186 0.590186 0.066675
Si Si4 0.639159 0.097937 0.500000
Si Si5 0.667904 0.511384 0.848490
O O1 0.855374 0.427687 0.634326
O O2 0.736935 0.263066 0.638717
O O3 0.889346 0.309009 0.674337
O O4 0.858361 0.318364 0.561130
O O5 0.660310 0.830155 0.736481
O O6 0.704809 0.704809 0.741583
O O7 0.561961 0.684880 0.787231
O O8 0.500000 0.500000 0.064714
O O9 0.567882 0.653499 0.102672
O O10 0.617852 0.617852 0.000000
O O11 0.548666 0.097332 0.500000
O O12 0.616753 0.000000 0.500000
O O13 0.750695 0.501389 0.860722
O O14 0.581270 0.418731 0.845250
#
# Coordination Sequence:
#
# PCOD9587387 Si02
#       5
#    24  24  12  12  24
#     4  10  19  29  43  63  91 125 161 197 233 273
#     4  10  20  33  50  71  93 120 152 191 235 280
#     4   9  18  32  48  66  92 125 158 194 234 275
#     4   9  17  28  40  56  80 117 163 205 239 272
#     4  10  19  31  48  70  97 127 161 197 235 277
#
# _framework density 15.060936
#
# number of rings (size 3 to 8) (size 9 to 14) (size 15 to 20)
#    0.000    2.250    1.250    2.375    0.000    3.000 
#    0.000    3.750    0.000    1.750    0.000    0.000 
#    0.000    0.000    0.000    0.000    0.000   37.375 
#
# Total GULP energy -535066.305229 kJ/mol
# GULP energy per Si atom -5573.607346 kJ/mol
# Density = 1.502666 g / cm^3
# Si number density = 15.060936 Si / 1000 Ang^3
#
#
#
# Elastic Constant Matrix: (Units=GPa)
#
#
# Indices 1 2 3 4 5 6 
#
# 1 86.5087 60.8116 40.3612 0.0000 0.0000 0.0000
# 2 60.8116 86.5087 40.3612 0.0000 0.0000 0.0000
# 3 40.3612 40.3612 107.9925 0.0000 0.0000 0.0000
# 4 0.0000 0.0000 0.0000 16.1932 0.0000 0.0000
# 5 0.0000 0.0000 0.0000 0.0000 16.1932 0.0000
# 6 0.0000 0.0000 0.0000 0.0000 0.0000 12.8486
#
#
#
# Elastic Compliance Matrix: (Units=1/GPa)
#
#
# Indices 1 2 3 4 5 6 
#
# 1 0.023725 -0.015189 -0.003190 0.000000 0.000000 0.000000
# 2 -0.015189 0.023725 -0.003190 0.000000 0.000000 0.000000
# 3 -0.003190 -0.003190 0.011645 0.000000 0.000000 0.000000
# 4 0.000000 0.000000 0.000000 0.061754 0.000000 0.000000
# 5 0.000000 0.000000 0.000000 0.000000 0.061754 0.000000
# 6 0.000000 0.000000 0.000000 0.000000 0.000000 0.077830
#
#
# Mechanical properties :
#
#
# Convention : Reuss Voigt Hill
#
# Bulk Modulus (GPa) = 62.67417 62.67535 62.67476
# Shear Modulus (GPa) = 16.18688 18.34539 17.26613
#
# Velocity S-wave (km/s) = 3.28191 3.49388 3.38955
# Velocity P-wave (km/s) = 7.48768 7.61453 7.55137
#
# Compressibility (1/GPa) = 0.01595554
#
# Stress axis : x y z
#
# Youngs Moduli (GPa) = 42.14892 42.14892 85.87708
#
# Poissons Ratio (x) = 0.64022 0.27397
# Poissons Ratio (y) = 0.64022 0.27397
# Poissons Ratio (z) = 0.13447 0.13447
#
# Static dielectric constant tensor:
#      x y z
#    x 1.488580 0.000000 0.000000 
#    y 0.000000 1.488580 0.000000 
#    z 0.000000 0.000000 1.511110 
# 
# From -- ./inp_files/7127.got.cif
#   From: 2010.05.17/outbox.cif.g08.bks.cpg/sg191_4_cif.got.tgz:7127.got - 2010.05.20 12:20:32.
