data_PCOD9587764
_publ_section_title
;
Structure prediction by ZEFSAII (Michael W. Deem and Ramdas Pophale) SiO2 
 PCOD9587764
Probable space group: P 6/M M M
;
_chemical_formula_sum "Si O2"
_cell_formula_units_Z 66
_cell_length_a 22.341991
_cell_length_b 22.341991
_cell_length_c 7.585916
_cell_angle_alpha 90.000000
_cell_angle_beta 90.000000
_cell_angle_gamma 120.000000
_cell_volume 3279.309492
_symmetry_space_group_name_H-M "P 6/M M M"
_symmetry_group_IT_number 191
_symmetry_cell_setting 'hexagonal'
loop_
_space_group_symop_operation_xyz
x,y,z
x-y,x,z
-y,x-y,z
-x,-y,z
-x+y,-x,z
y,-x+y,z
x-y,-y,-z
-x,-x+y,-z
y,x,-z
-y,-x,-z
-x+y,y,-z
x,x-y,-z
-x,-y,-z
-x+y,-x,-z
y,-x+y,-z
x,y,-z
x-y,x,-z
-y,x-y,-z
-x+y,y,z
x,x-y,z
-y,-x,z
y,x,z
x-y,-y,z
-x,-x+y,z
loop_
_atom_site_type_symbol
_atom_site_label
_atom_site_fract_x
_atom_site_fract_y
_atom_site_fract_z
Si Si1 0.701114 0.622306 0.213876
Si Si2 0.470886 0.804643 0.215428
Si Si3 0.138978 0.861022 0.303031
Si Si4 0.082273 0.164545 0.000000
O O1 0.651327 0.651327 0.270082
O O2 0.676246 0.544410 0.272040
O O3 0.778997 0.673655 0.274521
O O4 0.702666 0.622666 0.000000
O O5 0.405042 0.810083 0.273425
O O6 0.465208 0.732604 0.269959
O O7 0.470723 0.804883 0.000000
O O8 0.125243 0.874758 0.500000
O O9 0.107976 0.892025 0.165988
O O10 0.118431 0.118431 0.000000
#
# Coordination Sequence:
#
# PCOD9587764 Si02
#       4
#    24  24  12   6
#     4  10  19  34  57  85 120 158 200 255 311 367
#     4   9  16  27  47  79 118 158 203 255 311 373
#     4  12  24  41  67  97 128 166 212 258 311 375
#     4  12  27  48  72 100 134 170 210 258 314 380
#
# _framework density 20.126187000000002
#
# number of rings (size 3 to 8) (size 9 to 14) (size 15 to 20)
#    0.000    1.818    3.636    1.545    0.000    5.091 
#    0.000    3.636    0.000    2.182    0.000    2.545 
#    0.000    0.000    0.000    0.000    0.000    0.000 
#
# Total GULP energy -369068.274266 kJ/mol
# GULP energy per Si atom -5591.943549 kJ/mol
# Density = 2.008038 g / cm^3
# Si number density = 20.126187 Si / 1000 Ang^3
#
#
#
# Elastic Constant Matrix: (Units=GPa)
#
#
# Indices 1 2 3 4 5 6 
#
# 1 205.2497 130.6981 47.0356 0.0000 0.0000 0.0000
# 2 130.6981 205.2497 47.0356 0.0000 0.0000 0.0000
# 3 47.0356 47.0356 81.4093 0.0000 0.0000 0.0000
# 4 0.0000 0.0000 0.0000 -14.2830 0.0000 0.0000
# 5 0.0000 0.0000 0.0000 0.0000 -14.2830 0.0000
# 6 0.0000 0.0000 0.0000 0.0000 0.0000 37.2758
#
#
#
# Elastic Compliance Matrix: (Units=1/GPa)
#
#
# Indices 1 2 3 4 5 6 
#
# 1 0.008482 -0.004931 -0.002052 0.000000 0.000000 0.000000
# 2 -0.004931 0.008482 -0.002052 0.000000 0.000000 0.000000
# 3 -0.002052 -0.002052 0.014654 0.000000 0.000000 0.000000
# 4 0.000000 0.000000 0.000000 -0.070013 0.000000 0.000000
# 5 0.000000 0.000000 0.000000 0.000000 -0.070013 0.000000
# 6 0.000000 0.000000 0.000000 0.000000 0.000000 0.026827
#
#
# Mechanical properties :
#
#
# Convention : Reuss Voigt Hill
#
# Bulk Modulus (GPa) = 73.80168 104.60526 89.20347
# Shear Modulus (GPa) = -84.75420 19.55123 -32.60149
#
# Velocity S-wave (km/s) = -6.49637 3.12016 -4.02911
# Velocity P-wave (km/s) = 4.41830 8.06648 4.77215
#
# Compressibility (1/GPa) = 0.01354983
#
# Stress axis : x y z
#
# Youngs Moduli (GPa) = 117.89170 117.89170 68.23846
#
# Poissons Ratio (x) = 0.58135 0.14001
# Poissons Ratio (y) = 0.58135 0.14001
# Poissons Ratio (z) = 0.24189 0.24189
#
# Static dielectric constant tensor:
#      x y z
#    x 1.666040 0.000000 0.000000 
#    y 0.000000 1.666040 0.000000 
#    z 0.000000 0.000000 1.772470 
# 
# From -- ./inp_files/689.got.cif
#   From: 2010.05.17/outbox.cif.g08.bks.cpg/sg191_1_cif.got.tgz:689.got - 2010.05.20 12:20:32.
