data_PCOD9587629
_publ_section_title
;
Structure prediction by ZEFSAII (Michael W. Deem and Ramdas Pophale) SiO2 
 PCOD9587629
Probable space group: P 6/M M M
;
_chemical_formula_sum "Si O2"
_cell_formula_units_Z 108
_cell_length_a 18.001167
_cell_length_b 18.001167
_cell_length_c 23.644501
_cell_angle_alpha 90.000000
_cell_angle_beta 90.000000
_cell_angle_gamma 120.000000
_cell_volume 6635.323579
_symmetry_space_group_name_H-M "P 6/M M M"
_symmetry_group_IT_number 191
_symmetry_cell_setting 'hexagonal'
loop_
_space_group_symop_operation_xyz
x,y,z
x-y,x,z
-y,x-y,z
-x,-y,z
-x+y,-x,z
y,-x+y,z
x-y,-y,-z
-x,-x+y,-z
y,x,-z
-y,-x,-z
-x+y,y,-z
x,x-y,-z
-x,-y,-z
-x+y,-x,-z
y,-x+y,-z
x,y,-z
x-y,x,-z
-y,x-y,-z
-x+y,y,z
x,x-y,z
-y,-x,z
y,x,z
x-y,-y,z
-x,-x+y,z
loop_
_atom_site_type_symbol
_atom_site_label
_atom_site_fract_x
_atom_site_fract_y
_atom_site_fract_z
Si Si1 0.265606 0.900505 0.434808
Si Si2 0.531626 0.896418 0.669344
Si Si3 0.897223 0.268309 0.000000
Si Si4 0.896572 0.532547 0.888834
Si Si5 0.733361 0.102452 0.778921
O O1 0.288292 0.894010 0.500000
O O2 0.164740 0.835261 0.428192
O O3 0.314368 0.873772 0.389640
O O4 0.295786 0.000000 0.424357
O O5 0.430847 0.861693 0.674902
O O6 0.573752 0.876403 0.722444
O O7 0.577993 0.000000 0.669383
O O8 0.876122 0.307236 0.944885
O O9 0.833956 0.166045 0.000000
O O10 0.000000 0.303456 0.000000
O O11 0.862025 0.431013 0.889189
O O12 0.875558 0.567924 0.832558
O O13 0.000000 0.578277 0.888650
O O14 0.835460 0.164541 0.780766
O O15 0.697865 0.000000 0.779836
#
# Coordination Sequence:
#
# PCOD9587629 Si02
#       5
#    24  24  12  24  24
#     4   9  17  29  46  68  93 122 157 195 232 271
#     4   9  17  29  46  67  88 112 146 188 232 278
#     4  10  19  31  49  72  97 127 164 202 237 277
#     4   9  17  30  49  70  90 116 152 193 236 282
#     4  10  19  31  49  72  97 126 161 198 233 272
#
# _framework density 16.276523999999998
#
# number of rings (size 3 to 8) (size 9 to 14) (size 15 to 20)
#    0.000    2.667    0.000    2.333    0.000    4.444 
#    0.000    2.222    0.000   15.667    0.000    1.556 
#    0.000   10.667    0.000    0.222    0.000    1.333 
#
# Total GULP energy -601208.970993 kJ/mol
# GULP energy per Si atom -5566.749731 kJ/mol
# Density = 1.623948 g / cm^3
# Si number density = 16.276524 Si / 1000 Ang^3
#
#
#
# Elastic Constant Matrix: (Units=GPa)
#
#
# Indices 1 2 3 4 5 6 
#
# 1 82.4995 47.6126 40.4088 0.0000 0.0000 0.0000
# 2 47.6126 82.4995 40.4088 0.0000 0.0000 0.0000
# 3 40.4088 40.4088 110.9885 0.0000 0.0000 0.0000
# 4 0.0000 0.0000 0.0000 4.0795 0.0000 0.0000
# 5 0.0000 0.0000 0.0000 0.0000 4.0795 0.0000
# 6 0.0000 0.0000 0.0000 0.0000 0.0000 17.4435
#
#
#
# Elastic Compliance Matrix: (Units=1/GPa)
#
#
# Indices 1 2 3 4 5 6 
#
# 1 0.019298 -0.009366 -0.003616 0.000000 0.000000 0.000000
# 2 -0.009366 0.019298 -0.003616 0.000000 0.000000 0.000000
# 3 -0.003616 -0.003616 0.011643 0.000000 0.000000 0.000000
# 4 0.000000 0.000000 0.000000 0.245127 0.000000 0.000000
# 5 0.000000 0.000000 0.000000 0.000000 0.245127 0.000000
# 6 0.000000 0.000000 0.000000 0.000000 0.000000 0.057328
#
#
# Mechanical properties :
#
#
# Convention : Reuss Voigt Hill
#
# Bulk Modulus (GPa) = 58.67665 59.20529 58.94097
# Shear Modulus (GPa) = 7.85302 14.95765 11.40534
#
# Velocity S-wave (km/s) = 2.19891 3.03474 2.64999
# Velocity P-wave (km/s) = 6.52496 6.98091 6.75678
#
# Compressibility (1/GPa) = 0.01704255
#
# Stress axis : x y z
#
# Youngs Moduli (GPa) = 51.81921 51.81921 85.88906
#
# Poissons Ratio (x) = 0.48535 0.31057
# Poissons Ratio (y) = 0.48535 0.31057
# Poissons Ratio (z) = 0.18737 0.18737
#
# Static dielectric constant tensor:
#      x y z
#    x 1.546420 0.000000 0.000000 
#    y 0.000000 1.546420 0.000000 
#    z 0.000000 0.000000 1.559650 
# 
# From -- ./inp_files/8419.got.cif
#   From: 2010.05.17/outbox.cif.g08.bks.cpg/sg191_5_cif.got.tgz:8419.got - 2010.05.20 12:20:32.
