data_PCOD9587117
_publ_section_title
;
Structure prediction by ZEFSAII (Michael W. Deem and Ramdas Pophale) SiO2 
 PCOD9587117
Probable space group: P 6/M M M
;
_chemical_formula_sum "Si O2"
_cell_formula_units_Z 180
_cell_length_a 22.232935
_cell_length_b 22.232935
_cell_length_c 28.519462
_cell_angle_alpha 90.000000
_cell_angle_beta 90.000000
_cell_angle_gamma 120.000000
_cell_volume 12208.591343
_symmetry_space_group_name_H-M "P 6/M M M"
_symmetry_group_IT_number 191
_symmetry_cell_setting 'hexagonal'
loop_
_space_group_symop_operation_xyz
x,y,z
x-y,x,z
-y,x-y,z
-x,-y,z
-x+y,-x,z
y,-x+y,z
x-y,-y,-z
-x,-x+y,-z
y,x,-z
-y,-x,-z
-x+y,y,-z
x,x-y,-z
-x,-y,-z
-x+y,-x,-z
y,-x+y,-z
x,y,-z
x-y,x,-z
-y,x-y,-z
-x+y,y,z
x,x-y,z
-y,-x,z
y,x,z
x-y,-y,z
-x,-x+y,z
loop_
_atom_site_type_symbol
_atom_site_label
_atom_site_fract_x
_atom_site_fract_y
_atom_site_fract_z
Si Si1 0.354505 0.919246 0.053269
Si Si2 0.612207 0.082481 0.312254
Si Si3 0.079457 0.466692 0.581185
Si Si4 0.077862 0.293030 0.928462
Si Si5 0.811985 0.332877 0.500000
Si Si6 0.786976 0.077375 0.815131
Si Si7 0.849832 0.556824 0.223531
Si Si8 0.665122 0.192317 0.130292
O O1 0.278320 0.912055 0.054498
O O2 0.353612 0.865416 0.090417
O O3 0.408326 0.000000 0.065109
O O4 0.368670 0.906230 0.000000
O O5 0.549212 0.098423 0.310531
O O6 0.640202 0.095899 0.365544
O O7 0.665304 0.123517 0.271338
O O8 0.577811 0.000000 0.304258
O O9 0.077106 0.538553 0.581438
O O10 0.139397 0.480411 0.544618
O O11 0.000000 0.407697 0.569020
O O12 0.140878 0.281756 0.943465
O O13 0.079699 0.296969 0.871670
O O14 0.000000 0.234316 0.942089
O O15 0.738428 0.261573 0.500000
O O16 0.801302 0.400651 0.500000
O O17 0.863791 0.136209 0.801091
O O18 0.733498 0.098623 0.794058
O O19 0.765502 0.000000 0.801171
O O20 0.775301 0.550602 0.230503
O O21 0.840680 0.505792 0.180697
O O22 0.607835 0.215669 0.129891
O O23 0.742267 0.257734 0.122791
#
# Coordination Sequence:
#
# PCOD9587117 Si02
#       8
#    24  24  24  24  12  24  24  24
#     4  10  21  36  54  74  92 110 137 180 229 268
#     4   9  17  29  45  65  87 111 143 183 223 262
#     4   8  15  28  44  60  80 111 149 183 216 259
#     4   9  16  28  46  67  90 114 141 171 206 250
#     4  10  18  27  41  61  86 113 144 184 229 270
#     4   9  16  27  44  65  88 113 142 174 209 252
#     4  10  19  30  46  67  90 116 145 180 218 257
#     4  11  23  38  53  69  91 121 153 180 210 257
#
# _framework density 14.743715
#
# number of rings (size 3 to 8) (size 9 to 14) (size 15 to 20)
#    0.000    2.533    1.333    2.400    0.000    3.467 
#    0.000    0.667    0.000    1.333    0.000    1.867 
#    0.000    0.000    0.000    3.333    0.000    3.467 
#
# Total GULP energy -1003247.983673 kJ/mol
# GULP energy per Si atom -5573.599909 kJ/mol
# Density = 1.471016 g / cm^3
# Si number density = 14.743715 Si / 1000 Ang^3
#
#
#
# Elastic Constant Matrix: (Units=GPa)
#
#
# Indices 1 2 3 4 5 6 
#
# 1 61.4243 30.1554 45.7741 0.0000 0.0000 0.0000
# 2 30.1554 61.4243 45.7741 0.0000 0.0000 0.0000
# 3 45.7741 45.7741 97.7627 0.0000 0.0000 0.0000
# 4 0.0000 0.0000 0.0000 5.5900 0.0000 0.0000
# 5 0.0000 0.0000 0.0000 0.0000 5.5900 0.0000
# 6 0.0000 0.0000 0.0000 0.0000 0.0000 15.6345
#
#
#
# Elastic Compliance Matrix: (Units=1/GPa)
#
#
# Indices 1 2 3 4 5 6 
#
# 1 0.026254 -0.005727 -0.009611 0.000000 0.000000 0.000000
# 2 -0.005727 0.026254 -0.009611 0.000000 0.000000 0.000000
# 3 -0.009611 -0.009611 0.019229 0.000000 0.000000 0.000000
# 4 0.000000 0.000000 0.000000 0.178890 0.000000 0.000000
# 5 0.000000 0.000000 0.000000 0.000000 0.178890 0.000000
# 6 0.000000 0.000000 0.000000 0.000000 0.000000 0.063961
#
#
# Mechanical properties :
#
#
# Convention : Reuss Voigt Hill
#
# Bulk Modulus (GPa) = 45.78982 51.55758 48.67370
# Shear Modulus (GPa) = 9.08008 11.95676 10.51842
#
# Velocity S-wave (km/s) = 2.48435 2.85085 2.67389
# Velocity P-wave (km/s) = 6.27327 6.77359 6.52823
#
# Compressibility (1/GPa) = 0.02183891
#
# Stress axis : x y z
#
# Youngs Moduli (GPa) = 38.08942 38.08942 52.00440
#
# Poissons Ratio (x) = 0.21812 0.49983
# Poissons Ratio (y) = 0.21812 0.49983
# Poissons Ratio (z) = 0.36609 0.36609
#
# Static dielectric constant tensor:
#      x y z
#    x 1.482650 0.000000 0.000000 
#    y 0.000000 1.482650 0.000000 
#    z 0.000000 0.000000 1.493980 
# 
# From -- ./inp_files/10852.got.cif
#   From: 2010.05.17/outbox.cif.g08.bks.cpg/sg191_6_cif.got.tgz:10852.got - 2010.05.20 12:20:32.
