data_PCOD9587585
_publ_section_title
;
Structure prediction by ZEFSAII (Michael W. Deem and Ramdas Pophale) SiO2 
 PCOD9587585
Probable space group: P 6/M M M
;
_chemical_formula_sum "Si O2"
_cell_formula_units_Z 132
_cell_length_a 18.280279
_cell_length_b 18.280279
_cell_length_c 29.899203
_cell_angle_alpha 90.000000
_cell_angle_beta 90.000000
_cell_angle_gamma 120.000000
_cell_volume 8652.784410
_symmetry_space_group_name_H-M "P 6/M M M"
_symmetry_group_IT_number 191
_symmetry_cell_setting 'hexagonal'
loop_
_space_group_symop_operation_xyz
x,y,z
x-y,x,z
-y,x-y,z
-x,-y,z
-x+y,-x,z
y,-x+y,z
x-y,-y,-z
-x,-x+y,-z
y,x,-z
-y,-x,-z
-x+y,y,-z
x,x-y,-z
-x,-y,-z
-x+y,-x,-z
y,-x+y,-z
x,y,-z
x-y,x,-z
-y,x-y,-z
-x+y,y,z
x,x-y,z
-y,-x,z
y,x,z
x-y,-y,z
-x,-x+y,z
loop_
_atom_site_type_symbol
_atom_site_label
_atom_site_fract_x
_atom_site_fract_y
_atom_site_fract_z
Si Si1 0.411408 0.411408 0.948975
Si Si2 0.666762 0.505707 0.372071
Si Si3 0.642113 0.904481 0.552477
Si Si4 0.667664 0.508294 0.112670
Si Si5 0.737395 0.641833 0.296270
Si Si6 0.902363 0.637905 0.808714
O O1 0.500000 0.500000 0.950046
O O2 0.433868 0.348557 0.922387
O O3 0.384712 0.384712 0.000000
O O4 0.741487 0.482974 0.371949
O O5 0.576573 0.423428 0.371948
O O6 0.681915 0.563400 0.415549
O O7 0.682030 0.564032 0.328860
O O8 0.619025 0.897835 0.500000
O O9 0.668846 0.834423 0.561629
O O10 0.714013 0.000000 0.561232
O O11 0.751014 0.502028 0.102365
O O12 0.583918 0.416083 0.113534
O O13 0.683661 0.556232 0.160138
O O14 0.834277 0.668553 0.305117
O O15 0.714189 0.714189 0.304511
O O16 0.719827 0.617131 0.244006
O O17 0.834304 0.668607 0.816845
O O18 0.000000 0.705286 0.818663
#
# Coordination Sequence:
#
# PCOD9587585 Si02
#       6
#    12  24  24  24  24  24
#     4   9  18  32  48  66  90 120 153 191 232 270
#     4  10  20  33  47  65  90 120 153 189 229 271
#     4   9  18  32  49  68  90 117 149 185 226 271
#     4  10  19  31  47  68  94 124 157 193 233 277
#     4   9  18  31  47  68  93 121 152 186 227 273
#     4   9  17  30  48  69  93 122 155 190 229 274
#
# _framework density 15.255205
#
# number of rings (size 3 to 8) (size 9 to 14) (size 15 to 20)
#    0.000    2.636    0.909    0.909    0.000    2.909 
#    0.000    2.727    0.000    4.909    0.000    3.818 
#    0.000    4.364    0.000    0.364    0.000    8.273 
#
# Total GULP energy -735173.277077 kJ/mol
# GULP energy per Si atom -5569.494523 kJ/mol
# Density = 1.522048 g / cm^3
# Si number density = 15.255205 Si / 1000 Ang^3
#
#
#
# Elastic Constant Matrix: (Units=GPa)
#
#
# Indices 1 2 3 4 5 6 
#
# 1 107.7119 87.9885 59.8782 0.0000 0.0000 0.0000
# 2 87.9885 107.7119 59.8782 0.0000 0.0000 0.0000
# 3 59.8782 59.8782 68.6114 0.0000 0.0000 0.0000
# 4 0.0000 0.0000 0.0000 18.7759 0.0000 0.0000
# 5 0.0000 0.0000 0.0000 0.0000 18.7759 0.0000
# 6 0.0000 0.0000 0.0000 0.0000 0.0000 9.8617
#
#
#
# Elastic Compliance Matrix: (Units=1/GPa)
#
#
# Indices 1 2 3 4 5 6 
#
# 1 0.030834 -0.019867 -0.009571 0.000000 0.000000 0.000000
# 2 -0.019867 0.030834 -0.009571 0.000000 0.000000 0.000000
# 3 -0.009571 -0.009571 0.031280 0.000000 0.000000 0.000000
# 4 0.000000 0.000000 0.000000 0.053260 0.000000 0.000000
# 5 0.000000 0.000000 0.000000 0.000000 0.053260 0.000000
# 6 0.000000 0.000000 0.000000 0.000000 0.000000 0.101402
#
#
# Mechanical properties :
#
#
# Convention : Reuss Voigt Hill
#
# Bulk Modulus (GPa) = 66.97843 77.72501 72.35172
# Shear Modulus (GPa) = 13.02549 14.56872 13.79711
#
# Velocity S-wave (km/s) = 2.92522 3.09366 3.01062
# Velocity P-wave (km/s) = 7.44378 7.98883 7.72112
#
# Compressibility (1/GPa) = 0.01493018
#
# Stress axis : x y z
#
# Youngs Moduli (GPa) = 32.43193 32.43193 31.96965
#
# Poissons Ratio (x) = 0.64434 0.30597
# Poissons Ratio (y) = 0.64434 0.30597
# Poissons Ratio (z) = 0.31039 0.31039
#
# Static dielectric constant tensor:
#      x y z
#    x 1.492780 0.000000 0.000000 
#    y 0.000000 1.492780 0.000000 
#    z 0.000000 0.000000 1.518840 
# 
# From -- ./inp_files/9754.got.cif
#   From: 2010.05.17/outbox.cif.g08.bks.cpg/sg191_5_cif.got.tgz:9754.got - 2010.05.20 12:20:32.
