data_PCOD9587189
_publ_section_title
;
Structure prediction by ZEFSAII (Michael W. Deem and Ramdas Pophale) SiO2 
 PCOD9587189
Probable space group: P 6/M M M
;
_chemical_formula_sum "Si O2"
_cell_formula_units_Z 132
_cell_length_a 26.218973
_cell_length_b 26.218973
_cell_length_c 14.000976
_cell_angle_alpha 90.000000
_cell_angle_beta 90.000000
_cell_angle_gamma 120.000000
_cell_volume 8335.281962
_symmetry_space_group_name_H-M "P 6/M M M"
_symmetry_group_IT_number 191
_symmetry_cell_setting 'hexagonal'
loop_
_space_group_symop_operation_xyz
x,y,z
x-y,x,z
-y,x-y,z
-x,-y,z
-x+y,-x,z
y,-x+y,z
x-y,-y,-z
-x,-x+y,-z
y,x,-z
-y,-x,-z
-x+y,y,-z
x,x-y,-z
-x,-y,-z
-x+y,-x,-z
y,-x+y,-z
x,y,-z
x-y,x,-z
-y,x-y,-z
-x+y,y,z
x,x-y,z
-y,-x,z
y,x,z
x-y,-y,z
-x,-x+y,z
loop_
_atom_site_type_symbol
_atom_site_label
_atom_site_fract_x
_atom_site_fract_y
_atom_site_fract_z
Si Si1 0.667006 0.213969 0.787180
Si Si2 0.443358 0.000000 0.115127
Si Si3 0.356184 0.070126 0.716161
Si Si4 0.292027 0.827889 0.611368
Si Si5 0.818364 0.066300 0.611783
Si Si6 0.319386 0.885863 0.112619
O O1 0.603356 0.206712 0.804145
O O2 0.718625 0.281376 0.797423
O O3 0.672692 0.192414 0.681171
O O4 0.680971 0.173278 0.856707
O O5 0.443511 0.059548 0.138578
O O6 0.500000 0.000000 0.156070
O O7 0.446761 0.000000 0.000000
O O8 0.411900 0.109456 0.647848
O O9 0.302336 0.075914 0.675819
O O10 0.378624 0.100213 0.819757
O O11 0.333086 0.000000 0.717885
O O12 0.306366 0.829524 0.500000
O O13 0.222981 0.777020 0.623482
O O14 0.805544 0.071780 0.500000
O O15 0.884601 0.115399 0.631267
O O16 0.803984 0.000000 0.626067
O O17 0.309023 0.886554 0.000000
#
# Coordination Sequence:
#
# PCOD9587189 Si02
#       6
#    24  12  24  24  24  24
#     4  10  21  36  53  72  93 118 151 193 239 284
#     4   9  16  28  48  68  85 113 153 193 229 266
#     4  10  18  28  46  72  99 127 159 194 235 282
#     4   9  18  32  49  69  94 123 154 190 232 280
#     4   9  17  29  47  72 101 132 166 202 239 280
#     4  10  20  34  50  70  95 124 158 194 232 280
#
# _framework density 15.836297999999999
#
# number of rings (size 3 to 8) (size 9 to 14) (size 15 to 20)
#    0.000    2.455    0.909    1.818    0.000    5.091 
#    0.000    0.000    0.000    2.364    0.000    3.818 
#    0.000    0.000    0.000    0.000    0.000    0.000 
#
# Total GULP energy -735452.909720 kJ/mol
# GULP energy per Si atom -5571.612952 kJ/mol
# Density = 1.580025 g / cm^3
# Si number density = 15.836298 Si / 1000 Ang^3
#
#
#
# Elastic Constant Matrix: (Units=GPa)
#
#
# Indices 1 2 3 4 5 6 
#
# 1 78.9018 48.3397 32.2381 0.0000 0.0000 0.0000
# 2 48.3397 78.9018 32.2381 0.0000 0.0000 0.0000
# 3 32.2381 32.2381 73.0009 0.0000 0.0000 0.0000
# 4 0.0000 0.0000 0.0000 14.5708 0.0000 0.0000
# 5 0.0000 0.0000 0.0000 0.0000 14.5708 0.0000
# 6 0.0000 0.0000 0.0000 0.0000 0.0000 15.2811
#
#
#
# Elastic Compliance Matrix: (Units=1/GPa)
#
#
# Indices 1 2 3 4 5 6 
#
# 1 0.021423 -0.011298 -0.004471 0.000000 0.000000 0.000000
# 2 -0.011298 0.021423 -0.004471 0.000000 0.000000 0.000000
# 3 -0.004471 -0.004471 0.017648 0.000000 0.000000 0.000000
# 4 0.000000 0.000000 0.000000 0.068630 0.000000 0.000000
# 5 0.000000 0.000000 0.000000 0.000000 0.068630 0.000000
# 6 0.000000 0.000000 0.000000 0.000000 0.000000 0.065441
#
#
# Mechanical properties :
#
#
# Convention : Reuss Voigt Hill
#
# Bulk Modulus (GPa) = 49.96955 50.71513 50.34234
# Shear Modulus (GPa) = 16.11111 16.75044 16.43078
#
# Velocity S-wave (km/s) = 3.19306 3.25580 3.22458
# Velocity P-wave (km/s) = 6.72432 6.79910 6.76181
#
# Compressibility (1/GPa) = 0.02001219
#
# Stress axis : x y z
#
# Youngs Moduli (GPa) = 46.67989 46.67989 56.66509
#
# Poissons Ratio (x) = 0.52738 0.25336
# Poissons Ratio (y) = 0.52738 0.25336
# Poissons Ratio (z) = 0.20872 0.20872
#
# Static dielectric constant tensor:
#      x y z
#    x 1.527350 0.000000 0.000000 
#    y 0.000000 1.527350 0.000000 
#    z 0.000000 0.000000 1.535430 
# 
# From -- ./inp_files/4907.got.cif
#   From: 2010.05.17/outbox.cif.g08.bks.cpg/sg191_3_cif.got.tgz:4907.got - 2010.05.20 12:20:32.
