data_PCOD9587325
_publ_section_title
;
Structure prediction by ZEFSAII (Michael W. Deem and Ramdas Pophale) SiO2 
 PCOD9587325
Probable space group: P 6/M M M
;
_chemical_formula_sum "Si O2"
_cell_formula_units_Z 168
_cell_length_a 29.682410
_cell_length_b 29.682410
_cell_length_c 13.263280
_cell_angle_alpha 90.000000
_cell_angle_beta 90.000000
_cell_angle_gamma 120.000000
_cell_volume 10119.985473
_symmetry_space_group_name_H-M "P 6/M M M"
_symmetry_group_IT_number 191
_symmetry_cell_setting 'hexagonal'
loop_
_space_group_symop_operation_xyz
x,y,z
x-y,x,z
-y,x-y,z
-x,-y,z
-x+y,-x,z
y,-x+y,z
x-y,-y,-z
-x,-x+y,-z
y,x,-z
-y,-x,-z
-x+y,y,-z
x,x-y,-z
-x,-y,-z
-x+y,-x,-z
y,-x+y,-z
x,y,-z
x-y,x,-z
-y,x-y,-z
-x+y,y,z
x,x-y,z
-y,-x,z
y,x,z
x-y,-y,z
-x,-x+y,z
loop_
_atom_site_type_symbol
_atom_site_label
_atom_site_fract_x
_atom_site_fract_y
_atom_site_fract_z
Si Si1 0.063276 0.531638 0.122593
Si Si2 0.845529 0.587474 0.879600
Si Si3 0.868589 0.510183 0.763835
Si Si4 0.937350 0.231292 0.609922
Si Si5 0.227425 0.665945 0.382230
Si Si6 0.398157 0.059872 0.615860
Si Si7 0.902354 0.202071 0.826536
Si Si8 0.056232 0.835804 0.000000
O O1 0.094792 0.588873 0.174051
O O2 0.000000 0.500000 0.143333
O O3 0.068722 0.534361 0.000000
O O4 0.791662 0.583324 0.842963
O O5 0.848962 0.539013 0.839188
O O6 0.893924 0.642884 0.843802
O O7 0.845806 0.588727 0.000000
O O8 0.819612 0.467581 0.697994
O O9 0.904782 0.553674 0.683855
O O10 0.919642 0.205489 0.500000
O O11 0.924071 0.277775 0.615837
O O12 0.915677 0.198951 0.711031
O O13 0.000000 0.259632 0.612105
O O14 0.210820 0.665946 0.500000
O O15 0.244748 0.622374 0.377587
O O16 0.276633 0.723368 0.361664
O O17 0.414379 0.061961 0.500000
O O18 0.369892 0.000000 0.649826
O O19 0.846501 0.153500 0.852707
O O20 0.939441 0.195134 0.903700
O O21 0.105623 0.894378 0.000000
O O22 0.000000 0.830620 0.000000
#
# Coordination Sequence:
#
# PCOD9587325 Si02
#       8
#    12  24  24  24  24  24  24  12
#     4  11  26  44  57  77 109 143 182 230 277 323
#     4  10  20  34  52  76 104 132 169 218 270 319
#     4  12  20  37  59  78 101 140 176 222 265 330
#     4   9  17  30  46  66  97 135 173 212 250 296
#     4  10  21  38  60  87 113 137 170 218 278 346
#     4   9  18  31  48  72 102 133 168 209 250 301
#     4  10  18  31  49  73 106 135 169 217 261 309
#     4  10  20  34  54  79 110 145 181 227 275 315
#
# _framework density 16.600814
#
# number of rings (size 3 to 8) (size 9 to 14) (size 15 to 20)
#    0.000    1.929    2.857    3.143    0.000    0.857 
#    0.000    0.000    0.000    1.786    0.000    0.000 
#    0.000    0.000    0.000    0.000    0.000    0.000 
#
# Total GULP energy -935546.495937 kJ/mol
# GULP energy per Si atom -5568.729142 kJ/mol
# Density = 1.656303 g / cm^3
# Si number density = 16.600814 Si / 1000 Ang^3
#
#
#
# Elastic Constant Matrix: (Units=GPa)
#
#
# Indices 1 2 3 4 5 6 
#
# 1 66.1178 33.1886 30.6658 0.0000 0.0000 0.0000
# 2 33.1886 66.1178 30.6658 0.0000 0.0000 0.0000
# 3 30.6658 30.6658 86.7137 0.0000 0.0000 0.0000
# 4 0.0000 0.0000 0.0000 45.1268 0.0000 0.0000
# 5 0.0000 0.0000 0.0000 0.0000 45.1268 0.0000
# 6 0.0000 0.0000 0.0000 0.0000 0.0000 16.4646
#
#
#
# Elastic Compliance Matrix: (Units=1/GPa)
#
#
# Indices 1 2 3 4 5 6 
#
# 1 0.021626 -0.008742 -0.004556 0.000000 0.000000 0.000000
# 2 -0.008742 0.021626 -0.004556 0.000000 0.000000 0.000000
# 3 -0.004556 -0.004556 0.014755 0.000000 0.000000 0.000000
# 4 0.000000 0.000000 0.000000 0.022160 0.000000 0.000000
# 5 0.000000 0.000000 0.000000 0.000000 0.022160 0.000000
# 6 0.000000 0.000000 0.000000 0.000000 0.000000 0.060736
#
#
# Mechanical properties :
#
#
# Convention : Reuss Voigt Hill
#
# Bulk Modulus (GPa) = 44.84850 45.33219 45.09034
# Shear Modulus (GPa) = 24.24775 29.63893 26.94334
#
# Velocity S-wave (km/s) = 3.82597 4.22997 4.03303
# Velocity P-wave (km/s) = 6.82583 7.15705 6.99340
#
# Compressibility (1/GPa) = 0.02229729
#
# Stress axis : x y z
#
# Youngs Moduli (GPa) = 46.24063 46.24063 67.77451
#
# Poissons Ratio (x) = 0.40424 0.30880
# Poissons Ratio (y) = 0.40424 0.30880
# Poissons Ratio (z) = 0.21069 0.21069
#
# Static dielectric constant tensor:
#      x y z
#    x 1.567860 0.000000 0.000000 
#    y 0.000000 1.567860 0.000000 
#    z 0.000000 0.000000 1.568850 
# 
# From -- ./inp_files/3661.got.cif
#   From: 2010.05.17/outbox.cif.g08.bks.cpg/sg191_2_cif.got.tgz:3661.got - 2010.05.20 12:20:32.
