data_PCOD9587561
_publ_section_title
;
Structure prediction by ZEFSAII (Michael W. Deem and Ramdas Pophale) SiO2 
 PCOD9587561
Probable space group: P 6/M M M
;
_chemical_formula_sum "Si O2"
_cell_formula_units_Z 132
_cell_length_a 18.099187
_cell_length_b 18.099187
_cell_length_c 28.168034
_cell_angle_alpha 90.000000
_cell_angle_beta 90.000000
_cell_angle_gamma 120.000000
_cell_volume 7991.076758
_symmetry_space_group_name_H-M "P 6/M M M"
_symmetry_group_IT_number 191
_symmetry_cell_setting 'hexagonal'
loop_
_space_group_symop_operation_xyz
x,y,z
x-y,x,z
-y,x-y,z
-x,-y,z
-x+y,-x,z
y,-x+y,z
x-y,-y,-z
-x,-x+y,-z
y,x,-z
-y,-x,-z
-x+y,y,-z
x,x-y,-z
-x,-y,-z
-x+y,-x,-z
y,-x+y,-z
x,y,-z
x-y,x,-z
-y,x-y,-z
-x+y,y,z
x,x-y,z
-y,-x,z
y,x,z
x-y,-y,z
-x,-x+y,z
loop_
_atom_site_type_symbol
_atom_site_label
_atom_site_fract_x
_atom_site_fract_y
_atom_site_fract_z
Si Si1 0.901961 0.803922 0.557696
Si Si2 0.467734 0.103322 0.725822
Si Si3 0.101352 0.638203 0.619011
Si Si4 0.802258 0.197743 0.556814
Si Si5 0.364673 0.897136 0.092875
Si Si6 0.265068 0.898085 0.816232
Si Si7 0.370390 0.267993 0.000000
O O1 0.852231 0.852231 0.573960
O O2 0.903579 0.807157 0.500000
O O3 0.852341 0.704682 0.570557
O O4 0.566777 0.133553 0.735688
O O5 0.459022 0.130583 0.672793
O O6 0.421335 0.122616 0.767838
O O7 0.420035 0.000000 0.723951
O O8 0.114840 0.557420 0.612921
O O9 0.148590 0.709374 0.579922
O O10 0.000000 0.601313 0.615877
O O11 0.799297 0.200704 0.500000
O O12 0.431452 0.862903 0.092166
O O13 0.308489 0.875909 0.140118
O O14 0.422094 0.000000 0.093134
O O15 0.307339 0.877003 0.046156
O O16 0.163719 0.836282 0.819447
O O17 0.300611 0.000000 0.817748
O O18 0.302669 0.302669 0.000000
O O19 0.332558 0.166279 0.000000
#
# Coordination Sequence:
#
# PCOD9587561 Si02
#       7
#    12  24  24  12  24  24  12
#     4   9  17  30  49  74 104 134 162 197 245 298
#     4   8  15  30  52  74  94 119 154 198 248 301
#     4   9  19  36  55  73  96 129 166 203 248 298
#     4  11  22  33  50  77 102 128 165 209 244 287
#     4   9  17  30  49  72  96 126 166 210 257 308
#     4  10  19  30  49  76 103 132 169 213 254 296
#     4  10  19  31  49  72 101 141 186 226 261 303
#
# _framework density 16.518425000000001
#
# number of rings (size 3 to 8) (size 9 to 14) (size 15 to 20)
#    0.000    2.727    0.000    3.091    1.273    5.091 
#    0.545    0.909    0.000    9.000    0.000    0.000 
#    0.000    4.364    0.000    0.000    0.000    0.364 
#
# Total GULP energy -735284.213294 kJ/mol
# GULP energy per Si atom -5570.334949 kJ/mol
# Density = 1.648083 g / cm^3
# Si number density = 16.518425 Si / 1000 Ang^3
#
#
#
# Elastic Constant Matrix: (Units=GPa)
#
#
# Indices 1 2 3 4 5 6 
#
# 1 73.1385 54.5688 51.6530 0.0000 0.0000 0.0000
# 2 54.5688 73.1385 51.6530 0.0000 0.0000 0.0000
# 3 51.6530 51.6530 111.9402 0.0000 0.0000 0.0000
# 4 0.0000 0.0000 0.0000 8.6143 0.0000 0.0000
# 5 0.0000 0.0000 0.0000 0.0000 8.6143 0.0000
# 6 0.0000 0.0000 0.0000 0.0000 0.0000 9.2848
#
#
#
# Elastic Compliance Matrix: (Units=1/GPa)
#
#
# Indices 1 2 3 4 5 6 
#
# 1 0.033173 -0.020679 -0.005765 0.000000 0.000000 0.000000
# 2 -0.020679 0.033173 -0.005765 0.000000 0.000000 0.000000
# 3 -0.005765 -0.005765 0.014254 0.000000 0.000000 0.000000
# 4 0.000000 0.000000 0.000000 0.116086 0.000000 0.000000
# 5 0.000000 0.000000 0.000000 0.000000 0.116086 0.000000
# 6 0.000000 0.000000 0.000000 0.000000 0.000000 0.107703
#
#
# Mechanical properties :
#
#
# Convention : Reuss Voigt Hill
#
# Bulk Modulus (GPa) = 61.80012 63.77409 62.78710
# Shear Modulus (GPa) = 10.19815 11.99218 11.09516
#
# Velocity S-wave (km/s) = 2.48741 2.69734 2.59450
# Velocity P-wave (km/s) = 6.76341 6.95647 6.86062
#
# Compressibility (1/GPa) = 0.01618120
#
# Stress axis : x y z
#
# Youngs Moduli (GPa) = 30.14533 30.14533 70.15665
#
# Poissons Ratio (x) = 0.62336 0.40446
# Poissons Ratio (y) = 0.62336 0.40446
# Poissons Ratio (z) = 0.17379 0.17379
#
# Static dielectric constant tensor:
#      x y z
#    x 1.561650 0.000000 0.000000 
#    y 0.000000 1.561650 0.000000 
#    z 0.000000 0.000000 1.563000 
# 
# From -- ./inp_files/8751.got.cif
#   From: 2010.05.17/outbox.cif.g08.bks.cpg/sg191_5_cif.got.tgz:8751.got - 2010.05.20 12:20:32.
