data_PCOD9587280
_publ_section_title
;
Structure prediction by ZEFSAII (Michael W. Deem and Ramdas Pophale) SiO2 
 PCOD9587280
Probable space group: P 6/M M M
;
_chemical_formula_sum "Si O2"
_cell_formula_units_Z 192
_cell_length_a 29.323123
_cell_length_b 29.323123
_cell_length_c 15.890047
_cell_angle_alpha 90.000000
_cell_angle_beta 90.000000
_cell_angle_gamma 120.000000
_cell_volume 11832.493039
_symmetry_space_group_name_H-M "P 6/M M M"
_symmetry_group_IT_number 191
_symmetry_cell_setting 'hexagonal'
loop_
_space_group_symop_operation_xyz
x,y,z
x-y,x,z
-y,x-y,z
-x,-y,z
-x+y,-x,z
y,-x+y,z
x-y,-y,-z
-x,-x+y,-z
y,x,-z
-y,-x,-z
-x+y,y,-z
x,x-y,-z
-x,-y,-z
-x+y,-x,-z
y,-x+y,-z
x,y,-z
x-y,x,-z
-y,x-y,-z
-x+y,y,z
x,x-y,z
-y,-x,z
y,x,z
x-y,-y,z
-x,-x+y,z
loop_
_atom_site_type_symbol
_atom_site_label
_atom_site_fract_x
_atom_site_fract_y
_atom_site_fract_z
Si Si1 0.364435 0.831114 0.588049
Si Si2 0.315417 0.378672 0.902459
Si Si3 0.061471 0.711022 0.400823
Si Si4 0.479875 0.062910 0.841621
Si Si5 0.775859 0.334441 0.093430
Si Si6 0.129244 0.365621 0.241837
Si Si7 0.298302 0.491409 0.753314
Si Si8 0.940818 0.542819 0.357040
O O1 0.334436 0.814360 0.500000
O O2 0.405231 0.810462 0.592397
O O3 0.329378 0.815398 0.668858
O O4 0.397089 0.894262 0.591833
O O5 0.344355 0.344355 0.889660
O O6 0.361130 0.439515 0.885015
O O7 0.266412 0.357541 0.837599
O O8 0.298903 0.374241 0.000000
O O9 0.077301 0.723524 0.500000
O O10 0.096943 0.753116 0.329423
O O11 0.062776 0.657988 0.375359
O O12 0.000000 0.694332 0.394557
O O13 0.542075 0.084149 0.861799
O O14 0.473451 0.068725 0.741324
O O15 0.451357 0.000000 0.857889
O O16 0.767494 0.383747 0.107065
O O17 0.719281 0.280720 0.094233
O O18 0.813114 0.332729 0.164996
O O19 0.798390 0.338759 0.000000
O O20 0.175330 0.350660 0.230259
O O21 0.159223 0.428997 0.248147
O O22 0.252820 0.505639 0.755635
O O23 0.000000 0.557920 0.378098
#
# Coordination Sequence:
#
# PCOD9587280 Si02
#       8
#    24  24  24  24  24  24  24  24
#     4  11  22  33  46  65  89 116 147 181 216 261
#     4  10  20  35  54  73  97 132 169 204 248 301
#     4  10  19  33  55  77  98 126 159 195 236 285
#     4   9  16  27  46  70  95 124 160 204 246 289
#     4   9  17  31  52  73  87 100 126 170 225 284
#     4  11  22  35  52  74  99 127 161 199 238 283
#     4  10  21  35  49  65  87 116 145 175 221 279
#     4  10  18  30  48  68  93 122 147 177 222 274
#
# _framework density 16.226503999999998
#
# number of rings (size 3 to 8) (size 9 to 14) (size 15 to 20)
#    0.000    2.000    2.500    1.625    0.000    3.500 
#    0.000    5.000    0.000    0.250    0.000    0.000 
#    0.000    0.000    0.000    0.375    0.000    1.625 
#
# Total GULP energy -1070348.159643 kJ/mol
# GULP energy per Si atom -5574.729998 kJ/mol
# Density = 1.618957 g / cm^3
# Si number density = 16.226504 Si / 1000 Ang^3
#
#
#
# Elastic Constant Matrix: (Units=GPa)
#
#
# Indices 1 2 3 4 5 6 
#
# 1 46.7533 20.1297 43.2391 0.0000 0.0000 0.0000
# 2 20.1297 46.7533 43.2391 0.0000 0.0000 0.0000
# 3 43.2391 43.2391 122.4720 0.0000 0.0000 0.0000
# 4 0.0000 0.0000 0.0000 13.6882 0.0000 0.0000
# 5 0.0000 0.0000 0.0000 0.0000 13.6882 0.0000
# 6 0.0000 0.0000 0.0000 0.0000 0.0000 13.3118
#
#
#
# Elastic Compliance Matrix: (Units=1/GPa)
#
#
# Indices 1 2 3 4 5 6 
#
# 1 0.032535 -0.005026 -0.009712 0.000000 0.000000 0.000000
# 2 -0.005026 0.032535 -0.009712 0.000000 0.000000 0.000000
# 3 -0.009712 -0.009712 0.015023 0.000000 0.000000 0.000000
# 4 0.000000 0.000000 0.000000 0.073056 0.000000 0.000000
# 5 0.000000 0.000000 0.000000 0.000000 0.073056 0.000000
# 6 0.000000 0.000000 0.000000 0.000000 0.000000 0.075121
#
#
# Mechanical properties :
#
#
# Convention : Reuss Voigt Hill
#
# Bulk Modulus (GPa) = 32.05899 47.68825 39.87362
# Shear Modulus (GPa) = 13.86487 15.42900 14.64693
#
# Velocity S-wave (km/s) = 2.92628 3.08693 3.00768
# Velocity P-wave (km/s) = 5.58727 6.49295 6.05706
#
# Compressibility (1/GPa) = 0.03119250
#
# Stress axis : x y z
#
# Youngs Moduli (GPa) = 30.73621 30.73621 66.56477
#
# Poissons Ratio (x) = 0.15447 0.64649
# Poissons Ratio (y) = 0.15447 0.64649
# Poissons Ratio (z) = 0.29852 0.29852
#
# Static dielectric constant tensor:
#      x y z
#    x 1.565730 0.000000 0.000000 
#    y 0.000000 1.565730 0.000000 
#    z 0.000000 0.000000 1.612440 
# 
# From -- ./inp_files/5546.got.cif
#   From: 2010.05.17/outbox.cif.g08.bks.cpg/sg191_3_cif.got.tgz:5546.got - 2010.05.20 12:20:32.
