data_PCOD9587097
_publ_section_title
;
Structure prediction by ZEFSAII (Michael W. Deem and Ramdas Pophale) SiO2 
 PCOD9587097
Probable space group: P 6/M M M
;
_chemical_formula_sum "Si O2"
_cell_formula_units_Z 120
_cell_length_a 18.465637
_cell_length_b 18.465637
_cell_length_c 25.812246
_cell_angle_alpha 90.000000
_cell_angle_beta 90.000000
_cell_angle_gamma 120.000000
_cell_volume 7622.282047
_symmetry_space_group_name_H-M "P 6/M M M"
_symmetry_group_IT_number 191
_symmetry_cell_setting 'hexagonal'
loop_
_space_group_symop_operation_xyz
x,y,z
x-y,x,z
-y,x-y,z
-x,-y,z
-x+y,-x,z
y,-x+y,z
x-y,-y,-z
-x,-x+y,-z
y,x,-z
-y,-x,-z
-x+y,y,-z
x,x-y,-z
-x,-y,-z
-x+y,-x,-z
y,-x+y,-z
x,y,-z
x-y,x,-z
-y,x-y,-z
-x+y,y,z
x,x-y,z
-y,-x,z
y,x,z
x-y,-y,z
-x,-x+y,z
loop_
_atom_site_type_symbol
_atom_site_label
_atom_site_fract_x
_atom_site_fract_y
_atom_site_fract_z
Si Si1 0.100186 0.466796 0.390738
Si Si2 0.500205 0.669033 0.500000
Si Si3 0.641760 0.905290 0.000000
Si Si4 0.900604 0.532530 0.801261
Si Si5 0.499379 0.332647 0.915637
Si Si6 0.638230 0.900459 0.294644
O O1 0.130837 0.565419 0.382953
O O2 0.132624 0.453612 0.445794
O O3 0.120183 0.424458 0.343165
O O4 0.000000 0.420439 0.393565
O O5 0.426137 0.573864 0.500000
O O6 0.466089 0.733044 0.500000
O O7 0.581499 0.887985 0.049368
O O8 0.667314 0.833657 0.000000
O O9 0.715907 0.000000 0.000000
O O10 0.881134 0.440567 0.783151
O O11 0.853670 0.521779 0.855116
O O12 0.884125 0.582553 0.756892
O O13 0.000000 0.584262 0.812103
O O14 0.525353 0.262677 0.925612
O O15 0.575520 0.424481 0.928099
O O16 0.673430 0.836715 0.295413
O O17 0.705269 0.000000 0.296410
#
# Coordination Sequence:
#
# PCOD9587097 Si02
#       6
#    24  12  12  24  24  24
#     4   9  17  29  45  63  83 110 143 178 216 258
#     4  10  18  27  39  57  84 115 145 173 203 242
#     4  10  21  35  51  70  91 117 150 190 233 275
#     4   9  17  29  46  67  90 118 152 188 223 260
#     4  10  19  30  45  67  97 130 161 189 217 251
#     4  10  19  31  47  66  88 114 147 186 227 270
#
# _framework density 15.743316
#
# number of rings (size 3 to 8) (size 9 to 14) (size 15 to 20)
#    0.000    2.400    0.000    3.300    0.000    5.200 
#    0.000    1.000    0.000    5.900    0.000    0.000 
#    0.000    0.000    0.000    6.400    0.000   20.800 
#
# Total GULP energy -668761.566892 kJ/mol
# GULP energy per Si atom -5573.013057 kJ/mol
# Density = 1.570748 g / cm^3
# Si number density = 15.743316 Si / 1000 Ang^3
#
#
#
# Elastic Constant Matrix: (Units=GPa)
#
#
# Indices 1 2 3 4 5 6 
#
# 1 69.5742 41.8554 31.9389 0.0000 0.0000 0.0000
# 2 41.8554 69.5742 31.9389 0.0000 0.0000 0.0000
# 3 31.9389 31.9389 71.1695 0.0000 0.0000 0.0000
# 4 0.0000 0.0000 0.0000 12.6044 0.0000 0.0000
# 5 0.0000 0.0000 0.0000 0.0000 12.6044 0.0000
# 6 0.0000 0.0000 0.0000 0.0000 0.0000 13.8594
#
#
#
# Elastic Compliance Matrix: (Units=1/GPa)
#
#
# Indices 1 2 3 4 5 6 
#
# 1 0.024080 -0.011997 -0.005422 0.000000 0.000000 0.000000
# 2 -0.011997 0.024080 -0.005422 0.000000 0.000000 0.000000
# 3 -0.005422 -0.005422 0.018918 0.000000 0.000000 0.000000
# 4 0.000000 0.000000 0.000000 0.079337 0.000000 0.000000
# 5 0.000000 0.000000 0.000000 0.000000 0.079337 0.000000
# 6 0.000000 0.000000 0.000000 0.000000 0.000000 0.072153
#
#
# Mechanical properties :
#
#
# Convention : Reuss Voigt Hill
#
# Bulk Modulus (GPa) = 46.74281 46.86492 46.80387
# Shear Modulus (GPa) = 14.25642 14.78596 14.52119
#
# Velocity S-wave (km/s) = 3.01251 3.06795 3.04035
# Velocity P-wave (km/s) = 6.46957 6.51018 6.48991
#
# Compressibility (1/GPa) = 0.02139366
#
# Stress axis : x y z
#
# Youngs Moduli (GPa) = 41.52885 41.52885 52.86024
#
# Poissons Ratio (x) = 0.49822 0.28663
# Poissons Ratio (y) = 0.49822 0.28663
# Poissons Ratio (z) = 0.22519 0.22519
#
# Static dielectric constant tensor:
#      x y z
#    x 1.514870 0.000000 0.000000 
#    y 0.000000 1.514870 0.000000 
#    z 0.000000 0.000000 1.539510 
# 
# From -- ./inp_files/8511.got.cif
#   From: 2010.05.17/outbox.cif.g08.bks.cpg/sg191_5_cif.got.tgz:8511.got - 2010.05.20 12:20:32.
