data_PCOD9587702
_publ_section_title
;
Structure prediction by ZEFSAII (Michael W. Deem and Ramdas Pophale) SiO2 
 PCOD9587702
Probable space group: P 6/M M M
;
_chemical_formula_sum "Si O2"
_cell_formula_units_Z 156
_cell_length_a 22.064836
_cell_length_b 22.064836
_cell_length_c 21.946517
_cell_angle_alpha 90.000000
_cell_angle_beta 90.000000
_cell_angle_gamma 120.000000
_cell_volume 9253.321361
_symmetry_space_group_name_H-M "P 6/M M M"
_symmetry_group_IT_number 191
_symmetry_cell_setting 'hexagonal'
loop_
_space_group_symop_operation_xyz
x,y,z
x-y,x,z
-y,x-y,z
-x,-y,z
-x+y,-x,z
y,-x+y,z
x-y,-y,-z
-x,-x+y,-z
y,x,-z
-y,-x,-z
-x+y,y,-z
x,x-y,-z
-x,-y,-z
-x+y,-x,-z
y,-x+y,-z
x,y,-z
x-y,x,-z
-y,x-y,-z
-x+y,y,z
x,x-y,z
-y,-x,z
y,x,z
x-y,-y,z
-x,-x+y,z
loop_
_atom_site_type_symbol
_atom_site_label
_atom_site_fract_x
_atom_site_fract_y
_atom_site_fract_z
Si Si1 0.787654 0.708267 0.337408
Si Si2 0.653467 0.082338 0.866649
Si Si3 0.702814 0.921139 0.195212
Si Si4 0.388610 0.915696 0.000000
Si Si5 0.720826 0.577946 0.570926
Si Si6 0.188994 0.665417 0.767342
Si Si7 0.079531 0.611532 0.663822
O O1 0.870089 0.740177 0.342113
O O2 0.762509 0.762509 0.350256
O O3 0.768494 0.683643 0.267201
O O4 0.752404 0.645548 0.385395
O O5 0.725075 0.086883 0.844404
O O6 0.645494 0.137864 0.825535
O O7 0.593302 0.000000 0.857684
O O8 0.653526 0.101845 0.937127
O O9 0.718719 0.859360 0.181352
O O10 0.766046 0.000000 0.186098
O O11 0.444400 0.888800 0.000000
O O12 0.434282 0.000000 0.000000
O O13 0.721037 0.594762 0.500000
O O14 0.773664 0.547327 0.577750
O O15 0.643751 0.532987 0.598076
O O16 0.208204 0.604102 0.758613
O O17 0.258545 0.741456 0.771853
O O18 0.138327 0.661106 0.712125
O O19 0.074394 0.537197 0.671470
O O20 0.000000 0.596712 0.672400
#
# Coordination Sequence:
#
# PCOD9587702 Si02
#       7
#    24  24  24  12  24  24  24
#     4   9  17  29  46  68  94 124 157 193 232 276
#     4  10  19  32  53  77 100 127 159 201 248 291
#     4   9  17  30  49  73 100 130 165 204 247 292
#     4   9  18  32  49  72 101 130 160 192 234 289
#     4  10  20  33  49  69  95 126 156 187 229 284
#     4  11  22  36  53  72  97 128 164 202 240 287
#     4  10  21  35  52  74  96 120 154 199 247 289
#
# _framework density 16.858810999999999
#
# number of rings (size 3 to 8) (size 9 to 14) (size 15 to 20)
#    0.000    2.231    0.000    3.385    0.000    5.538 
#    0.000    2.308    0.000    0.615    0.000    3.231 
#    0.000    0.000    0.000    3.846    0.000   13.077 
#
# Total GULP energy -869306.984304 kJ/mol
# GULP energy per Si atom -5572.480669 kJ/mol
# Density = 1.682044 g / cm^3
# Si number density = 16.858811 Si / 1000 Ang^3
#
#
#
# Elastic Constant Matrix: (Units=GPa)
#
#
# Indices 1 2 3 4 5 6 
#
# 1 77.9993 38.4906 27.5421 0.0000 0.0000 0.0000
# 2 38.4906 77.9993 27.5421 0.0000 0.0000 0.0000
# 3 27.5421 27.5421 99.4762 0.0000 0.0000 0.0000
# 4 0.0000 0.0000 0.0000 15.8194 0.0000 0.0000
# 5 0.0000 0.0000 0.0000 0.0000 15.8194 0.0000
# 6 0.0000 0.0000 0.0000 0.0000 0.0000 19.7543
#
#
#
# Elastic Compliance Matrix: (Units=1/GPa)
#
#
# Indices 1 2 3 4 5 6 
#
# 1 0.017594 -0.007717 -0.002735 0.000000 0.000000 0.000000
# 2 -0.007717 0.017594 -0.002735 0.000000 0.000000 0.000000
# 3 -0.002735 -0.002735 0.011567 0.000000 0.000000 0.000000
# 4 0.000000 0.000000 0.000000 0.063213 0.000000 0.000000
# 5 0.000000 0.000000 0.000000 0.000000 0.063213 0.000000
# 6 0.000000 0.000000 0.000000 0.000000 0.000000 0.050622
#
#
# Mechanical properties :
#
#
# Convention : Reuss Voigt Hill
#
# Bulk Modulus (GPa) = 49.06049 49.18049 49.12049
# Shear Modulus (GPa) = 19.45744 21.07196 20.26470
#
# Velocity S-wave (km/s) = 3.40095 3.53924 3.47078
# Velocity P-wave (km/s) = 6.67727 6.77768 6.72766
#
# Compressibility (1/GPa) = 0.02038300
#
# Stress axis : x y z
#
# Youngs Moduli (GPa) = 56.83668 56.83668 86.45238
#
# Poissons Ratio (x) = 0.43859 0.23643
# Poissons Ratio (y) = 0.43859 0.23643
# Poissons Ratio (z) = 0.15544 0.15544
#
# Static dielectric constant tensor:
#      x y z
#    x 1.587050 0.000000 0.000000 
#    y 0.000000 1.587050 0.000000 
#    z 0.000000 0.000000 1.578220 
# 
# From -- ./inp_files/7758.got.cif
#   From: 2010.05.17/outbox.cif.g08.bks.cpg/sg191_4_cif.got.tgz:7758.got - 2010.05.20 12:20:32.
