data_PCOD9587098
_publ_section_title
;
Structure prediction by ZEFSAII (Michael W. Deem and Ramdas Pophale) SiO2 
 PCOD9587098
Probable space group: P 6/M M M
;
_chemical_formula_sum "Si O2"
_cell_formula_units_Z 132
_cell_length_a 18.404033
_cell_length_b 18.404033
_cell_length_c 28.924193
_cell_angle_alpha 90.000000
_cell_angle_beta 90.000000
_cell_angle_gamma 120.000000
_cell_volume 8484.336582
_symmetry_space_group_name_H-M "P 6/M M M"
_symmetry_group_IT_number 191
_symmetry_cell_setting 'hexagonal'
loop_
_space_group_symop_operation_xyz
x,y,z
x-y,x,z
-y,x-y,z
-x,-y,z
-x+y,-x,z
y,-x+y,z
x-y,-y,-z
-x,-x+y,-z
y,x,-z
-y,-x,-z
-x+y,y,-z
x,x-y,-z
-x,-y,-z
-x+y,-x,-z
y,-x+y,-z
x,y,-z
x-y,x,-z
-y,x-y,-z
-x+y,y,z
x,x-y,z
-y,-x,z
y,x,z
x-y,-y,z
-x,-x+y,z
loop_
_atom_site_type_symbol
_atom_site_label
_atom_site_fract_x
_atom_site_fract_y
_atom_site_fract_z
Si Si1 0.263604 0.902484 0.631758
Si Si2 0.330915 0.831272 0.185030
Si Si3 0.899467 0.366276 0.282590
Si Si4 0.665965 0.502580 0.445770
Si Si5 0.735868 0.100481 0.000000
Si Si6 0.466589 0.366163 0.087516
O O1 0.165010 0.834991 0.629634
O O2 0.303487 0.878533 0.675011
O O3 0.307320 0.889575 0.586553
O O4 0.290915 0.000000 0.636037
O O5 0.426694 0.853387 0.184872
O O6 0.267353 0.732648 0.185438
O O7 0.320757 0.867693 0.233321
O O8 0.320029 0.866483 0.136493
O O9 0.868167 0.434084 0.289304
O O10 0.000000 0.420281 0.280489
O O11 0.662882 0.521000 0.500000
O O12 0.739643 0.479285 0.440650
O O13 0.576433 0.423568 0.432736
O O14 0.695510 0.119698 0.044717
O O15 0.835456 0.164545 0.000000
O O16 0.702324 0.000000 0.000000
O O17 0.565583 0.434418 0.080404
O O18 0.420267 0.420267 0.090544
#
# Coordination Sequence:
#
# PCOD9587098 Si02
#       6
#    24  24  24  24  12  24
#     4  10  20  33  48  66  88 114 146 185 228 270
#     4  10  18  27  39  57  84 116 148 177 205 239
#     4   9  17  29  45  64  86 113 144 177 213 255
#     4   9  17  29  46  69  97 127 155 181 210 247
#     4  10  19  31  47  66  87 111 142 180 221 265
#     4   9  17  29  45  63  83 110 143 178 216 256
#
# _framework density 15.558081
#
# number of rings (size 3 to 8) (size 9 to 14) (size 15 to 20)
#    0.000    2.545    0.000    2.818    0.000    5.455 
#    0.000    0.909    0.000    8.636    0.000    0.000 
#    0.000    0.000    0.000    4.545    0.000   37.818 
#
# Total GULP energy -735135.338206 kJ/mol
# GULP energy per Si atom -5569.207108 kJ/mol
# Density = 1.552267 g / cm^3
# Si number density = 15.558081 Si / 1000 Ang^3
#
#
#
# Elastic Constant Matrix: (Units=GPa)
#
#
# Indices 1 2 3 4 5 6 
#
# 1 55.0587 33.9254 32.4869 0.0000 0.0000 0.0000
# 2 33.9254 55.0587 32.4869 0.0000 0.0000 0.0000
# 3 32.4869 32.4869 86.5788 0.0000 0.0000 0.0000
# 4 0.0000 0.0000 0.0000 12.2608 0.0000 0.0000
# 5 0.0000 0.0000 0.0000 0.0000 12.2608 0.0000
# 6 0.0000 0.0000 0.0000 0.0000 0.0000 10.5666
#
#
#
# Elastic Compliance Matrix: (Units=1/GPa)
#
#
# Indices 1 2 3 4 5 6 
#
# 1 0.031399 -0.015920 -0.005808 0.000000 0.000000 0.000000
# 2 -0.015920 0.031399 -0.005808 0.000000 0.000000 0.000000
# 3 -0.005808 -0.005808 0.015909 0.000000 0.000000 0.000000
# 4 0.000000 0.000000 0.000000 0.081561 0.000000 0.000000
# 5 0.000000 0.000000 0.000000 0.000000 0.081561 0.000000
# 6 0.000000 0.000000 0.000000 0.000000 0.000000 0.094637
#
#
# Mechanical properties :
#
#
# Convention : Reuss Voigt Hill
#
# Bulk Modulus (GPa) = 42.31157 43.83274 43.07215
# Shear Modulus (GPa) = 12.51828 13.53745 13.02786
#
# Velocity S-wave (km/s) = 2.83965 2.95299 2.89687
# Velocity P-wave (km/s) = 6.16494 6.31360 6.23971
#
# Compressibility (1/GPa) = 0.02363420
#
# Stress axis : x y z
#
# Youngs Moduli (GPa) = 31.84835 31.84835 62.85772
#
# Poissons Ratio (x) = 0.50702 0.36509
# Poissons Ratio (y) = 0.50702 0.36509
# Poissons Ratio (z) = 0.18498 0.18498
#
# Static dielectric constant tensor:
#      x y z
#    x 1.505930 0.000000 0.000000 
#    y 0.000000 1.505930 0.000000 
#    z 0.000000 0.000000 1.546210 
# 
# From -- ./inp_files/9710.got.cif
#   From: 2010.05.17/outbox.cif.g08.bks.cpg/sg191_5_cif.got.tgz:9710.got - 2010.05.20 12:20:32.
