data_PCOD9587889
_publ_section_title
;
Structure prediction by ZEFSAII (Michael W. Deem and Ramdas Pophale) SiO2 
 PCOD9587889
Probable space group: P 6/M M M
;
_chemical_formula_sum "Si O2"
_cell_formula_units_Z 180
_cell_length_a 27.613657
_cell_length_b 27.613657
_cell_length_c 17.539432
_cell_angle_alpha 90.000000
_cell_angle_beta 90.000000
_cell_angle_gamma 120.000000
_cell_volume 11582.278639
_symmetry_space_group_name_H-M "P 6/M M M"
_symmetry_group_IT_number 191
_symmetry_cell_setting 'hexagonal'
loop_
_space_group_symop_operation_xyz
x,y,z
x-y,x,z
-y,x-y,z
-x,-y,z
-x+y,-x,z
y,-x+y,z
x-y,-y,-z
-x,-x+y,-z
y,x,-z
-y,-x,-z
-x+y,y,-z
x,x-y,-z
-x,-y,-z
-x+y,-x,-z
y,-x+y,-z
x,y,-z
x-y,x,-z
-y,x-y,-z
-x+y,y,z
x,x-y,z
-y,-x,z
y,x,z
x-y,-y,z
-x,-x+y,z
loop_
_atom_site_type_symbol
_atom_site_label
_atom_site_fract_x
_atom_site_fract_y
_atom_site_fract_z
Si Si1 0.368202 0.520669 0.345086
Si Si2 0.442191 0.278958 0.910400
Si Si3 0.771593 0.703991 0.415745
Si Si4 0.551800 0.218154 0.811588
Si Si5 0.064357 0.392070 0.657479
Si Si6 0.825351 0.066079 0.258229
Si Si7 0.276938 0.936426 0.177285
Si Si8 0.333963 0.555141 0.500000
O O1 0.433723 0.566278 0.340027
O O2 0.339445 0.533522 0.273876
O O3 0.355458 0.457864 0.342875
O O4 0.345936 0.530764 0.424240
O O5 0.434497 0.217249 0.900514
O O6 0.499562 0.320393 0.866235
O O7 0.388239 0.278487 0.875461
O O8 0.447644 0.291948 0.000000
O O9 0.796413 0.710116 0.500000
O O10 0.735184 0.735184 0.416910
O O11 0.726593 0.639833 0.396637
O O12 0.811096 0.731701 0.343070
O O13 0.608678 0.217356 0.829834
O O14 0.561561 0.280781 0.816372
O O15 0.064425 0.369097 0.741968
O O16 0.000000 0.370627 0.636829
O O17 0.889737 0.110264 0.241956
O O18 0.784605 0.074826 0.200338
O O19 0.805016 0.000000 0.256064
O O20 0.311913 0.000000 0.146893
O O21 0.378832 0.621169 0.500000
O O22 0.272208 0.544416 0.500000
#
# Coordination Sequence:
#
# PCOD9587889 Si02
#       8
#    24  24  24  24  24  24  24  12
#     4  10  20  33  49  70  95 122 156 200 242 288
#     4  10  20  33  51  76 104 130 156 194 243 289
#     4   8  15  27  43  63  89 123 160 197 238 284
#     4  10  20  35  54  73  94 124 161 202 248 296
#     4   9  17  30  48  67  91 123 154 190 237 285
#     4   9  17  29  47  70  97 130 167 205 242 284
#     4   9  17  32  52  72  96 128 162 194 234 284
#     4  10  21  36  51  67  89 117 153 197 247 294
#
# _framework density 15.540983000000001
#
# number of rings (size 3 to 8) (size 9 to 14) (size 15 to 20)
#    0.000    2.667    1.333    2.600    0.933    1.067 
#    0.000    2.000    0.000    2.533    0.000    0.933 
#    0.000    0.000    0.000    3.333    0.000    0.000 
#
# Total GULP energy -1002720.262843 kJ/mol
# GULP energy per Si atom -5570.668127 kJ/mol
# Density = 1.550561 g / cm^3
# Si number density = 15.540983 Si / 1000 Ang^3
#
#
#
# Elastic Constant Matrix: (Units=GPa)
#
#
# Indices 1 2 3 4 5 6 
#
# 1 98.3085 60.7029 36.2056 0.0000 0.0000 0.0000
# 2 60.7029 98.3085 36.2056 0.0000 0.0000 0.0000
# 3 36.2056 36.2056 82.4464 0.0000 0.0000 0.0000
# 4 0.0000 0.0000 0.0000 9.7934 0.0000 0.0000
# 5 0.0000 0.0000 0.0000 0.0000 9.7934 0.0000
# 6 0.0000 0.0000 0.0000 0.0000 0.0000 18.8028
#
#
#
# Elastic Compliance Matrix: (Units=1/GPa)
#
#
# Indices 1 2 3 4 5 6 
#
# 1 0.017226 -0.009365 -0.003452 0.000000 0.000000 0.000000
# 2 -0.009365 0.017226 -0.003452 0.000000 0.000000 0.000000
# 3 -0.003452 -0.003452 0.015161 0.000000 0.000000 0.000000
# 4 0.000000 0.000000 0.000000 0.102109 0.000000 0.000000
# 5 0.000000 0.000000 0.000000 0.000000 0.102109 0.000000
# 6 0.000000 0.000000 0.000000 0.000000 0.000000 0.053183
#
#
# Mechanical properties :
#
#
# Convention : Reuss Voigt Hill
#
# Bulk Modulus (GPa) = 58.56668 60.58796 59.57732
# Shear Modulus (GPa) = 14.48244 17.40791 15.94517
#
# Velocity S-wave (km/s) = 3.05599 3.35046 3.20661
# Velocity P-wave (km/s) = 7.08655 7.35106 7.22002
#
# Compressibility (1/GPa) = 0.01707456
#
# Stress axis : x y z
#
# Youngs Moduli (GPa) = 58.05078 58.05078 65.95900
#
# Poissons Ratio (x) = 0.54367 0.22769
# Poissons Ratio (y) = 0.54367 0.22769
# Poissons Ratio (z) = 0.20039 0.20039
#
# Static dielectric constant tensor:
#      x y z
#    x 1.508170 0.000000 0.000000 
#    y 0.000000 1.508170 0.000000 
#    z 0.000000 0.000000 1.517590 
# 
# From -- ./inp_files/6894.got.cif
#   From: 2010.05.17/outbox.cif.g08.bks.cpg/sg191_4_cif.got.tgz:6894.got - 2010.05.20 12:20:32.
