data_PCOD9587565
_publ_section_title
;
Structure prediction by ZEFSAII (Michael W. Deem and Ramdas Pophale) SiO2 
 PCOD9587565
Probable space group: P 6/M M M
;
_chemical_formula_sum "Si O2"
_cell_formula_units_Z 108
_cell_length_a 21.378560
_cell_length_b 21.378560
_cell_length_c 16.839753
_cell_angle_alpha 90.000000
_cell_angle_beta 90.000000
_cell_angle_gamma 120.000000
_cell_volume 6665.354412
_symmetry_space_group_name_H-M "P 6/M M M"
_symmetry_group_IT_number 191
_symmetry_cell_setting 'hexagonal'
loop_
_space_group_symop_operation_xyz
x,y,z
x-y,x,z
-y,x-y,z
-x,-y,z
-x+y,-x,z
y,-x+y,z
x-y,-y,-z
-x,-x+y,-z
y,x,-z
-y,-x,-z
-x+y,y,-z
x,x-y,-z
-x,-y,-z
-x+y,-x,-z
y,-x+y,-z
x,y,-z
x-y,x,-z
-y,x-y,-z
-x+y,y,z
x,x-y,z
-y,-x,z
y,x,z
x-y,-y,z
-x,-x+y,z
loop_
_atom_site_type_symbol
_atom_site_label
_atom_site_fract_x
_atom_site_fract_y
_atom_site_fract_z
Si Si1 0.693593 0.916451 0.742216
Si Si2 0.917813 0.636332 0.913177
Si Si3 0.542401 0.084802 0.404930
Si Si4 0.475657 0.809366 0.134767
Si Si5 0.469931 0.306671 0.684628
O O1 0.719210 0.859605 0.721272
O O2 0.675942 0.909340 0.836733
O O3 0.615655 0.888090 0.700799
O O4 0.747434 0.000000 0.724011
O O5 0.861755 0.552018 0.905383
O O6 0.000000 0.652815 0.908300
O O7 0.909163 0.662057 0.000000
O O8 0.543896 0.087792 0.500000
O O9 0.501526 0.125140 0.370593
O O10 0.500000 0.000000 0.380636
O O11 0.411971 0.823941 0.111975
O O12 0.454815 0.727408 0.117795
O O13 0.491582 0.822357 0.229282
O O14 0.481010 0.240505 0.656121
#
# Coordination Sequence:
#
# PCOD9587565 Si02
#       5
#    24  24  12  24  24
#     4   9  17  30  50  72  93 121 157 193 234 279
#     4   9  18  31  45  63  87 114 150 196 238 274
#     4  11  22  34  50  74 101 127 157 197 246 290
#     4  10  19  31  46  63  83 115 149 187 230 278
#     4   9  18  34  51  68  91 123 162 199 231 275
#
# _framework density 16.203188999999998
#
# number of rings (size 3 to 8) (size 9 to 14) (size 15 to 20)
#    0.000    2.556    1.111    2.889    0.000    4.000 
#    0.667    1.111    0.000    1.556    0.000    0.000 
#    0.000    0.000    0.000    5.556    0.000    0.000 
#
# Total GULP energy -601976.680598 kJ/mol
# GULP energy per Si atom -5573.858154 kJ/mol
# Density = 1.616631 g / cm^3
# Si number density = 16.203189 Si / 1000 Ang^3
#
#
#
# Elastic Constant Matrix: (Units=GPa)
#
#
# Indices 1 2 3 4 5 6 
#
# 1 91.9267 60.2583 22.3007 0.0000 0.0000 0.0000
# 2 60.2583 91.9267 22.3007 0.0000 0.0000 0.0000
# 3 22.3007 22.3007 50.2142 0.0000 0.0000 0.0000
# 4 0.0000 0.0000 0.0000 13.7996 0.0000 0.0000
# 5 0.0000 0.0000 0.0000 0.0000 13.7996 0.0000
# 6 0.0000 0.0000 0.0000 0.0000 0.0000 15.8342
#
#
#
# Elastic Compliance Matrix: (Units=1/GPa)
#
#
# Indices 1 2 3 4 5 6 
#
# 1 0.019566 -0.012012 -0.003355 0.000000 0.000000 0.000000
# 2 -0.012012 0.019566 -0.003355 0.000000 0.000000 0.000000
# 3 -0.003355 -0.003355 0.022895 0.000000 0.000000 0.000000
# 4 0.000000 0.000000 0.000000 0.072466 0.000000 0.000000
# 5 0.000000 0.000000 0.000000 0.000000 0.072466 0.000000
# 6 0.000000 0.000000 0.000000 0.000000 0.000000 0.063155
#
#
# Mechanical properties :
#
#
# Convention : Reuss Voigt Hill
#
# Bulk Modulus (GPa) = 40.67795 49.30968 44.99381
# Shear Modulus (GPa) = 15.83534 17.30053 16.56793
#
# Velocity S-wave (km/s) = 3.12957 3.27115 3.20114
# Velocity P-wave (km/s) = 6.18210 6.69069 6.44142
#
# Compressibility (1/GPa) = 0.02458334
#
# Stress axis : x y z
#
# Youngs Moduli (GPa) = 51.10975 51.10975 43.67845
#
# Poissons Ratio (x) = 0.61391 0.14654
# Poissons Ratio (y) = 0.61391 0.14654
# Poissons Ratio (z) = 0.17147 0.17147
#
# Static dielectric constant tensor:
#      x y z
#    x 1.537940 0.000000 0.000000 
#    y 0.000000 1.537940 0.000000 
#    z 0.000000 0.000000 1.550600 
# 
# From -- ./inp_files/6062.got.cif
#   From: 2010.05.17/outbox.cif.g08.bks.cpg/sg191_4_cif.got.tgz:6062.got - 2010.05.20 12:20:32.
