data_PCOD9587373
_publ_section_title
;
Structure prediction by ZEFSAII (Michael W. Deem and Ramdas Pophale) SiO2 
 PCOD9587373
Probable space group: P 6/M M M
;
_chemical_formula_sum "Si O2"
_cell_formula_units_Z 192
_cell_length_a 26.389173
_cell_length_b 26.389173
_cell_length_c 20.644593
_cell_angle_alpha 90.000000
_cell_angle_beta 90.000000
_cell_angle_gamma 120.000000
_cell_volume 12450.549451
_symmetry_space_group_name_H-M "P 6/M M M"
_symmetry_group_IT_number 191
_symmetry_cell_setting 'hexagonal'
loop_
_space_group_symop_operation_xyz
x,y,z
x-y,x,z
-y,x-y,z
-x,-y,z
-x+y,-x,z
y,-x+y,z
x-y,-y,-z
-x,-x+y,-z
y,x,-z
-y,-x,-z
-x+y,y,-z
x,x-y,-z
-x,-y,-z
-x+y,-x,-z
y,-x+y,-z
x,y,-z
x-y,x,-z
-y,x-y,-z
-x+y,y,z
x,x-y,z
-y,-x,z
y,x,z
x-y,-y,z
-x,-x+y,z
loop_
_atom_site_type_symbol
_atom_site_label
_atom_site_fract_x
_atom_site_fract_y
_atom_site_fract_z
Si Si1 0.750500 0.932929 0.576380
Si Si2 0.739733 0.068453 0.311843
Si Si3 0.213994 0.666400 0.423940
Si Si4 0.294535 0.828634 0.073712
Si Si5 0.666184 0.453876 0.807170
Si Si6 0.169056 0.458840 0.312205
Si Si7 0.933933 0.749467 0.193378
Si Si8 0.332639 0.104919 0.073152
O O1 0.736083 0.929174 0.500000
O O2 0.769018 0.884509 0.589918
O O3 0.695972 0.919970 0.621607
O O4 0.799846 0.000000 0.590123
O O5 0.712871 0.110372 0.305804
O O6 0.784714 0.078945 0.253618
O O7 0.691624 0.000000 0.310117
O O8 0.200578 0.666357 0.500000
O O9 0.210520 0.605260 0.408281
O O10 0.280323 0.719678 0.413592
O O11 0.173755 0.679906 0.377676
O O12 0.232621 0.767380 0.074791
O O13 0.333271 0.820868 0.127456
O O14 0.277659 0.878488 0.088586
O O15 0.316928 0.836975 0.000000
O O16 0.721663 0.443325 0.810006
O O17 0.606711 0.393290 0.799363
O O18 0.678645 0.497558 0.747420
O O19 0.223139 0.446278 0.312594
O O20 0.882921 0.765841 0.190164
O O21 0.930479 0.713209 0.128790
O O22 0.000000 0.802504 0.200737
O O23 0.334334 0.167167 0.071579
O O24 0.317927 0.080503 0.000000
#
# Coordination Sequence:
#
# PCOD9587373 Si02
#       8
#    24  24  24  24  24  24  24  24
#     4   9  17  29  46  68  94 123 151 179 213 254
#     4  10  20  33  49  69  91 115 146 185 229 274
#     4   9  17  29  46  68  93 120 149 182 220 262
#     4   8  14  25  41  60  82 111 146 181 218 259
#     4  10  19  29  42  61  87 118 150 184 222 266
#     4  10  19  30  46  67  89 114 145 182 225 270
#     4  10  19  30  46  68  94 122 150 182 222 268
#     4   8  14  26  44  65  89 116 146 181 221 262
#
# _framework density 15.421006999999999
#
# number of rings (size 3 to 8) (size 9 to 14) (size 15 to 20)
#    0.000    2.750    0.000    3.250    0.000    3.500 
#    0.000    2.500    0.000    2.500    0.000    1.750 
#    0.000    3.000    0.000   14.000    0.000    1.125 
#
# Total GULP energy -1069667.952531 kJ/mol
# GULP energy per Si atom -5571.187253 kJ/mol
# Density = 1.538591 g / cm^3
# Si number density = 15.421007 Si / 1000 Ang^3
#
#
#
# Elastic Constant Matrix: (Units=GPa)
#
#
# Indices 1 2 3 4 5 6 
#
# 1 89.5368 54.6343 46.2117 0.0000 0.0000 0.0000
# 2 54.6343 89.5368 46.2117 0.0000 0.0000 0.0000
# 3 46.2117 46.2117 65.0842 0.0000 0.0000 0.0000
# 4 0.0000 0.0000 0.0000 19.1054 0.0000 0.0000
# 5 0.0000 0.0000 0.0000 0.0000 19.1054 0.0000
# 6 0.0000 0.0000 0.0000 0.0000 0.0000 17.4512
#
#
#
# Elastic Compliance Matrix: (Units=1/GPa)
#
#
# Indices 1 2 3 4 5 6 
#
# 1 0.020691 -0.007960 -0.009039 0.000000 0.000000 0.000000
# 2 -0.007960 0.020691 -0.009039 0.000000 0.000000 0.000000
# 3 -0.009039 -0.009039 0.028201 0.000000 0.000000 0.000000
# 4 0.000000 0.000000 0.000000 0.052341 0.000000 0.000000
# 5 0.000000 0.000000 0.000000 0.000000 0.052341 0.000000
# 6 0.000000 0.000000 0.000000 0.000000 0.000000 0.057303
#
#
# Mechanical properties :
#
#
# Convention : Reuss Voigt Hill
#
# Bulk Modulus (GPa) = 57.12442 59.80814 58.46628
# Shear Modulus (GPa) = 17.27224 17.60575 17.43900
#
# Velocity S-wave (km/s) = 3.35034 3.38253 3.36647
# Velocity P-wave (km/s) = 7.21734 7.35684 7.28743
#
# Compressibility (1/GPa) = 0.01750565
#
# Stress axis : x y z
#
# Youngs Moduli (GPa) = 48.32975 48.32975 35.45941
#
# Poissons Ratio (x) = 0.38471 0.32053
# Poissons Ratio (y) = 0.38471 0.32053
# Poissons Ratio (z) = 0.43687 0.43687
#
# Static dielectric constant tensor:
#      x y z
#    x 1.495510 0.000000 0.000000 
#    y 0.000000 1.495510 0.000000 
#    z 0.000000 0.000000 1.538700 
# 
# From -- ./inp_files/8100.got.cif
#   From: 2010.05.17/outbox.cif.g08.bks.cpg/sg191_5_cif.got.tgz:8100.got - 2010.05.20 12:20:32.
