data_PCOD9587044
_publ_section_title
;
Structure prediction by ZEFSAII (Michael W. Deem and Ramdas Pophale) SiO2 
 PCOD9587044
Probable space group: P 6/M M M
;
_chemical_formula_sum "Si O2"
_cell_formula_units_Z 192
_cell_length_a 23.897619
_cell_length_b 23.897619
_cell_length_c 24.683187
_cell_angle_alpha 90.000000
_cell_angle_beta 90.000000
_cell_angle_gamma 120.000000
_cell_volume 12207.904716
_symmetry_space_group_name_H-M "P 6/M M M"
_symmetry_group_IT_number 191
_symmetry_cell_setting 'hexagonal'
loop_
_space_group_symop_operation_xyz
x,y,z
x-y,x,z
-y,x-y,z
-x,-y,z
-x+y,-x,z
y,-x+y,z
x-y,-y,-z
-x,-x+y,-z
y,x,-z
-y,-x,-z
-x+y,y,-z
x,x-y,-z
-x,-y,-z
-x+y,-x,-z
y,-x+y,-z
x,y,-z
x-y,x,-z
-y,x-y,-z
-x+y,y,z
x,x-y,z
-y,-x,z
y,x,z
x-y,-y,z
-x,-x+y,z
loop_
_atom_site_type_symbol
_atom_site_label
_atom_site_fract_x
_atom_site_fract_y
_atom_site_fract_z
Si Si1 0.184174 0.496288 0.784066
Si Si2 0.796464 0.461422 0.904152
Si Si3 0.204370 0.278986 0.856920
Si Si4 0.797624 0.335123 0.338789
Si Si5 0.073312 0.796885 0.435203
Si Si6 0.735019 0.605727 0.938834
Si Si7 0.074966 0.361370 0.761886
Si Si8 0.393421 0.129659 0.358024
O O1 0.235555 0.471109 0.782712
O O2 0.199442 0.536817 0.838531
O O3 0.192984 0.531020 0.726716
O O4 0.115161 0.432766 0.786351
O O5 0.726574 0.453149 0.918805
O O6 0.803214 0.401607 0.924510
O O7 0.851099 0.532699 0.923088
O O8 0.130516 0.261032 0.867581
O O9 0.222563 0.222563 0.860966
O O10 0.251296 0.337025 0.897714
O O11 0.225609 0.311792 0.797686
O O12 0.802261 0.401131 0.357509
O O13 0.726707 0.273294 0.349494
O O14 0.851491 0.319716 0.362633
O O15 0.076492 0.790593 0.500000
O O16 0.130488 0.869513 0.420673
O O17 0.089560 0.747092 0.404586
O O18 0.000000 0.778138 0.421514
O O19 0.801972 0.603943 0.937532
O O20 0.724042 0.620173 0.000000
O O21 0.096715 0.366761 0.699888
O O22 0.000000 0.336448 0.764317
O O23 0.397154 0.198577 0.356349
#
# Coordination Sequence:
#
# PCOD9587044 Si02
#       8
#    24  24  24  24  24  24  24  24
#     4   9  16  27  41  58  85 119 153 189 229 276
#     4  10  18  28  44  64  88 116 151 193 236 278
#     4  10  19  32  52  75  96 118 147 183 221 263
#     4   9  16  25  40  62  89 119 154 197 245 291
#     4   9  17  30  49  72  97 125 157 191 224 260
#     4   9  18  32  48  65  87 117 151 186 224 264
#     4  10  17  26  45  68  91 117 147 185 228 270
#     4   9  17  28  44  67  94 124 157 192 230 272
#
# _framework density 15.727515
#
# number of rings (size 3 to 8) (size 9 to 14) (size 15 to 20)
#    0.000    2.625    1.250    2.875    0.000    0.500 
#    0.000    1.250    0.000   15.250    0.000    2.625 
#    0.000    1.000    0.000    7.125    0.000    2.750 
#
# Total GULP energy -1068903.596052 kJ/mol
# GULP energy per Si atom -5567.206229 kJ/mol
# Density = 1.569172 g / cm^3
# Si number density = 15.727515 Si / 1000 Ang^3
#
#
#
# Elastic Constant Matrix: (Units=GPa)
#
#
# Indices 1 2 3 4 5 6 
#
# 1 83.5733 49.6306 24.5838 0.0000 0.0000 0.0000
# 2 49.6306 83.5733 24.5838 0.0000 0.0000 0.0000
# 3 24.5838 24.5838 35.1530 0.0000 0.0000 0.0000
# 4 0.0000 0.0000 0.0000 8.9309 0.0000 0.0000
# 5 0.0000 0.0000 0.0000 0.0000 8.9309 0.0000
# 6 0.0000 0.0000 0.0000 0.0000 0.0000 16.9713
#
#
#
# Elastic Compliance Matrix: (Units=1/GPa)
#
#
# Indices 1 2 3 4 5 6 
#
# 1 0.019790 -0.009671 -0.007077 0.000000 0.000000 0.000000
# 2 -0.009671 0.019790 -0.007077 0.000000 0.000000 0.000000
# 3 -0.007077 -0.007077 0.038345 0.000000 0.000000 0.000000
# 4 0.000000 0.000000 0.000000 0.111971 0.000000 0.000000
# 5 0.000000 0.000000 0.000000 0.000000 0.111971 0.000000
# 6 0.000000 0.000000 0.000000 0.000000 0.000000 0.058923
#
#
# Mechanical properties :
#
#
# Convention : Reuss Voigt Hill
#
# Bulk Modulus (GPa) = 33.02879 44.43288 38.73083
# Shear Modulus (GPa) = 11.94650 13.86673 12.90661
#
# Velocity S-wave (km/s) = 2.75906 2.97254 2.86779
# Velocity P-wave (km/s) = 5.58535 6.33201 5.97036
#
# Compressibility (1/GPa) = 0.03027662
#
# Stress axis : x y z
#
# Youngs Moduli (GPa) = 50.52941 50.52941 26.07881
#
# Poissons Ratio (x) = 0.48867 0.18456
# Poissons Ratio (y) = 0.48867 0.18456
# Poissons Ratio (z) = 0.35759 0.35759
#
# Static dielectric constant tensor:
#      x y z
#    x 1.529490 0.000000 0.000000 
#    y 0.000000 1.529490 0.000000 
#    z 0.000000 0.000000 1.548050 
# 
# From -- ./inp_files/9319.got.cif
#   From: 2010.05.17/outbox.cif.g08.bks.cpg/sg191_5_cif.got.tgz:9319.got - 2010.05.20 12:20:32.
