data_PCOD9587890
_publ_section_title
;
Structure prediction by ZEFSAII (Michael W. Deem and Ramdas Pophale) SiO2 
 PCOD9587890
Probable space group: P 6/M M M
;
_chemical_formula_sum "Si O2"
_cell_formula_units_Z 168
_cell_length_a 18.252699
_cell_length_b 18.252699
_cell_length_c 36.158303
_cell_angle_alpha 90.000000
_cell_angle_beta 90.000000
_cell_angle_gamma 120.000000
_cell_volume 10432.607189
_symmetry_space_group_name_H-M "P 6/M M M"
_symmetry_group_IT_number 191
_symmetry_cell_setting 'hexagonal'
loop_
_space_group_symop_operation_xyz
x,y,z
x-y,x,z
-y,x-y,z
-x,-y,z
-x+y,-x,z
y,-x+y,z
x-y,-y,-z
-x,-x+y,-z
y,x,-z
-y,-x,-z
-x+y,y,-z
x,x-y,-z
-x,-y,-z
-x+y,-x,-z
y,-x+y,-z
x,y,-z
x-y,x,-z
-y,x-y,-z
-x+y,y,z
x,x-y,z
-y,-x,z
y,x,z
x-y,-y,z
-x,-x+y,z
loop_
_atom_site_type_symbol
_atom_site_label
_atom_site_fract_x
_atom_site_fract_y
_atom_site_fract_z
Si Si1 0.333467 0.840599 0.958259
Si Si2 0.644989 0.906421 0.102768
Si Si3 0.633615 0.531524 0.608907
Si Si4 0.636981 0.902882 0.811181
Si Si5 0.901964 0.639080 0.456817
Si Si6 0.266624 0.900706 0.679038
Si Si7 0.506342 0.839246 0.747018
O O1 0.421154 0.842307 0.953818
O O2 0.255391 0.744610 0.955585
O O3 0.318931 0.892242 0.926412
O O4 0.330866 0.870837 0.000000
O O5 0.667898 0.833949 0.095720
O O6 0.614674 0.896805 0.145337
O O7 0.722657 0.000000 0.098837
O O8 0.568166 0.431835 0.612227
O O9 0.577131 0.577131 0.609357
O O10 0.684610 0.560861 0.570612
O O11 0.696630 0.573622 0.643136
O O12 0.664278 0.832139 0.803964
O O13 0.556781 0.877555 0.785138
O O14 0.707623 0.000000 0.803649
O O15 0.896762 0.614914 0.500000
O O16 0.835950 0.671900 0.450965
O O17 0.000000 0.707505 0.449075
O O18 0.166704 0.833297 0.681603
O O19 0.311425 0.885358 0.714273
O O20 0.295697 0.000000 0.676880
O O21 0.424568 0.849135 0.743275
O O22 0.481761 0.740881 0.745747
#
# Coordination Sequence:
#
# PCOD9587890 Si02
#       7
#    24  24  24  24  24  24  24
#     4   9  17  29  45  65  90 120 152 184 218 258
#     4   9  18  32  48  66  89 117 149 185 226 270
#     4   9  17  29  46  68  91 115 147 187 228 271
#     4   9  18  32  49  68  90 118 151 186 225 269
#     4   9  17  29  46  68  93 122 157 196 236 277
#     4  10  20  33  50  72  97 125 157 193 232 273
#     4  10  20  33  49  70  96 125 156 190 228 268
#
# _framework density 16.103356999999999
#
# number of rings (size 3 to 8) (size 9 to 14) (size 15 to 20)
#    0.000    2.714    0.000    1.571    0.000    3.714 
#    0.000    3.571    0.000    5.429    0.000    3.000 
#    0.000    6.857    0.000    3.857    0.000    4.286 
#
# Total GULP energy -935664.975439 kJ/mol
# GULP energy per Si atom -5569.434378 kJ/mol
# Density = 1.606671 g / cm^3
# Si number density = 16.103357 Si / 1000 Ang^3
#
#
#
# Elastic Constant Matrix: (Units=GPa)
#
#
# Indices 1 2 3 4 5 6 
#
# 1 76.9814 61.3008 43.3856 0.0000 0.0000 0.0000
# 2 61.3008 76.9814 43.3856 0.0000 0.0000 0.0000
# 3 43.3856 43.3856 70.8771 0.0000 0.0000 0.0000
# 4 0.0000 0.0000 0.0000 20.4125 0.0000 0.0000
# 5 0.0000 0.0000 0.0000 0.0000 20.4125 0.0000
# 6 0.0000 0.0000 0.0000 0.0000 0.0000 7.8403
#
#
#
# Elastic Compliance Matrix: (Units=1/GPa)
#
#
# Indices 1 2 3 4 5 6 
#
# 1 0.037757 -0.026016 -0.007187 0.000000 0.000000 0.000000
# 2 -0.026016 0.037757 -0.007187 0.000000 0.000000 0.000000
# 3 -0.007187 -0.007187 0.022908 0.000000 0.000000 0.000000
# 4 0.000000 0.000000 0.000000 0.048990 0.000000 0.000000
# 5 0.000000 0.000000 0.000000 0.000000 0.048990 0.000000
# 6 0.000000 0.000000 0.000000 0.000000 0.000000 0.127546
#
#
# Mechanical properties :
#
#
# Convention : Reuss Voigt Hill
#
# Bulk Modulus (GPa) = 56.68317 57.88708 57.28512
# Shear Modulus (GPa) = 12.17704 14.85094 13.51399
#
# Velocity S-wave (km/s) = 2.75286 3.04011 2.90004
# Velocity P-wave (km/s) = 6.73649 6.95329 6.84575
#
# Compressibility (1/GPa) = 0.01764192
#
# Stress axis : x y z
#
# Youngs Moduli (GPa) = 26.48495 26.48495 43.65290
#
# Poissons Ratio (x) = 0.68902 0.31375
# Poissons Ratio (y) = 0.68902 0.31375
# Poissons Ratio (z) = 0.19036 0.19036
#
# Static dielectric constant tensor:
#      x y z
#    x 1.529040 0.000000 0.000000 
#    y 0.000000 1.529040 0.000000 
#    z 0.000000 0.000000 1.560310 
# 
# From -- ./inp_files/10755.got.cif
#   From: 2010.05.17/outbox.cif.g08.bks.cpg/sg191_6_cif.got.tgz:10755.got - 2010.05.20 12:20:32.
