data_PCOD9587922
_publ_section_title
;
Structure prediction by ZEFSAII (Michael W. Deem and Ramdas Pophale) SiO2 
 PCOD9587922
Probable space group: P 6/M M M
;
_chemical_formula_sum "Si O2"
_cell_formula_units_Z 132
_cell_length_a 17.889061
_cell_length_b 17.889061
_cell_length_c 28.809642
_cell_angle_alpha 90.000000
_cell_angle_beta 90.000000
_cell_angle_gamma 120.000000
_cell_volume 7984.423850
_symmetry_space_group_name_H-M "P 6/M M M"
_symmetry_group_IT_number 191
_symmetry_cell_setting 'hexagonal'
loop_
_space_group_symop_operation_xyz
x,y,z
x-y,x,z
-y,x-y,z
-x,-y,z
-x+y,-x,z
y,-x+y,z
x-y,-y,-z
-x,-x+y,-z
y,x,-z
-y,-x,-z
-x+y,y,-z
x,x-y,-z
-x,-y,-z
-x+y,-x,-z
y,-x+y,-z
x,y,-z
x-y,x,-z
-y,x-y,-z
-x+y,y,z
x,x-y,z
-y,-x,z
y,x,z
x-y,-y,z
-x,-x+y,z
loop_
_atom_site_type_symbol
_atom_site_label
_atom_site_fract_x
_atom_site_fract_y
_atom_site_fract_z
Si Si1 0.899869 0.632915 0.053230
Si Si2 0.630669 0.731058 0.769821
Si Si3 0.895737 0.364160 0.139995
Si Si4 0.157166 0.489781 0.680914
Si Si5 0.332454 0.842536 0.500000
Si Si6 0.901432 0.272749 0.590418
O O1 0.834686 0.669372 0.058060
O O2 0.873097 0.558531 0.091249
O O3 0.000000 0.702719 0.061283
O O4 0.892728 0.601832 0.000000
O O5 0.664781 0.832391 0.764202
O O6 0.702671 0.702671 0.772422
O O7 0.573249 0.698399 0.816434
O O8 0.568001 0.682843 0.726478
O O9 0.860435 0.430218 0.144736
O O10 0.000000 0.421456 0.140171
O O11 0.257861 0.515721 0.681147
O O12 0.147215 0.573608 0.680174
O O13 0.115662 0.430445 0.635769
O O14 0.258539 0.741462 0.500000
O O15 0.426565 0.853131 0.500000
O O16 0.315169 0.883859 0.454622
O O17 0.828251 0.171750 0.590315
O O18 0.000000 0.295118 0.590228
#
# Coordination Sequence:
#
# PCOD9587922 Si02
#       6
#    24  24  24  24  12  24
#     4   9  17  29  46  68  93 122 157 196 236 277
#     4  10  20  33  50  72  97 126 160 198 238 278
#     4   9  17  29  46  68  91 115 147 187 229 275
#     4  10  20  33  50  73 101 131 161 194 234 280
#     4  10  20  33  50  73 102 134 165 196 232 277
#     4  10  21  35  51  72  97 127 162 201 244 286
#
# _framework density 16.532188000000001
#
# number of rings (size 3 to 8) (size 9 to 14) (size 15 to 20)
#    0.000    2.364    0.000    2.727    0.000    4.000 
#    0.000    3.636    0.000    4.545    0.000    1.273 
#    0.000   10.909    0.000    0.182    0.000    1.455 
#
# Total GULP energy -735945.144866 kJ/mol
# GULP energy per Si atom -5575.342007 kJ/mol
# Density = 1.649456 g / cm^3
# Si number density = 16.532188 Si / 1000 Ang^3
#
#
#
# Elastic Constant Matrix: (Units=GPa)
#
#
# Indices 1 2 3 4 5 6 
#
# 1 96.4530 73.8186 41.8877 0.0000 0.0000 0.0000
# 2 73.8186 96.4530 41.8877 0.0000 0.0000 0.0000
# 3 41.8877 41.8877 116.2291 0.0000 0.0000 0.0000
# 4 0.0000 0.0000 0.0000 12.6157 0.0000 0.0000
# 5 0.0000 0.0000 0.0000 0.0000 12.6157 0.0000
# 6 0.0000 0.0000 0.0000 0.0000 0.0000 11.3172
#
#
#
# Elastic Compliance Matrix: (Units=1/GPa)
#
#
# Indices 1 2 3 4 5 6 
#
# 1 0.025660 -0.018521 -0.002573 0.000000 0.000000 0.000000
# 2 -0.018521 0.025660 -0.002573 0.000000 0.000000 0.000000
# 3 -0.002573 -0.002573 0.010458 0.000000 0.000000 0.000000
# 4 0.000000 0.000000 0.000000 0.079267 0.000000 0.000000
# 5 0.000000 0.000000 0.000000 0.000000 0.079267 0.000000
# 6 0.000000 0.000000 0.000000 0.000000 0.000000 0.088361
#
#
# Mechanical properties :
#
#
# Convention : Reuss Voigt Hill
#
# Bulk Modulus (GPa) = 69.22964 69.36924 69.29944
# Shear Modulus (GPa) = 13.85737 17.41246 15.63491
#
# Velocity S-wave (km/s) = 2.89832 3.24890 3.07860
# Velocity P-wave (km/s) = 7.29156 7.49166 7.39229
#
# Compressibility (1/GPa) = 0.01444468
#
# Stress axis : x y z
#
# Youngs Moduli (GPa) = 38.97174 38.97174 95.61996
#
# Poissons Ratio (x) = 0.72179 0.24601
# Poissons Ratio (y) = 0.72179 0.24601
# Poissons Ratio (z) = 0.10026 0.10026
#
# Static dielectric constant tensor:
#      x y z
#    x 1.544980 0.000000 0.000000 
#    y 0.000000 1.544980 0.000000 
#    z 0.000000 0.000000 1.564980 
# 
# From -- ./inp_files/8676.got.cif
#   From: 2010.05.17/outbox.cif.g08.bks.cpg/sg191_5_cif.got.tgz:8676.got - 2010.05.20 12:20:32.
