data_PCOD9587949
_publ_section_title
;
Structure prediction by ZEFSAII (Michael W. Deem and Ramdas Pophale) SiO2 
 PCOD9587949
Probable space group: P 6/M M M
;
_chemical_formula_sum "Si O2"
_cell_formula_units_Z 132
_cell_length_a 18.000931
_cell_length_b 18.000931
_cell_length_c 27.540904
_cell_angle_alpha 90.000000
_cell_angle_beta 90.000000
_cell_angle_gamma 120.000000
_cell_volume 7728.563107
_symmetry_space_group_name_H-M "P 6/M M M"
_symmetry_group_IT_number 191
_symmetry_cell_setting 'hexagonal'
loop_
_space_group_symop_operation_xyz
x,y,z
x-y,x,z
-y,x-y,z
-x,-y,z
-x+y,-x,z
y,-x+y,z
x-y,-y,-z
-x,-x+y,-z
y,x,-z
-y,-x,-z
-x+y,y,-z
x,x-y,-z
-x,-y,-z
-x+y,-x,-z
y,-x+y,-z
x,y,-z
x-y,x,-z
-y,x-y,-z
-x+y,y,z
x,x-y,z
-y,-x,z
y,x,z
x-y,-y,z
-x,-x+y,z
loop_
_atom_site_type_symbol
_atom_site_label
_atom_site_fract_x
_atom_site_fract_y
_atom_site_fract_z
Si Si1 0.728450 0.098385 0.500000
Si Si2 0.158587 0.667477 0.593382
Si Si3 0.829292 0.829292 0.940957
Si Si4 0.903102 0.269351 0.684539
Si Si5 0.840573 0.506969 0.772628
Si Si6 0.000000 0.343811 0.941809
Si Si7 0.157747 0.666521 0.114670
O O1 0.829054 0.170947 0.500000
O O2 0.686570 0.116320 0.452891
O O3 0.705124 0.000000 0.500000
O O4 0.148117 0.574059 0.591804
O O5 0.258948 0.741053 0.593130
O O6 0.117971 0.683070 0.641565
O O7 0.828571 0.914286 0.924470
O O8 0.743062 0.743062 0.927409
O O9 0.831667 0.831667 0.000000
O O10 0.830239 0.169761 0.681776
O O11 0.890276 0.306883 0.734978
O O12 0.000000 0.290592 0.679807
O O13 0.740530 0.481061 0.769260
O O14 0.850749 0.425375 0.760705
O O15 0.866863 0.531834 0.828584
O O16 0.083339 0.424346 0.919658
O O17 0.000000 0.348491 0.000000
O O18 0.171580 0.585790 0.107715
O O19 0.245361 0.754640 0.105889
#
# Coordination Sequence:
#
# PCOD9587949 Si02
#       7
#    12  24  12  24  24  12  24
#     4  10  21  35  51  72 101 139 182 226 273 319
#     4  10  20  33  50  75 108 146 182 216 255 305
#     4   9  17  31  53  79 105 133 165 203 248 299
#     4  10  21  35  52  76 104 135 172 216 266 312
#     4   9  18  32  52  77 105 135 167 204 248 298
#     4  11  23  37  53  77 107 137 169 210 259 305
#     4  10  21  37  56  77 103 137 176 215 257 307
#
# _framework density 17.079501
#
# number of rings (size 3 to 8) (size 9 to 14) (size 15 to 20)
#    0.000    2.182    0.000    2.818    1.273    6.545 
#    0.000    2.727    0.000    1.364    0.000    0.000 
#    0.000    4.364    0.000    0.000    0.000    0.364 
#
# Total GULP energy -736907.330678 kJ/mol
# GULP energy per Si atom -5582.631293 kJ/mol
# Density = 1.704063 g / cm^3
# Si number density = 17.079501 Si / 1000 Ang^3
#
#
#
# Elastic Constant Matrix: (Units=GPa)
#
#
# Indices 1 2 3 4 5 6 
#
# 1 113.4443 78.0120 58.0120 0.0000 0.0000 0.0000
# 2 78.0120 113.4443 58.0120 0.0000 0.0000 0.0000
# 3 58.0120 58.0120 78.7892 0.0000 0.0000 0.0000
# 4 0.0000 0.0000 0.0000 15.6949 0.0000 0.0000
# 5 0.0000 0.0000 0.0000 0.0000 15.6949 0.0000
# 6 0.0000 0.0000 0.0000 0.0000 0.0000 17.7161
#
#
#
# Elastic Compliance Matrix: (Units=1/GPa)
#
#
# Indices 1 2 3 4 5 6 
#
# 1 0.018827 -0.009396 -0.006944 0.000000 0.000000 0.000000
# 2 -0.009396 0.018827 -0.006944 0.000000 0.000000 0.000000
# 3 -0.006944 -0.006944 0.022918 0.000000 0.000000 0.000000
# 4 0.000000 0.000000 0.000000 0.063715 0.000000 0.000000
# 5 0.000000 0.000000 0.000000 0.000000 0.063715 0.000000
# 6 0.000000 0.000000 0.000000 0.000000 0.000000 0.056446
#
#
# Mechanical properties :
#
#
# Convention : Reuss Voigt Hill
#
# Bulk Modulus (GPa) = 71.40900 77.08331 74.24615
# Shear Modulus (GPa) = 16.90991 17.26397 17.08694
#
# Velocity S-wave (km/s) = 3.14995 3.18276 3.16640
# Velocity P-wave (km/s) = 7.42497 7.66398 7.54542
#
# Compressibility (1/GPa) = 0.01400384
#
# Stress axis : x y z
#
# Youngs Moduli (GPa) = 53.11475 53.11475 43.63343
#
# Poissons Ratio (x) = 0.49905 0.30300
# Poissons Ratio (y) = 0.49905 0.30300
# Poissons Ratio (z) = 0.36885 0.36885
#
# Static dielectric constant tensor:
#      x y z
#    x 1.560380 0.000000 0.000000 
#    y 0.000000 1.560380 0.000000 
#    z 0.000000 0.000000 1.579210 
# 
# From -- ./inp_files/8740.got.cif
#   From: 2010.05.17/outbox.cif.g08.bks.cpg/sg191_5_cif.got.tgz:8740.got - 2010.05.20 12:20:32.
