data_PCOD9587199
_publ_section_title
;
Structure prediction by ZEFSAII (Michael W. Deem and Ramdas Pophale) SiO2 
 PCOD9587199
Probable space group: P 6/M M M
;
_chemical_formula_sum "Si O2"
_cell_formula_units_Z 84
_cell_length_a 16.548472
_cell_length_b 16.548472
_cell_length_c 24.591791
_cell_angle_alpha 90.000000
_cell_angle_beta 90.000000
_cell_angle_gamma 120.000000
_cell_volume 5832.256151
_symmetry_space_group_name_H-M "P 6/M M M"
_symmetry_group_IT_number 191
_symmetry_cell_setting 'hexagonal'
loop_
_space_group_symop_operation_xyz
x,y,z
x-y,x,z
-y,x-y,z
-x,-y,z
-x+y,-x,z
y,-x+y,z
x-y,-y,-z
-x,-x+y,-z
y,x,-z
-y,-x,-z
-x+y,y,-z
x,x-y,-z
-x,-y,-z
-x+y,-x,-z
y,-x+y,-z
x,y,-z
x-y,x,-z
-y,x-y,-z
-x+y,y,z
x,x-y,z
-y,-x,z
y,x,z
x-y,-y,z
-x,-x+y,z
loop_
_atom_site_type_symbol
_atom_site_label
_atom_site_fract_x
_atom_site_fract_y
_atom_site_fract_z
Si Si1 0.893638 0.287503 0.381700
Si Si2 0.110300 0.555150 0.912769
Si Si3 0.888311 0.444156 0.684109
Si Si4 0.606081 0.212162 0.202007
Si Si5 0.886923 0.303093 0.000000
Si Si6 0.147912 0.479514 0.500000
O O1 0.820409 0.179592 0.372526
O O2 0.859910 0.349520 0.348410
O O3 0.890219 0.310499 0.445168
O O4 0.000000 0.321916 0.366442
O O5 0.162168 0.581084 0.855702
O O6 0.130094 0.484912 0.948724
O O7 0.000000 0.500000 0.902923
O O8 0.851863 0.425932 0.745279
O O9 0.000000 0.500000 0.683894
O O10 0.717276 0.282725 0.204917
O O11 0.807242 0.192759 0.000000
O O12 0.000000 0.338135 0.000000
O O13 0.258847 0.517693 0.500000
O O14 0.126445 0.563223 0.500000
#
# Coordination Sequence:
#
# PCOD9587199 Si02
#       6
#    24  12  12  12  12  12
#     4  10  20  32  48  65  88 115 147 185 226 270
#     4   9  17  30  45  65  90 121 155 195 225 265
#     4  10  19  32  46  62  86 121 150 185 223 264
#     4  10  20  28  41  61  90 121 154 182 214 260
#     4   9  17  29  47  68  94 120 155 195 237 271
#     4  10  18  29  44  67  90 114 146 179 218 264
#
# _framework density 14.402659999999999
#
# number of rings (size 3 to 8) (size 9 to 14) (size 15 to 20)
#    0.286    2.000    1.429    3.571    0.000    0.571 
#    4.286    0.000    0.000    0.429    0.000    0.000 
#    0.000    3.429    0.000    0.000    0.000   59.429 
#
# Total GULP energy -467771.545014 kJ/mol
# GULP energy per Si atom -5568.708869 kJ/mol
# Density = 1.436988 g / cm^3
# Si number density = 14.402660 Si / 1000 Ang^3
#
#
#
# Elastic Constant Matrix: (Units=GPa)
#
#
# Indices 1 2 3 4 5 6 
#
# 1 65.8259 40.3214 12.7857 0.0000 0.0000 0.0000
# 2 40.3214 65.8259 12.7857 0.0000 0.0000 0.0000
# 3 12.7857 12.7857 85.2007 0.0000 0.0000 0.0000
# 4 0.0000 0.0000 0.0000 45.9612 0.0000 0.0000
# 5 0.0000 0.0000 0.0000 0.0000 45.9612 0.0000
# 6 0.0000 0.0000 0.0000 0.0000 0.0000 12.7522
#
#
#
# Elastic Compliance Matrix: (Units=1/GPa)
#
#
# Indices 1 2 3 4 5 6 
#
# 1 0.024492 -0.014717 -0.001467 0.000000 0.000000 0.000000
# 2 -0.014717 0.024492 -0.001467 0.000000 0.000000 0.000000
# 3 -0.001467 -0.001467 0.012177 0.000000 0.000000 0.000000
# 4 0.000000 0.000000 0.000000 0.021758 0.000000 0.000000
# 5 0.000000 0.000000 0.000000 0.000000 0.021758 0.000000
# 6 0.000000 0.000000 0.000000 0.000000 0.000000 0.078418
#
#
# Mechanical properties :
#
#
# Convention : Reuss Voigt Hill
#
# Bulk Modulus (GPa) = 38.67191 38.73757 38.70474
# Shear Modulus (GPa) = 22.02505 30.99888 26.51196
#
# Velocity S-wave (km/s) = 3.91479 4.64432 4.29507
# Velocity P-wave (km/s) = 6.88062 7.46419 7.17834
#
# Compressibility (1/GPa) = 0.02585856
#
# Stress axis : x y z
#
# Youngs Moduli (GPa) = 40.83042 40.83042 82.12054
#
# Poissons Ratio (x) = 0.60091 0.12045
# Poissons Ratio (y) = 0.60091 0.12045
# Poissons Ratio (z) = 0.05989 0.05989
#
# Static dielectric constant tensor:
#      x y z
#    x 1.481580 0.000000 0.000000 
#    y 0.000000 1.481580 0.000000 
#    z 0.000000 0.000000 1.471330 
# 
# From -- ./inp_files/8220.got.cif
#   From: 2010.05.17/outbox.cif.g08.bks.cpg/sg191_5_cif.got.tgz:8220.got - 2010.05.20 12:20:32.
