data_PCOD9587191
_publ_section_title
;
Structure prediction by ZEFSAII (Michael W. Deem and Ramdas Pophale) SiO2 
 PCOD9587191
Probable space group: P 6/M M M
;
_chemical_formula_sum "Si O2"
_cell_formula_units_Z 108
_cell_length_a 22.489167
_cell_length_b 22.489167
_cell_length_c 16.199848
_cell_angle_alpha 90.000000
_cell_angle_beta 90.000000
_cell_angle_gamma 120.000000
_cell_volume 7095.586688
_symmetry_space_group_name_H-M "P 6/M M M"
_symmetry_group_IT_number 191
_symmetry_cell_setting 'hexagonal'
loop_
_space_group_symop_operation_xyz
x,y,z
x-y,x,z
-y,x-y,z
-x,-y,z
-x+y,-x,z
y,-x+y,z
x-y,-y,-z
-x,-x+y,-z
y,x,-z
-y,-x,-z
-x+y,y,-z
x,x-y,-z
-x,-y,-z
-x+y,-x,-z
y,-x+y,-z
x,y,-z
x-y,x,-z
-y,x-y,-z
-x+y,y,z
x,x-y,z
-y,-x,z
y,x,z
x-y,-y,z
-x,-x+y,z
loop_
_atom_site_type_symbol
_atom_site_label
_atom_site_fract_x
_atom_site_fract_y
_atom_site_fract_z
Si Si1 0.784556 0.707303 0.000000
Si Si2 0.151514 0.709373 0.405529
Si Si3 0.213375 0.921611 0.337035
Si Si4 0.743674 0.118989 0.831936
Si Si5 0.390751 0.472232 0.258088
O O1 0.751217 0.661718 0.918417
O O2 0.769324 0.769324 0.000000
O O3 0.864231 0.728461 0.000000
O O4 0.147780 0.687395 0.500000
O O5 0.229003 0.770998 0.387713
O O6 0.104453 0.744543 0.392598
O O7 0.123902 0.648560 0.339695
O O8 0.133350 0.866651 0.347302
O O9 0.234821 0.913637 0.243602
O O10 0.237194 0.000000 0.353623
O O11 0.800208 0.199793 0.830304
O O12 0.667828 0.103608 0.811033
O O13 0.453507 0.546494 0.235889
O O14 0.423235 0.423235 0.274119
#
# Coordination Sequence:
#
# PCOD9587191 Si02
#       5
#    12  24  24  24  24
#     4  10  18  28  47  72  95 119 149 185 219 253
#     4   9  17  29  45  63  83 109 141 177 213 249
#     4   9  16  26  41  60  83 111 142 177 216 257
#     4   9  17  30  47  65  86 114 146 180 216 251
#     4  10  19  29  43  64  90 116 139 169 213 263
#
# _framework density 15.220729
#
# number of rings (size 3 to 8) (size 9 to 14) (size 15 to 20)
#    0.000    2.667    0.000    6.000    0.000    2.222 
#    0.000    1.667    0.000    5.889    0.000    0.000 
#    0.000    5.333    0.000    5.556    0.000    0.444 
#
# Total GULP energy -601811.855792 kJ/mol
# GULP energy per Si atom -5572.331998 kJ/mol
# Density = 1.518609 g / cm^3
# Si number density = 15.220729 Si / 1000 Ang^3
#
#
#
# Elastic Constant Matrix: (Units=GPa)
#
#
# Indices 1 2 3 4 5 6 
#
# 1 90.0119 45.4029 15.1708 0.0000 0.0000 0.0000
# 2 45.4029 90.0119 15.1708 0.0000 0.0000 0.0000
# 3 15.1708 15.1708 56.4252 0.0000 0.0000 0.0000
# 4 0.0000 0.0000 0.0000 7.9380 0.0000 0.0000
# 5 0.0000 0.0000 0.0000 0.0000 7.9380 0.0000
# 6 0.0000 0.0000 0.0000 0.0000 0.0000 22.3045
#
#
#
# Elastic Compliance Matrix: (Units=1/GPa)
#
#
# Indices 1 2 3 4 5 6 
#
# 1 0.015138 -0.007279 -0.002113 0.000000 0.000000 0.000000
# 2 -0.007279 0.015138 -0.002113 0.000000 0.000000 0.000000
# 3 -0.002113 -0.002113 0.018859 0.000000 0.000000 0.000000
# 4 0.000000 0.000000 0.000000 0.125977 0.000000 0.000000
# 5 0.000000 0.000000 0.000000 0.000000 0.125977 0.000000
# 6 0.000000 0.000000 0.000000 0.000000 0.000000 0.044834
#
#
# Mechanical properties :
#
#
# Convention : Reuss Voigt Hill
#
# Bulk Modulus (GPa) = 38.27925 43.10423 40.69174
# Shear Modulus (GPa) = 13.24014 18.34972 15.79493
#
# Velocity S-wave (km/s) = 2.95257 3.47591 3.22487
# Velocity P-wave (km/s) = 6.06857 6.67009 6.37643
#
# Compressibility (1/GPa) = 0.02612381
#
# Stress axis : x y z
#
# Youngs Moduli (GPa) = 66.06087 66.06087 53.02595
#
# Poissons Ratio (x) = 0.48089 0.11203
# Poissons Ratio (y) = 0.48089 0.11203
# Poissons Ratio (z) = 0.13957 0.13957
#
# Static dielectric constant tensor:
#      x y z
#    x 1.499620 0.000000 0.000000 
#    y 0.000000 1.499620 0.000000 
#    z 0.000000 0.000000 1.513000 
# 
# From -- ./inp_files/6122.got.cif
#   From: 2010.05.17/outbox.cif.g08.bks.cpg/sg191_4_cif.got.tgz:6122.got - 2010.05.20 12:20:32.
