data_PCOD9587855
_publ_section_title
;
Structure prediction by ZEFSAII (Michael W. Deem and Ramdas Pophale) SiO2 
 PCOD9587855
Probable space group: P 6/M M M
;
_chemical_formula_sum "Si O2"
_cell_formula_units_Z 132
_cell_length_a 18.325305
_cell_length_b 18.325305
_cell_length_c 27.737072
_cell_angle_alpha 90.000000
_cell_angle_beta 90.000000
_cell_angle_gamma 120.000000
_cell_volume 8066.658448
_symmetry_space_group_name_H-M "P 6/M M M"
_symmetry_group_IT_number 191
_symmetry_cell_setting 'hexagonal'
loop_
_space_group_symop_operation_xyz
x,y,z
x-y,x,z
-y,x-y,z
-x,-y,z
-x+y,-x,z
y,-x+y,z
x-y,-y,-z
-x,-x+y,-z
y,x,-z
-y,-x,-z
-x+y,y,-z
x,x-y,-z
-x,-y,-z
-x+y,-x,-z
y,-x+y,-z
x,y,-z
x-y,x,-z
-y,x-y,-z
-x+y,y,z
x,x-y,z
-y,-x,z
y,x,z
x-y,-y,z
-x,-x+y,z
loop_
_atom_site_type_symbol
_atom_site_label
_atom_site_fract_x
_atom_site_fract_y
_atom_site_fract_z
Si Si1 0.643778 0.904881 0.283181
Si Si2 0.505553 0.838332 0.911366
Si Si3 0.263585 0.903589 0.169028
Si Si4 0.666793 0.161581 0.362818
Si Si5 0.357077 0.095353 0.443334
Si Si6 0.634069 0.731614 0.000000
O O1 0.670087 0.835044 0.293988
O O2 0.623406 0.898960 0.226299
O O3 0.563302 0.881129 0.316152
O O4 0.714785 0.000000 0.293600
O O5 0.424258 0.848516 0.916504
O O6 0.480017 0.740009 0.913098
O O7 0.556280 0.876680 0.861828
O O8 0.573651 0.883653 0.953758
O O9 0.166765 0.833236 0.157652
O O10 0.291122 0.000000 0.157469
O O11 0.576666 0.153331 0.362966
O O12 0.741103 0.258898 0.362798
O O13 0.682513 0.118863 0.409360
O O14 0.379372 0.101733 0.500000
O O15 0.330383 0.165192 0.433309
O O16 0.285777 0.000000 0.433589
O O17 0.706752 0.706752 0.000000
O O18 0.661646 0.830823 0.000000
#
# Coordination Sequence:
#
# PCOD9587855 Si02
#       6
#    24  24  24  24  24  12
#     4   9  18  32  49  69  93 121 153 189 231 277
#     4  10  20  33  49  70  97 128 160 193 230 272
#     4   9  18  32  49  69  93 122 155 191 232 276
#     4  10  20  33  48  67  92 122 155 190 228 269
#     4   9  18  32  49  69  93 121 152 186 226 271
#     4  10  21  35  51  72  97 125 156 192 235 279
#
# _framework density 16.363652999999999
#
# number of rings (size 3 to 8) (size 9 to 14) (size 15 to 20)
#    0.000    2.545    0.000    1.727    0.000    4.364 
#    0.000    3.636    0.000    3.909    0.000    3.818 
#    0.000    8.727    0.000    0.545    0.000    0.364 
#
# Total GULP energy -735799.622327 kJ/mol
# GULP energy per Si atom -5574.239563 kJ/mol
# Density = 1.632641 g / cm^3
# Si number density = 16.363653 Si / 1000 Ang^3
#
#
#
# Elastic Constant Matrix: (Units=GPa)
#
#
# Indices 1 2 3 4 5 6 
#
# 1 109.7152 97.4080 48.0407 0.0000 0.0000 0.0000
# 2 97.4080 109.7152 48.0407 0.0000 0.0000 0.0000
# 3 48.0407 48.0407 50.8730 0.0000 0.0000 0.0000
# 4 0.0000 0.0000 0.0000 19.7321 0.0000 0.0000
# 5 0.0000 0.0000 0.0000 0.0000 19.7321 0.0000
# 6 0.0000 0.0000 0.0000 0.0000 0.0000 6.1536
#
#
#
# Elastic Compliance Matrix: (Units=1/GPa)
#
#
# Indices 1 2 3 4 5 6 
#
# 1 0.044922 -0.036331 -0.008113 0.000000 0.000000 0.000000
# 2 -0.036331 0.044922 -0.008113 0.000000 0.000000 0.000000
# 3 -0.008113 -0.008113 0.034980 0.000000 0.000000 0.000000
# 4 0.000000 0.000000 0.000000 0.050679 0.000000 0.000000
# 5 0.000000 0.000000 0.000000 0.000000 0.050679 0.000000
# 6 0.000000 0.000000 0.000000 0.000000 0.000000 0.162506
#
#
# Mechanical properties :
#
#
# Convention : Reuss Voigt Hill
#
# Bulk Modulus (GPa) = 50.73552 73.03132 61.88342
# Shear Modulus (GPa) = 9.99253 14.24451 12.11852
#
# Velocity S-wave (km/s) = 2.47382 2.95362 2.72430
# Velocity P-wave (km/s) = 6.26355 7.50726 6.91343
#
# Compressibility (1/GPa) = 0.01971006
#
# Stress axis : x y z
#
# Youngs Moduli (GPa) = 22.26059 22.26059 28.58765
#
# Poissons Ratio (x) = 0.80874 0.23194
# Poissons Ratio (y) = 0.80874 0.23194
# Poissons Ratio (z) = 0.18061 0.18061
#
# Static dielectric constant tensor:
#      x y z
#    x 1.533060 0.000000 0.000000 
#    y 0.000000 1.533060 0.000000 
#    z 0.000000 0.000000 1.571520 
# 
# From -- ./inp_files/9755.got.cif
#   From: 2010.05.17/outbox.cif.g08.bks.cpg/sg191_5_cif.got.tgz:9755.got - 2010.05.20 12:20:32.
