data_PCOD9587860
_publ_section_title
;
Structure prediction by ZEFSAII (Michael W. Deem and Ramdas Pophale) SiO2 
 PCOD9587860
Probable space group: P 6/M M M
;
_chemical_formula_sum "Si O2"
_cell_formula_units_Z 144
_cell_length_a 23.187351
_cell_length_b 23.187351
_cell_length_c 18.303843
_cell_angle_alpha 90.000000
_cell_angle_beta 90.000000
_cell_angle_gamma 120.000000
_cell_volume 8522.660450
_symmetry_space_group_name_H-M "P 6/M M M"
_symmetry_group_IT_number 191
_symmetry_cell_setting 'hexagonal'
loop_
_space_group_symop_operation_xyz
x,y,z
x-y,x,z
-y,x-y,z
-x,-y,z
-x+y,-x,z
y,-x+y,z
x-y,-y,-z
-x,-x+y,-z
y,x,-z
-y,-x,-z
-x+y,y,-z
x,x-y,-z
-x,-y,-z
-x+y,-x,-z
y,-x+y,-z
x,y,-z
x-y,x,-z
-y,x-y,-z
-x+y,y,z
x,x-y,z
-y,-x,z
y,x,z
x-y,-y,z
-x,-x+y,z
loop_
_atom_site_type_symbol
_atom_site_label
_atom_site_fract_x
_atom_site_fract_y
_atom_site_fract_z
Si Si1 0.604879 0.076686 0.303173
Si Si2 0.076390 0.666071 0.849920
Si Si3 0.715298 0.564429 0.413310
Si Si4 0.208456 0.284407 0.086849
Si Si5 0.666727 0.202555 0.087631
Si Si6 0.279372 0.204271 0.588794
O O1 0.543769 0.087537 0.280809
O O2 0.650576 0.083545 0.234052
O O3 0.650027 0.126482 0.365743
O O4 0.570976 0.000000 0.329290
O O5 0.086804 0.738679 0.867111
O O6 0.131834 0.658041 0.892353
O O7 0.000000 0.614320 0.871967
O O8 0.702007 0.557202 0.500000
O O9 0.774098 0.548195 0.398495
O O10 0.746326 0.642895 0.394551
O O11 0.133601 0.267202 0.102721
O O12 0.226366 0.226366 0.099502
O O13 0.220682 0.301756 0.000000
O O14 0.604545 0.209090 0.115006
O O15 0.736728 0.263273 0.115198
O O16 0.667510 0.207522 0.000000
O O17 0.275305 0.201708 0.500000
O O18 0.261232 0.130616 0.614021
O O19 0.233570 0.233570 0.615848
#
# Coordination Sequence:
#
# PCOD9587860 Si02
#       6
#    24  24  24  24  24  24
#     4  10  21  35  50  70  97 126 154 189 236 289
#     4  10  20  33  48  69  98 128 160 200 244 289
#     4   9  18  32  50  72  94 116 148 191 236 284
#     4   9  17  30  50  76 105 137 173 211 249 289
#     4  10  20  33  49  68  91 121 159 202 244 288
#     4   8  13  22  38  60  85 112 142 178 219 262
#
# _framework density 16.896132000000001
#
# number of rings (size 3 to 8) (size 9 to 14) (size 15 to 20)
#    0.000    2.667    0.000    3.167    0.000    6.667 
#    0.000    1.667    0.000    0.667    0.000    2.333 
#    0.000    0.000    0.000    0.000    0.000   21.667 
#
# Total GULP energy -802453.034908 kJ/mol
# GULP energy per Si atom -5572.590520 kJ/mol
# Density = 1.685768 g / cm^3
# Si number density = 16.896132 Si / 1000 Ang^3
#
#
#
# Elastic Constant Matrix: (Units=GPa)
#
#
# Indices 1 2 3 4 5 6 
#
# 1 92.3118 56.8005 35.3694 0.0000 0.0000 0.0000
# 2 56.8005 92.3118 35.3694 0.0000 0.0000 0.0000
# 3 35.3694 35.3694 29.2430 0.0000 0.0000 0.0000
# 4 0.0000 0.0000 0.0000 -3.1110 0.0000 0.0000
# 5 0.0000 0.0000 0.0000 0.0000 -3.1110 0.0000
# 6 0.0000 0.0000 0.0000 0.0000 0.0000 17.7557
#
#
#
# Elastic Compliance Matrix: (Units=1/GPa)
#
#
# Indices 1 2 3 4 5 6 
#
# 1 0.021947 -0.006213 -0.019031 0.000000 0.000000 0.000000
# 2 -0.006213 0.021947 -0.019031 0.000000 0.000000 0.000000
# 3 -0.019031 -0.019031 0.080233 0.000000 0.000000 0.000000
# 4 0.000000 0.000000 0.000000 -0.321441 0.000000 0.000000
# 5 0.000000 0.000000 0.000000 0.000000 -0.321441 0.000000
# 6 0.000000 0.000000 0.000000 0.000000 0.000000 0.056320
#
#
# Mechanical properties :
#
#
# Convention : Reuss Voigt Hill
#
# Bulk Modulus (GPa) = 28.10767 52.10502 40.10635
# Shear Modulus (GPa) = -13.81119 8.06190 -2.87465
#
# Velocity S-wave (km/s) = -2.86215 2.18673 -1.30578
# Velocity P-wave (km/s) = 2.39773 6.10583 4.63844
#
# Compressibility (1/GPa) = 0.03557747
#
# Stress axis : x y z
#
# Youngs Moduli (GPa) = 45.56356 45.56356 12.46375
#
# Poissons Ratio (x) = 0.28307 0.23720
# Poissons Ratio (y) = 0.28307 0.23720
# Poissons Ratio (z) = 0.86713 0.86713
#
# Static dielectric constant tensor:
#      x y z
#    x 1.570090 0.000000 0.000000 
#    y 0.000000 1.570090 0.000000 
#    z 0.000000 0.000000 1.573990 
# 
# From -- ./inp_files/7592.got.cif
#   From: 2010.05.17/outbox.cif.g08.bks.cpg/sg191_4_cif.got.tgz:7592.got - 2010.05.20 12:20:32.
