data_PCOD9587298
_publ_section_title
;
Structure prediction by ZEFSAII (Michael W. Deem and Ramdas Pophale) SiO2 
 PCOD9587298
Probable space group: P 6/M M M
;
_chemical_formula_sum "Si O2"
_cell_formula_units_Z 144
_cell_length_a 23.031309
_cell_length_b 23.031309
_cell_length_c 20.296698
_cell_angle_alpha 90.000000
_cell_angle_beta 90.000000
_cell_angle_gamma 120.000000
_cell_volume 9323.806796
_symmetry_space_group_name_H-M "P 6/M M M"
_symmetry_group_IT_number 191
_symmetry_cell_setting 'hexagonal'
loop_
_space_group_symop_operation_xyz
x,y,z
x-y,x,z
-y,x-y,z
-x,-y,z
-x+y,-x,z
y,-x+y,z
x-y,-y,-z
-x,-x+y,-z
y,x,-z
-y,-x,-z
-x+y,y,-z
x,x-y,-z
-x,-y,-z
-x+y,-x,-z
y,-x+y,-z
x,y,-z
x-y,x,-z
-y,x-y,-z
-x+y,y,z
x,x-y,z
-y,-x,z
y,x,z
x-y,-y,z
-x,-x+y,z
loop_
_atom_site_type_symbol
_atom_site_label
_atom_site_fract_x
_atom_site_fract_y
_atom_site_fract_z
Si Si1 0.923594 0.717244 0.614399
Si Si2 0.281626 0.205784 0.773196
Si Si3 0.563766 0.715059 0.423997
Si Si4 0.666644 0.196805 0.924144
Si Si5 0.851026 0.566358 0.803114
Si Si6 0.079026 0.470126 0.312626
O O1 0.870915 0.741830 0.598874
O O2 0.921587 0.706970 0.693836
O O3 0.894560 0.644323 0.582623
O O4 0.000000 0.766679 0.595208
O O5 0.257740 0.128870 0.787894
O O6 0.230373 0.230373 0.791231
O O7 0.353552 0.251016 0.806712
O O8 0.544414 0.697823 0.500000
O O9 0.547694 0.773847 0.404035
O O10 0.533373 0.651347 0.376817
O O11 0.595418 0.190836 0.909710
O O12 0.725663 0.274338 0.919616
O O13 0.685317 0.157253 0.871380
O O14 0.666014 0.175686 0.000000
O O15 0.776998 0.553996 0.783900
O O16 0.883785 0.541463 0.748588
O O17 0.082228 0.541114 0.307730
O O18 0.000000 0.413515 0.314715
#
# Coordination Sequence:
#
# PCOD9587298 Si02
#       6
#    24  24  24  24  24  24
#     4   9  16  27  44  66  90 115 145 181 221 264
#     4   9  16  27  46  69  92 118 150 188 225 265
#     4  10  20  34  51  68  87 113 148 193 240 280
#     4   9  17  29  46  68  94 125 161 201 243 284
#     4  10  18  30  49  70  94 123 158 197 233 272
#     4  11  22  33  47  68  94 123 153 187 230 281
#
# _framework density 15.444335000000001
#
# number of rings (size 3 to 8) (size 9 to 14) (size 15 to 20)
#    0.000    2.333    1.667    2.167    0.000    2.333 
#    0.000    0.833    0.000    6.000    0.000    8.167 
#    0.000    0.000    0.000    4.167    0.000    4.333 
#
# Total GULP energy -802717.691920 kJ/mol
# GULP energy per Si atom -5574.428416 kJ/mol
# Density = 1.540918 g / cm^3
# Si number density = 15.444335 Si / 1000 Ang^3
#
#
#
# Elastic Constant Matrix: (Units=GPa)
#
#
# Indices 1 2 3 4 5 6 
#
# 1 92.0445 51.2397 46.7815 0.0000 0.0000 0.0000
# 2 51.2397 92.0445 46.7815 0.0000 0.0000 0.0000
# 3 46.7815 46.7815 65.2386 0.0000 0.0000 0.0000
# 4 0.0000 0.0000 0.0000 6.7036 0.0000 0.0000
# 5 0.0000 0.0000 0.0000 0.0000 6.7036 0.0000
# 6 0.0000 0.0000 0.0000 0.0000 0.0000 20.4024
#
#
#
# Elastic Compliance Matrix: (Units=1/GPa)
#
#
# Indices 1 2 3 4 5 6 
#
# 1 0.018816 -0.005691 -0.009412 0.000000 0.000000 0.000000
# 2 -0.005691 0.018816 -0.009412 0.000000 0.000000 0.000000
# 3 -0.009412 -0.009412 0.028826 0.000000 0.000000 0.000000
# 4 0.000000 0.000000 0.000000 0.149174 0.000000 0.000000
# 5 0.000000 0.000000 0.000000 0.000000 0.149174 0.000000
# 6 0.000000 0.000000 0.000000 0.000000 0.000000 0.049014
#
#
# Mechanical properties :
#
#
# Convention : Reuss Voigt Hill
#
# Bulk Modulus (GPa) = 57.37426 59.88144 58.62785
# Shear Modulus (GPa) = 10.66875 13.73024 12.19950
#
# Velocity S-wave (km/s) = 2.63114 2.98487 2.81357
# Velocity P-wave (km/s) = 6.81617 7.12291 6.97123
#
# Compressibility (1/GPa) = 0.01742942
#
# Stress axis : x y z
#
# Youngs Moduli (GPa) = 53.14672 53.14672 34.69087
#
# Poissons Ratio (x) = 0.30246 0.32649
# Poissons Ratio (y) = 0.30246 0.32649
# Poissons Ratio (z) = 0.50019 0.50019
#
# Static dielectric constant tensor:
#      x y z
#    x 1.506960 0.000000 0.000000 
#    y 0.000000 1.506960 0.000000 
#    z 0.000000 0.000000 1.520150 
# 
# From -- ./inp_files/7615.got.cif
#   From: 2010.05.17/outbox.cif.g08.bks.cpg/sg191_4_cif.got.tgz:7615.got - 2010.05.20 12:20:32.
