data_PCOD9587971
_publ_section_title
;
Structure prediction by ZEFSAII (Michael W. Deem and Ramdas Pophale) SiO2 
 PCOD9587971
Probable space group: P 6/M M M
;
_chemical_formula_sum "Si O2"
_cell_formula_units_Z 84
_cell_length_a 17.718015
_cell_length_b 17.718015
_cell_length_c 17.268688
_cell_angle_alpha 90.000000
_cell_angle_beta 90.000000
_cell_angle_gamma 120.000000
_cell_volume 4694.832526
_symmetry_space_group_name_H-M "P 6/M M M"
_symmetry_group_IT_number 191
_symmetry_cell_setting 'hexagonal'
loop_
_space_group_symop_operation_xyz
x,y,z
x-y,x,z
-y,x-y,z
-x,-y,z
-x+y,-x,z
y,-x+y,z
x-y,-y,-z
-x,-x+y,-z
y,x,-z
-y,-x,-z
-x+y,y,-z
x,x-y,-z
-x,-y,-z
-x+y,-x,-z
y,-x+y,-z
x,y,-z
x-y,x,-z
-y,x-y,-z
-x+y,y,z
x,x-y,z
-y,-x,z
y,x,z
x-y,-y,z
-x,-x+y,z
loop_
_atom_site_type_symbol
_atom_site_label
_atom_site_fract_x
_atom_site_fract_y
_atom_site_fract_z
Si Si1 0.273170 0.900703 0.347144
Si Si2 0.488151 0.155304 0.192855
Si Si3 0.000000 0.649948 0.907473
Si Si4 0.174202 0.000000 0.094347
Si Si5 0.667463 0.155835 0.500000
O O1 0.171188 0.828813 0.348195
O O2 0.314538 0.879761 0.272880
O O3 0.315461 0.885578 0.423953
O O4 0.296408 0.000000 0.343543
O O5 0.581848 0.163695 0.200226
O O6 0.496140 0.248070 0.176064
O O7 0.431675 0.085158 0.127744
O O8 0.000000 0.738219 0.882884
O O9 0.000000 0.646556 0.000000
O O10 0.174953 0.087477 0.119952
O O11 0.172682 0.000000 0.000000
O O12 0.742162 0.257839 0.500000
O O13 0.572555 0.145109 0.500000
#
# Coordination Sequence:
#
# PCOD9587971 Si02
#       5
#    24  24  12  12  12
#     4  10  21  37  58  85 116 152 190 231 279 334
#     4  11  23  39  59  83 113 148 188 233 283 338
#     4  11  23  39  59  80 107 145 189 237 287 342
#     4   9  17  31  53  81 110 137 169 214 272 336
#     4  10  20  33  54  85 122 158 193 232 278 331
#
# _framework density 17.892012000000001
#
# number of rings (size 3 to 8) (size 9 to 14) (size 15 to 20)
#    0.000    1.714    1.429    3.143    0.000    5.714 
#    0.000    2.857    0.000    2.000    0.000    0.000 
#    0.000    3.429    0.000    0.000    0.000    0.000 
#
# Total GULP energy -469344.245832 kJ/mol
# GULP energy per Si atom -5587.431498 kJ/mol
# Density = 1.785129 g / cm^3
# Si number density = 17.892012 Si / 1000 Ang^3
#
#
#
# Elastic Constant Matrix: (Units=GPa)
#
#
# Indices 1 2 3 4 5 6 
#
# 1 140.7486 101.6560 46.7377 0.0000 0.0000 0.0000
# 2 101.6560 140.7486 46.7377 0.0000 0.0000 0.0000
# 3 46.7377 46.7377 95.3900 0.0000 0.0000 0.0000
# 4 0.0000 0.0000 0.0000 15.0195 0.0000 0.0000
# 5 0.0000 0.0000 0.0000 0.0000 15.0195 0.0000
# 6 0.0000 0.0000 0.0000 0.0000 0.0000 19.5463
#
#
#
# Elastic Compliance Matrix: (Units=1/GPa)
#
#
# Indices 1 2 3 4 5 6 
#
# 1 0.015333 -0.010247 -0.002492 0.000000 0.000000 0.000000
# 2 -0.010247 0.015333 -0.002492 0.000000 0.000000 0.000000
# 3 -0.002492 -0.002492 0.012925 0.000000 0.000000 0.000000
# 4 0.000000 0.000000 0.000000 0.066580 0.000000 0.000000
# 5 0.000000 0.000000 0.000000 0.000000 0.066580 0.000000
# 6 0.000000 0.000000 0.000000 0.000000 0.000000 0.051161
#
#
# Mechanical properties :
#
#
# Convention : Reuss Voigt Hill
#
# Bulk Modulus (GPa) = 76.16403 85.23891 80.70147
# Shear Modulus (GPa) = 19.02938 22.03412 20.53175
#
# Velocity S-wave (km/s) = 3.26478 3.51309 3.39121
# Velocity P-wave (km/s) = 7.54141 8.01248 7.78051
#
# Compressibility (1/GPa) = 0.01312956
#
# Stress axis : x y z
#
# Youngs Moduli (GPa) = 65.21742 65.21742 77.36716
#
# Poissons Ratio (x) = 0.66828 0.19281
# Poissons Ratio (y) = 0.66828 0.19281
# Poissons Ratio (z) = 0.16253 0.16253
#
# Static dielectric constant tensor:
#      x y z
#    x 1.591140 0.000000 0.000000 
#    y 0.000000 1.591140 0.000000 
#    z 0.000000 0.000000 1.603660 
# 
# From -- ./inp_files/3998.got.cif
#   From: 2010.05.17/outbox.cif.g08.bks.cpg/sg191_2_cif.got.tgz:3998.got - 2010.05.20 12:20:32.
