data_PCOD9587810
_publ_section_title
;
Structure prediction by ZEFSAII (Michael W. Deem and Ramdas Pophale) SiO2 
 PCOD9587810
Probable space group: P 6/M M M
;
_chemical_formula_sum "Si O2"
_cell_formula_units_Z 120
_cell_length_a 22.601773
_cell_length_b 22.601773
_cell_length_c 16.978653
_cell_angle_alpha 90.000000
_cell_angle_beta 90.000000
_cell_angle_gamma 120.000000
_cell_volume 7511.365271
_symmetry_space_group_name_H-M "P 6/M M M"
_symmetry_group_IT_number 191
_symmetry_cell_setting 'hexagonal'
loop_
_space_group_symop_operation_xyz
x,y,z
x-y,x,z
-y,x-y,z
-x,-y,z
-x+y,-x,z
y,-x+y,z
x-y,-y,-z
-x,-x+y,-z
y,x,-z
-y,-x,-z
-x+y,y,-z
x,x-y,-z
-x,-y,-z
-x+y,-x,-z
y,-x+y,-z
x,y,-z
x-y,x,-z
-y,x-y,-z
-x+y,y,z
x,x-y,z
-y,-x,z
y,x,z
x-y,-y,z
-x,-x+y,z
loop_
_atom_site_type_symbol
_atom_site_label
_atom_site_fract_x
_atom_site_fract_y
_atom_site_fract_z
Si Si1 0.458293 0.541708 0.908585
Si Si2 0.077865 0.922136 0.404043
Si Si3 0.313552 0.156776 0.595321
Si Si4 0.312113 0.917422 0.352084
Si Si5 0.917012 0.525474 0.500000
Si Si6 0.920737 0.706640 0.904893
Si Si7 0.337660 0.917299 0.825692
O O1 0.500000 0.500000 0.905633
O O2 0.507212 0.614079 0.866930
O O3 0.448561 0.551440 0.000000
O O4 0.076915 0.923086 0.500000
O O5 0.117204 0.882797 0.381606
O O6 0.000000 0.882774 0.377022
O O7 0.318149 0.159075 0.500000
O O8 0.349202 0.116380 0.628519
O O9 0.346697 0.896954 0.421407
O O10 0.323786 0.896999 0.265593
O O11 0.347551 0.000000 0.353700
O O12 0.892070 0.446035 0.500000
O O13 0.000000 0.565531 0.500000
O O14 0.862989 0.725978 0.882310
O O15 0.900042 0.632452 0.869308
O O16 0.000000 0.759070 0.881054
O O17 0.920543 0.702134 0.000000
O O18 0.381459 0.000000 0.827711
#
# Coordination Sequence:
#
# PCOD9587810 Si02
#       7
#    12  12  12  24  12  24  24
#     4   9  16  28  48  73 101 127 149 178 225 290
#     4   9  17  28  45  66  90 123 171 231 292 344
#     4  11  20  31  46  65  93 131 173 219 270 312
#     4  10  20  32  46  67  96 128 166 206 248 301
#     4   9  18  31  48  66  91 122 151 186 232 282
#     4   9  17  30  48  70  98 132 169 210 259 314
#     4   9  18  29  45  69  98 127 156 193 240 296
#
# _framework density 15.975790999999999
#
# number of rings (size 3 to 8) (size 9 to 14) (size 15 to 20)
#    0.000    2.600    1.000    1.300    2.800    3.600 
#    0.000    0.000    0.000    0.200    0.000    1.400 
#    5.000    1.600    1.200    0.000    0.000    0.000 
#
# Total GULP energy -668571.324041 kJ/mol
# GULP energy per Si atom -5571.427700 kJ/mol
# Density = 1.593943 g / cm^3
# Si number density = 15.975791 Si / 1000 Ang^3
#
#
#
# Elastic Constant Matrix: (Units=GPa)
#
#
# Indices 1 2 3 4 5 6 
#
# 1 100.2639 64.5897 51.0528 0.0000 0.0000 0.0000
# 2 64.5897 100.2639 51.0528 0.0000 0.0000 0.0000
# 3 51.0528 51.0528 88.0297 0.0000 0.0000 0.0000
# 4 0.0000 0.0000 0.0000 10.6745 0.0000 0.0000
# 5 0.0000 0.0000 0.0000 0.0000 10.6745 0.0000
# 6 0.0000 0.0000 0.0000 0.0000 0.0000 17.8371
#
#
#
# Elastic Compliance Matrix: (Units=1/GPa)
#
#
# Indices 1 2 3 4 5 6 
#
# 1 0.018749 -0.009283 -0.005490 0.000000 0.000000 0.000000
# 2 -0.009283 0.018749 -0.005490 0.000000 0.000000 0.000000
# 3 -0.005490 -0.005490 0.017728 0.000000 0.000000 0.000000
# 4 0.000000 0.000000 0.000000 0.093681 0.000000 0.000000
# 5 0.000000 0.000000 0.000000 0.000000 0.093681 0.000000
# 6 0.000000 0.000000 0.000000 0.000000 0.000000 0.056063
#
#
# Mechanical properties :
#
#
# Convention : Reuss Voigt Hill
#
# Bulk Modulus (GPa) = 68.02568 69.10532 68.56550
# Shear Modulus (GPa) = 14.53166 15.96137 15.24651
#
# Velocity S-wave (km/s) = 3.01924 3.16428 3.09261
# Velocity P-wave (km/s) = 7.40455 7.52997 7.46752
#
# Compressibility (1/GPa) = 0.01470033
#
# Stress axis : x y z
#
# Youngs Moduli (GPa) = 53.33653 53.33653 56.40906
#
# Poissons Ratio (x) = 0.49510 0.30969
# Poissons Ratio (y) = 0.49510 0.30969
# Poissons Ratio (z) = 0.29282 0.29282
#
# Static dielectric constant tensor:
#      x y z
#    x 1.519940 0.000000 0.000000 
#    y 0.000000 1.519940 0.000000 
#    z 0.000000 0.000000 1.535310 
# 
# From -- ./inp_files/6309.got.cif
#   From: 2010.05.17/outbox.cif.g08.bks.cpg/sg191_4_cif.got.tgz:6309.got - 2010.05.20 12:20:32.
