data_PCOD9587344
_publ_section_title
;
Structure prediction by ZEFSAII (Michael W. Deem and Ramdas Pophale) SiO2 
 PCOD9587344
Probable space group: P 6/M M M
;
_chemical_formula_sum "Si O2"
_cell_formula_units_Z 108
_cell_length_a 21.215875
_cell_length_b 21.215875
_cell_length_c 16.613001
_cell_angle_alpha 90.000000
_cell_angle_beta 90.000000
_cell_angle_gamma 120.000000
_cell_volume 6475.907232
_symmetry_space_group_name_H-M "P 6/M M M"
_symmetry_group_IT_number 191
_symmetry_cell_setting 'hexagonal'
loop_
_space_group_symop_operation_xyz
x,y,z
x-y,x,z
-y,x-y,z
-x,-y,z
-x+y,-x,z
y,-x+y,z
x-y,-y,-z
-x,-x+y,-z
y,x,-z
-y,-x,-z
-x+y,y,-z
x,x-y,-z
-x,-y,-z
-x+y,-x,-z
y,-x+y,-z
x,y,-z
x-y,x,-z
-y,x-y,-z
-x+y,y,z
x,x-y,z
-y,-x,z
y,x,z
x-y,-y,z
-x,-x+y,z
loop_
_atom_site_type_symbol
_atom_site_label
_atom_site_fract_x
_atom_site_fract_y
_atom_site_fract_z
Si Si1 0.542333 0.084665 0.127989
Si Si2 0.592532 0.680993 0.314788
Si Si3 0.855277 0.563642 0.868167
Si Si4 0.771778 0.083717 0.000000
Si Si5 0.917056 0.834111 0.597975
Si Si6 0.833119 0.666238 0.403699
Si Si7 0.916682 0.458341 0.323724
O O1 0.497767 0.125046 0.105174
O O2 0.541242 0.082483 0.225927
O O3 0.500000 0.000000 0.101204
O O4 0.638279 0.638279 0.314276
O O5 0.584625 0.701827 0.223484
O O6 0.629725 0.752502 0.368105
O O7 0.510811 0.624960 0.346315
O O8 0.770174 0.540348 0.873561
O O9 0.898145 0.634480 0.923766
O O10 0.857319 0.142682 0.000000
O O11 0.749366 0.000000 0.000000
O O12 0.875217 0.875217 0.625622
O O13 0.918004 0.836007 0.500000
O O14 0.875257 0.750513 0.621727
O O15 0.831224 0.662448 0.500000
O O16 0.000000 0.500000 0.352183
#
# Coordination Sequence:
#
# PCOD9587344 Si02
#       7
#    12  24  24  12  12  12  12
#     4   9  16  29  50  73 103 138 175 207 248 301
#     4  10  18  33  54  73 100 133 169 211 259 312
#     4  10  19  33  51  78 108 139 176 217 256 301
#     4  10  20  33  53  80 111 139 175 221 263 305
#     4   9  17  30  47  68  95 127 160 193 242 313
#     4  11  22  33  48  74 103 128 162 216 270 316
#     4   7  14  28  50  73  91 122 163 203 240 291
#
# _framework density 16.677199999999999
#
# number of rings (size 3 to 8) (size 9 to 14) (size 15 to 20)
#    0.000    2.444    1.111    4.111    0.000    2.222 
#    0.667    1.667    0.000    2.556    0.000    0.000 
#    0.000    0.000    0.000    0.000    0.000    0.000 
#
# Total GULP energy -601837.836547 kJ/mol
# GULP energy per Si atom -5572.572561 kJ/mol
# Density = 1.663924 g / cm^3
# Si number density = 16.677200 Si / 1000 Ang^3
#
#
#
# Elastic Constant Matrix: (Units=GPa)
#
#
# Indices 1 2 3 4 5 6 
#
# 1 154.0472 90.4823 32.9338 0.0000 0.0000 0.0000
# 2 90.4823 154.0472 32.9338 0.0000 0.0000 0.0000
# 3 32.9338 32.9338 43.9496 0.0000 0.0000 0.0000
# 4 0.0000 0.0000 0.0000 16.0559 0.0000 0.0000
# 5 0.0000 0.0000 0.0000 0.0000 16.0559 0.0000
# 6 0.0000 0.0000 0.0000 0.0000 0.0000 31.7825
#
#
#
# Elastic Compliance Matrix: (Units=1/GPa)
#
#
# Indices 1 2 3 4 5 6 
#
# 1 0.010428 -0.005304 -0.003839 0.000000 0.000000 0.000000
# 2 -0.005304 0.010428 -0.003839 0.000000 0.000000 0.000000
# 3 -0.003839 -0.003839 0.028508 0.000000 0.000000 0.000000
# 4 0.000000 0.000000 0.000000 0.062282 0.000000 0.000000
# 5 0.000000 0.000000 0.000000 0.000000 0.062282 0.000000
# 6 0.000000 0.000000 0.000000 0.000000 0.000000 0.031464
#
#
# Mechanical properties :
#
#
# Convention : Reuss Voigt Hill
#
# Bulk Modulus (GPa) = 42.74032 73.86044 58.30038
# Shear Modulus (GPa) = 20.90679 25.82515 23.36597
#
# Velocity S-wave (km/s) = 3.54448 3.93941 3.74715
# Velocity P-wave (km/s) = 6.51420 8.06699 7.33182
#
# Compressibility (1/GPa) = 0.02339711
#
# Stress axis : x y z
#
# Youngs Moduli (GPa) = 95.89732 95.89732 35.07839
#
# Poissons Ratio (x) = 0.50865 0.13468
# Poissons Ratio (y) = 0.50865 0.13468
# Poissons Ratio (z) = 0.36819 0.36819
#
# Static dielectric constant tensor:
#      x y z
#    x 1.561250 0.000000 0.000000 
#    y 0.000000 1.561250 0.000000 
#    z 0.000000 0.000000 1.562300 
# 
# From -- ./inp_files/6214.got.cif
#   From: 2010.05.17/outbox.cif.g08.bks.cpg/sg191_4_cif.got.tgz:6214.got - 2010.05.20 12:20:32.
