data_PCOD9587646
_publ_section_title
;
Structure prediction by ZEFSAII (Michael W. Deem and Ramdas Pophale) SiO2 
 PCOD9587646
Probable space group: P 6/M M M
;
_chemical_formula_sum "Si O2"
_cell_formula_units_Z 156
_cell_length_a 22.993415
_cell_length_b 22.993415
_cell_length_c 20.130325
_cell_angle_alpha 90.000000
_cell_angle_beta 90.000000
_cell_angle_gamma 120.000000
_cell_volume 9216.974243
_symmetry_space_group_name_H-M "P 6/M M M"
_symmetry_group_IT_number 191
_symmetry_cell_setting 'hexagonal'
loop_
_space_group_symop_operation_xyz
x,y,z
x-y,x,z
-y,x-y,z
-x,-y,z
-x+y,-x,z
y,-x+y,z
x-y,-y,-z
-x,-x+y,-z
y,x,-z
-y,-x,-z
-x+y,y,-z
x,x-y,-z
-x,-y,-z
-x+y,-x,-z
y,-x+y,-z
x,y,-z
x-y,x,-z
-y,x-y,-z
-x+y,y,z
x,x-y,z
-y,-x,z
y,x,z
x-y,-y,z
-x,-x+y,z
loop_
_atom_site_type_symbol
_atom_site_label
_atom_site_fract_x
_atom_site_fract_y
_atom_site_fract_z
Si Si1 0.199298 0.532661 0.885738
Si Si2 0.333275 0.531162 0.274609
Si Si3 0.922863 0.604058 0.924160
Si Si4 0.283666 0.208090 0.676902
Si Si5 0.606906 0.081235 0.500000
Si Si6 0.660954 0.581521 0.359208
Si Si7 0.716465 0.923594 0.163623
O O1 0.262524 0.525048 0.906601
O O2 0.210502 0.605251 0.903916
O O3 0.194293 0.526753 0.805459
O O4 0.130619 0.473285 0.914521
O O5 0.262526 0.525052 0.295085
O O6 0.396355 0.603645 0.292911
O O7 0.342988 0.472728 0.306732
O O8 0.906986 0.648307 0.873690
O O9 0.000000 0.624046 0.911969
O O10 0.918911 0.623659 0.000000
O O11 0.269403 0.134702 0.657802
O O12 0.225562 0.225562 0.661069
O O13 0.352214 0.266337 0.645557
O O14 0.293767 0.214748 0.756902
O O15 0.553123 0.106245 0.500000
O O16 0.648246 0.099451 0.567925
O O17 0.564293 0.000000 0.500000
O O18 0.607264 0.607264 0.347279
O O19 0.736587 0.868294 0.146115
O O20 0.770602 0.000000 0.145945
#
# Coordination Sequence:
#
# PCOD9587646 Si02
#       7
#    24  24  24  24  12  24  24
#     4  10  21  36  53  71  92 121 156 193 232 277
#     4  10  20  34  51  70  94 123 156 193 233 278
#     4  10  21  35  50  70  96 124 153 189 238 290
#     4   9  17  30  49  73 100 128 160 199 242 285
#     4   9  18  32  47  66  97 132 160 188 230 283
#     4  10  19  31  50  74  97 123 157 198 241 283
#     4   9  17  30  49  72  98 128 161 197 237 283
#
# _framework density 16.925294000000001
#
# number of rings (size 3 to 8) (size 9 to 14) (size 15 to 20)
#    0.000    2.385    0.000    2.615    0.000    8.308 
#    0.000    3.846    0.000    1.231    0.000    3.231 
#    0.000    0.000    0.000    3.846    0.000   13.077 
#
# Total GULP energy -870058.233284 kJ/mol
# GULP energy per Si atom -5577.296367 kJ/mol
# Density = 1.688677 g / cm^3
# Si number density = 16.925294 Si / 1000 Ang^3
#
#
#
# Elastic Constant Matrix: (Units=GPa)
#
#
# Indices 1 2 3 4 5 6 
#
# 1 93.1022 56.8152 23.8871 0.0000 0.0000 0.0000
# 2 56.8152 93.1022 23.8871 0.0000 0.0000 0.0000
# 3 23.8871 23.8871 19.2795 0.0000 0.0000 0.0000
# 4 0.0000 0.0000 0.0000 4.7914 0.0000 0.0000
# 5 0.0000 0.0000 0.0000 0.0000 4.7914 0.0000
# 6 0.0000 0.0000 0.0000 0.0000 0.0000 18.1435
#
#
#
# Elastic Compliance Matrix: (Units=1/GPa)
#
#
# Indices 1 2 3 4 5 6 
#
# 1 0.019290 -0.008268 -0.013656 0.000000 0.000000 0.000000
# 2 -0.008268 0.019290 -0.013656 0.000000 0.000000 0.000000
# 3 -0.013656 -0.013656 0.085708 0.000000 0.000000 0.000000
# 4 0.000000 0.000000 0.000000 0.208708 0.000000 0.000000
# 5 0.000000 0.000000 0.000000 0.000000 0.208708 0.000000
# 6 0.000000 0.000000 0.000000 0.000000 0.000000 0.055116
#
#
# Mechanical properties :
#
#
# Convention : Reuss Voigt Hill
#
# Bulk Modulus (GPa) = 18.82265 46.07365 32.44815
# Shear Modulus (GPa) = 7.29191 12.27156 9.78174
#
# Velocity S-wave (km/s) = 2.07789 2.69558 2.40664
# Velocity P-wave (km/s) = 4.11121 6.08022 5.18995
#
# Compressibility (1/GPa) = 0.05312748
#
# Stress axis : x y z
#
# Youngs Moduli (GPa) = 51.83996 51.83996 11.66746
#
# Poissons Ratio (x) = 0.42861 0.15933
# Poissons Ratio (y) = 0.42861 0.15933
# Poissons Ratio (z) = 0.70794 0.70794
#
# Static dielectric constant tensor:
#      x y z
#    x 1.563250 0.000000 0.000000 
#    y 0.000000 1.563250 0.000000 
#    z 0.000000 0.000000 1.572690 
# 
# From -- ./inp_files/7745.got.cif
#   From: 2010.05.17/outbox.cif.g08.bks.cpg/sg191_4_cif.got.tgz:7745.got - 2010.05.20 12:20:32.
