data_PCOD9587306
_publ_section_title
;
Structure prediction by ZEFSAII (Michael W. Deem and Ramdas Pophale) SiO2 
 PCOD9587306
Probable space group: P 6/M M M
;
_chemical_formula_sum "Si O2"
_cell_formula_units_Z 144
_cell_length_a 22.022289
_cell_length_b 22.022289
_cell_length_c 21.237431
_cell_angle_alpha 90.000000
_cell_angle_beta 90.000000
_cell_angle_gamma 120.000000
_cell_volume 8919.849520
_symmetry_space_group_name_H-M "P 6/M M M"
_symmetry_group_IT_number 191
_symmetry_cell_setting 'hexagonal'
loop_
_space_group_symop_operation_xyz
x,y,z
x-y,x,z
-y,x-y,z
-x,-y,z
-x+y,-x,z
y,-x+y,z
x-y,-y,-z
-x,-x+y,-z
y,x,-z
-y,-x,-z
-x+y,y,-z
x,x-y,-z
-x,-y,-z
-x+y,-x,-z
y,-x+y,-z
x,y,-z
x-y,x,-z
-y,x-y,-z
-x+y,y,z
x,x-y,z
-y,-x,z
y,x,z
x-y,-y,z
-x,-x+y,z
loop_
_atom_site_type_symbol
_atom_site_label
_atom_site_fract_x
_atom_site_fract_y
_atom_site_fract_z
Si Si1 0.084145 0.613351 0.500000
Si Si2 0.082338 0.541169 0.075264
Si Si3 0.919653 0.219035 0.847877
Si Si4 0.298811 0.841208 0.875388
Si Si5 0.078003 0.783945 0.697371
Si Si6 0.289960 0.853968 0.378219
Si Si7 0.666880 0.472146 0.742950
O O1 0.104212 0.552106 0.500000
O O2 0.113743 0.661760 0.561524
O O3 0.000000 0.574657 0.500000
O O4 0.124844 0.623241 0.095984
O O5 0.000000 0.500000 0.098128
O O6 0.079658 0.539829 0.000000
O O7 0.861905 0.138096 0.860703
O O8 0.892032 0.266248 0.881598
O O9 0.917424 0.228929 0.771997
O O10 0.000000 0.245105 0.864376
O O11 0.237440 0.762561 0.896666
O O12 0.308260 0.833942 0.800802
O O13 0.136808 0.863193 0.684721
O O14 0.096676 0.735575 0.654507
O O15 0.000000 0.766294 0.684308
O O16 0.219457 0.780544 0.393489
O O17 0.329814 0.838100 0.322882
O O18 0.722792 0.445583 0.739206
O O19 0.590696 0.409305 0.756935
#
# Coordination Sequence:
#
# PCOD9587306 Si02
#       7
#    12  12  24  24  24  24  24
#     4  11  23  36  46  62  94 129 159 193 240 294
#     4  11  24  40  54  74 108 145 179 217 263 312
#     4   9  16  28  48  74 101 128 162 206 252 297
#     4  10  19  34  54  76 101 131 172 217 257 303
#     4   9  16  27  45  69  94 119 151 192 238 284
#     4  10  19  33  51  68  89 122 159 201 247 292
#     4  10  18  30  49  72  97 121 155 205 256 298
#
# _framework density 16.14377
#
# number of rings (size 3 to 8) (size 9 to 14) (size 15 to 20)
#    0.000    2.167    2.500    1.917    0.000    0.333 
#    0.500    0.000    0.000    2.667    0.000    2.333 
#    0.000    0.000    0.000    0.000    0.000   17.333 
#
# Total GULP energy -802238.589298 kJ/mol
# GULP energy per Si atom -5571.101315 kJ/mol
# Density = 1.610703 g / cm^3
# Si number density = 16.143770 Si / 1000 Ang^3
#
#
#
# Elastic Constant Matrix: (Units=GPa)
#
#
# Indices 1 2 3 4 5 6 
#
# 1 101.7773 69.1077 15.4389 0.0000 0.0000 0.0000
# 2 69.1077 101.7773 15.4389 0.0000 0.0000 0.0000
# 3 15.4389 15.4389 30.1339 0.0000 0.0000 0.0000
# 4 0.0000 0.0000 0.0000 15.3751 0.0000 0.0000
# 5 0.0000 0.0000 0.0000 0.0000 15.3751 0.0000
# 6 0.0000 0.0000 0.0000 0.0000 0.0000 16.3348
#
#
#
# Elastic Compliance Matrix: (Units=1/GPa)
#
#
# Indices 1 2 3 4 5 6 
#
# 1 0.018529 -0.012080 -0.003304 0.000000 0.000000 0.000000
# 2 -0.012080 0.018529 -0.003304 0.000000 0.000000 0.000000
# 3 -0.003304 -0.003304 0.036571 0.000000 0.000000 0.000000
# 4 0.000000 0.000000 0.000000 0.065040 0.000000 0.000000
# 5 0.000000 0.000000 0.000000 0.000000 0.065040 0.000000
# 6 0.000000 0.000000 0.000000 0.000000 0.000000 0.061219
#
#
# Mechanical properties :
#
#
# Convention : Reuss Voigt Hill
#
# Bulk Modulus (GPa) = 27.58436 48.18440 37.88438
# Shear Modulus (GPa) = 15.90382 18.33052 17.11717
#
# Velocity S-wave (km/s) = 3.14209 3.37331 3.25975
# Velocity P-wave (km/s) = 5.50340 6.71447 6.13887
#
# Compressibility (1/GPa) = 0.03625243
#
# Stress axis : x y z
#
# Youngs Moduli (GPa) = 53.96877 53.96877 27.34419
#
# Poissons Ratio (x) = 0.65196 0.09035
# Poissons Ratio (y) = 0.65196 0.09035
# Poissons Ratio (z) = 0.17832 0.17832
#
# Static dielectric constant tensor:
#      x y z
#    x 1.539790 0.000000 0.000000 
#    y 0.000000 1.539790 0.000000 
#    z 0.000000 0.000000 1.522000 
# 
# From -- ./inp_files/7658.got.cif
#   From: 2010.05.17/outbox.cif.g08.bks.cpg/sg191_4_cif.got.tgz:7658.got - 2010.05.20 12:20:32.
