data_PCOD9587047
_publ_section_title
;
Structure prediction by ZEFSAII (Michael W. Deem and Ramdas Pophale) SiO2 
 PCOD9587047
Probable space group: P 6/M M M
;
_chemical_formula_sum "Si O2"
_cell_formula_units_Z 168
_cell_length_a 23.579196
_cell_length_b 23.579196
_cell_length_c 20.463752
_cell_angle_alpha 90.000000
_cell_angle_beta 90.000000
_cell_angle_gamma 120.000000
_cell_volume 9853.122464
_symmetry_space_group_name_H-M "P 6/M M M"
_symmetry_group_IT_number 191
_symmetry_cell_setting 'hexagonal'
loop_
_space_group_symop_operation_xyz
x,y,z
x-y,x,z
-y,x-y,z
-x,-y,z
-x+y,-x,z
y,-x+y,z
x-y,-y,-z
-x,-x+y,-z
y,x,-z
-y,-x,-z
-x+y,y,-z
x,x-y,-z
-x,-y,-z
-x+y,-x,-z
y,-x+y,-z
x,y,-z
x-y,x,-z
-y,x-y,-z
-x+y,y,z
x,x-y,z
-y,-x,z
y,x,z
x-y,-y,z
-x,-x+y,z
loop_
_atom_site_type_symbol
_atom_site_label
_atom_site_fract_x
_atom_site_fract_y
_atom_site_fract_z
Si Si1 0.589402 0.922917 0.073649
Si Si2 0.682522 0.755324 0.240761
Si Si3 0.798834 0.073420 0.901949
Si Si4 0.576403 0.719416 0.427228
Si Si5 0.296872 0.462828 0.806389
Si Si6 0.722596 0.925903 0.612868
Si Si7 0.801443 0.335120 0.324539
O O1 0.654519 0.915649 0.076911
O O2 0.542841 0.877126 0.130824
O O3 0.616487 0.000000 0.085630
O O4 0.562742 0.906639 0.000000
O O5 0.692044 0.692044 0.240008
O O6 0.720736 0.796132 0.177077
O O7 0.607668 0.734829 0.230183
O O8 0.711696 0.791108 0.308626
O O9 0.867874 0.132127 0.924378
O O10 0.778649 0.000000 0.921867
O O11 0.556694 0.691438 0.500000
O O12 0.576063 0.788032 0.425380
O O13 0.651833 0.741722 0.414139
O O14 0.525608 0.675478 0.371811
O O15 0.235958 0.471916 0.827110
O O16 0.337601 0.514801 0.750715
O O17 0.736027 0.868014 0.591383
O O18 0.776730 0.000000 0.596349
O O19 0.798522 0.399261 0.342311
O O20 0.730033 0.269968 0.330583
#
# Coordination Sequence:
#
# PCOD9587047 Si02
#       7
#    24  24  24  24  24  24  24
#     4   9  17  28  44  68  96 121 147 189 246 302
#     4   9  15  24  42  66  91 118 152 198 247 291
#     4   9  16  24  36  56  84 115 147 186 233 283
#     4   9  18  33  52  74 101 132 166 206 250 293
#     4  10  17  27  46  69  96 128 164 201 238 290
#     4  10  18  29  48  72  99 130 167 210 254 300
#     4  10  20  34  53  77 104 133 166 204 246 292
#
# _framework density 17.050432000000001
#
# number of rings (size 3 to 8) (size 9 to 14) (size 15 to 20)
#    0.000    2.571    1.429    4.000    0.000    1.714 
#    0.000    0.000    0.000    5.429    0.000    2.000 
#    0.000    4.571    0.000    7.143    0.000    0.000 
#
# Total GULP energy -936202.533983 kJ/mol
# GULP energy per Si atom -5572.634131 kJ/mol
# Density = 1.701162 g / cm^3
# Si number density = 17.050432 Si / 1000 Ang^3
#
#
#
# Elastic Constant Matrix: (Units=GPa)
#
#
# Indices 1 2 3 4 5 6 
#
# 1 56.7197 19.5599 23.3870 0.0000 0.0000 0.0000
# 2 19.5599 56.7197 23.3870 0.0000 0.0000 0.0000
# 3 23.3870 23.3870 94.4288 0.0000 0.0000 0.0000
# 4 0.0000 0.0000 0.0000 5.6851 0.0000 0.0000
# 5 0.0000 0.0000 0.0000 0.0000 5.6851 0.0000
# 6 0.0000 0.0000 0.0000 0.0000 0.0000 18.5799
#
#
#
# Elastic Compliance Matrix: (Units=1/GPa)
#
#
# Indices 1 2 3 4 5 6 
#
# 1 0.021184 -0.005727 -0.003828 0.000000 0.000000 0.000000
# 2 -0.005727 0.021184 -0.003828 0.000000 0.000000 0.000000
# 3 -0.003828 -0.003828 0.012486 0.000000 0.000000 0.000000
# 4 0.000000 0.000000 0.000000 0.175898 0.000000 0.000000
# 5 0.000000 0.000000 0.000000 0.000000 0.175898 0.000000
# 6 0.000000 0.000000 0.000000 0.000000 0.000000 0.053822
#
#
# Mechanical properties :
#
#
# Convention : Reuss Voigt Hill
#
# Bulk Modulus (GPa) = 35.60299 37.83733 36.72016
# Shear Modulus (GPa) = 10.06846 15.42565 12.74706
#
# Velocity S-wave (km/s) = 2.43268 3.01110 2.73721
# Velocity P-wave (km/s) = 5.36814 5.85906 5.61896
#
# Compressibility (1/GPa) = 0.02808753
#
# Stress axis : x y z
#
# Youngs Moduli (GPa) = 47.20555 47.20555 80.08813
#
# Poissons Ratio (x) = 0.27034 0.30660
# Poissons Ratio (y) = 0.27034 0.30660
# Poissons Ratio (z) = 0.18071 0.18071
#
# Static dielectric constant tensor:
#      x y z
#    x 1.571370 0.000000 0.000000 
#    y 0.000000 1.571370 0.000000 
#    z 0.000000 0.000000 1.622630 
# 
# From -- ./inp_files/8020.got.cif
#   From: 2010.05.17/outbox.cif.g08.bks.cpg/sg191_5_cif.got.tgz:8020.got - 2010.05.20 12:20:32.
