data_PCOD9587704
_publ_section_title
;
Structure prediction by ZEFSAII (Michael W. Deem and Ramdas Pophale) SiO2 
 PCOD9587704
Probable space group: P 6/M M M
;
_chemical_formula_sum "Si O2"
_cell_formula_units_Z 132
_cell_length_a 17.793136
_cell_length_b 17.793136
_cell_length_c 27.163150
_cell_angle_alpha 90.000000
_cell_angle_beta 90.000000
_cell_angle_gamma 120.000000
_cell_volume 7447.589999
_symmetry_space_group_name_H-M "P 6/M M M"
_symmetry_group_IT_number 191
_symmetry_cell_setting 'hexagonal'
loop_
_space_group_symop_operation_xyz
x,y,z
x-y,x,z
-y,x-y,z
-x,-y,z
-x+y,-x,z
y,-x+y,z
x-y,-y,-z
-x,-x+y,-z
y,x,-z
-y,-x,-z
-x+y,y,-z
x,x-y,-z
-x,-y,-z
-x+y,-x,-z
y,-x+y,-z
x,y,-z
x-y,x,-z
-y,x-y,-z
-x+y,y,z
x,x-y,z
-y,-x,z
y,x,z
x-y,-y,z
-x,-x+y,z
loop_
_atom_site_type_symbol
_atom_site_label
_atom_site_fract_x
_atom_site_fract_y
_atom_site_fract_z
Si Si1 0.098682 0.458084 0.000000
Si Si2 0.818323 0.000000 0.336569
Si Si3 0.494663 0.164382 0.107096
Si Si4 0.413921 0.413921 0.177885
Si Si5 0.000000 0.180184 0.553356
Si Si6 0.000000 0.665092 0.278495
Si Si7 0.513168 0.846593 0.552441
Si Si8 0.333356 0.847591 0.661082
O O1 0.142128 0.458747 0.051420
O O2 0.096269 0.548135 0.000000
O O3 0.000000 0.381630 0.000000
O O4 0.825578 0.912789 0.332194
O O5 0.783200 0.000000 0.392410
O O6 0.751054 0.000000 0.297174
O O7 0.594882 0.189764 0.104278
O O8 0.485889 0.242945 0.127114
O O9 0.447918 0.082291 0.142312
O O10 0.500000 0.500000 0.198550
O O11 0.352821 0.352821 0.220745
O O12 0.085696 0.171393 0.553116
O O13 0.000000 0.221438 0.500000
O O14 0.914764 0.582426 0.300772
O O15 0.555149 0.889573 0.500000
O O16 0.417915 0.835829 0.552319
O O17 0.505283 0.752641 0.552115
O O18 0.550061 0.884087 0.605901
O O19 0.420247 0.840493 0.666192
O O20 0.247058 0.752942 0.665319
#
# Coordination Sequence:
#
# PCOD9587704 Si02
#       8
#    12  12  24  12  12  12  24  24
#     4   9  15  28  50  77 114 152 181 208 249 307
#     4  10  21  38  60  83 106 134 170 214 264 322
#     4  10  19  32  53  81 111 144 183 225 264 304
#     4  10  22  39  55  71 100 145 187 224 272 323
#     4   8  13  24  46  76 105 130 157 192 241 309
#     4  12  24  39  55  75 105 140 178 223 276 329
#     4   8  13  23  42  68  95 123 158 202 253 312
#     4  10  20  35  55  77 101 132 172 217 265 320
#
# _framework density 17.723853999999999
#
# number of rings (size 3 to 8) (size 9 to 14) (size 15 to 20)
#    0.000    2.455    0.909    2.364    0.000    4.727 
#    0.000    2.273    0.000    8.727    0.000    0.000 
#    0.000    0.000    0.000    0.000    0.000    1.182 
#
# Total GULP energy -735447.338844 kJ/mol
# GULP energy per Si atom -5571.570749 kJ/mol
# Density = 1.768351 g / cm^3
# Si number density = 17.723854 Si / 1000 Ang^3
#
#
#
# Elastic Constant Matrix: (Units=GPa)
#
#
# Indices 1 2 3 4 5 6 
#
# 1 81.7194 39.1902 27.8905 0.0000 0.0000 0.0000
# 2 39.1902 81.7194 27.8905 0.0000 0.0000 0.0000
# 3 27.8905 27.8905 88.2480 0.0000 0.0000 0.0000
# 4 0.0000 0.0000 0.0000 48.1244 0.0000 0.0000
# 5 0.0000 0.0000 0.0000 0.0000 48.1244 0.0000
# 6 0.0000 0.0000 0.0000 0.0000 0.0000 21.2646
#
#
#
# Elastic Compliance Matrix: (Units=1/GPa)
#
#
# Indices 1 2 3 4 5 6 
#
# 1 0.016598 -0.006915 -0.003060 0.000000 0.000000 0.000000
# 2 -0.006915 0.016598 -0.003060 0.000000 0.000000 0.000000
# 3 -0.003060 -0.003060 0.013266 0.000000 0.000000 0.000000
# 4 0.000000 0.000000 0.000000 0.020779 0.000000 0.000000
# 5 0.000000 0.000000 0.000000 0.000000 0.020779 0.000000
# 6 0.000000 0.000000 0.000000 0.000000 0.000000 0.047027
#
#
# Mechanical properties :
#
#
# Convention : Reuss Voigt Hill
#
# Bulk Modulus (GPa) = 49.04272 49.06994 49.05633
# Shear Modulus (GPa) = 29.77694 33.95039 31.86367
#
# Velocity S-wave (km/s) = 4.10329 4.38141 4.24463
# Velocity P-wave (km/s) = 7.08377 7.30354 7.19449
#
# Compressibility (1/GPa) = 0.02039038
#
# Stress axis : x y z
#
# Youngs Moduli (GPa) = 60.24882 60.24882 75.38085
#
# Poissons Ratio (x) = 0.41665 0.23067
# Poissons Ratio (y) = 0.41665 0.23067
# Poissons Ratio (z) = 0.18437 0.18437
#
# Static dielectric constant tensor:
#      x y z
#    x 1.595620 0.000000 0.000000 
#    y 0.000000 1.595620 0.000000 
#    z 0.000000 0.000000 1.639130 
# 
# From -- ./inp_files/8765.got.cif
#   From: 2010.05.17/outbox.cif.g08.bks.cpg/sg191_5_cif.got.tgz:8765.got - 2010.05.20 12:20:32.
