data_PCOD9587190
_publ_section_title
;
Structure prediction by ZEFSAII (Michael W. Deem and Ramdas Pophale) SiO2 
 PCOD9587190
Probable space group: P 6/M M M
;
_chemical_formula_sum "Si O2"
_cell_formula_units_Z 180
_cell_length_a 26.672527
_cell_length_b 26.672527
_cell_length_c 19.688007
_cell_angle_alpha 90.000000
_cell_angle_beta 90.000000
_cell_angle_gamma 120.000000
_cell_volume 12129.997564
_symmetry_space_group_name_H-M "P 6/M M M"
_symmetry_group_IT_number 191
_symmetry_cell_setting 'hexagonal'
loop_
_space_group_symop_operation_xyz
x,y,z
x-y,x,z
-y,x-y,z
-x,-y,z
-x+y,-x,z
y,-x+y,z
x-y,-y,-z
-x,-x+y,-z
y,x,-z
-y,-x,-z
-x+y,y,-z
x,x-y,-z
-x,-y,-z
-x+y,-x,-z
y,-x+y,-z
x,y,-z
x-y,x,-z
-y,x-y,-z
-x+y,y,z
x,x-y,z
-y,-x,z
y,x,z
x-y,-y,z
-x,-x+y,z
loop_
_atom_site_type_symbol
_atom_site_label
_atom_site_fract_x
_atom_site_fract_y
_atom_site_fract_z
Si Si1 0.930757 0.615327 0.577649
Si Si2 0.214348 0.666086 0.235117
Si Si3 0.334526 0.778617 0.500000
Si Si4 0.574150 0.847082 0.822510
Si Si5 0.934272 0.754785 0.187343
Si Si6 0.625098 0.138112 0.628971
Si Si7 0.267408 0.334606 0.920319
Si Si8 0.663219 0.931505 0.286506
O O1 0.908608 0.610280 0.500000
O O2 0.907533 0.552839 0.612140
O O3 0.916454 0.650324 0.634109
O O4 0.000000 0.647793 0.573257
O O5 0.217040 0.608520 0.217256
O O6 0.278644 0.721357 0.244353
O O7 0.180518 0.685816 0.183432
O O8 0.177167 0.652183 0.304395
O O9 0.268239 0.731762 0.500000
O O10 0.374879 0.749757 0.500000
O O11 0.351731 0.818299 0.565768
O O12 0.585837 0.792919 0.820931
O O13 0.604353 0.886900 0.887790
O O14 0.607410 0.889224 0.758657
O O15 0.886723 0.773445 0.185210
O O16 0.926166 0.712794 0.123716
O O17 0.925537 0.714986 0.253306
O O18 0.000000 0.805753 0.186574
O O19 0.556053 0.112105 0.632715
O O20 0.317182 0.317182 0.910445
O O21 0.254740 0.331438 0.000000
O O22 0.683682 0.000000 0.277814
#
# Coordination Sequence:
#
# PCOD9587190 Si02
#       8
#    24  24  12  24  24  24  24  24
#     4  10  19  30  44  61  85 117 149 183 223 268
#     4  10  20  33  48  64  84 110 143 185 232 278
#     4  10  19  30  43  57  75 101 135 179 229 274
#     4  10  18  28  47  70  91 117 147 183 223 264
#     4   9  17  29  47  70  97 129 160 190 222 258
#     4  10  19  31  44  59  81 108 142 183 224 271
#     4   9  17  29  47  73 104 131 151 176 214 260
#     4   9  16  28  45  64  89 118 149 185 225 269
#
# _framework density 14.839244000000001
#
# number of rings (size 3 to 8) (size 9 to 14) (size 15 to 20)
#    0.000    2.400    2.000    3.400    0.000    1.333 
#    0.000    2.000    0.000    2.133    0.000    0.933 
#    0.000    1.067    0.000    3.333    0.000    0.000 
#
# Total GULP energy -1002011.688924 kJ/mol
# GULP energy per Si atom -5566.731605 kJ/mol
# Density = 1.480547 g / cm^3
# Si number density = 14.839244 Si / 1000 Ang^3
#
#
#
# Elastic Constant Matrix: (Units=GPa)
#
#
# Indices 1 2 3 4 5 6 
#
# 1 68.3514 33.0616 44.4873 0.0000 0.0000 0.0000
# 2 33.0616 68.3514 44.4873 0.0000 0.0000 0.0000
# 3 44.4873 44.4873 89.6494 0.0000 0.0000 0.0000
# 4 0.0000 0.0000 0.0000 6.2154 0.0000 0.0000
# 5 0.0000 0.0000 0.0000 0.0000 6.2154 0.0000
# 6 0.0000 0.0000 0.0000 0.0000 0.0000 17.6449
#
#
#
# Elastic Compliance Matrix: (Units=1/GPa)
#
#
# Indices 1 2 3 4 5 6 
#
# 1 0.022900 -0.005436 -0.008666 0.000000 0.000000 0.000000
# 2 -0.005436 0.022900 -0.008666 0.000000 0.000000 0.000000
# 3 -0.008666 -0.008666 0.019756 0.000000 0.000000 0.000000
# 4 0.000000 0.000000 0.000000 0.160892 0.000000 0.000000
# 5 0.000000 0.000000 0.000000 0.000000 0.160892 0.000000
# 6 0.000000 0.000000 0.000000 0.000000 0.000000 0.056673
#
#
# Mechanical properties :
#
#
# Convention : Reuss Voigt Hill
#
# Bulk Modulus (GPa) = 49.95373 52.26940 51.11156
# Shear Modulus (GPa) = 10.07610 12.96954 11.52282
#
# Velocity S-wave (km/s) = 2.60862 2.95956 2.78962
# Velocity P-wave (km/s) = 6.54290 6.85412 6.70032
#
# Compressibility (1/GPa) = 0.02001853
#
# Stress axis : x y z
#
# Youngs Moduli (GPa) = 43.66737 43.66737 50.61846
#
# Poissons Ratio (x) = 0.23739 0.43867
# Poissons Ratio (y) = 0.23739 0.43867
# Poissons Ratio (z) = 0.37843 0.37843
#
# Static dielectric constant tensor:
#      x y z
#    x 1.496310 0.000000 0.000000 
#    y 0.000000 1.496310 0.000000 
#    z 0.000000 0.000000 1.500680 
# 
# From -- ./inp_files/6847.got.cif
#   From: 2010.05.17/outbox.cif.g08.bks.cpg/sg191_4_cif.got.tgz:6847.got - 2010.05.20 12:20:32.
