data_PCOD9587970
_publ_section_title
;
Structure prediction by ZEFSAII (Michael W. Deem and Ramdas Pophale) SiO2 
 PCOD9587970
Probable space group: P 6/M M M
;
_chemical_formula_sum "Si O2"
_cell_formula_units_Z 120
_cell_length_a 17.815718
_cell_length_b 17.815718
_cell_length_c 24.516834
_cell_angle_alpha 90.000000
_cell_angle_beta 90.000000
_cell_angle_gamma 120.000000
_cell_volume 6739.096538
_symmetry_space_group_name_H-M "P 6/M M M"
_symmetry_group_IT_number 191
_symmetry_cell_setting 'hexagonal'
loop_
_space_group_symop_operation_xyz
x,y,z
x-y,x,z
-y,x-y,z
-x,-y,z
-x+y,-x,z
y,-x+y,z
x-y,-y,-z
-x,-x+y,-z
y,x,-z
-y,-x,-z
-x+y,y,-z
x,x-y,-z
-x,-y,-z
-x+y,-x,-z
y,-x+y,-z
x,y,-z
x-y,x,-z
-y,x-y,-z
-x+y,y,z
x,x-y,z
-y,-x,z
y,x,z
x-y,-y,z
-x,-x+y,z
loop_
_atom_site_type_symbol
_atom_site_label
_atom_site_fract_x
_atom_site_fract_y
_atom_site_fract_z
Si Si1 0.597864 0.798932 0.579006
Si Si2 0.896995 0.534801 0.784189
Si Si3 0.199279 0.099640 0.418975
Si Si4 0.099544 0.729477 0.105635
Si Si5 0.489270 0.332681 0.000000
Si Si6 0.358839 0.462323 0.500000
Si Si7 0.201681 0.798320 0.290686
Si Si8 0.899919 0.799837 0.286431
O O1 0.700335 0.850168 0.565155
O O2 0.556012 0.851603 0.551562
O O3 0.590714 0.795357 0.644135
O O4 0.869782 0.434891 0.790053
O O5 0.881625 0.572289 0.840093
O O6 0.848575 0.552269 0.735563
O O7 0.000000 0.588048 0.774101
O O8 0.149994 0.149994 0.436870
O O9 0.196833 0.098417 0.352641
O O10 0.169263 0.830738 0.102325
O O11 0.000000 0.704716 0.107344
O O12 0.114589 0.683775 0.053429
O O13 0.573144 0.426857 0.000000
O O14 0.515157 0.257579 0.000000
O O15 0.397371 0.397371 0.500000
O O16 0.440866 0.559135 0.500000
O O17 0.150937 0.849064 0.272898
O O18 0.848722 0.848722 0.267804
#
# Coordination Sequence:
#
# PCOD9587970 Si02
#       8
#    12  24  12  24  12  12  12  12
#     4  10  22  38  60  88 113 145 184 235 282 331
#     4  10  21  37  56  79 111 151 194 238 287 346
#     4   9  16  28  50  83 122 156 182 210 254 319
#     4  10  20  36  57  82 113 152 197 245 299 355
#     4  10  20  33  54  85 118 154 199 254 306 353
#     4  10  22  42  65  85 107 139 180 228 284 339
#     4  11  21  37  57  82 115 149 189 231 281 339
#     4   9  17  29  49  79 114 150 186 225 268 318
#
# _framework density 17.806540999999999
#
# number of rings (size 3 to 8) (size 9 to 14) (size 15 to 20)
#    0.000    2.100    1.000    2.400    0.000    5.600 
#    3.000    2.000    0.000    0.200    0.000    3.500 
#    0.000    2.400    0.000    0.000    0.000    0.000 
#
# Total GULP energy -670006.167146 kJ/mol
# GULP energy per Si atom -5583.384726 kJ/mol
# Density = 1.776601 g / cm^3
# Si number density = 17.806541 Si / 1000 Ang^3
#
#
#
# Elastic Constant Matrix: (Units=GPa)
#
#
# Indices 1 2 3 4 5 6 
#
# 1 123.0425 90.0791 45.2495 0.0000 0.0000 0.0000
# 2 90.0791 123.0425 45.2495 0.0000 0.0000 0.0000
# 3 45.2495 45.2495 110.1637 0.0000 0.0000 0.0000
# 4 0.0000 0.0000 0.0000 16.0999 0.0000 0.0000
# 5 0.0000 0.0000 0.0000 0.0000 16.0999 0.0000
# 6 0.0000 0.0000 0.0000 0.0000 0.0000 16.4817
#
#
#
# Elastic Compliance Matrix: (Units=1/GPa)
#
#
# Indices 1 2 3 4 5 6 
#
# 1 0.018010 -0.012327 -0.002334 0.000000 0.000000 0.000000
# 2 -0.012327 0.018010 -0.002334 0.000000 0.000000 0.000000
# 3 -0.002334 -0.002334 0.010995 0.000000 0.000000 0.000000
# 4 0.000000 0.000000 0.000000 0.062112 0.000000 0.000000
# 5 0.000000 0.000000 0.000000 0.000000 0.062112 0.000000
# 6 0.000000 0.000000 0.000000 0.000000 0.000000 0.060673
#
#
# Mechanical properties :
#
#
# Convention : Reuss Voigt Hill
#
# Bulk Modulus (GPa) = 76.78014 79.71164 78.24589
# Shear Modulus (GPa) = 18.50171 21.44769 19.97470
#
# Velocity S-wave (km/s) = 3.22691 3.47433 3.35291
# Velocity P-wave (km/s) = 7.55623 7.80751 7.68290
#
# Compressibility (1/GPa) = 0.01302420
#
# Stress axis : x y z
#
# Youngs Moduli (GPa) = 55.52458 55.52458 90.94916
#
# Poissons Ratio (x) = 0.68443 0.21232
# Poissons Ratio (y) = 0.68443 0.21232
# Poissons Ratio (z) = 0.12962 0.12962
#
# Static dielectric constant tensor:
#      x y z
#    x 1.589880 0.000000 0.000000 
#    y 0.000000 1.589880 0.000000 
#    z 0.000000 0.000000 1.606560 
# 
# From -- ./inp_files/8670.got.cif
#   From: 2010.05.17/outbox.cif.g08.bks.cpg/sg191_5_cif.got.tgz:8670.got - 2010.05.20 12:20:32.
