data_PCOD9587773
_publ_section_title
;
Structure prediction by ZEFSAII (Michael W. Deem and Ramdas Pophale) SiO2 
 PCOD9587773
Probable space group: P 6/M M M
;
_chemical_formula_sum "Si O2"
_cell_formula_units_Z 108
_cell_length_a 30.547427
_cell_length_b 30.547427
_cell_length_c 7.694690
_cell_angle_alpha 90.000000
_cell_angle_beta 90.000000
_cell_angle_gamma 120.000000
_cell_volume 6218.290839
_symmetry_space_group_name_H-M "P 6/M M M"
_symmetry_group_IT_number 191
_symmetry_cell_setting 'hexagonal'
loop_
_space_group_symop_operation_xyz
x,y,z
x-y,x,z
-y,x-y,z
-x,-y,z
-x+y,-x,z
y,-x+y,z
x-y,-y,-z
-x,-x+y,-z
y,x,-z
-y,-x,-z
-x+y,y,-z
x,x-y,-z
-x,-y,-z
-x+y,-x,-z
y,-x+y,-z
x,y,-z
x-y,x,-z
-y,x-y,-z
-x+y,y,z
x,x-y,z
-y,-x,z
y,x,z
x-y,-y,z
-x,-x+y,z
loop_
_atom_site_type_symbol
_atom_site_label
_atom_site_fract_x
_atom_site_fract_y
_atom_site_fract_z
Si Si1 0.311702 0.155851 0.206379
Si Si2 0.404922 0.056735 0.794730
Si Si3 0.335189 0.565705 0.500000
Si Si4 0.943586 0.248592 0.294198
Si Si5 0.787537 0.575074 0.791272
Si Si6 0.507729 0.838287 0.788946
O O1 0.288924 0.097778 0.256080
O O2 0.368674 0.184337 0.282551
O O3 0.314545 0.157273 0.000000
O O4 0.360407 0.070710 0.775956
O O5 0.458303 0.102873 0.734066
O O6 0.382302 0.000000 0.720085
O O7 0.411515 0.053546 0.000000
O O8 0.375146 0.624855 0.500000
O O9 0.278092 0.556184 0.500000
O O10 0.345322 0.540466 0.669662
O O11 0.945968 0.254911 0.500000
O O12 0.000000 0.266719 0.227793
O O13 0.728868 0.543841 0.748358
O O14 0.789895 0.579790 0.000000
O O15 0.498554 0.834829 0.000000
#
# Coordination Sequence:
#
# PCOD9587773 Si02
#       6
#    12  24  12  24  12  24
#     4  11  19  29  47  69  99 137 174 218 260 300
#     4   9  17  30  50  78 112 145 174 208 248 293
#     4  12  27  44  63  85 107 133 167 214 274 332
#     4  10  20  30  41  65 102 140 177 216 259 308
#     4   9  16  28  48  78 105 131 171 213 248 291
#     4  10  20  37  59  83 111 140 175 216 258 310
#
# _framework density 17.368116000000001
#
# number of rings (size 3 to 8) (size 9 to 14) (size 15 to 20)
#    0.000    2.000    3.333    1.111    1.556    1.778 
#    2.000    0.000    0.000    2.667    0.000    3.111 
#    0.000    0.000    0.000    0.333    0.000    6.444 
#
# Total GULP energy -601842.511526 kJ/mol
# GULP energy per Si atom -5572.615847 kJ/mol
# Density = 1.732859 g / cm^3
# Si number density = 17.368116 Si / 1000 Ang^3
#
#
#
# Elastic Constant Matrix: (Units=GPa)
#
#
# Indices 1 2 3 4 5 6 
#
# 1 44.0147 60.4324 19.6780 0.0000 0.0000 0.0000
# 2 60.4324 44.0147 19.6780 0.0000 0.0000 0.0000
# 3 19.6780 19.6780 53.3822 0.0000 0.0000 0.0000
# 4 0.0000 0.0000 0.0000 17.2674 0.0000 0.0000
# 5 0.0000 0.0000 0.0000 0.0000 17.2674 0.0000
# 6 0.0000 0.0000 0.0000 0.0000 0.0000 -8.2088
#
#
#
# Elastic Compliance Matrix: (Units=1/GPa)
#
#
# Indices 1 2 3 4 5 6 
#
# 1 -0.024896 0.036014 -0.004099 0.000000 0.000000 0.000000
# 2 0.036014 -0.024896 -0.004099 0.000000 0.000000 0.000000
# 3 -0.004099 -0.004099 0.021755 0.000000 0.000000 0.000000
# 4 0.000000 0.000000 0.000000 0.057913 0.000000 0.000000
# 5 0.000000 0.000000 0.000000 0.000000 0.057913 0.000000
# 6 0.000000 0.000000 0.000000 0.000000 0.000000 -0.121820
#
#
# Mechanical properties :
#
#
# Convention : Reuss Voigt Hill
#
# Bulk Modulus (GPa) = 36.23534 37.88756 37.06145
# Shear Modulus (GPa) = -62.13789 8.04006 -27.04891
#
# Velocity S-wave (km/s) = -5.98788 2.15389 -3.95066
# Velocity P-wave (km/s) = 5.18631 5.29599 0.75818
#
# Compressibility (1/GPa) = 0.02759737
#
# Stress axis : x y z
#
# Youngs Moduli (GPa) = -40.16766 -40.16766 45.96749
#
# Poissons Ratio (x) = 1.44661 0.18840
# Poissons Ratio (y) = 1.44661 0.18840
# Poissons Ratio (z) = -0.16463 -0.16463
#
# Static dielectric constant tensor:
#      x y z
#    x 1.597880 0.000000 0.000000 
#    y 0.000000 1.597880 0.000000 
#    z 0.000000 0.000000 1.631910 
# 
# From -- ./inp_files/1777.got.cif
#   From: 2010.05.17/outbox.cif.g08.bks.cpg/sg191_1_cif.got.tgz:1777.got - 2010.05.20 12:20:32.
