data_PCOD9587452
_publ_section_title
;
Structure prediction by ZEFSAII (Michael W. Deem and Ramdas Pophale) SiO2 
 PCOD9587452
Probable space group: P 6/M M M
;
_chemical_formula_sum "Si O2"
_cell_formula_units_Z 132
_cell_length_a 27.927104
_cell_length_b 27.927104
_cell_length_c 12.707190
_cell_angle_alpha 90.000000
_cell_angle_beta 90.000000
_cell_angle_gamma 120.000000
_cell_volume 8582.858645
_symmetry_space_group_name_H-M "P 6/M M M"
_symmetry_group_IT_number 191
_symmetry_cell_setting 'hexagonal'
loop_
_space_group_symop_operation_xyz
x,y,z
x-y,x,z
-y,x-y,z
-x,-y,z
-x+y,-x,z
y,-x+y,z
x-y,-y,-z
-x,-x+y,-z
y,x,-z
-y,-x,-z
-x+y,y,-z
x,x-y,-z
-x,-y,-z
-x+y,-x,-z
y,-x+y,-z
x,y,-z
x-y,x,-z
-y,x-y,-z
-x+y,y,z
x,x-y,z
-y,-x,z
y,x,z
x-y,-y,z
-x,-x+y,z
loop_
_atom_site_type_symbol
_atom_site_label
_atom_site_fract_x
_atom_site_fract_y
_atom_site_fract_z
Si Si1 0.173261 0.237088 0.874273
Si Si2 0.834770 0.278935 0.380913
Si Si3 0.360166 0.124479 0.798620
Si Si4 0.520277 0.368241 0.784130
Si Si5 0.356791 0.937609 0.879248
Si Si6 0.552686 0.219346 0.000000
O O1 0.108959 0.217917 0.854395
O O2 0.193765 0.193765 0.849951
O O3 0.209473 0.294681 0.812702
O O4 0.182623 0.249489 0.000000
O O5 0.854419 0.296851 0.500000
O O6 0.773787 0.226214 0.385329
O O7 0.870608 0.257523 0.316463
O O8 0.831773 0.325125 0.310541
O O9 0.372230 0.186115 0.827744
O O10 0.391202 0.100460 0.867981
O O11 0.579560 0.420441 0.760410
O O12 0.474398 0.385167 0.810925
O O13 0.525807 0.340495 0.892614
O O14 0.375869 0.000000 0.847189
O O15 0.372302 0.938042 0.000000
O O16 0.615651 0.231302 0.000000
O O17 0.550311 0.275156 0.000000
#
# Coordination Sequence:
#
# PCOD9587452 Si02
#       6
#    24  24  24  24  24  12
#     4   9  16  26  42  66  97 130 162 197 237 281
#     4   9  18  33  51  70  92 119 152 191 237 287
#     4   9  17  28  44  68  92 117 150 191 237 284
#     4  10  20  33  48  69  93 120 156 195 231 277
#     4  10  19  30  44  65  93 124 153 185 228 275
#     4  10  19  32  49  71  97 121 146 183 238 296
#
# _framework density 15.379490000000001
#
# number of rings (size 3 to 8) (size 9 to 14) (size 15 to 20)
#    0.000    2.545    0.909    1.727    0.000    4.000 
#    0.000    0.909    0.000   14.182    0.000    6.364 
#    0.000    0.000    0.000    0.000    0.000    0.000 
#
# Total GULP energy -734838.058598 kJ/mol
# GULP energy per Si atom -5566.954989 kJ/mol
# Density = 1.534449 g / cm^3
# Si number density = 15.379490 Si / 1000 Ang^3
#
#
#
# Elastic Constant Matrix: (Units=GPa)
#
#
# Indices 1 2 3 4 5 6 
#
# 1 78.7069 45.3689 38.1890 0.0000 0.0000 0.0000
# 2 45.3689 78.7069 38.1890 0.0000 0.0000 0.0000
# 3 38.1890 38.1890 85.9998 0.0000 0.0000 0.0000
# 4 0.0000 0.0000 0.0000 14.4359 0.0000 0.0000
# 5 0.0000 0.0000 0.0000 0.0000 14.4359 0.0000
# 6 0.0000 0.0000 0.0000 0.0000 0.0000 16.6690
#
#
#
# Elastic Compliance Matrix: (Units=1/GPa)
#
#
# Indices 1 2 3 4 5 6 
#
# 1 0.020544 -0.009452 -0.004925 0.000000 0.000000 0.000000
# 2 -0.009452 0.020544 -0.004925 0.000000 0.000000 0.000000
# 3 -0.004925 -0.004925 0.016002 0.000000 0.000000 0.000000
# 4 0.000000 0.000000 0.000000 0.069272 0.000000 0.000000
# 5 0.000000 0.000000 0.000000 0.000000 0.069272 0.000000
# 6 0.000000 0.000000 0.000000 0.000000 0.000000 0.059992
#
#
# Mechanical properties :
#
#
# Convention : Reuss Voigt Hill
#
# Bulk Modulus (GPa) = 54.10079 54.10081 54.10080
# Shear Modulus (GPa) = 16.64495 17.21926 16.93211
#
# Velocity S-wave (km/s) = 3.29337 3.34971 3.32166
# Velocity P-wave (km/s) = 7.05091 7.08621 7.06858
#
# Compressibility (1/GPa) = 0.01848402
#
# Stress axis : x y z
#
# Youngs Moduli (GPa) = 48.67688 48.67688 62.49158
#
# Poissons Ratio (x) = 0.46010 0.30779
# Poissons Ratio (y) = 0.46010 0.30779
# Poissons Ratio (z) = 0.23975 0.23975
#
# Static dielectric constant tensor:
#      x y z
#    x 1.518370 0.000000 0.000000 
#    y 0.000000 1.518370 0.000000 
#    z 0.000000 0.000000 1.511910 
# 
# From -- ./inp_files/3356.got.cif
#   From: 2010.05.17/outbox.cif.g08.bks.cpg/sg191_2_cif.got.tgz:3356.got - 2010.05.20 12:20:32.
