data_PCOD9587946
_publ_section_title
;
Structure prediction by ZEFSAII (Michael W. Deem and Ramdas Pophale) SiO2 
 PCOD9587946
Probable space group: P 6/M M M
;
_chemical_formula_sum "Si O2"
_cell_formula_units_Z 132
_cell_length_a 24.034495
_cell_length_b 24.034495
_cell_length_c 14.045755
_cell_angle_alpha 90.000000
_cell_angle_beta 90.000000
_cell_angle_gamma 120.000000
_cell_volume 7026.607958
_symmetry_space_group_name_H-M "P 6/M M M"
_symmetry_group_IT_number 191
_symmetry_cell_setting 'hexagonal'
loop_
_space_group_symop_operation_xyz
x,y,z
x-y,x,z
-y,x-y,z
-x,-y,z
-x+y,-x,z
y,-x+y,z
x-y,-y,-z
-x,-x+y,-z
y,x,-z
-y,-x,-z
-x+y,y,-z
x,x-y,-z
-x,-y,-z
-x+y,-x,-z
y,-x+y,-z
x,y,-z
x-y,x,-z
-y,x-y,-z
-x+y,y,z
x,x-y,z
-y,-x,z
y,x,z
x-y,-y,z
-x,-x+y,z
loop_
_atom_site_type_symbol
_atom_site_label
_atom_site_fract_x
_atom_site_fract_y
_atom_site_fract_z
Si Si1 0.801762 0.073598 0.612806
Si Si2 0.665875 0.454009 0.112898
Si Si3 0.000000 0.435070 0.385601
Si Si4 0.869112 0.604703 0.893340
Si Si5 0.461160 0.667879 0.389091
Si Si6 0.892988 0.299793 0.689120
O O1 0.810148 0.069792 0.500000
O O2 0.870819 0.129182 0.652395
O O3 0.751075 0.098672 0.625890
O O4 0.770072 0.000000 0.650346
O O5 0.721170 0.442339 0.155214
O O6 0.596268 0.403733 0.151069
O O7 0.688214 0.528173 0.115213
O O8 0.665368 0.442486 0.000000
O O9 0.941008 0.371804 0.342909
O O10 0.000000 0.500000 0.360203
O O11 0.000000 0.431071 0.500000
O O12 0.807865 0.615729 0.887839
O O13 0.906893 0.624950 0.794696
O O14 0.897585 0.625408 0.000000
O O15 0.480261 0.666535 0.500000
O O16 0.434585 0.717293 0.385535
O O17 0.404222 0.595779 0.366374
O O18 0.526167 0.699497 0.326217
#
# Coordination Sequence:
#
# PCOD9587946 Si02
#       6
#    24  24  12  24  24  24
#     4  10  20  35  58  89 121 148 179 224 275 329
#     4   8  13  22  37  57  82 115 159 213 271 327
#     4  11  24  40  57  79 111 147 187 245 310 365
#     4   9  19  34  50  71 100 135 178 228 281 334
#     4  10  20  33  50  74 105 140 180 230 289 350
#     4  12  21  35  57  80 105 144 191 237 283 342
#
# _framework density 18.785736
#
# number of rings (size 3 to 8) (size 9 to 14) (size 15 to 20)
#    0.000    2.091    0.909    5.273    0.000    5.818 
#    0.000    0.455    0.000    2.909    0.000    1.273 
#    0.000    0.000    0.000    0.000    0.000    0.000 
#
# Total GULP energy -735017.430197 kJ/mol
# GULP energy per Si atom -5568.313865 kJ/mol
# Density = 1.874298 g / cm^3
# Si number density = 18.785736 Si / 1000 Ang^3
#
#
#
# Elastic Constant Matrix: (Units=GPa)
#
#
# Indices 1 2 3 4 5 6 
#
# 1 78.9899 36.5723 6.1483 0.0000 0.0000 0.0000
# 2 36.5723 78.9899 6.1483 0.0000 0.0000 0.0000
# 3 6.1483 6.1483 100.5497 0.0000 0.0000 0.0000
# 4 0.0000 0.0000 0.0000 8.9192 0.0000 0.0000
# 5 0.0000 0.0000 0.0000 0.0000 8.9192 0.0000
# 6 0.0000 0.0000 0.0000 0.0000 0.0000 21.2088
#
#
#
# Elastic Compliance Matrix: (Units=1/GPa)
#
#
# Indices 1 2 3 4 5 6 
#
# 1 0.016143 -0.007433 -0.000533 0.000000 0.000000 0.000000
# 2 -0.007433 0.016143 -0.000533 0.000000 0.000000 0.000000
# 3 -0.000533 -0.000533 0.010010 0.000000 0.000000 0.000000
# 4 0.000000 0.000000 0.000000 0.112117 0.000000 0.000000
# 5 0.000000 0.000000 0.000000 0.000000 0.112117 0.000000
# 6 0.000000 0.000000 0.000000 0.000000 0.000000 0.047150
#
#
# Mechanical properties :
#
#
# Convention : Reuss Voigt Hill
#
# Bulk Modulus (GPa) = 39.52545 39.58523 39.55534
# Shear Modulus (GPa) = 14.74452 21.78683 18.26568
#
# Velocity S-wave (km/s) = 2.80461 3.40921 3.12158
# Velocity P-wave (km/s) = 5.61904 6.05101 5.83902
#
# Compressibility (1/GPa) = 0.02530016
#
# Stress axis : x y z
#
# Youngs Moduli (GPa) = 61.94801 61.94801 99.89547
#
# Poissons Ratio (x) = 0.46043 0.05320
# Poissons Ratio (y) = 0.46043 0.05320
# Poissons Ratio (z) = 0.03299 0.03299
#
# Static dielectric constant tensor:
#      x y z
#    x 1.624640 0.000000 0.000000 
#    y 0.000000 1.624640 0.000000 
#    z 0.000000 0.000000 1.637070 
# 
# From -- ./inp_files/4928.got.cif
#   From: 2010.05.17/outbox.cif.g08.bks.cpg/sg191_3_cif.got.tgz:4928.got - 2010.05.20 12:20:32.
