data_PCOD9587939
_publ_section_title
;
Structure prediction by ZEFSAII (Michael W. Deem and Ramdas Pophale) SiO2 
 PCOD9587939
Probable space group: P 6/M M M
;
_chemical_formula_sum "Si O2"
_cell_formula_units_Z 108
_cell_length_a 17.819081
_cell_length_b 17.819081
_cell_length_c 24.200692
_cell_angle_alpha 90.000000
_cell_angle_beta 90.000000
_cell_angle_gamma 120.000000
_cell_volume 6654.708249
_symmetry_space_group_name_H-M "P 6/M M M"
_symmetry_group_IT_number 191
_symmetry_cell_setting 'hexagonal'
loop_
_space_group_symop_operation_xyz
x,y,z
x-y,x,z
-y,x-y,z
-x,-y,z
-x+y,-x,z
y,-x+y,z
x-y,-y,-z
-x,-x+y,-z
y,x,-z
-y,-x,-z
-x+y,y,-z
x,x-y,-z
-x,-y,-z
-x+y,-x,-z
y,-x+y,-z
x,y,-z
x-y,x,-z
-y,x-y,-z
-x+y,y,z
x,x-y,z
-y,-x,z
y,x,z
x-y,-y,z
-x,-x+y,z
loop_
_atom_site_type_symbol
_atom_site_label
_atom_site_fract_x
_atom_site_fract_y
_atom_site_fract_z
Si Si1 0.368629 0.096993 0.286369
Si Si2 0.489644 0.157012 0.607346
Si Si3 0.487100 0.153613 0.940668
Si Si4 0.272149 0.901893 0.500000
Si Si5 0.333338 0.487590 0.819554
O O1 0.343090 0.171545 0.287333
O O2 0.433353 0.116148 0.337698
O O3 0.421608 0.108370 0.230124
O O4 0.290292 0.000000 0.290562
O O5 0.573252 0.146503 0.606034
O O6 0.516578 0.258289 0.607168
O O7 0.429590 0.114995 0.553930
O O8 0.583005 0.166010 0.939765
O O9 0.493230 0.246615 0.941767
O O10 0.449644 0.115508 0.880402
O O11 0.447135 0.110159 0.000000
O O12 0.171267 0.828734 0.500000
O O13 0.293206 0.000000 0.500000
O O14 0.254150 0.508299 0.819414
O O15 0.424372 0.575629 0.811478
#
# Coordination Sequence:
#
# PCOD9587939 Si02
#       5
#    24  24  24  12  24
#     4  10  21  35  50  68  89 115 147 185 230 275
#     4  10  20  33  50  73 102 134 164 191 219 255
#     4   8  12  18  30  50  78 113 152 189 219 246
#     4  10  21  35  51  72  97 127 162 202 247 287
#     4   9  16  25  39  61  90 123 156 187 217 251
#
# _framework density 16.229109999999999
#
# number of rings (size 3 to 8) (size 9 to 14) (size 15 to 20)
#    0.000    2.667    0.000    2.333    0.000    6.222 
#    0.000    3.333    0.000    1.000    0.000    3.111 
#    0.000    5.333    0.000    0.000    0.000    0.444 
#
# Total GULP energy -601730.011172 kJ/mol
# GULP energy per Si atom -5571.574178 kJ/mol
# Density = 1.619217 g / cm^3
# Si number density = 16.229110 Si / 1000 Ang^3
#
#
#
# Elastic Constant Matrix: (Units=GPa)
#
#
# Indices 1 2 3 4 5 6 
#
# 1 66.4566 67.0571 42.0482 0.0000 0.0000 0.0000
# 2 67.0571 66.4566 42.0482 0.0000 0.0000 0.0000
# 3 42.0482 42.0482 152.0287 0.0000 0.0000 0.0000
# 4 0.0000 0.0000 0.0000 -7.7208 0.0000 0.0000
# 5 0.0000 0.0000 0.0000 0.0000 -7.7208 0.0000
# 6 0.0000 0.0000 0.0000 0.0000 0.0000 -0.3003
#
#
#
# Elastic Compliance Matrix: (Units=1/GPa)
#
#
# Indices 1 2 3 4 5 6 
#
# 1 -0.828104 0.837174 -0.002509 0.000000 0.000000 0.000000
# 2 0.837174 -0.828104 -0.002509 0.000000 0.000000 0.000000
# 3 -0.002509 -0.002509 0.007965 0.000000 0.000000 0.000000
# 4 0.000000 0.000000 0.000000 -0.129520 0.000000 0.000000
# 5 0.000000 0.000000 0.000000 0.000000 -0.129520 0.000000
# 6 0.000000 0.000000 0.000000 0.000000 0.000000 -3.330555
#
#
# Mechanical properties :
#
#
# Convention : Reuss Voigt Hill
#
# Bulk Modulus (GPa) = 62.22405 65.24988 63.73696
# Shear Modulus (GPa) = -0.72497 5.77084 2.52293
#
# Velocity S-wave (km/s) = -0.66909 1.88774 1.24818
# Velocity P-wave (km/s) = 6.15039 6.71150 6.43706
#
# Compressibility (1/GPa) = 0.01607096
#
# Stress axis : x y z
#
# Youngs Moduli (GPa) = -1.20758 -1.20758 125.54364
#
# Poissons Ratio (x) = 1.01095 0.31494
# Poissons Ratio (y) = 1.01095 0.31494
# Poissons Ratio (z) = -0.00303 -0.00303
#
# Static dielectric constant tensor:
#      x y z
#    x 1.516820 0.000000 0.000000 
#    y 0.000000 1.516820 0.000000 
#    z 0.000000 0.000000 1.598210 
# 
# From -- ./inp_files/7311.got.cif
#   From: 2010.05.17/outbox.cif.g08.bks.cpg/sg191_4_cif.got.tgz:7311.got - 2010.05.20 12:20:32.
