data_PCOD9587135
_publ_section_title
;
Structure prediction by ZEFSAII (Michael W. Deem and Ramdas Pophale) SiO2 
 PCOD9587135
Probable space group: P 6/M M M
;
_chemical_formula_sum "Si O2"
_cell_formula_units_Z 52
_cell_length_a 27.836128
_cell_length_b 27.836128
_cell_length_c 7.503611
_cell_angle_alpha 90.000000
_cell_angle_beta 90.000000
_cell_angle_gamma 120.000000
_cell_volume 5035.221649
_symmetry_space_group_name_H-M "P 6/M M M"
_symmetry_group_IT_number 191
_symmetry_cell_setting 'hexagonal'
loop_
_space_group_symop_operation_xyz
x,y,z
x-y,x,z
-y,x-y,z
-x,-y,z
-x+y,-x,z
y,-x+y,z
x-y,-y,-z
-x,-x+y,-z
y,x,-z
-y,-x,-z
-x+y,y,-z
x,x-y,-z
-x,-y,-z
-x+y,-x,-z
y,-x+y,-z
x,y,-z
x-y,x,-z
-y,x-y,-z
-x+y,y,z
x,x-y,z
-y,-x,z
y,x,z
x-y,-y,z
-x,-x+y,z
loop_
_atom_site_type_symbol
_atom_site_label
_atom_site_fract_x
_atom_site_fract_y
_atom_site_fract_z
Si Si1 0.062879 0.473291 0.000000
Si Si2 0.480725 0.633766 0.713007
Si Si3 0.333334 0.666668 0.212751
Si Si4 0.268586 0.731415 0.708142
O O1 0.099162 0.478615 0.173508
O O2 0.059634 0.529817 0.000000
O O3 0.000000 0.423337 0.000000
O O4 0.490629 0.636335 0.500000
O O5 0.418106 0.581895 0.741890
O O6 0.483012 0.690058 0.777809
O O7 0.301836 0.698165 0.277154
O O8 0.333334 0.666667 0.000000
O O9 0.261301 0.738700 0.500000
#
# Coordination Sequence:
#
# PCOD9587135 Si02
#       4
#    12  24   4  12
#     4   9  18  29  38  46  60  77 101 133 150 164
#     4   9  17  26  38  51  64  82 100 118 146 179
#     4  12  22  20  34  54  64  89 103 114 139 182
#     4  10  18  28  36  48  70  86  97 118 145 184
#
# _framework density 10.327251
#
# number of rings (size 3 to 8) (size 9 to 14) (size 15 to 20)
#    0.000    2.538    2.308    0.692    3.231    0.923 
#    0.000    4.615    0.000    0.000    0.000    0.000 
#    0.000    0.000    0.000    0.000    0.000    0.000 
#
# Total GULP energy -289532.496154 kJ/mol
# GULP energy per Si atom -5567.932618 kJ/mol
# Density = 1.030375 g / cm^3
# Si number density = 10.327251 Si / 1000 Ang^3
#
#
#
# Elastic Constant Matrix: (Units=GPa)
#
#
# Indices 1 2 3 4 5 6 
#
# 1 57.5300 35.8338 24.8336 -0.0002 0.0000 0.0000
# 2 35.8338 57.5295 24.8338 0.0001 0.0000 0.0000
# 3 24.8336 24.8338 46.9419 0.0003 0.0001 0.0000
# 4 -0.0002 0.0001 0.0003 7.5176 -0.0002 0.0000
# 5 0.0000 0.0000 0.0001 -0.0002 7.5163 0.0002
# 6 0.0000 0.0000 0.0000 0.0000 0.0002 10.8478
#
#
#
# Elastic Compliance Matrix: (Units=1/GPa)
#
#
# Indices 1 2 3 4 5 6 
#
# 1 0.030498 -0.015593 -0.007885 0.000001 0.000000 0.000000
# 2 -0.015593 0.030499 -0.007886 -0.000001 0.000000 0.000000
# 3 -0.007885 -0.007886 0.029646 -0.000001 0.000000 0.000000
# 4 0.000001 -0.000001 -0.000001 0.133021 0.000003 0.000000
# 5 0.000000 0.000000 0.000000 0.000003 0.133044 -0.000002
# 6 0.000000 0.000000 0.000000 0.000000 -0.000002 0.092184
#
#
# Mechanical properties :
#
#
# Convention : Reuss Voigt Hill
#
# Bulk Modulus (GPa) = 35.82236 37.00041 36.41139
# Shear Modulus (GPa) = 9.59828 10.27637 9.93732
#
# Velocity S-wave (km/s) = 3.05194 3.15790 3.10537
# Velocity P-wave (km/s) = 6.86889 7.01442 6.94204
#
# Compressibility (1/GPa) = 0.02791552
#
# Stress axis : x y z
#
# Youngs Moduli (GPa) = 32.78856 32.78808 33.73091
#
# Poissons Ratio (x) = 0.51126 0.26598
# Poissons Ratio (y) = 0.51127 0.26600
# Poissons Ratio (z) = 0.25855 0.25856
#
# Static dielectric constant tensor:
#      x y z
#    x 1.321320 0.000000 0.000000 
#    y 0.000000 1.321320 0.000000 
#    z 0.000000 0.000000 1.365020 
# 
# From -- ./inp_files/752.got.cif
#   From: 2010.05.17/outbox.cif.g08.bks.cpg/sg191_1_cif.got.tgz:752.got - 2010.05.20 12:20:32.
