data_PCOD9587448
_publ_section_title
;
Structure prediction by ZEFSAII (Michael W. Deem and Ramdas Pophale) SiO2 
 PCOD9587448
Probable space group: P 6/M M M
;
_chemical_formula_sum "Si O2"
_cell_formula_units_Z 168
_cell_length_a 18.207999
_cell_length_b 18.207999
_cell_length_c 36.278763
_cell_angle_alpha 90.000000
_cell_angle_beta 90.000000
_cell_angle_gamma 120.000000
_cell_volume 10416.157638
_symmetry_space_group_name_H-M "P 6/M M M"
_symmetry_group_IT_number 191
_symmetry_cell_setting 'hexagonal'
loop_
_space_group_symop_operation_xyz
x,y,z
x-y,x,z
-y,x-y,z
-x,-y,z
-x+y,-x,z
y,-x+y,z
x-y,-y,-z
-x,-x+y,-z
y,x,-z
-y,-x,-z
-x+y,y,-z
x,x-y,-z
-x,-y,-z
-x+y,-x,-z
y,-x+y,-z
x,y,-z
x-y,x,-z
-y,x-y,-z
-x+y,y,z
x,x-y,z
-y,-x,z
y,x,z
x-y,-y,z
-x,-x+y,z
loop_
_atom_site_type_symbol
_atom_site_label
_atom_site_fract_x
_atom_site_fract_y
_atom_site_fract_z
Si Si1 0.668003 0.504154 0.603535
Si Si2 0.333812 0.838267 0.043126
Si Si3 0.365208 0.898402 0.315536
Si Si4 0.632682 0.732329 0.244464
Si Si5 0.905403 0.642502 0.541814
Si Si6 0.268180 0.364915 0.892439
Si Si7 0.667495 0.160012 0.175726
O O1 0.738438 0.476876 0.597770
O O2 0.574600 0.425400 0.600119
O O3 0.676844 0.538110 0.645160
O O4 0.685211 0.573666 0.572809
O O5 0.424462 0.848924 0.053187
O O6 0.260184 0.739817 0.047214
O O7 0.306203 0.890192 0.069561
O O8 0.336255 0.860402 0.000000
O O9 0.434646 0.869291 0.307626
O O10 0.301479 0.880063 0.282104
O O11 0.418288 0.000000 0.319339
O O12 0.664295 0.832148 0.240450
O O13 0.703414 0.703414 0.244467
O O14 0.567141 0.684449 0.211152
O O15 0.895790 0.607626 0.500000
O O16 0.834254 0.668507 0.546522
O O17 0.000000 0.719001 0.545304
O O18 0.169139 0.338278 0.890642
O O19 0.290886 0.290886 0.888809
O O20 0.314819 0.433638 0.860007
O O21 0.575089 0.150178 0.175719
O O22 0.740975 0.259026 0.175962
#
# Coordination Sequence:
#
# PCOD9587448 Si02
#       7
#    24  24  24  24  24  24  24
#     4  10  19  30  44  64  92 125 159 192 224 258
#     4   9  17  29  46  69  98 131 163 192 223 264
#     4   9  17  29  46  68  92 118 150 188 228 271
#     4  10  20  33  49  69  93 122 156 194 235 276
#     4   9  18  32  49  68  89 114 145 182 225 272
#     4  10  21  35  50  69  93 122 156 195 239 282
#     4  10  20  33  50  73 101 131 159 186 218 261
#
# _framework density 16.128786999999999
#
# number of rings (size 3 to 8) (size 9 to 14) (size 15 to 20)
#    0.000    2.429    0.000    2.571    0.000    4.571 
#    0.000    2.857    0.000    5.857    0.000    1.000 
#    0.000    3.429    0.000    8.143    0.000    3.143 
#
# Total GULP energy -936645.127315 kJ/mol
# GULP energy per Si atom -5575.268615 kJ/mol
# Density = 1.609208 g / cm^3
# Si number density = 16.128787 Si / 1000 Ang^3
#
#
#
# Elastic Constant Matrix: (Units=GPa)
#
#
# Indices 1 2 3 4 5 6 
#
# 1 82.5025 64.9215 45.1788 0.0000 0.0000 0.0000
# 2 64.9215 82.5025 45.1788 0.0000 0.0000 0.0000
# 3 45.1788 45.1788 80.9601 0.0000 0.0000 0.0000
# 4 0.0000 0.0000 0.0000 19.4890 0.0000 0.0000
# 5 0.0000 0.0000 0.0000 0.0000 19.4890 0.0000
# 6 0.0000 0.0000 0.0000 0.0000 0.0000 8.7905
#
#
#
# Elastic Compliance Matrix: (Units=1/GPa)
#
#
# Indices 1 2 3 4 5 6 
#
# 1 0.033594 -0.023285 -0.005753 0.000000 0.000000 0.000000
# 2 -0.023285 0.033594 -0.005753 0.000000 0.000000 0.000000
# 3 -0.005753 -0.005753 0.018772 0.000000 0.000000 0.000000
# 4 0.000000 0.000000 0.000000 0.051311 0.000000 0.000000
# 5 0.000000 0.000000 0.000000 0.000000 0.051311 0.000000
# 6 0.000000 0.000000 0.000000 0.000000 0.000000 0.113759
#
#
# Mechanical properties :
#
#
# Convention : Reuss Voigt Hill
#
# Bulk Modulus (GPa) = 61.05322 61.83593 61.44458
# Shear Modulus (GPa) = 13.24909 15.59942 14.42426
#
# Velocity S-wave (km/s) = 2.86922 3.11332 2.99376
# Velocity P-wave (km/s) = 6.99373 7.16560 7.08019
#
# Compressibility (1/GPa) = 0.01637915
#
# Stress axis : x y z
#
# Youngs Moduli (GPa) = 29.76689 29.76689 53.26961
#
# Poissons Ratio (x) = 0.69313 0.30645
# Poissons Ratio (y) = 0.69313 0.30645
# Poissons Ratio (z) = 0.17125 0.17125
#
# Static dielectric constant tensor:
#      x y z
#    x 1.526950 0.000000 0.000000 
#    y 0.000000 1.526950 0.000000 
#    z 0.000000 0.000000 1.555230 
# 
# From -- ./inp_files/10734.got.cif
#   From: 2010.05.17/outbox.cif.g08.bks.cpg/sg191_6_cif.got.tgz:10734.got - 2010.05.20 12:20:32.
