data_PCOD9587086
_publ_section_title
;
Structure prediction by ZEFSAII (Michael W. Deem and Ramdas Pophale) SiO2 
 PCOD9587086
Probable space group: P 6/M M M
;
_chemical_formula_sum "Si O2"
_cell_formula_units_Z 132
_cell_length_a 18.337203
_cell_length_b 18.337203
_cell_length_c 28.382637
_cell_angle_alpha 90.000000
_cell_angle_beta 90.000000
_cell_angle_gamma 120.000000
_cell_volume 8265.127551
_symmetry_space_group_name_H-M "P 6/M M M"
_symmetry_group_IT_number 191
_symmetry_cell_setting 'hexagonal'
loop_
_space_group_symop_operation_xyz
x,y,z
x-y,x,z
-y,x-y,z
-x,-y,z
-x+y,-x,z
y,-x+y,z
x-y,-y,-z
-x,-x+y,-z
y,x,-z
-y,-x,-z
-x+y,y,-z
x,x-y,-z
-x,-y,-z
-x+y,-x,-z
y,-x+y,-z
x,y,-z
x-y,x,-z
-y,x-y,-z
-x+y,y,z
x,x-y,z
-y,-x,z
y,x,z
x-y,-y,z
-x,-x+y,z
loop_
_atom_site_type_symbol
_atom_site_label
_atom_site_fract_x
_atom_site_fract_y
_atom_site_fract_z
Si Si1 0.636702 0.733138 0.781340
Si Si2 0.358546 0.262530 0.056107
Si Si3 0.505199 0.838031 0.866583
Si Si4 0.502485 0.668940 0.700370
Si Si5 0.502776 0.669462 0.500000
Si Si6 0.904173 0.540529 0.400735
O O1 0.663236 0.831618 0.782111
O O2 0.710101 0.710101 0.783725
O O3 0.572432 0.689377 0.824802
O O4 0.580170 0.692202 0.734737
O O5 0.332479 0.166240 0.067931
O O6 0.290076 0.290076 0.067991
O O7 0.443192 0.320130 0.085310
O O8 0.373413 0.273173 0.000000
O O9 0.424156 0.848311 0.861878
O O10 0.479788 0.739894 0.865181
O O11 0.472794 0.736397 0.710881
O O12 0.425529 0.574472 0.707265
O O13 0.531621 0.679351 0.646074
O O14 0.424849 0.575152 0.500000
O O15 0.469446 0.734723 0.500000
O O16 0.551065 0.680434 0.451043
O O17 0.903468 0.451734 0.403418
O O18 0.000000 0.612165 0.394064
#
# Coordination Sequence:
#
# PCOD9587086 Si02
#       6
#    24  24  24  24  12  24
#     4  10  21  35  51  71  94 121 152 188 230 274
#     4   9  18  32  49  69  93 122 156 194 237 282
#     4  10  20  33  49  70  97 128 160 192 226 265
#     4  10  19  30  45  66  93 123 154 187 223 264
#     4  10  18  27  39  55  76 101 132 174 225 276
#     4   9  17  28  41  56  76 106 144 183 220 261
#
# _framework density 15.970715999999999
#
# number of rings (size 3 to 8) (size 9 to 14) (size 15 to 20)
#    0.000    2.364    0.000    2.909    0.000    4.727 
#    0.000    4.545    0.000    1.455    0.000    1.273 
#    0.000    4.364    0.000    0.182    0.000    0.000 
#
# Total GULP energy -735613.256594 kJ/mol
# GULP energy per Si atom -5572.827701 kJ/mol
# Density = 1.593437 g / cm^3
# Si number density = 15.970716 Si / 1000 Ang^3
#
#
#
# Elastic Constant Matrix: (Units=GPa)
#
#
# Indices 1 2 3 4 5 6 
#
# 1 78.6735 61.7378 32.3784 0.0000 0.0000 0.0000
# 2 61.7378 78.6735 32.3784 0.0000 0.0000 0.0000
# 3 32.3784 32.3784 56.4888 0.0000 0.0000 0.0000
# 4 0.0000 0.0000 0.0000 18.8741 0.0000 0.0000
# 5 0.0000 0.0000 0.0000 0.0000 18.8741 0.0000
# 6 0.0000 0.0000 0.0000 0.0000 0.0000 8.4679
#
#
#
# Elastic Compliance Matrix: (Units=1/GPa)
#
#
# Indices 1 2 3 4 5 6 
#
# 1 0.034364 -0.024683 -0.005549 0.000000 0.000000 0.000000
# 2 -0.024683 0.034364 -0.005549 0.000000 0.000000 0.000000
# 3 -0.005549 -0.005549 0.024064 0.000000 0.000000 0.000000
# 4 0.000000 0.000000 0.000000 0.052983 0.000000 0.000000
# 5 0.000000 0.000000 0.000000 0.000000 0.052983 0.000000
# 6 0.000000 0.000000 0.000000 0.000000 0.000000 0.118094
#
#
# Mechanical properties :
#
#
# Convention : Reuss Voigt Hill
#
# Bulk Modulus (GPa) = 47.10337 51.86945 49.48641
# Shear Modulus (GPa) = 12.64256 15.06595 13.85425
#
# Velocity S-wave (km/s) = 2.81661 3.07473 2.94849
# Velocity P-wave (km/s) = 6.33524 6.71965 6.53027
#
# Compressibility (1/GPa) = 0.02122990
#
# Stress axis : x y z
#
# Youngs Moduli (GPa) = 29.10023 29.10023 41.55602
#
# Poissons Ratio (x) = 0.71828 0.23060
# Poissons Ratio (y) = 0.71828 0.23060
# Poissons Ratio (z) = 0.16148 0.16148
#
# Static dielectric constant tensor:
#      x y z
#    x 1.524220 0.000000 0.000000 
#    y 0.000000 1.524220 0.000000 
#    z 0.000000 0.000000 1.568550 
# 
# From -- ./inp_files/9779.got.cif
#   From: 2010.05.17/outbox.cif.g08.bks.cpg/sg191_5_cif.got.tgz:9779.got - 2010.05.20 12:20:32.
