data_PCOD9587911
_publ_section_title
;
Structure prediction by ZEFSAII (Michael W. Deem and Ramdas Pophale) SiO2 
 PCOD9587911
Probable space group: P 6/M M M
;
_chemical_formula_sum "Si O2"
_cell_formula_units_Z 60
_cell_length_a 23.291632
_cell_length_b 23.291632
_cell_length_c 7.644426
_cell_angle_alpha 90.000000
_cell_angle_beta 90.000000
_cell_angle_gamma 120.000000
_cell_volume 3591.495712
_symmetry_space_group_name_H-M "P 6/M M M"
_symmetry_group_IT_number 191
_symmetry_cell_setting 'hexagonal'
loop_
_space_group_symop_operation_xyz
x,y,z
x-y,x,z
-y,x-y,z
-x,-y,z
-x+y,-x,z
y,-x+y,z
x-y,-y,-z
-x,-x+y,-z
y,x,-z
-y,-x,-z
-x+y,y,-z
x,x-y,-z
-x,-y,-z
-x+y,-x,-z
y,-x+y,-z
x,y,-z
x-y,x,-z
-y,x-y,-z
-x+y,y,z
x,x-y,z
-y,-x,z
y,x,z
x-y,-y,z
-x,-x+y,z
loop_
_atom_site_type_symbol
_atom_site_label
_atom_site_fract_x
_atom_site_fract_y
_atom_site_fract_z
Si Si1 0.080508 0.474865 0.500000
Si Si2 0.924729 0.849457 0.290784
Si Si3 0.384880 0.305430 0.205761
Si Si4 0.847135 0.694270 0.210140
O O1 0.104855 0.552428 0.500000
O O2 0.099457 0.447776 0.328777
O O3 0.000000 0.436925 0.500000
O O4 0.884521 0.884521 0.221933
O O5 0.929229 0.858458 0.500000
O O6 0.885539 0.771077 0.260006
O O7 0.337444 0.337444 0.221012
O O8 0.344191 0.229340 0.266634
O O9 0.402093 0.307972 0.000000
O O10 0.846363 0.692725 0.000000
#
# Coordination Sequence:
#
# PCOD9587911 Si02
#       4
#    12  12  24  12
#     4   9  18  31  48  70  95 124 155 184 226 290
#     4  10  21  34  48  66  92 132 184 240 290 329
#     4   9  18  31  47  70 101 132 163 203 247 293
#     4  10  20  33  49  71  98 130 170 215 265 316
#
# _framework density 16.706132
#
# number of rings (size 3 to 8) (size 9 to 14) (size 15 to 20)
#    0.000    2.600    0.000    1.400    2.800    4.000 
#    0.000    4.000    0.000    1.200    0.000    0.000 
#    8.000    0.000    2.400    0.000    0.000    0.000 
#
# Total GULP energy -334553.940602 kJ/mol
# GULP energy per Si atom -5575.899010 kJ/mol
# Density = 1.666811 g / cm^3
# Si number density = 16.706132 Si / 1000 Ang^3
#
#
#
# Elastic Constant Matrix: (Units=GPa)
#
#
# Indices 1 2 3 4 5 6 
#
# 1 122.7694 74.4467 49.5247 0.0000 0.0000 0.0000
# 2 74.4467 122.7694 49.5247 0.0000 0.0000 0.0000
# 3 49.5247 49.5247 72.0411 0.0000 0.0000 0.0000
# 4 0.0000 0.0000 0.0000 -55.1553 0.0000 0.0000
# 5 0.0000 0.0000 0.0000 0.0000 -55.1553 0.0000
# 6 0.0000 0.0000 0.0000 0.0000 0.0000 24.1614
#
#
#
# Elastic Compliance Matrix: (Units=1/GPa)
#
#
# Indices 1 2 3 4 5 6 
#
# 1 0.014219 -0.006475 -0.005324 0.000000 0.000000 0.000000
# 2 -0.006475 0.014219 -0.005324 0.000000 0.000000 0.000000
# 3 -0.005324 -0.005324 0.021201 0.000000 0.000000 0.000000
# 4 0.000000 0.000000 0.000000 -0.018131 0.000000 0.000000
# 5 0.000000 0.000000 0.000000 0.000000 -0.018131 0.000000
# 6 0.000000 0.000000 0.000000 0.000000 0.000000 0.041388
#
#
# Mechanical properties :
#
#
# Convention : Reuss Voigt Hill
#
# Bulk Modulus (GPa) = 64.96026 73.84135 69.40081
# Shear Modulus (GPa) = 53.11037 -7.62428 22.74305
#
# Velocity S-wave (km/s) = 5.64446 -2.13861 3.69366
# Velocity P-wave (km/s) = 9.02488 6.18044 7.73454
#
# Compressibility (1/GPa) = 0.01539403
#
# Stress axis : x y z
#
# Youngs Moduli (GPa) = 70.32676 70.32676 47.16791
#
# Poissons Ratio (x) = 0.45536 0.25112
# Poissons Ratio (y) = 0.45536 0.25112
# Poissons Ratio (z) = 0.37442 0.37442
#
# Static dielectric constant tensor:
#      x y z
#    x 1.546460 0.000000 0.000000 
#    y 0.000000 1.546460 0.000000 
#    z 0.000000 0.000000 1.600120 
# 
# From -- ./inp_files/603.got.cif
#   From: 2010.05.17/outbox.cif.g08.bks.cpg/sg191_1_cif.got.tgz:603.got - 2010.05.20 12:20:32.
