data_PCOD9587089
_publ_section_title
;
Structure prediction by ZEFSAII (Michael W. Deem and Ramdas Pophale) SiO2 
 PCOD9587089
Probable space group: P 6/M M M
;
_chemical_formula_sum "Si O2"
_cell_formula_units_Z 132
_cell_length_a 18.842408
_cell_length_b 18.842408
_cell_length_c 28.761500
_cell_angle_alpha 90.000000
_cell_angle_beta 90.000000
_cell_angle_gamma 120.000000
_cell_volume 8843.312471
_symmetry_space_group_name_H-M "P 6/M M M"
_symmetry_group_IT_number 191
_symmetry_cell_setting 'hexagonal'
loop_
_space_group_symop_operation_xyz
x,y,z
x-y,x,z
-y,x-y,z
-x,-y,z
-x+y,-x,z
y,-x+y,z
x-y,-y,-z
-x,-x+y,-z
y,x,-z
-y,-x,-z
-x+y,y,-z
x,x-y,-z
-x,-y,-z
-x+y,-x,-z
y,-x+y,-z
x,y,-z
x-y,x,-z
-y,x-y,-z
-x+y,y,z
x,x-y,z
-y,-x,z
y,x,z
x-y,-y,z
-x,-x+y,z
loop_
_atom_site_type_symbol
_atom_site_label
_atom_site_fract_x
_atom_site_fract_y
_atom_site_fract_z
Si Si1 0.638497 0.903855 0.500000
Si Si2 0.632208 0.539624 0.325543
Si Si3 0.467820 0.369439 0.130562
Si Si4 0.349852 0.254902 0.945658
Si Si5 0.499490 0.331150 0.229075
Si Si6 0.668594 0.169361 0.423766
O O1 0.663419 0.831710 0.500000
O O2 0.577367 0.884708 0.543803
O O3 0.708793 0.000000 0.500000
O O4 0.545336 0.454664 0.322476
O O5 0.610563 0.610563 0.333913
O O6 0.674624 0.549867 0.275784
O O7 0.674974 0.526914 0.370166
O O8 0.563601 0.436400 0.123254
O O9 0.420914 0.420914 0.133887
O O10 0.426372 0.307521 0.088137
O O11 0.456838 0.324989 0.179857
O O12 0.318974 0.159487 0.938342
O O13 0.283452 0.283452 0.936419
O O14 0.373725 0.273434 0.000000
O O15 0.524794 0.262397 0.231513
O O16 0.579373 0.420628 0.228947
O O17 0.577251 0.154502 0.431983
O O18 0.736313 0.263688 0.433047
#
# Coordination Sequence:
#
# PCOD9587089 Si02
#       6
#    12  24  24  24  24  24
#     4  10  21  35  51  70  91 117 148 184 225 267
#     4   9  17  28  41  56  76 106 144 184 221 254
#     4   9  17  28  42  60  81 106 137 172 208 248
#     4   9  17  29  45  64  85 109 138 172 210 253
#     4  10  18  27  39  55  77 104 135 172 214 258
#     4  10  19  30  45  66  93 123 154 185 216 253
#
# _framework density 14.926532999999999
#
# number of rings (size 3 to 8) (size 9 to 14) (size 15 to 20)
#    0.000    2.545    0.000    2.818    0.000    4.000 
#    0.000    4.545    0.000    0.636    0.000    1.273 
#    0.000    0.000    0.000    0.000    0.000    0.000 
#
# Total GULP energy -734828.480979 kJ/mol
# GULP energy per Si atom -5566.882432 kJ/mol
# Density = 1.489256 g / cm^3
# Si number density = 14.926533 Si / 1000 Ang^3
#
#
#
# Elastic Constant Matrix: (Units=GPa)
#
#
# Indices 1 2 3 4 5 6 
#
# 1 50.9098 28.3146 34.2773 0.0000 0.0000 0.0000
# 2 28.3146 50.9098 34.2773 0.0000 0.0000 0.0000
# 3 34.2773 34.2773 87.4114 0.0000 0.0000 0.0000
# 4 0.0000 0.0000 0.0000 18.2051 0.0000 0.0000
# 5 0.0000 0.0000 0.0000 0.0000 18.2051 0.0000
# 6 0.0000 0.0000 0.0000 0.0000 0.0000 11.2976
#
#
#
# Elastic Compliance Matrix: (Units=1/GPa)
#
#
# Indices 1 2 3 4 5 6 
#
# 1 0.031681 -0.012576 -0.007492 0.000000 0.000000 0.000000
# 2 -0.012576 0.031681 -0.007492 0.000000 0.000000 0.000000
# 3 -0.007492 -0.007492 0.017316 0.000000 0.000000 0.000000
# 4 0.000000 0.000000 0.000000 0.054930 0.000000 0.000000
# 5 0.000000 0.000000 0.000000 0.000000 0.054930 0.000000
# 6 0.000000 0.000000 0.000000 0.000000 0.000000 0.088514
#
#
# Mechanical properties :
#
#
# Convention : Reuss Voigt Hill
#
# Bulk Modulus (GPa) = 39.12545 42.55218 40.83881
# Shear Modulus (GPa) = 14.59039 15.69900 15.14470
#
# Velocity S-wave (km/s) = 3.12986 3.24659 3.18876
# Velocity P-wave (km/s) = 6.27139 6.52866 6.40132
#
# Compressibility (1/GPa) = 0.02555881
#
# Stress axis : x y z
#
# Youngs Moduli (GPa) = 31.56442 31.56442 57.75043
#
# Poissons Ratio (x) = 0.39695 0.43266
# Poissons Ratio (y) = 0.39695 0.43266
# Poissons Ratio (z) = 0.23648 0.23648
#
# Static dielectric constant tensor:
#      x y z
#    x 1.488040 0.000000 0.000000 
#    y 0.000000 1.488040 0.000000 
#    z 0.000000 0.000000 1.520390 
# 
# From -- ./inp_files/9768.got.cif
#   From: 2010.05.17/outbox.cif.g08.bks.cpg/sg191_5_cif.got.tgz:9768.got - 2010.05.20 12:20:32.
