data_PCOD9587653
_publ_section_title
;
Structure prediction by ZEFSAII (Michael W. Deem and Ramdas Pophale) SiO2 
 PCOD9587653
Probable space group: P 6/M M M
;
_chemical_formula_sum "Si O2"
_cell_formula_units_Z 88
_cell_length_a 26.459169
_cell_length_b 26.459169
_cell_length_c 7.818092
_cell_angle_alpha 90.000000
_cell_angle_beta 90.000000
_cell_angle_gamma 120.000000
_cell_volume 4740.059671
_symmetry_space_group_name_H-M "P 6/M M M"
_symmetry_group_IT_number 191
_symmetry_cell_setting 'hexagonal'
loop_
_space_group_symop_operation_xyz
x,y,z
x-y,x,z
-y,x-y,z
-x,-y,z
-x+y,-x,z
y,-x+y,z
x-y,-y,-z
-x,-x+y,-z
y,x,-z
-y,-x,-z
-x+y,y,-z
x,x-y,-z
-x,-y,-z
-x+y,-x,-z
y,-x+y,-z
x,y,-z
x-y,x,-z
-y,x-y,-z
-x+y,y,z
x,x-y,z
-y,-x,z
y,x,z
x-y,-y,z
-x,-x+y,z
loop_
_atom_site_type_symbol
_atom_site_label
_atom_site_fract_x
_atom_site_fract_y
_atom_site_fract_z
Si Si1 0.241873 0.177397 0.293572
Si Si2 0.065298 0.359551 0.203876
Si Si3 0.333334 0.666668 0.292931
Si Si4 0.400552 0.599449 0.290976
Si Si5 0.180705 0.702419 0.704189
O O1 0.238071 0.173963 0.500000
O O2 0.234023 0.117012 0.227365
O O3 0.195493 0.195493 0.230485
O O4 0.305400 0.231007 0.249727
O O5 0.120686 0.418655 0.266311
O O6 0.000000 0.341241 0.269260
O O7 0.063963 0.363452 0.000000
O O8 0.333334 0.666667 0.500000
O O9 0.366656 0.633345 0.240631
O O10 0.402661 0.597340 0.500000
O O11 0.466674 0.641938 0.230895
O O12 0.189145 0.703085 0.500000
O O13 0.238555 0.761446 0.770147
#
# Coordination Sequence:
#
# PCOD9587653 Si02
#       5
#    24  24   4  12  24
#     4   9  17  30  49  72  97 125 158 196 236 278
#     4  10  21  35  49  67  94 128 163 198 238 282
#     4   9  12  24  48  72 100 125 148 186 232 278
#     4   9  16  28  48  76 103 124 150 188 234 282
#     4  10  19  31  51  77 100 123 154 192 235 282
#
# _framework density 18.565166999999999
#
# number of rings (size 3 to 8) (size 9 to 14) (size 15 to 20)
#    0.000    2.455    1.364    1.636    0.000    6.000 
#    0.000    1.364    0.000    4.364    0.000    1.909 
#    0.000    0.000    0.000    6.818    0.000    7.091 
#
# Total GULP energy -490529.954913 kJ/mol
# GULP energy per Si atom -5574.204033 kJ/mol
# Density = 1.852291 g / cm^3
# Si number density = 18.565167 Si / 1000 Ang^3
#
#
#
# Elastic Constant Matrix: (Units=GPa)
#
#
# Indices 1 2 3 4 5 6 
#
# 1 161.8152 107.5684 3.6266 -0.0001 0.0000 -0.0002
# 2 107.5684 161.8155 3.6266 0.0001 0.0000 0.0000
# 3 3.6266 3.6266 22.1293 0.0001 0.0000 0.0000
# 4 -0.0001 0.0001 0.0001 -38.7904 0.0000 0.0000
# 5 0.0000 0.0000 0.0000 0.0000 -38.7881 0.0001
# 6 -0.0002 0.0000 0.0000 0.0000 0.0001 27.1233
#
#
#
# Elastic Compliance Matrix: (Units=1/GPa)
#
#
# Indices 1 2 3 4 5 6 
#
# 1 0.011081 -0.007353 -0.000611 0.000000 0.000000 0.000000
# 2 -0.007353 0.011081 -0.000611 0.000000 0.000000 0.000000
# 3 -0.000611 -0.000611 0.045389 0.000000 0.000000 0.000000
# 4 0.000000 0.000000 0.000000 -0.025780 0.000000 0.000000
# 5 0.000000 0.000000 0.000000 0.000000 -0.025781 0.000000
# 6 0.000000 0.000000 0.000000 0.000000 0.000000 0.036869
#
#
# Mechanical properties :
#
#
# Convention : Reuss Voigt Hill
#
# Bulk Modulus (GPa) = 19.84039 63.93368 41.88704
# Shear Modulus (GPa) = 57.59667 5.30485 31.45076
#
# Velocity S-wave (km/s) = 5.57597 1.69223 4.12038
# Velocity P-wave (km/s) = 7.22255 6.19115 6.72665
#
# Compressibility (1/GPa) = 0.05040223
#
# Stress axis : x y z
#
# Youngs Moduli (GPa) = 90.24102 90.24122 22.03168
#
# Poissons Ratio (x) = 0.66352 0.01346
# Poissons Ratio (y) = 0.66352 0.01346
# Poissons Ratio (z) = 0.05515 0.05514
#
# Static dielectric constant tensor:
#      x y z
#    x 1.636640 0.000000 0.000000 
#    y 0.000000 1.636640 0.000000 
#    z 0.000000 0.000000 1.676570 
# 
# From -- ./inp_files/1277.got.cif
#   From: 2010.05.17/outbox.cif.g08.bks.cpg/sg191_1_cif.got.tgz:1277.got - 2010.05.20 12:20:32.
