data_PCOD9587340
_publ_section_title
;
Structure prediction by ZEFSAII (Michael W. Deem and Ramdas Pophale) SiO2 
 PCOD9587340
Probable space group: P 6/M M M
;
_chemical_formula_sum "Si O2"
_cell_formula_units_Z 156
_cell_length_a 21.466726
_cell_length_b 21.466726
_cell_length_c 21.455837
_cell_angle_alpha 90.000000
_cell_angle_beta 90.000000
_cell_angle_gamma 120.000000
_cell_volume 8562.640662
_symmetry_space_group_name_H-M "P 6/M M M"
_symmetry_group_IT_number 191
_symmetry_cell_setting 'hexagonal'
loop_
_space_group_symop_operation_xyz
x,y,z
x-y,x,z
-y,x-y,z
-x,-y,z
-x+y,-x,z
y,-x+y,z
x-y,-y,-z
-x,-x+y,-z
y,x,-z
-y,-x,-z
-x+y,y,-z
x,x-y,-z
-x,-y,-z
-x+y,-x,-z
y,-x+y,-z
x,y,-z
x-y,x,-z
-y,x-y,-z
-x+y,y,z
x,x-y,z
-y,-x,z
y,x,z
x-y,-y,z
-x,-x+y,z
loop_
_atom_site_type_symbol
_atom_site_label
_atom_site_fract_x
_atom_site_fract_y
_atom_site_fract_z
Si Si1 0.186616 0.664703 0.868008
Si Si2 0.081573 0.780800 0.425766
Si Si3 0.778162 0.697469 0.197005
Si Si4 0.808254 0.472581 0.500000
Si Si5 0.623641 0.917194 0.930065
Si Si6 0.541035 0.697131 0.372372
Si Si7 0.084212 0.443232 0.246951
O O1 0.200221 0.600111 0.886120
O O2 0.261363 0.738638 0.856139
O O3 0.140282 0.680991 0.917733
O O4 0.134874 0.639784 0.807299
O O5 0.085377 0.767455 0.500000
O O6 0.135439 0.864562 0.415036
O O7 0.111974 0.737540 0.388236
O O8 0.000000 0.753108 0.409261
O O9 0.856298 0.712596 0.214385
O O10 0.762464 0.762464 0.203917
O O11 0.760455 0.669301 0.125299
O O12 0.716992 0.630493 0.235828
O O13 0.747421 0.494842 0.500000
O O14 0.775500 0.387750 0.500000
O O15 0.848644 0.502962 0.435227
O O16 0.641425 0.000000 0.923708
O O17 0.644419 0.908941 0.000000
O O18 0.521807 0.760904 0.360856
O O19 0.526295 0.646852 0.313258
O O20 0.000000 0.419682 0.242957
#
# Coordination Sequence:
#
# PCOD9587340 Si02
#       7
#    24  24  24  12  24  24  24
#     4  11  23  38  54  73 100 136 174 209 244 292
#     4   9  16  27  45  68  93 121 152 188 230 279
#     4   9  17  30  49  75 105 136 171 210 254 301
#     4  10  21  36  53  73  98 131 168 202 237 283
#     4   9  18  33  55  81 105 131 165 209 260 304
#     4  10  18  32  52  75 101 128 159 199 247 296
#     4  10  20  34  55  79 100 126 160 208 264 308
#
# _framework density 18.218679000000002
#
# number of rings (size 3 to 8) (size 9 to 14) (size 15 to 20)
#    0.000    2.308    0.769    4.846    0.000    3.385 
#    0.000    0.769    0.000    6.308    0.000    1.077 
#    0.000    0.000    0.000    8.769    0.000    3.385 
#
# Total GULP energy -870040.472753 kJ/mol
# GULP energy per Si atom -5577.182518 kJ/mol
# Density = 1.817721 g / cm^3
# Si number density = 18.218679 Si / 1000 Ang^3
#
#
#
# Elastic Constant Matrix: (Units=GPa)
#
#
# Indices 1 2 3 4 5 6 
#
# 1 57.8729 30.7232 -7.0452 0.0000 0.0000 0.0000
# 2 30.7232 57.8729 -7.0452 0.0000 0.0000 0.0000
# 3 -7.0452 -7.0452 61.5400 0.0000 0.0000 0.0000
# 4 0.0000 0.0000 0.0000 -4.0498 0.0000 0.0000
# 5 0.0000 0.0000 0.0000 0.0000 -4.0498 0.0000
# 6 0.0000 0.0000 0.0000 0.0000 0.0000 13.5749
#
#
#
# Elastic Compliance Matrix: (Units=1/GPa)
#
#
# Indices 1 2 3 4 5 6 
#
# 1 0.024165 -0.012668 0.001316 0.000000 0.000000 0.000000
# 2 -0.012668 0.024165 0.001316 0.000000 0.000000 0.000000
# 3 0.001316 0.001316 0.016551 0.000000 0.000000 0.000000
# 4 0.000000 0.000000 0.000000 -0.246927 0.000000 0.000000
# 5 0.000000 0.000000 0.000000 0.000000 -0.246927 0.000000
# 6 0.000000 0.000000 0.000000 0.000000 0.000000 0.073666
#
#
# Mechanical properties :
#
#
# Convention : Reuss Voigt Hill
#
# Bulk Modulus (GPa) = 22.31723 23.39463 22.85593
# Shear Modulus (GPa) = -15.61034 11.80527 -1.90253
#
# Velocity S-wave (km/s) = -2.93034 2.54830 -1.02301
# Velocity P-wave (km/s) = 0.90940 4.63975 3.34323
#
# Compressibility (1/GPa) = 0.04480844
#
# Stress axis : x y z
#
# Youngs Moduli (GPa) = 41.38280 41.38280 60.41956
#
# Poissons Ratio (x) = 0.52424 -0.07952
# Poissons Ratio (y) = 0.52424 -0.07952
# Poissons Ratio (z) = -0.05447 -0.05447
#
# Static dielectric constant tensor:
#      x y z
#    x 1.617960 0.000000 0.000000 
#    y 0.000000 1.617960 0.000000 
#    z 0.000000 0.000000 1.662560 
# 
# From -- ./inp_files/7725.got.cif
#   From: 2010.05.17/outbox.cif.g08.bks.cpg/sg191_4_cif.got.tgz:7725.got - 2010.05.20 12:20:32.
