data_PCOD9587309
_publ_section_title
;
Structure prediction by ZEFSAII (Michael W. Deem and Ramdas Pophale) SiO2 
 PCOD9587309
Probable space group: P 6/M M M
;
_chemical_formula_sum "Si O2"
_cell_formula_units_Z 120
_cell_length_a 21.202396
_cell_length_b 21.202396
_cell_length_c 18.697274
_cell_angle_alpha 90.000000
_cell_angle_beta 90.000000
_cell_angle_gamma 120.000000
_cell_volume 7279.118800
_symmetry_space_group_name_H-M "P 6/M M M"
_symmetry_group_IT_number 191
_symmetry_cell_setting 'hexagonal'
loop_
_space_group_symop_operation_xyz
x,y,z
x-y,x,z
-y,x-y,z
-x,-y,z
-x+y,-x,z
y,-x+y,z
x-y,-y,-z
-x,-x+y,-z
y,x,-z
-y,-x,-z
-x+y,y,-z
x,x-y,-z
-x,-y,-z
-x+y,-x,-z
y,-x+y,-z
x,y,-z
x-y,x,-z
-y,x-y,-z
-x+y,y,z
x,x-y,z
-y,-x,z
y,x,z
x-y,-y,z
-x,-x+y,z
loop_
_atom_site_type_symbol
_atom_site_label
_atom_site_fract_x
_atom_site_fract_y
_atom_site_fract_z
Si Si1 0.914481 0.354715 0.861533
Si Si2 0.310665 0.226841 0.500000
Si Si3 0.478361 0.664919 0.271200
Si Si4 0.916358 0.611706 0.354971
Si Si5 0.224596 0.305433 0.210654
Si Si6 0.517784 0.182836 0.000000
O O1 0.871167 0.361566 0.794012
O O2 0.913471 0.279348 0.845239
O O3 0.000000 0.416507 0.865094
O O4 0.868235 0.347896 0.931339
O O5 0.247155 0.247155 0.500000
O O6 0.284346 0.142173 0.500000
O O7 0.358557 0.263568 0.429359
O O8 0.487557 0.743779 0.255045
O O9 0.394947 0.605054 0.282413
O O10 0.528967 0.671675 0.338218
O O11 0.909741 0.657288 0.288689
O O12 0.000000 0.629480 0.352661
O O13 0.143751 0.287501 0.198836
O O14 0.238126 0.238126 0.207259
O O15 0.602535 0.205069 0.000000
O O16 0.510003 0.255002 0.000000
#
# Coordination Sequence:
#
# PCOD9587309 Si02
#       6
#    24  12  24  24  24  12
#     4  10  21  35  53  73  93 121 157 201 243 276
#     4  10  18  30  49  74 101 127 159 199 246 292
#     4  11  21  34  51  71  97 127 160 195 237 292
#     4   9  18  31  50  72  93 121 158 203 245 280
#     4   9  16  29  48  70  94 121 155 191 232 278
#     4  12  24  37  51  69  98 131 161 191 229 280
#
# _framework density 16.485513000000001
#
# number of rings (size 3 to 8) (size 9 to 14) (size 15 to 20)
#    0.000    2.000    0.000    7.800    0.000    3.200 
#    0.000    2.500    0.000    2.100    0.000    1.400 
#    0.000    4.800    0.000    0.000    0.000   21.200 
#
# Total GULP energy -669373.101266 kJ/mol
# GULP energy per Si atom -5578.109177 kJ/mol
# Density = 1.644799 g / cm^3
# Si number density = 16.485513 Si / 1000 Ang^3
#
#
#
# Elastic Constant Matrix: (Units=GPa)
#
#
# Indices 1 2 3 4 5 6 
#
# 1 98.4601 64.4096 32.7565 0.0000 0.0000 0.0000
# 2 64.4096 98.4601 32.7565 0.0000 0.0000 0.0000
# 3 32.7565 32.7565 78.8120 0.0000 0.0000 0.0000
# 4 0.0000 0.0000 0.0000 9.8077 0.0000 0.0000
# 5 0.0000 0.0000 0.0000 0.0000 9.8077 0.0000
# 6 0.0000 0.0000 0.0000 0.0000 0.0000 17.0253
#
#
#
# Elastic Compliance Matrix: (Units=1/GPa)
#
#
# Indices 1 2 3 4 5 6 
#
# 1 0.018370 -0.010998 -0.003064 0.000000 0.000000 0.000000
# 2 -0.010998 0.018370 -0.003064 0.000000 0.000000 0.000000
# 3 -0.003064 -0.003064 0.015236 0.000000 0.000000 0.000000
# 4 0.000000 0.000000 0.000000 0.101961 0.000000 0.000000
# 5 0.000000 0.000000 0.000000 0.000000 0.101961 0.000000
# 6 0.000000 0.000000 0.000000 0.000000 0.000000 0.058736
#
#
# Mechanical properties :
#
#
# Convention : Reuss Voigt Hill
#
# Bulk Modulus (GPa) = 56.42181 59.50860 57.96520
# Shear Modulus (GPa) = 14.09269 17.04878 15.57074
#
# Velocity S-wave (km/s) = 2.92696 3.21934 3.07662
# Velocity P-wave (km/s) = 6.76182 7.07069 6.91798
#
# Compressibility (1/GPa) = 0.01772364
#
# Stress axis : x y z
#
# Youngs Moduli (GPa) = 54.43579 54.43579 65.63597
#
# Poissons Ratio (x) = 0.59868 0.20112
# Poissons Ratio (y) = 0.59868 0.20112
# Poissons Ratio (z) = 0.16680 0.16680
#
# Static dielectric constant tensor:
#      x y z
#    x 1.554380 0.000000 0.000000 
#    y 0.000000 1.554380 0.000000 
#    z 0.000000 0.000000 1.550920 
# 
# From -- ./inp_files/6263.got.cif
#   From: 2010.05.17/outbox.cif.g08.bks.cpg/sg191_4_cif.got.tgz:6263.got - 2010.05.20 12:20:32.
