data_PCOD9587550
_publ_section_title
;
Structure prediction by ZEFSAII (Michael W. Deem and Ramdas Pophale) SiO2 
 PCOD9587550
Probable space group: P 6/M M M
;
_chemical_formula_sum "Si O2"
_cell_formula_units_Z 108
_cell_length_a 17.902731
_cell_length_b 17.902731
_cell_length_c 22.395233
_cell_angle_alpha 90.000000
_cell_angle_beta 90.000000
_cell_angle_gamma 120.000000
_cell_volume 6216.197284
_symmetry_space_group_name_H-M "P 6/M M M"
_symmetry_group_IT_number 191
_symmetry_cell_setting 'hexagonal'
loop_
_space_group_symop_operation_xyz
x,y,z
x-y,x,z
-y,x-y,z
-x,-y,z
-x+y,-x,z
y,-x+y,z
x-y,-y,-z
-x,-x+y,-z
y,x,-z
-y,-x,-z
-x+y,y,-z
x,x-y,-z
-x,-y,-z
-x+y,-x,-z
y,-x+y,-z
x,y,-z
x-y,x,-z
-y,x-y,-z
-x+y,y,z
x,x-y,z
-y,-x,z
y,x,z
x-y,-y,z
-x,-x+y,z
loop_
_atom_site_type_symbol
_atom_site_label
_atom_site_fract_x
_atom_site_fract_y
_atom_site_fract_z
Si Si1 0.730029 0.631784 0.760371
Si Si2 0.000000 0.827058 0.427208
Si Si3 0.510709 0.843357 0.645187
Si Si4 0.000000 0.347021 0.571363
Si Si5 0.330988 0.837309 0.130361
Si Si6 0.901937 0.360564 0.000000
O O1 0.831028 0.662055 0.758458
O O2 0.705255 0.705255 0.752569
O O3 0.685219 0.561296 0.707944
O O4 0.691893 0.581741 0.822556
O O5 0.913203 0.826406 0.407792
O O6 0.000000 0.828132 0.500000
O O7 0.000000 0.740278 0.409324
O O8 0.418138 0.836276 0.648409
O O9 0.502619 0.751309 0.631761
O O10 0.571216 0.915214 0.597447
O O11 0.000000 0.349611 0.500000
O O12 0.428067 0.856134 0.137460
O O13 0.263038 0.736963 0.141972
O O14 0.318286 0.858092 0.062387
O O15 0.902977 0.451489 0.000000
O O16 0.000000 0.382538 0.000000
#
# Coordination Sequence:
#
# PCOD9587550 Si02
#       6
#    24  12  24  12  24  12
#     4  10  21  37  58  82 107 139 178 222 268 317
#     4   9  17  31  53  81 111 141 174 213 259 312
#     4  11  23  39  59  83 111 143 182 226 272 320
#     4  11  23  39  59  81 109 144 181 221 269 331
#     4  10  19  30  47  72 106 145 185 226 269 316
#     4   9  17  28  42  64  96 139 187 231 271 314
#
# _framework density 17.373965999999999
#
# number of rings (size 3 to 8) (size 9 to 14) (size 15 to 20)
#    0.000    1.889    1.111    3.222    0.000    4.889 
#    0.000    3.333    0.000    1.556    0.000    0.000 
#    0.000    0.000    0.000    0.000    0.000   23.111 
#
# Total GULP energy -602861.600928 kJ/mol
# GULP energy per Si atom -5582.051860 kJ/mol
# Density = 1.733442 g / cm^3
# Si number density = 17.373966 Si / 1000 Ang^3
#
#
#
# Elastic Constant Matrix: (Units=GPa)
#
#
# Indices 1 2 3 4 5 6 
#
# 1 126.9442 85.9567 40.3411 0.0000 0.0000 0.0000
# 2 85.9567 126.9442 40.3411 0.0000 0.0000 0.0000
# 3 40.3411 40.3411 87.8603 0.0000 0.0000 0.0000
# 4 0.0000 0.0000 0.0000 22.1622 0.0000 0.0000
# 5 0.0000 0.0000 0.0000 0.0000 22.1622 0.0000
# 6 0.0000 0.0000 0.0000 0.0000 0.0000 20.4937
#
#
#
# Elastic Compliance Matrix: (Units=1/GPa)
#
#
# Indices 1 2 3 4 5 6 
#
# 1 0.015042 -0.009356 -0.002611 0.000000 0.000000 0.000000
# 2 -0.009356 0.015042 -0.002611 0.000000 0.000000 0.000000
# 3 -0.002611 -0.002611 0.013779 0.000000 0.000000 0.000000
# 4 0.000000 0.000000 0.000000 0.045122 0.000000 0.000000
# 5 0.000000 0.000000 0.000000 0.000000 0.045122 0.000000
# 6 0.000000 0.000000 0.000000 0.000000 0.000000 0.048795
#
#
# Mechanical properties :
#
#
# Convention : Reuss Voigt Hill
#
# Bulk Modulus (GPa) = 67.98792 75.00299 71.49545
# Shear Modulus (GPa) = 23.04566 24.63760 23.84163
#
# Velocity S-wave (km/s) = 3.64599 3.76982 3.70842
# Velocity P-wave (km/s) = 7.54595 7.88747 7.71860
#
# Compressibility (1/GPa) = 0.01470849
#
# Stress axis : x y z
#
# Youngs Moduli (GPa) = 66.48012 66.48012 72.57240
#
# Poissons Ratio (x) = 0.62196 0.18948
# Poissons Ratio (y) = 0.62196 0.18948
# Poissons Ratio (z) = 0.17358 0.17358
#
# Static dielectric constant tensor:
#      x y z
#    x 1.577850 0.000000 0.000000 
#    y 0.000000 1.577850 0.000000 
#    z 0.000000 0.000000 1.598230 
# 
# From -- ./inp_files/7367.got.cif
#   From: 2010.05.17/outbox.cif.g08.bks.cpg/sg191_4_cif.got.tgz:7367.got - 2010.05.20 12:20:32.
