data_PCOD9587569
_publ_section_title
;
Structure prediction by ZEFSAII (Michael W. Deem and Ramdas Pophale) SiO2 
 PCOD9587569
Probable space group: P 6/M M M
;
_chemical_formula_sum "Si O2"
_cell_formula_units_Z 168
_cell_length_a 27.374216
_cell_length_b 27.374216
_cell_length_c 16.399195
_cell_angle_alpha 90.000000
_cell_angle_beta 90.000000
_cell_angle_gamma 120.000000
_cell_volume 10642.325584
_symmetry_space_group_name_H-M "P 6/M M M"
_symmetry_group_IT_number 191
_symmetry_cell_setting 'hexagonal'
loop_
_space_group_symop_operation_xyz
x,y,z
x-y,x,z
-y,x-y,z
-x,-y,z
-x+y,-x,z
y,-x+y,z
x-y,-y,-z
-x,-x+y,-z
y,x,-z
-y,-x,-z
-x+y,y,-z
x,x-y,-z
-x,-y,-z
-x+y,-x,-z
y,-x+y,-z
x,y,-z
x-y,x,-z
-y,x-y,-z
-x+y,y,z
x,x-y,z
-y,-x,z
y,x,z
x-y,-y,z
-x,-x+y,z
loop_
_atom_site_type_symbol
_atom_site_label
_atom_site_fract_x
_atom_site_fract_y
_atom_site_fract_z
Si Si1 0.173109 0.933628 0.737191
Si Si2 0.935125 0.599847 0.094944
Si Si3 0.643992 0.765928 0.352828
Si Si4 0.551191 0.718939 0.210985
Si Si5 0.781287 0.448347 0.664680
Si Si6 0.148170 0.631472 0.500000
Si Si7 0.934389 0.217513 0.088630
Si Si8 0.320714 0.932767 0.500000
O O1 0.107304 0.892697 0.719100
O O2 0.208638 0.916689 0.677014
O O3 0.184511 0.916978 0.827259
O O4 0.196262 0.000000 0.733808
O O5 0.880529 0.557868 0.147889
O O6 0.931383 0.656976 0.096788
O O7 0.000000 0.619614 0.122153
O O8 0.930252 0.582287 0.000000
O O9 0.637056 0.818528 0.382231
O O10 0.602613 0.739925 0.275336
O O11 0.628233 0.719456 0.421316
O O12 0.553921 0.776961 0.178068
O O13 0.494035 0.685625 0.263269
O O14 0.717371 0.434741 0.654342
O O15 0.783568 0.391784 0.681004
O O16 0.815020 0.475121 0.580848
O O17 0.133971 0.566986 0.500000
O O18 0.094110 0.638939 0.500000
O O19 0.000000 0.237460 0.083616
O O20 0.909526 0.192632 0.000000
O O21 0.355077 0.000000 0.500000
#
# Coordination Sequence:
#
# PCOD9587569 Si02
#       8
#    24  24  24  24  24  12  24  12
#     4  10  19  31  46  65  92 123 158 199 242 292
#     4   9  17  29  47  72 102 134 167 204 244 291
#     4  10  20  33  49  71  97 127 164 205 246 290
#     4  10  19  31  50  76 102 130 165 205 252 301
#     4  10  20  35  56  79 104 132 167 211 260 305
#     4  10  21  36  51  73 107 140 172 212 246 287
#     4   8  14  24  39  62  92 123 153 188 232 281
#     4  12  23  34  51  71  98 140 177 203 241 288
#
# _framework density 15.786023
#
# number of rings (size 3 to 8) (size 9 to 14) (size 15 to 20)
#    0.000    2.286    2.857    1.857    0.000    1.857 
#    0.000    2.143    0.000    1.000    0.000    1.000 
#    0.000    1.143    0.000    3.571    0.000   14.857 
#
# Total GULP energy -935357.364825 kJ/mol
# GULP energy per Si atom -5567.603362 kJ/mol
# Density = 1.575009 g / cm^3
# Si number density = 15.786023 Si / 1000 Ang^3
#
#
#
# Elastic Constant Matrix: (Units=GPa)
#
#
# Indices 1 2 3 4 5 6 
#
# 1 78.3803 44.6066 35.7536 0.0000 0.0000 0.0000
# 2 44.6066 78.3803 35.7536 0.0000 0.0000 0.0000
# 3 35.7536 35.7536 61.3714 0.0000 0.0000 0.0000
# 4 0.0000 0.0000 0.0000 73.5869 0.0000 0.0000
# 5 0.0000 0.0000 0.0000 0.0000 73.5869 0.0000
# 6 0.0000 0.0000 0.0000 0.0000 0.0000 16.8868
#
#
#
# Elastic Compliance Matrix: (Units=1/GPa)
#
#
# Indices 1 2 3 4 5 6 
#
# 1 0.020952 -0.008657 -0.007163 0.000000 0.000000 0.000000
# 2 -0.008657 0.020952 -0.007163 0.000000 0.000000 0.000000
# 3 -0.007163 -0.007163 0.024641 0.000000 0.000000 0.000000
# 4 0.000000 0.000000 0.000000 0.013589 0.000000 0.000000
# 5 0.000000 0.000000 0.000000 0.000000 0.013589 0.000000
# 6 0.000000 0.000000 0.000000 0.000000 0.000000 0.059218
#
#
# Mechanical properties :
#
#
# Convention : Reuss Voigt Hill
#
# Bulk Modulus (GPa) = 48.59294 50.03995 49.31644
# Shear Modulus (GPa) = 24.29926 39.61335 31.95630
#
# Velocity S-wave (km/s) = 3.92763 5.01482 4.50415
# Velocity P-wave (km/s) = 7.17060 8.08078 7.63925
#
# Compressibility (1/GPa) = 0.02057912
#
# Stress axis : x y z
#
# Youngs Moduli (GPa) = 47.72733 47.72733 40.58351
#
# Poissons Ratio (x) = 0.41315 0.29071
# Poissons Ratio (y) = 0.41315 0.29071
# Poissons Ratio (z) = 0.34188 0.34188
#
# Static dielectric constant tensor:
#      x y z
#    x 1.522160 0.000000 0.000000 
#    y 0.000000 1.522160 0.000000 
#    z 0.000000 0.000000 1.546650 
# 
# From -- ./inp_files/5348.got.cif
#   From: 2010.05.17/outbox.cif.g08.bks.cpg/sg191_3_cif.got.tgz:5348.got - 2010.05.20 12:20:32.
