data_PCOD9587871
_publ_section_title
;
Structure prediction by ZEFSAII (Michael W. Deem and Ramdas Pophale) SiO2 
 PCOD9587871
Probable space group: P 6/M M M
;
_chemical_formula_sum "Si O2"
_cell_formula_units_Z 120
_cell_length_a 17.846669
_cell_length_b 17.846669
_cell_length_c 26.564992
_cell_angle_alpha 90.000000
_cell_angle_beta 90.000000
_cell_angle_gamma 120.000000
_cell_volume 7327.480291
_symmetry_space_group_name_H-M "P 6/M M M"
_symmetry_group_IT_number 191
_symmetry_cell_setting 'hexagonal'
loop_
_space_group_symop_operation_xyz
x,y,z
x-y,x,z
-y,x-y,z
-x,-y,z
-x+y,-x,z
y,-x+y,z
x-y,-y,-z
-x,-x+y,-z
y,x,-z
-y,-x,-z
-x+y,y,-z
x,x-y,-z
-x,-y,-z
-x+y,-x,-z
y,-x+y,-z
x,y,-z
x-y,x,-z
-y,x-y,-z
-x+y,y,z
x,x-y,z
-y,-x,z
y,x,z
x-y,-y,z
-x,-x+y,z
loop_
_atom_site_type_symbol
_atom_site_label
_atom_site_fract_x
_atom_site_fract_y
_atom_site_fract_z
Si Si1 0.511995 0.845737 0.389729
Si Si2 0.511236 0.844961 0.500000
Si Si3 0.467638 0.104460 0.197015
Si Si4 0.332686 0.843382 0.000000
Si Si5 0.270460 0.371156 0.097729
Si Si6 0.632018 0.731261 0.705678
O O1 0.423620 0.847239 0.381159
O O2 0.493373 0.746687 0.390233
O O3 0.547277 0.885609 0.445350
O O4 0.579106 0.892326 0.345060
O O5 0.413193 0.826385 0.500000
O O6 0.511479 0.755740 0.500000
O O7 0.569852 0.139703 0.196023
O O8 0.431462 0.125532 0.147162
O O9 0.434501 0.126973 0.247615
O O10 0.420842 0.000000 0.197397
O O11 0.316400 0.885594 0.950739
O O12 0.257327 0.742673 0.000000
O O13 0.426611 0.853222 0.000000
O O14 0.168557 0.337113 0.093312
O O15 0.298816 0.298816 0.101416
O O16 0.665483 0.832742 0.702575
O O17 0.704753 0.704753 0.713262
#
# Coordination Sequence:
#
# PCOD9587871 Si02
#       6
#    24  12  24  12  24  24
#     4   9  16  26  42  65  93 124 155 185 217 257
#     4   8  13  22  37  59  88 121 154 184 215 254
#     4   9  17  30  49  72  96 121 149 180 216 264
#     4  10  20  33  50  73 100 128 157 192 236 285
#     4  10  20  33  50  72  97 127 163 202 242 282
#     4  10  20  33  49  68  90 118 152 191 234 277
#
# _framework density 16.376707
#
# number of rings (size 3 to 8) (size 9 to 14) (size 15 to 20)
#    0.000    2.600    0.000    2.500    0.000    4.400 
#    0.000    0.500    0.000    7.800    0.000    0.000 
#    0.000    7.200    0.000    0.000    0.000   12.600 
#
# Total GULP energy -668612.527216 kJ/mol
# GULP energy per Si atom -5571.771060 kJ/mol
# Density = 1.633943 g / cm^3
# Si number density = 16.376707 Si / 1000 Ang^3
#
#
#
# Elastic Constant Matrix: (Units=GPa)
#
#
# Indices 1 2 3 4 5 6 
#
# 1 65.7477 65.2037 36.0931 0.0000 0.0000 0.0000
# 2 65.2037 65.7477 36.0931 0.0000 0.0000 0.0000
# 3 36.0931 36.0931 126.8572 0.0000 0.0000 0.0000
# 4 0.0000 0.0000 0.0000 19.1141 0.0000 0.0000
# 5 0.0000 0.0000 0.0000 0.0000 19.1141 0.0000
# 6 0.0000 0.0000 0.0000 0.0000 0.0000 0.2720
#
#
#
# Elastic Compliance Matrix: (Units=1/GPa)
#
#
# Indices 1 2 3 4 5 6 
#
# 1 0.923740 -0.914683 -0.002577 0.000000 0.000000 -0.000003
# 2 -0.914683 0.923740 -0.002577 0.000000 0.000000 0.000003
# 3 -0.002577 -0.002577 0.009349 0.000000 0.000000 0.000000
# 4 0.000000 0.000000 0.000000 0.052317 0.000000 0.000000
# 5 0.000000 0.000000 0.000000 0.000000 0.052317 0.000000
# 6 -0.000003 0.000003 0.000000 0.000000 0.000000 3.676851
#
#
# Mechanical properties :
#
#
# Convention : Reuss Voigt Hill
#
# Bulk Modulus (GPa) = 58.29000 59.23692 58.76346
# Shear Modulus (GPa) = 0.66812 15.76423 8.21617
#
# Velocity S-wave (km/s) = 0.63942 3.10595 2.24229
# Velocity P-wave (km/s) = 6.01794 7.00803 6.53177
#
# Compressibility (1/GPa) = 0.01715560
#
# Stress axis : x y z
#
# Youngs Moduli (GPa) = 1.08256 1.08256 106.96114
#
# Poissons Ratio (x) = 0.99020 0.27562
# Poissons Ratio (y) = 0.99020 0.27562
# Poissons Ratio (z) = 0.00279 0.00279
#
# Static dielectric constant tensor:
#      x y z
#    x 1.540300 0.000000 0.000000 
#    y 0.000000 1.540300 0.000000 
#    z 0.000000 0.000000 1.580900 
# 
# From -- ./inp_files/8588.got.cif
#   From: 2010.05.17/outbox.cif.g08.bks.cpg/sg191_5_cif.got.tgz:8588.got - 2010.05.20 12:20:32.
