data_PCOD9587099
_publ_section_title
;
Structure prediction by ZEFSAII (Michael W. Deem and Ramdas Pophale) SiO2 
 PCOD9587099
Probable space group: P 6/M M M
;
_chemical_formula_sum "Si O2"
_cell_formula_units_Z 84
_cell_length_a 18.378951
_cell_length_b 18.378951
_cell_length_c 18.249494
_cell_angle_alpha 90.000000
_cell_angle_beta 90.000000
_cell_angle_gamma 120.000000
_cell_volume 5338.544889
_symmetry_space_group_name_H-M "P 6/M M M"
_symmetry_group_IT_number 191
_symmetry_cell_setting 'hexagonal'
loop_
_space_group_symop_operation_xyz
x,y,z
x-y,x,z
-y,x-y,z
-x,-y,z
-x+y,-x,z
y,-x+y,z
x-y,-y,-z
-x,-x+y,-z
y,x,-z
-y,-x,-z
-x+y,y,-z
x,x-y,-z
-x,-y,-z
-x+y,-x,-z
y,-x+y,-z
x,y,-z
x-y,x,-z
-y,x-y,-z
-x+y,y,z
x,x-y,z
-y,-x,z
y,x,z
x-y,-y,z
-x,-x+y,z
loop_
_atom_site_type_symbol
_atom_site_label
_atom_site_fract_x
_atom_site_fract_y
_atom_site_fract_z
Si Si1 0.163089 0.665985 0.585862
Si Si2 0.899320 0.366115 0.845176
Si Si3 0.638786 0.902454 0.709266
Si Si4 0.499277 0.330932 0.000000
O O1 0.141211 0.662984 0.500000
O O2 0.152726 0.576363 0.606285
O O3 0.260204 0.739796 0.593759
O O4 0.110263 0.692534 0.637549
O O5 0.867929 0.433965 0.834627
O O6 0.878317 0.303434 0.777835
O O7 0.000000 0.420199 0.848479
O O8 0.867616 0.320518 0.923268
O O9 0.670042 0.835021 0.705771
O O10 0.709084 0.000000 0.716234
O O11 0.573225 0.426776 0.000000
O O12 0.534154 0.267077 0.000000
#
# Coordination Sequence:
#
# PCOD9587099 Si02
#       4
#    24  24  24  12
#     4   9  17  29  46  69  97 127 155 181 210 247
#     4   9  17  29  45  64  86 113 144 178 217 260
#     4  10  20  33  48  66  88 114 146 185 228 271
#     4  10  18  27  39  57  84 117 151 181 207 238
#
# _framework density 15.734624999999999
#
# number of rings (size 3 to 8) (size 9 to 14) (size 15 to 20)
#    0.000    2.571    0.000    2.571    0.000    5.143 
#    0.000    1.429    0.000    9.429    0.000    0.000 
#    0.000    0.000    0.000    7.143    0.000   29.714 
#
# Total GULP energy -467985.852881 kJ/mol
# GULP energy per Si atom -5571.260153 kJ/mol
# Density = 1.569881 g / cm^3
# Si number density = 15.734625 Si / 1000 Ang^3
#
#
#
# Elastic Constant Matrix: (Units=GPa)
#
#
# Indices 1 2 3 4 5 6 
#
# 1 58.9622 39.5759 31.8548 0.0000 0.0000 0.0000
# 2 39.5759 58.9622 31.8548 0.0000 0.0000 0.0000
# 3 31.8548 31.8548 71.0127 0.0000 0.0000 0.0000
# 4 0.0000 0.0000 0.0000 16.5165 0.0000 0.0000
# 5 0.0000 0.0000 0.0000 0.0000 16.5165 0.0000
# 6 0.0000 0.0000 0.0000 0.0000 0.0000 9.6931
#
#
#
# Elastic Compliance Matrix: (Units=1/GPa)
#
#
# Indices 1 2 3 4 5 6 
#
# 1 0.032938 -0.018644 -0.006412 0.000000 0.000000 0.000000
# 2 -0.018644 0.032938 -0.006412 0.000000 0.000000 0.000000
# 3 -0.006412 -0.006412 0.019835 0.000000 0.000000 0.000000
# 4 0.000000 0.000000 0.000000 0.060545 0.000000 0.000000
# 5 0.000000 0.000000 0.000000 0.000000 0.060545 0.000000
# 6 0.000000 0.000000 0.000000 0.000000 0.000000 0.103166
#
#
# Mechanical properties :
#
#
# Convention : Reuss Voigt Hill
#
# Bulk Modulus (GPa) = 43.90851 43.94532 43.92692
# Shear Modulus (GPa) = 13.14071 14.25533 13.69802
#
# Velocity S-wave (km/s) = 2.89303 3.01322 2.95374
# Velocity P-wave (km/s) = 6.25505 6.33212 6.29370
#
# Compressibility (1/GPa) = 0.02277463
#
# Stress axis : x y z
#
# Youngs Moduli (GPa) = 30.35963 30.35963 50.41703
#
# Poissons Ratio (x) = 0.56604 0.32327
# Poissons Ratio (y) = 0.56604 0.32327
# Poissons Ratio (z) = 0.19467 0.19467
#
# Static dielectric constant tensor:
#      x y z
#    x 1.511110 0.000000 0.000000 
#    y 0.000000 1.511110 0.000000 
#    z 0.000000 0.000000 1.551470 
# 
# From -- ./inp_files/3993.got.cif
#   From: 2010.05.17/outbox.cif.g08.bks.cpg/sg191_2_cif.got.tgz:3993.got - 2010.05.20 12:20:32.
