data_PCOD9587244
_publ_section_title
;
Structure prediction by ZEFSAII (Michael W. Deem and Ramdas Pophale) SiO2 
 PCOD9587244
Probable space group: P 6/M M M
;
_chemical_formula_sum "Si O2"
_cell_formula_units_Z 120
_cell_length_a 27.413539
_cell_length_b 27.413539
_cell_length_c 12.407209
_cell_angle_alpha 90.000000
_cell_angle_beta 90.000000
_cell_angle_gamma 120.000000
_cell_volume 8074.858860
_symmetry_space_group_name_H-M "P 6/M M M"
_symmetry_group_IT_number 191
_symmetry_cell_setting 'hexagonal'
loop_
_space_group_symop_operation_xyz
x,y,z
x-y,x,z
-y,x-y,z
-x,-y,z
-x+y,-x,z
y,-x+y,z
x-y,-y,-z
-x,-x+y,-z
y,x,-z
-y,-x,-z
-x+y,y,-z
x,x-y,-z
-x,-y,-z
-x+y,-x,-z
y,-x+y,-z
x,y,-z
x-y,x,-z
-y,x-y,-z
-x+y,y,z
x,x-y,z
-y,-x,z
y,x,z
x-y,-y,z
-x,-x+y,z
loop_
_atom_site_type_symbol
_atom_site_label
_atom_site_fract_x
_atom_site_fract_y
_atom_site_fract_z
Si Si1 0.449999 0.783448 0.778615
Si Si2 0.675281 0.067813 0.000000
Si Si3 0.633298 0.151203 0.000000
Si Si4 0.935569 0.173359 0.872537
Si Si5 0.123746 0.361817 0.804748
Si Si6 0.551077 0.834483 0.621959
O O1 0.390230 0.780459 0.765619
O O2 0.442686 0.721343 0.776305
O O3 0.494732 0.820660 0.686669
O O4 0.475929 0.812536 0.893462
O O5 0.715506 0.095247 0.102987
O O6 0.633745 0.093187 0.000000
O O7 0.644383 0.000000 0.000000
O O8 0.570626 0.141252 0.000000
O O9 0.892513 0.107488 0.857672
O O10 0.912725 0.206963 0.802789
O O11 0.000000 0.194228 0.849933
O O12 0.931364 0.185808 0.000000
O O13 0.187894 0.375788 0.831433
O O14 0.127134 0.394858 0.695915
O O15 0.553563 0.854674 0.500000
O O16 0.549326 0.774663 0.616134
#
# Coordination Sequence:
#
# PCOD9587244 Si02
#       6
#    24  12  12  24  24  24
#     4  10  19  31  49  72  99 125 156 195 240 291
#     4  12  21  30  49  73  94 116 151 197 243 290
#     4  10  21  34  47  67  91 124 158 190 244 297
#     4   9  16  26  42  67  98 127 156 193 239 287
#     4  10  18  29  47  71  98 124 154 191 239 289
#     4   9  18  31  47  67  92 126 164 197 230 278
#
# _framework density 14.860941
#
# number of rings (size 3 to 8) (size 9 to 14) (size 15 to 20)
#    0.000    2.200    3.000    1.400    0.000    1.400 
#    0.000    1.000    0.000    3.800    0.000    1.400 
#    0.000    3.200    0.000    0.000    0.000    0.000 
#
# Total GULP energy -668443.085931 kJ/mol
# GULP energy per Si atom -5570.359049 kJ/mol
# Density = 1.482712 g / cm^3
# Si number density = 14.860941 Si / 1000 Ang^3
#
#
#
# Elastic Constant Matrix: (Units=GPa)
#
#
# Indices 1 2 3 4 5 6 
#
# 1 84.8832 56.5340 52.2310 0.0000 0.0000 0.0000
# 2 56.5340 84.8832 52.2310 0.0000 0.0000 0.0000
# 3 52.2310 52.2310 117.2829 0.0000 0.0000 0.0000
# 4 0.0000 0.0000 0.0000 7.4704 0.0000 0.0000
# 5 0.0000 0.0000 0.0000 0.0000 7.4704 0.0000
# 6 0.0000 0.0000 0.0000 0.0000 0.0000 14.1746
#
#
#
# Elastic Compliance Matrix: (Units=1/GPa)
#
#
# Indices 1 2 3 4 5 6 
#
# 1 0.022906 -0.012368 -0.004693 0.000000 0.000000 0.000000
# 2 -0.012368 0.022906 -0.004693 0.000000 0.000000 0.000000
# 3 -0.004693 -0.004693 0.012706 0.000000 0.000000 0.000000
# 4 0.000000 0.000000 0.000000 0.133861 0.000000 0.000000
# 5 0.000000 0.000000 0.000000 0.000000 0.133861 0.000000
# 6 0.000000 0.000000 0.000000 0.000000 0.000000 0.070549
#
#
# Mechanical properties :
#
#
# Convention : Reuss Voigt Hill
#
# Bulk Modulus (GPa) = 66.62115 67.67124 67.14620
# Shear Modulus (GPa) = 11.22836 14.22664 12.72750
#
# Velocity S-wave (km/s) = 2.75173 3.09741 2.92967
# Velocity P-wave (km/s) = 7.41775 7.64376 7.53161
#
# Compressibility (1/GPa) = 0.01501025
#
# Stress axis : x y z
#
# Youngs Moduli (GPa) = 43.65639 43.65639 78.70099
#
# Poissons Ratio (x) = 0.53996 0.36934
# Poissons Ratio (y) = 0.53996 0.36934
# Poissons Ratio (z) = 0.20488 0.20488
#
# Static dielectric constant tensor:
#      x y z
#    x 1.488330 0.000000 0.000000 
#    y 0.000000 1.488330 0.000000 
#    z 0.000000 0.000000 1.494920 
# 
# From -- ./inp_files/3244.got.cif
#   From: 2010.05.17/outbox.cif.g08.bks.cpg/sg191_2_cif.got.tgz:3244.got - 2010.05.20 12:20:32.
