data_PCOD9587788
_publ_section_title
;
Structure prediction by ZEFSAII (Michael W. Deem and Ramdas Pophale) SiO2 
 PCOD9587788
Probable space group: P 6/M M M
;
_chemical_formula_sum "Si O2"
_cell_formula_units_Z 108
_cell_length_a 28.753537
_cell_length_b 28.753537
_cell_length_c 7.579591
_cell_angle_alpha 90.000000
_cell_angle_beta 90.000000
_cell_angle_gamma 120.000000
_cell_volume 5426.989155
_symmetry_space_group_name_H-M "P 6/M M M"
_symmetry_group_IT_number 191
_symmetry_cell_setting 'hexagonal'
loop_
_space_group_symop_operation_xyz
x,y,z
x-y,x,z
-y,x-y,z
-x,-y,z
-x+y,-x,z
y,-x+y,z
x-y,-y,-z
-x,-x+y,-z
y,x,-z
-y,-x,-z
-x+y,y,-z
x,x-y,-z
-x,-y,-z
-x+y,-x,-z
y,-x+y,-z
x,y,-z
x-y,x,-z
-y,x-y,-z
-x+y,y,z
x,x-y,z
-y,-x,z
y,x,z
x-y,-y,z
-x,-x+y,z
loop_
_atom_site_type_symbol
_atom_site_label
_atom_site_fract_x
_atom_site_fract_y
_atom_site_fract_z
Si Si1 0.556578 0.000000 0.201757
Si Si2 0.611857 0.494583 0.782826
Si Si3 0.559645 0.831726 0.792690
Si Si4 0.164865 0.940457 0.213269
Si Si5 0.666280 0.940511 0.291966
O O1 0.597407 0.057633 0.280219
O O2 0.500000 0.000000 0.195993
O O3 0.573560 0.000000 0.000000
O O4 0.563708 0.436293 0.729842
O O5 0.671384 0.512388 0.721472
O O6 0.610723 0.495527 0.000000
O O7 0.564724 0.782362 0.717085
O O8 0.614528 0.888460 0.780077
O O9 0.548674 0.821349 0.000000
O O10 0.109242 0.890759 0.278061
O O11 0.215566 0.933739 0.262430
O O12 0.179939 0.000000 0.273802
O O13 0.162653 0.940127 0.000000
O O14 0.658030 0.941379 0.500000
O O15 0.682961 0.000000 0.220415
#
# Coordination Sequence:
#
# PCOD9587788 Si02
#       5
#    12  24  24  24  24
#     4   7  10  18  34  58  81 103 139 181 217 253
#     4   8  14  25  42  64  90 118 150 188 224 262
#     4  10  20  31  46  71  99 125 156 194 235 280
#     4   9  17  30  48  68  90 118 154 194 233 274
#     4  10  21  34  47  66  93 125 159 192 230 281
#
# _framework density 19.900538000000001
#
# number of rings (size 3 to 8) (size 9 to 14) (size 15 to 20)
#    0.000    3.000    0.000    2.667    1.556    4.889 
#    0.000    0.000    0.000    1.333    0.000    6.222 
#    0.000    0.000    0.000    5.556    0.000    5.778 
#
# Total GULP energy -602217.309990 kJ/mol
# GULP energy per Si atom -5576.086204 kJ/mol
# Density = 1.985524 g / cm^3
# Si number density = 19.900538 Si / 1000 Ang^3
#
#
#
# Elastic Constant Matrix: (Units=GPa)
#
#
# Indices 1 2 3 4 5 6 
#
# 1 134.9227 93.8690 2.7830 0.0000 0.0000 0.0000
# 2 93.8690 134.9227 2.7830 0.0000 0.0000 0.0000
# 3 2.7830 2.7830 47.0468 0.0000 0.0000 0.0000
# 4 0.0000 0.0000 0.0000 -59.7715 0.0000 0.0000
# 5 0.0000 0.0000 0.0000 0.0000 -59.7715 0.0000
# 6 0.0000 0.0000 0.0000 0.0000 0.0000 20.5269
#
#
#
# Elastic Compliance Matrix: (Units=1/GPa)
#
#
# Indices 1 2 3 4 5 6 
#
# 1 0.014368 -0.009991 -0.000259 0.000000 0.000000 0.000000
# 2 -0.009991 0.014368 -0.000259 0.000000 0.000000 0.000000
# 3 -0.000259 -0.000259 0.021286 0.000000 0.000000 0.000000
# 4 0.000000 0.000000 0.000000 -0.016730 0.000000 0.000000
# 5 0.000000 0.000000 0.000000 0.000000 -0.016730 0.000000
# 6 0.000000 0.000000 0.000000 0.000000 0.000000 0.048717
#
#
# Mechanical properties :
#
#
# Convention : Reuss Voigt Hill
#
# Bulk Modulus (GPa) = 34.47739 57.30695 45.89217
# Shear Modulus (GPa) = 52.10370 -5.30609 23.39880
#
# Velocity S-wave (km/s) = 5.12239 -1.63465 3.43270
# Velocity P-wave (km/s) = 7.23517 5.02955 6.23073
#
# Compressibility (1/GPa) = 0.02900452
#
# Stress axis : x y z
#
# Youngs Moduli (GPa) = 69.60053 69.60053 46.97914
#
# Poissons Ratio (x) = 0.69535 0.01216
# Poissons Ratio (y) = 0.69535 0.01216
# Poissons Ratio (z) = 0.01802 0.01802
#
# Static dielectric constant tensor:
#      x y z
#    x 1.720970 0.000000 0.000000 
#    y 0.000000 1.720970 0.000000 
#    z 0.000000 0.000000 1.753600 
# 
# From -- ./inp_files/1727.got.cif
#   From: 2010.05.17/outbox.cif.g08.bks.cpg/sg191_1_cif.got.tgz:1727.got - 2010.05.20 12:20:32.
