data_PCOD9587905
_publ_section_title
;
Structure prediction by ZEFSAII (Michael W. Deem and Ramdas Pophale) SiO2 
 PCOD9587905
Probable space group: P 6/M M M
;
_chemical_formula_sum "Si O2"
_cell_formula_units_Z 132
_cell_length_a 17.978752
_cell_length_b 17.978752
_cell_length_c 28.380210
_cell_angle_alpha 90.000000
_cell_angle_beta 90.000000
_cell_angle_gamma 120.000000
_cell_volume 7944.477144
_symmetry_space_group_name_H-M "P 6/M M M"
_symmetry_group_IT_number 191
_symmetry_cell_setting 'hexagonal'
loop_
_space_group_symop_operation_xyz
x,y,z
x-y,x,z
-y,x-y,z
-x,-y,z
-x+y,-x,z
y,-x+y,z
x-y,-y,-z
-x,-x+y,-z
y,x,-z
-y,-x,-z
-x+y,y,-z
x,x-y,-z
-x,-y,-z
-x+y,-x,-z
y,-x+y,-z
x,y,-z
x-y,x,-z
-y,x-y,-z
-x+y,y,z
x,x-y,z
-y,-x,z
y,x,z
x-y,-y,z
-x,-x+y,z
loop_
_atom_site_type_symbol
_atom_site_label
_atom_site_fract_x
_atom_site_fract_y
_atom_site_fract_z
Si Si1 0.494780 0.163332 0.718187
Si Si2 0.731248 0.630914 0.089854
Si Si3 0.332223 0.843625 0.386139
Si Si4 0.000000 0.345380 0.556463
Si Si5 0.636286 0.533615 0.181522
Si Si6 0.000000 0.828583 0.442717
Si Si7 0.509596 0.842300 0.000000
O O1 0.571679 0.143358 0.720333
O O2 0.529665 0.264833 0.716185
O O3 0.451741 0.129439 0.667407
O O4 0.447765 0.130446 0.767862
O O5 0.832206 0.664412 0.084412
O O6 0.702308 0.702308 0.092021
O O7 0.697965 0.573506 0.137147
O O8 0.683466 0.568143 0.045923
O O9 0.417238 0.834475 0.386723
O O10 0.247482 0.752519 0.396192
O O11 0.342122 0.916033 0.422017
O O12 0.000000 0.258120 0.570061
O O13 0.000000 0.350605 0.500000
O O14 0.568554 0.431447 0.176123
O O15 0.579710 0.579710 0.182262
O O16 0.913875 0.827750 0.426817
O O17 0.000000 0.831105 0.500000
O O18 0.425814 0.851628 0.000000
O O19 0.484795 0.742398 0.000000
#
# Coordination Sequence:
#
# PCOD9587905 Si02
#       7
#    24  24  24  12  24  12  12
#     4   9  17  29  46  67  92 123 159 199 241 288
#     4  10  20  33  49  70  97 131 171 214 257 301
#     4  10  21  36  54  74  99 132 170 209 251 299
#     4  11  23  37  53  75 103 131 163 204 249 295
#     4   9  17  28  45  70  99 128 159 196 241 295
#     4   9  17  31  53  79 105 131 159 193 236 287
#     4  10  20  33  50  73 104 140 175 206 240 287
#
# _framework density 16.615316
#
# number of rings (size 3 to 8) (size 9 to 14) (size 15 to 20)
#    0.000    2.364    0.000    2.727    1.273    5.091 
#    0.000    0.000    0.000    7.091    0.000    0.000 
#    0.000    2.182    0.000    0.000    0.000    0.000 
#
# Total GULP energy -735426.521393 kJ/mol
# GULP energy per Si atom -5571.413041 kJ/mol
# Density = 1.657750 g / cm^3
# Si number density = 16.615316 Si / 1000 Ang^3
#
#
#
# Elastic Constant Matrix: (Units=GPa)
#
#
# Indices 1 2 3 4 5 6 
#
# 1 86.3975 49.0364 45.6007 0.0000 0.0000 0.0000
# 2 49.0364 86.3975 45.6007 0.0000 0.0000 0.0000
# 3 45.6007 45.6007 119.7846 0.0000 0.0000 0.0000
# 4 0.0000 0.0000 0.0000 19.8802 0.0000 0.0000
# 5 0.0000 0.0000 0.0000 0.0000 19.8802 0.0000
# 6 0.0000 0.0000 0.0000 0.0000 0.0000 18.6805
#
#
#
# Elastic Compliance Matrix: (Units=1/GPa)
#
#
# Indices 1 2 3 4 5 6 
#
# 1 0.018347 -0.008418 -0.003780 0.000000 0.000000 0.000000
# 2 -0.008418 0.018347 -0.003780 0.000000 0.000000 0.000000
# 3 -0.003780 -0.003780 0.011226 0.000000 0.000000 0.000000
# 4 0.000000 0.000000 0.000000 0.050301 0.000000 0.000000
# 5 0.000000 0.000000 0.000000 0.000000 0.050301 0.000000
# 6 0.000000 0.000000 0.000000 0.000000 0.000000 0.053532
#
#
# Mechanical properties :
#
#
# Convention : Reuss Voigt Hill
#
# Bulk Modulus (GPa) = 62.63773 63.67279 63.15526
# Shear Modulus (GPa) = 20.89137 21.84431 21.36784
#
# Velocity S-wave (km/s) = 3.54977 3.62983 3.59002
# Velocity P-wave (km/s) = 7.38795 7.48147 7.43486
#
# Compressibility (1/GPa) = 0.01596482
#
# Stress axis : x y z
#
# Youngs Moduli (GPa) = 54.50349 54.50349 89.07694
#
# Poissons Ratio (x) = 0.45883 0.33670
# Poissons Ratio (y) = 0.45883 0.33670
# Poissons Ratio (z) = 0.20602 0.20602
#
# Static dielectric constant tensor:
#      x y z
#    x 1.551760 0.000000 0.000000 
#    y 0.000000 1.551760 0.000000 
#    z 0.000000 0.000000 1.586140 
# 
# From -- ./inp_files/8730.got.cif
#   From: 2010.05.17/outbox.cif.g08.bks.cpg/sg191_5_cif.got.tgz:8730.got - 2010.05.20 12:20:32.
