data_PCOD9587628
_publ_section_title
;
Structure prediction by ZEFSAII (Michael W. Deem and Ramdas Pophale) SiO2 
 PCOD9587628
Probable space group: P 6/M M M
;
_chemical_formula_sum "Si O2"
_cell_formula_units_Z 120
_cell_length_a 23.792801
_cell_length_b 23.792801
_cell_length_c 14.284361
_cell_angle_alpha 90.000000
_cell_angle_beta 90.000000
_cell_angle_gamma 120.000000
_cell_volume 7002.975282
_symmetry_space_group_name_H-M "P 6/M M M"
_symmetry_group_IT_number 191
_symmetry_cell_setting 'hexagonal'
loop_
_space_group_symop_operation_xyz
x,y,z
x-y,x,z
-y,x-y,z
-x,-y,z
-x+y,-x,z
y,-x+y,z
x-y,-y,-z
-x,-x+y,-z
y,x,-z
-y,-x,-z
-x+y,y,-z
x,x-y,-z
-x,-y,-z
-x+y,-x,-z
y,-x+y,-z
x,y,-z
x-y,x,-z
-y,x-y,-z
-x+y,y,z
x,x-y,z
-y,-x,z
y,x,z
x-y,-y,z
-x,-x+y,z
loop_
_atom_site_type_symbol
_atom_site_label
_atom_site_fract_x
_atom_site_fract_y
_atom_site_fract_z
Si Si1 0.729604 0.927844 0.612481
Si Si2 0.733197 0.599451 0.280874
Si Si3 0.210447 0.544509 0.112333
Si Si4 0.424186 0.350262 0.109307
Si Si5 0.200927 0.666482 0.611133
O O1 0.730003 0.927926 0.500000
O O2 0.745718 0.872859 0.644712
O O3 0.657336 0.905735 0.646715
O O4 0.778847 0.000000 0.645988
O O5 0.800147 0.600293 0.260099
O O6 0.704124 0.613053 0.187646
O O7 0.685148 0.529679 0.328266
O O8 0.261349 0.522697 0.145758
O O9 0.230409 0.615205 0.149634
O O10 0.134232 0.496310 0.126462
O O11 0.217008 0.549121 0.000000
O O12 0.408125 0.408125 0.121928
O O13 0.408809 0.329525 0.000000
O O14 0.186793 0.666759 0.500000
O O15 0.194041 0.597021 0.633170
O O16 0.274900 0.725101 0.624806
#
# Coordination Sequence:
#
# PCOD9587628 Si02
#       5
#    24  24  24  24  24
#     4   9  17  30  50  75 100 125 154 189 229 275
#     4  10  19  31  49  72  97 125 160 201 241 281
#     4   9  17  30  48  67  85 107 140 185 235 282
#     4  10  21  35  49  66  91 125 164 202 241 288
#     4   9  17  30  49  73 100 128 158 194 239 290
#
# _framework density 17.135573999999998
#
# number of rings (size 3 to 8) (size 9 to 14) (size 15 to 20)
#    0.000    2.600    0.000    2.200    0.000    6.400 
#    0.000    2.000    0.000    4.400    0.000    8.400 
#    0.000    0.000    0.000    0.000    0.000    0.000 
#
# Total GULP energy -668260.551966 kJ/mol
# GULP energy per Si atom -5568.837933 kJ/mol
# Density = 1.709657 g / cm^3
# Si number density = 17.135574 Si / 1000 Ang^3
#
#
#
# Elastic Constant Matrix: (Units=GPa)
#
#
# Indices 1 2 3 4 5 6 
#
# 1 99.1347 73.9634 28.0637 0.0000 0.0000 0.0000
# 2 73.9634 99.1347 28.0637 0.0000 0.0000 0.0000
# 3 28.0637 28.0637 62.9605 0.0000 0.0000 0.0000
# 4 0.0000 0.0000 0.0000 15.2844 0.0000 0.0000
# 5 0.0000 0.0000 0.0000 0.0000 15.2844 0.0000
# 6 0.0000 0.0000 0.0000 0.0000 0.0000 12.5856
#
#
#
# Elastic Compliance Matrix: (Units=1/GPa)
#
#
# Indices 1 2 3 4 5 6 
#
# 1 0.023240 -0.016487 -0.003010 0.000000 0.000000 0.000000
# 2 -0.016487 0.023240 -0.003010 0.000000 0.000000 0.000000
# 3 -0.003010 -0.003010 0.018566 0.000000 0.000000 0.000000
# 4 0.000000 0.000000 0.000000 0.065426 0.000000 0.000000
# 5 0.000000 0.000000 0.000000 0.000000 0.065426 0.000000
# 6 0.000000 0.000000 0.000000 0.000000 0.000000 0.079456
#
#
# Mechanical properties :
#
#
# Convention : Reuss Voigt Hill
#
# Bulk Modulus (GPa) = 49.91959 57.93460 53.92710
# Shear Modulus (GPa) = 15.28827 17.37348 16.33088
#
# Velocity S-wave (km/s) = 2.99020 3.18761 3.09048
# Velocity P-wave (km/s) = 6.41226 6.88700 6.65387
#
# Compressibility (1/GPa) = 0.02003221
#
# Stress axis : x y z
#
# Youngs Moduli (GPa) = 43.02842 43.02842 53.86084
#
# Poissons Ratio (x) = 0.70943 0.16213
# Poissons Ratio (y) = 0.70943 0.16213
# Poissons Ratio (z) = 0.12952 0.12952
#
# Static dielectric constant tensor:
#      x y z
#    x 1.585840 0.000000 0.000000 
#    y 0.000000 1.585840 0.000000 
#    z 0.000000 0.000000 1.621110 
# 
# From -- ./inp_files/4657.got.cif
#   From: 2010.05.17/outbox.cif.g08.bks.cpg/sg191_3_cif.got.tgz:4657.got - 2010.05.20 12:20:32.
