data_PCOD9587750
_publ_section_title
;
Structure prediction by ZEFSAII (Michael W. Deem and Ramdas Pophale) SiO2 
 PCOD9587750
Probable space group: P 6/M M M
;
_chemical_formula_sum "Si O2"
_cell_formula_units_Z 162
_cell_length_a 23.345945
_cell_length_b 23.345945
_cell_length_c 19.950149
_cell_angle_alpha 90.000000
_cell_angle_beta 90.000000
_cell_angle_gamma 120.000000
_cell_volume 9416.720743
_symmetry_space_group_name_H-M "P 6/M M M"
_symmetry_group_IT_number 191
_symmetry_cell_setting 'hexagonal'
loop_
_space_group_symop_operation_xyz
x,y,z
x-y,x,z
-y,x-y,z
-x,-y,z
-x+y,-x,z
y,-x+y,z
x-y,-y,-z
-x,-x+y,-z
y,x,-z
-y,-x,-z
-x+y,y,-z
x,x-y,-z
-x,-y,-z
-x+y,-x,-z
y,-x+y,-z
x,y,-z
x-y,x,-z
-y,x-y,-z
-x+y,y,z
x,x-y,z
-y,-x,z
y,x,z
x-y,-y,z
-x,-x+y,z
loop_
_atom_site_type_symbol
_atom_site_label
_atom_site_fract_x
_atom_site_fract_y
_atom_site_fract_z
Si Si1 0.680992 0.605181 0.923044
Si Si2 0.700877 0.126690 0.377448
Si Si3 0.206445 0.924492 0.835758
Si Si4 0.532910 0.199314 0.111995
Si Si5 0.796046 0.075866 0.324700
Si Si6 0.774244 0.225757 0.500000
Si Si7 0.433968 0.000000 0.419486
Si Si8 0.538035 0.204697 0.727095
O O1 0.622693 0.622693 0.910327
O O2 0.740665 0.651692 0.873589
O O3 0.661777 0.529490 0.914289
O O4 0.702576 0.624437 0.000000
O O5 0.752617 0.102093 0.361575
O O6 0.726069 0.175060 0.440766
O O7 0.630388 0.064022 0.392761
O O8 0.692851 0.163570 0.313300
O O9 0.132510 0.867491 0.853280
O O10 0.213869 0.921775 0.755440
O O11 0.226638 0.000000 0.852404
O O12 0.602836 0.205671 0.092514
O O13 0.529636 0.264818 0.092174
O O14 0.528688 0.195065 0.193141
O O15 0.872648 0.127353 0.339143
O O16 0.770042 0.000000 0.342993
O O17 0.500000 0.000000 0.398474
O O18 0.431539 0.000000 0.500000
O O19 0.593617 0.187234 0.705453
O O20 0.563425 0.281713 0.714156
#
# Coordination Sequence:
#
# PCOD9587750 Si02
#       8
#    24  24  24  24  24   6  12  24
#     4  10  21  36  54  77 108 144 178 218 272 328
#     4  12  21  37  55  77 107 136 176 219 267 319
#     4   9  18  32  52  80 108 140 180 222 267 318
#     4  10  21  37  57  80 103 135 177 221 266 316
#     4  10  19  33  56  81 108 140 177 223 270 318
#     4  12  24  34  56  84 106 140 175 222 268 325
#     4  11  24  38  52  72 102 146 174 206 264 324
#     4  10  20  36  57  77 102 136 177 222 265 312
#
# _framework density 17.203441000000002
#
# number of rings (size 3 to 8) (size 9 to 14) (size 15 to 20)
#    0.000    1.704    2.963    2.074    0.000    5.333 
#    1.333    0.741    0.000    1.185    0.000    2.074 
#    0.000    0.000    0.000    4.370    0.000    4.148 
#
# Total GULP energy -902362.354250 kJ/mol
# GULP energy per Si atom -5570.137989 kJ/mol
# Density = 1.716429 g / cm^3
# Si number density = 17.203441 Si / 1000 Ang^3
#
#
#
# Elastic Constant Matrix: (Units=GPa)
#
#
# Indices 1 2 3 4 5 6 
#
# 1 84.0311 38.8389 9.0968 0.0000 0.0000 0.0000
# 2 38.8389 84.0311 9.0968 0.0000 0.0000 0.0000
# 3 9.0968 9.0968 20.2699 0.0000 0.0000 0.0000
# 4 0.0000 0.0000 0.0000 0.9330 0.0000 0.0000
# 5 0.0000 0.0000 0.0000 0.0000 0.9330 0.0000
# 6 0.0000 0.0000 0.0000 0.0000 0.0000 22.5961
#
#
#
# Elastic Compliance Matrix: (Units=1/GPa)
#
#
# Indices 1 2 3 4 5 6 
#
# 1 0.015423 -0.006705 -0.003912 0.000000 0.000000 0.000000
# 2 -0.006705 0.015423 -0.003912 0.000000 0.000000 0.000000
# 3 -0.003912 -0.003912 0.052846 0.000000 0.000000 0.000000
# 4 0.000000 0.000000 0.000000 1.071773 0.000000 0.000000
# 5 0.000000 0.000000 0.000000 0.000000 1.071772 0.000000
# 6 0.000000 0.000000 0.000000 0.000000 0.000000 0.044255
#
#
# Mechanical properties :
#
#
# Convention : Reuss Voigt Hill
#
# Bulk Modulus (GPa) = 18.30431 33.59966 25.95198
# Shear Modulus (GPa) = 2.15632 13.64575 7.90104
#
# Velocity S-wave (km/s) = 1.12078 2.81943 2.14539
# Velocity P-wave (km/s) = 3.51253 5.49292 4.61031
#
# Compressibility (1/GPa) = 0.05463195
#
# Stress axis : x y z
#
# Youngs Moduli (GPa) = 64.83885 64.83885 18.92297
#
# Poissons Ratio (x) = 0.43473 0.07404
# Poissons Ratio (y) = 0.43473 0.07404
# Poissons Ratio (z) = 0.25368 0.25368
#
# Static dielectric constant tensor:
#      x y z
#    x 1.580550 0.000000 0.000000 
#    y 0.000000 1.580550 0.000000 
#    z 0.000000 0.000000 1.571530 
# 
# From -- ./inp_files/6753.got.cif
#   From: 2010.05.17/outbox.cif.g08.bks.cpg/sg191_4_cif.got.tgz:6753.got - 2010.05.20 12:20:32.
