data_PCOD9587070
_publ_section_title
;
Structure prediction by ZEFSAII (Michael W. Deem and Ramdas Pophale) SiO2 
 PCOD9587070
Probable space group: P 6/M M M
;
_chemical_formula_sum "Si O2"
_cell_formula_units_Z 192
_cell_length_a 31.435041
_cell_length_b 31.435041
_cell_length_c 14.121261
_cell_angle_alpha 90.000000
_cell_angle_beta 90.000000
_cell_angle_gamma 120.000000
_cell_volume 12084.597055
_symmetry_space_group_name_H-M "P 6/M M M"
_symmetry_group_IT_number 191
_symmetry_cell_setting 'hexagonal'
loop_
_space_group_symop_operation_xyz
x,y,z
x-y,x,z
-y,x-y,z
-x,-y,z
-x+y,-x,z
y,-x+y,z
x-y,-y,-z
-x,-x+y,-z
y,x,-z
-y,-x,-z
-x+y,y,-z
x,x-y,-z
-x,-y,-z
-x+y,-x,-z
y,-x+y,-z
x,y,-z
x-y,x,-z
-y,x-y,-z
-x+y,y,z
x,x-y,z
-y,-x,z
y,x,z
x-y,-y,z
-x,-x+y,z
loop_
_atom_site_type_symbol
_atom_site_label
_atom_site_fract_x
_atom_site_fract_y
_atom_site_fract_z
Si Si1 0.481001 0.613681 0.735294
Si Si2 0.615173 0.703452 0.110779
Si Si3 0.764066 0.707328 0.242496
Si Si4 0.945368 0.568371 0.388165
Si Si5 0.942827 0.154809 0.889722
Si Si6 0.453253 0.274905 0.242726
Si Si7 0.626452 0.888354 0.612088
Si Si8 0.591359 0.054375 0.110658
O O1 0.424469 0.575532 0.714921
O O2 0.517694 0.611498 0.658327
O O3 0.499602 0.671291 0.743836
O O4 0.496923 0.596242 0.829559
O O5 0.665683 0.729045 0.167575
O O6 0.579852 0.720630 0.160010
O O7 0.586106 0.644618 0.121019
O O8 0.622575 0.715502 0.000000
O O9 0.737533 0.737533 0.274135
O O10 0.812624 0.744709 0.184240
O O11 0.769038 0.676846 0.329603
O O12 0.881506 0.630070 0.500000
O O13 0.928761 0.608953 0.373990
O O14 0.000000 0.589310 0.349774
O O15 0.902219 0.097782 0.877038
O O16 0.000000 0.170543 0.877005
O O17 0.938342 0.167422 0.000000
O O18 0.465957 0.232979 0.222185
O O19 0.417802 0.259518 0.335241
O O20 0.561413 0.945862 0.500000
O O21 0.550258 0.000000 0.140810
O O22 0.584171 0.059737 0.000000
#
# Coordination Sequence:
#
# PCOD9587070 Si02
#       8
#    24  24  24  24  24  24  24  24
#     4  10  20  32  46  64  86 111 139 174 219 268
#     4   9  17  28  43  64  91 122 154 186 215 245
#     4  10  18  26  41  67  97 128 159 186 214 251
#     4   9  17  29  45  65  90 120 151 179 206 239
#     4   9  18  32  48  66  90 120 152 187 230 276
#     4   9  19  34  49  64  83 109 144 186 231 276
#     4   9  18  31  46  65  91 124 160 192 216 243
#     4   9  17  28  42  62  90 123 153 175 197 234
#
# _framework density 15.887993
#
# number of rings (size 3 to 8) (size 9 to 14) (size 15 to 20)
#    0.000    2.750    0.000    2.250    0.000    6.000 
#    0.000    1.250    0.000    0.375    0.000    0.875 
#    0.000    0.000    0.000   12.500    0.000    0.000 
#
# Total GULP energy -1070045.879088 kJ/mol
# GULP energy per Si atom -5573.155620 kJ/mol
# Density = 1.585183 g / cm^3
# Si number density = 15.887993 Si / 1000 Ang^3
#
#
#
# Elastic Constant Matrix: (Units=GPa)
#
#
# Indices 1 2 3 4 5 6 
#
# 1 57.6356 55.2805 18.1436 0.0000 0.0000 0.0000
# 2 55.2805 57.6356 18.1436 0.0000 0.0000 0.0000
# 3 18.1436 18.1436 73.3109 0.0000 0.0000 0.0000
# 4 0.0000 0.0000 0.0000 10.9587 0.0000 0.0000
# 5 0.0000 0.0000 0.0000 0.0000 10.9587 0.0000
# 6 0.0000 0.0000 0.0000 0.0000 0.0000 1.1775
#
#
#
# Elastic Compliance Matrix: (Units=1/GPa)
#
#
# Indices 1 2 3 4 5 6 
#
# 1 0.217120 -0.207499 -0.002381 0.000000 0.000000 0.000000
# 2 -0.207499 0.217120 -0.002381 0.000000 0.000000 0.000000
# 3 -0.002381 -0.002381 0.014819 0.000000 0.000000 0.000000
# 4 0.000000 0.000000 0.000000 0.091251 0.000000 0.000000
# 5 0.000000 0.000000 0.000000 0.000000 0.091251 0.000000
# 6 0.000000 0.000000 0.000000 0.000000 0.000000 0.849239
#
#
# Mechanical properties :
#
#
# Convention : Reuss Voigt Hill
#
# Bulk Modulus (GPa) = 40.75445 41.30192 41.02818
# Shear Modulus (GPa) = 2.61301 11.08663 6.84982
#
# Velocity S-wave (km/s) = 1.28383 2.64445 2.07862
# Velocity P-wave (km/s) = 5.28246 5.94780 5.62498
#
# Compressibility (1/GPa) = 0.02453720
#
# Stress axis : x y z
#
# Youngs Moduli (GPa) = 4.60574 4.60574 67.48019
#
# Poissons Ratio (x) = 0.95569 0.16068
# Poissons Ratio (y) = 0.95569 0.16068
# Poissons Ratio (z) = 0.01097 0.01097
#
# Static dielectric constant tensor:
#      x y z
#    x 1.530630 0.000000 0.000000 
#    y 0.000000 1.530630 0.000000 
#    z 0.000000 0.000000 1.555570 
# 
# From -- ./inp_files/5586.got.cif
#   From: 2010.05.17/outbox.cif.g08.bks.cpg/sg191_3_cif.got.tgz:5586.got - 2010.05.20 12:20:32.
