data_PCOD9587814
_publ_section_title
;
Structure prediction by ZEFSAII (Michael W. Deem and Ramdas Pophale) SiO2 
 PCOD9587814
Probable space group: P 6/M M M
;
_chemical_formula_sum "Si O2"
_cell_formula_units_Z 72
_cell_length_a 21.074504
_cell_length_b 21.074504
_cell_length_c 11.969558
_cell_angle_alpha 90.000000
_cell_angle_beta 90.000000
_cell_angle_gamma 120.000000
_cell_volume 4603.874425
_symmetry_space_group_name_H-M "P 6/M M M"
_symmetry_group_IT_number 191
_symmetry_cell_setting 'hexagonal'
loop_
_space_group_symop_operation_xyz
x,y,z
x-y,x,z
-y,x-y,z
-x,-y,z
-x+y,-x,z
y,-x+y,z
x-y,-y,-z
-x,-x+y,-z
y,x,-z
-y,-x,-z
-x+y,y,-z
x,x-y,-z
-x,-y,-z
-x+y,-x,-z
y,-x+y,-z
x,y,-z
x-y,x,-z
-y,x-y,-z
-x+y,y,z
x,x-y,z
-y,-x,z
y,x,z
x-y,-y,z
-x,-x+y,z
loop_
_atom_site_type_symbol
_atom_site_label
_atom_site_fract_x
_atom_site_fract_y
_atom_site_fract_z
Si Si1 0.815554 0.483038 0.633461
Si Si2 0.310666 0.228445 0.000000
Si Si3 0.576422 0.914483 0.179283
Si Si4 0.809309 0.336633 0.000000
O O1 0.824109 0.493882 0.500000
O O2 0.735843 0.471686 0.664312
O O3 0.819422 0.409711 0.659008
O O4 0.877385 0.553030 0.699978
O O5 0.359967 0.270159 0.890759
O O6 0.243648 0.243648 0.000000
O O7 0.291431 0.145716 0.000000
O O8 0.505836 0.862769 0.105102
O O9 0.600906 0.000000 0.181197
O O10 0.748552 0.251449 0.000000
O O11 0.772315 0.386158 0.000000
#
# Coordination Sequence:
#
# PCOD9587814 Si02
#       4
#    24  12  24  12
#     4  10  20  33  48  64  85 115 150 187 225 266
#     4   9  17  31  51  72  94 119 147 178 213 258
#     4  10  20  32  47  66  88 116 147 181 221 262
#     4  11  21  32  47  65  87 113 143 182 224 266
#
# _framework density 15.639002
#
# number of rings (size 3 to 8) (size 9 to 14) (size 15 to 20)
#    0.000    2.000    0.000    7.000    0.000    5.333 
#    0.000    5.000    0.000    0.167    0.000    0.000 
#    0.000    0.000    0.000    0.000    0.000    0.000 
#
# Total GULP energy -401285.938540 kJ/mol
# GULP energy per Si atom -5573.415813 kJ/mol
# Density = 1.560341 g / cm^3
# Si number density = 15.639002 Si / 1000 Ang^3
#
#
#
# Elastic Constant Matrix: (Units=GPa)
#
#
# Indices 1 2 3 4 5 6 
#
# 1 100.4586 60.2818 37.9551 0.0000 0.0000 0.0000
# 2 60.2818 100.4586 37.9551 0.0000 0.0000 0.0000
# 3 37.9551 37.9551 61.4755 0.0000 0.0000 0.0000
# 4 0.0000 0.0000 0.0000 14.2834 0.0000 0.0000
# 5 0.0000 0.0000 0.0000 0.0000 14.2834 0.0000
# 6 0.0000 0.0000 0.0000 0.0000 0.0000 20.0884
#
#
#
# Elastic Compliance Matrix: (Units=1/GPa)
#
#
# Indices 1 2 3 4 5 6 
#
# 1 0.016836 -0.008054 -0.005422 0.000000 0.000000 0.000000
# 2 -0.008054 0.016836 -0.005422 0.000000 0.000000 0.000000
# 3 -0.005422 -0.005422 0.022962 0.000000 0.000000 0.000000
# 4 0.000000 0.000000 0.000000 0.070011 0.000000 0.000000
# 5 0.000000 0.000000 0.000000 0.000000 0.070011 0.000000
# 6 0.000000 0.000000 0.000000 0.000000 0.000000 0.049780
#
#
# Mechanical properties :
#
#
# Convention : Reuss Voigt Hill
#
# Bulk Modulus (GPa) = 53.08534 59.41963 56.25248
# Shear Modulus (GPa) = 17.21108 18.14443 17.67776
#
# Velocity S-wave (km/s) = 3.32101 3.40987 3.36574
# Velocity P-wave (km/s) = 6.98021 7.31983 7.15204
#
# Compressibility (1/GPa) = 0.01883759
#
# Stress axis : x y z
#
# Youngs Moduli (GPa) = 59.39712 59.39712 43.55115
#
# Poissons Ratio (x) = 0.47839 0.23613
# Poissons Ratio (y) = 0.47839 0.23613
# Poissons Ratio (z) = 0.32204 0.32204
#
# Static dielectric constant tensor:
#      x y z
#    x 1.509450 0.000000 0.000000 
#    y 0.000000 1.509450 0.000000 
#    z 0.000000 0.000000 1.590690 
# 
# From -- ./inp_files/2312.got.cif
#   From: 2010.05.17/outbox.cif.g08.bks.cpg/sg191_2_cif.got.tgz:2312.got - 2010.05.20 12:20:32.
