data_PCOD9587736
_publ_section_title
;
Structure prediction by ZEFSAII (Michael W. Deem and Ramdas Pophale) SiO2 
 PCOD9587736
Probable space group: P 6/M M M
;
_chemical_formula_sum "Si O2"
_cell_formula_units_Z 120
_cell_length_a 18.388274
_cell_length_b 18.388274
_cell_length_c 24.842845
_cell_angle_alpha 90.000000
_cell_angle_beta 90.000000
_cell_angle_gamma 120.000000
_cell_volume 7274.680001
_symmetry_space_group_name_H-M "P 6/M M M"
_symmetry_group_IT_number 191
_symmetry_cell_setting 'hexagonal'
loop_
_space_group_symop_operation_xyz
x,y,z
x-y,x,z
-y,x-y,z
-x,-y,z
-x+y,-x,z
y,-x+y,z
x-y,-y,-z
-x,-x+y,-z
y,x,-z
-y,-x,-z
-x+y,y,-z
x,x-y,-z
-x,-y,-z
-x+y,-x,-z
y,-x+y,-z
x,y,-z
x-y,x,-z
-y,x-y,-z
-x+y,y,z
x,x-y,z
-y,-x,z
y,x,z
x-y,-y,z
-x,-x+y,z
loop_
_atom_site_type_symbol
_atom_site_label
_atom_site_fract_x
_atom_site_fract_y
_atom_site_fract_z
Si Si1 0.097813 0.360007 0.342026
Si Si2 0.903274 0.806548 0.065470
Si Si3 0.389150 0.194575 0.064495
Si Si4 0.531404 0.898146 0.439017
Si Si5 0.099976 0.465900 0.128144
Si Si6 0.333502 0.496345 0.749798
O O1 0.163457 0.326914 0.337185
O O2 0.123302 0.420740 0.394116
O O3 0.111823 0.420197 0.291185
O O4 0.000000 0.290574 0.346135
O O5 0.854470 0.854470 0.083504
O O6 0.854537 0.709074 0.080942
O O7 0.904347 0.808693 0.000000
O O8 0.433336 0.287320 0.089063
O O9 0.393381 0.196691 0.000000
O O10 0.535042 0.870557 0.500000
O O11 0.434739 0.869477 0.425817
O O12 0.580131 0.000000 0.439751
O O13 0.118706 0.559353 0.114340
O O14 0.130723 0.469504 0.189345
O O15 0.000000 0.405659 0.125640
O O16 0.259457 0.518913 0.746689
O O17 0.423241 0.576760 0.736315
#
# Coordination Sequence:
#
# PCOD9587736 Si02
#       6
#    24  12  12  24  24  24
#     4  10  20  32  49  74 102 134 175 221 265 308
#     4   9  17  30  51  78 106 134 164 202 249 304
#     4  11  22  37  54  77 104 136 172 211 256 309
#     4   8  14  26  45  70 101 135 168 202 245 301
#     4  10  21  37  56  77 103 136 173 213 255 302
#     4  10  19  33  54  80 107 134 163 201 246 298
#
# _framework density 16.495571000000002
#
# number of rings (size 3 to 8) (size 9 to 14) (size 15 to 20)
#    0.000    2.400    1.000    2.700    0.000    4.400 
#    0.600    1.000    0.000    0.600    0.000    0.000 
#    0.000    0.000    0.000    5.000    0.000    0.000 
#
# Total GULP energy -669183.494612 kJ/mol
# GULP energy per Si atom -5576.529122 kJ/mol
# Density = 1.645803 g / cm^3
# Si number density = 16.495571 Si / 1000 Ang^3
#
#
#
# Elastic Constant Matrix: (Units=GPa)
#
#
# Indices 1 2 3 4 5 6 
#
# 1 100.5805 66.0178 46.3926 0.0000 0.0000 0.0000
# 2 66.0178 100.5805 46.3926 0.0000 0.0000 0.0000
# 3 46.3926 46.3926 65.1499 0.0000 0.0000 0.0000
# 4 0.0000 0.0000 0.0000 18.4077 0.0000 0.0000
# 5 0.0000 0.0000 0.0000 0.0000 18.4077 0.0000
# 6 0.0000 0.0000 0.0000 0.0000 0.0000 17.2814
#
#
#
# Elastic Compliance Matrix: (Units=1/GPa)
#
#
# Indices 1 2 3 4 5 6 
#
# 1 0.019440 -0.009493 -0.007084 0.000000 0.000000 0.000000
# 2 -0.009493 0.019440 -0.007084 0.000000 0.000000 0.000000
# 3 -0.007084 -0.007084 0.025438 0.000000 0.000000 0.000000
# 4 0.000000 0.000000 0.000000 0.054325 0.000000 0.000000
# 5 0.000000 0.000000 0.000000 0.000000 0.054325 0.000000
# 6 0.000000 0.000000 0.000000 0.000000 0.000000 0.057866
#
#
# Mechanical properties :
#
#
# Convention : Reuss Voigt Hill
#
# Bulk Modulus (GPa) = 58.82917 64.87967 61.85442
# Shear Modulus (GPa) = 17.61680 17.98654 17.80167
#
# Velocity S-wave (km/s) = 3.27153 3.30568 3.28865
# Velocity P-wave (km/s) = 7.07189 7.34758 7.21105
#
# Compressibility (1/GPa) = 0.01699837
#
# Stress axis : x y z
#
# Youngs Moduli (GPa) = 51.43963 51.43963 39.31196
#
# Poissons Ratio (x) = 0.48830 0.27847
# Poissons Ratio (y) = 0.48830 0.27847
# Poissons Ratio (z) = 0.36438 0.36438
#
# Static dielectric constant tensor:
#      x y z
#    x 1.544930 0.000000 0.000000 
#    y 0.000000 1.544930 0.000000 
#    z 0.000000 0.000000 1.550260 
# 
# From -- ./inp_files/8519.got.cif
#   From: 2010.05.17/outbox.cif.g08.bks.cpg/sg191_5_cif.got.tgz:8519.got - 2010.05.20 12:20:32.
