data_PCOD9587548
_publ_section_title
;
Structure prediction by ZEFSAII (Michael W. Deem and Ramdas Pophale) SiO2 
 PCOD9587548
Probable space group: P 6/M M M
;
_chemical_formula_sum "Si O2"
_cell_formula_units_Z 124
_cell_length_a 22.585648
_cell_length_b 22.585648
_cell_length_c 17.857968
_cell_angle_alpha 90.000000
_cell_angle_beta 90.000000
_cell_angle_gamma 120.000000
_cell_volume 7889.105843
_symmetry_space_group_name_H-M "P 6/M M M"
_symmetry_group_IT_number 191
_symmetry_cell_setting 'hexagonal'
loop_
_space_group_symop_operation_xyz
x,y,z
x-y,x,z
-y,x-y,z
-x,-y,z
-x+y,-x,z
y,-x+y,z
x-y,-y,-z
-x,-x+y,-z
y,x,-z
-y,-x,-z
-x+y,y,-z
x,x-y,-z
-x,-y,-z
-x+y,-x,-z
y,-x+y,-z
x,y,-z
x-y,x,-z
-y,x-y,-z
-x+y,y,z
x,x-y,z
-y,-x,z
y,x,z
x-y,-y,z
-x,-x+y,z
loop_
_atom_site_type_symbol
_atom_site_label
_atom_site_fract_x
_atom_site_fract_y
_atom_site_fract_z
Si Si1 0.390664 0.123865 0.583071
Si Si2 0.809121 0.474806 0.329629
Si Si3 0.570276 0.570276 0.913605
Si Si4 0.221385 0.300880 0.728802
Si Si5 0.333334 0.666667 0.908430
Si Si6 0.438786 0.121927 0.818444
Si Si7 0.744731 0.489462 0.911459
O O1 0.374511 0.093160 0.500000
O O2 0.390847 0.195424 0.580353
O O3 0.467435 0.145815 0.608815
O O4 0.336596 0.083081 0.648474
O O5 0.733686 0.467372 0.328118
O O6 0.804869 0.402435 0.340711
O O7 0.847212 0.510214 0.252142
O O8 0.500000 0.500000 0.919317
O O9 0.622007 0.560082 0.862346
O O10 0.593442 0.593442 0.000000
O O11 0.141162 0.282323 0.730307
O O12 0.241924 0.241924 0.741062
O O13 0.262677 0.363201 0.787722
O O14 0.294263 0.705738 0.882637
O O15 0.333334 0.666667 0.000000
O O16 0.468585 0.180406 0.879733
O O17 0.743010 0.486020 0.000000
#
# Coordination Sequence:
#
# PCOD9587548 Si02
#       7
#    24  24  12  24   4  24  12
#     4   8  16  31  49  71 101 136 173 213 255 301
#     4  10  19  30  47  71  98 134 178 219 267 315
#     4  11  24  36  50  72  99 135 176 220 275 328
#     4  10  19  35  58  82 107 137 173 211 259 311
#     4   9  24  36  48  75 102 138 181 221 280 330
#     4  11  20  36  52  71 100 133 175 221 265 317
#     4  11  22  36  52  72 102 137 175 225 274 314
#
# _framework density 15.717877
#
# number of rings (size 3 to 8) (size 9 to 14) (size 15 to 20)
#    0.000    2.032    2.903    2.516    2.710    0.774 
#    0.000    0.000    0.000    1.355    0.000    2.710 
#    0.000    0.000    0.000    4.839    0.000    2.129 
#
# Total GULP energy -690418.187580 kJ/mol
# GULP energy per Si atom -5567.888610 kJ/mol
# Density = 1.568210 g / cm^3
# Si number density = 15.717877 Si / 1000 Ang^3
#
#
#
# Elastic Constant Matrix: (Units=GPa)
#
#
# Indices 1 2 3 4 5 6 
#
# 1 98.6093 54.5976 27.4191 0.0000 0.0000 0.0000
# 2 54.5976 98.6092 27.4191 0.0000 0.0000 0.0000
# 3 27.4191 27.4191 73.3963 0.0000 0.0000 0.0000
# 4 0.0000 0.0000 0.0000 23.3624 0.0001 0.0000
# 5 0.0000 0.0000 0.0000 0.0001 23.3624 0.0000
# 6 0.0000 0.0000 0.0000 0.0000 0.0000 22.0059
#
#
#
# Elastic Compliance Matrix: (Units=1/GPa)
#
#
# Indices 1 2 3 4 5 6 
#
# 1 0.015128 -0.007593 -0.002815 0.000000 0.000000 0.000000
# 2 -0.007593 0.015128 -0.002815 0.000000 0.000000 0.000000
# 3 -0.002815 -0.002815 0.015728 0.000000 0.000000 0.000000
# 4 0.000000 0.000000 0.000000 0.042804 0.000000 0.000000
# 5 0.000000 0.000000 0.000000 0.000000 0.042804 0.000000
# 6 0.000000 0.000000 0.000000 0.000000 0.000000 0.045442
#
#
# Mechanical properties :
#
#
# Convention : Reuss Voigt Hill
#
# Bulk Modulus (GPa) = 51.18243 54.38735 52.78489
# Shear Modulus (GPa) = 23.81044 24.49141 24.15092
#
# Velocity S-wave (km/s) = 3.89635 3.95167 3.92411
# Velocity P-wave (km/s) = 7.27158 7.44972 7.36119
#
# Compressibility (1/GPa) = 0.01953795
#
# Stress axis : x y z
#
# Youngs Moduli (GPa) = 66.10291 66.10283 63.58201
#
# Poissons Ratio (x) = 0.50194 0.17897
# Poissons Ratio (y) = 0.50194 0.17897
# Poissons Ratio (z) = 0.18606 0.18606
#
# Static dielectric constant tensor:
#      x y z
#    x 1.551190 0.000000 0.000000 
#    y 0.000000 1.551190 0.000000 
#    z 0.000000 0.000000 1.546520 
# 
# From -- ./inp_files/6306.got.cif
#   From: 2010.05.17/outbox.cif.g08.bks.cpg/sg191_4_cif.got.tgz:6306.got - 2010.05.20 12:20:32.
