data_PCOD9587639
_publ_section_title
;
Structure prediction by ZEFSAII (Michael W. Deem and Ramdas Pophale) SiO2 
 PCOD9587639
Probable space group: P 6/M M M
;
_chemical_formula_sum "Si O2"
_cell_formula_units_Z 132
_cell_length_a 17.886937
_cell_length_b 17.886937
_cell_length_c 28.754849
_cell_angle_alpha 90.000000
_cell_angle_beta 90.000000
_cell_angle_gamma 120.000000
_cell_volume 7967.345999
_symmetry_space_group_name_H-M "P 6/M M M"
_symmetry_group_IT_number 191
_symmetry_cell_setting 'hexagonal'
loop_
_space_group_symop_operation_xyz
x,y,z
x-y,x,z
-y,x-y,z
-x,-y,z
-x+y,-x,z
y,-x+y,z
x-y,-y,-z
-x,-x+y,-z
y,x,-z
-y,-x,-z
-x+y,y,-z
x,x-y,-z
-x,-y,-z
-x+y,-x,-z
y,-x+y,-z
x,y,-z
x-y,x,-z
-y,x-y,-z
-x+y,y,z
x,x-y,z
-y,-x,z
y,x,z
x-y,-y,z
-x,-x+y,z
loop_
_atom_site_type_symbol
_atom_site_label
_atom_site_fract_x
_atom_site_fract_y
_atom_site_fract_z
Si Si1 0.842598 0.332717 0.227257
Si Si2 0.896882 0.628314 0.500000
Si Si3 0.532537 0.636669 0.591859
Si Si4 0.508814 0.666638 0.946495
Si Si5 0.629550 0.899437 0.683030
Si Si6 0.366834 0.270212 0.860791
O O1 0.852801 0.426401 0.229101
O O2 0.741973 0.258027 0.227533
O O3 0.885813 0.314134 0.271484
O O4 0.883187 0.318202 0.180660
O O5 0.834288 0.668576 0.500000
O O6 0.875343 0.568238 0.545444
O O7 0.000000 0.695900 0.500000
O O8 0.430420 0.569581 0.591644
O O9 0.578868 0.578868 0.592185
O O10 0.567264 0.693340 0.638161
O O11 0.483733 0.741867 0.942890
O O12 0.425613 0.574388 0.936556
O O13 0.583334 0.691256 0.909198
O O14 0.535545 0.666501 0.000000
O O15 0.663950 0.831975 0.686237
O O16 0.701296 0.000000 0.678999
O O17 0.341040 0.170520 0.858469
O O18 0.289476 0.289476 0.855998
#
# Coordination Sequence:
#
# PCOD9587639 Si02
#       6
#    24  12  24  24  24  24
#     4  10  20  33  50  73 101 131 160 190 226 271
#     4  10  19  31  49  72  97 127 164 204 243 283
#     4   9  17  30  49  71  93 119 153 192 234 283
#     4   9  17  29  46  69  98 131 163 192 223 264
#     4  10  20  33  50  72  97 127 163 202 242 282
#     4  10  21  35  50  69  93 122 156 195 239 283
#
# _framework density 16.567625
#
# number of rings (size 3 to 8) (size 9 to 14) (size 15 to 20)
#    0.000    2.364    0.000    2.818    0.000    5.455 
#    0.000    2.727    0.000    6.636    0.000    0.000 
#    0.000    8.727    0.000    4.545    0.000    1.091 
#
# Total GULP energy -736238.388353 kJ/mol
# GULP energy per Si atom -5577.563548 kJ/mol
# Density = 1.652992 g / cm^3
# Si number density = 16.567625 Si / 1000 Ang^3
#
#
#
# Elastic Constant Matrix: (Units=GPa)
#
#
# Indices 1 2 3 4 5 6 
#
# 1 88.1321 70.9451 38.7594 0.0000 0.0000 0.0000
# 2 70.9451 88.1321 38.7594 0.0000 0.0000 0.0000
# 3 38.7594 38.7594 97.7879 0.0000 0.0000 0.0000
# 4 0.0000 0.0000 0.0000 18.1894 0.0000 0.0000
# 5 0.0000 0.0000 0.0000 0.0000 18.1894 0.0000
# 6 0.0000 0.0000 0.0000 0.0000 0.0000 8.5935
#
#
#
# Elastic Compliance Matrix: (Units=1/GPa)
#
#
# Indices 1 2 3 4 5 6 
#
# 1 0.032987 -0.025196 -0.003088 0.000000 0.000000 0.000000
# 2 -0.025196 0.032987 -0.003088 0.000000 0.000000 0.000000
# 3 -0.003088 -0.003088 0.012674 0.000000 0.000000 0.000000
# 4 0.000000 0.000000 0.000000 0.054977 0.000000 0.000000
# 5 0.000000 0.000000 0.000000 0.000000 0.054977 0.000000
# 6 0.000000 0.000000 0.000000 0.000000 0.000000 0.116367
#
#
# Mechanical properties :
#
#
# Convention : Reuss Voigt Hill
#
# Bulk Modulus (GPa) = 62.87713 63.44222 63.15967
# Shear Modulus (GPa) = 13.40424 17.36700 15.38562
#
# Velocity S-wave (km/s) = 2.84749 3.24118 3.05069
# Velocity P-wave (km/s) = 6.98893 7.23761 7.11436
#
# Compressibility (1/GPa) = 0.01590403
#
# Stress axis : x y z
#
# Youngs Moduli (GPa) = 30.31470 30.31470 78.90031
#
# Poissons Ratio (x) = 0.76382 0.24365
# Poissons Ratio (y) = 0.76382 0.24365
# Poissons Ratio (z) = 0.09361 0.09361
#
# Static dielectric constant tensor:
#      x y z
#    x 1.546530 0.000000 0.000000 
#    y 0.000000 1.546530 0.000000 
#    z 0.000000 0.000000 1.565270 
# 
# From -- ./inp_files/8684.got.cif
#   From: 2010.05.17/outbox.cif.g08.bks.cpg/sg191_5_cif.got.tgz:8684.got - 2010.05.20 12:20:32.
