data_PCOD9587419
_publ_section_title
;
Structure prediction by ZEFSAII (Michael W. Deem and Ramdas Pophale) SiO2 
 PCOD9587419
Probable space group: P 6/M M M
;
_chemical_formula_sum "Si O2"
_cell_formula_units_Z 120
_cell_length_a 22.999981
_cell_length_b 22.999981
_cell_length_c 18.592395
_cell_angle_alpha 90.000000
_cell_angle_beta 90.000000
_cell_angle_gamma 120.000000
_cell_volume 8517.672226
_symmetry_space_group_name_H-M "P 6/M M M"
_symmetry_group_IT_number 191
_symmetry_cell_setting 'hexagonal'
loop_
_space_group_symop_operation_xyz
x,y,z
x-y,x,z
-y,x-y,z
-x,-y,z
-x+y,-x,z
y,-x+y,z
x-y,-y,-z
-x,-x+y,-z
y,x,-z
-y,-x,-z
-x+y,y,-z
x,x-y,-z
-x,-y,-z
-x+y,-x,-z
y,-x+y,-z
x,y,-z
x-y,x,-z
-y,x-y,-z
-x+y,y,z
x,x-y,z
-y,-x,z
y,x,z
x-y,-y,z
-x,-x+y,z
loop_
_atom_site_type_symbol
_atom_site_label
_atom_site_fract_x
_atom_site_fract_y
_atom_site_fract_z
Si Si1 0.076974 0.287864 0.584926
Si Si2 0.335170 0.412419 0.345465
Si Si3 0.923085 0.393202 0.807072
Si Si4 0.332773 0.802300 0.084790
Si Si5 0.202072 0.666820 0.586484
O O1 0.082625 0.307359 0.500000
O O2 0.134735 0.269470 0.598910
O O3 0.088339 0.350831 0.632977
O O4 0.000000 0.229389 0.596167
O O5 0.387534 0.387534 0.364823
O O6 0.347673 0.433410 0.262007
O O7 0.346456 0.477048 0.388244
O O8 0.915823 0.457912 0.785194
O O9 0.867386 0.353181 0.866996
O O10 0.000000 0.424954 0.833220
O O11 0.392589 0.785178 0.093929
O O12 0.261758 0.738243 0.104743
O O13 0.330968 0.816353 0.000000
O O14 0.203866 0.667845 0.500000
O O15 0.214516 0.607258 0.611191
O O16 0.261434 0.738567 0.612663
#
# Coordination Sequence:
#
# PCOD9587419 Si02
#       5
#    24  24  24  24  24
#     4   9  17  29  45  64  85 109 137 168 202 241
#     4  10  19  30  44  62  83 105 132 169 209 243
#     4   9  18  31  44  59  81 107 134 165 200 238
#     4   9  17  29  45  64  84 105 130 161 197 236
#     4  10  20  32  44  57  76 104 137 171 206 246
#
# _framework density 14.088355999999999
#
# number of rings (size 3 to 8) (size 9 to 14) (size 15 to 20)
#    0.000    2.600    0.000    2.200    0.000    7.600 
#    0.000    3.000    0.000    2.600    0.000    1.400 
#    0.000    0.000    0.000    0.000    0.000    0.000 
#
# Total GULP energy -668555.658022 kJ/mol
# GULP energy per Si atom -5571.297150 kJ/mol
# Density = 1.405629 g / cm^3
# Si number density = 14.088356 Si / 1000 Ang^3
#
#
#
# Elastic Constant Matrix: (Units=GPa)
#
#
# Indices 1 2 3 4 5 6 
#
# 1 93.6831 57.9976 49.2882 0.0000 0.0000 0.0000
# 2 57.9976 93.6831 49.2882 0.0000 0.0000 0.0000
# 3 49.2882 49.2882 40.8140 0.0000 0.0000 0.0000
# 4 0.0000 0.0000 0.0000 7.9037 0.0000 0.0000
# 5 0.0000 0.0000 0.0000 0.0000 7.9037 0.0000
# 6 0.0000 0.0000 0.0000 0.0000 0.0000 17.8428
#
#
#
# Elastic Compliance Matrix: (Units=1/GPa)
#
#
# Indices 1 2 3 4 5 6 
#
# 1 0.029331 0.001309 -0.037002 0.000000 0.000000 0.000000
# 2 0.001309 0.029331 -0.037002 0.000000 0.000000 0.000000
# 3 -0.037002 -0.037002 0.113872 0.000000 0.000000 0.000000
# 4 0.000000 0.000000 0.000000 0.126523 0.000000 0.000000
# 5 0.000000 0.000000 0.000000 0.000000 0.126523 0.000000
# 6 0.000000 0.000000 0.000000 0.000000 0.000000 0.056045
#
#
# Mechanical properties :
#
#
# Convention : Reuss Voigt Hill
#
# Bulk Modulus (GPa) = 36.84153 60.14758 48.49456
# Shear Modulus (GPa) = 7.86084 11.50378 9.68231
#
# Velocity S-wave (km/s) = 2.36470 2.86063 2.62440
# Velocity P-wave (km/s) = 5.80197 7.32780 6.60907
#
# Compressibility (1/GPa) = 0.02714328
#
# Stress axis : x y z
#
# Youngs Moduli (GPa) = 34.09306 34.09306 8.78181
#
# Poissons Ratio (x) = -0.04463 0.32495
# Poissons Ratio (y) = -0.04463 0.32495
# Poissons Ratio (z) = 1.26152 1.26152
#
# Static dielectric constant tensor:
#      x y z
#    x 1.459020 0.000000 0.000000 
#    y 0.000000 1.459020 0.000000 
#    z 0.000000 0.000000 1.454740 
# 
# From -- ./inp_files/4733.got.cif
#   From: 2010.05.17/outbox.cif.g08.bks.cpg/sg191_3_cif.got.tgz:4733.got - 2010.05.20 12:20:32.
