data_PCOD9587574
_publ_section_title
;
Structure prediction by ZEFSAII (Michael W. Deem and Ramdas Pophale) SiO2 
 PCOD9587574
Probable space group: P 6/M M M
;
_chemical_formula_sum "Si O2"
_cell_formula_units_Z 108
_cell_length_a 21.251912
_cell_length_b 21.251912
_cell_length_c 19.516008
_cell_angle_alpha 90.000000
_cell_angle_beta 90.000000
_cell_angle_gamma 120.000000
_cell_volume 7633.393258
_symmetry_space_group_name_H-M "P 6/M M M"
_symmetry_group_IT_number 191
_symmetry_cell_setting 'hexagonal'
loop_
_space_group_symop_operation_xyz
x,y,z
x-y,x,z
-y,x-y,z
-x,-y,z
-x+y,-x,z
y,-x+y,z
x-y,-y,-z
-x,-x+y,-z
y,x,-z
-y,-x,-z
-x+y,y,-z
x,x-y,-z
-x,-y,-z
-x+y,-x,-z
y,-x+y,-z
x,y,-z
x-y,x,-z
-y,x-y,-z
-x+y,y,z
x,x-y,z
-y,-x,z
y,x,z
x-y,-y,z
-x,-x+y,z
loop_
_atom_site_type_symbol
_atom_site_label
_atom_site_fract_x
_atom_site_fract_y
_atom_site_fract_z
Si Si1 0.698146 0.542224 0.344529
Si Si2 0.917420 0.221923 0.419439
Si Si3 0.086284 0.543142 0.582368
Si Si4 0.381902 0.466640 0.206607
Si Si5 0.482334 0.666769 0.920911
O O1 0.758587 0.517173 0.349080
O O2 0.736118 0.623127 0.375121
O O3 0.624473 0.496480 0.387809
O O4 0.672768 0.542007 0.267020
O O5 0.913646 0.238360 0.500000
O O6 0.863222 0.136779 0.409980
O O7 0.000000 0.249071 0.402464
O O8 0.088073 0.544037 0.500000
O O9 0.000000 0.500000 0.603129
O O10 0.456093 0.543908 0.216832
O O11 0.405926 0.405926 0.209380
O O12 0.349536 0.471504 0.133695
O O13 0.485711 0.742856 0.907311
O O14 0.399327 0.600674 0.914305
O O15 0.504150 0.666542 0.000000
#
# Coordination Sequence:
#
# PCOD9587574 Si02
#       5
#    24  24  12  24  24
#     4  11  21  33  48  67  90 117 153 192 234 278
#     4   9  17  29  46  66  87 111 141 179 218 260
#     4  11  22  36  54  70  89 123 161 195 238 294
#     4  10  19  31  47  64  86 115 148 189 231 275
#     4   9  17  29  45  65  88 115 146 181 224 275
#
# _framework density 14.14836
#
# number of rings (size 3 to 8) (size 9 to 14) (size 15 to 20)
#    0.000    2.111    1.111    3.556    0.000    4.444 
#    0.667    2.222    0.000    0.222    0.000    1.556 
#    0.000    0.000    0.000    0.000    0.000    0.000 
#
# Total GULP energy -602044.448491 kJ/mol
# GULP energy per Si atom -5574.485634 kJ/mol
# Density = 1.411616 g / cm^3
# Si number density = 14.148360 Si / 1000 Ang^3
#
#
#
# Elastic Constant Matrix: (Units=GPa)
#
#
# Indices 1 2 3 4 5 6 
#
# 1 89.7897 52.7263 46.8562 0.0000 0.0000 0.0000
# 2 52.7263 89.7897 46.8562 0.0000 0.0000 0.0000
# 3 46.8562 46.8562 74.6247 0.0000 0.0000 0.0000
# 4 0.0000 0.0000 0.0000 18.1694 0.0000 0.0000
# 5 0.0000 0.0000 0.0000 0.0000 18.1694 0.0000
# 6 0.0000 0.0000 0.0000 0.0000 0.0000 18.5317
#
#
#
# Elastic Compliance Matrix: (Units=1/GPa)
#
#
# Indices 1 2 3 4 5 6 
#
# 1 0.019466 -0.007515 -0.007504 0.000000 0.000000 0.000000
# 2 -0.007515 0.019466 -0.007504 0.000000 0.000000 0.000000
# 3 -0.007504 -0.007504 0.022824 0.000000 0.000000 0.000000
# 4 0.000000 0.000000 0.000000 0.055038 0.000000 0.000000
# 5 0.000000 0.000000 0.000000 0.000000 0.055038 0.000000
# 6 0.000000 0.000000 0.000000 0.000000 0.000000 0.053962
#
#
# Mechanical properties :
#
#
# Convention : Reuss Voigt Hill
#
# Bulk Modulus (GPa) = 59.84443 60.78681 60.31562
# Shear Modulus (GPa) = 18.08919 18.15844 18.12382
#
# Velocity S-wave (km/s) = 3.57954 3.58639 3.58297
# Velocity P-wave (km/s) = 7.71192 7.75930 7.73565
#
# Compressibility (1/GPa) = 0.01670999
#
# Stress axis : x y z
#
# Youngs Moduli (GPa) = 51.37183 51.37183 43.81410
#
# Poissons Ratio (x) = 0.38605 0.32878
# Poissons Ratio (y) = 0.38605 0.32878
# Poissons Ratio (z) = 0.38549 0.38549
#
# Static dielectric constant tensor:
#      x y z
#    x 1.454340 0.000000 0.000000 
#    y 0.000000 1.454340 0.000000 
#    z 0.000000 0.000000 1.474330 
# 
# From -- ./inp_files/6066.got.cif
#   From: 2010.05.17/outbox.cif.g08.bks.cpg/sg191_4_cif.got.tgz:6066.got - 2010.05.20 12:20:32.
