data_PCOD9587506
_publ_section_title
;
Structure prediction by ZEFSAII (Michael W. Deem and Ramdas Pophale) SiO2 
 PCOD9587506
Probable space group: P 6/M M M
;
_chemical_formula_sum "Si O2"
_cell_formula_units_Z 120
_cell_length_a 18.150008
_cell_length_b 18.150008
_cell_length_c 25.832567
_cell_angle_alpha 90.000000
_cell_angle_beta 90.000000
_cell_angle_gamma 120.000000
_cell_volume 7369.734422
_symmetry_space_group_name_H-M "P 6/M M M"
_symmetry_group_IT_number 191
_symmetry_cell_setting 'hexagonal'
loop_
_space_group_symop_operation_xyz
x,y,z
x-y,x,z
-y,x-y,z
-x,-y,z
-x+y,-x,z
y,-x+y,z
x-y,-y,-z
-x,-x+y,-z
y,x,-z
-y,-x,-z
-x+y,y,-z
x,x-y,-z
-x,-y,-z
-x+y,-x,-z
y,-x+y,-z
x,y,-z
x-y,x,-z
-y,x-y,-z
-x+y,y,z
x,x-y,z
-y,-x,z
y,x,z
x-y,-y,z
-x,-x+y,z
loop_
_atom_site_type_symbol
_atom_site_label
_atom_site_fract_x
_atom_site_fract_y
_atom_site_fract_z
Si Si1 0.365923 0.264725 0.098406
Si Si2 0.901509 0.635474 0.402243
Si Si3 0.467793 0.102724 0.000000
Si Si4 0.101613 0.634535 0.197258
Si Si5 0.365130 0.897238 0.500000
Si Si6 0.164358 0.496480 0.687654
O O1 0.327785 0.163893 0.095489
O O2 0.298894 0.298894 0.095639
O O3 0.418766 0.299993 0.151493
O O4 0.431977 0.308180 0.051129
O O5 0.834147 0.668293 0.401662
O O6 0.875614 0.567647 0.448958
O O7 0.889680 0.583018 0.349662
O O8 0.000000 0.706169 0.409014
O O9 0.568327 0.136654 0.000000
O O10 0.422058 0.000000 0.000000
O O11 0.125749 0.562875 0.181729
O O12 0.144172 0.672327 0.252177
O O13 0.000000 0.583995 0.205579
O O14 0.431574 0.863147 0.500000
O O15 0.421810 0.000000 0.500000
O O16 0.262511 0.525021 0.677865
O O17 0.146327 0.573164 0.677305
#
# Coordination Sequence:
#
# PCOD9587506 Si02
#       6
#    24  24  12  24  12  24
#     4  10  19  31  48  69  93 122 158 197 234 273
#     4  10  20  33  50  71  94 122 157 197 238 279
#     4   9  17  30  49  70  90 114 144 179 221 270
#     4   9  17  29  46  67  90 119 155 192 230 275
#     4   9  17  30  49  72  96 122 152 183 217 262
#     4  10  19  30  45  67  96 127 157 189 227 272
#
# _framework density 16.282813000000001
#
# number of rings (size 3 to 8) (size 9 to 14) (size 15 to 20)
#    0.000    2.400    0.000    3.200    0.000    4.400 
#    0.000    0.000    0.000   10.000    0.000    0.000 
#    0.000    4.800    0.000    6.400    0.000    0.000 
#
# Total GULP energy -668879.032943 kJ/mol
# GULP energy per Si atom -5573.991941 kJ/mol
# Density = 1.624575 g / cm^3
# Si number density = 16.282813 Si / 1000 Ang^3
#
#
#
# Elastic Constant Matrix: (Units=GPa)
#
#
# Indices 1 2 3 4 5 6 
#
# 1 83.9524 49.5793 32.7870 0.0000 0.0000 0.0000
# 2 49.5793 83.9524 32.7870 0.0000 0.0000 0.0000
# 3 32.7870 32.7870 64.3599 0.0000 0.0000 0.0000
# 4 0.0000 0.0000 0.0000 13.4571 0.0000 0.0000
# 5 0.0000 0.0000 0.0000 0.0000 13.4571 0.0000
# 6 0.0000 0.0000 0.0000 0.0000 0.0000 17.1866
#
#
#
# Elastic Compliance Matrix: (Units=1/GPa)
#
#
# Indices 1 2 3 4 5 6 
#
# 1 0.019540 -0.009553 -0.005088 0.000000 0.000000 0.000000
# 2 -0.009553 0.019540 -0.005088 0.000000 0.000000 0.000000
# 3 -0.005088 -0.005088 0.020721 0.000000 0.000000 0.000000
# 4 0.000000 0.000000 0.000000 0.074310 0.000000 0.000000
# 5 0.000000 0.000000 0.000000 0.000000 0.074310 0.000000
# 6 0.000000 0.000000 0.000000 0.000000 0.000000 0.058185
#
#
# Mechanical properties :
#
#
# Convention : Reuss Voigt Hill
#
# Bulk Modulus (GPa) = 49.15286 51.39681 50.27483
# Shear Modulus (GPa) = 15.98236 16.62759 16.30497
#
# Velocity S-wave (km/s) = 3.13636 3.19905 3.16786
# Velocity P-wave (km/s) = 6.58545 6.72895 6.65759
#
# Compressibility (1/GPa) = 0.02034470
#
# Stress axis : x y z
#
# Youngs Moduli (GPa) = 51.17725 51.17725 48.25912
#
# Poissons Ratio (x) = 0.48887 0.24554
# Poissons Ratio (y) = 0.48887 0.24554
# Poissons Ratio (z) = 0.26038 0.26038
#
# Static dielectric constant tensor:
#      x y z
#    x 1.544400 0.000000 0.000000 
#    y 0.000000 1.544400 0.000000 
#    z 0.000000 0.000000 1.550940 
# 
# From -- ./inp_files/8504.got.cif
#   From: 2010.05.17/outbox.cif.g08.bks.cpg/sg191_5_cif.got.tgz:8504.got - 2010.05.20 12:20:32.
