data_PCOD9587900
_publ_section_title
;
Structure prediction by ZEFSAII (Michael W. Deem and Ramdas Pophale) SiO2 
 PCOD9587900
Probable space group: P 6/M M M
;
_chemical_formula_sum "Si O2"
_cell_formula_units_Z 132
_cell_length_a 18.174181
_cell_length_b 18.174181
_cell_length_c 29.056997
_cell_angle_alpha 90.000000
_cell_angle_beta 90.000000
_cell_angle_gamma 120.000000
_cell_volume 8311.722940
_symmetry_space_group_name_H-M "P 6/M M M"
_symmetry_group_IT_number 191
_symmetry_cell_setting 'hexagonal'
loop_
_space_group_symop_operation_xyz
x,y,z
x-y,x,z
-y,x-y,z
-x,-y,z
-x+y,-x,z
y,-x+y,z
x-y,-y,-z
-x,-x+y,-z
y,x,-z
-y,-x,-z
-x+y,y,-z
x,x-y,-z
-x,-y,-z
-x+y,-x,-z
y,-x+y,-z
x,y,-z
x-y,x,-z
-y,x-y,-z
-x+y,y,z
x,x-y,z
-y,-x,z
y,x,z
x-y,-y,z
-x,-x+y,z
loop_
_atom_site_type_symbol
_atom_site_label
_atom_site_fract_x
_atom_site_fract_y
_atom_site_fract_z
Si Si1 0.100805 0.635406 0.500000
Si Si2 0.506382 0.667056 0.133172
Si Si3 0.096294 0.731630 0.217960
Si Si4 0.840542 0.508442 0.698313
Si Si5 0.096733 0.361653 0.054353
Si Si6 0.164662 0.668786 0.596347
O O1 0.133995 0.566998 0.500000
O O2 0.129632 0.683513 0.548598
O O3 0.000000 0.582205 0.500000
O O4 0.480606 0.740303 0.134385
O O5 0.424873 0.575128 0.138288
O O6 0.573690 0.689501 0.174171
O O7 0.556621 0.678559 0.085718
O O8 0.169668 0.830333 0.218757
O O9 0.109578 0.687205 0.262871
O O10 0.000000 0.711039 0.215851
O O11 0.741669 0.483338 0.703426
O O12 0.848849 0.424425 0.702876
O O13 0.867433 0.545443 0.646430
O O14 0.167357 0.334714 0.064585
O O15 0.000000 0.290789 0.064371
O O16 0.102489 0.381558 0.000000
O O17 0.146378 0.573189 0.595652
O O18 0.264922 0.735079 0.596305
#
# Coordination Sequence:
#
# PCOD9587900 Si02
#       6
#    12  24  24  24  24  24
#     4   9  17  26  34  48  72 101 134 174 218 256
#     4  10  20  33  49  70  97 128 159 189 221 259
#     4  10  21  35  50  69  92 118 148 183 224 267
#     4   9  17  28  43  64  90 119 149 181 217 258
#     4   9  18  32  49  69  93 122 156 194 237 281
#     4   9  16  26  40  57  77 103 137 175 212 250
#
# _framework density 15.881183999999999
#
# number of rings (size 3 to 8) (size 9 to 14) (size 15 to 20)
#    0.000    2.636    0.000    1.909    0.000    5.091 
#    0.000    5.455    0.000    1.455    0.000    1.273 
#    0.000    4.364    0.000    0.182    0.000    0.000 
#
# Total GULP energy -735003.156275 kJ/mol
# GULP energy per Si atom -5568.205729 kJ/mol
# Density = 1.584504 g / cm^3
# Si number density = 15.881184 Si / 1000 Ang^3
#
#
#
# Elastic Constant Matrix: (Units=GPa)
#
#
# Indices 1 2 3 4 5 6 
#
# 1 63.4459 51.8119 36.2103 0.0000 0.0000 0.0000
# 2 51.8119 63.4459 36.2103 0.0000 0.0000 0.0000
# 3 36.2103 36.2103 77.2972 0.0000 0.0000 0.0000
# 4 0.0000 0.0000 0.0000 13.4959 0.0000 0.0000
# 5 0.0000 0.0000 0.0000 0.0000 13.4959 0.0000
# 6 0.0000 0.0000 0.0000 0.0000 0.0000 5.8170
#
#
#
# Elastic Compliance Matrix: (Units=1/GPa)
#
#
# Indices 1 2 3 4 5 6 
#
# 1 0.049125 -0.036830 -0.005760 0.000000 0.000000 0.000000
# 2 -0.036830 0.049125 -0.005760 0.000000 0.000000 0.000000
# 3 -0.005760 -0.005760 0.018333 0.000000 0.000000 0.000000
# 4 0.000000 0.000000 0.000000 0.074096 0.000000 0.000000
# 5 0.000000 0.000000 0.000000 0.000000 0.074096 0.000000
# 6 0.000000 0.000000 0.000000 0.000000 0.000000 0.171910
#
#
# Mechanical properties :
#
#
# Convention : Reuss Voigt Hill
#
# Bulk Modulus (GPa) = 50.28944 50.29489 50.29217
# Shear Modulus (GPa) = 9.25904 11.89222 10.57563
#
# Velocity S-wave (km/s) = 2.41720 2.73943 2.58335
# Velocity P-wave (km/s) = 6.28691 6.46098 6.37454
#
# Compressibility (1/GPa) = 0.01988489
#
# Stress axis : x y z
#
# Youngs Moduli (GPa) = 20.35621 20.35621 54.54505
#
# Poissons Ratio (x) = 0.74971 0.31417
# Poissons Ratio (y) = 0.74971 0.31417
# Poissons Ratio (z) = 0.11725 0.11725
#
# Static dielectric constant tensor:
#      x y z
#    x 1.519490 0.000000 0.000000 
#    y 0.000000 1.519490 0.000000 
#    z 0.000000 0.000000 1.585010 
# 
# From -- ./inp_files/9787.got.cif
#   From: 2010.05.17/outbox.cif.g08.bks.cpg/sg191_5_cif.got.tgz:9787.got - 2010.05.20 12:20:32.
