data_PCOD9587214
_publ_section_title
;
Structure prediction by ZEFSAII (Michael W. Deem and Ramdas Pophale) SiO2 
 PCOD9587214
Probable space group: P 6/M M M
;
_chemical_formula_sum "Si O2"
_cell_formula_units_Z 132
_cell_length_a 18.406356
_cell_length_b 18.406356
_cell_length_c 30.018653
_cell_angle_alpha 90.000000
_cell_angle_beta 90.000000
_cell_angle_gamma 120.000000
_cell_volume 8807.597660
_symmetry_space_group_name_H-M "P 6/M M M"
_symmetry_group_IT_number 191
_symmetry_cell_setting 'hexagonal'
loop_
_space_group_symop_operation_xyz
x,y,z
x-y,x,z
-y,x-y,z
-x,-y,z
-x+y,-x,z
y,-x+y,z
x-y,-y,-z
-x,-x+y,-z
y,x,-z
-y,-x,-z
-x+y,y,-z
x,x-y,-z
-x,-y,-z
-x+y,-x,-z
y,-x+y,-z
x,y,-z
x-y,x,-z
-y,x-y,-z
-x+y,y,z
x,x-y,z
-y,-x,z
y,x,z
x-y,-y,z
-x,-x+y,z
loop_
_atom_site_type_symbol
_atom_site_label
_atom_site_fract_x
_atom_site_fract_y
_atom_site_fract_z
Si Si1 0.495671 0.331288 0.105656
Si Si2 0.632597 0.532806 0.204438
Si Si3 0.642046 0.902907 0.552329
Si Si4 0.099861 0.362895 0.287964
Si Si5 0.588315 0.588315 0.948761
Si Si6 0.531401 0.898707 0.629545
O O1 0.494384 0.247192 0.092403
O O2 0.587835 0.412166 0.099081
O O3 0.475521 0.329575 0.158117
O O4 0.431216 0.347794 0.077573
O O5 0.560243 0.439758 0.219248
O O6 0.583435 0.583435 0.194967
O O7 0.698047 0.582991 0.243103
O O8 0.620548 0.898390 0.500000
O O9 0.673427 0.836714 0.560324
O O10 0.562665 0.877736 0.583966
O O11 0.709790 0.000000 0.562293
O O12 0.163686 0.327371 0.289018
O O13 0.122306 0.427467 0.328999
O O14 0.000000 0.295719 0.290562
O O15 0.500000 0.500000 0.948387
O O16 0.612114 0.612114 0.000000
O O17 0.432529 0.865058 0.632589
O O18 0.576552 0.000000 0.630408
#
# Coordination Sequence:
#
# PCOD9587214 Si02
#       6
#    24  24  24  24  12  24
#     4  10  18  29  45  66  90 117 151 189 226 265
#     4   9  16  28  46  66  88 117 150 182 220 267
#     4   9  17  29  46  67  90 118 154 194 232 270
#     4  10  19  30  46  68  93 121 153 188 224 264
#     4   9  18  32  46  60  84 118 151 183 222 266
#     4   9  17  29  45  65  86 109 141 181 224 270
#
# _framework density 14.987061000000001
#
# number of rings (size 3 to 8) (size 9 to 14) (size 15 to 20)
#    0.000    2.636    0.909    1.818    0.000    2.909 
#    0.000    1.818    0.000    9.091    0.000    1.273 
#    0.000    4.364    0.000    0.455    0.000    1.182 
#
# Total GULP energy -735106.341069 kJ/mol
# GULP energy per Si atom -5568.987432 kJ/mol
# Density = 1.495295 g / cm^3
# Si number density = 14.987061 Si / 1000 Ang^3
#
#
#
# Elastic Constant Matrix: (Units=GPa)
#
#
# Indices 1 2 3 4 5 6 
#
# 1 88.0554 46.3604 43.3973 0.0000 0.0000 0.0000
# 2 46.3604 88.0554 43.3973 0.0000 0.0000 0.0000
# 3 43.3973 43.3973 67.5758 0.0000 0.0000 0.0000
# 4 0.0000 0.0000 0.0000 8.5313 0.0000 0.0000
# 5 0.0000 0.0000 0.0000 0.0000 8.5313 0.0000
# 6 0.0000 0.0000 0.0000 0.0000 0.0000 20.8475
#
#
#
# Elastic Compliance Matrix: (Units=1/GPa)
#
#
# Indices 1 2 3 4 5 6 
#
# 1 0.018347 -0.005637 -0.008163 0.000000 0.000000 0.000000
# 2 -0.005637 0.018347 -0.008163 0.000000 0.000000 0.000000
# 3 -0.008163 -0.008163 0.025282 0.000000 0.000000 0.000000
# 4 0.000000 0.000000 0.000000 0.117216 0.000000 0.000000
# 5 0.000000 0.000000 0.000000 0.000000 0.117216 0.000000
# 6 0.000000 0.000000 0.000000 0.000000 0.000000 0.047967
#
#
# Mechanical properties :
#
#
# Convention : Reuss Voigt Hill
#
# Bulk Modulus (GPa) = 55.39390 56.66631 56.03011
# Shear Modulus (GPa) = 12.68015 14.95078 13.81547
#
# Velocity S-wave (km/s) = 2.91189 3.16187 3.03945
# Velocity P-wave (km/s) = 6.95319 7.15697 7.05581
#
# Compressibility (1/GPa) = 0.01805253
#
# Stress axis : x y z
#
# Youngs Moduli (GPa) = 54.50481 54.50481 39.55340
#
# Poissons Ratio (x) = 0.30723 0.32286
# Poissons Ratio (y) = 0.30723 0.32286
# Poissons Ratio (z) = 0.44490 0.44490
#
# Static dielectric constant tensor:
#      x y z
#    x 1.492590 0.000000 0.000000 
#    y 0.000000 1.492590 0.000000 
#    z 0.000000 0.000000 1.507430 
# 
# From -- ./inp_files/10502.got.cif
#   From: 2010.05.17/outbox.cif.g08.bks.cpg/sg191_6_cif.got.tgz:10502.got - 2010.05.20 12:20:32.
