data_PCOD9587822
_publ_section_title
;
Structure prediction by ZEFSAII (Michael W. Deem and Ramdas Pophale) SiO2 
 PCOD9587822
Probable space group: P 6/M M M
;
_chemical_formula_sum "Si O2"
_cell_formula_units_Z 132
_cell_length_a 17.938288
_cell_length_b 17.938288
_cell_length_c 29.160765
_cell_angle_alpha 90.000000
_cell_angle_beta 90.000000
_cell_angle_gamma 120.000000
_cell_volume 8126.275267
_symmetry_space_group_name_H-M "P 6/M M M"
_symmetry_group_IT_number 191
_symmetry_cell_setting 'hexagonal'
loop_
_space_group_symop_operation_xyz
x,y,z
x-y,x,z
-y,x-y,z
-x,-y,z
-x+y,-x,z
y,-x+y,z
x-y,-y,-z
-x,-x+y,-z
y,x,-z
-y,-x,-z
-x+y,y,-z
x,x-y,-z
-x,-y,-z
-x+y,-x,-z
y,-x+y,-z
x,y,-z
x-y,x,-z
-y,x-y,-z
-x+y,y,z
x,x-y,z
-y,-x,z
y,x,z
x-y,-y,z
-x,-x+y,z
loop_
_atom_site_type_symbol
_atom_site_label
_atom_site_fract_x
_atom_site_fract_y
_atom_site_fract_z
Si Si1 0.367479 0.096903 0.187109
Si Si2 0.489147 0.155243 0.899418
Si Si3 0.509576 0.842316 0.725543
Si Si4 0.637013 0.532691 0.448618
Si Si5 0.632876 0.899962 0.360870
Si Si6 0.156548 0.666044 0.000000
O O1 0.341638 0.170819 0.188024
O O2 0.420675 0.108911 0.140530
O O3 0.432486 0.116525 0.229462
O O4 0.290296 0.000000 0.190578
O O5 0.577158 0.154316 0.890471
O O6 0.508034 0.254017 0.900183
O O7 0.455880 0.115390 0.950224
O O8 0.425969 0.851937 0.725632
O O9 0.484158 0.742079 0.725118
O O10 0.568468 0.885321 0.681026
O O11 0.673000 0.540513 0.500000
O O12 0.567205 0.432796 0.439799
O O13 0.582221 0.582221 0.449454
O O14 0.702616 0.577186 0.407540
O O15 0.667265 0.833633 0.353986
O O16 0.704324 0.000000 0.363073
O O17 0.243018 0.756982 0.000000
O O18 0.178851 0.589426 0.000000
#
# Coordination Sequence:
#
# PCOD9587822 Si02
#       6
#    24  24  24  24  24  12
#     4  10  21  35  50  68  90 118 151 189 232 274
#     4   9  16  26  42  65  94 127 160 190 219 255
#     4  10  20  33  50  73 101 130 156 181 212 255
#     4   8  14  26  45  68  92 117 146 181 222 271
#     4  10  20  32  47  68  93 122 157 198 241 280
#     4   8  13  22  37  59  88 123 160 192 219 250
#
# _framework density 16.243604000000001
#
# number of rings (size 3 to 8) (size 9 to 14) (size 15 to 20)
#    0.000    2.727    0.000    2.636    0.000    5.091 
#    0.000    2.273    0.000    2.364    0.000    0.000 
#    0.000    4.364    0.000    4.545    0.000   10.727 
#
# Total GULP energy -735493.021500 kJ/mol
# GULP energy per Si atom -5571.916830 kJ/mol
# Density = 1.620663 g / cm^3
# Si number density = 16.243604 Si / 1000 Ang^3
#
#
#
# Elastic Constant Matrix: (Units=GPa)
#
#
# Indices 1 2 3 4 5 6 
#
# 1 74.9623 62.8791 42.4808 0.0000 0.0000 0.0000
# 2 62.8791 74.9623 42.4808 0.0000 0.0000 0.0000
# 3 42.4808 42.4808 110.6345 0.0000 0.0000 0.0000
# 4 0.0000 0.0000 0.0000 15.0470 0.0000 0.0000
# 5 0.0000 0.0000 0.0000 0.0000 15.0470 0.0000
# 6 0.0000 0.0000 0.0000 0.0000 0.0000 6.0416
#
#
#
# Elastic Compliance Matrix: (Units=1/GPa)
#
#
# Indices 1 2 3 4 5 6 
#
# 1 0.046132 -0.036628 -0.003649 0.000000 0.000000 0.000000
# 2 -0.036628 0.046132 -0.003649 0.000000 0.000000 0.000000
# 3 -0.003649 -0.003649 0.011841 0.000000 0.000000 0.000000
# 4 0.000000 0.000000 0.000000 0.066458 0.000000 0.000000
# 5 0.000000 0.000000 0.000000 0.000000 0.066458 0.000000
# 6 0.000000 0.000000 0.000000 0.000000 0.000000 0.165519
#
#
# Mechanical properties :
#
#
# Convention : Reuss Voigt Hill
#
# Bulk Modulus (GPa) = 61.53051 61.80453 61.66752
# Shear Modulus (GPa) = 10.08449 14.74169 12.41309
#
# Velocity S-wave (km/s) = 2.49435 3.01581 2.76739
# Velocity P-wave (km/s) = 6.80131 7.08928 6.94679
#
# Compressibility (1/GPa) = 0.01625210
#
# Stress axis : x y z
#
# Youngs Moduli (GPa) = 21.67702 21.67702 84.45049
#
# Poissons Ratio (x) = 0.79398 0.30819
# Poissons Ratio (y) = 0.79398 0.30819
# Poissons Ratio (z) = 0.07911 0.07911
#
# Static dielectric constant tensor:
#      x y z
#    x 1.530190 0.000000 0.000000 
#    y 0.000000 1.530190 0.000000 
#    z 0.000000 0.000000 1.580360 
# 
# From -- ./inp_files/9739.got.cif
#   From: 2010.05.17/outbox.cif.g08.bks.cpg/sg191_5_cif.got.tgz:9739.got - 2010.05.20 12:20:32.
