data_PCOD9587386
_publ_section_title
;
Structure prediction by ZEFSAII (Michael W. Deem and Ramdas Pophale) SiO2 
 PCOD9587386
Probable space group: P 6/M M M
;
_chemical_formula_sum "Si O2"
_cell_formula_units_Z 72
_cell_length_a 17.529054
_cell_length_b 17.529054
_cell_length_c 19.812617
_cell_angle_alpha 90.000000
_cell_angle_beta 90.000000
_cell_angle_gamma 120.000000
_cell_volume 5272.170342
_symmetry_space_group_name_H-M "P 6/M M M"
_symmetry_group_IT_number 191
_symmetry_cell_setting 'hexagonal'
loop_
_space_group_symop_operation_xyz
x,y,z
x-y,x,z
-y,x-y,z
-x,-y,z
-x+y,-x,z
y,-x+y,z
x-y,-y,-z
-x,-x+y,-z
y,x,-z
-y,-x,-z
-x+y,y,-z
x,x-y,-z
-x,-y,-z
-x+y,-x,-z
y,-x+y,-z
x,y,-z
x-y,x,-z
-y,x-y,-z
-x+y,y,z
x,x-y,z
-y,-x,z
y,x,z
x-y,-y,z
-x,-x+y,z
loop_
_atom_site_type_symbol
_atom_site_label
_atom_site_fract_x
_atom_site_fract_y
_atom_site_fract_z
Si Si1 0.375957 0.099987 0.000000
Si Si2 0.000000 0.407644 0.393696
Si Si3 0.850147 0.332644 0.500000
Si Si4 0.667819 0.152831 0.862414
Si Si5 0.000000 0.592583 0.240032
O O1 0.435178 0.117055 0.066531
O O2 0.346649 0.173325 0.000000
O O3 0.298339 0.000000 0.000000
O O4 0.087714 0.431183 0.435881
O O5 0.000000 0.500000 0.392348
O O6 0.000000 0.379522 0.316931
O O7 0.757524 0.242477 0.500000
O O8 0.836616 0.418308 0.500000
O O9 0.578553 0.157105 0.865232
O O10 0.751354 0.248646 0.851206
O O11 0.657377 0.085768 0.803063
O O12 0.000000 0.500000 0.242468
#
# Coordination Sequence:
#
# PCOD9587386 Si02
#       5
#    12  12  12  24  12
#     4  10  19  31  47  66  87 114 148 186 225 265
#     4   8  16  29  41  58  84 111 139 173 216 254
#     4   9  16  27  44  63  83 109 142 177 212 253
#     4  10  19  29  43  62  86 115 149 186 222 258
#     4   9  17  29  43  57  81 115 143 174 215 258
#
# _framework density 13.656615
#
# number of rings (size 3 to 8) (size 9 to 14) (size 15 to 20)
#    0.000    2.667    1.667    2.000    0.000    2.000 
#    0.000    1.667    0.000    4.167    0.000    0.000 
#    0.000    0.000    0.000   16.000    0.000   18.333 
#
# Total GULP energy -400950.522192 kJ/mol
# GULP energy per Si atom -5568.757253 kJ/mol
# Density = 1.362553 g / cm^3
# Si number density = 13.656615 Si / 1000 Ang^3
#
#
#
# Elastic Constant Matrix: (Units=GPa)
#
#
# Indices 1 2 3 4 5 6 
#
# 1 88.3083 53.5018 52.0633 0.0000 0.0000 0.0000
# 2 53.5018 88.3083 52.0633 0.0000 0.0000 0.0000
# 3 52.0633 52.0633 136.4731 0.0000 0.0000 0.0000
# 4 0.0000 0.0000 0.0000 6.8574 0.0000 0.0000
# 5 0.0000 0.0000 0.0000 0.0000 6.8574 0.0000
# 6 0.0000 0.0000 0.0000 0.0000 0.0000 17.4032
#
#
#
# Elastic Compliance Matrix: (Units=1/GPa)
#
#
# Indices 1 2 3 4 5 6 
#
# 1 0.019263 -0.009467 -0.003737 0.000000 0.000000 0.000000
# 2 -0.009467 0.019263 -0.003737 0.000000 0.000000 0.000000
# 3 -0.003737 -0.003737 0.010179 0.000000 0.000000 0.000000
# 4 0.000000 0.000000 0.000000 0.145828 0.000000 0.000000
# 5 0.000000 0.000000 0.000000 0.000000 0.145828 0.000000
# 6 0.000000 0.000000 0.000000 0.000000 0.000000 0.057461
#
#
# Mechanical properties :
#
#
# Convention : Reuss Voigt Hill
#
# Bulk Modulus (GPa) = 67.46671 69.81626 68.64149
# Shear Modulus (GPa) = 11.45097 16.58770 14.01933
#
# Velocity S-wave (km/s) = 2.89881 3.48893 3.20747
# Velocity P-wave (km/s) = 7.79190 8.21364 8.00554
#
# Compressibility (1/GPa) = 0.01482212
#
# Stress axis : x y z
#
# Youngs Moduli (GPa) = 51.91318 51.91318 98.24475
#
# Poissons Ratio (x) = 0.49148 0.36713
# Poissons Ratio (y) = 0.49148 0.36713
# Poissons Ratio (z) = 0.19400 0.19400
#
# Static dielectric constant tensor:
#      x y z
#    x 1.427180 0.000000 0.000000 
#    y 0.000000 1.427180 0.000000 
#    z 0.000000 0.000000 1.462700 
# 
# From -- ./inp_files/5693.got.cif
#   From: 2010.05.17/outbox.cif.g08.bks.cpg/sg191_3_cif.got.tgz:5693.got - 2010.05.20 12:20:32.
