data_PCOD9587228
_publ_section_title
;
Structure prediction by ZEFSAII (Michael W. Deem and Ramdas Pophale) SiO2 
 PCOD9587228
Probable space group: P 6/M M M
;
_chemical_formula_sum "Si O2"
_cell_formula_units_Z 72
_cell_length_a 16.425875
_cell_length_b 16.425875
_cell_length_c 19.342114
_cell_angle_alpha 90.000000
_cell_angle_beta 90.000000
_cell_angle_gamma 120.000000
_cell_volume 4519.512558
_symmetry_space_group_name_H-M "P 6/M M M"
_symmetry_group_IT_number 191
_symmetry_cell_setting 'hexagonal'
loop_
_space_group_symop_operation_xyz
x,y,z
x-y,x,z
-y,x-y,z
-x,-y,z
-x+y,-x,z
y,-x+y,z
x-y,-y,-z
-x,-x+y,-z
y,x,-z
-y,-x,-z
-x+y,y,-z
x,x-y,-z
-x,-y,-z
-x+y,-x,-z
y,-x+y,-z
x,y,-z
x-y,x,-z
-y,x-y,-z
-x+y,y,z
x,x-y,z
-y,-x,z
y,x,z
x-y,-y,z
-x,-x+y,z
loop_
_atom_site_type_symbol
_atom_site_label
_atom_site_fract_x
_atom_site_fract_y
_atom_site_fract_z
Si Si1 0.557237 0.442764 0.265126
Si Si2 0.416032 0.114359 0.000000
Si Si3 0.556614 0.443387 0.108478
Si Si4 0.852956 0.521359 0.500000
Si Si5 0.287133 0.393428 0.650646
O O1 0.500000 0.500000 0.264065
O O2 0.574958 0.425043 0.186566
O O3 0.489654 0.348907 0.307030
O O4 0.486464 0.135728 0.934866
O O5 0.379851 0.189926 0.000000
O O6 0.340541 0.000000 0.000000
O O7 0.500000 0.500000 0.112277
O O8 0.741135 0.482270 0.500000
O O9 0.875398 0.437699 0.500000
O O10 0.890809 0.580691 0.430121
O O11 0.178553 0.357105 0.662324
O O12 0.321533 0.321533 0.671129
#
# Coordination Sequence:
#
# PCOD9587228 Si02
#       5
#    12  12  12  12  24
#     4   9  17  31  49  69  93 121 151 189 237 283
#     4   9  17  31  51  72  96 128 163 195 231 275
#     4   8  16  31  49  68  94 123 153 192 232 275
#     4  10  18  29  46  67  92 122 156 193 232 282
#     4  10  20  32  48  68  93 125 160 196 236 282
#
# _framework density 15.930921
#
# number of rings (size 3 to 8) (size 9 to 14) (size 15 to 20)
#    0.000    2.667    1.667    1.667    0.000    2.000 
#    5.000    0.000    0.000    0.500    0.000    0.000 
#    0.000    4.000    0.000   16.667    0.000    0.000 
#
# Total GULP energy -400956.309168 kJ/mol
# GULP energy per Si atom -5568.837627 kJ/mol
# Density = 1.589466 g / cm^3
# Si number density = 15.930921 Si / 1000 Ang^3
#
#
#
# Elastic Constant Matrix: (Units=GPa)
#
#
# Indices 1 2 3 4 5 6 
#
# 1 82.5735 47.9731 17.5401 0.0000 0.0000 0.0000
# 2 47.9731 82.5735 17.5401 0.0000 0.0000 0.0000
# 3 17.5401 17.5401 106.5480 0.0000 0.0000 0.0000
# 4 0.0000 0.0000 0.0000 -13.4003 0.0000 0.0000
# 5 0.0000 0.0000 0.0000 0.0000 -13.4003 0.0000
# 6 0.0000 0.0000 0.0000 0.0000 0.0000 17.3002
#
#
#
# Elastic Compliance Matrix: (Units=1/GPa)
#
#
# Indices 1 2 3 4 5 6 
#
# 1 0.018458 -0.010443 -0.001319 0.000000 0.000000 0.000000
# 2 -0.010443 0.018458 -0.001319 0.000000 0.000000 0.000000
# 3 -0.001319 -0.001319 0.009820 0.000000 0.000000 0.000000
# 4 0.000000 0.000000 0.000000 -0.074625 0.000000 0.000000
# 5 0.000000 0.000000 0.000000 0.000000 -0.074625 0.000000
# 6 0.000000 0.000000 0.000000 0.000000 0.000000 0.057803
#
#
# Mechanical properties :
#
#
# Convention : Reuss Voigt Hill
#
# Bulk Modulus (GPa) = 48.61073 48.64462 48.62767
# Shear Modulus (GPa) = -427.73353 10.67600 -208.52876
#
# Velocity S-wave (km/s) = -16.40352 2.59152 -11.45337
# Velocity P-wave (km/s) = 18.11595 6.28933 12.01316
#
# Compressibility (1/GPa) = 0.02057159
#
# Stress axis : x y z
#
# Youngs Moduli (GPa) = 54.17694 54.17694 101.83464
#
# Poissons Ratio (x) = 0.56579 0.13436
# Poissons Ratio (y) = 0.56579 0.13436
# Poissons Ratio (z) = 0.07148 0.07148
#
# Static dielectric constant tensor:
#      x y z
#    x 1.538550 0.000000 0.000000 
#    y 0.000000 1.538550 0.000000 
#    z 0.000000 0.000000 1.557970 
# 
# From -- ./inp_files/5682.got.cif
#   From: 2010.05.17/outbox.cif.g08.bks.cpg/sg191_3_cif.got.tgz:5682.got - 2010.05.20 12:20:32.
