data_PCOD9587153
_publ_section_title
;
Structure prediction by ZEFSAII (Michael W. Deem and Ramdas Pophale) SiO2 
 PCOD9587153
Probable space group: P 6/M M M
;
_chemical_formula_sum "Si O2"
_cell_formula_units_Z 192
_cell_length_a 31.998110
_cell_length_b 31.998110
_cell_length_c 14.173864
_cell_angle_alpha 90.000000
_cell_angle_beta 90.000000
_cell_angle_gamma 120.000000
_cell_volume 12568.039794
_symmetry_space_group_name_H-M "P 6/M M M"
_symmetry_group_IT_number 191
_symmetry_cell_setting 'hexagonal'
loop_
_space_group_symop_operation_xyz
x,y,z
x-y,x,z
-y,x-y,z
-x,-y,z
-x+y,-x,z
y,-x+y,z
x-y,-y,-z
-x,-x+y,-z
y,x,-z
-y,-x,-z
-x+y,y,-z
x,x-y,-z
-x,-y,-z
-x+y,-x,-z
y,-x+y,-z
x,y,-z
x-y,x,-z
-y,x-y,-z
-x+y,y,z
x,x-y,z
-y,-x,z
y,x,z
x-y,-y,z
-x,-x+y,z
loop_
_atom_site_type_symbol
_atom_site_label
_atom_site_fract_x
_atom_site_fract_y
_atom_site_fract_z
Si Si1 0.522168 0.578054 0.251829
Si Si2 0.945162 0.795770 0.612169
Si Si3 0.238782 0.295204 0.698429
Si Si4 0.144180 0.384791 0.391013
Si Si5 0.378966 0.521128 0.609499
Si Si6 0.450890 0.336410 0.889769
Si Si7 0.481428 0.289595 0.733192
Si Si8 0.721191 0.056748 0.894436
O O1 0.471280 0.528720 0.238319
O O2 0.562230 0.562230 0.265791
O O3 0.514670 0.605577 0.340217
O O4 0.533883 0.613503 0.163401
O O5 0.942034 0.784582 0.500000
O O6 0.904922 0.809843 0.633910
O O7 0.935230 0.748228 0.668123
O O8 0.000000 0.836646 0.631639
O O9 0.276355 0.276355 0.679581
O O10 0.250097 0.342436 0.640262
O O11 0.242783 0.308682 0.808781
O O12 0.144246 0.398442 0.500000
O O13 0.183706 0.367412 0.382667
O O14 0.162896 0.430732 0.323364
O O15 0.366517 0.508946 0.500000
O O16 0.425854 0.574147 0.614895
O O17 0.334840 0.517740 0.669293
O O18 0.474429 0.309936 0.832125
O O19 0.392867 0.303902 0.882282
O O20 0.463665 0.343187 0.000000
O O21 0.493213 0.246607 0.742423
O O22 0.680930 0.000000 0.889481
O O23 0.742515 0.065499 0.000000
#
# Coordination Sequence:
#
# PCOD9587153 Si02
#       8
#    24  24  24  24  24  24  24  24
#     4   9  18  31  48  73 102 130 162 196 229 269
#     4   9  17  29  46  67  90 117 149 186 230 279
#     4  10  18  28  43  63  88 120 157 194 228 266
#     4  10  19  30  44  63  89 119 150 186 229 275
#     4   9  18  33  52  73  97 125 157 192 233 283
#     4  10  19  32  49  67  92 125 160 199 239 275
#     4  10  20  34  51  70  93 121 153 191 236 286
#     4   9  17  29  44  61  85 122 163 199 235 272
#
# _framework density 15.276845
#
# number of rings (size 3 to 8) (size 9 to 14) (size 15 to 20)
#    0.000    2.500    1.250    1.500    0.000    4.000 
#    0.000    1.875    0.000    3.375    0.000    0.875 
#    0.000    0.000    0.000    0.375    0.000    0.500 
#
# Total GULP energy -1069956.949576 kJ/mol
# GULP energy per Si atom -5572.692446 kJ/mol
# Density = 1.524207 g / cm^3
# Si number density = 15.276845 Si / 1000 Ang^3
#
#
#
# Elastic Constant Matrix: (Units=GPa)
#
#
# Indices 1 2 3 4 5 6 
#
# 1 56.2703 24.1243 30.3241 0.0000 0.0000 0.0000
# 2 24.1243 56.2703 30.3241 0.0000 0.0000 0.0000
# 3 30.3241 30.3241 87.5359 0.0000 0.0000 0.0000
# 4 0.0000 0.0000 0.0000 15.9742 0.0000 0.0000
# 5 0.0000 0.0000 0.0000 0.0000 15.9742 0.0000
# 6 0.0000 0.0000 0.0000 0.0000 0.0000 16.0730
#
#
#
# Elastic Compliance Matrix: (Units=1/GPa)
#
#
# Indices 1 2 3 4 5 6 
#
# 1 0.023974 -0.007134 -0.005833 0.000000 0.000000 0.000000
# 2 -0.007134 0.023974 -0.005833 0.000000 0.000000 0.000000
# 3 -0.005833 -0.005833 0.015466 0.000000 0.000000 0.000000
# 4 0.000000 0.000000 0.000000 0.062601 0.000000 0.000000
# 5 0.000000 0.000000 0.000000 0.000000 0.062601 0.000000
# 6 0.000000 0.000000 0.000000 0.000000 0.000000 0.062216
#
#
# Mechanical properties :
#
#
# Convention : Reuss Voigt Hill
#
# Bulk Modulus (GPa) = 38.74421 41.06903 39.90662
# Shear Modulus (GPa) = 16.83293 17.29122 17.06208
#
# Velocity S-wave (km/s) = 3.32303 3.36796 3.34557
# Velocity P-wave (km/s) = 6.33560 6.48581 6.41114
#
# Compressibility (1/GPa) = 0.02581031
#
# Stress axis : x y z
#
# Youngs Moduli (GPa) = 41.71244 41.71244 64.66000
#
# Poissons Ratio (x) = 0.29759 0.37719
# Poissons Ratio (y) = 0.29759 0.37719
# Poissons Ratio (z) = 0.24333 0.24333
#
# Static dielectric constant tensor:
#      x y z
#    x 1.501720 0.000000 0.000000 
#    y 0.000000 1.501720 0.000000 
#    z 0.000000 0.000000 1.508740 
# 
# From -- ./inp_files/5492.got.cif
#   From: 2010.05.17/outbox.cif.g08.bks.cpg/sg191_3_cif.got.tgz:5492.got - 2010.05.20 12:20:32.
