data_PCOD9587491
_publ_section_title
;
Structure prediction by ZEFSAII (Michael W. Deem and Ramdas Pophale) SiO2 
 PCOD9587491
Probable space group: P 6/M M M
;
_chemical_formula_sum "Si O2"
_cell_formula_units_Z 120
_cell_length_a 18.418604
_cell_length_b 18.418604
_cell_length_c 25.609412
_cell_angle_alpha 90.000000
_cell_angle_beta 90.000000
_cell_angle_gamma 120.000000
_cell_volume 7523.911180
_symmetry_space_group_name_H-M "P 6/M M M"
_symmetry_group_IT_number 191
_symmetry_cell_setting 'hexagonal'
loop_
_space_group_symop_operation_xyz
x,y,z
x-y,x,z
-y,x-y,z
-x,-y,z
-x+y,-x,z
y,-x+y,z
x-y,-y,-z
-x,-x+y,-z
y,x,-z
-y,-x,-z
-x+y,y,-z
x,x-y,-z
-x,-y,-z
-x+y,-x,-z
y,-x+y,-z
x,y,-z
x-y,x,-z
-y,x-y,-z
-x+y,y,z
x,x-y,z
-y,-x,z
y,x,z
x-y,-y,z
-x,-x+y,z
loop_
_atom_site_type_symbol
_atom_site_label
_atom_site_fract_x
_atom_site_fract_y
_atom_site_fract_z
Si Si1 0.331442 0.834453 0.612905
Si Si2 0.095504 0.635539 0.500000
Si Si3 0.367555 0.900030 0.904405
Si Si4 0.332532 0.498771 0.211214
Si Si5 0.739424 0.640308 0.000000
Si Si6 0.095252 0.360211 0.702149
O O1 0.424640 0.849279 0.620042
O O2 0.262696 0.737305 0.621515
O O3 0.322421 0.859096 0.553815
O O4 0.309406 0.886770 0.653374
O O5 0.092657 0.546329 0.500000
O O6 0.000000 0.614815 0.500000
O O7 0.439849 0.879698 0.921811
O O8 0.331374 0.854494 0.849677
O O9 0.301014 0.882374 0.949395
O O10 0.415371 0.000000 0.894548
O O11 0.262600 0.525200 0.221142
O O12 0.424740 0.575261 0.223586
O O13 0.306439 0.418201 0.246939
O O14 0.707282 0.707282 0.000000
O O15 0.838386 0.676771 0.000000
O O16 0.167430 0.334859 0.701300
O O17 0.000000 0.286028 0.701128
#
# Coordination Sequence:
#
# PCOD9587491 Si02
#       6
#    24  12  24  24  12  24
#     4  10  19  30  45  66  94 127 161 194 227 265
#     4   9  17  28  42  60  84 119 163 205 237 264
#     4   9  17  29  46  67  90 118 152 189 227 267
#     4  10  19  30  45  67  97 130 161 189 217 252
#     4  10  19  31  47  66  89 117 152 192 233 277
#     4  10  21  35  51  70  91 117 149 188 232 276
#
# _framework density 15.949151000000001
#
# number of rings (size 3 to 8) (size 9 to 14) (size 15 to 20)
#    0.000    2.300    0.000    3.400    0.000    4.400 
#    0.000    3.000    0.000    3.100    0.000    0.000 
#    0.000    0.000    0.000    6.400    0.000   20.800 
#
# Total GULP energy -669253.795771 kJ/mol
# GULP energy per Si atom -5577.114965 kJ/mol
# Density = 1.591285 g / cm^3
# Si number density = 15.949151 Si / 1000 Ang^3
#
#
#
# Elastic Constant Matrix: (Units=GPa)
#
#
# Indices 1 2 3 4 5 6 
#
# 1 80.6051 54.0186 31.9704 0.0000 0.0000 0.0000
# 2 54.0186 80.6051 31.9704 0.0000 0.0000 0.0000
# 3 31.9704 31.9704 65.0475 0.0000 0.0000 0.0000
# 4 0.0000 0.0000 0.0000 18.1923 0.0000 0.0000
# 5 0.0000 0.0000 0.0000 0.0000 18.1923 0.0000
# 6 0.0000 0.0000 0.0000 0.0000 0.0000 13.2933
#
#
#
# Elastic Compliance Matrix: (Units=1/GPa)
#
#
# Indices 1 2 3 4 5 6 
#
# 1 0.023652 -0.013961 -0.004763 0.000000 0.000000 0.000000
# 2 -0.013961 0.023652 -0.004763 0.000000 0.000000 0.000000
# 3 -0.004763 -0.004763 0.020055 0.000000 0.000000 0.000000
# 4 0.000000 0.000000 0.000000 0.054968 0.000000 0.000000
# 5 0.000000 0.000000 0.000000 0.000000 0.054968 0.000000
# 6 0.000000 0.000000 0.000000 0.000000 0.000000 0.075226
#
#
# Mechanical properties :
#
#
# Convention : Reuss Voigt Hill
#
# Bulk Modulus (GPa) = 49.05632 51.35296 50.20464
# Shear Modulus (GPa) = 16.32445 17.15548 16.73996
#
# Velocity S-wave (km/s) = 3.20274 3.28325 3.24324
# Velocity P-wave (km/s) = 6.67094 6.82940 6.75064
#
# Compressibility (1/GPa) = 0.02038474
#
# Stress axis : x y z
#
# Youngs Moduli (GPa) = 42.28047 42.28047 49.86279
#
# Poissons Ratio (x) = 0.59029 0.23748
# Poissons Ratio (y) = 0.59029 0.23748
# Poissons Ratio (z) = 0.20137 0.20137
#
# Static dielectric constant tensor:
#      x y z
#    x 1.522930 0.000000 0.000000 
#    y 0.000000 1.522930 0.000000 
#    z 0.000000 0.000000 1.541930 
# 
# From -- ./inp_files/8605.got.cif
#   From: 2010.05.17/outbox.cif.g08.bks.cpg/sg191_5_cif.got.tgz:8605.got - 2010.05.20 12:20:32.
