data_PCOD9587975
_publ_section_title
;
Structure prediction by ZEFSAII (Michael W. Deem and Ramdas Pophale) SiO2 
 PCOD9587975
Probable space group: P 6/M M M
;
_chemical_formula_sum "Si O2"
_cell_formula_units_Z 120
_cell_length_a 22.262220
_cell_length_b 22.262220
_cell_length_c 18.477770
_cell_angle_alpha 90.000000
_cell_angle_beta 90.000000
_cell_angle_gamma 120.000000
_cell_volume 7930.802396
_symmetry_space_group_name_H-M "P 6/M M M"
_symmetry_group_IT_number 191
_symmetry_cell_setting 'hexagonal'
loop_
_space_group_symop_operation_xyz
x,y,z
x-y,x,z
-y,x-y,z
-x,-y,z
-x+y,-x,z
y,-x+y,z
x-y,-y,-z
-x,-x+y,-z
y,x,-z
-y,-x,-z
-x+y,y,-z
x,x-y,-z
-x,-y,-z
-x+y,-x,-z
y,-x+y,-z
x,y,-z
x-y,x,-z
-y,x-y,-z
-x+y,y,z
x,x-y,z
-y,-x,z
y,x,z
x-y,-y,z
-x,-x+y,z
loop_
_atom_site_type_symbol
_atom_site_label
_atom_site_fract_x
_atom_site_fract_y
_atom_site_fract_z
Si Si1 0.474274 0.807532 0.416457
Si Si2 0.838572 0.161429 0.088071
Si Si3 0.333646 0.800658 0.086188
Si Si4 0.920586 0.841173 0.912468
Si Si5 0.470584 0.389742 0.707202
Si Si6 0.917969 0.600068 0.853459
O O1 0.495543 0.828755 0.500000
O O2 0.394196 0.788392 0.410977
O O3 0.480811 0.740406 0.400804
O O4 0.515887 0.868682 0.359759
O O5 0.879716 0.120285 0.102333
O O6 0.881307 0.237558 0.123428
O O7 0.832627 0.167374 0.000000
O O8 0.394619 0.789238 0.115876
O O9 0.258654 0.741347 0.114363
O O10 0.347546 0.876734 0.101827
O O11 0.332362 0.792666 0.000000
O O12 0.879458 0.879458 0.886260
O O13 0.923433 0.846866 0.000000
O O14 0.546289 0.453712 0.731797
O O15 0.426624 0.426624 0.686024
O O16 0.428345 0.336189 0.771281
O O17 0.000000 0.643792 0.867979
#
# Coordination Sequence:
#
# PCOD9587975 Si02
#       6
#    24  12  24  12  24  24
#     4   9  17  29  48  74 102 129 156 190 232 278
#     4  11  22  35  50  71  97 127 163 205 254 307
#     4  10  20  34  50  68  90 118 155 199 247 295
#     4   9  17  30  49  72  96 121 151 191 242 302
#     4   9  19  34  49  68  95 126 163 202 238 280
#     4  11  22  35  51  70  95 126 161 206 250 292
#
# _framework density 15.130877999999999
#
# number of rings (size 3 to 8) (size 9 to 14) (size 15 to 20)
#    0.000    2.200    1.000    2.300    1.400    6.000 
#    0.000    3.000    0.000    2.400    0.000    0.000 
#    0.000    0.000    0.000    0.000    0.000    0.000 
#
# Total GULP energy -668618.778205 kJ/mol
# GULP energy per Si atom -5571.823152 kJ/mol
# Density = 1.509644 g / cm^3
# Si number density = 15.130878 Si / 1000 Ang^3
#
#
#
# Elastic Constant Matrix: (Units=GPa)
#
#
# Indices 1 2 3 4 5 6 
#
# 1 109.0366 63.1319 58.4397 0.0000 0.0000 0.0000
# 2 63.1319 109.0366 58.4397 0.0000 0.0000 0.0000
# 3 58.4397 58.4397 63.1041 0.0000 0.0000 0.0000
# 4 0.0000 0.0000 0.0000 18.2666 0.0000 0.0000
# 5 0.0000 0.0000 0.0000 0.0000 18.2666 0.0000
# 6 0.0000 0.0000 0.0000 0.0000 0.0000 22.9523
#
#
#
# Elastic Compliance Matrix: (Units=1/GPa)
#
#
# Indices 1 2 3 4 5 6 
#
# 1 0.018713 -0.003071 -0.014486 0.000000 0.000000 0.000000
# 2 -0.003071 0.018713 -0.014486 0.000000 0.000000 0.000000
# 3 -0.014486 -0.014486 0.042678 0.000000 0.000000 0.000000
# 4 0.000000 0.000000 0.000000 0.054745 0.000000 0.000000
# 5 0.000000 0.000000 0.000000 0.000000 0.054745 0.000000
# 6 0.000000 0.000000 0.000000 0.000000 0.000000 0.043569
#
#
# Mechanical properties :
#
#
# Convention : Reuss Voigt Hill
#
# Bulk Modulus (GPa) = 62.43071 71.24444 66.83758
# Shear Modulus (GPa) = 16.52406 18.64148 17.58277
#
# Velocity S-wave (km/s) = 3.30824 3.51382 3.41258
# Velocity P-wave (km/s) = 7.47948 7.97811 7.73282
#
# Compressibility (1/GPa) = 0.01601776
#
# Stress axis : x y z
#
# Youngs Moduli (GPa) = 53.43766 53.43766 23.43136
#
# Poissons Ratio (x) = 0.16410 0.33943
# Poissons Ratio (y) = 0.16410 0.33943
# Poissons Ratio (z) = 0.77411 0.77411
#
# Static dielectric constant tensor:
#      x y z
#    x 1.504550 0.000000 0.000000 
#    y 0.000000 1.504550 0.000000 
#    z 0.000000 0.000000 1.495700 
# 
# From -- ./inp_files/6256.got.cif
#   From: 2010.05.17/outbox.cif.g08.bks.cpg/sg191_4_cif.got.tgz:6256.got - 2010.05.20 12:20:32.
