data_PCOD9587661
_publ_section_title
;
Structure prediction by ZEFSAII (Michael W. Deem and Ramdas Pophale) SiO2 
 PCOD9587661
Probable space group: P 6/M M M
;
_chemical_formula_sum "Si O2"
_cell_formula_units_Z 108
_cell_length_a 20.722155
_cell_length_b 20.722155
_cell_length_c 18.110589
_cell_angle_alpha 90.000000
_cell_angle_beta 90.000000
_cell_angle_gamma 120.000000
_cell_volume 6734.929319
_symmetry_space_group_name_H-M "P 6/M M M"
_symmetry_group_IT_number 191
_symmetry_cell_setting 'hexagonal'
loop_
_space_group_symop_operation_xyz
x,y,z
x-y,x,z
-y,x-y,z
-x,-y,z
-x+y,-x,z
y,-x+y,z
x-y,-y,-z
-x,-x+y,-z
y,x,-z
-y,-x,-z
-x+y,y,-z
x,x-y,-z
-x,-y,-z
-x+y,-x,-z
y,-x+y,-z
x,y,-z
x-y,x,-z
-y,x-y,-z
-x+y,y,z
x,x-y,z
-y,-x,z
y,x,z
x-y,-y,z
-x,-x+y,z
loop_
_atom_site_type_symbol
_atom_site_label
_atom_site_fract_x
_atom_site_fract_y
_atom_site_fract_z
Si Si1 0.764734 0.084257 0.776914
Si Si2 0.542271 0.457730 0.277851
Si Si3 0.331681 0.510597 0.500000
Si Si4 0.555066 0.702712 0.658968
Si Si5 0.457296 0.914592 0.103087
Si Si6 0.288202 0.425653 0.918283
O O1 0.850593 0.149408 0.781092
O O2 0.731018 0.097807 0.701193
O O3 0.723863 0.096749 0.847974
O O4 0.747063 0.000000 0.778637
O O5 0.500000 0.500000 0.308332
O O6 0.626552 0.498461 0.302700
O O7 0.540281 0.459720 0.190806
O O8 0.414135 0.585866 0.500000
O O9 0.266673 0.533346 0.500000
O O10 0.316210 0.458951 0.427867
O O11 0.536623 0.768312 0.672670
O O12 0.370821 0.874631 0.082461
O O13 0.500000 0.000000 0.076435
O O14 0.223592 0.447184 0.911299
O O15 0.277893 0.389457 0.000000
#
# Coordination Sequence:
#
# PCOD9587661 Si02
#       6
#    24  12  12  24  12  24
#     4  10  20  36  57  77 101 131 161 201 248 303
#     4  11  20  32  50  72  99 129 169 217 260 302
#     4  10  19  32  48  70 101 136 177 217 255 295
#     4  10  20  34  51  72 100 134 174 212 253 298
#     4  11  21  32  52  74  96 131 175 218 258 300
#     4  10  21  35  50  72 101 133 172 214 255 298
#
# _framework density 16.035803000000001
#
# number of rings (size 3 to 8) (size 9 to 14) (size 15 to 20)
#    0.000    1.778    3.333    1.778    0.000    2.222 
#    1.333    2.778    0.000    0.222    0.000    0.000 
#    0.000    0.000    0.000    5.556    0.000   13.111 
#
# Total GULP energy -601609.186024 kJ/mol
# GULP energy per Si atom -5570.455426 kJ/mol
# Density = 1.599930 g / cm^3
# Si number density = 16.035803 Si / 1000 Ang^3
#
#
#
# Elastic Constant Matrix: (Units=GPa)
#
#
# Indices 1 2 3 4 5 6 
#
# 1 70.6162 59.1382 37.4411 0.0000 0.0000 0.0000
# 2 59.1382 70.6162 37.4411 0.0000 0.0000 0.0000
# 3 37.4411 37.4411 121.2741 0.0000 0.0000 0.0000
# 4 0.0000 0.0000 0.0000 17.1100 0.0000 0.0000
# 5 0.0000 0.0000 0.0000 0.0000 17.1100 0.0000
# 6 0.0000 0.0000 0.0000 0.0000 0.0000 5.7390
#
#
#
# Elastic Compliance Matrix: (Units=1/GPa)
#
#
# Indices 1 2 3 4 5 6 
#
# 1 0.048251 -0.038873 -0.002895 0.000000 0.000000 0.000000
# 2 -0.038873 0.048251 -0.002895 0.000000 0.000000 0.000000
# 3 -0.002895 -0.002895 0.010033 0.000000 0.000000 0.000000
# 4 0.000000 0.000000 0.000000 0.058445 0.000000 0.000000
# 5 0.000000 0.000000 0.000000 0.000000 0.058445 0.000000
# 6 0.000000 0.000000 0.000000 0.000000 0.000000 0.174247
#
#
# Mechanical properties :
#
#
# Convention : Reuss Voigt Hill
#
# Bulk Modulus (GPa) = 58.11218 58.94972 58.53095
# Shear Modulus (GPa) = 10.14744 16.55753 13.35248
#
# Velocity S-wave (km/s) = 2.51828 3.21679 2.88873
# Velocity P-wave (km/s) = 6.69129 7.11605 6.90693
#
# Compressibility (1/GPa) = 0.01720810
#
# Stress axis : x y z
#
# Youngs Moduli (GPa) = 20.72513 20.72513 99.66656
#
# Poissons Ratio (x) = 0.80565 0.28855
# Poissons Ratio (y) = 0.80565 0.28855
# Poissons Ratio (z) = 0.06000 0.06000
#
# Static dielectric constant tensor:
#      x y z
#    x 1.519180 0.000000 0.000000 
#    y 0.000000 1.519180 0.000000 
#    z 0.000000 0.000000 1.588740 
# 
# From -- ./inp_files/6154.got.cif
#   From: 2010.05.17/outbox.cif.g08.bks.cpg/sg191_4_cif.got.tgz:6154.got - 2010.05.20 12:20:32.
