data_PCOD9587059
_publ_section_title
;
Structure prediction by ZEFSAII (Michael W. Deem and Ramdas Pophale) SiO2 
 PCOD9587059
Probable space group: P 6/M M M
;
_chemical_formula_sum "Si O2"
_cell_formula_units_Z 192
_cell_length_a 23.237402
_cell_length_b 23.237402
_cell_length_c 24.502119
_cell_angle_alpha 90.000000
_cell_angle_beta 90.000000
_cell_angle_gamma 120.000000
_cell_volume 11458.015856
_symmetry_space_group_name_H-M "P 6/M M M"
_symmetry_group_IT_number 191
_symmetry_cell_setting 'hexagonal'
loop_
_space_group_symop_operation_xyz
x,y,z
x-y,x,z
-y,x-y,z
-x,-y,z
-x+y,-x,z
y,-x+y,z
x-y,-y,-z
-x,-x+y,-z
y,x,-z
-y,-x,-z
-x+y,y,-z
x,x-y,-z
-x,-y,-z
-x+y,-x,-z
y,-x+y,-z
x,y,-z
x-y,x,-z
-y,x-y,-z
-x+y,y,z
x,x-y,z
-y,-x,z
y,x,z
x-y,-y,z
-x,-x+y,z
loop_
_atom_site_type_symbol
_atom_site_label
_atom_site_fract_x
_atom_site_fract_y
_atom_site_fract_z
Si Si1 0.404071 0.271903 0.062184
Si Si2 0.665397 0.466404 0.370207
Si Si3 0.717510 0.791761 0.638845
Si Si4 0.883661 0.633906 0.750001
Si Si5 0.132169 0.728098 0.562184
Si Si6 0.634843 0.493691 0.750001
Si Si7 0.717511 0.791762 0.861156
Si Si8 0.466404 0.665397 0.129792
O O1 0.406119 0.203060 0.061311
O O2 0.335951 0.252273 0.092740
O O3 0.467568 0.321424 0.098046
O O4 0.407113 0.294095 0.000000
O O5 0.728562 0.457124 0.379679
O O6 0.598116 0.401884 0.388435
O O7 0.678576 0.532431 0.401954
O O8 0.659131 0.475665 0.305633
O O9 0.735441 0.867721 0.631840
O O10 0.778161 0.778161 0.637971
O O11 0.678490 0.766773 0.696254
O O12 0.664049 0.747728 0.592741
O O13 0.803560 0.607120 0.750000
O O14 0.898919 0.573674 0.750001
O O15 0.911717 0.678491 0.803747
O O16 0.113019 0.705905 0.500000
O O17 0.203060 0.796941 0.561310
O O18 0.554391 0.445610 0.750002
O O19 0.659133 0.475664 0.805634
O O20 0.735442 0.867721 0.868161
O O21 0.778162 0.778162 0.862029
O O22 0.457123 0.728562 0.120317
O O23 0.401885 0.598116 0.111564
#
# Coordination Sequence:
#
# PCOD9587059 Si02
#       8
#    24  24  24  24  24  24  24  24
#     4   9  18  32  49  69  95 131 174 215 252 291
#     4  10  18  28  44  68  99 134 173 218 267 313
#     4  10  20  34  56  82 106 130 160 200 243 292
#     4  10  17  31  53  76 103 137 174 211 250 291
#     4   9  18  32  49  69  95 131 174 215 252 291
#     4  10  18  27  46  72 101 135 171 216 265 308
#     4  10  20  34  56  82 106 130 160 200 243 292
#     4  10  18  28  44  68  99 134 173 218 267 313
#
# _framework density 16.756827999999999
#
# number of rings (size 3 to 8) (size 9 to 14) (size 15 to 20)
#    0.000    2.250    2.500    1.750    0.000    1.000 
#    0.000    1.250    0.000    5.750    0.000    1.750 
#    0.000    3.000    0.000    6.250    0.000    0.000 
#
# Total GULP energy -1070005.815830 kJ/mol
# GULP energy per Si atom -5572.946957 kJ/mol
# Density = 1.671869 g / cm^3
# Si number density = 16.756828 Si / 1000 Ang^3
#
#
#
# Elastic Constant Matrix: (Units=GPa)
#
#
# Indices 1 2 3 4 5 6 
#
# 1 85.2662 55.1858 30.0593 0.0000 0.0000 0.0000
# 2 55.1858 85.2662 30.0593 0.0000 0.0000 0.0000
# 3 30.0593 30.0593 96.8794 0.0000 0.0000 0.0000
# 4 0.0000 0.0000 0.0000 -10.2367 0.0000 0.0000
# 5 0.0000 0.0000 0.0000 0.0000 -10.2367 0.0000
# 6 0.0000 0.0000 0.0000 0.0000 0.0000 15.0402
#
#
#
# Elastic Compliance Matrix: (Units=1/GPa)
#
#
# Indices 1 2 3 4 5 6 
#
# 1 0.020727 -0.012517 -0.002547 0.000000 0.000000 0.000000
# 2 -0.012517 0.020727 -0.002547 0.000000 0.000000 0.000000
# 3 -0.002547 -0.002547 0.011903 0.000000 0.000000 0.000000
# 4 0.000000 0.000000 0.000000 -0.097687 0.000000 0.000000
# 5 0.000000 0.000000 0.000000 0.000000 -0.097687 0.000000
# 6 0.000000 0.000000 0.000000 0.000000 0.000000 0.066488
#
#
# Mechanical properties :
#
#
# Convention : Reuss Voigt Hill
#
# Bulk Modulus (GPa) = 55.14597 55.33562 55.24080
# Shear Modulus (GPa) = -145.93907 9.05386 -68.44261
#
# Velocity S-wave (km/s) = -9.34245 2.32698 -6.39791
# Velocity P-wave (km/s) = 9.13204 6.34934 4.64112
#
# Compressibility (1/GPa) = 0.01813369
#
# Stress axis : x y z
#
# Youngs Moduli (GPa) = 48.24570 48.24570 84.01298
#
# Poissons Ratio (x) = 0.60389 0.21402
# Poissons Ratio (y) = 0.60389 0.21402
# Poissons Ratio (z) = 0.12290 0.12290
#
# Static dielectric constant tensor:
#      x y z
#    x 1.560320 0.000000 0.000000 
#    y 0.000000 1.560320 0.000000 
#    z 0.000000 0.000000 1.570950 
# 
# From -- ./inp_files/9306.got.cif
#   From: 2010.05.17/outbox.cif.g08.bks.cpg/sg191_5_cif.got.tgz:9306.got - 2010.05.20 12:20:32.
