data_PCOD9587095
_publ_section_title
;
Structure prediction by ZEFSAII (Michael W. Deem and Ramdas Pophale) SiO2 
 PCOD9587095
Probable space group: P 6/M M M
;
_chemical_formula_sum "Si O2"
_cell_formula_units_Z 132
_cell_length_a 18.276794
_cell_length_b 18.276794
_cell_length_c 28.888781
_cell_angle_alpha 90.000000
_cell_angle_beta 90.000000
_cell_angle_gamma 120.000000
_cell_volume 8357.182421
_symmetry_space_group_name_H-M "P 6/M M M"
_symmetry_group_IT_number 191
_symmetry_cell_setting 'hexagonal'
loop_
_space_group_symop_operation_xyz
x,y,z
x-y,x,z
-y,x-y,z
-x,-y,z
-x+y,-x,z
y,-x+y,z
x-y,-y,-z
-x,-x+y,-z
y,x,-z
-y,-x,-z
-x+y,y,-z
x,x-y,-z
-x,-y,-z
-x+y,-x,-z
y,-x+y,-z
x,y,-z
x-y,x,-z
-y,x-y,-z
-x+y,y,z
x,x-y,z
-y,-x,z
y,x,z
x-y,-y,z
-x,-x+y,z
loop_
_atom_site_type_symbol
_atom_site_label
_atom_site_fract_x
_atom_site_fract_y
_atom_site_fract_z
Si Si1 0.736560 0.096242 0.054933
Si Si2 0.500879 0.669423 0.596332
Si Si3 0.365306 0.466439 0.305761
Si Si4 0.667067 0.161115 0.867595
Si Si5 0.535168 0.635675 0.500000
Si Si6 0.099074 0.365533 0.217176
O O1 0.833371 0.166630 0.065892
O O2 0.679386 0.122327 0.084943
O O3 0.709948 0.000000 0.065943
O O4 0.724268 0.101066 0.000000
O O5 0.463331 0.731666 0.595191
O O6 0.427874 0.572127 0.596855
O O7 0.546480 0.681312 0.645262
O O8 0.551414 0.683789 0.548587
O O9 0.433833 0.566168 0.298622
O O10 0.419619 0.419619 0.309075
O O11 0.303557 0.424211 0.262748
O O12 0.575600 0.151199 0.863084
O O13 0.740647 0.259353 0.866184
O O14 0.688349 0.115368 0.826403
O O15 0.585786 0.585786 0.500000
O O16 0.435037 0.564964 0.500000
O O17 0.166924 0.333847 0.213802
O O18 0.000000 0.295158 0.218755
#
# Coordination Sequence:
#
# PCOD9587095 Si02
#       6
#    24  24  24  24  12  24
#     4   9  18  32  49  69  93 122 156 193 233 275
#     4  10  18  27  39  56  79 105 134 168 207 250
#     4   9  17  29  45  64  86 113 144 176 209 250
#     4  10  20  33  49  70  96 125 155 187 223 263
#     4   9  17  28  40  52  68  95 132 172 210 246
#     4  10  20  33  49  69  92 118 149 185 225 267
#
# _framework density 15.794797000000001
#
# number of rings (size 3 to 8) (size 9 to 14) (size 15 to 20)
#    0.000    2.455    0.000    2.818    0.000    4.727 
#    0.000    1.818    0.000    7.273    0.000    1.273 
#    0.000    4.364    0.000    0.182    0.000    0.000 
#
# Total GULP energy -735116.704462 kJ/mol
# GULP energy per Si atom -5569.065943 kJ/mol
# Density = 1.575885 g / cm^3
# Si number density = 15.794797 Si / 1000 Ang^3
#
#
#
# Elastic Constant Matrix: (Units=GPa)
#
#
# Indices 1 2 3 4 5 6 
#
# 1 65.9091 45.5039 34.6383 0.0000 0.0000 0.0000
# 2 45.5039 65.9091 34.6383 0.0000 0.0000 0.0000
# 3 34.6383 34.6383 74.0105 0.0000 0.0000 0.0000
# 4 0.0000 0.0000 0.0000 14.3259 0.0000 0.0000
# 5 0.0000 0.0000 0.0000 0.0000 14.3259 0.0000
# 6 0.0000 0.0000 0.0000 0.0000 0.0000 10.2026
#
#
#
# Elastic Compliance Matrix: (Units=1/GPa)
#
#
# Indices 1 2 3 4 5 6 
#
# 1 0.030833 -0.018174 -0.005925 0.000000 0.000000 0.000000
# 2 -0.018174 0.030833 -0.005925 0.000000 0.000000 0.000000
# 3 -0.005925 -0.005925 0.019058 0.000000 0.000000 0.000000
# 4 0.000000 0.000000 0.000000 0.069804 0.000000 0.000000
# 5 0.000000 0.000000 0.000000 0.000000 0.069804 0.000000
# 6 0.000000 0.000000 0.000000 0.000000 0.000000 0.098014
#
#
# Mechanical properties :
#
#
# Convention : Reuss Voigt Hill
#
# Bulk Modulus (GPa) = 48.36261 48.37666 48.36963
# Shear Modulus (GPa) = 12.97735 13.84074 13.40905
#
# Velocity S-wave (km/s) = 2.86950 2.96342 2.91684
# Velocity P-wave (km/s) = 6.45481 6.51183 6.48338
#
# Compressibility (1/GPa) = 0.02067713
#
# Stress axis : x y z
#
# Youngs Moduli (GPa) = 32.43228 32.43228 52.47242
#
# Poissons Ratio (x) = 0.58941 0.31090
# Poissons Ratio (y) = 0.58941 0.31090
# Poissons Ratio (z) = 0.19216 0.19216
#
# Static dielectric constant tensor:
#      x y z
#    x 1.518230 0.000000 0.000000 
#    y 0.000000 1.518230 0.000000 
#    z 0.000000 0.000000 1.568020 
# 
# From -- ./inp_files/9752.got.cif
#   From: 2010.05.17/outbox.cif.g08.bks.cpg/sg191_5_cif.got.tgz:9752.got - 2010.05.20 12:20:32.
