data_PCOD9587246
_publ_section_title
;
Structure prediction by ZEFSAII (Michael W. Deem and Ramdas Pophale) SiO2 
 PCOD9587246
Probable space group: P 6/M M M
;
_chemical_formula_sum "Si O2"
_cell_formula_units_Z 120
_cell_length_a 20.928304
_cell_length_b 20.928304
_cell_length_c 20.761132
_cell_angle_alpha 90.000000
_cell_angle_beta 90.000000
_cell_angle_gamma 120.000000
_cell_volume 7874.984936
_symmetry_space_group_name_H-M "P 6/M M M"
_symmetry_group_IT_number 191
_symmetry_cell_setting 'hexagonal'
loop_
_space_group_symop_operation_xyz
x,y,z
x-y,x,z
-y,x-y,z
-x,-y,z
-x+y,-x,z
y,-x+y,z
x-y,-y,-z
-x,-x+y,-z
y,x,-z
-y,-x,-z
-x+y,y,-z
x,x-y,-z
-x,-y,-z
-x+y,-x,-z
y,-x+y,-z
x,y,-z
x-y,x,-z
-y,x-y,-z
-x+y,y,z
x,x-y,z
-y,-x,z
y,x,z
x-y,-y,z
-x,-x+y,z
loop_
_atom_site_type_symbol
_atom_site_label
_atom_site_fract_x
_atom_site_fract_y
_atom_site_fract_z
Si Si1 0.465142 0.379990 0.373053
Si Si2 0.522828 0.186222 0.000000
Si Si3 0.305073 0.224804 0.924540
Si Si4 0.361304 0.913872 0.875926
Si Si5 0.483123 0.817804 0.250271
Si Si6 0.820581 0.487552 0.500000
O O1 0.540703 0.459298 0.371283
O O2 0.399684 0.399684 0.372840
O O3 0.469795 0.337087 0.310729
O O4 0.471492 0.340806 0.437237
O O5 0.492154 0.133602 0.937758
O O6 0.610844 0.221688 0.000000
O O7 0.501834 0.250917 0.000000
O O8 0.289432 0.144716 0.909815
O O9 0.235534 0.235534 0.917291
O O10 0.370491 0.284941 0.881813
O O11 0.328924 0.241683 0.000000
O O12 0.359040 0.870245 0.812278
O O13 0.425024 0.000000 0.877577
O O14 0.397902 0.795804 0.261251
O O15 0.489322 0.744661 0.241980
O O16 0.742490 0.484980 0.500000
O O17 0.808370 0.404185 0.500000
#
# Coordination Sequence:
#
# PCOD9587246 Si02
#       6
#    24  12  24  24  24  12
#     4   9  18  32  49  68  91 121 156 193 232 274
#     4  12  24  37  51  67  90 117 149 189 237 288
#     4   9  16  28  46  66  87 110 141 179 220 264
#     4  11  22  35  51  69  88 116 153 195 236 277
#     4  11  22  35  50  68  93 122 153 191 239 291
#     4  10  18  29  47  71  98 125 156 194 237 282
#
# _framework density 15.238125
#
# number of rings (size 3 to 8) (size 9 to 14) (size 15 to 20)
#    0.000    1.800    1.000    4.600    0.000    4.000 
#    0.000    4.000    0.000    0.200    0.000    1.400 
#    0.000    0.000    0.000    0.000    0.000    0.000 
#
# Total GULP energy -669250.535491 kJ/mol
# GULP energy per Si atom -5577.087796 kJ/mol
# Density = 1.520344 g / cm^3
# Si number density = 15.238125 Si / 1000 Ang^3
#
#
#
# Elastic Constant Matrix: (Units=GPa)
#
#
# Indices 1 2 3 4 5 6 
#
# 1 89.9130 59.6317 40.0285 0.0000 0.0000 0.0000
# 2 59.6317 89.9130 40.0285 0.0000 0.0000 0.0000
# 3 40.0285 40.0285 120.8199 0.0000 0.0000 0.0000
# 4 0.0000 0.0000 0.0000 15.5726 0.0000 0.0000
# 5 0.0000 0.0000 0.0000 0.0000 15.5726 0.0000
# 6 0.0000 0.0000 0.0000 0.0000 0.0000 15.1407
#
#
#
# Elastic Compliance Matrix: (Units=1/GPa)
#
#
# Indices 1 2 3 4 5 6 
#
# 1 0.020576 -0.012447 -0.002693 0.000000 0.000000 0.000000
# 2 -0.012447 0.020576 -0.002693 0.000000 0.000000 0.000000
# 3 -0.002693 -0.002693 0.010061 0.000000 0.000000 0.000000
# 4 0.000000 0.000000 0.000000 0.064215 0.000000 0.000000
# 5 0.000000 0.000000 0.000000 0.000000 0.064215 0.000000
# 6 0.000000 0.000000 0.000000 0.000000 0.000000 0.066047
#
#
# Mechanical properties :
#
#
# Convention : Reuss Voigt Hill
#
# Bulk Modulus (GPa) = 64.32416 64.44704 64.38560
# Shear Modulus (GPa) = 17.44954 19.98768 18.71861
#
# Velocity S-wave (km/s) = 3.38764 3.62565 3.50867
# Velocity P-wave (km/s) = 7.58985 7.74030 7.66544
#
# Compressibility (1/GPa) = 0.01554626
#
# Stress axis : x y z
#
# Youngs Moduli (GPa) = 48.59994 48.59994 99.39116
#
# Poissons Ratio (x) = 0.60495 0.26767
# Poissons Ratio (y) = 0.60495 0.26767
# Poissons Ratio (z) = 0.13088 0.13088
#
# Static dielectric constant tensor:
#      x y z
#    x 1.503820 0.000000 0.000000 
#    y 0.000000 1.503820 0.000000 
#    z 0.000000 0.000000 1.514620 
# 
# From -- ./inp_files/6237.got.cif
#   From: 2010.05.17/outbox.cif.g08.bks.cpg/sg191_4_cif.got.tgz:6237.got - 2010.05.20 12:20:32.
