data_PCOD9587844
_publ_section_title
;
Structure prediction by ZEFSAII (Michael W. Deem and Ramdas Pophale) SiO2 
 PCOD9587844
Probable space group: P 6/M M M
;
_chemical_formula_sum "Si O2"
_cell_formula_units_Z 132
_cell_length_a 18.425367
_cell_length_b 18.425367
_cell_length_c 28.580263
_cell_angle_alpha 90.000000
_cell_angle_beta 90.000000
_cell_angle_gamma 120.000000
_cell_volume 8402.899059
_symmetry_space_group_name_H-M "P 6/M M M"
_symmetry_group_IT_number 191
_symmetry_cell_setting 'hexagonal'
loop_
_space_group_symop_operation_xyz
x,y,z
x-y,x,z
-y,x-y,z
-x,-y,z
-x+y,-x,z
y,-x+y,z
x-y,-y,-z
-x,-x+y,-z
y,x,-z
-y,-x,-z
-x+y,y,-z
x,x-y,-z
-x,-y,-z
-x+y,-x,-z
y,-x+y,-z
x,y,-z
x-y,x,-z
-y,x-y,-z
-x+y,y,z
x,x-y,z
-y,-x,z
y,x,z
x-y,-y,z
-x,-x+y,z
loop_
_atom_site_type_symbol
_atom_site_label
_atom_site_fract_x
_atom_site_fract_y
_atom_site_fract_z
Si Si1 0.099861 0.467483 0.348604
Si Si2 0.163884 0.665980 0.923044
Si Si3 0.262526 0.902313 0.735547
Si Si4 0.334032 0.497747 0.813036
Si Si5 0.736415 0.094291 0.000000
Si Si6 0.837932 0.332034 0.449382
O O1 0.134463 0.567232 0.342592
O O2 0.124899 0.424658 0.308160
O O3 0.120799 0.450348 0.400731
O O4 0.000000 0.423186 0.345178
O O5 0.153532 0.576766 0.936217
O O6 0.260682 0.739318 0.929002
O O7 0.143392 0.663290 0.868061
O O8 0.110733 0.692849 0.955323
O O9 0.163805 0.836196 0.738755
O O10 0.307305 0.889871 0.780930
O O11 0.291108 0.000000 0.730549
O O12 0.260488 0.520976 0.807352
O O13 0.423600 0.576401 0.799727
O O14 0.833324 0.166677 0.000000
O O15 0.717265 0.000000 0.000000
O O16 0.873511 0.324912 0.500000
O O17 0.842452 0.421226 0.449481
O O18 0.742505 0.257496 0.448035
#
# Coordination Sequence:
#
# PCOD9587844 Si02
#       6
#    24  24  24  24  12  24
#     4   9  17  28  42  61  84 109 137 169 207 254
#     4   9  17  29  46  69  98 130 159 183 208 244
#     4  10  20  33  48  65  86 112 143 180 223 269
#     4   9  17  29  46  69  97 128 158 184 209 241
#     4  10  21  35  49  66  89 117 150 190 235 277
#     4   9  16  25  37  53  75 105 141 177 207 234
#
# _framework density 15.708864999999999
#
# number of rings (size 3 to 8) (size 9 to 14) (size 15 to 20)
#    0.000    2.727    0.000    1.909    0.000    5.091 
#    0.000    4.545    0.000    6.091    0.000    0.000 
#    0.000    0.000    0.000    9.091    0.000    0.000 
#
# Total GULP energy -735190.777169 kJ/mol
# GULP energy per Si atom -5569.627100 kJ/mol
# Density = 1.567311 g / cm^3
# Si number density = 15.708865 Si / 1000 Ang^3
#
#
#
# Elastic Constant Matrix: (Units=GPa)
#
#
# Indices 1 2 3 4 5 6 
#
# 1 57.0931 42.7219 32.7358 0.0000 0.0000 0.0000
# 2 42.7219 57.0931 32.7358 0.0000 0.0000 0.0000
# 3 32.7358 32.7358 62.8354 0.0000 0.0000 0.0000
# 4 0.0000 0.0000 0.0000 22.9868 0.0000 0.0000
# 5 0.0000 0.0000 0.0000 0.0000 22.9868 0.0000
# 6 0.0000 0.0000 0.0000 0.0000 0.0000 7.1856
#
#
#
# Elastic Compliance Matrix: (Units=1/GPa)
#
#
# Indices 1 2 3 4 5 6 
#
# 1 0.042402 -0.027182 -0.007929 0.000000 0.000000 0.000000
# 2 -0.027182 0.042402 -0.007929 0.000000 0.000000 0.000000
# 3 -0.007929 -0.007929 0.024176 0.000000 0.000000 0.000000
# 4 0.000000 0.000000 0.000000 0.043503 0.000000 0.000000
# 5 0.000000 0.000000 0.000000 0.000000 0.043503 0.000000
# 6 0.000000 0.000000 0.000000 0.000000 0.000000 0.139167
#
#
# Mechanical properties :
#
#
# Convention : Reuss Voigt Hill
#
# Bulk Modulus (GPa) = 43.66971 43.71204 43.69087
# Shear Modulus (GPa) = 11.65865 15.22039 13.43952
#
# Velocity S-wave (km/s) = 2.72724 3.11610 2.92813
# Velocity P-wave (km/s) = 6.14629 6.39011 6.26938
#
# Compressibility (1/GPa) = 0.02289917
#
# Stress axis : x y z
#
# Youngs Moduli (GPa) = 23.58405 23.58405 41.36302
#
# Poissons Ratio (x) = 0.64107 0.32796
# Poissons Ratio (y) = 0.64107 0.32796
# Poissons Ratio (z) = 0.18700 0.18700
#
# Static dielectric constant tensor:
#      x y z
#    x 1.511980 0.000000 0.000000 
#    y 0.000000 1.511980 0.000000 
#    z 0.000000 0.000000 1.566530 
# 
# From -- ./inp_files/9758.got.cif
#   From: 2010.05.17/outbox.cif.g08.bks.cpg/sg191_5_cif.got.tgz:9758.got - 2010.05.20 12:20:32.
