data_PCOD9587785
_publ_section_title
;
Structure prediction by ZEFSAII (Michael W. Deem and Ramdas Pophale) SiO2 
 PCOD9587785
Probable space group: P 6/M M M
;
_chemical_formula_sum "Si O2"
_cell_formula_units_Z 144
_cell_length_a 32.607579
_cell_length_b 32.607579
_cell_length_c 9.558654
_cell_angle_alpha 90.000000
_cell_angle_beta 90.000000
_cell_angle_gamma 120.000000
_cell_volume 8801.657878
_symmetry_space_group_name_H-M "P 6/M M M"
_symmetry_group_IT_number 191
_symmetry_cell_setting 'hexagonal'
loop_
_space_group_symop_operation_xyz
x,y,z
x-y,x,z
-y,x-y,z
-x,-y,z
-x+y,-x,z
y,-x+y,z
x-y,-y,-z
-x,-x+y,-z
y,x,-z
-y,-x,-z
-x+y,y,-z
x,x-y,-z
-x,-y,-z
-x+y,-x,-z
y,-x+y,-z
x,y,-z
x-y,x,-z
-y,x-y,-z
-x+y,y,z
x,x-y,z
-y,-x,z
y,x,z
x-y,-y,z
-x,-x+y,z
loop_
_atom_site_type_symbol
_atom_site_label
_atom_site_fract_x
_atom_site_fract_y
_atom_site_fract_z
Si Si1 0.055239 0.768140 0.166376
Si Si2 0.148289 0.202389 0.335175
Si Si3 0.576311 0.523284 0.340429
Si Si4 0.233650 0.863587 0.334466
Si Si5 0.481312 0.289166 0.662413
Si Si6 0.620307 0.143865 0.834343
O O1 0.062050 0.815798 0.239916
O O2 0.092063 0.756249 0.240388
O O3 0.000000 0.729012 0.188543
O O4 0.063505 0.774798 0.000000
O O5 0.157966 0.216043 0.500000
O O6 0.094623 0.189245 0.307173
O O7 0.160993 0.160993 0.312526
O O8 0.594635 0.531040 0.500000
O O9 0.525929 0.474072 0.341302
O O10 0.563809 0.563809 0.303631
O O11 0.608522 0.514590 0.234447
O O12 0.236407 0.875029 0.500000
O O13 0.180605 0.819396 0.308530
O O14 0.269211 0.843542 0.307750
O O15 0.489738 0.304349 0.500000
O O16 0.488757 0.244379 0.677480
O O17 0.514443 0.331975 0.761837
O O18 0.575417 0.150833 0.804247
O O19 0.625072 0.142844 0.000000
#
# Coordination Sequence:
#
# PCOD9587785 Si02
#       6
#    24  24  24  24  24  24
#     4  10  20  31  44  67  98 127 156 192 233 279
#     4   9  17  29  45  64  87 118 156 197 242 293
#     4   8  14  26  45  68  94 126 163 198 229 265
#     4   9  18  33  52  72  93 119 155 197 237 279
#     4   9  19  36  56  76  97 124 162 205 242 279
#     4  10  20  32  49  76 106 133 161 195 239 289
#
# _framework density 16.360554
#
# number of rings (size 3 to 8) (size 9 to 14) (size 15 to 20)
#    0.000    2.833    0.000    3.000    0.000    6.000 
#    0.000    4.167    0.000    1.500    0.000    1.167 
#    0.000    0.000    0.000    4.167    0.000    4.333 
#
# Total GULP energy -802576.607383 kJ/mol
# GULP energy per Si atom -5573.448662 kJ/mol
# Density = 1.632332 g / cm^3
# Si number density = 16.360554 Si / 1000 Ang^3
#
#
#
# Elastic Constant Matrix: (Units=GPa)
#
#
# Indices 1 2 3 4 5 6 
#
# 1 66.2760 38.4295 57.1628 0.0000 0.0000 0.0000
# 2 38.4295 66.2760 57.1628 0.0000 0.0000 0.0000
# 3 57.1628 57.1628 79.9418 0.0000 0.0000 0.0000
# 4 0.0000 0.0000 0.0000 12.4700 0.0000 0.0000
# 5 0.0000 0.0000 0.0000 0.0000 12.4700 0.0000
# 6 0.0000 0.0000 0.0000 0.0000 0.0000 13.9232
#
#
#
# Elastic Compliance Matrix: (Units=1/GPa)
#
#
# Indices 1 2 3 4 5 6 
#
# 1 0.039736 0.003825 -0.031149 0.000000 0.000000 0.000000
# 2 0.003825 0.039736 -0.031149 0.000000 0.000000 0.000000
# 3 -0.031149 -0.031149 0.057055 0.000000 0.000000 0.000000
# 4 0.000000 0.000000 0.000000 0.080193 0.000000 0.000000
# 5 0.000000 0.000000 0.000000 0.000000 0.080193 0.000000
# 6 0.000000 0.000000 0.000000 0.000000 0.000000 0.071822
#
#
# Mechanical properties :
#
#
# Convention : Reuss Voigt Hill
#
# Bulk Modulus (GPa) = 51.06511 57.55599 54.31055
# Shear Modulus (GPa) = 10.15833 11.75521 10.95677
#
# Velocity S-wave (km/s) = 2.49450 2.68341 2.59068
# Velocity P-wave (km/s) = 6.29101 6.69754 6.49745
#
# Compressibility (1/GPa) = 0.01958284
#
# Stress axis : x y z
#
# Youngs Moduli (GPa) = 25.16603 25.16603 17.52696
#
# Poissons Ratio (x) = -0.09626 0.54594
# Poissons Ratio (y) = -0.09626 0.54594
# Poissons Ratio (z) = 0.78389 0.78389
#
# Static dielectric constant tensor:
#      x y z
#    x 1.548320 0.000000 0.000000 
#    y 0.000000 1.548320 0.000000 
#    z 0.000000 0.000000 1.537800 
# 
# From -- ./inp_files/1971.got.cif
#   From: 2010.05.17/outbox.cif.g08.bks.cpg/sg191_1_cif.got.tgz:1971.got - 2010.05.20 12:20:32.
