data_PCOD9587456
_publ_section_title
;
Structure prediction by ZEFSAII (Michael W. Deem and Ramdas Pophale) SiO2 
 PCOD9587456
Probable space group: P 6/M M M
;
_chemical_formula_sum "Si O2"
_cell_formula_units_Z 192
_cell_length_a 22.626717
_cell_length_b 22.626717
_cell_length_c 29.144016
_cell_angle_alpha 90.000000
_cell_angle_beta 90.000000
_cell_angle_gamma 120.000000
_cell_volume 12921.803080
_symmetry_space_group_name_H-M "P 6/M M M"
_symmetry_group_IT_number 191
_symmetry_cell_setting 'hexagonal'
loop_
_space_group_symop_operation_xyz
x,y,z
x-y,x,z
-y,x-y,z
-x,-y,z
-x+y,-x,z
y,-x+y,z
x-y,-y,-z
-x,-x+y,-z
y,x,-z
-y,-x,-z
-x+y,y,-z
x,x-y,-z
-x,-y,-z
-x+y,-x,-z
y,-x+y,-z
x,y,-z
x-y,x,-z
-y,x-y,-z
-x+y,y,z
x,x-y,z
-y,-x,z
y,x,z
x-y,-y,z
-x,-x+y,z
loop_
_atom_site_type_symbol
_atom_site_label
_atom_site_fract_x
_atom_site_fract_y
_atom_site_fract_z
Si Si1 0.667135 0.195428 0.554098
Si Si2 0.705504 0.784682 0.768491
Si Si3 0.468322 0.077679 0.128844
Si Si4 0.526145 0.193694 0.202092
Si Si5 0.078643 0.792869 0.125535
Si Si6 0.079845 0.469831 0.371728
Si Si7 0.567959 0.852555 0.710416
Si Si8 0.917593 0.302763 0.051505
O O1 0.669146 0.181557 0.500000
O O2 0.606810 0.213619 0.560067
O O3 0.739605 0.260396 0.567096
O O4 0.645837 0.129238 0.584961
O O5 0.728701 0.864351 0.760703
O O6 0.761174 0.761174 0.760412
O O7 0.686098 0.771516 0.822640
O O8 0.639295 0.741271 0.737111
O O9 0.537646 0.075291 0.127222
O O10 0.479947 0.133571 0.166584
O O11 0.452288 0.097566 0.079433
O O12 0.408009 0.000000 0.139730
O O13 0.601435 0.202869 0.201690
O O14 0.527917 0.263959 0.190322
O O15 0.491736 0.170640 0.251923
O O16 0.126665 0.873336 0.123031
O O17 0.101809 0.758473 0.086851
O O18 0.000000 0.767436 0.117988
O O19 0.085927 0.542964 0.360322
O O20 0.107163 0.443779 0.330084
O O21 0.000000 0.418230 0.381065
O O22 0.567166 0.783583 0.694425
O O23 0.000000 0.341014 0.047959
O O24 0.889748 0.284941 0.000000
#
# Coordination Sequence:
#
# PCOD9587456 Si02
#       8
#    24  24  24  24  24  24  24  24
#     4   9  17  30  48  67  86 111 146 186 223 257
#     4   9  17  29  46  66  88 115 144 175 210 251
#     4   9  18  31  46  65  87 110 137 169 206 250
#     4  10  20  33  48  65  86 113 145 179 215 256
#     4   9  17  29  44  62  84 109 137 168 204 246
#     4  10  20  31  43  62  89 118 145 176 217 263
#     4  10  19  30  45  64  86 113 146 182 218 254
#     4   9  17  28  42  61  84 107 130 161 203 247
#
# _framework density 14.858606999999999
#
# number of rings (size 3 to 8) (size 9 to 14) (size 15 to 20)
#    0.000    2.625    0.000    2.125    0.000    4.750 
#    0.000    3.750    0.000    4.250    0.000    1.750 
#    0.000    1.000    0.000    3.125    0.000    3.250 
#
# Total GULP energy -1069474.301353 kJ/mol
# GULP energy per Si atom -5570.178653 kJ/mol
# Density = 1.482479 g / cm^3
# Si number density = 14.858607 Si / 1000 Ang^3
#
#
#
# Elastic Constant Matrix: (Units=GPa)
#
#
# Indices 1 2 3 4 5 6 
#
# 1 92.2585 58.0712 53.9951 0.0000 0.0000 0.0000
# 2 58.0712 92.2585 53.9951 0.0000 0.0000 0.0000
# 3 53.9951 53.9951 81.5264 0.0000 0.0000 0.0000
# 4 0.0000 0.0000 0.0000 17.7742 0.0000 0.0000
# 5 0.0000 0.0000 0.0000 0.0000 17.7742 0.0000
# 6 0.0000 0.0000 0.0000 0.0000 0.0000 17.0936
#
#
#
# Elastic Compliance Matrix: (Units=1/GPa)
#
#
# Indices 1 2 3 4 5 6 
#
# 1 0.020970 -0.008281 -0.008404 0.000000 0.000000 0.000000
# 2 -0.008281 0.020970 -0.008404 0.000000 0.000000 0.000000
# 3 -0.008404 -0.008404 0.023398 0.000000 0.000000 0.000000
# 4 0.000000 0.000000 0.000000 0.056261 0.000000 0.000000
# 5 0.000000 0.000000 0.000000 0.000000 0.056261 0.000000
# 6 0.000000 0.000000 0.000000 0.000000 0.000000 0.058501
#
#
# Mechanical properties :
#
#
# Convention : Reuss Voigt Hill
#
# Bulk Modulus (GPa) = 65.96259 66.46288 66.21274
# Shear Modulus (GPa) = 17.14718 17.19385 17.17052
#
# Velocity S-wave (km/s) = 3.40078 3.40540 3.40309
# Velocity P-wave (km/s) = 7.74017 7.76464 7.75242
#
# Compressibility (1/GPa) = 0.01516011
#
# Stress axis : x y z
#
# Youngs Moduli (GPa) = 47.68741 47.68741 42.73868
#
# Poissons Ratio (x) = 0.39489 0.35918
# Poissons Ratio (y) = 0.39489 0.35918
# Poissons Ratio (z) = 0.40077 0.40077
#
# Static dielectric constant tensor:
#      x y z
#    x 1.492390 0.000000 0.000000 
#    y 0.000000 1.492390 0.000000 
#    z 0.000000 0.000000 1.485800 
# 
# From -- ./inp_files/9341.got.cif
#   From: 2010.05.17/outbox.cif.g08.bks.cpg/sg191_5_cif.got.tgz:9341.got - 2010.05.20 12:20:32.
