data_PCOD9587514
_publ_section_title
;
Structure prediction by ZEFSAII (Michael W. Deem and Ramdas Pophale) SiO2 
 PCOD9587514
Probable space group: P 6/M M M
;
_chemical_formula_sum "Si O2"
_cell_formula_units_Z 168
_cell_length_a 18.307891
_cell_length_b 18.307891
_cell_length_c 35.446751
_cell_angle_alpha 90.000000
_cell_angle_beta 90.000000
_cell_angle_gamma 120.000000
_cell_volume 10289.249595
_symmetry_space_group_name_H-M "P 6/M M M"
_symmetry_group_IT_number 191
_symmetry_cell_setting 'hexagonal'
loop_
_space_group_symop_operation_xyz
x,y,z
x-y,x,z
-y,x-y,z
-x,-y,z
-x+y,-x,z
y,-x+y,z
x-y,-y,-z
-x,-x+y,-z
y,x,-z
-y,-x,-z
-x+y,y,-z
x,x-y,-z
-x,-y,-z
-x+y,-x,-z
y,-x+y,-z
x,y,-z
x-y,x,-z
-y,x-y,-z
-x+y,y,z
x,x-y,z
-y,-x,z
y,x,z
x-y,-y,z
-x,-x+y,z
loop_
_atom_site_type_symbol
_atom_site_label
_atom_site_fract_x
_atom_site_fract_y
_atom_site_fract_z
Si Si1 0.262824 0.358863 0.544824
Si Si2 0.358284 0.094254 0.892672
Si Si3 0.667626 0.165435 0.829969
Si Si4 0.363292 0.098398 0.675443
Si Si5 0.161397 0.667050 0.392584
Si Si6 0.633264 0.100666 0.253685
Si Si7 0.162540 0.666033 0.955838
O O1 0.274610 0.375219 0.500000
O O2 0.166272 0.332543 0.553921
O O3 0.289648 0.289648 0.554029
O O4 0.320104 0.442509 0.568926
O O5 0.333674 0.166837 0.892857
O O6 0.418350 0.110936 0.856584
O O7 0.417670 0.109644 0.928895
O O8 0.282101 0.000000 0.892313
O O9 0.574672 0.149344 0.838014
O O10 0.737585 0.262416 0.837310
O O11 0.670498 0.144841 0.786072
O O12 0.331985 0.165993 0.671862
O O13 0.427839 0.115776 0.641129
O O14 0.418141 0.117877 0.713640
O O15 0.292674 0.000000 0.675565
O O16 0.151563 0.575782 0.389274
O O17 0.259433 0.740568 0.391443
O O18 0.561942 0.123883 0.265668
O O19 0.583551 0.000000 0.247093
O O20 0.152885 0.576443 0.945609
O O21 0.259946 0.740055 0.951530
O O22 0.140629 0.663704 0.000000
#
# Coordination Sequence:
#
# PCOD9587514 Si02
#       7
#    24  24  24  24  24  24  24
#     4   9  18  32  49  69  93 122 156 193 233 275
#     4  10  21  35  50  68  90 117 150 190 236 282
#     4  10  19  30  45  67  97 131 163 191 219 256
#     4  10  20  33  49  69  93 121 154 192 234 278
#     4  10  20  33  49  70  96 125 155 187 224 267
#     4   9  17  29  46  68  93 122 157 195 230 264
#     4   9  17  29  46  69  98 131 163 191 218 252
#
# _framework density 16.327721
#
# number of rings (size 3 to 8) (size 9 to 14) (size 15 to 20)
#    0.000    2.429    0.000    2.571    0.000    4.571 
#    0.000    2.857    0.000    5.857    0.000    1.000 
#    0.000    3.429    0.000    8.286    0.000    0.000 
#
# Total GULP energy -937040.637341 kJ/mol
# GULP energy per Si atom -5577.622841 kJ/mol
# Density = 1.629056 g / cm^3
# Si number density = 16.327721 Si / 1000 Ang^3
#
#
#
# Elastic Constant Matrix: (Units=GPa)
#
#
# Indices 1 2 3 4 5 6 
#
# 1 90.6829 72.3468 37.5601 0.0000 0.0000 0.0000
# 2 72.3468 90.6829 37.5601 0.0000 0.0000 0.0000
# 3 37.5601 37.5601 49.9140 0.0000 0.0000 0.0000
# 4 0.0000 0.0000 0.0000 18.1960 0.0000 0.0000
# 5 0.0000 0.0000 0.0000 0.0000 18.1960 0.0000
# 6 0.0000 0.0000 0.0000 0.0000 0.0000 9.1680
#
#
#
# Elastic Compliance Matrix: (Units=1/GPa)
#
#
# Indices 1 2 3 4 5 6 
#
# 1 0.031963 -0.022574 -0.007066 0.000000 0.000000 0.000000
# 2 -0.022574 0.031963 -0.007066 0.000000 0.000000 0.000000
# 3 -0.007066 -0.007066 0.030668 0.000000 0.000000 0.000000
# 4 0.000000 0.000000 0.000000 0.054957 0.000000 0.000000
# 5 0.000000 0.000000 0.000000 0.000000 0.054957 0.000000
# 6 0.000000 0.000000 0.000000 0.000000 0.000000 0.109075
#
#
# Mechanical properties :
#
#
# Convention : Reuss Voigt Hill
#
# Bulk Modulus (GPa) = 47.20361 58.46821 52.83591
# Shear Modulus (GPa) = 12.68857 14.69952 13.69405
#
# Velocity S-wave (km/s) = 2.79071 3.00372 2.89917
# Velocity P-wave (km/s) = 6.27351 6.92219 6.60582
#
# Compressibility (1/GPa) = 0.02118482
#
# Stress axis : x y z
#
# Youngs Moduli (GPa) = 31.28577 31.28577 32.60719
#
# Poissons Ratio (x) = 0.70624 0.23039
# Poissons Ratio (y) = 0.70624 0.23039
# Poissons Ratio (z) = 0.22105 0.22105
#
# Static dielectric constant tensor:
#      x y z
#    x 1.534630 0.000000 0.000000 
#    y 0.000000 1.534630 0.000000 
#    z 0.000000 0.000000 1.561730 
# 
# From -- ./inp_files/10768.got.cif
#   From: 2010.05.17/outbox.cif.g08.bks.cpg/sg191_6_cif.got.tgz:10768.got - 2010.05.20 12:20:32.
