data_PCOD9587635
_publ_section_title
;
Structure prediction by ZEFSAII (Michael W. Deem and Ramdas Pophale) SiO2 
 PCOD9587635
Probable space group: P 6/M M M
;
_chemical_formula_sum "Si O2"
_cell_formula_units_Z 120
_cell_length_a 18.078382
_cell_length_b 18.078382
_cell_length_c 25.941364
_cell_angle_alpha 90.000000
_cell_angle_beta 90.000000
_cell_angle_gamma 120.000000
_cell_volume 7342.476362
_symmetry_space_group_name_H-M "P 6/M M M"
_symmetry_group_IT_number 191
_symmetry_cell_setting 'hexagonal'
loop_
_space_group_symop_operation_xyz
x,y,z
x-y,x,z
-y,x-y,z
-x,-y,z
-x+y,-x,z
y,-x+y,z
x-y,-y,-z
-x,-x+y,-z
y,x,-z
-y,-x,-z
-x+y,y,-z
x,x-y,-z
-x,-y,-z
-x+y,-x,-z
y,-x+y,-z
x,y,-z
x-y,x,-z
-y,x-y,-z
-x+y,y,z
x,x-y,z
-y,-x,z
y,x,z
x-y,-y,z
-x,-x+y,z
loop_
_atom_site_type_symbol
_atom_site_label
_atom_site_fract_x
_atom_site_fract_y
_atom_site_fract_z
Si Si1 0.159732 0.666401 0.709155
Si Si2 0.265623 0.359346 0.500000
Si Si3 0.268032 0.897669 0.000000
Si Si4 0.493265 0.333730 0.410168
Si Si5 0.733347 0.098615 0.198625
Si Si6 0.896951 0.532370 0.899026
O O1 0.150094 0.575047 0.721348
O O2 0.258777 0.741224 0.713245
O O3 0.134121 0.665067 0.649497
O O4 0.108850 0.691850 0.748850
O O5 0.279885 0.279885 0.500000
O O6 0.168390 0.336779 0.500000
O O7 0.310470 0.418031 0.549864
O O8 0.307494 0.877215 0.949860
O O9 0.166285 0.833716 0.000000
O O10 0.302492 0.000000 0.000000
O O11 0.516108 0.258054 0.414911
O O12 0.575962 0.424039 0.422067
O O13 0.833850 0.166151 0.199795
O O14 0.692077 0.125690 0.152152
O O15 0.705773 0.000000 0.191039
O O16 0.862643 0.431322 0.900087
O O17 0.000000 0.578186 0.898233
#
# Coordination Sequence:
#
# PCOD9587635 Si02
#       6
#    24  12  12  24  24  24
#     4   9  17  29  46  69  97 128 159 189 221 260
#     4  10  21  35  49  66  89 117 150 190 235 277
#     4  10  19  31  49  72  97 127 164 204 243 281
#     4   9  17  29  46  69  98 130 159 184 213 256
#     4  10  20  33  49  69  93 122 157 196 237 280
#     4   9  17  30  49  71  93 118 149 185 226 275
#
# _framework density 16.343260000000001
#
# number of rings (size 3 to 8) (size 9 to 14) (size 15 to 20)
#    0.000    2.600    0.000    2.200    0.000    5.600 
#    0.000    3.000    0.000    7.200    0.000    0.000 
#    0.000    4.800    0.000   10.000    0.000    0.400 
#
# Total GULP energy -668977.453504 kJ/mol
# GULP energy per Si atom -5574.812113 kJ/mol
# Density = 1.630606 g / cm^3
# Si number density = 16.343260 Si / 1000 Ang^3
#
#
#
# Elastic Constant Matrix: (Units=GPa)
#
#
# Indices 1 2 3 4 5 6 
#
# 1 75.2144 59.2086 39.2419 0.0000 0.0000 0.0000
# 2 59.2086 75.2144 39.2419 0.0000 0.0000 0.0000
# 3 39.2419 39.2419 73.3795 0.0000 0.0000 0.0000
# 4 0.0000 0.0000 0.0000 16.1524 0.0000 0.0000
# 5 0.0000 0.0000 0.0000 0.0000 16.1524 0.0000
# 6 0.0000 0.0000 0.0000 0.0000 0.0000 8.0029
#
#
#
# Elastic Compliance Matrix: (Units=1/GPa)
#
#
# Indices 1 2 3 4 5 6 
#
# 1 0.036647 -0.025830 -0.005784 0.000000 0.000000 0.000000
# 2 -0.025830 0.036647 -0.005784 0.000000 0.000000 0.000000
# 3 -0.005784 -0.005784 0.019815 0.000000 0.000000 0.000000
# 4 0.000000 0.000000 0.000000 0.061910 0.000000 0.000000
# 5 0.000000 0.000000 0.000000 0.000000 0.061910 0.000000
# 6 0.000000 0.000000 0.000000 0.000000 0.000000 0.124955
#
#
# Mechanical properties :
#
#
# Convention : Reuss Voigt Hill
#
# Bulk Modulus (GPa) = 54.61555 55.46589 55.04072
# Shear Modulus (GPa) = 11.82633 13.80262 12.81447
#
# Velocity S-wave (km/s) = 2.69294 2.90926 2.80319
# Velocity P-wave (km/s) = 6.56959 6.73029 6.65043
#
# Compressibility (1/GPa) = 0.01830980
#
# Stress axis : x y z
#
# Youngs Moduli (GPa) = 27.28743 27.28743 50.46791
#
# Poissons Ratio (x) = 0.70485 0.29193
# Poissons Ratio (y) = 0.70485 0.29193
# Poissons Ratio (z) = 0.15784 0.15784
#
# Static dielectric constant tensor:
#      x y z
#    x 1.538890 0.000000 0.000000 
#    y 0.000000 1.538890 0.000000 
#    z 0.000000 0.000000 1.563870 
# 
# From -- ./inp_files/8527.got.cif
#   From: 2010.05.17/outbox.cif.g08.bks.cpg/sg191_5_cif.got.tgz:8527.got - 2010.05.20 12:20:32.
