data_PCOD9587226
_publ_section_title
;
Structure prediction by ZEFSAII (Michael W. Deem and Ramdas Pophale) SiO2 
 PCOD9587226
Probable space group: P 6/M M M
;
_chemical_formula_sum "Si O2"
_cell_formula_units_Z 72
_cell_length_a 16.801703
_cell_length_b 16.801703
_cell_length_c 19.369727
_cell_angle_alpha 90.000000
_cell_angle_beta 90.000000
_cell_angle_gamma 120.000000
_cell_volume 4735.444363
_symmetry_space_group_name_H-M "P 6/M M M"
_symmetry_group_IT_number 191
_symmetry_cell_setting 'hexagonal'
loop_
_space_group_symop_operation_xyz
x,y,z
x-y,x,z
-y,x-y,z
-x,-y,z
-x+y,-x,z
y,-x+y,z
x-y,-y,-z
-x,-x+y,-z
y,x,-z
-y,-x,-z
-x+y,y,-z
x,x-y,-z
-x,-y,-z
-x+y,-x,-z
y,-x+y,-z
x,y,-z
x-y,x,-z
-y,x-y,-z
-x+y,y,z
x,x-y,z
-y,-x,z
y,x,z
x-y,-y,z
-x,-x+y,z
loop_
_atom_site_type_symbol
_atom_site_label
_atom_site_fract_x
_atom_site_fract_y
_atom_site_fract_z
Si Si1 0.713373 0.106040 0.159614
Si Si2 0.555720 0.444281 0.078760
Si Si3 0.148005 0.479289 0.690444
Si Si4 0.000000 0.596526 0.578342
O O1 0.819343 0.180658 0.146190
O O2 0.649057 0.136720 0.118587
O O3 0.692576 0.111424 0.240395
O O4 0.678958 0.000000 0.141761
O O5 0.500000 0.500000 0.077788
O O6 0.572355 0.427646 0.000000
O O7 0.253087 0.506174 0.681562
O O8 0.138710 0.569355 0.699747
O O9 0.088288 0.425245 0.624059
O O10 0.000000 0.500000 0.574847
O O11 0.000000 0.626636 0.500000
#
# Coordination Sequence:
#
# PCOD9587226 Si02
#       4
#    24  12  24  12
#     4  10  19  32  51  72  97 131 167 204 243 291
#     4   9  18  32  50  72 100 132 160 194 238 282
#     4  10  18  29  46  66  90 121 157 194 232 282
#     4   9  18  30  44  62  86 118 149 189 239 278
#
# _framework density 15.204487
#
# number of rings (size 3 to 8) (size 9 to 14) (size 15 to 20)
#    0.000    2.333    3.333    0.333    0.000    1.333 
#    1.000    0.000    0.000    2.333    0.000    0.000 
#    0.000    0.000    0.000    8.333    0.000   15.167 
#
# Total GULP energy -401093.401392 kJ/mol
# GULP energy per Si atom -5570.741686 kJ/mol
# Density = 1.516988 g / cm^3
# Si number density = 15.204487 Si / 1000 Ang^3
#
#
#
# Elastic Constant Matrix: (Units=GPa)
#
#
# Indices 1 2 3 4 5 6 
#
# 1 70.7868 33.6738 15.0883 0.0000 0.0000 0.0000
# 2 33.6738 70.7868 15.0883 0.0000 0.0000 0.0000
# 3 15.0883 15.0883 92.6974 0.0000 0.0000 0.0000
# 4 0.0000 0.0000 0.0000 5.7097 0.0000 0.0000
# 5 0.0000 0.0000 0.0000 0.0000 5.7097 0.0000
# 6 0.0000 0.0000 0.0000 0.0000 0.0000 18.5565
#
#
#
# Elastic Compliance Matrix: (Units=1/GPa)
#
#
# Indices 1 2 3 4 5 6 
#
# 1 0.018495 -0.008450 -0.001635 0.000000 0.000000 0.000000
# 2 -0.008450 0.018495 -0.001635 0.000000 0.000000 0.000000
# 3 -0.001635 -0.001635 0.011320 0.000000 0.000000 0.000000
# 4 0.000000 0.000000 0.000000 0.175141 0.000000 0.000000
# 5 0.000000 0.000000 0.000000 0.000000 0.175141 0.000000
# 6 0.000000 0.000000 0.000000 0.000000 0.000000 0.053889
#
#
# Mechanical properties :
#
#
# Convention : Reuss Voigt Hill
#
# Bulk Modulus (GPa) = 40.20837 40.21907 40.21372
# Shear Modulus (GPa) = 10.32606 17.35654 13.84130
#
# Velocity S-wave (km/s) = 2.60887 3.38233 3.02046
# Velocity P-wave (km/s) = 5.96468 6.46244 6.21854
#
# Compressibility (1/GPa) = 0.02487045
#
# Stress axis : x y z
#
# Youngs Moduli (GPa) = 54.06855 54.06855 88.33866
#
# Poissons Ratio (x) = 0.45686 0.14444
# Poissons Ratio (y) = 0.45686 0.14444
# Poissons Ratio (z) = 0.08841 0.08841
#
# Static dielectric constant tensor:
#      x y z
#    x 1.502360 0.000000 0.000000 
#    y 0.000000 1.502360 0.000000 
#    z 0.000000 0.000000 1.517410 
# 
# From -- ./inp_files/5617.got.cif
#   From: 2010.05.17/outbox.cif.g08.bks.cpg/sg191_3_cif.got.tgz:5617.got - 2010.05.20 12:20:32.
