data_PCOD9587896
_publ_section_title
;
Structure prediction by ZEFSAII (Michael W. Deem and Ramdas Pophale) SiO2 
 PCOD9587896
Probable space group: P 6/M M M
;
_chemical_formula_sum "Si O2"
_cell_formula_units_Z 108
_cell_length_a 18.267485
_cell_length_b 18.267485
_cell_length_c 23.399411
_cell_angle_alpha 90.000000
_cell_angle_beta 90.000000
_cell_angle_gamma 120.000000
_cell_volume 6762.278862
_symmetry_space_group_name_H-M "P 6/M M M"
_symmetry_group_IT_number 191
_symmetry_cell_setting 'hexagonal'
loop_
_space_group_symop_operation_xyz
x,y,z
x-y,x,z
-y,x-y,z
-x,-y,z
-x+y,-x,z
y,-x+y,z
x-y,-y,-z
-x,-x+y,-z
y,x,-z
-y,-x,-z
-x+y,y,-z
x,x-y,-z
-x,-y,-z
-x+y,-x,-z
y,-x+y,-z
x,y,-z
x-y,x,-z
-y,x-y,-z
-x+y,y,z
x,x-y,z
-y,-x,z
y,x,z
x-y,-y,z
-x,-x+y,z
loop_
_atom_site_type_symbol
_atom_site_label
_atom_site_fract_x
_atom_site_fract_y
_atom_site_fract_z
Si Si1 0.160986 0.667157 0.105690
Si Si2 0.532347 0.897270 0.563516
Si Si3 0.902478 0.268643 0.000000
Si Si4 0.644809 0.902571 0.662656
Si Si5 0.097280 0.733881 0.795142
O O1 0.151186 0.575593 0.099587
O O2 0.259507 0.740494 0.104051
O O3 0.115975 0.689653 0.054965
O O4 0.122022 0.678823 0.164409
O O5 0.544719 0.871082 0.500000
O O6 0.434306 0.868612 0.570842
O O7 0.571081 0.873181 0.616145
O O8 0.582253 0.000000 0.563494
O O9 0.830737 0.169264 0.000000
O O10 0.000000 0.292848 0.000000
O O11 0.683841 0.841921 0.658207
O O12 0.613792 0.896046 0.727966
O O13 0.711174 0.000000 0.651710
O O14 0.168233 0.831768 0.806565
O O15 0.000000 0.707513 0.806021
#
# Coordination Sequence:
#
# PCOD9587896 Si02
#       5
#    24  24  12  24  24
#     4  10  20  33  49  70  97 127 156 185 220 264
#     4   8  14  25  41  61  84 109 138 174 216 260
#     4  10  21  35  51  72  97 125 156 192 233 271
#     4   9  17  29  45  65  89 117 150 187 226 268
#     4   9  18  31  46  65  89 118 151 188 230 271
#
# _framework density 15.970948
#
# number of rings (size 3 to 8) (size 9 to 14) (size 15 to 20)
#    0.000    2.889    0.000    1.889    0.000    3.556 
#    0.000    3.333    0.000    1.000    0.000    3.111 
#    0.000    5.333    0.000    5.778    0.000    6.222 
#
# Total GULP energy -601222.437275 kJ/mol
# GULP energy per Si atom -5566.874419 kJ/mol
# Density = 1.593460 g / cm^3
# Si number density = 15.970948 Si / 1000 Ang^3
#
#
#
# Elastic Constant Matrix: (Units=GPa)
#
#
# Indices 1 2 3 4 5 6 
#
# 1 82.2426 58.5060 46.4865 0.0000 0.0000 0.0000
# 2 58.5060 82.2426 46.4865 0.0000 0.0000 0.0000
# 3 46.4865 46.4865 79.7683 0.0000 0.0000 0.0000
# 4 0.0000 0.0000 0.0000 20.2378 0.0000 0.0000
# 5 0.0000 0.0000 0.0000 0.0000 20.2378 0.0000
# 6 0.0000 0.0000 0.0000 0.0000 0.0000 11.8683
#
#
#
# Elastic Compliance Matrix: (Units=1/GPa)
#
#
# Indices 1 2 3 4 5 6 
#
# 1 0.026840 -0.015289 -0.006732 0.000000 0.000000 0.000000
# 2 -0.015289 0.026840 -0.006732 0.000000 0.000000 0.000000
# 3 -0.006732 -0.006732 0.020383 0.000000 0.000000 0.000000
# 4 0.000000 0.000000 0.000000 0.049412 0.000000 0.000000
# 5 0.000000 0.000000 0.000000 0.000000 0.049412 0.000000
# 6 0.000000 0.000000 0.000000 0.000000 0.000000 0.084258
#
#
# Mechanical properties :
#
#
# Convention : Reuss Voigt Hill
#
# Bulk Modulus (GPa) = 60.39298 60.80126 60.59712
# Shear Modulus (GPa) = 15.61667 16.65377 16.13522
#
# Velocity S-wave (km/s) = 3.13040 3.23267 3.18195
# Velocity P-wave (km/s) = 7.13878 7.21707 7.17803
#
# Compressibility (1/GPa) = 0.01655821
#
# Stress axis : x y z
#
# Youngs Moduli (GPa) = 37.25736 37.25736 49.06118
#
# Poissons Ratio (x) = 0.56961 0.33028
# Poissons Ratio (y) = 0.56961 0.33028
# Poissons Ratio (z) = 0.25082 0.25082
#
# Static dielectric constant tensor:
#      x y z
#    x 1.524290 0.000000 0.000000 
#    y 0.000000 1.524290 0.000000 
#    z 0.000000 0.000000 1.560050 
# 
# From -- ./inp_files/8313.got.cif
#   From: 2010.05.17/outbox.cif.g08.bks.cpg/sg191_5_cif.got.tgz:8313.got - 2010.05.20 12:20:32.
