data_PCOD9587570
_publ_section_title
;
Structure prediction by ZEFSAII (Michael W. Deem and Ramdas Pophale) SiO2 
 PCOD9587570
Probable space group: P 6/M M M
;
_chemical_formula_sum "Si O2"
_cell_formula_units_Z 84
_cell_length_a 17.196145
_cell_length_b 17.196145
_cell_length_c 21.733161
_cell_angle_alpha 90.000000
_cell_angle_beta 90.000000
_cell_angle_gamma 120.000000
_cell_volume 5565.647873
_symmetry_space_group_name_H-M "P 6/M M M"
_symmetry_group_IT_number 191
_symmetry_cell_setting 'hexagonal'
loop_
_space_group_symop_operation_xyz
x,y,z
x-y,x,z
-y,x-y,z
-x,-y,z
-x+y,-x,z
y,-x+y,z
x-y,-y,-z
-x,-x+y,-z
y,x,-z
-y,-x,-z
-x+y,y,-z
x,x-y,-z
-x,-y,-z
-x+y,-x,-z
y,-x+y,-z
x,y,-z
x-y,x,-z
-y,x-y,-z
-x+y,y,z
x,x-y,z
-y,-x,z
y,x,z
x-y,-y,z
-x,-x+y,z
loop_
_atom_site_type_symbol
_atom_site_label
_atom_site_fract_x
_atom_site_fract_y
_atom_site_fract_z
Si Si1 0.813588 0.813588 0.930760
Si Si2 0.847344 0.334411 0.000000
Si Si3 0.813299 0.813299 0.298332
Si Si4 0.000000 0.302800 0.184522
Si Si5 0.665509 0.148759 0.863768
Si Si6 0.814124 0.000000 0.566092
O O1 0.910922 0.821843 0.925974
O O2 0.752607 0.752607 0.875605
O O3 0.778252 0.778252 0.000000
O O4 0.891475 0.347197 0.933448
O O5 0.766024 0.233977 0.000000
O O6 0.812268 0.406134 0.000000
O O7 0.822183 0.911092 0.292980
O O8 0.750645 0.750645 0.244356
O O9 0.774966 0.774966 0.366785
O O10 0.912990 0.314019 0.179916
O O11 0.574738 0.149475 0.848374
O O12 0.750565 0.249436 0.865079
O O13 0.824116 0.912058 0.565947
O O14 0.770478 0.000000 0.500000
#
# Coordination Sequence:
#
# PCOD9587570 Si02
#       6
#    12  12  12  12  24  12
#     4  10  21  35  49  61  79 111 153 193 225 258
#     4   8  15  27  45  63  78  98 130 175 224 273
#     4  10  19  31  46  65  92 125 157 186 220 264
#     4  12  23  32  44  68  92 116 144 186 232 266
#     4  10  20  34  50  66  86 112 145 183 230 283
#     4   8  13  22  39  63  89 117 149 182 213 251
#
# _framework density 15.092582999999999
#
# number of rings (size 3 to 8) (size 9 to 14) (size 15 to 20)
#    0.000    2.286    0.000    3.857    2.000    4.571 
#    0.000    3.571    0.000    0.000    0.000    0.000 
#    0.000    2.286    0.000    0.571    0.000    7.143 
#
# Total GULP energy -468033.561776 kJ/mol
# GULP energy per Si atom -5571.828116 kJ/mol
# Density = 1.505823 g / cm^3
# Si number density = 15.092583 Si / 1000 Ang^3
#
#
#
# Elastic Constant Matrix: (Units=GPa)
#
#
# Indices 1 2 3 4 5 6 
#
# 1 69.4144 36.8715 49.8938 0.0000 0.0000 0.0000
# 2 36.8715 69.4144 49.8938 0.0000 0.0000 0.0000
# 3 49.8938 49.8938 121.6786 0.0000 0.0000 0.0000
# 4 0.0000 0.0000 0.0000 11.8306 0.0000 0.0000
# 5 0.0000 0.0000 0.0000 0.0000 11.8306 0.0000
# 6 0.0000 0.0000 0.0000 0.0000 0.0000 16.2715
#
#
#
# Elastic Compliance Matrix: (Units=1/GPa)
#
#
# Indices 1 2 3 4 5 6 
#
# 1 0.023013 -0.007715 -0.006273 0.000000 0.000000 0.000000
# 2 -0.007715 0.023013 -0.006273 0.000000 0.000000 0.000000
# 3 -0.006273 -0.006273 0.013363 0.000000 0.000000 0.000000
# 4 0.000000 0.000000 0.000000 0.084527 0.000000 0.000000
# 5 0.000000 0.000000 0.000000 0.000000 0.084527 0.000000
# 6 0.000000 0.000000 0.000000 0.000000 0.000000 0.061457
#
#
# Mechanical properties :
#
#
# Convention : Reuss Voigt Hill
#
# Bulk Modulus (GPa) = 53.00222 59.31393 56.15808
# Shear Modulus (GPa) = 14.84952 16.24308 15.54630
#
# Velocity S-wave (km/s) = 3.14011 3.28415 3.21294
# Velocity P-wave (km/s) = 6.95280 7.33255 7.14520
#
# Compressibility (1/GPa) = 0.01886713
#
# Stress axis : x y z
#
# Youngs Moduli (GPa) = 43.45318 43.45318 74.83534
#
# Poissons Ratio (x) = 0.33526 0.46943
# Poissons Ratio (y) = 0.33526 0.46943
# Poissons Ratio (z) = 0.27257 0.27257
#
# Static dielectric constant tensor:
#      x y z
#    x 1.503890 0.000000 0.000000 
#    y 0.000000 1.503890 0.000000 
#    z 0.000000 0.000000 1.530360 
# 
# From -- ./inp_files/7081.got.cif
#   From: 2010.05.17/outbox.cif.g08.bks.cpg/sg191_4_cif.got.tgz:7081.got - 2010.05.20 12:20:32.
