data_PCOD9587657
_publ_section_title
;
Structure prediction by ZEFSAII (Michael W. Deem and Ramdas Pophale) SiO2 
 PCOD9587657
Probable space group: P 6/M M M
;
_chemical_formula_sum "Si O2"
_cell_formula_units_Z 180
_cell_length_a 27.819695
_cell_length_b 27.819695
_cell_length_c 18.465384
_cell_angle_alpha 90.000000
_cell_angle_beta 90.000000
_cell_angle_gamma 120.000000
_cell_volume 12376.381953
_symmetry_space_group_name_H-M "P 6/M M M"
_symmetry_group_IT_number 191
_symmetry_cell_setting 'hexagonal'
loop_
_space_group_symop_operation_xyz
x,y,z
x-y,x,z
-y,x-y,z
-x,-y,z
-x+y,-x,z
y,-x+y,z
x-y,-y,-z
-x,-x+y,-z
y,x,-z
-y,-x,-z
-x+y,y,-z
x,x-y,-z
-x,-y,-z
-x+y,-x,-z
y,-x+y,-z
x,y,-z
x-y,x,-z
-y,x-y,-z
-x+y,y,z
x,x-y,z
-y,-x,z
y,x,z
x-y,-y,z
-x,-x+y,z
loop_
_atom_site_type_symbol
_atom_site_label
_atom_site_fract_x
_atom_site_fract_y
_atom_site_fract_z
Si Si1 0.350978 0.231139 0.330646
Si Si2 0.530992 0.469009 0.087109
Si Si3 0.122893 0.461866 0.915522
Si Si4 0.604722 0.670900 0.781140
Si Si5 0.333506 0.555062 0.843637
Si Si6 0.176647 0.465643 0.414932
Si Si7 0.624495 0.137641 0.709618
Si Si8 0.827325 0.063242 0.413653
O O1 0.352414 0.176207 0.305478
O O2 0.361425 0.273518 0.266052
O O3 0.402341 0.262278 0.386478
O O4 0.293065 0.210446 0.371229
O O5 0.500000 0.500000 0.117774
O O6 0.595494 0.501330 0.105076
O O7 0.529059 0.470942 0.000000
O O8 0.095409 0.411139 0.859865
O O9 0.187103 0.504200 0.898557
O O10 0.113189 0.447101 0.000000
O O11 0.637064 0.637064 0.787364
O O12 0.545858 0.635132 0.739287
O O13 0.283362 0.566723 0.835030
O O14 0.389579 0.610422 0.867214
O O15 0.347178 0.534532 0.768520
O O16 0.167942 0.469241 0.500000
O O17 0.240565 0.481129 0.403672
O O18 0.159812 0.502039 0.365275
O O19 0.560575 0.121150 0.704236
O O20 0.819177 0.066109 0.500000
O O21 0.891097 0.108903 0.397826
O O22 0.808578 0.000000 0.395753
#
# Coordination Sequence:
#
# PCOD9587657 Si02
#       8
#    24  12  24  24  24  24  24  24
#     4   9  17  30  46  65  90 115 142 178 218 258
#     4   9  16  28  46  62  78 100 123 157 205 249
#     4  10  20  33  46  64  87 106 134 174 215 261
#     4  10  20  31  47  67  86 110 142 177 214 257
#     4  10  19  32  48  64  84 110 140 173 211 258
#     4   9  16  27  45  66  84 105 137 175 217 263
#     4   9  19  32  44  61  85 111 140 174 213 259
#     4   9  16  26  43  67  94 123 153 185 218 249
#
# _framework density 14.543831000000001
#
# number of rings (size 3 to 8) (size 9 to 14) (size 15 to 20)
#    0.000    2.600    0.667    1.733    0.933    6.400 
#    0.000    0.000    0.000    4.800    0.000    4.667 
#    0.000    0.000    0.000    0.000    0.000    0.000 
#
# Total GULP energy -1003053.357225 kJ/mol
# GULP energy per Si atom -5572.518651 kJ/mol
# Density = 1.451073 g / cm^3
# Si number density = 14.543831 Si / 1000 Ang^3
#
#
#
# Elastic Constant Matrix: (Units=GPa)
#
#
# Indices 1 2 3 4 5 6 
#
# 1 74.0632 47.7200 34.1545 0.0000 0.0000 0.0000
# 2 47.7200 74.0632 34.1545 0.0000 0.0000 0.0000
# 3 34.1545 34.1545 83.6760 0.0000 0.0000 0.0000
# 4 0.0000 0.0000 0.0000 15.5292 0.0000 0.0000
# 5 0.0000 0.0000 0.0000 0.0000 15.5292 0.0000
# 6 0.0000 0.0000 0.0000 0.0000 0.0000 13.1716
#
#
#
# Elastic Compliance Matrix: (Units=1/GPa)
#
#
# Indices 1 2 3 4 5 6 
#
# 1 0.024305 -0.013655 -0.004347 0.000000 0.000000 0.000000
# 2 -0.013655 0.024305 -0.004347 0.000000 0.000000 0.000000
# 3 -0.004347 -0.004347 0.015499 0.000000 0.000000 0.000000
# 4 0.000000 0.000000 0.000000 0.064395 0.000000 0.000000
# 5 0.000000 0.000000 0.000000 0.000000 0.064395 0.000000
# 6 0.000000 0.000000 0.000000 0.000000 0.000000 0.075921
#
#
# Mechanical properties :
#
#
# Convention : Reuss Voigt Hill
#
# Bulk Modulus (GPa) = 51.51729 51.54005 51.52867
# Shear Modulus (GPa) = 15.62557 16.56424 16.09490
#
# Velocity S-wave (km/s) = 3.28133 3.37845 3.33024
# Velocity P-wave (km/s) = 7.06082 7.12273 7.09184
#
# Compressibility (1/GPa) = 0.01941096
#
# Stress axis : x y z
#
# Youngs Moduli (GPa) = 41.14385 41.14385 64.51843
#
# Poissons Ratio (x) = 0.56184 0.28045
# Poissons Ratio (y) = 0.56184 0.28045
# Poissons Ratio (z) = 0.17885 0.17885
#
# Static dielectric constant tensor:
#      x y z
#    x 1.479730 0.000000 0.000000 
#    y 0.000000 1.479730 0.000000 
#    z 0.000000 0.000000 1.478480 
# 
# From -- ./inp_files/6861.got.cif
#   From: 2010.05.17/outbox.cif.g08.bks.cpg/sg191_4_cif.got.tgz:6861.got - 2010.05.20 12:20:32.
