data_PCOD9587023
_publ_section_title
;
Structure prediction by ZEFSAII (Michael W. Deem and Ramdas Pophale) SiO2 
 PCOD9587023
Probable space group: P -6 2 C
;
_chemical_formula_sum "Si O2"
_cell_formula_units_Z 68
_cell_length_a 12.000000
_cell_length_b 12.000000
_cell_length_c 30.000000
_cell_angle_alpha 90.000000
_cell_angle_beta 90.000000
_cell_angle_gamma 120.000000
_cell_volume 3741.229744
_symmetry_space_group_name_H-M "P -6 2 C"
_symmetry_group_IT_number 190
_symmetry_cell_setting 'hexagonal'
loop_
_space_group_symop_operation_xyz
x,y,z
-x+y,-x,1/2-z
-y,x-y,z
x,y,1/2-z
-x+y,-x,z
-y,x-y,1/2-z
x-y,-y,-z
-x,-x+y,-z
y,x,-z
y,x,1/2+z
x-y,-y,1/2+z
-x,-x+y,1/2+z
loop_
_atom_site_type_symbol
_atom_site_label
_atom_site_fract_x
_atom_site_fract_y
_atom_site_fract_z
Si Si1 0.333334 0.666668 0.956135
Si Si2 0.062987 0.411017 0.449541
Si Si3 0.097478 0.676008 0.304332
Si Si4 0.666668 0.333334 0.150115
Si Si5 0.202093 0.392892 0.802928
Si Si6 0.937374 0.341750 0.656741
Si Si7 0.870184 0.555693 0.517499
O O1 0.333334 0.666667 0.903405
O O2 0.466468 0.778959 0.977154
O O3 0.024693 0.380752 0.396860
O O4 0.194018 0.407981 0.452250
O O5 0.089630 0.555229 0.455837
O O6 0.000000 0.351932 0.500000
O O7 0.120863 0.677524 0.250000
O O8 0.073586 0.539389 0.325522
O O9 0.216718 0.799340 0.329010
O O10 0.964161 0.680130 0.309762
O O11 0.753749 0.475469 0.169403
O O12 0.207934 0.420223 0.750000
O O13 0.053892 0.333738 0.818594
O O14 0.000000 0.675019 0.500000
#
# Coordination Sequence:
#
# PCOD9587023 Si02
#       7
#     4  12  12   4  12  12  12
#     4   9  21  31  52  93 111 147 199 241 294 370
#     4  10  22  38  56  91 119 158 204 248 305 364
#     4  11  24  42  68  96 127 170 211 263 327 379
#     4  12  22  34  66  93 123 156 204 256 316 373
#     4  11  24  41  63  93 129 164 205 259 318 380
#     4  12  24  42  66  95 132 163 217 262 316 384
#     4   9  19  36  58  77 123 155 191 245 299 351
#
# _framework density 18.175841999999999
#
# number of rings (size 3 to 8) (size 9 to 14) (size 15 to 20)
#    0.000    1.412    1.765    3.882    7.412    1.412 
#    1.059    0.000    0.000    0.353    0.000    0.000 
#    0.000    0.000    0.000    0.000    0.000    0.000 
#
# Total GULP energy -378708.276412 kJ/mol
# GULP energy per Si atom -5569.239359 kJ/mol
# Density = 1.813447 g / cm^3
# Si number density = 18.175842 Si / 1000 Ang^3
#
#
#
# Elastic Constant Matrix: (Units=GPa)
#
#
# Indices 1 2 3 4 5 6 
#
# 1 85.8734 23.5178 25.7880 0.0000 -0.0001 0.0000
# 2 23.5178 85.8736 25.7882 0.0000 0.0000 0.0001
# 3 25.7880 25.7882 156.5295 0.0001 0.0000 0.0001
# 4 0.0000 0.0000 0.0001 23.5281 0.0000 0.0000
# 5 -0.0001 0.0000 0.0000 0.0000 23.5280 0.0000
# 6 0.0000 0.0001 0.0001 0.0000 0.0000 31.1779
#
#
#
# Elastic Compliance Matrix: (Units=1/GPa)
#
#
# Indices 1 2 3 4 5 6 
#
# 1 0.012974 -0.003063 -0.001633 0.000000 0.000000 0.000000
# 2 -0.003063 0.012974 -0.001633 0.000000 0.000000 0.000000
# 3 -0.001633 -0.001633 0.006927 0.000000 0.000000 0.000000
# 4 0.000000 0.000000 0.000000 0.042502 0.000000 0.000000
# 5 0.000000 0.000000 0.000000 0.000000 0.042503 0.000000
# 6 0.000000 0.000000 0.000000 0.000000 0.000000 0.032074
#
#
# Mechanical properties :
#
#
# Convention : Reuss Voigt Hill
#
# Bulk Modulus (GPa) = 49.46138 53.16273 51.31205
# Shear Modulus (GPa) = 29.52459 32.52564 31.02511
#
# Velocity S-wave (km/s) = 4.03474 4.23484 4.13600
# Velocity P-wave (km/s) = 6.99838 7.29550 7.14848
#
# Compressibility (1/GPa) = 0.02021779
#
# Stress axis : x y z
#
# Youngs Moduli (GPa) = 77.07598 77.07613 144.37078
#
# Poissons Ratio (x) = 0.23607 0.23574
# Poissons Ratio (y) = 0.23607 0.23574
# Poissons Ratio (z) = 0.12586 0.12586
#
# Static dielectric constant tensor:
#      x y z
#    x 1.652040 0.000000 0.000000 
#    y 0.000000 1.652040 0.000000 
#    z 0.000000 0.000000 1.650860 
# 
# From -- ./inp_files/5150.got.cif
#   From: 2010.05.17/outbox.ucp.g08.bks.cvg/sg190_3_cif.got.tgz:5150.got - 2010.06.11 15:22:26.
