data_PCOD9587461
_publ_section_title
;
Structure prediction by ZEFSAII (Michael W. Deem and Ramdas Pophale) SiO2 
 PCOD9587461
Probable space group: P 6/M M M
;
_chemical_formula_sum "Si O2"
_cell_formula_units_Z 168
_cell_length_a 23.129358
_cell_length_b 23.129358
_cell_length_c 21.799713
_cell_angle_alpha 90.000000
_cell_angle_beta 90.000000
_cell_angle_gamma 120.000000
_cell_volume 10099.702104
_symmetry_space_group_name_H-M "P 6/M M M"
_symmetry_group_IT_number 191
_symmetry_cell_setting 'hexagonal'
loop_
_space_group_symop_operation_xyz
x,y,z
x-y,x,z
-y,x-y,z
-x,-y,z
-x+y,-x,z
y,-x+y,z
x-y,-y,-z
-x,-x+y,-z
y,x,-z
-y,-x,-z
-x+y,y,-z
x,x-y,-z
-x,-y,-z
-x+y,-x,-z
y,-x+y,-z
x,y,-z
x-y,x,-z
-y,x-y,-z
-x+y,y,z
x,x-y,z
-y,-x,z
y,x,z
x-y,-y,z
-x,-x+y,z
loop_
_atom_site_type_symbol
_atom_site_label
_atom_site_fract_x
_atom_site_fract_y
_atom_site_fract_z
Si Si1 0.075843 0.280897 0.425433
Si Si2 0.138151 0.727767 0.784998
Si Si3 0.394187 0.919301 0.308686
Si Si4 0.789691 0.711850 0.126457
Si Si5 0.460278 0.666495 0.864923
Si Si6 0.919069 0.334834 0.430845
Si Si7 0.357841 0.515459 0.000000
Si Si8 0.277840 0.921083 0.000000
O O1 0.073779 0.276728 0.500000
O O2 0.132596 0.265192 0.403580
O O3 0.096283 0.357269 0.411943
O O4 0.000000 0.232524 0.403483
O O5 0.204783 0.795218 0.763763
O O6 0.106975 0.670873 0.733707
O O7 0.090895 0.750893 0.818091
O O8 0.161494 0.694681 0.837519
O O9 0.449097 0.898193 0.291991
O O10 0.368552 0.898200 0.378345
O O11 0.433380 0.000000 0.306078
O O12 0.867823 0.735646 0.133104
O O13 0.767887 0.767887 0.125157
O O14 0.765224 0.671011 0.062122
O O15 0.436559 0.718280 0.846606
O O16 0.407492 0.592508 0.843846
O O17 0.464907 0.664929 0.938119
O O18 0.894156 0.333184 0.500000
O O19 0.000000 0.377300 0.433800
O O20 0.438938 0.561063 0.000000
O O21 0.323032 0.436167 0.000000
O O22 0.326694 0.000000 0.000000
#
# Coordination Sequence:
#
# PCOD9587461 Si02
#       8
#    24  24  24  24  24  24  12  12
#     4   8  13  22  38  61  89 120 153 190 233 280
#     4  10  20  33  50  68  93 130 166 199 235 282
#     4  10  20  33  49  70  98 126 153 192 240 290
#     4  10  20  34  54  77 101 130 165 206 250 298
#     4  10  19  30  45  64  89 122 162 206 246 282
#     4   8  15  28  45  66  91 119 152 190 235 286
#     4  10  19  30  45  66  95 128 165 210 253 291
#     4  10  19  32  50  72 100 131 166 207 250 300
#
# _framework density 16.634153999999999
#
# number of rings (size 3 to 8) (size 9 to 14) (size 15 to 20)
#    0.000    2.571    1.429    2.286    0.000    1.571 
#    0.000    2.143    0.000    0.571    0.000    1.000 
#    0.000    1.714    0.000    0.000    0.000   18.571 
#
# Total GULP energy -935352.014004 kJ/mol
# GULP energy per Si atom -5567.571512 kJ/mol
# Density = 1.659629 g / cm^3
# Si number density = 16.634154 Si / 1000 Ang^3
#
#
#
# Elastic Constant Matrix: (Units=GPa)
#
#
# Indices 1 2 3 4 5 6 
#
# 1 78.4276 49.8437 26.3613 0.0000 0.0000 0.0000
# 2 49.8437 78.4276 26.3613 0.0000 0.0000 0.0000
# 3 26.3613 26.3613 66.3271 0.0000 0.0000 0.0000
# 4 0.0000 0.0000 0.0000 16.8073 0.0000 0.0000
# 5 0.0000 0.0000 0.0000 0.0000 16.8073 0.0000
# 6 0.0000 0.0000 0.0000 0.0000 0.0000 14.2920
#
#
#
# Elastic Compliance Matrix: (Units=1/GPa)
#
#
# Indices 1 2 3 4 5 6 
#
# 1 0.022151 -0.012833 -0.003703 0.000000 0.000000 0.000000
# 2 -0.012833 0.022151 -0.003703 0.000000 0.000000 0.000000
# 3 -0.003703 -0.003703 0.018021 0.000000 0.000000 0.000000
# 4 0.000000 0.000000 0.000000 0.059498 0.000000 0.000000
# 5 0.000000 0.000000 0.000000 0.000000 0.059498 0.000000
# 6 0.000000 0.000000 0.000000 0.000000 0.000000 0.069969
#
#
# Mechanical properties :
#
#
# Convention : Reuss Voigt Hill
#
# Bulk Modulus (GPa) = 45.78089 47.59054 46.68571
# Shear Modulus (GPa) = 16.71962 17.62239 17.17100
#
# Velocity S-wave (km/s) = 3.17383 3.25839 3.21639
# Velocity P-wave (km/s) = 6.40413 6.54434 6.47462
#
# Compressibility (1/GPa) = 0.02184317
#
# Stress axis : x y z
#
# Youngs Moduli (GPa) = 45.14383 45.14383 55.49198
#
# Poissons Ratio (x) = 0.57934 0.20551
# Poissons Ratio (y) = 0.57934 0.20551
# Poissons Ratio (z) = 0.16719 0.16719
#
# Static dielectric constant tensor:
#      x y z
#    x 1.559640 0.000000 0.000000 
#    y 0.000000 1.559640 0.000000 
#    z 0.000000 0.000000 1.577920 
# 
# From -- ./inp_files/8059.got.cif
#   From: 2010.05.17/outbox.cif.g08.bks.cpg/sg191_5_cif.got.tgz:8059.got - 2010.05.20 12:20:32.
