data_PCOD9587558
_publ_section_title
;
Structure prediction by ZEFSAII (Michael W. Deem and Ramdas Pophale) SiO2 
 PCOD9587558
Probable space group: P 6/M M M
;
_chemical_formula_sum "Si O2"
_cell_formula_units_Z 132
_cell_length_a 26.368474
_cell_length_b 26.368474
_cell_length_c 13.727198
_cell_angle_alpha 90.000000
_cell_angle_beta 90.000000
_cell_angle_gamma 120.000000
_cell_volume 8265.754907
_symmetry_space_group_name_H-M "P 6/M M M"
_symmetry_group_IT_number 191
_symmetry_cell_setting 'hexagonal'
loop_
_space_group_symop_operation_xyz
x,y,z
x-y,x,z
-y,x-y,z
-x,-y,z
-x+y,-x,z
y,-x+y,z
x-y,-y,-z
-x,-x+y,-z
y,x,-z
-y,-x,-z
-x+y,y,-z
x,x-y,-z
-x,-y,-z
-x+y,-x,-z
y,-x+y,-z
x,y,-z
x-y,x,-z
-y,x-y,-z
-x+y,y,z
x,x-y,z
-y,-x,z
y,x,z
x-y,-y,z
-x,-x+y,z
loop_
_atom_site_type_symbol
_atom_site_label
_atom_site_fract_x
_atom_site_fract_y
_atom_site_fract_z
Si Si1 0.152087 0.727143 0.886136
Si Si2 0.668376 0.452235 0.208525
Si Si3 0.332901 0.478758 0.614135
Si Si4 0.818210 0.065705 0.614698
Si Si5 0.064661 0.532331 0.382563
Si Si6 0.642525 0.930915 0.712264
O O1 0.208735 0.791266 0.864208
O O2 0.173985 0.681202 0.860011
O O3 0.098339 0.715718 0.817072
O O4 0.138703 0.724643 0.000000
O O5 0.717234 0.434467 0.185567
O O6 0.603696 0.396305 0.203320
O O7 0.682045 0.482091 0.315830
O O8 0.328281 0.488310 0.500000
O O9 0.400009 0.500409 0.642164
O O10 0.299324 0.410327 0.639913
O O11 0.805876 0.070409 0.500000
O O12 0.883470 0.116531 0.635453
O O13 0.771840 0.072941 0.679772
O O14 0.805418 0.000000 0.629355
O O15 0.060411 0.530206 0.500000
O O16 0.000000 0.500000 0.340356
O O17 0.662470 0.000000 0.706984
#
# Coordination Sequence:
#
# PCOD9587558 Si02
#       6
#    24  24  24  24  12  24
#     4   9  19  35  52  69  91 119 150 188 237 288
#     4  10  20  34  51  70  90 115 150 194 241 288
#     4  10  19  31  45  65  95 126 156 187 225 276
#     4   9  17  29  46  70 101 134 166 200 237 275
#     4   9  16  26  42  60  81 115 153 185 216 256
#     4  10  19  30  48  73  97 123 157 194 233 280
#
# _framework density 15.969502
#
# number of rings (size 3 to 8) (size 9 to 14) (size 15 to 20)
#    0.000    2.455    0.909    1.818    0.000    3.636 
#    0.000    0.000    0.000    2.364    0.000    3.818 
#    0.000    0.000    0.000    0.000    0.000    0.000 
#
# Total GULP energy -735386.931499 kJ/mol
# GULP energy per Si atom -5571.113117 kJ/mol
# Density = 1.593316 g / cm^3
# Si number density = 15.969502 Si / 1000 Ang^3
#
#
#
# Elastic Constant Matrix: (Units=GPa)
#
#
# Indices 1 2 3 4 5 6 
#
# 1 469.4239 -353.2377 13.1828 0.0000 0.0000 0.0000
# 2 -353.2377 469.4239 13.1828 0.0000 0.0000 0.0000
# 3 13.1828 13.1828 46.8291 0.0000 0.0000 0.0000
# 4 0.0000 0.0000 0.0000 13.1510 0.0000 0.0000
# 5 0.0000 0.0000 0.0000 0.0000 13.1510 0.0000
# 6 0.0000 0.0000 0.0000 0.0000 0.0000 411.3308
#
#
#
# Elastic Compliance Matrix: (Units=1/GPa)
#
#
# Indices 1 2 3 4 5 6 
#
# 1 0.005205 0.003989 -0.002588 0.000000 0.000000 0.000000
# 2 0.003989 0.005205 -0.002588 0.000000 0.000000 0.000000
# 3 -0.002588 -0.002588 0.022811 0.000000 0.000000 0.000000
# 4 0.000000 0.000000 0.000000 0.076040 0.000000 0.000000
# 5 0.000000 0.000000 0.000000 0.000000 0.076040 0.000000
# 6 0.000000 0.000000 0.000000 0.000000 0.000000 0.002431
#
#
# Mechanical properties :
#
#
# Convention : Reuss Voigt Hill
#
# Bulk Modulus (GPa) = 32.41818 36.88143 34.64980
# Shear Modulus (GPa) = 24.95156 175.02985 99.99071
#
# Velocity S-wave (km/s) = 3.95707 10.48048 7.92146
# Velocity P-wave (km/s) = 6.42044 13.02302 10.26696
#
# Compressibility (1/GPa) = 0.03084689
#
# Stress axis : x y z
#
# Youngs Moduli (GPa) = 192.12702 192.12702 43.83757
#
# Poissons Ratio (x) = -0.76646 0.11346
# Poissons Ratio (y) = -0.76646 0.11346
# Poissons Ratio (z) = 0.49727 0.49727
#
# Static dielectric constant tensor:
#      x y z
#    x 1.545690 0.000000 0.000000 
#    y 0.000000 1.545690 0.000000 
#    z 0.000000 0.000000 1.532120 
# 
# From -- ./inp_files/4904.got.cif
#   From: 2010.05.17/outbox.cif.g08.bks.cpg/sg191_3_cif.got.tgz:4904.got - 2010.05.20 12:20:32.
