data_PCOD9587064
_publ_section_title
;
Structure prediction by ZEFSAII (Michael W. Deem and Ramdas Pophale) SiO2 
 PCOD9587064
Probable space group: P 6/M M M
;
_chemical_formula_sum "Si O2"
_cell_formula_units_Z 108
_cell_length_a 20.702493
_cell_length_b 20.702493
_cell_length_c 23.942892
_cell_angle_alpha 90.000000
_cell_angle_beta 90.000000
_cell_angle_gamma 120.000000
_cell_volume 8886.945794
_symmetry_space_group_name_H-M "P 6/M M M"
_symmetry_group_IT_number 191
_symmetry_cell_setting 'hexagonal'
loop_
_space_group_symop_operation_xyz
x,y,z
x-y,x,z
-y,x-y,z
-x,-y,z
-x+y,-x,z
y,-x+y,z
x-y,-y,-z
-x,-x+y,-z
y,x,-z
-y,-x,-z
-x+y,y,-z
x,x-y,-z
-x,-y,-z
-x+y,-x,-z
y,-x+y,-z
x,y,-z
x-y,x,-z
-y,x-y,-z
-x+y,y,z
x,x-y,z
-y,-x,z
y,x,z
x-y,-y,z
-x,-x+y,z
loop_
_atom_site_type_symbol
_atom_site_label
_atom_site_fract_x
_atom_site_fract_y
_atom_site_fract_z
Si Si1 0.488444 0.820602 0.329426
Si Si2 0.821398 0.488830 0.889832
Si Si3 0.378465 0.913870 0.437295
Si Si4 0.378883 0.464459 0.000000
Si Si5 0.535654 0.914595 0.220171
O O1 0.406745 0.813490 0.329393
O O2 0.480529 0.740265 0.324211
O O3 0.528661 0.860486 0.387098
O O4 0.532840 0.872363 0.276937
O O5 0.741410 0.482819 0.890648
O O6 0.812143 0.406072 0.889913
O O7 0.867274 0.530238 0.834321
O O8 0.869310 0.531112 0.944420
O O9 0.346861 0.891732 0.500000
O O10 0.456784 0.913567 0.437197
O O11 0.402123 0.000000 0.427580
O O12 0.398510 0.398510 0.000000
O O13 0.458789 0.541212 0.000000
O O14 0.458765 0.917529 0.219930
O O15 0.601509 0.000000 0.218253
#
# Coordination Sequence:
#
# PCOD9587064 Si02
#       5
#    24  24  24  12  24
#     4  10  18  26  36  51  71  91 111 140 182 225
#     4  10  18  27  39  55  74  92 112 143 186 227
#     4   8  14  25  39  51  63  84 115 145 171 205
#     4   9  17  28  40  52  68  93 122 146 168 202
#     4   9  17  28  40  51  64  87 118 146 172 208
#
# _framework density 12.152657
#
# number of rings (size 3 to 8) (size 9 to 14) (size 15 to 20)
#    0.000    2.778    0.000    3.444    0.000    5.778 
#    0.000    3.333    0.000    1.333    0.000    0.000 
#    0.000    0.000    0.000    0.000    0.000    0.000 
#
# Total GULP energy -601372.012336 kJ/mol
# GULP energy per Si atom -5568.259373 kJ/mol
# Density = 1.212500 g / cm^3
# Si number density = 12.152657 Si / 1000 Ang^3
#
#
#
# Elastic Constant Matrix: (Units=GPa)
#
#
# Indices 1 2 3 4 5 6 
#
# 1 55.8155 30.4493 47.0737 0.0000 0.0000 0.0000
# 2 30.4493 55.8155 47.0737 0.0000 0.0000 0.0000
# 3 47.0737 47.0737 123.5676 0.0000 0.0000 0.0000
# 4 0.0000 0.0000 0.0000 10.7322 0.0000 0.0000
# 5 0.0000 0.0000 0.0000 0.0000 10.7322 0.0000
# 6 0.0000 0.0000 0.0000 0.0000 0.0000 12.6831
#
#
#
# Elastic Compliance Matrix: (Units=1/GPa)
#
#
# Indices 1 2 3 4 5 6 
#
# 1 0.029632 -0.009790 -0.007559 0.000000 0.000000 0.000000
# 2 -0.009790 0.029632 -0.007559 0.000000 0.000000 0.000000
# 3 -0.007559 -0.007559 0.013852 0.000000 0.000000 0.000000
# 4 0.000000 0.000000 0.000000 0.093178 0.000000 0.000000
# 5 0.000000 0.000000 0.000000 0.000000 0.093178 0.000000
# 6 0.000000 0.000000 0.000000 0.000000 0.000000 0.078845
#
#
# Mechanical properties :
#
#
# Convention : Reuss Voigt Hill
#
# Bulk Modulus (GPa) = 42.91827 53.82133 48.36980
# Shear Modulus (GPa) = 12.62948 14.20295 13.41621
#
# Velocity S-wave (km/s) = 3.22722 3.42235 3.32621
# Velocity P-wave (km/s) = 7.01991 7.74600 7.39188
#
# Compressibility (1/GPa) = 0.02330010
#
# Stress axis : x y z
#
# Youngs Moduli (GPa) = 33.74718 33.74718 72.19235
#
# Poissons Ratio (x) = 0.33040 0.54569
# Poissons Ratio (y) = 0.33040 0.54569
# Poissons Ratio (z) = 0.25509 0.25509
#
# Static dielectric constant tensor:
#      x y z
#    x 1.370600 0.000000 0.000000 
#    y 0.000000 1.370600 0.000000 
#    z 0.000000 0.000000 1.417040 
# 
# From -- ./inp_files/7444.got.cif
#   From: 2010.05.17/outbox.cif.g08.bks.cpg/sg191_4_cif.got.tgz:7444.got - 2010.05.20 12:20:32.
