data_PCOD9587893
_publ_section_title
;
Structure prediction by ZEFSAII (Michael W. Deem and Ramdas Pophale) SiO2 
 PCOD9587893
Probable space group: P 6/M M M
;
_chemical_formula_sum "Si O2"
_cell_formula_units_Z 132
_cell_length_a 17.908347
_cell_length_b 17.908347
_cell_length_c 28.642966
_cell_angle_alpha 90.000000
_cell_angle_beta 90.000000
_cell_angle_gamma 120.000000
_cell_volume 7955.356036
_symmetry_space_group_name_H-M "P 6/M M M"
_symmetry_group_IT_number 191
_symmetry_cell_setting 'hexagonal'
loop_
_space_group_symop_operation_xyz
x,y,z
x-y,x,z
-y,x-y,z
-x,-y,z
-x+y,-x,z
y,-x+y,z
x-y,-y,-z
-x,-x+y,-z
y,x,-z
-y,-x,-z
-x+y,y,-z
x,x-y,-z
-x,-y,-z
-x+y,-x,-z
y,-x+y,-z
x,y,-z
x-y,x,-z
-y,x-y,-z
-x+y,y,z
x,x-y,z
-y,-x,z
y,x,z
x-y,-y,z
-x,-x+y,z
loop_
_atom_site_type_symbol
_atom_site_label
_atom_site_fract_x
_atom_site_fract_y
_atom_site_fract_z
Si Si1 0.841806 0.333255 0.638967
Si Si2 0.900124 0.268363 0.727156
Si Si3 0.100700 0.729478 0.090455
Si Si4 0.157111 0.489735 0.000000
Si Si5 0.269013 0.902134 0.554317
Si Si6 0.467565 0.104053 0.182497
O O1 0.852317 0.426159 0.645280
O O2 0.741653 0.258348 0.640071
O O3 0.887714 0.310468 0.680312
O O4 0.880034 0.324108 0.589881
O O5 0.833255 0.166746 0.725193
O O6 0.873657 0.307433 0.770789
O O7 0.000000 0.296855 0.732536
O O8 0.168799 0.831202 0.086631
O O9 0.114908 0.683856 0.045578
O O10 0.125067 0.693638 0.136265
O O11 0.000000 0.700847 0.093586
O O12 0.257537 0.515074 0.000000
O O13 0.147296 0.573648 0.000000
O O14 0.288003 0.894381 0.500000
O O15 0.169633 0.830368 0.562872
O O16 0.292472 0.000000 0.562124
O O17 0.569534 0.139068 0.181801
O O18 0.421038 0.000000 0.182812
#
# Coordination Sequence:
#
# PCOD9587893 Si02
#       6
#    24  24  24  12  24  24
#     4  10  20  33  49  70  96 125 156 191 232 277
#     4  10  20  33  50  72  97 126 160 198 239 281
#     4  10  20  33  50  72  97 127 163 202 242 283
#     4  10  20  33  50  73 100 128 157 192 236 285
#     4   9  18  32  49  69  93 122 156 193 233 276
#     4   9  17  30  49  72  96 122 154 191 230 276
#
# _framework density 16.592593999999998
#
# number of rings (size 3 to 8) (size 9 to 14) (size 15 to 20)
#    0.000    2.364    0.000    2.727    0.000    4.000 
#    0.000    0.909    0.000    6.727    0.000    1.273 
#    0.000   10.909    0.000    0.182    0.000    1.455 
#
# Total GULP energy -736018.880030 kJ/mol
# GULP energy per Si atom -5575.900606 kJ/mol
# Density = 1.655483 g / cm^3
# Si number density = 16.592594 Si / 1000 Ang^3
#
#
#
# Elastic Constant Matrix: (Units=GPa)
#
#
# Indices 1 2 3 4 5 6 
#
# 1 88.4180 68.9609 34.1968 0.0000 0.0000 0.0000
# 2 68.9609 88.4180 34.1968 0.0000 0.0000 0.0000
# 3 34.1968 34.1968 86.8124 0.0000 0.0000 0.0000
# 4 0.0000 0.0000 0.0000 17.6728 0.0000 0.0000
# 5 0.0000 0.0000 0.0000 0.0000 17.6728 0.0000
# 6 0.0000 0.0000 0.0000 0.0000 0.0000 9.7286
#
#
#
# Elastic Compliance Matrix: (Units=1/GPa)
#
#
# Indices 1 2 3 4 5 6 
#
# 1 0.029531 -0.021864 -0.003020 0.000000 0.000000 0.000000
# 2 -0.021864 0.029531 -0.003020 0.000000 0.000000 0.000000
# 3 -0.003020 -0.003020 0.013898 0.000000 0.000000 0.000000
# 4 0.000000 0.000000 0.000000 0.056584 0.000000 0.000000
# 5 0.000000 0.000000 0.000000 0.000000 0.056584 0.000000
# 6 0.000000 0.000000 0.000000 0.000000 0.000000 0.102790
#
#
# Mechanical properties :
#
#
# Convention : Reuss Voigt Hill
#
# Bulk Modulus (GPa) = 58.30399 59.81749 59.06074
# Shear Modulus (GPa) = 14.26762 17.43443 15.85102
#
# Velocity S-wave (km/s) = 2.93555 3.24502 3.09416
# Velocity P-wave (km/s) = 6.83409 7.08302 6.95967
#
# Compressibility (1/GPa) = 0.01715148
#
# Stress axis : x y z
#
# Youngs Moduli (GPa) = 33.86294 33.86294 71.95117
#
# Poissons Ratio (x) = 0.74039 0.21729
# Poissons Ratio (y) = 0.74039 0.21729
# Poissons Ratio (z) = 0.10226 0.10226
#
# Static dielectric constant tensor:
#      x y z
#    x 1.548940 0.000000 0.000000 
#    y 0.000000 1.548940 0.000000 
#    z 0.000000 0.000000 1.567100 
# 
# From -- ./inp_files/9805.got.cif
#   From: 2010.05.17/outbox.cif.g08.bks.cpg/sg191_5_cif.got.tgz:9805.got - 2010.05.20 12:20:32.
