data_PCOD9587485
_publ_section_title
;
Structure prediction by ZEFSAII (Michael W. Deem and Ramdas Pophale) SiO2 
 PCOD9587485
Probable space group: P 6/M M M
;
_chemical_formula_sum "Si O2"
_cell_formula_units_Z 120
_cell_length_a 18.609832
_cell_length_b 18.609832
_cell_length_c 25.347517
_cell_angle_alpha 90.000000
_cell_angle_beta 90.000000
_cell_angle_gamma 120.000000
_cell_volume 7602.404264
_symmetry_space_group_name_H-M "P 6/M M M"
_symmetry_group_IT_number 191
_symmetry_cell_setting 'hexagonal'
loop_
_space_group_symop_operation_xyz
x,y,z
x-y,x,z
-y,x-y,z
-x,-y,z
-x+y,-x,z
y,-x+y,z
x-y,-y,-z
-x,-x+y,-z
y,x,-z
-y,-x,-z
-x+y,y,-z
x,x-y,-z
-x,-y,-z
-x+y,-x,-z
y,-x+y,-z
x,y,-z
x-y,x,-z
-y,x-y,-z
-x+y,y,z
x,x-y,z
-y,-x,z
y,x,z
x-y,-y,z
-x,-x+y,z
loop_
_atom_site_type_symbol
_atom_site_label
_atom_site_fract_x
_atom_site_fract_y
_atom_site_fract_z
Si Si1 0.832993 0.500721 0.412953
Si Si2 0.095450 0.356339 0.914377
Si Si3 0.640263 0.735668 0.500000
Si Si4 0.349390 0.095102 0.790971
Si Si5 0.163623 0.667092 0.000000
Si Si6 0.099279 0.467659 0.296795
O O1 0.737436 0.474872 0.422094
O O2 0.847398 0.423699 0.424246
O O3 0.886531 0.579687 0.449921
O O4 0.856006 0.525547 0.351942
O O5 0.165056 0.330111 0.925572
O O6 0.101247 0.376379 0.852036
O O7 0.120925 0.437031 0.949690
O O8 0.000000 0.287739 0.925544
O O9 0.712754 0.712754 0.500000
O O10 0.665765 0.832883 0.500000
O O11 0.315100 0.157550 0.783955
O O12 0.423845 0.119608 0.750253
O O13 0.282297 0.000000 0.780879
O O14 0.259800 0.740201 0.000000
O O15 0.155121 0.577561 0.000000
O O16 0.119085 0.559543 0.281706
O O17 0.000000 0.413909 0.305900
#
# Coordination Sequence:
#
# PCOD9587485 Si02
#       6
#    24  24  12  24  12  24
#     4  10  19  30  45  66  94 126 158 189 220 256
#     4   9  18  31  47  67  90 117 148 184 225 267
#     4  10  21  35  51  70  91 117 148 184 225 269
#     4   9  17  30  47  66  89 117 150 186 225 269
#     4  10  20  33  48  67  92 120 149 180 216 257
#     4   9  17  28  43  64  89 118 153 192 229 263
#
# _framework density 15.784481
#
# number of rings (size 3 to 8) (size 9 to 14) (size 15 to 20)
#    0.000    2.600    0.000    2.100    0.000    3.200 
#    0.000    3.000    0.000    0.900    0.000    2.800 
#    0.000    2.400    0.000    6.600    0.000    4.400 
#
# Total GULP energy -668615.471549 kJ/mol
# GULP energy per Si atom -5571.795596 kJ/mol
# Density = 1.574855 g / cm^3
# Si number density = 15.784481 Si / 1000 Ang^3
#
#
#
# Elastic Constant Matrix: (Units=GPa)
#
#
# Indices 1 2 3 4 5 6 
#
# 1 94.7341 66.4429 48.9286 0.0000 0.0000 0.0000
# 2 66.4429 94.7341 48.9286 0.0000 0.0000 0.0000
# 3 48.9286 48.9286 65.7647 0.0000 0.0000 0.0000
# 4 0.0000 0.0000 0.0000 22.2043 0.0000 0.0000
# 5 0.0000 0.0000 0.0000 0.0000 22.2043 0.0000
# 6 0.0000 0.0000 0.0000 0.0000 0.0000 14.1456
#
#
#
# Elastic Compliance Matrix: (Units=1/GPa)
#
#
# Indices 1 2 3 4 5 6 
#
# 1 0.023331 -0.012015 -0.008419 0.000000 0.000000 0.000000
# 2 -0.012015 0.023331 -0.008419 0.000000 0.000000 0.000000
# 3 -0.008419 -0.008419 0.027733 0.000000 0.000000 0.000000
# 4 0.000000 0.000000 0.000000 0.045036 0.000000 0.000000
# 5 0.000000 0.000000 0.000000 0.000000 0.045036 0.000000
# 6 0.000000 0.000000 0.000000 0.000000 0.000000 0.070693
#
#
# Mechanical properties :
#
#
# Convention : Reuss Voigt Hill
#
# Bulk Modulus (GPa) = 59.91979 64.87034 62.39506
# Shear Modulus (GPa) = 16.75429 17.77303 17.26366
#
# Velocity S-wave (km/s) = 3.26151 3.35920 3.31072
# Velocity P-wave (km/s) = 7.22682 7.49883 7.36408
#
# Compressibility (1/GPa) = 0.01668898
#
# Stress axis : x y z
#
# Youngs Moduli (GPa) = 42.86096 42.86096 36.05810
#
# Poissons Ratio (x) = 0.51499 0.30357
# Poissons Ratio (y) = 0.51499 0.30357
# Poissons Ratio (z) = 0.36084 0.36084
#
# Static dielectric constant tensor:
#      x y z
#    x 1.515990 0.000000 0.000000 
#    y 0.000000 1.515990 0.000000 
#    z 0.000000 0.000000 1.535270 
# 
# From -- ./inp_files/8544.got.cif
#   From: 2010.05.17/outbox.cif.g08.bks.cpg/sg191_5_cif.got.tgz:8544.got - 2010.05.20 12:20:32.
