data_PCOD9587412
_publ_section_title
;
Structure prediction by ZEFSAII (Michael W. Deem and Ramdas Pophale) SiO2 
 PCOD9587412
Probable space group: P 6/M M M
;
_chemical_formula_sum "Si O2"
_cell_formula_units_Z 78
_cell_length_a 28.749299
_cell_length_b 28.749299
_cell_length_c 7.274626
_cell_angle_alpha 90.000000
_cell_angle_beta 90.000000
_cell_angle_gamma 120.000000
_cell_volume 5207.098841
_symmetry_space_group_name_H-M "P 6/M M M"
_symmetry_group_IT_number 191
_symmetry_cell_setting 'hexagonal'
loop_
_space_group_symop_operation_xyz
x,y,z
x-y,x,z
-y,x-y,z
-x,-y,z
-x+y,-x,z
y,-x+y,z
x-y,-y,-z
-x,-x+y,-z
y,x,-z
-y,-x,-z
-x+y,y,-z
x,x-y,-z
-x,-y,-z
-x+y,-x,-z
y,-x+y,-z
x,y,-z
x-y,x,-z
-y,x-y,-z
-x+y,y,z
x,x-y,z
-y,-x,z
y,x,z
x-y,-y,z
-x,-x+y,z
loop_
_atom_site_type_symbol
_atom_site_label
_atom_site_fract_x
_atom_site_fract_y
_atom_site_fract_z
Si Si1 0.347886 0.227949 0.000000
Si Si2 0.443809 0.274609 0.718582
Si Si3 0.306718 0.000000 0.000000
Si Si4 0.892900 0.393781 0.277453
Si Si5 0.391009 0.391009 0.720940
O O1 0.388270 0.254007 0.173121
O O2 0.328297 0.164149 0.000000
O O3 0.306793 0.250555 0.000000
O O4 0.434526 0.275155 0.500000
O O5 0.461352 0.230676 0.755236
O O6 0.487592 0.334420 0.776269
O O7 0.342352 0.000000 0.827134
O O8 0.892551 0.396146 0.500000
O O9 0.889063 0.444532 0.209844
O O10 0.948119 0.395557 0.227984
O O11 0.384042 0.384042 0.500000
#
# Coordination Sequence:
#
# PCOD9587412 Si02
#       5
#    12  24   6  24  12
#     4  10  20  32  46  66  88 110 141 174 202 242
#     4   9  17  30  46  61  80 109 143 178 216 258
#     4  12  20  30  49  68  88 116 143 172 208 242
#     4   9  16  27  43  61  84 113 140 173 220 264
#     4  10  19  30  42  62  90 116 142 173 211 258
#
# _framework density 14.979549
#
# number of rings (size 3 to 8) (size 9 to 14) (size 15 to 20)
#    0.000    2.462    3.077    0.462    0.000    1.846 
#    0.000    3.846    0.000    0.615    0.000    4.308 
#    0.000    0.000    0.000    0.231    0.000    0.000 
#
# Total GULP energy -434752.351267 kJ/mol
# GULP energy per Si atom -5573.748093 kJ/mol
# Density = 1.494545 g / cm^3
# Si number density = 14.979549 Si / 1000 Ang^3
#
#
#
# Elastic Constant Matrix: (Units=GPa)
#
#
# Indices 1 2 3 4 5 6 
#
# 1 100.5535 59.1314 14.3148 0.0000 0.0000 0.0000
# 2 59.1314 100.5535 14.3148 0.0000 0.0000 0.0000
# 3 14.3148 14.3148 64.4070 0.0000 0.0000 0.0000
# 4 0.0000 0.0000 0.0000 16.1392 0.0000 0.0000
# 5 0.0000 0.0000 0.0000 0.0000 16.1392 0.0000
# 6 0.0000 0.0000 0.0000 0.0000 0.0000 20.7111
#
#
#
# Elastic Compliance Matrix: (Units=1/GPa)
#
#
# Indices 1 2 3 4 5 6 
#
# 1 0.015332 -0.008810 -0.001450 0.000000 0.000000 0.000000
# 2 -0.008810 0.015332 -0.001450 0.000000 0.000000 0.000000
# 3 -0.001450 -0.001450 0.016171 0.000000 0.000000 0.000000
# 4 0.000000 0.000000 0.000000 0.061961 0.000000 0.000000
# 5 0.000000 0.000000 0.000000 0.000000 0.061961 0.000000
# 6 0.000000 0.000000 0.000000 0.000000 0.000000 0.048283
#
#
# Mechanical properties :
#
#
# Convention : Reuss Voigt Hill
#
# Bulk Modulus (GPa) = 42.70458 49.00398 45.85428
# Shear Modulus (GPa) = 19.97898 22.44811 21.21355
#
# Velocity S-wave (km/s) = 3.65602 3.87535 3.76728
# Velocity P-wave (km/s) = 6.81120 7.26701 7.04279
#
# Compressibility (1/GPa) = 0.02341669
#
# Stress axis : x y z
#
# Youngs Moduli (GPa) = 65.22324 65.22324 61.84052
#
# Poissons Ratio (x) = 0.57460 0.08964
# Poissons Ratio (y) = 0.57460 0.08964
# Poissons Ratio (z) = 0.09455 0.09455
#
# Static dielectric constant tensor:
#      x y z
#    x 1.495950 0.000000 0.000000 
#    y 0.000000 1.495950 0.000000 
#    z 0.000000 0.000000 1.554290 
# 
# From -- ./inp_files/1218.got.cif
#   From: 2010.05.17/outbox.cif.g08.bks.cpg/sg191_1_cif.got.tgz:1218.got - 2010.05.20 12:20:32.
