data_PCOD9587790
_publ_section_title
;
Structure prediction by ZEFSAII (Michael W. Deem and Ramdas Pophale) SiO2 
 PCOD9587790
Probable space group: P 6/M M M
;
_chemical_formula_sum "Si O2"
_cell_formula_units_Z 192
_cell_length_a 23.793020
_cell_length_b 23.793020
_cell_length_c 24.968094
_cell_angle_alpha 90.000000
_cell_angle_beta 90.000000
_cell_angle_gamma 120.000000
_cell_volume 12240.951063
_symmetry_space_group_name_H-M "P 6/M M M"
_symmetry_group_IT_number 191
_symmetry_cell_setting 'hexagonal'
loop_
_space_group_symop_operation_xyz
x,y,z
x-y,x,z
-y,x-y,z
-x,-y,z
-x+y,-x,z
y,-x+y,z
x-y,-y,-z
-x,-x+y,-z
y,x,-z
-y,-x,-z
-x+y,y,-z
x,x-y,-z
-x,-y,-z
-x+y,-x,-z
y,-x+y,-z
x,y,-z
x-y,x,-z
-y,x-y,-z
-x+y,y,z
x,x-y,z
-y,-x,z
y,x,z
x-y,-y,z
-x,-x+y,z
loop_
_atom_site_type_symbol
_atom_site_label
_atom_site_fract_x
_atom_site_fract_y
_atom_site_fract_z
Si Si1 0.925997 0.199618 0.885788
Si Si2 0.596170 0.921658 0.741847
Si Si3 0.527942 0.923061 0.364719
Si Si4 0.525149 0.920706 0.155177
Si Si5 0.201079 0.275962 0.243860
Si Si6 0.072949 0.271669 0.565356
Si Si7 0.921216 0.316237 0.060822
Si Si8 0.274916 0.422087 0.435731
O O1 0.873526 0.126475 0.900383
O O2 0.925638 0.205565 0.821194
O O3 0.906071 0.248718 0.912296
O O4 0.000000 0.223872 0.902009
O O5 0.551140 0.906569 0.690519
O O6 0.553095 0.898728 0.795392
O O7 0.651018 0.901728 0.736585
O O8 0.638088 0.000000 0.746297
O O9 0.456469 0.912938 0.360224
O O10 0.535363 0.879812 0.409752
O O11 0.575662 0.000000 0.375508
O O12 0.450159 0.900317 0.160170
O O13 0.544412 0.900050 0.100048
O O14 0.564798 0.000000 0.156173
O O15 0.127821 0.255641 0.259163
O O16 0.228084 0.228084 0.260626
O O17 0.071963 0.269999 0.500000
O O18 0.126657 0.253314 0.582793
O O19 0.100010 0.346634 0.580322
O O20 0.000000 0.226182 0.584700
O O21 0.000000 0.358021 0.059281
O O22 0.897415 0.308267 0.000000
O O23 0.279116 0.424633 0.500000
O O24 0.219753 0.439506 0.419991
#
# Coordination Sequence:
#
# PCOD9587790 Si02
#       8
#    24  24  24  24  24  24  24  24
#     4   9  16  27  42  60  83 114 153 195 240 288
#     4   9  16  28  43  62  90 121 151 180 216 268
#     4  10  20  31  46  72 101 124 147 181 226 273
#     4   9  15  24  39  56  79 114 147 173 206 254
#     4   9  16  27  45  66  89 119 157 199 239 281
#     4   8  13  22  38  59  82 111 148 188 228 271
#     4   9  16  25  37  56  82 111 146 186 226 271
#     4   9  18  32  48  65  88 121 158 192 227 269
#
# _framework density 15.685055
#
# number of rings (size 3 to 8) (size 9 to 14) (size 15 to 20)
#    0.000    3.000    1.250    1.500    0.000    3.500 
#    0.000    1.875    0.000    0.625    0.000    2.625 
#    0.000    0.000    0.000    4.875    0.000   24.000 
#
# Total GULP energy -1069171.611174 kJ/mol
# GULP energy per Si atom -5568.602142 kJ/mol
# Density = 1.564936 g / cm^3
# Si number density = 15.685055 Si / 1000 Ang^3
#
#
#
# Elastic Constant Matrix: (Units=GPa)
#
#
# Indices 1 2 3 4 5 6 
#
# 1 79.2602 45.5870 25.5707 0.0000 0.0000 0.0000
# 2 45.5870 79.2602 25.5707 0.0000 0.0000 0.0000
# 3 25.5707 25.5707 29.8018 0.0000 0.0000 0.0000
# 4 0.0000 0.0000 0.0000 12.0952 0.0000 0.0000
# 5 0.0000 0.0000 0.0000 0.0000 12.0952 0.0000
# 6 0.0000 0.0000 0.0000 0.0000 0.0000 16.8366
#
#
#
# Elastic Compliance Matrix: (Units=1/GPa)
#
#
# Indices 1 2 3 4 5 6 
#
# 1 0.021024 -0.008673 -0.010597 0.000000 0.000000 0.000000
# 2 -0.008673 0.021024 -0.010597 0.000000 0.000000 0.000000
# 3 -0.010597 -0.010597 0.051740 0.000000 0.000000 0.000000
# 4 0.000000 0.000000 0.000000 0.082678 0.000000 0.000000
# 5 0.000000 0.000000 0.000000 0.000000 0.082678 0.000000
# 6 0.000000 0.000000 0.000000 0.000000 0.000000 0.059394
#
#
# Mechanical properties :
#
#
# Convention : Reuss Voigt Hill
#
# Bulk Modulus (GPa) = 29.36603 42.41988 35.89296
# Shear Modulus (GPa) = 12.83288 14.31166 13.57227
#
# Velocity S-wave (km/s) = 2.86345 3.02394 2.94479
# Velocity P-wave (km/s) = 5.44935 6.26863 5.87329
#
# Compressibility (1/GPa) = 0.03405295
#
# Stress axis : x y z
#
# Youngs Moduli (GPa) = 47.56478 47.56478 19.32725
#
# Poissons Ratio (x) = 0.41254 0.20482
# Poissons Ratio (y) = 0.41254 0.20482
# Poissons Ratio (z) = 0.50406 0.50406
#
# Static dielectric constant tensor:
#      x y z
#    x 1.513330 0.000000 0.000000 
#    y 0.000000 1.513330 0.000000 
#    z 0.000000 0.000000 1.553310 
# 
# From -- ./inp_files/9317.got.cif
#   From: 2010.05.17/outbox.cif.g08.bks.cpg/sg191_5_cif.got.tgz:9317.got - 2010.05.20 12:20:32.
