data_PCOD9587017
_publ_section_title
;
Structure prediction by ZEFSAII (Michael W. Deem and Ramdas Pophale) SiO2 
 PCOD9587017
Probable space group: P -6 2 C
;
_chemical_formula_sum "Si O2"
_cell_formula_units_Z 52
_cell_length_a 12.000000
_cell_length_b 12.000000
_cell_length_c 21.000000
_cell_angle_alpha 90.000000
_cell_angle_beta 90.000000
_cell_angle_gamma 120.000000
_cell_volume 2618.860821
_symmetry_space_group_name_H-M "P -6 2 C"
_symmetry_group_IT_number 190
_symmetry_cell_setting 'hexagonal'
loop_
_space_group_symop_operation_xyz
x,y,z
-x+y,-x,1/2-z
-y,x-y,z
x,y,1/2-z
-x+y,-x,z
-y,x-y,1/2-z
x-y,-y,-z
-x,-x+y,-z
y,x,-z
y,x,1/2+z
x-y,-y,1/2+z
-x,-x+y,1/2+z
loop_
_atom_site_type_symbol
_atom_site_label
_atom_site_fract_x
_atom_site_fract_y
_atom_site_fract_z
Si Si1 0.725605 0.742593 0.615460
Si Si2 0.666668 0.333335 0.671628
Si Si3 0.113569 0.375709 0.750000
Si Si4 0.054273 0.533146 0.382290
Si Si5 0.918191 0.520105 0.250000
Si Si6 0.984623 0.745850 0.927041
O O1 0.694191 0.721674 0.689904
O O2 0.602807 0.610778 0.587952
O O3 0.861154 0.751591 0.599825
O O4 0.729063 0.876641 0.601066
O O5 0.666667 0.333334 0.750000
O O6 0.625990 0.429819 0.640728
O O7 0.247907 0.380119 0.750000
O O8 0.164420 0.529032 0.750000
O O9 0.043423 0.642328 0.421843
O O10 0.992024 0.540063 0.315594
O O11 0.000000 0.785179 0.000000
#
# Coordination Sequence:
#
# PCOD9587017 Si02
#       6
#    12   4   6  12   6  12
#     4  11  25  44  69 102 129 174 229 274 343 404
#     4  12  21  39  72 102 135 165 210 277 350 409
#     4  10  21  37  69 101 138 172 203 278 341 414
#     4  11  23  41  68  99 133 168 219 273 335 408
#     4  10  19  37  63  99 134 166 203 266 343 396
#     4  12  26  45  67  90 135 185 227 281 324 387
#
# _framework density 19.855962000000002
#
# number of rings (size 3 to 8) (size 9 to 14) (size 15 to 20)
#    0.000    0.923    5.769    1.385    0.000    3.692 
#    1.385    0.000    0.000    0.000    0.000    0.000 
#    0.000    0.000    0.000    0.000    0.000    0.000 
#
# Total GULP energy -289502.310213 kJ/mol
# GULP energy per Si atom -5567.352119 kJ/mol
# Density = 1.981077 g / cm^3
# Si number density = 19.855962 Si / 1000 Ang^3
#
#
#
# Elastic Constant Matrix: (Units=GPa)
#
#
# Indices 1 2 3 4 5 6 
#
# 1 101.8363 31.5263 22.9707 0.0001 -0.0002 -0.0002
# 2 31.5263 101.8351 22.9708 0.0001 -0.0002 -0.0003
# 3 22.9707 22.9708 76.3280 -0.0001 0.0001 0.0000
# 4 0.0001 0.0001 -0.0001 -2.1984 0.0000 0.0000
# 5 -0.0002 -0.0002 0.0001 0.0000 -2.1981 0.0000
# 6 -0.0002 -0.0003 0.0000 0.0000 0.0000 35.1549
#
#
#
# Elastic Compliance Matrix: (Units=1/GPa)
#
#
# Indices 1 2 3 4 5 6 
#
# 1 0.011294 -0.002929 -0.002518 0.000000 -0.000001 0.000000
# 2 -0.002929 0.011294 -0.002518 0.000000 -0.000001 0.000000
# 3 -0.002518 -0.002518 0.014617 -0.000001 0.000001 0.000000
# 4 0.000000 0.000000 -0.000001 -0.454877 0.000009 0.000000
# 5 -0.000001 -0.000001 0.000001 0.000009 -0.454948 0.000000
# 6 0.000000 0.000000 0.000000 0.000000 0.000000 0.028446
#
#
# Mechanical properties :
#
#
# Convention : Reuss Voigt Hill
#
# Bulk Modulus (GPa) = 46.99792 48.32610 47.66201
# Shear Modulus (GPa) = -6.08899 19.65379 6.78240
#
# Velocity S-wave (km/s) = -1.75306 3.14955 1.85019
# Velocity P-wave (km/s) = 4.42980 6.13330 5.34979
#
# Compressibility (1/GPa) = 0.02127754
#
# Stress axis : x y z
#
# Youngs Moduli (GPa) = 88.54112 88.53992 68.41485
#
# Poissons Ratio (x) = 0.25930 0.17224
# Poissons Ratio (y) = 0.25930 0.17225
# Poissons Ratio (z) = 0.22291 0.22291
#
# Static dielectric constant tensor:
#      x y z
#    x 1.950880 0.000010 0.000000 
#    y 0.000010 1.950890 0.000000 
#    z 0.000000 0.000000 1.703090 
# 
# From -- ./inp_files/4228.got.cif
#   From: 2010.05.17/outbox.ucp.g08.bks.cvg/sg190_3_cif.got.tgz:4228.got - 2010.06.11 15:22:26.
