data_PCOD9587678
_publ_section_title
;
Structure prediction by ZEFSAII (Michael W. Deem and Ramdas Pophale) SiO2 
 PCOD9587678
Probable space group: P 6/M M M
;
_chemical_formula_sum "Si O2"
_cell_formula_units_Z 168
_cell_length_a 22.366742
_cell_length_b 22.366742
_cell_length_c 25.573115
_cell_angle_alpha 90.000000
_cell_angle_beta 90.000000
_cell_angle_gamma 120.000000
_cell_volume 11079.488721
_symmetry_space_group_name_H-M "P 6/M M M"
_symmetry_group_IT_number 191
_symmetry_cell_setting 'hexagonal'
loop_
_space_group_symop_operation_xyz
x,y,z
x-y,x,z
-y,x-y,z
-x,-y,z
-x+y,-x,z
y,-x+y,z
x-y,-y,-z
-x,-x+y,-z
y,x,-z
-y,-x,-z
-x+y,y,-z
x,x-y,-z
-x,-y,-z
-x+y,-x,-z
y,-x+y,-z
x,y,-z
x-y,x,-z
-y,x-y,-z
-x+y,y,z
x,x-y,z
-y,-x,z
y,x,z
x-y,-y,z
-x,-x+y,z
loop_
_atom_site_type_symbol
_atom_site_label
_atom_site_fract_x
_atom_site_fract_y
_atom_site_fract_z
Si Si1 0.467761 0.077235 0.148763
Si Si2 0.388732 0.922408 0.439438
Si Si3 0.921618 0.709997 0.103686
Si Si4 0.522370 0.333581 0.647149
Si Si5 0.707281 0.785162 0.772699
Si Si6 0.560220 0.710332 0.058111
Si Si7 0.345405 0.919289 0.266017
O O1 0.537150 0.074299 0.147917
O O2 0.472132 0.129608 0.105130
O O3 0.456336 0.093651 0.207495
O O4 0.404914 0.000000 0.136463
O O5 0.366352 0.913325 0.500000
O O6 0.461813 0.923626 0.438130
O O7 0.339248 0.858496 0.402951
O O8 0.407895 0.000000 0.422270
O O9 0.869035 0.738069 0.096746
O O10 0.916323 0.688646 0.165188
O O11 0.894509 0.642266 0.068599
O O12 0.000000 0.764003 0.092370
O O13 0.522382 0.261191 0.649462
O O14 0.600668 0.399333 0.645758
O O15 0.481244 0.343833 0.695248
O O16 0.723742 0.861871 0.760911
O O17 0.768982 0.768982 0.764939
O O18 0.642618 0.729210 0.739361
O O19 0.541445 0.770723 0.061043
O O20 0.543692 0.679482 0.000000
O O21 0.400546 0.000000 0.279456
#
# Coordination Sequence:
#
# PCOD9587678 Si02
#       7
#    24  24  24  24  24  24  24
#     4  10  20  33  49  69  90 110 136 177 230 280
#     4   8  15  30  51  71  90 116 153 195 235 272
#     4   9  16  27  43  63  86 111 139 171 209 253
#     4  11  22  33  46  66  95 129 161 194 233 281
#     4   9  16  27  45  67  90 116 146 181 221 265
#     4  10  20  32  47  66  87 112 140 172 214 267
#     4  10  19  32  50  70  90 116 154 198 240 278
#
# _framework density 15.163154
#
# number of rings (size 3 to 8) (size 9 to 14) (size 15 to 20)
#    0.000    2.429    1.429    2.286    0.000    3.714 
#    0.000    0.714    0.000    1.429    0.000    2.000 
#    0.000    0.000    0.000    3.571    0.000    3.714 
#
# Total GULP energy -935830.217337 kJ/mol
# GULP energy per Si atom -5570.417960 kJ/mol
# Density = 1.512864 g / cm^3
# Si number density = 15.163154 Si / 1000 Ang^3
#
#
#
# Elastic Constant Matrix: (Units=GPa)
#
#
# Indices 1 2 3 4 5 6 
#
# 1 80.0950 44.2991 42.7221 0.0000 0.0000 0.0000
# 2 44.2991 80.0950 42.7221 0.0000 0.0000 0.0000
# 3 42.7221 42.7221 75.9213 0.0000 0.0000 0.0000
# 4 0.0000 0.0000 0.0000 14.7101 0.0000 0.0000
# 5 0.0000 0.0000 0.0000 0.0000 14.7101 0.0000
# 6 0.0000 0.0000 0.0000 0.0000 0.0000 17.8979
#
#
#
# Elastic Compliance Matrix: (Units=1/GPa)
#
#
# Indices 1 2 3 4 5 6 
#
# 1 0.020520 -0.007416 -0.007374 0.000000 0.000000 0.000000
# 2 -0.007416 0.020520 -0.007374 0.000000 0.000000 0.000000
# 3 -0.007374 -0.007374 0.021470 0.000000 0.000000 0.000000
# 4 0.000000 0.000000 0.000000 0.067980 0.000000 0.000000
# 5 0.000000 0.000000 0.000000 0.000000 0.067980 0.000000
# 6 0.000000 0.000000 0.000000 0.000000 0.000000 0.055872
#
#
# Mechanical properties :
#
#
# Convention : Reuss Voigt Hill
#
# Bulk Modulus (GPa) = 54.99667 55.06642 55.03155
# Shear Modulus (GPa) = 16.40788 16.55484 16.48136
#
# Velocity S-wave (km/s) = 3.29308 3.30780 3.30045
# Velocity P-wave (km/s) = 7.12796 7.14027 7.13412
#
# Compressibility (1/GPa) = 0.01818292
#
# Stress axis : x y z
#
# Youngs Moduli (GPa) = 48.73289 48.73289 46.57630
#
# Poissons Ratio (x) = 0.36141 0.34344
# Poissons Ratio (y) = 0.36141 0.34344
# Poissons Ratio (z) = 0.35934 0.35934
#
# Static dielectric constant tensor:
#      x y z
#    x 1.503130 0.000000 0.000000 
#    y 0.000000 1.503130 0.000000 
#    z 0.000000 0.000000 1.521320 
# 
# From -- ./inp_files/10033.got.cif
#   From: 2010.05.17/outbox.cif.g08.bks.cpg/sg191_6_cif.got.tgz:10033.got - 2010.05.20 12:20:32.
