data_PCOD9587827
_publ_section_title
;
Structure prediction by ZEFSAII (Michael W. Deem and Ramdas Pophale) SiO2 
 PCOD9587827
Probable space group: P 6/M M M
;
_chemical_formula_sum "Si O2"
_cell_formula_units_Z 84
_cell_length_a 17.899820
_cell_length_b 17.899820
_cell_length_c 18.397083
_cell_angle_alpha 90.000000
_cell_angle_beta 90.000000
_cell_angle_gamma 120.000000
_cell_volume 5104.778787
_symmetry_space_group_name_H-M "P 6/M M M"
_symmetry_group_IT_number 191
_symmetry_cell_setting 'hexagonal'
loop_
_space_group_symop_operation_xyz
x,y,z
x-y,x,z
-y,x-y,z
-x,-y,z
-x+y,-x,z
y,-x+y,z
x-y,-y,-z
-x,-x+y,-z
y,x,-z
-y,-x,-z
-x+y,y,-z
x,x-y,-z
-x,-y,-z
-x+y,-x,-z
y,-x+y,-z
x,y,-z
x-y,x,-z
-y,x-y,-z
-x+y,y,z
x,x-y,z
-y,-x,z
y,x,z
x-y,-y,z
-x,-x+y,z
loop_
_atom_site_type_symbol
_atom_site_label
_atom_site_fract_x
_atom_site_fract_y
_atom_site_fract_z
Si Si1 0.842735 0.510043 0.141023
Si Si2 0.362681 0.467213 0.581369
Si Si3 0.632020 0.732298 0.278768
Si Si4 0.901703 0.272141 0.000000
O O1 0.742188 0.484376 0.141398
O O2 0.852440 0.426220 0.139067
O O3 0.884993 0.566967 0.212756
O O4 0.884514 0.570062 0.070761
O O5 0.326301 0.459025 0.500000
O O6 0.432608 0.567393 0.595024
O O7 0.417643 0.417643 0.580017
O O8 0.297406 0.422953 0.646832
O O9 0.666354 0.833177 0.267378
O O10 0.703715 0.703715 0.281924
O O11 0.828643 0.171358 0.000000
O O12 0.000000 0.294156 0.000000
#
# Coordination Sequence:
#
# PCOD9587827 Si02
#       4
#    24  24  24  12
#     4  10  20  33  50  73 101 130 157 186 224 273
#     4   8  14  26  45  68  92 117 146 181 222 271
#     4  10  20  32  47  68  93 122 157 198 241 281
#     4  10  21  35  51  72  97 127 162 200 239 275
#
# _framework density 16.455169999999999
#
# number of rings (size 3 to 8) (size 9 to 14) (size 15 to 20)
#    0.000    2.571    0.000    3.286    0.000    4.571 
#    0.000    1.429    0.000    1.000    0.000    0.000 
#    0.000    6.857    0.000    7.143    0.000    0.571 
#
# Total GULP energy -468307.785174 kJ/mol
# GULP energy per Si atom -5575.092681 kJ/mol
# Density = 1.641772 g / cm^3
# Si number density = 16.455170 Si / 1000 Ang^3
#
#
#
# Elastic Constant Matrix: (Units=GPa)
#
#
# Indices 1 2 3 4 5 6 
#
# 1 90.1571 71.9527 41.9447 0.0000 0.0000 0.0000
# 2 71.9527 90.1571 41.9447 0.0000 0.0000 0.0000
# 3 41.9447 41.9447 113.1988 0.0000 0.0000 0.0000
# 4 0.0000 0.0000 0.0000 39.5330 0.0000 0.0000
# 5 0.0000 0.0000 0.0000 0.0000 39.5330 0.0000
# 6 0.0000 0.0000 0.0000 0.0000 0.0000 9.1022
#
#
#
# Elastic Compliance Matrix: (Units=1/GPa)
#
#
# Indices 1 2 3 4 5 6 
#
# 1 0.031282 -0.023650 -0.002828 0.000000 0.000000 0.000000
# 2 -0.023650 0.031282 -0.002828 0.000000 0.000000 0.000000
# 3 -0.002828 -0.002828 0.010930 0.000000 0.000000 0.000000
# 4 0.000000 0.000000 0.000000 0.025295 0.000000 0.000000
# 5 0.000000 0.000000 0.000000 0.000000 0.025295 0.000000
# 6 0.000000 0.000000 0.000000 0.000000 0.000000 0.109863
#
#
# Mechanical properties :
#
#
# Convention : Reuss Voigt Hill
#
# Bulk Modulus (GPa) = 67.19529 67.24415 67.21972
# Shear Modulus (GPa) = 16.80563 26.81171 21.80867
#
# Velocity S-wave (km/s) = 3.19924 4.04094 3.64447
# Velocity P-wave (km/s) = 7.38721 7.91997 7.65823
#
# Compressibility (1/GPa) = 0.01488199
#
# Stress axis : x y z
#
# Youngs Moduli (GPa) = 31.96744 31.96744 91.49299
#
# Poissons Ratio (x) = 0.75602 0.25874
# Poissons Ratio (y) = 0.75602 0.25874
# Poissons Ratio (z) = 0.09040 0.09040
#
# Static dielectric constant tensor:
#      x y z
#    x 1.539150 0.000000 0.000000 
#    y 0.000000 1.539150 0.000000 
#    z 0.000000 0.000000 1.566780 
# 
# From -- ./inp_files/3979.got.cif
#   From: 2010.05.17/outbox.cif.g08.bks.cpg/sg191_2_cif.got.tgz:3979.got - 2010.05.20 12:20:32.
