data_PCOD9587722
_publ_section_title
;
Structure prediction by ZEFSAII (Michael W. Deem and Ramdas Pophale) SiO2 
 PCOD9587722
Probable space group: P 6/M M M
;
_chemical_formula_sum "Si O2"
_cell_formula_units_Z 168
_cell_length_a 21.945066
_cell_length_b 21.945066
_cell_length_c 25.836365
_cell_angle_alpha 90.000000
_cell_angle_beta 90.000000
_cell_angle_gamma 120.000000
_cell_volume 10775.460164
_symmetry_space_group_name_H-M "P 6/M M M"
_symmetry_group_IT_number 191
_symmetry_cell_setting 'hexagonal'
loop_
_space_group_symop_operation_xyz
x,y,z
x-y,x,z
-y,x-y,z
-x,-y,z
-x+y,-x,z
y,-x+y,z
x-y,-y,-z
-x,-x+y,-z
y,x,-z
-y,-x,-z
-x+y,y,-z
x,x-y,-z
-x,-y,-z
-x+y,-x,-z
y,-x+y,-z
x,y,-z
x-y,x,-z
-y,x-y,-z
-x+y,y,z
x,x-y,z
-y,-x,z
y,x,z
x-y,-y,z
-x,-x+y,z
loop_
_atom_site_type_symbol
_atom_site_label
_atom_site_fract_x
_atom_site_fract_y
_atom_site_fract_z
Si Si1 0.533559 0.613423 0.353194
Si Si2 0.081802 0.433670 0.764292
Si Si3 0.809552 0.335669 0.147926
Si Si4 0.077073 0.291437 0.203717
Si Si5 0.521259 0.188309 0.558968
Si Si6 0.921816 0.216819 0.078580
Si Si7 0.358345 0.919044 0.059049
O O1 0.460353 0.539648 0.354009
O O2 0.594663 0.594663 0.363141
O O3 0.543245 0.642460 0.295090
O O4 0.526882 0.660197 0.397605
O O5 0.138251 0.490191 0.803394
O O6 0.084031 0.362540 0.774029
O O7 0.000000 0.412675 0.773871
O O8 0.782173 0.391087 0.148648
O O9 0.744431 0.255570 0.148033
O O10 0.860104 0.352308 0.098120
O O11 0.140431 0.280861 0.220990
O O12 0.080475 0.299101 0.141261
O O13 0.000000 0.228599 0.217106
O O14 0.497658 0.163112 0.500000
O O15 0.599300 0.198599 0.564120
O O16 0.524697 0.262349 0.565471
O O17 0.857419 0.142582 0.061520
O O18 0.913920 0.282171 0.059898
O O19 0.000000 0.234284 0.063767
O O20 0.413796 0.000000 0.075075
O O21 0.374501 0.909243 0.000000
#
# Coordination Sequence:
#
# PCOD9587722 Si02
#       7
#    24  24  24  24  24  24  24
#     4   9  18  31  46  67  93 119 150 190 237 285
#     4  10  19  33  53  74  94 118 153 198 243 279
#     4  12  25  39  53  70  96 128 157 184 221 276
#     4   9  16  27  45  68  92 118 148 182 222 268
#     4   9  17  29  45  65  90 122 159 196 232 271
#     4   9  16  28  46  69  94 118 146 180 221 266
#     4  10  21  37  57  78  94 111 144 193 242 279
#
# _framework density 15.590982
#
# number of rings (size 3 to 8) (size 9 to 14) (size 15 to 20)
#    0.000    2.286    1.429    2.000    0.000    5.143 
#    0.000    2.143    0.000    2.857    0.000    2.000 
#    0.000    0.000    0.000    3.571    0.000    3.714 
#
# Total GULP energy -936886.233209 kJ/mol
# GULP energy per Si atom -5576.703769 kJ/mol
# Density = 1.555550 g / cm^3
# Si number density = 15.590982 Si / 1000 Ang^3
#
#
#
# Elastic Constant Matrix: (Units=GPa)
#
#
# Indices 1 2 3 4 5 6 
#
# 1 67.9600 30.7871 44.2099 0.0000 0.0000 0.0000
# 2 30.7871 67.9600 44.2099 0.0000 0.0000 0.0000
# 3 44.2099 44.2099 100.2390 0.0000 0.0000 0.0000
# 4 0.0000 0.0000 0.0000 88.5015 0.0000 0.0000
# 5 0.0000 0.0000 0.0000 0.0000 88.5015 0.0000
# 6 0.0000 0.0000 0.0000 0.0000 0.0000 18.5864
#
#
#
# Elastic Compliance Matrix: (Units=1/GPa)
#
#
# Indices 1 2 3 4 5 6 
#
# 1 0.021819 -0.005082 -0.007382 0.000000 0.000000 0.000000
# 2 -0.005082 0.021819 -0.007382 0.000000 0.000000 0.000000
# 3 -0.007382 -0.007382 0.016487 0.000000 0.000000 0.000000
# 4 0.000000 0.000000 0.000000 0.011299 0.000000 0.000000
# 5 0.000000 0.000000 0.000000 0.000000 0.011299 0.000000
# 6 0.000000 0.000000 0.000000 0.000000 0.000000 0.053803
#
#
# Mechanical properties :
#
#
# Convention : Reuss Voigt Hill
#
# Bulk Modulus (GPa) = 48.93784 52.73032 50.83408
# Shear Modulus (GPa) = 27.31813 46.91467 37.11640
#
# Velocity S-wave (km/s) = 4.19044 5.49147 4.88447
# Velocity P-wave (km/s) = 7.40741 8.60830 8.03033
#
# Compressibility (1/GPa) = 0.02043409
#
# Stress axis : x y z
#
# Youngs Moduli (GPa) = 45.83187 45.83187 60.65272
#
# Poissons Ratio (x) = 0.23294 0.44771
# Poissons Ratio (y) = 0.23294 0.44771
# Poissons Ratio (z) = 0.33831 0.33831
#
# Static dielectric constant tensor:
#      x y z
#    x 1.519640 0.000000 0.000000 
#    y 0.000000 1.519640 0.000000 
#    z 0.000000 0.000000 1.524990 
# 
# From -- ./inp_files/8989.got.cif
#   From: 2010.05.17/outbox.cif.g08.bks.cpg/sg191_5_cif.got.tgz:8989.got - 2010.05.20 12:20:32.
