data_PCOD9587269
_publ_section_title
;
Structure prediction by ZEFSAII (Michael W. Deem and Ramdas Pophale) SiO2 
 PCOD9587269
Probable space group: P 6/M M M
;
_chemical_formula_sum "Si O2"
_cell_formula_units_Z 144
_cell_length_a 22.457045
_cell_length_b 22.457045
_cell_length_c 25.277216
_cell_angle_alpha 90.000000
_cell_angle_beta 90.000000
_cell_angle_gamma 120.000000
_cell_volume 11039.898735
_symmetry_space_group_name_H-M "P 6/M M M"
_symmetry_group_IT_number 191
_symmetry_cell_setting 'hexagonal'
loop_
_space_group_symop_operation_xyz
x,y,z
x-y,x,z
-y,x-y,z
-x,-y,z
-x+y,-x,z
y,-x+y,z
x-y,-y,-z
-x,-x+y,-z
y,x,-z
-y,-x,-z
-x+y,y,-z
x,x-y,-z
-x,-y,-z
-x+y,-x,-z
y,-x+y,-z
x,y,-z
x-y,x,-z
-y,x-y,-z
-x+y,y,z
x,x-y,z
-y,-x,z
y,x,z
x-y,-y,z
-x,-x+y,z
loop_
_atom_site_type_symbol
_atom_site_label
_atom_site_fract_x
_atom_site_fract_y
_atom_site_fract_z
Si Si1 0.789929 0.712176 0.436702
Si Si2 0.611448 0.079674 0.294768
Si Si3 0.150751 0.710180 0.606451
Si Si4 0.667149 0.473928 0.084099
Si Si5 0.525110 0.191546 0.500000
Si Si6 0.078987 0.611566 0.000000
Si Si7 0.473338 0.806172 0.790399
O O1 0.780017 0.699250 0.500000
O O2 0.869285 0.738569 0.425395
O O3 0.764205 0.764205 0.422045
O O4 0.745667 0.639641 0.408033
O O5 0.539956 0.079912 0.300127
O O6 0.657767 0.115664 0.345920
O O7 0.649899 0.127398 0.244298
O O8 0.590545 0.000000 0.289523
O O9 0.227660 0.772341 0.619514
O O10 0.156533 0.674189 0.553070
O O11 0.738898 0.477795 0.069899
O O12 0.603278 0.396723 0.074120
O O13 0.651384 0.525204 0.050495
O O14 0.668001 0.486761 0.146888
O O15 0.595771 0.191541 0.500000
O O16 0.537587 0.268794 0.500000
O O17 0.074662 0.537331 0.000000
O O18 0.000000 0.594189 0.000000
O O19 0.395428 0.790855 0.781460
O O20 0.478884 0.739442 0.775982
#
# Coordination Sequence:
#
# PCOD9587269 Si02
#       7
#    24  24  24  24  12  12  24
#     4   9  16  27  43  61  78  96 119 146 177 214
#     4  10  20  31  41  56  78 102 128 158 194 236
#     4  10  18  30  45  59  76  99 127 159 191 226
#     4   9  16  26  41  59  78  99 128 165 202 234
#     4  10  19  30  43  59  78  99 124 156 197 239
#     4   9  17  26  36  54  80 107 130 152 186 234
#     4   9  17  29  44  60  76  98 128 163 199 235
#
# _framework density 13.043597999999999
#
# number of rings (size 3 to 8) (size 9 to 14) (size 15 to 20)
#    0.000    2.583    0.833    2.167    0.000    2.000 
#    0.000    4.167    0.000    7.500    0.000    1.167 
#    0.000    0.000    0.000    0.000    0.000    0.000 
#
# Total GULP energy -802173.814991 kJ/mol
# GULP energy per Si atom -5570.651493 kJ/mol
# Density = 1.301391 g / cm^3
# Si number density = 13.043598 Si / 1000 Ang^3
#
#
#
# Elastic Constant Matrix: (Units=GPa)
#
#
# Indices 1 2 3 4 5 6 
#
# 1 78.3914 46.7945 48.6589 0.0000 0.0000 0.0000
# 2 46.7945 78.3914 48.6589 0.0000 0.0000 0.0000
# 3 48.6589 48.6589 69.3980 0.0000 0.0000 0.0000
# 4 0.0000 0.0000 0.0000 15.5178 0.0000 0.0000
# 5 0.0000 0.0000 0.0000 0.0000 15.5178 0.0000
# 6 0.0000 0.0000 0.0000 0.0000 0.0000 15.7984
#
#
#
# Elastic Compliance Matrix: (Units=1/GPa)
#
#
# Indices 1 2 3 4 5 6 
#
# 1 0.024604 -0.007045 -0.012312 0.000000 0.000000 0.000000
# 2 -0.007045 0.024604 -0.012312 0.000000 0.000000 0.000000
# 3 -0.012312 -0.012312 0.031674 0.000000 0.000000 0.000000
# 4 0.000000 0.000000 0.000000 0.064442 0.000000 0.000000
# 5 0.000000 0.000000 0.000000 0.000000 0.064442 0.000000
# 6 0.000000 0.000000 0.000000 0.000000 0.000000 0.063297
#
#
# Mechanical properties :
#
#
# Convention : Reuss Voigt Hill
#
# Bulk Modulus (GPa) = 56.99329 57.15616 57.07472
# Shear Modulus (GPa) = 14.60927 14.83804 14.72366
#
# Velocity S-wave (km/s) = 3.35032 3.37645 3.36341
# Velocity P-wave (km/s) = 7.66521 7.68863 7.67693
#
# Compressibility (1/GPa) = 0.01754592
#
# Stress axis : x y z
#
# Youngs Moduli (GPa) = 40.64404 40.64404 31.57126
#
# Poissons Ratio (x) = 0.28633 0.38869
# Poissons Ratio (y) = 0.28633 0.38869
# Poissons Ratio (z) = 0.50039 0.50039
#
# Static dielectric constant tensor:
#      x y z
#    x 1.414110 0.000000 0.000000 
#    y 0.000000 1.414110 0.000000 
#    z 0.000000 0.000000 1.428250 
# 
# From -- ./inp_files/8883.got.cif
#   From: 2010.05.17/outbox.cif.g08.bks.cpg/sg191_5_cif.got.tgz:8883.got - 2010.05.20 12:20:32.
