data_PCOD9587465
_publ_section_title
;
Structure prediction by ZEFSAII (Michael W. Deem and Ramdas Pophale) SiO2 
 PCOD9587465
Probable space group: P 6/M M M
;
_chemical_formula_sum "Si O2"
_cell_formula_units_Z 132
_cell_length_a 18.259163
_cell_length_b 18.259163
_cell_length_c 28.429294
_cell_angle_alpha 90.000000
_cell_angle_beta 90.000000
_cell_angle_gamma 120.000000
_cell_volume 8208.398600
_symmetry_space_group_name_H-M "P 6/M M M"
_symmetry_group_IT_number 191
_symmetry_cell_setting 'hexagonal'
loop_
_space_group_symop_operation_xyz
x,y,z
x-y,x,z
-y,x-y,z
-x,-y,z
-x+y,-x,z
y,-x+y,z
x-y,-y,-z
-x,-x+y,-z
y,x,-z
-y,-x,-z
-x+y,y,-z
x,x-y,-z
-x,-y,-z
-x+y,-x,-z
y,-x+y,-z
x,y,-z
x-y,x,-z
-y,x-y,-z
-x+y,y,z
x,x-y,z
-y,-x,z
y,x,z
x-y,-y,z
-x,-x+y,z
loop_
_atom_site_type_symbol
_atom_site_label
_atom_site_fract_x
_atom_site_fract_y
_atom_site_fract_z
Si Si1 0.835003 0.332304 0.830554
Si Si2 0.102631 0.634604 0.446985
Si Si3 0.897917 0.532166 0.000000
Si Si4 0.734055 0.635659 0.911393
Si Si5 0.260575 0.360919 0.638835
Si Si6 0.467360 0.101028 0.726017
O O1 0.852285 0.426143 0.840691
O O2 0.737529 0.262471 0.839194
O O3 0.889139 0.306380 0.863795
O O4 0.855653 0.329391 0.775810
O O5 0.130236 0.668037 0.500000
O O6 0.131138 0.565569 0.436776
O O7 0.124092 0.702046 0.406397
O O8 0.000000 0.581094 0.447586
O O9 0.876532 0.568163 0.953805
O O10 0.864154 0.432077 0.000000
O O11 0.000000 0.577781 0.000000
O O12 0.833793 0.667585 0.911152
O O13 0.706072 0.706072 0.917060
O O14 0.160314 0.320628 0.639565
O O15 0.295611 0.295611 0.637454
O O16 0.300298 0.419153 0.684890
O O17 0.561843 0.123686 0.711295
O O18 0.415683 0.000000 0.733846
#
# Coordination Sequence:
#
# PCOD9587465 Si02
#       6
#    24  24  12  24  24  24
#     4  10  19  30  45  67  96 127 156 185 219 262
#     4   8  14  26  45  67  88 110 137 170 211 261
#     4   9  17  30  49  72  96 122 152 183 217 262
#     4  10  20  33  50  71  94 122 157 197 238 278
#     4  10  19  30  45  65  89 117 152 193 232 269
#     4   9  17  29  46  67  89 115 148 184 223 270
#
# _framework density 16.08109
#
# number of rings (size 3 to 8) (size 9 to 14) (size 15 to 20)
#    0.000    2.636    0.000    3.182    0.000    4.364 
#    0.000    0.000    0.000    6.909    0.000    0.000 
#    0.000    2.182    0.000   10.364    0.000    0.000 
#
# Total GULP energy -735468.677734 kJ/mol
# GULP energy per Si atom -5571.732407 kJ/mol
# Density = 1.604449 g / cm^3
# Si number density = 16.081090 Si / 1000 Ang^3
#
#
#
# Elastic Constant Matrix: (Units=GPa)
#
#
# Indices 1 2 3 4 5 6 
#
# 1 76.7864 45.1223 33.5969 0.0000 0.0000 0.0000
# 2 45.1223 76.7864 33.5969 0.0000 0.0000 0.0000
# 3 33.5969 33.5969 64.0823 0.0000 0.0000 0.0000
# 4 0.0000 0.0000 0.0000 11.5518 0.0000 0.0000
# 5 0.0000 0.0000 0.0000 0.0000 11.5518 0.0000
# 6 0.0000 0.0000 0.0000 0.0000 0.0000 15.8320
#
#
#
# Elastic Compliance Matrix: (Units=1/GPa)
#
#
# Indices 1 2 3 4 5 6 
#
# 1 0.021559 -0.010022 -0.006048 0.000000 0.000000 0.000000
# 2 -0.010022 0.021559 -0.006048 0.000000 0.000000 0.000000
# 3 -0.006048 -0.006048 0.021947 0.000000 0.000000 0.000000
# 4 0.000000 0.000000 0.000000 0.086566 0.000000 0.000000
# 5 0.000000 0.000000 0.000000 0.000000 0.086566 0.000000
# 6 0.000000 0.000000 0.000000 0.000000 0.000000 0.063163
#
#
# Mechanical properties :
#
#
# Convention : Reuss Voigt Hill
#
# Bulk Modulus (GPa) = 48.01532 49.14303 48.57918
# Shear Modulus (GPa) = 14.18271 14.80972 14.49622
#
# Velocity S-wave (km/s) = 2.97299 3.03799 3.00566
# Velocity P-wave (km/s) = 6.45817 6.55223 6.50537
#
# Compressibility (1/GPa) = 0.02082669
#
# Stress axis : x y z
#
# Youngs Moduli (GPa) = 46.38413 46.38413 45.56429
#
# Poissons Ratio (x) = 0.46488 0.27559
# Poissons Ratio (y) = 0.46488 0.27559
# Poissons Ratio (z) = 0.28055 0.28055
#
# Static dielectric constant tensor:
#      x y z
#    x 1.534550 0.000000 0.000000 
#    y 0.000000 1.534550 0.000000 
#    z 0.000000 0.000000 1.548760 
# 
# From -- ./inp_files/9757.got.cif
#   From: 2010.05.17/outbox.cif.g08.bks.cpg/sg191_5_cif.got.tgz:9757.got - 2010.05.20 12:20:32.
