data_PCOD9587159
_publ_section_title
;
Structure prediction by ZEFSAII (Michael W. Deem and Ramdas Pophale) SiO2 
 PCOD9587159
Probable space group: P 6/M M M
;
_chemical_formula_sum "Si O2"
_cell_formula_units_Z 120
_cell_length_a 27.959096
_cell_length_b 27.959096
_cell_length_c 11.951973
_cell_angle_alpha 90.000000
_cell_angle_beta 90.000000
_cell_angle_gamma 120.000000
_cell_volume 8091.266127
_symmetry_space_group_name_H-M "P 6/M M M"
_symmetry_group_IT_number 191
_symmetry_cell_setting 'hexagonal'
loop_
_space_group_symop_operation_xyz
x,y,z
x-y,x,z
-y,x-y,z
-x,-y,z
-x+y,-x,z
y,-x+y,z
x-y,-y,-z
-x,-x+y,-z
y,x,-z
-y,-x,-z
-x+y,y,-z
x,x-y,-z
-x,-y,-z
-x+y,-x,-z
y,-x+y,-z
x,y,-z
x-y,x,-z
-y,x-y,-z
-x+y,y,z
x,x-y,z
-y,-x,z
y,x,z
x-y,-y,z
-x,-x+y,z
loop_
_atom_site_type_symbol
_atom_site_label
_atom_site_fract_x
_atom_site_fract_y
_atom_site_fract_z
Si Si1 0.334605 0.063933 0.366349
Si Si2 0.936436 0.221490 0.000000
Si Si3 0.556050 0.333870 0.366139
Si Si4 0.735575 0.585778 0.000000
Si Si5 0.936612 0.171475 0.238803
Si Si6 0.440196 0.162312 0.247733
O O1 0.338730 0.070704 0.500000
O O2 0.284843 0.071464 0.318498
O O3 0.390554 0.109704 0.308439
O O4 0.316284 0.000000 0.340238
O O5 0.896553 0.246689 0.000000
O O6 0.928129 0.186766 0.887686
O O7 0.000000 0.269591 0.000000
O O8 0.548507 0.334674 0.500000
O O9 0.569362 0.284681 0.343744
O O10 0.607466 0.392535 0.332556
O O11 0.498792 0.316720 0.305422
O O12 0.707306 0.559255 0.882688
O O13 0.791952 0.583903 0.000000
O O14 0.890930 0.109071 0.262928
O O15 0.000000 0.187008 0.249291
O O16 0.429924 0.214962 0.255481
#
# Coordination Sequence:
#
# PCOD9587159 Si02
#       6
#    24  12  24  12  24  24
#     4  10  20  31  44  66  95 123 150 184 228 278
#     4  10  18  28  45  67  90 119 154 188 227 271
#     4   9  17  30  49  72  96 123 157 196 234 269
#     4  10  18  28  43  65  93 120 149 186 225 269
#     4  10  19  30  45  65  90 119 152 190 232 277
#     4  10  19  30  47  69  93 122 155 190 230 275
#
# _framework density 14.830806000000001
#
# number of rings (size 3 to 8) (size 9 to 14) (size 15 to 20)
#    0.000    2.200    2.000    2.300    0.000    3.200 
#    0.000    0.500    0.000    0.800    0.000    4.200 
#    0.000    4.800    0.000    5.000    0.000    0.000 
#
# Total GULP energy -668981.525029 kJ/mol
# GULP energy per Si atom -5574.846042 kJ/mol
# Density = 1.479705 g / cm^3
# Si number density = 14.830806 Si / 1000 Ang^3
#
#
#
# Elastic Constant Matrix: (Units=GPa)
#
#
# Indices 1 2 3 4 5 6 
#
# 1 77.2726 90.8416 52.6423 0.0000 0.0000 0.0000
# 2 90.8416 77.2726 52.6423 0.0000 0.0000 0.0000
# 3 52.6423 52.6423 83.3655 0.0000 0.0000 0.0000
# 4 0.0000 0.0000 0.0000 14.3749 0.0000 0.0000
# 5 0.0000 0.0000 0.0000 0.0000 14.3749 0.0000
# 6 0.0000 0.0000 0.0000 0.0000 0.0000 -6.7845
#
#
#
# Elastic Compliance Matrix: (Units=1/GPa)
#
#
# Indices 1 2 3 4 5 6 
#
# 1 -0.031929 0.041769 -0.006213 0.000000 0.000000 0.000000
# 2 0.041769 -0.031929 -0.006213 0.000000 0.000000 0.000000
# 3 -0.006213 -0.006213 0.019842 0.000000 0.000000 0.000000
# 4 0.000000 0.000000 0.000000 0.069566 0.000000 0.000000
# 5 0.000000 0.000000 0.000000 0.000000 0.069566 0.000000
# 6 0.000000 0.000000 0.000000 0.000000 0.000000 -0.147395
#
#
# Mechanical properties :
#
#
# Convention : Reuss Voigt Hill
#
# Bulk Modulus (GPa) = 68.17486 70.01810 69.09648
# Shear Modulus (GPa) = -47.13675 7.17871 -19.97902
#
# Velocity S-wave (km/s) = -5.64376 2.20248 -3.67431
# Velocity P-wave (km/s) = 1.89707 7.33360 5.35633
#
# Compressibility (1/GPa) = 0.01466816
#
# Stress axis : x y z
#
# Youngs Moduli (GPa) = -31.31945 -31.31945 50.39738
#
# Poissons Ratio (x) = 1.30817 0.31313
# Poissons Ratio (y) = 1.30817 0.31313
# Poissons Ratio (z) = -0.19460 -0.19460
#
# Static dielectric constant tensor:
#      x y z
#    x 1.473580 0.000000 0.000000 
#    y 0.000000 1.473580 0.000000 
#    z 0.000000 0.000000 1.507210 
# 
# From -- ./inp_files/3224.got.cif
#   From: 2010.05.17/outbox.cif.g08.bks.cpg/sg191_2_cif.got.tgz:3224.got - 2010.05.20 12:20:32.
