data_PCOD9587985
_publ_section_title
;
Structure prediction by ZEFSAII (Michael W. Deem and Ramdas Pophale) SiO2 
 PCOD9587985
Probable space group: P 6/M M M
;
_chemical_formula_sum "Si O2"
_cell_formula_units_Z 120
_cell_length_a 21.356985
_cell_length_b 21.356985
_cell_length_c 20.213563
_cell_angle_alpha 90.000000
_cell_angle_beta 90.000000
_cell_angle_gamma 120.000000
_cell_volume 7984.604135
_symmetry_space_group_name_H-M "P 6/M M M"
_symmetry_group_IT_number 191
_symmetry_cell_setting 'hexagonal'
loop_
_space_group_symop_operation_xyz
x,y,z
x-y,x,z
-y,x-y,z
-x,-y,z
-x+y,-x,z
y,-x+y,z
x-y,-y,-z
-x,-x+y,-z
y,x,-z
-y,-x,-z
-x+y,y,-z
x,x-y,-z
-x,-y,-z
-x+y,-x,-z
y,-x+y,-z
x,y,-z
x-y,x,-z
-y,x-y,-z
-x+y,y,z
x,x-y,z
-y,-x,z
y,x,z
x-y,-y,z
-x,-x+y,z
loop_
_atom_site_type_symbol
_atom_site_label
_atom_site_fract_x
_atom_site_fract_y
_atom_site_fract_z
Si Si1 0.534749 0.917571 0.804181
Si Si2 0.835311 0.670621 0.419997
Si Si3 0.665117 0.479301 0.315823
Si Si4 0.814643 0.332918 0.077223
Si Si5 0.082778 0.917223 0.580791
Si Si6 0.418925 0.333683 0.579305
O O1 0.460408 0.920815 0.801140
O O2 0.527453 0.864681 0.744615
O O3 0.531614 0.878849 0.873179
O O4 0.598946 0.000000 0.798284
O O5 0.836364 0.672727 0.500000
O O6 0.876201 0.752401 0.395765
O O7 0.751041 0.630761 0.402111
O O8 0.742606 0.485212 0.323063
O O9 0.603313 0.396688 0.303395
O O10 0.643401 0.508695 0.380225
O O11 0.800190 0.400095 0.085956
O O12 0.741739 0.258262 0.092210
O O13 0.833011 0.332422 0.000000
O O14 0.083334 0.916666 0.500000
O O15 0.000000 0.876172 0.601657
O O16 0.429941 0.338401 0.500000
O O17 0.379747 0.379747 0.595831
#
# Coordination Sequence:
#
# PCOD9587985 Si02
#       6
#    24  12  24  24  12  24
#     4   9  18  31  46  65  89 117 149 185 226 273
#     4   9  16  29  46  65  88 112 143 179 216 263
#     4  11  22  36  52  69  90 116 149 191 239 290
#     4   9  16  26  42  65  93 123 154 187 223 265
#     4   9  15  22  35  58  88 118 144 171 207 254
#     4  10  20  34  52  71  91 117 149 187 231 280
#
# _framework density 15.028923000000001
#
# number of rings (size 3 to 8) (size 9 to 14) (size 15 to 20)
#    0.000    2.400    1.000    2.300    0.000    5.600 
#    0.000    5.000    0.000    1.200    0.000    0.000 
#    0.000    0.000    0.000    0.000    0.000    0.000 
#
# Total GULP energy -668634.627700 kJ/mol
# GULP energy per Si atom -5571.955231 kJ/mol
# Density = 1.499472 g / cm^3
# Si number density = 15.028923 Si / 1000 Ang^3
#
#
#
# Elastic Constant Matrix: (Units=GPa)
#
#
# Indices 1 2 3 4 5 6 
#
# 1 65.3214 49.0041 33.1288 0.0000 0.0000 0.0000
# 2 49.0041 65.3214 33.1288 0.0000 0.0000 0.0000
# 3 33.1288 33.1288 49.4380 0.0000 0.0000 0.0000
# 4 0.0000 0.0000 0.0000 16.3928 0.0000 0.0000
# 5 0.0000 0.0000 0.0000 0.0000 16.3928 0.0000
# 6 0.0000 0.0000 0.0000 0.0000 0.0000 8.1586
#
#
#
# Elastic Compliance Matrix: (Units=1/GPa)
#
#
# Indices 1 2 3 4 5 6 
#
# 1 0.037793 -0.023492 -0.009583 0.000000 0.000000 0.000000
# 2 -0.023492 0.037793 -0.009583 0.000000 0.000000 0.000000
# 3 -0.009583 -0.009583 0.033071 0.000000 0.000000 0.000000
# 4 0.000000 0.000000 0.000000 0.061002 0.000000 0.000000
# 5 0.000000 0.000000 0.000000 0.000000 0.061002 0.000000
# 6 0.000000 0.000000 0.000000 0.000000 0.000000 0.122569
#
#
# Mechanical properties :
#
#
# Convention : Reuss Voigt Hill
#
# Bulk Modulus (GPa) = 42.84484 45.62271 44.23377
# Shear Modulus (GPa) = 11.20256 12.51013 11.85635
#
# Velocity S-wave (km/s) = 2.73316 2.88827 2.81179
# Velocity P-wave (km/s) = 6.20729 6.44557 6.32755
#
# Compressibility (1/GPa) = 0.02334003
#
# Stress axis : x y z
#
# Youngs Moduli (GPa) = 26.46009 26.46009 30.23814
#
# Poissons Ratio (x) = 0.62160 0.28978
# Poissons Ratio (y) = 0.62160 0.28978
# Poissons Ratio (z) = 0.25357 0.25357
#
# Static dielectric constant tensor:
#      x y z
#    x 1.495800 0.000000 0.000000 
#    y 0.000000 1.495800 0.000000 
#    z 0.000000 0.000000 1.508610 
# 
# From -- ./inp_files/8576.got.cif
#   From: 2010.05.17/outbox.cif.g08.bks.cpg/sg191_5_cif.got.tgz:8576.got - 2010.05.20 12:20:32.
