data_PCOD9587581
_publ_section_title
;
Structure prediction by ZEFSAII (Michael W. Deem and Ramdas Pophale) SiO2 
 PCOD9587581
Probable space group: P 6/M M M
;
_chemical_formula_sum "Si O2"
_cell_formula_units_Z 108
_cell_length_a 21.257124
_cell_length_b 21.257124
_cell_length_c 16.507075
_cell_angle_alpha 90.000000
_cell_angle_beta 90.000000
_cell_angle_gamma 120.000000
_cell_volume 6459.661611
_symmetry_space_group_name_H-M "P 6/M M M"
_symmetry_group_IT_number 191
_symmetry_cell_setting 'hexagonal'
loop_
_space_group_symop_operation_xyz
x,y,z
x-y,x,z
-y,x-y,z
-x,-y,z
-x+y,-x,z
y,-x+y,z
x-y,-y,-z
-x,-x+y,-z
y,x,-z
-y,-x,-z
-x+y,y,-z
x,x-y,-z
-x,-y,-z
-x+y,-x,-z
y,-x+y,-z
x,y,-z
x-y,x,-z
-y,x-y,-z
-x+y,y,z
x,x-y,z
-y,-x,z
y,x,z
x-y,-y,z
-x,-x+y,z
loop_
_atom_site_type_symbol
_atom_site_label
_atom_site_fract_x
_atom_site_fract_y
_atom_site_fract_z
Si Si1 0.477616 0.813232 0.804533
Si Si2 0.921498 0.695496 0.253185
Si Si3 0.437291 0.351709 0.342642
Si Si4 0.609151 0.729120 0.910861
Si Si5 0.483906 0.665609 0.500000
O O1 0.394368 0.788735 0.817350
O O2 0.487476 0.743738 0.785932
O O3 0.509215 0.870801 0.731357
O O4 0.527508 0.853895 0.881893
O O5 0.854304 0.708607 0.256573
O O6 0.912484 0.635710 0.319221
O O7 0.920447 0.659865 0.165697
O O8 0.000000 0.765190 0.263980
O O9 0.412539 0.412539 0.348148
O O10 0.475237 0.343585 0.422400
O O11 0.613489 0.806745 0.916230
O O12 0.626179 0.712071 0.000000
O O13 0.400676 0.599325 0.500000
O O14 0.486729 0.743364 0.500000
#
# Coordination Sequence:
#
# PCOD9587581 Si02
#       5
#    24  24  24  24  12
#     4  10  19  31  47  67  94 126 160 198 242 293
#     4   9  17  31  51  73  97 125 158 195 237 284
#     4  10  21  36  53  71  92 122 159 200 240 276
#     4   8  15  28  44  63  89 121 157 196 233 270
#     4  12  24  37  53  73 100 129 159 195 237 288
#
# _framework density 16.719142000000002
#
# number of rings (size 3 to 8) (size 9 to 14) (size 15 to 20)
#    0.000    2.444    0.000    4.667    0.000    3.111 
#    0.000    2.222    0.000    1.556    0.000    6.222 
#    0.000    0.000    0.000    5.556    0.000   23.111 
#
# Total GULP energy -601537.569997 kJ/mol
# GULP energy per Si atom -5569.792315 kJ/mol
# Density = 1.668109 g / cm^3
# Si number density = 16.719142 Si / 1000 Ang^3
#
#
#
# Elastic Constant Matrix: (Units=GPa)
#
#
# Indices 1 2 3 4 5 6 
#
# 1 90.3121 59.3795 24.9979 0.0000 0.0000 0.0000
# 2 59.3795 90.3121 24.9979 0.0000 0.0000 0.0000
# 3 24.9979 24.9979 71.5737 0.0000 0.0000 0.0000
# 4 0.0000 0.0000 0.0000 -7.0544 0.0000 0.0000
# 5 0.0000 0.0000 0.0000 0.0000 -7.0544 0.0000
# 6 0.0000 0.0000 0.0000 0.0000 0.0000 15.4663
#
#
#
# Elastic Compliance Matrix: (Units=1/GPa)
#
#
# Indices 1 2 3 4 5 6 
#
# 1 0.019946 -0.012383 -0.002641 0.000000 0.000000 0.000000
# 2 -0.012383 0.019946 -0.002641 0.000000 0.000000 0.000000
# 3 -0.002641 -0.002641 0.015817 0.000000 0.000000 0.000000
# 4 0.000000 0.000000 0.000000 -0.141755 0.000000 0.000000
# 5 0.000000 0.000000 0.000000 0.000000 -0.141755 0.000000
# 6 0.000000 0.000000 0.000000 0.000000 0.000000 0.064657
#
#
# Mechanical properties :
#
#
# Convention : Reuss Voigt Hill
#
# Bulk Modulus (GPa) = 49.07604 52.32759 50.70182
# Shear Modulus (GPa) = -41.31439 9.79300 -15.76070
#
# Velocity S-wave (km/s) = -4.97639 2.42282 -3.07363
# Velocity P-wave (km/s) = 1.89799 6.26041 4.21843
#
# Compressibility (1/GPa) = 0.02037654
#
# Stress axis : x y z
#
# Youngs Moduli (GPa) = 50.13662 50.13662 63.22461
#
# Poissons Ratio (x) = 0.62084 0.16700
# Poissons Ratio (y) = 0.62084 0.16700
# Poissons Ratio (z) = 0.13243 0.13243
#
# Static dielectric constant tensor:
#      x y z
#    x 1.569590 0.000000 0.000000 
#    y 0.000000 1.569590 0.000000 
#    z 0.000000 0.000000 1.582030 
# 
# From -- ./inp_files/6061.got.cif
#   From: 2010.05.17/outbox.cif.g08.bks.cpg/sg191_4_cif.got.tgz:6061.got - 2010.05.20 12:20:32.
