data_PCOD9587868
_publ_section_title
;
Structure prediction by ZEFSAII (Michael W. Deem and Ramdas Pophale) SiO2 
 PCOD9587868
Probable space group: P 6/M M M
;
_chemical_formula_sum "Si O2"
_cell_formula_units_Z 132
_cell_length_a 17.902117
_cell_length_b 17.902117
_cell_length_c 29.335976
_cell_angle_alpha 90.000000
_cell_angle_beta 90.000000
_cell_angle_gamma 120.000000
_cell_volume 8142.166061
_symmetry_space_group_name_H-M "P 6/M M M"
_symmetry_group_IT_number 191
_symmetry_cell_setting 'hexagonal'
loop_
_space_group_symop_operation_xyz
x,y,z
x-y,x,z
-y,x-y,z
-x,-y,z
-x+y,-x,z
y,-x+y,z
x-y,-y,-z
-x,-x+y,-z
y,x,-z
-y,-x,-z
-x+y,y,-z
x,x-y,-z
-x,-y,-z
-x+y,-x,-z
y,-x+y,-z
x,y,-z
x-y,x,-z
-y,x-y,-z
-x+y,y,z
x,x-y,z
-y,-x,z
y,x,z
x-y,-y,z
-x,-x+y,z
loop_
_atom_site_type_symbol
_atom_site_label
_atom_site_fract_x
_atom_site_fract_y
_atom_site_fract_z
Si Si1 0.268756 0.369419 0.764694
Si Si2 0.533342 0.897234 0.852742
Si Si3 0.668710 0.160409 0.049184
Si Si4 0.490015 0.332448 0.500000
Si Si5 0.510105 0.842720 0.677480
Si Si6 0.628782 0.727347 0.411299
O O1 0.167445 0.334889 0.758574
O O2 0.298093 0.298093 0.767338
O O3 0.300209 0.427013 0.810520
O O4 0.317431 0.432499 0.722335
O O5 0.430341 0.860681 0.848599
O O6 0.554249 0.875448 0.902745
O O7 0.578301 0.000000 0.850614
O O8 0.572528 0.145055 0.049351
O O9 0.738498 0.261502 0.049586
O O10 0.680471 0.126413 0.000000
O O11 0.573503 0.426498 0.500000
O O12 0.517140 0.258570 0.500000
O O13 0.431381 0.315145 0.455457
O O14 0.426305 0.852609 0.676563
O O15 0.484176 0.742088 0.677709
O O16 0.569769 0.884308 0.633277
O O17 0.656620 0.828310 0.411464
O O18 0.704848 0.704848 0.411538
#
# Coordination Sequence:
#
# PCOD9587868 Si02
#       6
#    24  24  24  12  24  24
#     4  10  20  33  49  68  90 117 149 186 228 272
#     4   9  17  28  42  61  84 110 141 176 215 262
#     4   9  16  25  37  53  75 105 141 178 212 246
#     4  10  20  33  50  73 102 134 165 196 232 277
#     4  10  20  33  50  73 101 131 160 189 222 262
#     4  10  21  35  51  72  97 127 162 201 244 285
#
# _framework density 16.211901999999998
#
# number of rings (size 3 to 8) (size 9 to 14) (size 15 to 20)
#    0.000    2.364    0.000    2.909    0.000    4.727 
#    0.000    3.636    0.000    6.182    0.000    0.000 
#    0.000    6.545    0.000    0.000    0.000    0.727 
#
# Total GULP energy -735495.536885 kJ/mol
# GULP energy per Si atom -5571.935885 kJ/mol
# Density = 1.617500 g / cm^3
# Si number density = 16.211902 Si / 1000 Ang^3
#
#
#
# Elastic Constant Matrix: (Units=GPa)
#
#
# Indices 1 2 3 4 5 6 
#
# 1 75.6605 60.6813 37.8516 0.0000 0.0000 0.0000
# 2 60.6813 75.6605 37.8516 0.0000 0.0000 0.0000
# 3 37.8516 37.8516 147.2635 0.0000 0.0000 0.0000
# 4 0.0000 0.0000 0.0000 2.7915 0.0000 0.0000
# 5 0.0000 0.0000 0.0000 0.0000 2.7915 0.0000
# 6 0.0000 0.0000 0.0000 0.0000 0.0000 7.4896
#
#
#
# Elastic Compliance Matrix: (Units=1/GPa)
#
#
# Indices 1 2 3 4 5 6 
#
# 1 0.037657 -0.029102 -0.002199 0.000000 0.000000 0.000000
# 2 -0.029102 0.037657 -0.002199 0.000000 0.000000 0.000000
# 3 -0.002199 -0.002199 0.007921 0.000000 0.000000 0.000000
# 4 0.000000 0.000000 0.000000 0.358230 0.000000 0.000000
# 5 0.000000 0.000000 0.000000 0.000000 0.358230 0.000000
# 6 0.000000 0.000000 0.000000 0.000000 0.000000 0.133518
#
#
# Mechanical properties :
#
#
# Convention : Reuss Voigt Hill
#
# Bulk Modulus (GPa) = 61.59212 63.48372 62.53792
# Shear Modulus (GPa) = 4.97204 13.42787 9.19995
#
# Velocity S-wave (km/s) = 1.75316 2.88109 2.38477
# Velocity P-wave (km/s) = 6.49403 7.09305 6.80014
#
# Compressibility (1/GPa) = 0.01623584
#
# Stress axis : x y z
#
# Youngs Moduli (GPa) = 26.55533 26.55533 126.24658
#
# Poissons Ratio (x) = 0.77281 0.27762
# Poissons Ratio (y) = 0.77281 0.27762
# Poissons Ratio (z) = 0.05840 0.05840
#
# Static dielectric constant tensor:
#      x y z
#    x 1.534940 0.000000 0.000000 
#    y 0.000000 1.534940 0.000000 
#    z 0.000000 0.000000 1.577590 
# 
# From -- ./inp_files/9704.got.cif
#   From: 2010.05.17/outbox.cif.g08.bks.cpg/sg191_5_cif.got.tgz:9704.got - 2010.05.20 12:20:32.
