data_PCOD9587383
_publ_section_title
;
Structure prediction by ZEFSAII (Michael W. Deem and Ramdas Pophale) SiO2 
 PCOD9587383
Probable space group: P 6/M M M
;
_chemical_formula_sum "Si O2"
_cell_formula_units_Z 132
_cell_length_a 26.451733
_cell_length_b 26.451733
_cell_length_c 14.612952
_cell_angle_alpha 90.000000
_cell_angle_beta 90.000000
_cell_angle_gamma 120.000000
_cell_volume 8854.761133
_symmetry_space_group_name_H-M "P 6/M M M"
_symmetry_group_IT_number 191
_symmetry_cell_setting 'hexagonal'
loop_
_space_group_symop_operation_xyz
x,y,z
x-y,x,z
-y,x-y,z
-x,-y,z
-x+y,-x,z
y,-x+y,z
x-y,-y,-z
-x,-x+y,-z
y,x,-z
-y,-x,-z
-x+y,y,-z
x,x-y,-z
-x,-y,-z
-x+y,-x,-z
y,-x+y,-z
x,y,-z
x-y,x,-z
-y,x-y,-z
-x+y,y,z
x,x-y,z
-y,-x,z
y,x,z
x-y,-y,z
-x,-x+y,z
loop_
_atom_site_type_symbol
_atom_site_label
_atom_site_fract_x
_atom_site_fract_y
_atom_site_fract_z
Si Si1 0.000000 0.174006 0.893898
Si Si2 0.882915 0.882915 0.713916
Si Si3 0.886000 0.652323 0.391778
Si Si4 0.222306 0.222306 0.608303
Si Si5 0.612181 0.931298 0.237222
Si Si6 0.593655 0.522723 0.103677
Si Si7 0.307564 0.095804 0.107439
O O1 0.000000 0.129197 0.822074
O O2 0.055478 0.238252 0.877791
O O3 0.000000 0.158209 0.000000
O O4 0.942345 0.884689 0.688947
O O5 0.828753 0.828753 0.665053
O O6 0.887105 0.641148 0.500000
O O7 0.826361 0.652721 0.372026
O O8 0.895277 0.608739 0.327353
O O9 0.941923 0.716193 0.372112
O O10 0.210885 0.210885 0.500000
O O11 0.552910 0.910360 0.180634
O O12 0.656759 0.924673 0.169503
O O13 0.640413 0.000000 0.259900
O O14 0.544009 0.455992 0.120863
O O15 0.559626 0.559626 0.103261
O O16 0.616872 0.527364 0.000000
O O17 0.324442 0.162221 0.126148
O O18 0.317692 0.089815 0.000000
#
# Coordination Sequence:
#
# PCOD9587383 Si02
#       7
#    12  12  24  12  24  24  24
#     4  10  20  35  49  61  80 110 143 176 220 282
#     4  12  25  38  50  62  76  96 129 179 241 304
#     4  10  20  33  48  67  90 115 149 194 242 291
#     4  10  20  37  55  69  82 105 141 185 239 300
#     4  11  18  27  45  65  87 117 150 185 221 263
#     4   8  15  27  43  65  92 121 152 180 203 234
#     4  10  19  29  42  63  88 111 141 183 231 283
#
# _framework density 14.907235
#
# number of rings (size 3 to 8) (size 9 to 14) (size 15 to 20)
#    0.000    2.000    1.818    3.909    0.000    2.909 
#    0.000    0.000    0.000    1.636    0.000    2.545 
#    0.000    0.000    0.000    4.364    0.000   37.818 
#
# Total GULP energy -736636.927864 kJ/mol
# GULP energy per Si atom -5580.582787 kJ/mol
# Density = 1.487331 g / cm^3
# Si number density = 14.907235 Si / 1000 Ang^3
#
#
#
# Elastic Constant Matrix: (Units=GPa)
#
#
# Indices 1 2 3 4 5 6 
#
# 1 50.5889 29.8884 44.7705 0.0000 0.0000 0.0000
# 2 29.8884 50.5889 44.7705 0.0000 0.0000 0.0000
# 3 44.7705 44.7705 79.1817 0.0000 0.0000 0.0000
# 4 0.0000 0.0000 0.0000 20.7844 0.0000 0.0000
# 5 0.0000 0.0000 0.0000 0.0000 20.7844 0.0000
# 6 0.0000 0.0000 0.0000 0.0000 0.0000 10.3503
#
#
#
# Elastic Compliance Matrix: (Units=1/GPa)
#
#
# Indices 1 2 3 4 5 6 
#
# 1 0.040905 -0.007403 -0.018942 0.000000 0.000000 0.000000
# 2 -0.007403 0.040905 -0.018942 0.000000 0.000000 0.000000
# 3 -0.018942 -0.018942 0.034050 0.000000 0.000000 0.000000
# 4 0.000000 0.000000 0.000000 0.048113 0.000000 0.000000
# 5 0.000000 0.000000 0.000000 0.000000 0.048113 0.000000
# 6 0.000000 0.000000 0.000000 0.000000 0.000000 0.096616
#
#
# Mechanical properties :
#
#
# Convention : Reuss Voigt Hill
#
# Bulk Modulus (GPa) = 39.55130 46.57984 43.06557
# Shear Modulus (GPa) = 12.26379 14.44580 13.35479
#
# Velocity S-wave (km/s) = 2.87134 3.11633 2.99634
# Velocity P-wave (km/s) = 6.13042 6.65304 6.39707
#
# Compressibility (1/GPa) = 0.02528362
#
# Stress axis : x y z
#
# Youngs Moduli (GPa) = 24.44706 24.44706 29.36892
#
# Poissons Ratio (x) = 0.18099 0.55631
# Poissons Ratio (y) = 0.18099 0.55631
# Poissons Ratio (z) = 0.46308 0.46308
#
# Static dielectric constant tensor:
#      x y z
#    x 1.483710 0.000000 0.000000 
#    y 0.000000 1.483710 0.000000 
#    z 0.000000 0.000000 1.530790 
# 
# From -- ./inp_files/5009.got.cif
#   From: 2010.05.17/outbox.cif.g08.bks.cpg/sg191_3_cif.got.tgz:5009.got - 2010.05.20 12:20:32.
