data_PCOD9587772
_publ_section_title
;
Structure prediction by ZEFSAII (Michael W. Deem and Ramdas Pophale) SiO2 
 PCOD9587772
Probable space group: P 6/M M M
;
_chemical_formula_sum "Si O2"
_cell_formula_units_Z 96
_cell_length_a 33.681588
_cell_length_b 33.681588
_cell_length_c 7.798470
_cell_angle_alpha 90.000000
_cell_angle_beta 90.000000
_cell_angle_gamma 120.000000
_cell_volume 7661.700230
_symmetry_space_group_name_H-M "P 6/M M M"
_symmetry_group_IT_number 191
_symmetry_cell_setting 'hexagonal'
loop_
_space_group_symop_operation_xyz
x,y,z
x-y,x,z
-y,x-y,z
-x,-y,z
-x+y,-x,z
y,-x+y,z
x-y,-y,-z
-x,-x+y,-z
y,x,-z
-y,-x,-z
-x+y,y,-z
x,x-y,-z
-x,-y,-z
-x+y,-x,-z
y,-x+y,-z
x,y,-z
x-y,x,-z
-y,x-y,-z
-x+y,y,z
x,x-y,z
-y,-x,z
y,x,z
x-y,-y,z
-x,-x+y,z
loop_
_atom_site_type_symbol
_atom_site_label
_atom_site_fract_x
_atom_site_fract_y
_atom_site_fract_z
Si Si1 0.631373 0.055836 0.197016
Si Si2 0.087589 0.267737 0.693870
Si Si3 0.517676 0.573584 0.500000
Si Si4 0.196922 0.145267 0.000000
Si Si5 0.718783 0.053062 0.792630
O O1 0.605244 0.070311 0.331376
O O2 0.682666 0.069355 0.253903
O O3 0.604041 0.000000 0.195155
O O4 0.631704 0.070385 0.000000
O O5 0.073354 0.250534 0.500000
O O6 0.140171 0.280342 0.715341
O O7 0.059476 0.229054 0.834955
O O8 0.080844 0.311004 0.723134
O O9 0.545381 0.545381 0.500000
O O10 0.464477 0.535524 0.500000
O O11 0.155247 0.155247 0.000000
O O12 0.184769 0.092385 0.000000
O O13 0.696714 0.000000 0.737130
O O14 0.720498 0.053474 0.000000
#
# Coordination Sequence:
#
# PCOD9587772 Si02
#       5
#    24  24  12  12  24
#     4   8  15  25  34  48  68  87 114 150 184 218
#     4  10  20  30  41  60  83 105 127 151 185 229
#     4   9  16  24  34  48  65  88 118 148 184 224
#     4  10  20  34  48  63  84 104 125 151 183 229
#     4   9  16  26  40  56  73  95 124 155 186 221
#
# _framework density 12.529856000000001
#
# number of rings (size 3 to 8) (size 9 to 14) (size 15 to 20)
#    0.000    2.875    1.250    2.250    1.750    2.500 
#    0.000    2.500    0.000    0.125    0.000    0.000 
#    0.000    0.000    0.000    6.250    0.000    0.000 
#
# Total GULP energy -534560.345464 kJ/mol
# GULP energy per Si atom -5568.336932 kJ/mol
# Density = 1.250134 g / cm^3
# Si number density = 12.529856 Si / 1000 Ang^3
#
#
#
# Elastic Constant Matrix: (Units=GPa)
#
#
# Indices 1 2 3 4 5 6 
#
# 1 65.3638 30.0498 36.5561 0.0000 0.0000 0.0000
# 2 30.0498 65.3638 36.5561 0.0000 0.0000 0.0000
# 3 36.5561 36.5561 72.6406 0.0000 0.0000 0.0000
# 4 0.0000 0.0000 0.0000 8.5420 0.0000 0.0000
# 5 0.0000 0.0000 0.0000 0.0000 8.5420 0.0000
# 6 0.0000 0.0000 0.0000 0.0000 0.0000 17.6570
#
#
#
# Elastic Compliance Matrix: (Units=1/GPa)
#
#
# Indices 1 2 3 4 5 6 
#
# 1 0.022688 -0.005629 -0.008585 0.000000 0.000000 0.000000
# 2 -0.005629 0.022688 -0.008585 0.000000 0.000000 0.000000
# 3 -0.008585 -0.008585 0.022407 0.000000 0.000000 0.000000
# 4 0.000000 0.000000 0.000000 0.117068 0.000000 0.000000
# 5 0.000000 0.000000 0.000000 0.000000 0.117068 0.000000
# 6 0.000000 0.000000 0.000000 0.000000 0.000000 0.056635
#
#
# Mechanical properties :
#
#
# Convention : Reuss Voigt Hill
#
# Bulk Modulus (GPa) = 45.07449 45.52136 45.29793
# Shear Modulus (GPa) = 12.14926 13.62861 12.88894
#
# Velocity S-wave (km/s) = 3.11726 3.30159 3.21075
# Velocity P-wave (km/s) = 7.00058 7.13745 7.06935
#
# Compressibility (1/GPa) = 0.02218550
#
# Stress axis : x y z
#
# Youngs Moduli (GPa) = 44.07576 44.07576 44.62890
#
# Poissons Ratio (x) = 0.24811 0.38313
# Poissons Ratio (y) = 0.24811 0.38313
# Poissons Ratio (z) = 0.37838 0.37838
#
# Static dielectric constant tensor:
#      x y z
#    x 1.393870 0.000000 0.000000 
#    y 0.000000 1.393870 0.000000 
#    z 0.000000 0.000000 1.444120 
# 
# From -- ./inp_files/1584.got.cif
#   From: 2010.05.17/outbox.cif.g08.bks.cpg/sg191_1_cif.got.tgz:1584.got - 2010.05.20 12:20:32.
