data_PCOD9587282
_publ_section_title
;
Structure prediction by ZEFSAII (Michael W. Deem and Ramdas Pophale) SiO2 
 PCOD9587282
Probable space group: P 6/M M M
;
_chemical_formula_sum "Si O2"
_cell_formula_units_Z 180
_cell_length_a 27.217306
_cell_length_b 27.217306
_cell_length_c 18.265930
_cell_angle_alpha 90.000000
_cell_angle_beta 90.000000
_cell_angle_gamma 120.000000
_cell_volume 11718.248209
_symmetry_space_group_name_H-M "P 6/M M M"
_symmetry_group_IT_number 191
_symmetry_cell_setting 'hexagonal'
loop_
_space_group_symop_operation_xyz
x,y,z
x-y,x,z
-y,x-y,z
-x,-y,z
-x+y,-x,z
y,-x+y,z
x-y,-y,-z
-x,-x+y,-z
y,x,-z
-y,-x,-z
-x+y,y,-z
x,x-y,-z
-x,-y,-z
-x+y,-x,-z
y,-x+y,-z
x,y,-z
x-y,x,-z
-y,x-y,-z
-x+y,y,z
x,x-y,z
-y,-x,z
y,x,z
x-y,-y,z
-x,-x+y,z
loop_
_atom_site_type_symbol
_atom_site_label
_atom_site_fract_x
_atom_site_fract_y
_atom_site_fract_z
Si Si1 0.936136 0.758084 0.220442
Si Si2 0.781134 0.099775 0.917277
Si Si3 0.666016 0.218291 0.818774
Si Si4 0.666092 0.218614 0.356937
Si Si5 0.726309 0.155516 0.414987
Si Si6 0.755621 0.821549 0.500000
Si Si7 0.717042 0.163736 0.084354
Si Si8 0.066289 0.753079 0.357714
O O1 0.887495 0.774989 0.218054
O O2 0.934158 0.726186 0.145245
O O3 0.921894 0.713267 0.286007
O O4 0.000000 0.808832 0.232775
O O5 0.839610 0.160391 0.919513
O O6 0.732232 0.114863 0.898335
O O7 0.771403 0.076292 0.000000
O O8 0.607568 0.215136 0.840248
O O9 0.719312 0.280689 0.835728
O O10 0.665852 0.211640 0.731059
O O11 0.676796 0.172754 0.860637
O O12 0.606656 0.213311 0.378840
O O13 0.718428 0.281573 0.374216
O O14 0.680840 0.173985 0.393000
O O15 0.719295 0.138379 0.500000
O O16 0.787681 0.212320 0.406641
O O17 0.727124 0.107160 0.366430
O O18 0.804637 0.804637 0.500000
O O19 0.775389 0.887695 0.500000
O O20 0.717084 0.792390 0.571441
O O21 0.777192 0.222809 0.087439
O O22 0.697391 0.156521 0.000000
O O23 0.000000 0.705846 0.356608
#
# Coordination Sequence:
#
# PCOD9587282 Si02
#       8
#    24  24  24  24  24  12  24  24
#     4  10  20  32  49  73 100 128 157 188 222 264
#     4   8  15  28  45  65  91 122 152 185 228 274
#     4   9  16  25  37  55  81 115 153 190 229 275
#     4   9  18  30  44  63  88 120 155 194 238 282
#     4  10  19  30  47  69  91 117 152 193 233 277
#     4  10  18  30  48  69  97 129 157 185 223 269
#     4   8  14  24  37  55  81 113 148 185 226 273
#     4  10  20  32  48  72  99 126 151 185 234 282
#
# _framework density 15.360658000000001
#
# number of rings (size 3 to 8) (size 9 to 14) (size 15 to 20)
#    0.000    2.800    0.667    2.267    1.867    1.867 
#    0.000    0.000    0.000    2.200    0.000    0.933 
#    0.000    3.733    0.000    6.267    0.000    0.533 
#
# Total GULP energy -1002668.594874 kJ/mol
# GULP energy per Si atom -5570.381083 kJ/mol
# Density = 1.532570 g / cm^3
# Si number density = 15.360658 Si / 1000 Ang^3
#
#
#
# Elastic Constant Matrix: (Units=GPa)
#
#
# Indices 1 2 3 4 5 6 
#
# 1 80.6495 43.5496 28.8092 0.0000 0.0000 0.0000
# 2 43.5496 80.6495 28.8092 0.0000 0.0000 0.0000
# 3 28.8092 28.8092 53.9839 0.0000 0.0000 0.0000
# 4 0.0000 0.0000 0.0000 19.5655 0.0000 0.0000
# 5 0.0000 0.0000 0.0000 0.0000 19.5655 0.0000
# 6 0.0000 0.0000 0.0000 0.0000 0.0000 18.5500
#
#
#
# Elastic Compliance Matrix: (Units=1/GPa)
#
#
# Indices 1 2 3 4 5 6 
#
# 1 0.018828 -0.008127 -0.005711 0.000000 0.000000 0.000000
# 2 -0.008127 0.018828 -0.005711 0.000000 0.000000 0.000000
# 3 -0.005711 -0.005711 0.024619 0.000000 0.000000 0.000000
# 4 0.000000 0.000000 0.000000 0.051110 0.000000 0.000000
# 5 0.000000 0.000000 0.000000 0.000000 0.051110 0.000000
# 6 0.000000 0.000000 0.000000 0.000000 0.000000 0.053908
#
#
# Mechanical properties :
#
#
# Convention : Reuss Voigt Hill
#
# Bulk Modulus (GPa) = 43.14382 46.40209 44.77295
# Shear Modulus (GPa) = 18.85190 19.14388 18.99789
#
# Velocity S-wave (km/s) = 3.50706 3.53412 3.52062
# Velocity P-wave (km/s) = 6.67439 6.85035 6.76294
#
# Compressibility (1/GPa) = 0.02317829
#
# Stress axis : x y z
#
# Youngs Moduli (GPa) = 53.11367 53.11367 40.61878
#
# Poissons Ratio (x) = 0.43164 0.23196
# Poissons Ratio (y) = 0.43164 0.23196
# Poissons Ratio (z) = 0.30331 0.30331
#
# Static dielectric constant tensor:
#      x y z
#    x 1.498830 0.000000 0.000000 
#    y 0.000000 1.498830 0.000000 
#    z 0.000000 0.000000 1.526430 
# 
# From -- ./inp_files/6921.got.cif
#   From: 2010.05.17/outbox.cif.g08.bks.cpg/sg191_4_cif.got.tgz:6921.got - 2010.05.20 12:20:32.
