data_PCOD9587463
_publ_section_title
;
Structure prediction by ZEFSAII (Michael W. Deem and Ramdas Pophale) SiO2 
 PCOD9587463
Probable space group: P 6/M M M
;
_chemical_formula_sum "Si O2"
_cell_formula_units_Z 192
_cell_length_a 22.486856
_cell_length_b 22.486856
_cell_length_c 29.037193
_cell_angle_alpha 90.000000
_cell_angle_beta 90.000000
_cell_angle_gamma 120.000000
_cell_volume 12715.772242
_symmetry_space_group_name_H-M "P 6/M M M"
_symmetry_group_IT_number 191
_symmetry_cell_setting 'hexagonal'
loop_
_space_group_symop_operation_xyz
x,y,z
x-y,x,z
-y,x-y,z
-x,-y,z
-x+y,-x,z
y,-x+y,z
x-y,-y,-z
-x,-x+y,-z
y,x,-z
-y,-x,-z
-x+y,y,-z
x,x-y,-z
-x,-y,-z
-x+y,-x,-z
y,-x+y,-z
x,y,-z
x-y,x,-z
-y,x-y,-z
-x+y,y,z
x,x-y,z
-y,-x,z
y,x,z
x-y,-y,z
-x,-x+y,z
loop_
_atom_site_type_symbol
_atom_site_label
_atom_site_fract_x
_atom_site_fract_y
_atom_site_fract_z
Si Si1 0.667113 0.194123 0.554117
Si Si2 0.704810 0.784103 0.771187
Si Si3 0.468159 0.078195 0.122203
Si Si4 0.525399 0.192720 0.196995
Si Si5 0.921807 0.712234 0.121479
Si Si6 0.080147 0.469317 0.370086
Si Si7 0.565340 0.851700 0.713964
Si Si8 0.858740 0.275922 0.053807
O O1 0.668771 0.178871 0.500000
O O2 0.605787 0.211574 0.559770
O O3 0.739651 0.260350 0.566457
O O4 0.647344 0.129023 0.586223
O O5 0.727976 0.863988 0.762950
O O6 0.760583 0.760583 0.762184
O O7 0.686801 0.771486 0.825679
O O8 0.637215 0.739865 0.740626
O O9 0.537041 0.074081 0.122892
O O10 0.477274 0.130681 0.162773
O O11 0.463369 0.112805 0.075150
O O12 0.405489 0.000000 0.127439
O O13 0.601801 0.203602 0.194428
O O14 0.524545 0.262273 0.185089
O O15 0.494402 0.170845 0.248032
O O16 0.871247 0.742494 0.117347
O O17 0.895880 0.650626 0.085341
O O18 0.000000 0.766333 0.112842
O O19 0.085740 0.542870 0.359826
O O20 0.108255 0.445553 0.327345
O O21 0.000000 0.416462 0.378941
O O22 0.563973 0.781987 0.698298
O O23 0.777305 0.222696 0.059313
O O24 0.874874 0.277556 0.000000
#
# Coordination Sequence:
#
# PCOD9587463 Si02
#       8
#    24  24  24  24  24  24  24  24
#     4   9  17  30  48  67  86 111 146 187 227 264
#     4   9  17  29  46  66  88 116 147 179 215 258
#     4  10  21  34  48  68  91 115 143 174 212 261
#     4  10  20  34  51  69  90 117 150 186 223 264
#     4   9  17  29  45  65  87 110 137 168 203 243
#     4  10  20  31  43  62  89 119 148 179 219 266
#     4  10  19  30  45  65  89 116 148 185 222 260
#     4  10  20  33  49  67  86 109 138 173 212 252
#
# _framework density 15.099359
#
# number of rings (size 3 to 8) (size 9 to 14) (size 15 to 20)
#    0.000    2.375    0.000    2.875    0.000    6.000 
#    0.000    3.125    0.000    4.500    0.000    1.750 
#    0.000    0.000    0.000    3.125    0.000    3.250 
#
# Total GULP energy -1070269.766153 kJ/mol
# GULP energy per Si atom -5574.321699 kJ/mol
# Density = 1.506499 g / cm^3
# Si number density = 15.099359 Si / 1000 Ang^3
#
#
#
# Elastic Constant Matrix: (Units=GPa)
#
#
# Indices 1 2 3 4 5 6 
#
# 1 88.7415 51.5607 47.0707 0.0000 0.0000 0.0000
# 2 51.5607 88.7415 47.0707 0.0000 0.0000 0.0000
# 3 47.0707 47.0707 76.1317 0.0000 0.0000 0.0000
# 4 0.0000 0.0000 0.0000 17.3545 0.0000 0.0000
# 5 0.0000 0.0000 0.0000 0.0000 17.3545 0.0000
# 6 0.0000 0.0000 0.0000 0.0000 0.0000 18.5904
#
#
#
# Elastic Compliance Matrix: (Units=1/GPa)
#
#
# Indices 1 2 3 4 5 6 
#
# 1 0.019538 -0.007357 -0.007531 0.000000 0.000000 0.000000
# 2 -0.007357 0.019538 -0.007531 0.000000 0.000000 0.000000
# 3 -0.007531 -0.007531 0.022448 0.000000 0.000000 0.000000
# 4 0.000000 0.000000 0.000000 0.057622 0.000000 0.000000
# 5 0.000000 0.000000 0.000000 0.000000 0.057622 0.000000
# 6 0.000000 0.000000 0.000000 0.000000 0.000000 0.053791
#
#
# Mechanical properties :
#
#
# Convention : Reuss Voigt Hill
#
# Bulk Modulus (GPa) = 59.93454 60.55763 60.24609
# Shear Modulus (GPa) = 17.79612 17.85406 17.82509
#
# Velocity S-wave (km/s) = 3.43680 3.44239 3.43960
# Velocity P-wave (km/s) = 7.45174 7.48286 7.46732
#
# Compressibility (1/GPa) = 0.01668487
#
# Stress axis : x y z
#
# Youngs Moduli (GPa) = 51.18175 51.18175 44.54777
#
# Poissons Ratio (x) = 0.37657 0.33549
# Poissons Ratio (y) = 0.37657 0.33549
# Poissons Ratio (z) = 0.38546 0.38546
#
# Static dielectric constant tensor:
#      x y z
#    x 1.503270 0.000000 0.000000 
#    y 0.000000 1.503270 0.000000 
#    z 0.000000 0.000000 1.487580 
# 
# From -- ./inp_files/9340.got.cif
#   From: 2010.05.17/outbox.cif.g08.bks.cpg/sg191_5_cif.got.tgz:9340.got - 2010.05.20 12:20:32.
