data_PCOD9587256
_publ_section_title
;
Structure prediction by ZEFSAII (Michael W. Deem and Ramdas Pophale) SiO2 
 PCOD9587256
Probable space group: P 6/M M M
;
_chemical_formula_sum "Si O2"
_cell_formula_units_Z 192
_cell_length_a 31.759398
_cell_length_b 31.759398
_cell_length_c 14.425648
_cell_angle_alpha 90.000000
_cell_angle_beta 90.000000
_cell_angle_gamma 120.000000
_cell_volume 12601.158841
_symmetry_space_group_name_H-M "P 6/M M M"
_symmetry_group_IT_number 191
_symmetry_cell_setting 'hexagonal'
loop_
_space_group_symop_operation_xyz
x,y,z
x-y,x,z
-y,x-y,z
-x,-y,z
-x+y,-x,z
y,-x+y,z
x-y,-y,-z
-x,-x+y,-z
y,x,-z
-y,-x,-z
-x+y,y,-z
x,x-y,-z
-x,-y,-z
-x+y,-x,-z
y,-x+y,-z
x,y,-z
x-y,x,-z
-y,x-y,-z
-x+y,y,z
x,x-y,z
-y,-x,z
y,x,z
x-y,-y,z
-x,-x+y,z
loop_
_atom_site_type_symbol
_atom_site_label
_atom_site_fract_x
_atom_site_fract_y
_atom_site_fract_z
Si Si1 0.620859 0.151080 0.108430
Si Si2 0.865440 0.235057 0.245679
Si Si3 0.544856 0.357336 0.605368
Si Si4 0.056664 0.706243 0.392920
Si Si5 0.052291 0.457372 0.812464
Si Si6 0.364429 0.056254 0.889429
Si Si7 0.539700 0.925050 0.396946
Si Si8 0.711550 0.515031 0.760266
O O1 0.586515 0.173029 0.133365
O O2 0.592853 0.095065 0.136784
O O3 0.669136 0.172268 0.166607
O O4 0.630224 0.156546 0.000000
O O5 0.821335 0.178666 0.239616
O O6 0.904323 0.250387 0.329264
O O7 0.900830 0.258774 0.156168
O O8 0.838164 0.266303 0.262272
O O9 0.549912 0.344575 0.500000
O O10 0.596548 0.403453 0.633969
O O11 0.504271 0.374018 0.605102
O O12 0.520463 0.311604 0.672785
O O13 0.059853 0.721390 0.500000
O O14 0.069427 0.662625 0.392076
O O15 0.000000 0.682009 0.362691
O O16 0.058394 0.410687 0.837138
O O17 0.054060 0.464841 0.701388
O O18 0.000000 0.444138 0.847926
O O19 0.320970 0.000000 0.876956
O O20 0.373886 0.063801 0.000000
O O21 0.536947 0.944218 0.500000
O O22 0.755196 0.510392 0.801203
#
# Coordination Sequence:
#
# PCOD9587256 Si02
#       8
#    24  24  24  24  24  24  24  24
#     4  11  23  39  57  74  95 122 154 192 233 280
#     4  11  21  32  48  72 100 125 155 200 244 282
#     4  10  19  33  54  75  98 125 151 184 228 283
#     4  10  18  30  49  69  96 135 168 195 234 284
#     4  11  20  32  51  74 102 131 160 190 222 271
#     4  10  19  32  50  69  95 132 166 196 236 286
#     4  10  18  29  48  74  99 126 157 189 222 264
#     4  11  22  35  53  75  97 120 148 185 237 290
#
# _framework density 15.236694
#
# number of rings (size 3 to 8) (size 9 to 14) (size 15 to 20)
#    0.000    1.500    5.000    1.500    0.000    2.750 
#    0.000    3.125    0.000    3.125    0.000    8.750 
#    0.000    0.000    0.000    0.000    0.000    0.000 
#
# Total GULP energy -1069935.931886 kJ/mol
# GULP energy per Si atom -5572.582979 kJ/mol
# Density = 1.520201 g / cm^3
# Si number density = 15.236694 Si / 1000 Ang^3
#
#
#
# Elastic Constant Matrix: (Units=GPa)
#
#
# Indices 1 2 3 4 5 6 
#
# 1 58.3270 31.1394 14.5223 0.0000 0.0000 0.0000
# 2 31.1394 58.3270 14.5223 0.0000 0.0000 0.0000
# 3 14.5223 14.5223 62.6824 0.0000 0.0000 0.0000
# 4 0.0000 0.0000 0.0000 7.1506 0.0000 0.0000
# 5 0.0000 0.0000 0.0000 0.0000 7.1506 0.0000
# 6 0.0000 0.0000 0.0000 0.0000 0.0000 13.5938
#
#
#
# Elastic Compliance Matrix: (Units=1/GPa)
#
#
# Indices 1 2 3 4 5 6 
#
# 1 0.024434 -0.012347 -0.002800 0.000000 0.000000 0.000000
# 2 -0.012347 0.024434 -0.002800 0.000000 0.000000 0.000000
# 3 -0.002800 -0.002800 0.017251 0.000000 0.000000 0.000000
# 4 0.000000 0.000000 0.000000 0.139848 0.000000 0.000000
# 5 0.000000 0.000000 0.000000 0.000000 0.139848 0.000000
# 6 0.000000 0.000000 0.000000 0.000000 0.000000 0.073563
#
#
# Mechanical properties :
#
#
# Convention : Reuss Voigt Hill
#
# Bulk Modulus (GPa) = 33.08731 33.30047 33.19389
# Shear Modulus (GPa) = 10.74467 13.52253 12.13360
#
# Velocity S-wave (km/s) = 2.65841 2.98232 2.82501
# Velocity P-wave (km/s) = 5.58440 5.81050 5.69857
#
# Compressibility (1/GPa) = 0.03022307
#
# Stress axis : x y z
#
# Youngs Moduli (GPa) = 40.92670 40.92670 57.96791
#
# Poissons Ratio (x) = 0.50534 0.16232
# Poissons Ratio (y) = 0.50534 0.16232
# Poissons Ratio (z) = 0.11460 0.11460
#
# Static dielectric constant tensor:
#      x y z
#    x 1.586560 0.000000 0.000000 
#    y 0.000000 1.586560 0.000000 
#    z 0.000000 0.000000 1.546390 
# 
# From -- ./inp_files/5558.got.cif
#   From: 2010.05.17/outbox.cif.g08.bks.cpg/sg191_3_cif.got.tgz:5558.got - 2010.05.20 12:20:32.
