data_PCOD9587186
_publ_section_title
;
Structure prediction by ZEFSAII (Michael W. Deem and Ramdas Pophale) SiO2 
 PCOD9587186
Probable space group: P 6/M M M
;
_chemical_formula_sum "Si O2"
_cell_formula_units_Z 192
_cell_length_a 23.967594
_cell_length_b 23.967594
_cell_length_c 21.773143
_cell_angle_alpha 90.000000
_cell_angle_beta 90.000000
_cell_angle_gamma 120.000000
_cell_volume 10831.800068
_symmetry_space_group_name_H-M "P 6/M M M"
_symmetry_group_IT_number 191
_symmetry_cell_setting 'hexagonal'
loop_
_space_group_symop_operation_xyz
x,y,z
x-y,x,z
-y,x-y,z
-x,-y,z
-x+y,-x,z
y,-x+y,z
x-y,-y,-z
-x,-x+y,-z
y,x,-z
-y,-x,-z
-x+y,y,-z
x,x-y,-z
-x,-y,-z
-x+y,-x,-z
y,-x+y,-z
x,y,-z
x-y,x,-z
-y,x-y,-z
-x+y,y,z
x,x-y,z
-y,-x,z
y,x,z
x-y,-y,z
-x,-x+y,z
loop_
_atom_site_type_symbol
_atom_site_label
_atom_site_fract_x
_atom_site_fract_y
_atom_site_fract_z
Si Si1 0.201149 0.665547 0.627848
Si Si2 0.334734 0.789762 0.905488
Si Si3 0.868608 0.263243 0.931918
Si Si4 0.073630 0.276531 0.590667
Si Si5 0.191048 0.262932 0.737640
Si Si6 0.503187 0.189353 0.768528
Si Si7 0.924906 0.335094 0.427761
Si Si8 0.302003 0.375949 0.197940
O O1 0.204652 0.602326 0.606877
O O2 0.266170 0.733831 0.610900
O O3 0.199062 0.663956 0.702463
O O4 0.134813 0.662637 0.604937
O O5 0.404968 0.809936 0.927935
O O6 0.282597 0.717404 0.923699
O O7 0.306685 0.834436 0.927481
O O8 0.335662 0.791756 0.830930
O O9 0.810003 0.189998 0.923881
O O10 0.915176 0.284913 0.873959
O O11 0.896485 0.269917 0.000000
O O12 0.134384 0.268767 0.569488
O O13 0.072022 0.269152 0.664314
O O14 0.084835 0.347828 0.577437
O O15 0.000000 0.225900 0.569405
O O16 0.118478 0.236956 0.755777
O O17 0.218224 0.218224 0.759873
O O18 0.236542 0.332688 0.765434
O O19 0.472812 0.236406 0.769098
O O20 0.448072 0.116826 0.779094
O O21 0.922727 0.348486 0.500000
O O22 0.000000 0.383487 0.406339
O O23 0.348789 0.348789 0.211801
#
# Coordination Sequence:
#
# PCOD9587186 Si02
#       8
#    24  24  24  24  24  24  24  24
#     4  11  23  38  57  80 106 135 166 203 249 303
#     4   9  16  27  45  67  88 110 139 178 221 263
#     4   9  18  31  44  59  84 119 153 184 225 279
#     4   9  17  30  50  76 105 135 168 208 252 297
#     4   9  16  26  43  68  95 121 150 187 231 274
#     4   9  18  32  49  70  96 123 150 182 226 281
#     4  10  22  39  57  77 101 132 172 214 254 296
#     4  10  18  28  46  69  91 116 150 194 239 282
#
# _framework density 17.725584999999999
#
# number of rings (size 3 to 8) (size 9 to 14) (size 15 to 20)
#    0.000    2.500    0.000    3.625    0.000    5.500 
#    0.000    1.875    0.000   10.750    0.000    5.250 
#    0.000    0.000    0.000    3.125    0.000    3.250 
#
# Total GULP energy -1069247.388070 kJ/mol
# GULP energy per Si atom -5568.996813 kJ/mol
# Density = 1.768524 g / cm^3
# Si number density = 17.725585 Si / 1000 Ang^3
#
#
#
# Elastic Constant Matrix: (Units=GPa)
#
#
# Indices 1 2 3 4 5 6 
#
# 1 80.7831 53.9617 17.5200 0.0000 0.0000 0.0000
# 2 53.9617 80.7831 17.5200 0.0000 0.0000 0.0000
# 3 17.5200 17.5200 42.3808 0.0000 0.0000 0.0000
# 4 0.0000 0.0000 0.0000 -4.2096 0.0000 0.0000
# 5 0.0000 0.0000 0.0000 0.0000 -4.2096 0.0000
# 6 0.0000 0.0000 0.0000 0.0000 0.0000 13.4107
#
#
#
# Elastic Compliance Matrix: (Units=1/GPa)
#
#
# Indices 1 2 3 4 5 6 
#
# 1 0.022800 -0.014484 -0.003438 0.000000 0.000000 0.000000
# 2 -0.014484 0.022800 -0.003438 0.000000 0.000000 0.000000
# 3 -0.003438 -0.003438 0.026438 0.000000 0.000000 0.000000
# 4 0.000000 0.000000 0.000000 -0.237555 0.000000 0.000000
# 5 0.000000 0.000000 0.000000 0.000000 -0.237555 0.000000
# 6 0.000000 0.000000 0.000000 0.000000 0.000000 0.074567
#
#
# Mechanical properties :
#
#
# Convention : Reuss Voigt Hill
#
# Bulk Modulus (GPa) = 34.10836 42.43893 38.27364
# Shear Modulus (GPa) = -18.11500 8.66134 -4.72683
#
# Velocity S-wave (km/s) = -3.20029 2.21291 -1.63477
# Velocity P-wave (km/s) = 2.37242 5.52480 4.25158
#
# Compressibility (1/GPa) = 0.02931832
#
# Stress axis : x y z
#
# Youngs Moduli (GPa) = 43.86055 43.86055 37.82480
#
# Poissons Ratio (x) = 0.63528 0.13002
# Poissons Ratio (y) = 0.63528 0.13002
# Poissons Ratio (z) = 0.15077 0.15077
#
# Static dielectric constant tensor:
#      x y z
#    x 1.611010 0.000000 0.000000 
#    y 0.000000 1.611010 0.000000 
#    z 0.000000 0.000000 1.633360 
# 
# From -- ./inp_files/8130.got.cif
#   From: 2010.05.17/outbox.cif.g08.bks.cpg/sg191_5_cif.got.tgz:8130.got - 2010.05.20 12:20:32.
