data_PCOD9587563
_publ_section_title
;
Structure prediction by ZEFSAII (Michael W. Deem and Ramdas Pophale) SiO2 
 PCOD9587563
Probable space group: P 6/M M M
;
_chemical_formula_sum "Si O2"
_cell_formula_units_Z 96
_cell_length_a 23.487349
_cell_length_b 23.487349
_cell_length_c 12.319812
_cell_angle_alpha 90.000000
_cell_angle_beta 90.000000
_cell_angle_gamma 120.000000
_cell_volume 5885.762238
_symmetry_space_group_name_H-M "P 6/M M M"
_symmetry_group_IT_number 191
_symmetry_cell_setting 'hexagonal'
loop_
_space_group_symop_operation_xyz
x,y,z
x-y,x,z
-y,x-y,z
-x,-y,z
-x+y,-x,z
y,-x+y,z
x-y,-y,-z
-x,-x+y,-z
y,x,-z
-y,-x,-z
-x+y,y,-z
x,x-y,-z
-x,-y,-z
-x+y,-x,-z
y,-x+y,-z
x,y,-z
x-y,x,-z
-y,x-y,-z
-x+y,y,z
x,x-y,z
-y,-x,z
y,x,z
x-y,-y,z
-x,-x+y,z
loop_
_atom_site_type_symbol
_atom_site_label
_atom_site_fract_x
_atom_site_fract_y
_atom_site_fract_z
Si Si1 0.634027 0.139003 0.773160
Si Si2 0.928441 0.395872 0.000000
Si Si3 0.075148 0.282640 0.500000
Si Si4 0.736991 0.263010 0.873799
Si Si5 0.361418 0.077596 0.286177
Si Si6 0.633195 0.816598 0.124352
O O1 0.559448 0.118895 0.743496
O O2 0.673581 0.215776 0.803084
O O3 0.672195 0.113007 0.698644
O O4 0.635389 0.107825 0.889736
O O5 0.933382 0.466691 0.000000
O O6 0.000000 0.405279 0.000000
O O7 0.131762 0.263523 0.500000
O O8 0.083108 0.326523 0.605615
O O9 0.000000 0.222879 0.500000
O O10 0.776793 0.223208 0.879334
O O11 0.724984 0.275017 0.000000
O O12 0.348238 0.117532 0.191847
O O13 0.330852 0.000000 0.261981
O O14 0.656836 0.828418 0.000000
#
# Coordination Sequence:
#
# PCOD9587563 Si02
#       6
#    24  12  12  12  24  12
#     4  10  19  31  45  65  96 129 168 220 271 316
#     4   9  16  25  40  62  90 125 159 199 259 325
#     4  10  20  38  61  84 107 137 175 207 241 289
#     4   9  16  28  43  59  89 131 172 209 261 324
#     4  10  20  33  53  77 102 136 174 212 255 305
#     4   9  18  31  47  73 107 138 163 202 253 309
#
# _framework density 16.310547
#
# number of rings (size 3 to 8) (size 9 to 14) (size 15 to 20)
#    0.000    2.375    2.500    0.750    1.750    2.000 
#    0.750    0.625    0.000    2.375    0.000    0.000 
#    0.000    0.000    0.000    0.000    0.000   11.375 
#
# Total GULP energy -534456.771880 kJ/mol
# GULP energy per Si atom -5567.258040 kJ/mol
# Density = 1.627342 g / cm^3
# Si number density = 16.310547 Si / 1000 Ang^3
#
#
#
# Elastic Constant Matrix: (Units=GPa)
#
#
# Indices 1 2 3 4 5 6 
#
# 1 91.7086 53.8390 30.5074 0.0000 0.0000 0.0000
# 2 53.8390 91.7086 30.5074 0.0000 0.0000 0.0000
# 3 30.5074 30.5074 64.9969 0.0000 0.0000 0.0000
# 4 0.0000 0.0000 0.0000 36.6156 0.0000 0.0000
# 5 0.0000 0.0000 0.0000 0.0000 36.6156 0.0000
# 6 0.0000 0.0000 0.0000 0.0000 0.0000 18.9348
#
#
#
# Elastic Compliance Matrix: (Units=1/GPa)
#
#
# Indices 1 2 3 4 5 6 
#
# 1 0.017480 -0.008926 -0.004015 0.000000 0.000000 0.000000
# 2 -0.008926 0.017480 -0.004015 0.000000 0.000000 0.000000
# 3 -0.004015 -0.004015 0.019154 0.000000 0.000000 0.000000
# 4 0.000000 0.000000 0.000000 0.027311 0.000000 0.000000
# 5 0.000000 0.000000 0.000000 0.000000 0.027311 0.000000
# 6 0.000000 0.000000 0.000000 0.000000 0.000000 0.052813
#
#
# Mechanical properties :
#
#
# Convention : Reuss Voigt Hill
#
# Bulk Modulus (GPa) = 49.49942 53.12465 51.31203
# Shear Modulus (GPa) = 24.72867 27.33724 26.03296
#
# Velocity S-wave (km/s) = 3.89796 4.09840 3.99943
# Velocity P-wave (km/s) = 7.11848 7.41871 7.27014
#
# Compressibility (1/GPa) = 0.02020226
#
# Stress axis : x y z
#
# Youngs Moduli (GPa) = 57.20820 57.20820 52.20793
#
# Poissons Ratio (x) = 0.51066 0.20960
# Poissons Ratio (y) = 0.51066 0.20960
# Poissons Ratio (z) = 0.22968 0.22968
#
# Static dielectric constant tensor:
#      x y z
#    x 1.594340 0.000000 0.000000 
#    y 0.000000 1.594340 0.000000 
#    z 0.000000 0.000000 1.559970 
# 
# From -- ./inp_files/2853.got.cif
#   From: 2010.05.17/outbox.cif.g08.bks.cpg/sg191_2_cif.got.tgz:2853.got - 2010.05.20 12:20:32.
