data_PCOD9587063
_publ_section_title
;
Structure prediction by ZEFSAII (Michael W. Deem and Ramdas Pophale) SiO2 
 PCOD9587063
Probable space group: P 6/M M M
;
_chemical_formula_sum "Si O2"
_cell_formula_units_Z 132
_cell_length_a 20.664281
_cell_length_b 20.664281
_cell_length_c 29.271309
_cell_angle_alpha 90.000000
_cell_angle_beta 90.000000
_cell_angle_gamma 120.000000
_cell_volume 10824.637808
_symmetry_space_group_name_H-M "P 6/M M M"
_symmetry_group_IT_number 191
_symmetry_cell_setting 'hexagonal'
loop_
_space_group_symop_operation_xyz
x,y,z
x-y,x,z
-y,x-y,z
-x,-y,z
-x+y,-x,z
y,-x+y,z
x-y,-y,-z
-x,-x+y,-z
y,x,-z
-y,-x,-z
-x+y,y,-z
x,x-y,-z
-x,-y,-z
-x+y,-x,-z
y,-x+y,-z
x,y,-z
x-y,x,-z
-y,x-y,-z
-x+y,y,z
x,x-y,z
-y,-x,z
y,x,z
x-y,-y,z
-x,-x+y,z
loop_
_atom_site_type_symbol
_atom_site_label
_atom_site_fract_x
_atom_site_fract_y
_atom_site_fract_z
Si Si1 0.464554 0.086346 0.551239
Si Si2 0.621286 0.535745 0.729213
Si Si3 0.667868 0.179179 0.639691
Si Si4 0.378652 0.914268 0.090367
Si Si5 0.667415 0.178259 0.000000
Si Si6 0.332546 0.821623 0.819348
O O1 0.455228 0.108851 0.500000
O O2 0.543368 0.086736 0.551324
O O3 0.470994 0.139370 0.592497
O O4 0.402002 0.000000 0.558963
O O5 0.541356 0.458645 0.729400
O O6 0.601662 0.601662 0.730831
O O7 0.660730 0.533135 0.682716
O O8 0.663262 0.530441 0.773815
O O9 0.593019 0.186037 0.639692
O O10 0.740233 0.259768 0.643931
O O11 0.458683 0.917365 0.090329
O O12 0.337684 0.868717 0.045046
O O13 0.338153 0.869665 0.136036
O O14 0.398349 0.000000 0.090083
O O15 0.741594 0.258406 0.000000
O O16 0.593807 0.187614 0.000000
O O17 0.406266 0.812532 0.819426
O O18 0.258572 0.741429 0.820163
#
# Coordination Sequence:
#
# PCOD9587063 Si02
#       6
#    24  24  24  24  12  24
#     4   8  14  25  39  51  63  84 115 145 171 205
#     4   9  17  28  40  51  64  87 118 146 172 208
#     4  10  18  26  36  51  71  91 111 140 182 225
#     4   9  17  28  40  52  68  93 122 147 173 211
#     4  10  18  27  39  55  74  93 116 150 193 230
#     4  10  18  27  39  55  74  92 112 143 186 227
#
# _framework density 12.194402999999999
#
# number of rings (size 3 to 8) (size 9 to 14) (size 15 to 20)
#    0.000    2.727    0.000    3.455    0.000    5.818 
#    0.000    3.636    0.000    1.091    0.000    0.000 
#    0.000    0.000    0.000    0.000    0.000    0.000 
#
# Total GULP energy -735104.327969 kJ/mol
# GULP energy per Si atom -5568.972182 kJ/mol
# Density = 1.216665 g / cm^3
# Si number density = 12.194403 Si / 1000 Ang^3
#
#
#
# Elastic Constant Matrix: (Units=GPa)
#
#
# Indices 1 2 3 4 5 6 
#
# 1 57.3918 31.3459 47.6912 0.0000 0.0000 0.0000
# 2 31.3459 57.3918 47.6912 0.0000 0.0000 0.0000
# 3 47.6912 47.6912 127.8030 0.0000 0.0000 0.0000
# 4 0.0000 0.0000 0.0000 11.3171 0.0000 0.0000
# 5 0.0000 0.0000 0.0000 0.0000 11.3171 0.0000
# 6 0.0000 0.0000 0.0000 0.0000 0.0000 13.0229
#
#
#
# Elastic Compliance Matrix: (Units=1/GPa)
#
#
# Indices 1 2 3 4 5 6 
#
# 1 0.028605 -0.009789 -0.007022 0.000000 0.000000 0.000000
# 2 -0.009789 0.028605 -0.007022 0.000000 0.000000 0.000000
# 3 -0.007022 -0.007022 0.013065 0.000000 0.000000 0.000000
# 4 0.000000 0.000000 0.000000 0.088362 0.000000 0.000000
# 5 0.000000 0.000000 0.000000 0.000000 0.088362 0.000000
# 6 0.000000 0.000000 0.000000 0.000000 0.000000 0.076788
#
#
# Mechanical properties :
#
#
# Convention : Reuss Voigt Hill
#
# Bulk Modulus (GPa) = 44.22510 55.11589 49.67050
# Shear Modulus (GPa) = 13.19303 14.85530 14.02416
#
# Velocity S-wave (km/s) = 3.29278 3.49407 3.39492
# Velocity P-wave (km/s) = 7.12755 7.84690 7.49586
#
# Compressibility (1/GPa) = 0.02261159
#
# Stress axis : x y z
#
# Youngs Moduli (GPa) = 34.95870 34.95870 76.54066
#
# Poissons Ratio (x) = 0.34220 0.53744
# Poissons Ratio (y) = 0.34220 0.53744
# Poissons Ratio (z) = 0.24547 0.24547
#
# Static dielectric constant tensor:
#      x y z
#    x 1.371910 0.000000 0.000000 
#    y 0.000000 1.371910 0.000000 
#    z 0.000000 0.000000 1.417320 
# 
# From -- ./inp_files/10539.got.cif
#   From: 2010.05.17/outbox.cif.g08.bks.cpg/sg191_6_cif.got.tgz:10539.got - 2010.05.20 12:20:32.
