data_PCOD9587786
_publ_section_title
;
Structure prediction by ZEFSAII (Michael W. Deem and Ramdas Pophale) SiO2 
 PCOD9587786
Probable space group: P 6/M M M
;
_chemical_formula_sum "Si O2"
_cell_formula_units_Z 144
_cell_length_a 33.114133
_cell_length_b 33.114133
_cell_length_c 9.177470
_cell_angle_alpha 90.000000
_cell_angle_beta 90.000000
_cell_angle_gamma 120.000000
_cell_volume 8715.260700
_symmetry_space_group_name_H-M "P 6/M M M"
_symmetry_group_IT_number 191
_symmetry_cell_setting 'hexagonal'
loop_
_space_group_symop_operation_xyz
x,y,z
x-y,x,z
-y,x-y,z
-x,-y,z
-x+y,-x,z
y,-x+y,z
x-y,-y,-z
-x,-x+y,-z
y,x,-z
-y,-x,-z
-x+y,y,-z
x,x-y,-z
-x,-y,-z
-x+y,-x,-z
y,-x+y,-z
x,y,-z
x-y,x,-z
-y,x-y,-z
-x+y,y,z
x,x-y,z
-y,-x,z
y,x,z
x-y,-y,z
-x,-x+y,z
loop_
_atom_site_type_symbol
_atom_site_label
_atom_site_fract_x
_atom_site_fract_y
_atom_site_fract_z
Si Si1 0.522848 0.807933 0.674709
Si Si2 0.556930 0.946493 0.673895
Si Si3 0.946741 0.144460 0.675170
Si Si4 0.280848 0.899491 0.327492
Si Si5 0.228623 0.944995 0.172594
Si Si6 0.617221 0.141624 0.826149
O O1 0.517232 0.809864 0.500000
O O2 0.514974 0.757487 0.713296
O O3 0.576076 0.847970 0.707310
O O4 0.489507 0.822726 0.755347
O O5 0.547309 0.940640 0.500000
O O6 0.597416 0.933493 0.700211
O O7 0.511905 0.908934 0.759994
O O8 0.575577 0.000000 0.712819
O O9 0.945562 0.149090 0.500000
O O10 0.907917 0.092084 0.714611
O O11 0.934713 0.181010 0.749764
O O12 0.000000 0.160476 0.716035
O O13 0.272691 0.901495 0.500000
O O14 0.249888 0.914980 0.238038
O O15 0.264796 0.000000 0.199210
O O16 0.221543 0.937968 0.000000
O O17 0.576571 0.153143 0.792484
O O18 0.621820 0.140612 0.000000
#
# Coordination Sequence:
#
# PCOD9587786 Si02
#       6
#    24  24  24  24  24  24
#     4   9  19  36  56  76  97 124 161 203 244 288
#     4   9  18  32  50  72  98 132 174 213 244 277
#     4   9  18  33  52  71  91 119 155 193 235 285
#     4   9  17  30  48  70  98 131 166 202 239 279
#     4  10  20  31  44  67  99 132 166 202 236 271
#     4  10  21  35  51  74 103 132 161 196 243 297
#
# _framework density 16.522741
#
# number of rings (size 3 to 8) (size 9 to 14) (size 15 to 20)
#    0.000    2.667    0.000    2.500    0.000    7.667 
#    0.000    3.333    0.000    0.500    0.000    1.167 
#    0.000    0.000    0.000    4.167    0.000    4.333 
#
# Total GULP energy -803139.119897 kJ/mol
# GULP energy per Si atom -5577.354999 kJ/mol
# Density = 1.648513 g / cm^3
# Si number density = 16.522741 Si / 1000 Ang^3
#
#
#
# Elastic Constant Matrix: (Units=GPa)
#
#
# Indices 1 2 3 4 5 6 
#
# 1 109.5785 94.8934 55.2291 0.0000 0.0000 0.0000
# 2 94.8934 109.5785 55.2291 0.0000 0.0000 0.0000
# 3 55.2291 55.2291 38.8389 0.0000 0.0000 0.0000
# 4 0.0000 0.0000 0.0000 11.2932 0.0000 0.0000
# 5 0.0000 0.0000 0.0000 0.0000 11.2932 0.0000
# 6 0.0000 0.0000 0.0000 0.0000 0.0000 7.3425
#
#
#
# Elastic Compliance Matrix: (Units=1/GPa)
#
#
# Indices 1 2 3 4 5 6 
#
# 1 0.044597 -0.023500 -0.030000 0.000000 0.000000 0.000000
# 2 -0.023500 0.044597 -0.030000 0.000000 0.000000 0.000000
# 3 -0.030000 -0.030000 0.111068 0.000000 0.000000 0.000000
# 4 0.000000 0.000000 0.000000 0.088549 0.000000 0.000000
# 5 0.000000 0.000000 0.000000 0.000000 0.088549 0.000000
# 6 0.000000 0.000000 0.000000 0.000000 0.000000 0.136193
#
#
# Mechanical properties :
#
#
# Convention : Reuss Voigt Hill
#
# Bulk Modulus (GPa) = 30.06465 74.29991 52.18228
# Shear Modulus (GPa) = 7.22919 9.49538 8.36229
#
# Velocity S-wave (km/s) = 2.09399 2.39986 2.25212
# Velocity P-wave (km/s) = 4.90732 7.26258 6.19786
#
# Compressibility (1/GPa) = 0.03326166
#
# Stress axis : x y z
#
# Youngs Moduli (GPa) = 22.42316 22.42316 9.00347
#
# Poissons Ratio (x) = 0.52694 0.27011
# Poissons Ratio (y) = 0.52694 0.27011
# Poissons Ratio (z) = 0.67270 0.67270
#
# Static dielectric constant tensor:
#      x y z
#    x 1.542620 0.000000 0.000000 
#    y 0.000000 1.542620 0.000000 
#    z 0.000000 0.000000 1.545430 
# 
# From -- ./inp_files/1983.got.cif
#   From: 2010.05.17/outbox.cif.g08.bks.cpg/sg191_1_cif.got.tgz:1983.got - 2010.05.20 12:20:32.
