data_PCOD9587599
_publ_section_title
;
Structure prediction by ZEFSAII (Michael W. Deem and Ramdas Pophale) SiO2 
 PCOD9587599
Probable space group: P 6/M M M
;
_chemical_formula_sum "Si O2"
_cell_formula_units_Z 168
_cell_length_a 29.369140
_cell_length_b 29.369140
_cell_length_c 14.434581
_cell_angle_alpha 90.000000
_cell_angle_beta 90.000000
_cell_angle_gamma 120.000000
_cell_volume 10782.445523
_symmetry_space_group_name_H-M "P 6/M M M"
_symmetry_group_IT_number 191
_symmetry_cell_setting 'hexagonal'
loop_
_space_group_symop_operation_xyz
x,y,z
x-y,x,z
-y,x-y,z
-x,-y,z
-x+y,-x,z
y,-x+y,z
x-y,-y,-z
-x,-x+y,-z
y,x,-z
-y,-x,-z
-x+y,y,-z
x,x-y,-z
-x,-y,-z
-x+y,-x,-z
y,-x+y,-z
x,y,-z
x-y,x,-z
-y,x-y,-z
-x+y,y,z
x,x-y,z
-y,-x,z
y,x,z
x-y,-y,z
-x,-x+y,z
loop_
_atom_site_type_symbol
_atom_site_label
_atom_site_fract_x
_atom_site_fract_y
_atom_site_fract_z
Si Si1 0.059826 0.221343 0.891182
Si Si2 0.062705 0.389005 0.110495
Si Si3 0.669863 0.887962 0.782120
Si Si4 0.284666 0.346914 0.393202
Si Si5 0.527563 0.887422 0.392666
Si Si6 0.438084 0.771078 0.387944
Si Si7 0.063030 0.580757 0.210396
O O1 0.100050 0.200099 0.877870
O O2 0.080624 0.273378 0.830519
O O3 0.000000 0.180323 0.869287
O O4 0.062706 0.236113 0.000000
O O5 0.096936 0.367586 0.160268
O O6 0.078749 0.446222 0.150798
O O7 0.000000 0.350373 0.131026
O O8 0.068578 0.390315 0.000000
O O9 0.653626 0.826813 0.782479
O O10 0.672103 0.909859 0.679311
O O11 0.267473 0.334162 0.500000
O O12 0.320981 0.320981 0.371650
O O13 0.319519 0.410171 0.385926
O O14 0.516251 0.894658 0.500000
O O15 0.491243 0.825726 0.369251
O O16 0.514772 0.918288 0.315759
O O17 0.434338 0.767109 0.500000
O O18 0.386603 0.773205 0.355535
O O19 0.438802 0.719401 0.353877
O O20 0.081697 0.540849 0.175161
O O21 0.000000 0.549101 0.208831
#
# Coordination Sequence:
#
# PCOD9587599 Si02
#       7
#    24  24  24  24  24  24  24
#     4   9  17  29  47  72 100 129 162 201 242 282
#     4  10  20  35  54  72  94 126 162 202 249 300
#     4  11  21  32  50  74 100 129 162 201 245 290
#     4  10  20  34  52  71  96 132 169 201 237 288
#     4  10  19  31  48  69  95 124 158 199 242 286
#     4   9  17  29  45  64  88 120 157 196 237 282
#     4  10  20  33  49  70  96 124 159 204 249 294
#
# _framework density 15.580881
#
# number of rings (size 3 to 8) (size 9 to 14) (size 15 to 20)
#    0.000    2.143    1.429    2.714    0.000    5.429 
#    0.000    3.571    0.000    0.143    0.000    1.000 
#    0.000    0.000    0.000    0.000    0.000    1.857 
#
# Total GULP energy -936431.665049 kJ/mol
# GULP energy per Si atom -5573.998006 kJ/mol
# Density = 1.554542 g / cm^3
# Si number density = 15.580881 Si / 1000 Ang^3
#
#
#
# Elastic Constant Matrix: (Units=GPa)
#
#
# Indices 1 2 3 4 5 6 
#
# 1 100.3481 64.1679 45.0411 0.0000 0.0000 0.0000
# 2 64.1679 100.3481 45.0411 0.0000 0.0000 0.0000
# 3 45.0411 45.0411 69.9105 0.0000 0.0000 0.0000
# 4 0.0000 0.0000 0.0000 15.3056 0.0000 0.0000
# 5 0.0000 0.0000 0.0000 0.0000 15.3056 0.0000
# 6 0.0000 0.0000 0.0000 0.0000 0.0000 18.0901
#
#
#
# Elastic Compliance Matrix: (Units=1/GPa)
#
#
# Indices 1 2 3 4 5 6 
#
# 1 0.018515 -0.009124 -0.006051 0.000000 0.000000 0.000000
# 2 -0.009124 0.018515 -0.006051 0.000000 0.000000 0.000000
# 3 -0.006051 -0.006051 0.022101 0.000000 0.000000 0.000000
# 4 0.000000 0.000000 0.000000 0.065335 0.000000 0.000000
# 5 0.000000 0.000000 0.000000 0.000000 0.065335 0.000000
# 6 0.000000 0.000000 0.000000 0.000000 0.000000 0.055279
#
#
# Mechanical properties :
#
#
# Convention : Reuss Voigt Hill
#
# Bulk Modulus (GPa) = 59.94874 64.34518 62.14696
# Shear Modulus (GPa) = 17.05950 17.49739 17.27844
#
# Velocity S-wave (km/s) = 3.31252 3.35476 3.33370
# Velocity P-wave (km/s) = 7.29313 7.50953 7.40212
#
# Compressibility (1/GPa) = 0.01668092
#
# Stress axis : x y z
#
# Youngs Moduli (GPa) = 54.00890 54.00890 45.24783
#
# Poissons Ratio (x) = 0.49277 0.27378
# Poissons Ratio (y) = 0.49277 0.27378
# Poissons Ratio (z) = 0.32679 0.32679
#
# Static dielectric constant tensor:
#      x y z
#    x 1.521520 0.000000 0.000000 
#    y 0.000000 1.521520 0.000000 
#    z 0.000000 0.000000 1.519620 
# 
# From -- ./inp_files/5470.got.cif
#   From: 2010.05.17/outbox.cif.g08.bks.cpg/sg191_3_cif.got.tgz:5470.got - 2010.05.20 12:20:32.
