data_PCOD9587223
_publ_section_title
;
Structure prediction by ZEFSAII (Michael W. Deem and Ramdas Pophale) SiO2 
 PCOD9587223
Probable space group: P 6/M M M
;
_chemical_formula_sum "Si O2"
_cell_formula_units_Z 144
_cell_length_a 21.898945
_cell_length_b 21.898945
_cell_length_c 23.599365
_cell_angle_alpha 90.000000
_cell_angle_beta 90.000000
_cell_angle_gamma 120.000000
_cell_volume 9801.156746
_symmetry_space_group_name_H-M "P 6/M M M"
_symmetry_group_IT_number 191
_symmetry_cell_setting 'hexagonal'
loop_
_space_group_symop_operation_xyz
x,y,z
x-y,x,z
-y,x-y,z
-x,-y,z
-x+y,-x,z
y,-x+y,z
x-y,-y,-z
-x,-x+y,-z
y,x,-z
-y,-x,-z
-x+y,y,-z
x,x-y,-z
-x,-y,-z
-x+y,-x,-z
y,-x+y,-z
x,y,-z
x-y,x,-z
-y,x-y,-z
-x+y,y,z
x,x-y,z
-y,-x,z
y,x,z
x-y,-y,z
-x,-x+y,z
loop_
_atom_site_type_symbol
_atom_site_label
_atom_site_fract_x
_atom_site_fract_y
_atom_site_fract_z
Si Si1 0.220049 0.919615 0.774727
Si Si2 0.085708 0.418249 0.435247
Si Si3 0.333092 0.811623 0.066419
Si Si4 0.456884 0.913767 0.374512
Si Si5 0.430458 0.346694 0.836674
Si Si6 0.457340 0.914679 0.755438
Si Si7 0.081397 0.299824 0.359517
O O1 0.140494 0.859506 0.787161
O O2 0.274950 0.906234 0.809840
O O3 0.232619 0.915600 0.707421
O O4 0.239758 0.000000 0.785976
O O5 0.110189 0.424623 0.500000
O O6 0.108913 0.493233 0.406856
O O7 0.103563 0.369220 0.396583
O O8 0.000000 0.377303 0.436432
O O9 0.403291 0.806582 0.076146
O O10 0.263518 0.736483 0.077232
O O11 0.334717 0.870343 0.107609
O O12 0.332511 0.828921 0.000000
O O13 0.444887 0.889774 0.309283
O O14 0.500000 0.000000 0.374274
O O15 0.396558 0.396558 0.847940
O O16 0.492519 0.387190 0.790613
O O17 0.500000 0.000000 0.752716
O O18 0.136662 0.273324 0.369654
O O19 0.000000 0.243901 0.372831
#
# Coordination Sequence:
#
# PCOD9587223 Si02
#       7
#    24  24  24  12  24  12  24
#     4   9  17  29  46  66  89 116 147 183 224 271
#     4   9  16  25  38  58  84 112 140 172 212 259
#     4  10  20  33  47  62  84 116 153 189 222 257
#     4   9  15  24  39  59  86 113 135 163 207 261
#     4  10  18  29  45  67  91 114 143 180 223 268
#     4   9  16  25  39  61  87 112 139 173 213 259
#     4   9  17  29  44  63  88 117 148 184 226 270
#
# _framework density 14.692143
#
# number of rings (size 3 to 8) (size 9 to 14) (size 15 to 20)
#    0.000    2.667    0.833    1.917    0.000    6.333 
#    0.000    0.833    0.000    0.333    0.000    2.333 
#    0.833    0.000    0.500    4.167    0.000    4.333 
#
# Total GULP energy -802078.016896 kJ/mol
# GULP energy per Si atom -5569.986228 kJ/mol
# Density = 1.465870 g / cm^3
# Si number density = 14.692143 Si / 1000 Ang^3
#
#
#
# Elastic Constant Matrix: (Units=GPa)
#
#
# Indices 1 2 3 4 5 6 
#
# 1 86.5613 59.0055 54.4105 0.0000 0.0000 0.0000
# 2 59.0055 86.5613 54.4105 0.0000 0.0000 0.0000
# 3 54.4105 54.4105 80.4755 0.0000 0.0000 0.0000
# 4 0.0000 0.0000 0.0000 16.7239 0.0000 0.0000
# 5 0.0000 0.0000 0.0000 0.0000 16.7239 0.0000
# 6 0.0000 0.0000 0.0000 0.0000 0.0000 13.7779
#
#
#
# Elastic Compliance Matrix: (Units=1/GPa)
#
#
# Indices 1 2 3 4 5 6 
#
# 1 0.025090 -0.011200 -0.009392 0.000000 0.000000 0.000000
# 2 -0.011200 0.025090 -0.009392 0.000000 0.000000 0.000000
# 3 -0.009392 -0.009392 0.025126 0.000000 0.000000 0.000000
# 4 0.000000 0.000000 0.000000 0.059795 0.000000 0.000000
# 5 0.000000 0.000000 0.000000 0.000000 0.059795 0.000000
# 6 0.000000 0.000000 0.000000 0.000000 0.000000 0.072580
#
#
# Mechanical properties :
#
#
# Convention : Reuss Voigt Hill
#
# Bulk Modulus (GPa) = 65.18711 65.47235 65.32973
# Shear Modulus (GPa) = 15.03511 15.16323 15.09917
#
# Velocity S-wave (km/s) = 3.20244 3.21606 3.20926
# Velocity P-wave (km/s) = 7.62491 7.64528 7.63510
#
# Compressibility (1/GPa) = 0.01534046
#
# Stress axis : x y z
#
# Youngs Moduli (GPa) = 39.85609 39.85609 39.80003
#
# Poissons Ratio (x) = 0.44638 0.37378
# Poissons Ratio (y) = 0.44638 0.37378
# Poissons Ratio (z) = 0.37431 0.37431
#
# Static dielectric constant tensor:
#      x y z
#    x 1.474020 0.000000 0.000000 
#    y 0.000000 1.474020 0.000000 
#    z 0.000000 0.000000 1.482900 
# 
# From -- ./inp_files/8939.got.cif
#   From: 2010.05.17/outbox.cif.g08.bks.cpg/sg191_5_cif.got.tgz:8939.got - 2010.05.20 12:20:32.
