data_PCOD9587879
_publ_section_title
;
Structure prediction by ZEFSAII (Michael W. Deem and Ramdas Pophale) SiO2 
 PCOD9587879
Probable space group: P 6/M M M
;
_chemical_formula_sum "Si O2"
_cell_formula_units_Z 108
_cell_length_a 17.906680
_cell_length_b 17.906680
_cell_length_c 23.511175
_cell_angle_alpha 90.000000
_cell_angle_beta 90.000000
_cell_angle_gamma 120.000000
_cell_volume 6528.826251
_symmetry_space_group_name_H-M "P 6/M M M"
_symmetry_group_IT_number 191
_symmetry_cell_setting 'hexagonal'
loop_
_space_group_symop_operation_xyz
x,y,z
x-y,x,z
-y,x-y,z
-x,-y,z
-x+y,-x,z
y,-x+y,z
x-y,-y,-z
-x,-x+y,-z
y,x,-z
-y,-x,-z
-x+y,y,-z
x,x-y,-z
-x,-y,-z
-x+y,-x,-z
y,-x+y,-z
x,y,-z
x-y,x,-z
-y,x-y,-z
-x+y,y,z
x,x-y,z
-y,-x,z
y,x,z
x-y,-y,z
-x,-x+y,z
loop_
_atom_site_type_symbol
_atom_site_label
_atom_site_fract_x
_atom_site_fract_y
_atom_site_fract_z
Si Si1 0.842901 0.332641 0.500000
Si Si2 0.508779 0.666542 0.065346
Si Si3 0.098795 0.732668 0.830594
Si Si4 0.899378 0.629051 0.610044
Si Si5 0.532304 0.636418 0.722060
O O1 0.742489 0.257512 0.500000
O O2 0.852677 0.426339 0.500000
O O3 0.885128 0.316214 0.444468
O O4 0.484693 0.742347 0.069271
O O5 0.425535 0.574466 0.077400
O O6 0.582936 0.690548 0.111167
O O7 0.535844 0.666053 0.000000
O O8 0.166113 0.833888 0.832576
O O9 0.126903 0.692042 0.779201
O O10 0.000000 0.705682 0.821275
O O11 0.831328 0.662656 0.605201
O O12 0.875131 0.569182 0.666006
O O13 0.000000 0.701153 0.613743
O O14 0.430437 0.569564 0.720561
O O15 0.578929 0.578929 0.722672
#
# Coordination Sequence:
#
# PCOD9587879 Si02
#       5
#    12  24  24  24  24
#     4  10  20  33  50  73 100 128 157 192 236 285
#     4   9  17  29  46  69  97 127 156 186 223 270
#     4  10  20  33  49  69  93 122 157 197 239 280
#     4  10  20  33  50  72  97 127 163 202 242 282
#     4   9  17  30  49  72  96 121 150 184 223 272
#
# _framework density 16.542024000000001
#
# number of rings (size 3 to 8) (size 9 to 14) (size 15 to 20)
#    0.000    2.444    0.000    2.667    0.000    4.444 
#    0.000    1.111    0.000    6.667    0.000    0.000 
#    0.000    8.000    0.000    5.556    0.000    0.889 
#
# Total GULP energy -602218.674003 kJ/mol
# GULP energy per Si atom -5576.098833 kJ/mol
# Density = 1.650437 g / cm^3
# Si number density = 16.542024 Si / 1000 Ang^3
#
#
#
# Elastic Constant Matrix: (Units=GPa)
#
#
# Indices 1 2 3 4 5 6 
#
# 1 83.8932 64.9242 36.3226 0.0000 0.0000 0.0000
# 2 64.9242 83.8932 36.3226 0.0000 0.0000 0.0000
# 3 36.3226 36.3226 95.1452 0.0000 0.0000 0.0000
# 4 0.0000 0.0000 0.0000 19.1777 0.0000 0.0000
# 5 0.0000 0.0000 0.0000 0.0000 19.1777 0.0000
# 6 0.0000 0.0000 0.0000 0.0000 0.0000 9.4845
#
#
#
# Elastic Compliance Matrix: (Units=1/GPa)
#
#
# Indices 1 2 3 4 5 6 
#
# 1 0.030488 -0.022229 -0.003153 0.000000 0.000000 0.000000
# 2 -0.022229 0.030488 -0.003153 0.000000 0.000000 0.000000
# 3 -0.003153 -0.003153 0.012918 0.000000 0.000000 0.000000
# 4 0.000000 0.000000 0.000000 0.052144 0.000000 0.000000
# 5 0.000000 0.000000 0.000000 0.000000 0.052144 0.000000
# 6 0.000000 0.000000 0.000000 0.000000 0.000000 0.105435
#
#
# Mechanical properties :
#
#
# Convention : Reuss Voigt Hill
#
# Bulk Modulus (GPa) = 59.44049 59.78562 59.61306
# Shear Modulus (GPa) = 14.43858 17.92547 16.18203
#
# Velocity S-wave (km/s) = 2.95760 3.29543 3.13107
# Velocity P-wave (km/s) = 6.90465 7.12039 7.01335
#
# Compressibility (1/GPa) = 0.01682355
#
# Stress axis : x y z
#
# Youngs Moduli (GPa) = 32.79968 32.79968 77.41425
#
# Poissons Ratio (x) = 0.72912 0.24408
# Poissons Ratio (y) = 0.72912 0.24408
# Poissons Ratio (z) = 0.10341 0.10341
#
# Static dielectric constant tensor:
#      x y z
#    x 1.549130 0.000000 0.000000 
#    y 0.000000 1.549130 0.000000 
#    z 0.000000 0.000000 1.565550 
# 
# From -- ./inp_files/7283.got.cif
#   From: 2010.05.17/outbox.cif.g08.bks.cpg/sg191_4_cif.got.tgz:7283.got - 2010.05.20 12:20:32.
