data_PCOD9587327
_publ_section_title
;
Structure prediction by ZEFSAII (Michael W. Deem and Ramdas Pophale) SiO2 
 PCOD9587327
Probable space group: P 6/M M M
;
_chemical_formula_sum "Si O2"
_cell_formula_units_Z 108
_cell_length_a 18.023166
_cell_length_b 18.023166
_cell_length_c 21.317931
_cell_angle_alpha 90.000000
_cell_angle_beta 90.000000
_cell_angle_gamma 120.000000
_cell_volume 5997.052480
_symmetry_space_group_name_H-M "P 6/M M M"
_symmetry_group_IT_number 191
_symmetry_cell_setting 'hexagonal'
loop_
_space_group_symop_operation_xyz
x,y,z
x-y,x,z
-y,x-y,z
-x,-y,z
-x+y,-x,z
y,-x+y,z
x-y,-y,-z
-x,-x+y,-z
y,x,-z
-y,-x,-z
-x+y,y,-z
x,x-y,-z
-x,-y,-z
-x+y,-x,-z
y,-x+y,-z
x,y,-z
x-y,x,-z
-y,x-y,-z
-x+y,y,z
x,x-y,z
-y,-x,z
y,x,z
x-y,-y,z
-x,-x+y,z
loop_
_atom_site_type_symbol
_atom_site_label
_atom_site_fract_x
_atom_site_fract_y
_atom_site_fract_z
Si Si1 0.205910 0.102955 0.431246
Si Si2 0.790699 0.895349 0.710990
Si Si3 0.201812 0.100906 0.925817
Si Si4 0.825753 0.651505 0.175725
Si Si5 0.333319 0.494661 0.647889
Si Si6 0.409170 0.409170 0.571243
Si Si7 0.469184 0.366687 0.207990
O O1 0.146930 0.146930 0.431446
O O2 0.252488 0.126244 0.500000
O O3 0.246014 0.123007 0.360853
O O4 0.848842 0.848842 0.718656
O O5 0.713671 0.856836 0.762253
O O6 0.146100 0.146100 0.912121
O O7 0.285082 0.142541 0.882902
O O8 0.221927 0.110964 0.000000
O O9 0.865191 0.588791 0.175057
O O10 0.245782 0.491563 0.637052
O O11 0.412360 0.587641 0.630641
O O12 0.341917 0.425243 0.607563
O O13 0.344717 0.480539 0.720732
O O14 0.500000 0.500000 0.573597
O O15 0.385374 0.385374 0.500000
O O16 0.564717 0.435284 0.183654
O O17 0.416910 0.416910 0.209330
#
# Coordination Sequence:
#
# PCOD9587327 Si02
#       7
#    12  12  12  12  24  12  24
#     4   8  13  22  38  62  96 140 186 228 273 330
#     4  10  19  30  48  78 114 154 192 241 293 350
#     4  10  21  38  62  94 134 176 212 241 275 326
#     4  12  22  36  57  88 114 154 195 247 292 340
#     4  10  18  31  50  76 103 135 174 224 281 343
#     4   9  18  32  50  70 100 140 178 220 283 358
#     4  10  20  35  54  79 110 144 180 229 290 349
#
# _framework density 18.008848
#
# number of rings (size 3 to 8) (size 9 to 14) (size 15 to 20)
#    0.000    2.111    2.222    2.556    0.000    2.222 
#    0.667    1.111    0.000    3.333    0.000    3.111 
#    0.000    0.000    0.000    0.333    0.000    1.444 
#
# Total GULP energy -602466.922903 kJ/mol
# GULP energy per Si atom -5578.397434 kJ/mol
# Density = 1.796786 g / cm^3
# Si number density = 18.008848 Si / 1000 Ang^3
#
#
#
# Elastic Constant Matrix: (Units=GPa)
#
#
# Indices 1 2 3 4 5 6 
#
# 1 131.9926 67.6557 52.1401 0.0000 0.0000 0.0000
# 2 67.6557 131.9926 52.1401 0.0000 0.0000 0.0000
# 3 52.1401 52.1401 58.4545 0.0000 0.0000 0.0000
# 4 0.0000 0.0000 0.0000 -92.0662 0.0000 0.0000
# 5 0.0000 0.0000 0.0000 0.0000 -92.0662 0.0000
# 6 0.0000 0.0000 0.0000 0.0000 0.0000 32.1684
#
#
#
# Elastic Compliance Matrix: (Units=1/GPa)
#
#
# Indices 1 2 3 4 5 6 
#
# 1 0.012461 -0.003083 -0.008365 0.000000 0.000000 0.000000
# 2 -0.003083 0.012461 -0.008365 0.000000 0.000000 0.000000
# 3 -0.008365 -0.008365 0.032030 0.000000 0.000000 0.000000
# 4 0.000000 0.000000 0.000000 -0.010862 0.000000 0.000000
# 5 0.000000 0.000000 0.000000 0.000000 -0.010862 0.000000
# 6 0.000000 0.000000 0.000000 0.000000 0.000000 0.031086
#
#
# Mechanical properties :
#
#
# Convention : Reuss Voigt Hill
#
# Bulk Modulus (GPa) = 57.71610 74.03462 65.87536
# Shear Modulus (GPa) = 44.75694 -20.35920 12.19887
#
# Velocity S-wave (km/s) = 4.99066 -3.36596 2.60548
# Velocity P-wave (km/s) = 8.08253 5.10815 6.76093
#
# Compressibility (1/GPa) = 0.01732619
#
# Stress axis : x y z
#
# Youngs Moduli (GPa) = 80.25305 80.25305 31.22067
#
# Poissons Ratio (x) = 0.24739 0.26116
# Poissons Ratio (y) = 0.24739 0.26116
# Poissons Ratio (z) = 0.67131 0.67131
#
# Static dielectric constant tensor:
#      x y z
#    x 1.618870 0.000000 0.000000 
#    y 0.000000 1.618870 0.000000 
#    z 0.000000 0.000000 1.613540 
# 
# From -- ./inp_files/7418.got.cif
#   From: 2010.05.17/outbox.cif.g08.bks.cpg/sg191_4_cif.got.tgz:7418.got - 2010.05.20 12:20:32.
