data_PCOD9587619
_publ_section_title
;
Structure prediction by ZEFSAII (Michael W. Deem and Ramdas Pophale) SiO2 
 PCOD9587619
Probable space group: P 6/M M M
;
_chemical_formula_sum "Si O2"
_cell_formula_units_Z 108
_cell_length_a 20.014156
_cell_length_b 20.014156
_cell_length_c 18.612372
_cell_angle_alpha 90.000000
_cell_angle_beta 90.000000
_cell_angle_gamma 120.000000
_cell_volume 6456.645123
_symmetry_space_group_name_H-M "P 6/M M M"
_symmetry_group_IT_number 191
_symmetry_cell_setting 'hexagonal'
loop_
_space_group_symop_operation_xyz
x,y,z
x-y,x,z
-y,x-y,z
-x,-y,z
-x+y,-x,z
y,-x+y,z
x-y,-y,-z
-x,-x+y,-z
y,x,-z
-y,-x,-z
-x+y,y,-z
x,x-y,-z
-x,-y,-z
-x+y,-x,-z
y,-x+y,-z
x,y,-z
x-y,x,-z
-y,x-y,-z
-x+y,y,z
x,x-y,z
-y,-x,z
y,x,z
x-y,-y,z
-x,-x+y,z
loop_
_atom_site_type_symbol
_atom_site_label
_atom_site_fract_x
_atom_site_fract_y
_atom_site_fract_z
Si Si1 0.819492 0.180509 0.084503
Si Si2 0.091012 0.545506 0.258644
Si Si3 0.909357 0.818713 0.870281
Si Si4 0.150177 0.575089 0.581081
Si Si5 0.312483 0.907765 0.806072
Si Si6 0.175097 0.350194 0.696382
Si Si7 0.517601 0.758801 0.420722
Si Si8 0.910833 0.821665 0.695719
O O1 0.865718 0.134283 0.100410
O O2 0.866006 0.263831 0.123007
O O3 0.813297 0.186704 0.000000
O O4 0.102202 0.551101 0.344927
O O5 0.120115 0.628758 0.222100
O O6 0.000000 0.500000 0.245575
O O7 0.865278 0.865278 0.891261
O O8 0.906982 0.813964 0.783145
O O9 0.113362 0.556681 0.500000
O O10 0.202416 0.535290 0.585139
O O11 0.246439 0.883829 0.745867
O O12 0.359257 0.000000 0.815166
O O13 0.208166 0.416332 0.637673
O O14 0.132239 0.264479 0.666028
O O15 0.553236 0.776618 0.500000
O O16 0.868106 0.868106 0.675552
#
# Coordination Sequence:
#
# PCOD9587619 Si02
#       8
#    12  12  12  12  24  12  12  12
#     4  11  23  37  56  78 103 139 182 232 287 339
#     4  10  20  34  54  77 105 142 179 215 263 321
#     4  10  19  31  48  75 109 144 178 218 275 343
#     4  10  19  33  51  78 114 148 179 215 264 325
#     4  10  20  35  54  79 106 136 180 227 272 329
#     4  11  18  30  56  80 109 145 184 231 275 314
#     4  10  20  33  51  80 117 153 186 220 267 328
#     4  10  19  32  52  79 110 144 185 232 283 332
#
# _framework density 16.726953000000002
#
# number of rings (size 3 to 8) (size 9 to 14) (size 15 to 20)
#    0.000    1.778    4.444    1.778    0.000    3.778 
#    0.000    0.556    0.000    5.778    0.000    0.000 
#    0.000    0.889    0.000    0.000    0.000    0.000 
#
# Total GULP energy -602105.195213 kJ/mol
# GULP energy per Si atom -5575.048104 kJ/mol
# Density = 1.668888 g / cm^3
# Si number density = 16.726953 Si / 1000 Ang^3
#
#
#
# Elastic Constant Matrix: (Units=GPa)
#
#
# Indices 1 2 3 4 5 6 
#
# 1 98.6725 43.3798 39.7638 0.0000 0.0000 0.0000
# 2 43.3798 98.6725 39.7638 0.0000 0.0000 0.0000
# 3 39.7638 39.7638 94.4254 0.0000 0.0000 0.0000
# 4 0.0000 0.0000 0.0000 16.0957 0.0000 0.0000
# 5 0.0000 0.0000 0.0000 0.0000 16.0957 0.0000
# 6 0.0000 0.0000 0.0000 0.0000 0.0000 27.6463
#
#
#
# Elastic Compliance Matrix: (Units=1/GPa)
#
#
# Indices 1 2 3 4 5 6 
#
# 1 0.013648 -0.004437 -0.003879 0.000000 0.000000 0.000000
# 2 -0.004437 0.013648 -0.003879 0.000000 0.000000 0.000000
# 3 -0.003879 -0.003879 0.013857 0.000000 0.000000 0.000000
# 4 0.000000 0.000000 0.000000 0.062128 0.000000 0.000000
# 5 0.000000 0.000000 0.000000 0.000000 0.062128 0.000000
# 6 0.000000 0.000000 0.000000 0.000000 0.000000 0.036171
#
#
# Mechanical properties :
#
#
# Convention : Reuss Voigt Hill
#
# Bulk Modulus (GPa) = 59.65171 59.73166 59.69168
# Shear Modulus (GPa) = 21.59264 23.22509 22.40887
#
# Velocity S-wave (km/s) = 3.59679 3.73028 3.66414
# Velocity P-wave (km/s) = 7.27933 7.37161 7.32562
#
# Compressibility (1/GPa) = 0.01676398
#
# Stress axis : x y z
#
# Youngs Moduli (GPa) = 73.26844 73.26844 72.16378
#
# Poissons Ratio (x) = 0.32510 0.27992
# Poissons Ratio (y) = 0.32510 0.27992
# Poissons Ratio (z) = 0.28421 0.28421
#
# Static dielectric constant tensor:
#      x y z
#    x 1.559880 0.000000 0.000000 
#    y 0.000000 1.559880 0.000000 
#    z 0.000000 0.000000 1.560200 
# 
# From -- ./inp_files/6232.got.cif
#   From: 2010.05.17/outbox.cif.g08.bks.cpg/sg191_4_cif.got.tgz:6232.got - 2010.05.20 12:20:32.
