data_PCOD9587416
_publ_section_title
;
Structure prediction by ZEFSAII (Michael W. Deem and Ramdas Pophale) SiO2 
 PCOD9587416
Probable space group: P 6/M M M
;
_chemical_formula_sum "Si O2"
_cell_formula_units_Z 132
_cell_length_a 18.149133
_cell_length_b 18.149133
_cell_length_c 30.663858
_cell_angle_alpha 90.000000
_cell_angle_beta 90.000000
_cell_angle_gamma 120.000000
_cell_volume 8747.202754
_symmetry_space_group_name_H-M "P 6/M M M"
_symmetry_group_IT_number 191
_symmetry_cell_setting 'hexagonal'
loop_
_space_group_symop_operation_xyz
x,y,z
x-y,x,z
-y,x-y,z
-x,-y,z
-x+y,-x,z
y,-x+y,z
x-y,-y,-z
-x,-x+y,-z
y,x,-z
-y,-x,-z
-x+y,y,-z
x,x-y,-z
-x,-y,-z
-x+y,-x,-z
y,-x+y,-z
x,y,-z
x-y,x,-z
-y,x-y,-z
-x+y,y,z
x,x-y,z
-y,-x,z
y,x,z
x-y,-y,z
-x,-x+y,z
loop_
_atom_site_type_symbol
_atom_site_label
_atom_site_fract_x
_atom_site_fract_y
_atom_site_fract_z
Si Si1 0.898126 0.533355 0.281242
Si Si2 0.489639 0.332174 0.111866
Si Si3 0.589086 0.000000 0.049625
Si Si4 0.268753 0.898987 0.803972
Si Si5 0.358490 0.263678 0.549330
Si Si6 0.504553 0.668122 0.376772
O O1 0.868455 0.434228 0.272431
O O2 0.880017 0.577920 0.241132
O O3 0.861310 0.539520 0.327651
O O4 0.000000 0.581723 0.285733
O O5 0.498895 0.249448 0.102714
O O6 0.581956 0.418045 0.114594
O O7 0.433990 0.348225 0.075879
O O8 0.437529 0.314324 0.156978
O O9 0.500000 0.000000 0.048141
O O10 0.616784 0.000000 0.000000
O O11 0.167883 0.832118 0.807854
O O12 0.301017 0.000000 0.805415
O O13 0.394220 0.289643 0.500000
O O14 0.332429 0.166215 0.554656
O O15 0.281547 0.281547 0.553191
O O16 0.426639 0.315194 0.586448
O O17 0.476564 0.738282 0.383745
O O18 0.425838 0.574163 0.380179
#
# Coordination Sequence:
#
# PCOD9587416 Si02
#       6
#    24  24  12  24  24  24
#     4   9  17  28  44  66  91 119 151 187 227 271
#     4  10  19  31  48  70  96 126 160 197 235 277
#     4   9  18  32  48  66  92 126 159 193 234 274
#     4  10  19  31  48  69  93 122 155 191 231 277
#     4   9  18  32  49  67  86 110 142 181 225 272
#     4  10  19  30  43  62  90 123 157 191 225 260
#
# _framework density 15.090540000000001
#
# number of rings (size 3 to 8) (size 9 to 14) (size 15 to 20)
#    0.000    2.455    0.909    2.000    0.000    2.545 
#    0.000    0.909    0.000    8.364    0.000    1.273 
#    0.000    0.000    0.000    5.818    0.000   12.273 
#
# Total GULP energy -735193.543818 kJ/mol
# GULP energy per Si atom -5569.648059 kJ/mol
# Density = 1.505619 g / cm^3
# Si number density = 15.090540 Si / 1000 Ang^3
#
#
#
# Elastic Constant Matrix: (Units=GPa)
#
#
# Indices 1 2 3 4 5 6 
#
# 1 79.9516 55.2610 54.3725 0.0000 0.0000 0.0000
# 2 55.2610 79.9516 54.3725 0.0000 0.0000 0.0000
# 3 54.3725 54.3725 110.8501 0.0000 0.0000 0.0000
# 4 0.0000 0.0000 0.0000 17.8519 0.0000 0.0000
# 5 0.0000 0.0000 0.0000 0.0000 17.8519 0.0000
# 6 0.0000 0.0000 0.0000 0.0000 0.0000 12.3453
#
#
#
# Elastic Compliance Matrix: (Units=1/GPa)
#
#
# Indices 1 2 3 4 5 6 
#
# 1 0.026358 -0.014144 -0.005991 0.000000 0.000000 0.000000
# 2 -0.014144 0.026358 -0.005991 0.000000 0.000000 0.000000
# 3 -0.005991 -0.005991 0.014898 0.000000 0.000000 0.000000
# 4 0.000000 0.000000 0.000000 0.056016 0.000000 0.000000
# 5 0.000000 0.000000 0.000000 0.000000 0.056016 0.000000
# 6 0.000000 0.000000 0.000000 0.000000 0.000000 0.081002
#
#
# Mechanical properties :
#
#
# Convention : Reuss Voigt Hill
#
# Bulk Modulus (GPa) = 65.09406 66.52950 65.81178
# Shear Modulus (GPa) = 15.72222 16.72630 16.22426
#
# Velocity S-wave (km/s) = 3.23129 3.33287 3.28247
# Velocity P-wave (km/s) = 7.55982 7.68071 7.62051
#
# Compressibility (1/GPa) = 0.01536239
#
# Stress axis : x y z
#
# Youngs Moduli (GPa) = 37.93966 37.93966 67.12086
#
# Poissons Ratio (x) = 0.53660 0.40213
# Poissons Ratio (y) = 0.53660 0.40213
# Poissons Ratio (z) = 0.22730 0.22730
#
# Static dielectric constant tensor:
#      x y z
#    x 1.489610 0.000000 0.000000 
#    y 0.000000 1.489610 0.000000 
#    z 0.000000 0.000000 1.511020 
# 
# From -- ./inp_files/8701.got.cif
#   From: 2010.05.17/outbox.cif.g08.bks.cpg/sg191_5_cif.got.tgz:8701.got - 2010.05.20 12:20:32.
