data_PCOD9587774
_publ_section_title
;
Structure prediction by ZEFSAII (Michael W. Deem and Ramdas Pophale) SiO2 
 PCOD9587774
Probable space group: P 6/M M M
;
_chemical_formula_sum "Si O2"
_cell_formula_units_Z 96
_cell_length_a 27.495188
_cell_length_b 27.495188
_cell_length_c 9.116762
_cell_angle_alpha 90.000000
_cell_angle_beta 90.000000
_cell_angle_gamma 120.000000
_cell_volume 5968.767141
_symmetry_space_group_name_H-M "P 6/M M M"
_symmetry_group_IT_number 191
_symmetry_cell_setting 'hexagonal'
loop_
_space_group_symop_operation_xyz
x,y,z
x-y,x,z
-y,x-y,z
-x,-y,z
-x+y,-x,z
y,-x+y,z
x-y,-y,-z
-x,-x+y,-z
y,x,-z
-y,-x,-z
-x+y,y,-z
x,x-y,-z
-x,-y,-z
-x+y,-x,-z
y,-x+y,-z
x,y,-z
x-y,x,-z
-y,x-y,-z
-x+y,y,z
x,x-y,z
-y,-x,z
y,x,z
x-y,-y,z
-x,-x+y,z
loop_
_atom_site_type_symbol
_atom_site_label
_atom_site_fract_x
_atom_site_fract_y
_atom_site_fract_z
Si Si1 0.570209 0.140417 0.676258
Si Si2 0.327308 0.163654 0.832469
Si Si3 0.369553 0.739105 0.174218
Si Si4 0.459307 0.129618 0.323548
Si Si5 0.536167 0.768084 0.167642
Si Si6 0.064750 0.329375 0.323299
O O1 0.571555 0.143109 0.500000
O O2 0.601879 0.203757 0.737833
O O3 0.607064 0.112157 0.720048
O O4 0.395510 0.197755 0.834219
O O5 0.311128 0.106168 0.749615
O O6 0.307676 0.153838 0.000000
O O7 0.303045 0.696956 0.205381
O O8 0.375253 0.750506 0.000000
O O9 0.460182 0.135479 0.500000
O O10 0.478566 0.189864 0.251087
O O11 0.394717 0.087618 0.282076
O O12 0.515945 0.757973 0.000000
O O13 0.068867 0.327682 0.500000
O O14 0.000000 0.291343 0.280818
#
# Coordination Sequence:
#
# PCOD9587774 Si02
#       6
#    12  12  12  24  12  24
#     4  10  20  30  42  59  82 110 142 184 235 291
#     4   9  17  29  46  72  99 122 150 187 228 266
#     4   8  18  33  43  55  76 102 135 180 234 290
#     4   9  18  31  44  62  86 112 146 188 234 283
#     4   9  17  28  44  63  82 107 142 181 226 279
#     4   9  17  31  51  71  94 126 159 191 229 275
#
# _framework density 16.083724
#
# number of rings (size 3 to 8) (size 9 to 14) (size 15 to 20)
#    0.250    2.750    0.000    0.750    1.750    5.000 
#    0.000    0.625    0.000    3.750    0.000    0.000 
#    0.000    9.000    0.000    0.375    0.000    7.250 
#
# Total GULP energy -534720.612589 kJ/mol
# GULP energy per Si atom -5570.006381 kJ/mol
# Density = 1.604712 g / cm^3
# Si number density = 16.083724 Si / 1000 Ang^3
#
#
#
# Elastic Constant Matrix: (Units=GPa)
#
#
# Indices 1 2 3 4 5 6 
#
# 1 90.9230 59.3166 29.7196 0.0000 0.0000 0.0000
# 2 59.3166 90.9230 29.7196 0.0000 0.0000 0.0000
# 3 29.7196 29.7196 20.5314 0.0000 0.0000 0.0000
# 4 0.0000 0.0000 0.0000 10.9905 0.0000 0.0000
# 5 0.0000 0.0000 0.0000 0.0000 10.9905 0.0000
# 6 0.0000 0.0000 0.0000 0.0000 0.0000 15.8032
#
#
#
# Elastic Compliance Matrix: (Units=1/GPa)
#
#
# Indices 1 2 3 4 5 6 
#
# 1 0.023608 -0.008031 -0.022547 0.000000 0.000000 0.000000
# 2 -0.008031 0.023608 -0.022547 0.000000 0.000000 0.000000
# 3 -0.022547 -0.022547 0.113981 0.000000 0.000000 0.000000
# 4 0.000000 0.000000 0.000000 0.090988 0.000000 0.000000
# 5 0.000000 0.000000 0.000000 0.000000 0.090988 0.000000
# 6 0.000000 0.000000 0.000000 0.000000 0.000000 0.063278
#
#
# Mechanical properties :
#
#
# Convention : Reuss Voigt Hill
#
# Bulk Modulus (GPa) = 18.20001 48.87654 33.53828
# Shear Modulus (GPa) = 9.41590 13.13159 11.27374
#
# Velocity S-wave (km/s) = 2.42219 2.86046 2.65040
# Velocity P-wave (km/s) = 4.37756 6.43152 5.50125
#
# Compressibility (1/GPa) = 0.05494502
#
# Stress axis : x y z
#
# Youngs Moduli (GPa) = 42.35897 42.35897 8.77343
#
# Poissons Ratio (x) = 0.34020 0.19781
# Poissons Ratio (y) = 0.34020 0.19781
# Poissons Ratio (z) = 0.95507 0.95507
#
# Static dielectric constant tensor:
#      x y z
#    x 1.543450 0.000000 0.000000 
#    y 0.000000 1.543450 0.000000 
#    z 0.000000 0.000000 1.533520 
# 
# From -- ./inp_files/1633.got.cif
#   From: 2010.05.17/outbox.cif.g08.bks.cpg/sg191_1_cif.got.tgz:1633.got - 2010.05.20 12:20:32.
