data_PCOD9587767
_publ_section_title
;
Structure prediction by ZEFSAII (Michael W. Deem and Ramdas Pophale) SiO2 
 PCOD9587767
Probable space group: P 6/M M M
;
_chemical_formula_sum "Si O2"
_cell_formula_units_Z 96
_cell_length_a 15.778565
_cell_length_b 15.778565
_cell_length_c 21.337123
_cell_angle_alpha 90.000000
_cell_angle_beta 90.000000
_cell_angle_gamma 120.000000
_cell_volume 4600.462542
_symmetry_space_group_name_H-M "P 6/M M M"
_symmetry_group_IT_number 191
_symmetry_cell_setting 'hexagonal'
loop_
_space_group_symop_operation_xyz
x,y,z
x-y,x,z
-y,x-y,z
-x,-y,z
-x+y,-x,z
y,-x+y,z
x-y,-y,-z
-x,-x+y,-z
y,x,-z
-y,-x,-z
-x+y,y,-z
x,x-y,-z
-x,-y,-z
-x+y,-x,-z
y,-x+y,-z
x,y,-z
x-y,x,-z
-y,x-y,-z
-x+y,y,z
x,x-y,z
-y,-x,z
y,x,z
x-y,-y,z
-x,-x+y,z
loop_
_atom_site_type_symbol
_atom_site_label
_atom_site_fract_x
_atom_site_fract_y
_atom_site_fract_z
Si Si1 0.111875 0.555938 0.097617
Si Si2 0.398810 0.398810 0.424710
Si Si3 0.556183 0.778092 0.899852
Si Si4 0.443766 0.556235 0.250447
Si Si5 0.217021 0.108511 0.925488
Si Si6 0.226435 0.113218 0.308757
Si Si7 0.650330 0.825165 0.424804
Si Si8 0.558577 0.779289 0.748611
O O1 0.166441 0.498977 0.077191
O O2 0.114740 0.557370 0.174047
O O3 0.000000 0.500000 0.077987
O O4 0.500000 0.500000 0.405148
O O5 0.401199 0.401199 0.500000
O O6 0.394929 0.293591 0.408981
O O7 0.668156 0.834078 0.917840
O O8 0.555185 0.777593 0.824130
O O9 0.500000 0.500000 0.268157
O O10 0.332725 0.498853 0.272432
O O11 0.168159 0.168159 0.898199
O O12 0.198927 0.099464 0.000000
O O13 0.167275 0.167275 0.292112
O O14 0.252479 0.126240 0.382658
O O15 0.331127 0.165564 0.274638
O O16 0.662971 0.831486 0.500000
#
# Coordination Sequence:
#
# PCOD9587767 Si02
#       8
#    12  12  12  12  12  12  12  12
#     4   9  17  29  51  80 106 137 178 220 266 323
#     4   9  18  36  62  89 117 151 195 246 297 358
#     4  10  19  35  58  82 113 149 186 229 284 348
#     4   9  17  33  54  77 106 141 179 219 264 332
#     4  10  21  37  57  81 110 148 196 246 291 338
#     4  12  25  41  58  83 114 152 195 250 302 348
#     4  10  20  39  64  86 115 156 198 243 298 360
#     4  10  21  37  58  85 114 147 186 233 290 346
#
# _framework density 20.867467000000001
#
# number of rings (size 3 to 8) (size 9 to 14) (size 15 to 20)
#    0.000    2.125    1.250    2.250    0.000    5.500 
#    3.000    0.625    0.000    4.500    0.000    0.000 
#    0.000    0.000    0.000    0.000    0.000    0.000 
#
# Total GULP energy -535532.565028 kJ/mol
# GULP energy per Si atom -5578.464219 kJ/mol
# Density = 2.081997 g / cm^3
# Si number density = 20.867467 Si / 1000 Ang^3
#
#
#
# Elastic Constant Matrix: (Units=GPa)
#
#
# Indices 1 2 3 4 5 6 
#
# 1 251.3867 144.2905 14.4923 0.0000 0.0000 0.0000
# 2 144.2905 251.3867 14.4923 0.0000 0.0000 0.0000
# 3 14.4923 14.4923 53.7285 0.0000 0.0000 0.0000
# 4 0.0000 0.0000 0.0000 6.2471 0.0000 0.0000
# 5 0.0000 0.0000 0.0000 0.0000 6.2471 0.0000
# 6 0.0000 0.0000 0.0000 0.0000 0.0000 53.5481
#
#
#
# Elastic Compliance Matrix: (Units=1/GPa)
#
#
# Indices 1 2 3 4 5 6 
#
# 1 0.005958 -0.003380 -0.000695 0.000000 0.000000 0.000000
# 2 -0.003380 0.005958 -0.000695 0.000000 0.000000 0.000000
# 3 -0.000695 -0.000695 0.018987 0.000000 0.000000 0.000000
# 4 0.000000 0.000000 0.000000 0.160074 0.000000 0.000000
# 5 0.000000 0.000000 0.000000 0.000000 0.160074 0.000000
# 6 0.000000 0.000000 0.000000 0.000000 0.000000 0.018675
#
#
# Mechanical properties :
#
#
# Convention : Reuss Voigt Hill
#
# Bulk Modulus (GPa) = 46.81205 100.33910 73.57558
# Shear Modulus (GPa) = 12.94038 38.75693 25.84865
#
# Velocity S-wave (km/s) = 2.49293 4.31430 3.52334
# Velocity P-wave (km/s) = 5.54689 8.54435 7.20326
#
# Compressibility (1/GPa) = 0.02136202
#
# Stress axis : x y z
#
# Youngs Moduli (GPa) = 167.84645 167.84645 52.66689
#
# Poissons Ratio (x) = 0.56725 0.03663
# Poissons Ratio (y) = 0.56725 0.03663
# Poissons Ratio (z) = 0.11673 0.11673
#
# Static dielectric constant tensor:
#      x y z
#    x 1.726230 0.000000 0.000000 
#    y 0.000000 1.726230 0.000000 
#    z 0.000000 0.000000 1.776020 
# 
# From -- ./inp_files/9449.got.cif
#   From: 2010.05.17/outbox.cif.g08.bks.cpg/sg191_5_cif.got.tgz:9449.got - 2010.05.20 12:20:32.
