data_PCOD9587215
_publ_section_title
;
Structure prediction by ZEFSAII (Michael W. Deem and Ramdas Pophale) SiO2 
 PCOD9587215
Probable space group: P 6/M M M
;
_chemical_formula_sum "Si O2"
_cell_formula_units_Z 108
_cell_length_a 18.465136
_cell_length_b 18.465136
_cell_length_c 24.730961
_cell_angle_alpha 90.000000
_cell_angle_beta 90.000000
_cell_angle_gamma 120.000000
_cell_volume 7302.585419
_symmetry_space_group_name_H-M "P 6/M M M"
_symmetry_group_IT_number 191
_symmetry_cell_setting 'hexagonal'
loop_
_space_group_symop_operation_xyz
x,y,z
x-y,x,z
-y,x-y,z
-x,-y,z
-x+y,-x,z
y,-x+y,z
x-y,-y,-z
-x,-x+y,-z
y,x,-z
-y,-x,-z
-x+y,y,-z
x,x-y,-z
-x,-y,-z
-x+y,-x,-z
y,-x+y,-z
x,y,-z
x-y,x,-z
-y,x-y,-z
-x+y,y,z
x,x-y,z
-y,-x,z
y,x,z
x-y,-y,z
-x,-x+y,z
loop_
_atom_site_type_symbol
_atom_site_label
_atom_site_fract_x
_atom_site_fract_y
_atom_site_fract_z
Si Si1 0.163812 0.497755 0.563405
Si Si2 0.164384 0.668530 0.871860
Si Si3 0.588007 0.588007 0.937793
Si Si4 0.367738 0.900113 0.248293
Si Si5 0.737678 0.641062 0.347334
O O1 0.142467 0.478718 0.500000
O O2 0.260362 0.520723 0.569647
O O3 0.153640 0.576820 0.577986
O O4 0.110717 0.418637 0.601375
O O5 0.176079 0.588040 0.879824
O O6 0.247183 0.752818 0.887352
O O7 0.144812 0.669645 0.808332
O O8 0.083568 0.651748 0.906097
O O9 0.500000 0.500000 0.937232
O O10 0.611707 0.611707 0.000000
O O11 0.439211 0.878421 0.265655
O O12 0.301620 0.883083 0.294959
O O13 0.416736 0.000000 0.237992
O O14 0.835387 0.670774 0.350570
O O15 0.712290 0.712290 0.344434
#
# Coordination Sequence:
#
# PCOD9587215 Si02
#       5
#    24  24  12  24  24
#     4   9  17  29  45  66  93 124 154 182 214 256
#     4  10  18  29  45  66  90 118 152 188 222 259
#     4   9  18  32  46  60  84 118 150 182 224 264
#     4   9  16  28  46  67  91 118 145 173 211 261
#     4  10  20  32  46  65  88 115 148 187 229 270
#
# _framework density 14.789282999999999
#
# number of rings (size 3 to 8) (size 9 to 14) (size 15 to 20)
#    0.000    2.556    1.111    1.778    0.000    3.111 
#    0.000    1.111    0.000    8.667    0.000    0.000 
#    0.000    0.000    0.000    5.889    0.000    1.444 
#
# Total GULP energy -602034.300527 kJ/mol
# GULP energy per Si atom -5574.391672 kJ/mol
# Density = 1.475562 g / cm^3
# Si number density = 14.789283 Si / 1000 Ang^3
#
#
#
# Elastic Constant Matrix: (Units=GPa)
#
#
# Indices 1 2 3 4 5 6 
#
# 1 85.2344 51.7770 42.2773 0.0000 0.0000 0.0000
# 2 51.7770 85.2344 42.2773 0.0000 0.0000 0.0000
# 3 42.2773 42.2773 65.2408 0.0000 0.0000 0.0000
# 4 0.0000 0.0000 0.0000 10.5434 0.0000 0.0000
# 5 0.0000 0.0000 0.0000 0.0000 10.5434 0.0000
# 6 0.0000 0.0000 0.0000 0.0000 0.0000 16.7287
#
#
#
# Elastic Compliance Matrix: (Units=1/GPa)
#
#
# Indices 1 2 3 4 5 6 
#
# 1 0.021026 -0.008863 -0.007882 0.000000 0.000000 0.000000
# 2 -0.008863 0.021026 -0.007882 0.000000 0.000000 0.000000
# 3 -0.007882 -0.007882 0.025543 0.000000 0.000000 0.000000
# 4 0.000000 0.000000 0.000000 0.094846 0.000000 0.000000
# 5 0.000000 0.000000 0.000000 0.000000 0.094846 0.000000
# 6 0.000000 0.000000 0.000000 0.000000 0.000000 0.059777
#
#
# Mechanical properties :
#
#
# Convention : Reuss Voigt Hill
#
# Bulk Modulus (GPa) = 54.52111 56.48588 55.50349
# Shear Modulus (GPa) = 13.42534 14.18832 13.80683
#
# Velocity S-wave (km/s) = 3.01620 3.10072 3.05875
# Velocity P-wave (km/s) = 7.00537 7.14815 7.07712
#
# Compressibility (1/GPa) = 0.01834152
#
# Stress axis : x y z
#
# Youngs Moduli (GPa) = 47.56083 47.56083 39.14994
#
# Poissons Ratio (x) = 0.42153 0.30857
# Poissons Ratio (y) = 0.42153 0.30857
# Poissons Ratio (z) = 0.37486 0.37486
#
# Static dielectric constant tensor:
#      x y z
#    x 1.474700 0.000000 0.000000 
#    y 0.000000 1.474700 0.000000 
#    z 0.000000 0.000000 1.498220 
# 
# From -- ./inp_files/8340.got.cif
#   From: 2010.05.17/outbox.cif.g08.bks.cpg/sg191_5_cif.got.tgz:8340.got - 2010.05.20 12:20:32.
