data_PCOD9587544
_publ_section_title
;
Structure prediction by ZEFSAII (Michael W. Deem and Ramdas Pophale) SiO2 
 PCOD9587544
Probable space group: P 6/M M M
;
_chemical_formula_sum "Si O2"
_cell_formula_units_Z 168
_cell_length_a 22.159244
_cell_length_b 22.159244
_cell_length_c 25.389548
_cell_angle_alpha 90.000000
_cell_angle_beta 90.000000
_cell_angle_gamma 120.000000
_cell_volume 10796.810534
_symmetry_space_group_name_H-M "P 6/M M M"
_symmetry_group_IT_number 191
_symmetry_cell_setting 'hexagonal'
loop_
_space_group_symop_operation_xyz
x,y,z
x-y,x,z
-y,x-y,z
-x,-y,z
-x+y,-x,z
y,-x+y,z
x-y,-y,-z
-x,-x+y,-z
y,x,-z
-y,-x,-z
-x+y,y,-z
x,x-y,-z
-x,-y,-z
-x+y,-x,-z
y,-x+y,-z
x,y,-z
x-y,x,-z
-y,x-y,-z
-x+y,y,z
x,x-y,z
-y,-x,z
y,x,z
x-y,-y,z
-x,-x+y,z
loop_
_atom_site_type_symbol
_atom_site_label
_atom_site_fract_x
_atom_site_fract_y
_atom_site_fract_z
Si Si1 0.785259 0.077339 0.167325
Si Si2 0.468652 0.082142 0.441262
Si Si3 0.805243 0.333166 0.062869
Si Si4 0.215224 0.921607 0.705602
Si Si5 0.474456 0.809086 0.767129
Si Si6 0.433873 0.352108 0.143639
Si Si7 0.705562 0.151886 0.340106
O O1 0.859609 0.140392 0.150838
O O2 0.779950 0.081026 0.230889
O O3 0.722144 0.084849 0.144216
O O4 0.769924 0.000000 0.154558
O O5 0.460437 0.104996 0.500000
O O6 0.544288 0.088576 0.439214
O O7 0.460961 0.123040 0.392906
O O8 0.413356 0.000000 0.436238
O O9 0.784914 0.392457 0.073629
O O10 0.742230 0.257771 0.080258
O O11 0.876581 0.355022 0.093020
O O12 0.813328 0.330805 0.000000
O O13 0.137390 0.862611 0.690567
O O14 0.267970 0.899579 0.680978
O O15 0.237797 0.000000 0.690628
O O16 0.394476 0.788952 0.772828
O O17 0.484435 0.742218 0.777055
O O18 0.520540 0.872063 0.807021
O O19 0.501391 0.835571 0.708023
O O20 0.410524 0.410524 0.146388
O O21 0.774458 0.225543 0.350258
#
# Coordination Sequence:
#
# PCOD9587544 Si02
#       7
#    24  24  24  24  24  24  24
#     4   9  16  28  46  67  93 123 154 188 226 273
#     4   9  18  32  48  65  87 117 152 189 230 278
#     4  10  21  37  56  74  94 124 162 201 239 283
#     4   9  16  27  44  66  92 121 152 186 227 274
#     4  11  22  35  50  69  95 125 157 195 240 288
#     4  11  22  34  50  72  98 127 158 195 239 284
#     4  10  19  30  47  69  92 119 152 193 237 281
#
# _framework density 15.56015
#
# number of rings (size 3 to 8) (size 9 to 14) (size 15 to 20)
#    0.000    2.143    1.429    3.286    0.000    2.857 
#    0.000    2.143    0.000    0.571    0.000    2.000 
#    0.000    0.000    0.000    0.000    0.000    0.000 
#
# Total GULP energy -936802.399463 kJ/mol
# GULP energy per Si atom -5576.204759 kJ/mol
# Density = 1.552473 g / cm^3
# Si number density = 15.560150 Si / 1000 Ang^3
#
#
#
# Elastic Constant Matrix: (Units=GPa)
#
#
# Indices 1 2 3 4 5 6 
#
# 1 77.9892 41.9857 34.6841 0.0000 0.0000 0.0000
# 2 41.9857 77.9892 34.6841 0.0000 0.0000 0.0000
# 3 34.6841 34.6841 59.6704 0.0000 0.0000 0.0000
# 4 0.0000 0.0000 0.0000 20.1142 0.0000 0.0000
# 5 0.0000 0.0000 0.0000 0.0000 20.1142 0.0000
# 6 0.0000 0.0000 0.0000 0.0000 0.0000 18.0018
#
#
#
# Elastic Compliance Matrix: (Units=1/GPa)
#
#
# Indices 1 2 3 4 5 6 
#
# 1 0.020165 -0.007610 -0.007297 0.000000 0.000000 0.000000
# 2 -0.007610 0.020165 -0.007297 0.000000 0.000000 0.000000
# 3 -0.007297 -0.007297 0.025242 0.000000 0.000000 0.000000
# 4 0.000000 0.000000 0.000000 0.049716 0.000000 0.000000
# 5 0.000000 0.000000 0.000000 0.000000 0.049716 0.000000
# 6 0.000000 0.000000 0.000000 0.000000 0.000000 0.055550
#
#
# Mechanical properties :
#
#
# Convention : Reuss Voigt Hill
#
# Bulk Modulus (GPa) = 47.25598 48.70626 47.98112
# Shear Modulus (GPa) = 18.38117 18.59904 18.49010
#
# Velocity S-wave (km/s) = 3.44073 3.46106 3.45091
# Velocity P-wave (km/s) = 6.79858 6.88054 6.83968
#
# Compressibility (1/GPa) = 0.02116134
#
# Stress axis : x y z
#
# Youngs Moduli (GPa) = 49.59167 49.59167 39.61643
#
# Poissons Ratio (x) = 0.37741 0.28909
# Poissons Ratio (y) = 0.37741 0.28909
# Poissons Ratio (z) = 0.36189 0.36189
#
# Static dielectric constant tensor:
#      x y z
#    x 1.515280 0.000000 0.000000 
#    y 0.000000 1.515280 0.000000 
#    z 0.000000 0.000000 1.513490 
# 
# From -- ./inp_files/9004.got.cif
#   From: 2010.05.17/outbox.cif.g08.bks.cpg/sg191_5_cif.got.tgz:9004.got - 2010.05.20 12:20:32.
