data_PCOD9587080
_publ_section_title
;
Structure prediction by ZEFSAII (Michael W. Deem and Ramdas Pophale) SiO2 
 PCOD9587080
Probable space group: P 6/M M M
;
_chemical_formula_sum "Si O2"
_cell_formula_units_Z 132
_cell_length_a 19.656624
_cell_length_b 19.656624
_cell_length_c 24.912918
_cell_angle_alpha 90.000000
_cell_angle_beta 90.000000
_cell_angle_gamma 120.000000
_cell_volume 8336.295311
_symmetry_space_group_name_H-M "P 6/M M M"
_symmetry_group_IT_number 191
_symmetry_cell_setting 'hexagonal'
loop_
_space_group_symop_operation_xyz
x,y,z
x-y,x,z
-y,x-y,z
-x,-y,z
-x+y,-x,z
y,-x+y,z
x-y,-y,-z
-x,-x+y,-z
y,x,-z
-y,-x,-z
-x+y,y,-z
x,x-y,-z
-x,-y,-z
-x+y,-x,-z
y,-x+y,-z
x,y,-z
x-y,x,-z
-y,x-y,-z
-x+y,y,z
x,x-y,z
-y,-x,z
y,x,z
x-y,-y,z
-x,-x+y,z
loop_
_atom_site_type_symbol
_atom_site_label
_atom_site_fract_x
_atom_site_fract_y
_atom_site_fract_z
Si Si1 0.822171 0.334241 0.064762
Si Si2 0.244368 0.911231 0.093580
Si Si3 0.910296 0.669839 0.777269
Si Si4 0.493387 0.826453 0.609766
Si Si5 0.910452 0.538021 0.500000
Si Si6 0.905959 0.528205 0.276509
O O1 0.837139 0.418570 0.084237
O O2 0.736756 0.263245 0.082469
O O3 0.885054 0.308359 0.080470
O O4 0.820777 0.335733 0.000000
O O5 0.159562 0.840439 0.073749
O O6 0.239377 0.912255 0.158171
O O7 0.274621 0.000000 0.073984
O O8 0.846408 0.692816 0.758450
O O9 0.881998 0.580926 0.758672
O O10 0.000000 0.725532 0.758098
O O11 0.404111 0.808221 0.603772
O O12 0.495116 0.747558 0.618997
O O13 0.536873 0.867315 0.554659
O O14 0.527339 0.881151 0.661901
O O15 0.912000 0.456000 0.500000
O O16 0.000000 0.606552 0.500000
O O17 0.875550 0.437775 0.260269
O O18 0.000000 0.572665 0.273229
#
# Coordination Sequence:
#
# PCOD9587080 Si02
#       6
#    24  24  24  24  12  24
#     4   9  17  29  45  65  90 119 148 176 207 245
#     4   9  18  31  46  64  86 112 141 175 215 256
#     4   9  17  30  47  65  85 110 141 175 212 255
#     4  10  18  27  39  55  76 100 128 162 199 237
#     4   9  17  28  40  52  68  93 124 158 196 238
#     4   9  17  28  42  60  82 109 139 169 200 237
#
# _framework density 15.834371000000001
#
# number of rings (size 3 to 8) (size 9 to 14) (size 15 to 20)
#    0.000    2.818    0.000    1.727    0.000    4.364 
#    0.000    3.636    0.000    0.727    0.000    2.545 
#    0.000    0.000    0.000    4.545    0.000    4.727 
#
# Total GULP energy -734892.619294 kJ/mol
# GULP energy per Si atom -5567.368328 kJ/mol
# Density = 1.579833 g / cm^3
# Si number density = 15.834371 Si / 1000 Ang^3
#
#
#
# Elastic Constant Matrix: (Units=GPa)
#
#
# Indices 1 2 3 4 5 6 
#
# 1 78.0613 51.6395 5.4847 0.0000 0.0000 0.0000
# 2 51.6395 78.0613 5.4847 0.0000 0.0000 0.0000
# 3 5.4847 5.4847 8.9452 0.0000 0.0000 0.0000
# 4 0.0000 0.0000 0.0000 3.7730 0.0000 0.0000
# 5 0.0000 0.0000 0.0000 0.0000 3.7730 0.0000
# 6 0.0000 0.0000 0.0000 0.0000 0.0000 13.2109
#
#
#
# Elastic Compliance Matrix: (Units=1/GPa)
#
#
# Indices 1 2 3 4 5 6 
#
# 1 0.022990 -0.014858 -0.004986 0.000000 0.000000 0.000000
# 2 -0.014858 0.022990 -0.004986 0.000000 0.000000 0.000000
# 3 -0.004986 -0.004986 0.117907 0.000000 0.000000 0.000000
# 4 0.000000 0.000000 0.000000 0.265043 0.000000 0.000000
# 5 0.000000 0.000000 0.000000 0.000000 0.265043 0.000000
# 6 0.000000 0.000000 0.000000 0.000000 0.000000 0.075695
#
#
# Mechanical properties :
#
#
# Convention : Reuss Voigt Hill
#
# Bulk Modulus (GPa) = 8.75455 32.25393 20.50424
# Shear Modulus (GPa) = 5.83157 10.98196 8.40677
#
# Velocity S-wave (km/s) = 1.92116 2.63640 2.30667
# Velocity P-wave (km/s) = 3.23450 5.44805 4.48013
#
# Compressibility (1/GPa) = 0.11422636
#
# Stress axis : x y z
#
# Youngs Moduli (GPa) = 43.49787 43.49787 8.48129
#
# Poissons Ratio (x) = 0.64629 0.04229
# Poissons Ratio (y) = 0.64629 0.04229
# Poissons Ratio (z) = 0.21688 0.21688
#
# Static dielectric constant tensor:
#      x y z
#    x 1.538890 0.000000 0.000000 
#    y 0.000000 1.538890 0.000000 
#    z 0.000000 0.000000 1.536700 
# 
# From -- ./inp_files/10455.got.cif
#   From: 2010.05.17/outbox.cif.g08.bks.cpg/sg191_6_cif.got.tgz:10455.got - 2010.05.20 12:20:32.
