data_PCOD9587374
_publ_section_title
;
Structure prediction by ZEFSAII (Michael W. Deem and Ramdas Pophale) SiO2 
 PCOD9587374
Probable space group: P 6/M M M
;
_chemical_formula_sum "Si O2"
_cell_formula_units_Z 168
_cell_length_a 30.422262
_cell_length_b 30.422262
_cell_length_c 13.182045
_cell_angle_alpha 90.000000
_cell_angle_beta 90.000000
_cell_angle_gamma 120.000000
_cell_volume 10565.655010
_symmetry_space_group_name_H-M "P 6/M M M"
_symmetry_group_IT_number 191
_symmetry_cell_setting 'hexagonal'
loop_
_space_group_symop_operation_xyz
x,y,z
x-y,x,z
-y,x-y,z
-x,-y,z
-x+y,-x,z
y,-x+y,z
x-y,-y,-z
-x,-x+y,-z
y,x,-z
-y,-x,-z
-x+y,y,-z
x,x-y,-z
-x,-y,-z
-x+y,-x,-z
y,-x+y,-z
x,y,-z
x-y,x,-z
-y,x-y,-z
-x+y,y,z
x,x-y,z
-y,-x,z
y,x,z
x-y,-y,z
-x,-x+y,z
loop_
_atom_site_type_symbol
_atom_site_label
_atom_site_fract_x
_atom_site_fract_y
_atom_site_fract_z
Si Si1 0.665701 0.087860 0.617153
Si Si2 0.287073 0.813438 0.264668
Si Si3 0.056254 0.579327 0.217862
Si Si4 0.838413 0.471266 0.887269
Si Si5 0.744378 0.684684 0.284502
Si Si6 0.839781 0.780870 0.622426
Si Si7 0.376907 0.136925 0.883962
O O1 0.652293 0.076210 0.500000
O O2 0.689938 0.147455 0.643187
O O3 0.616994 0.061784 0.691081
O O4 0.708463 0.073484 0.647959
O O5 0.238978 0.761023 0.294483
O O6 0.328993 0.807575 0.202703
O O7 0.269236 0.840612 0.180754
O O8 0.061471 0.530736 0.251928
O O9 0.102240 0.610751 0.140555
O O10 0.000000 0.555866 0.172876
O O11 0.830455 0.415228 0.886971
O O12 0.826676 0.482415 0.000000
O O13 0.713343 0.713343 0.266949
O O14 0.797152 0.725581 0.336702
O O15 0.754244 0.664330 0.179968
O O16 0.838314 0.779033 0.500000
O O17 0.896216 0.792432 0.653487
O O18 0.820890 0.820890 0.652631
O O19 0.363289 0.181645 0.884690
O O20 0.382915 0.125230 0.000000
#
# Coordination Sequence:
#
# PCOD9587374 Si02
#       7
#    24  24  24  24  24  24  24
#     4  10  20  32  45  63  88 115 147 189 227 258
#     4   9  18  32  48  65  85 111 143 178 218 263
#     4   9  18  31  45  63  89 121 154 184 217 258
#     4   9  17  29  46  68  91 114 142 176 213 254
#     4  10  19  29  42  62  88 117 147 178 217 263
#     4   9  17  29  45  64  86 113 144 177 215 261
#     4   9  17  29  44  61  82 110 145 182 216 251
#
# _framework density 15.900577
#
# number of rings (size 3 to 8) (size 9 to 14) (size 15 to 20)
#    0.000    2.714    0.000    1.714    0.000    4.286 
#    0.000    2.143    0.000    5.571    0.000    1.000 
#    0.000    0.000    0.000    0.429    0.000    0.571 
#
# Total GULP energy -935612.769498 kJ/mol
# GULP energy per Si atom -5569.123628 kJ/mol
# Density = 1.586439 g / cm^3
# Si number density = 15.900577 Si / 1000 Ang^3
#
#
#
# Elastic Constant Matrix: (Units=GPa)
#
#
# Indices 1 2 3 4 5 6 
#
# 1 48.4494 12.4848 -6.5340 0.0000 0.0000 0.0000
# 2 12.4848 48.4494 -6.5340 0.0000 0.0000 0.0000
# 3 -6.5340 -6.5340 27.2172 0.0000 0.0000 0.0000
# 4 0.0000 0.0000 0.0000 14.6850 0.0000 0.0000
# 5 0.0000 0.0000 0.0000 0.0000 14.6850 0.0000
# 6 0.0000 0.0000 0.0000 0.0000 0.0000 17.9823
#
#
#
# Elastic Compliance Matrix: (Units=1/GPa)
#
#
# Indices 1 2 3 4 5 6 
#
# 1 0.022554 -0.005252 0.004154 0.000000 0.000000 0.000000
# 2 -0.005252 0.022554 0.004154 0.000000 0.000000 0.000000
# 3 0.004154 0.004154 0.038736 0.000000 0.000000 0.000000
# 4 0.000000 0.000000 0.000000 0.068097 0.000000 0.000000
# 5 0.000000 0.000000 0.000000 0.000000 0.068097 0.000000
# 6 0.000000 0.000000 0.000000 0.000000 0.000000 0.055610
#
#
# Mechanical properties :
#
#
# Convention : Reuss Voigt Hill
#
# Bulk Modulus (GPa) = 11.11675 13.66107 12.38891
# Shear Modulus (GPa) = 16.69337 17.78373 17.23855
#
# Velocity S-wave (km/s) = 3.24367 3.34793 3.29621
# Velocity P-wave (km/s) = 4.58640 4.85335 4.72176
#
# Compressibility (1/GPa) = 0.08995432
#
# Stress axis : x y z
#
# Youngs Moduli (GPa) = 44.33891 44.33891 25.81590
#
# Poissons Ratio (x) = 0.23285 -0.10723
# Poissons Ratio (y) = 0.23285 -0.10723
# Poissons Ratio (z) = -0.18417 -0.18417
#
# Static dielectric constant tensor:
#      x y z
#    x 1.547390 0.000000 0.000000 
#    y 0.000000 1.547390 0.000000 
#    z 0.000000 0.000000 1.514400 
# 
# From -- ./inp_files/3601.got.cif
#   From: 2010.05.17/outbox.cif.g08.bks.cpg/sg191_2_cif.got.tgz:3601.got - 2010.05.20 12:20:32.
