data_PCOD9587007
_publ_section_title
;
Structure prediction by ZEFSAII (Michael W. Deem and Ramdas Pophale) SiO2 
 PCOD9587007
Probable space group: P -6 2 C
;
_chemical_formula_sum "Si O2"
_cell_formula_units_Z 84
_cell_length_a 17.421283
_cell_length_b 17.421283
_cell_length_c 14.528678
_cell_angle_alpha 90.000000
_cell_angle_beta 90.000000
_cell_angle_gamma 120.000000
_cell_volume 3818.712842
_symmetry_space_group_name_H-M "P -6 2 C"
_symmetry_group_IT_number 190
_symmetry_cell_setting 'hexagonal'
loop_
_space_group_symop_operation_xyz
x,y,z
-x+y,-x,1/2-z
-y,x-y,z
x,y,1/2-z
-x+y,-x,z
-y,x-y,1/2-z
x-y,-y,-z
-x,-x+y,-z
y,x,-z
y,x,1/2+z
x-y,-y,1/2+z
-x,-x+y,1/2+z
loop_
_atom_site_type_symbol
_atom_site_label
_atom_site_fract_x
_atom_site_fract_y
_atom_site_fract_z
Si Si1 0.359260 0.170513 0.148756
Si Si2 0.757981 0.722590 0.643675
Si Si3 0.616943 0.434573 0.951397
Si Si4 0.208337 0.307191 0.465547
Si Si5 0.024664 0.457154 0.147223
Si Si6 0.474331 0.270451 0.857260
Si Si7 0.630126 0.451436 0.151499
O O1 0.346932 0.199440 0.250000
O O2 0.455396 0.178140 0.150028
O O3 0.276887 0.069702 0.133833
O O4 0.358632 0.222799 0.061067
O O5 0.787570 0.727104 0.750000
O O6 0.834500 0.725784 0.577380
O O7 0.661753 0.633333 0.635167
O O8 0.558761 0.480832 0.936255
O O9 0.568921 0.355741 0.879585
O O10 0.712910 0.510839 0.918572
O O11 0.617769 0.403862 0.054558
O O12 0.233468 0.233468 0.500000
O O13 0.269440 0.386040 0.393470
O O14 0.063455 0.492212 0.250000
O O15 0.925803 0.438518 0.150199
O O16 0.464839 0.249294 0.750000
O O17 0.620402 0.405870 0.250000
#
# Coordination Sequence:
#
# PCOD9587007 Si02
#       7
#    12  12  12  12  12  12  12
#     4   9  18  36  63  93 118 154 206 254 300 364
#     4   9  17  34  63  92 118 151 203 259 302 357
#     4  12  22  39  61  81 113 158 201 253 306 363
#     4  12  24  37  57  90 132 173 202 250 331 397
#     4   9  16  30  60  92 111 137 183 245 301 343
#     4  12  26  42  60  85 116 159 216 268 320 382
#     4   9  18  34  61  93 114 136 183 244 300 358
#
# _framework density 21.996939000000001
#
# number of rings (size 3 to 8) (size 9 to 14) (size 15 to 20)
#    0.000    1.714    2.857    4.571    0.000    4.571 
#    0.000    1.429    0.000    2.286    0.000    0.000 
#    0.000    0.000    0.000    0.000    0.000    0.000 
#
# Total GULP energy -467640.211062 kJ/mol
# GULP energy per Si atom -5567.145370 kJ/mol
# Density = 2.194687 g / cm^3
# Si number density = 21.996939 Si / 1000 Ang^3
#
#
#
# Elastic Constant Matrix: (Units=GPa)
#
#
# Indices 1 2 3 4 5 6 
#
# 1 30.7193 3.6551 3.6992 0.0000 0.0000 0.0000
# 2 3.6551 30.7193 3.6992 0.0000 0.0000 0.0000
# 3 3.6992 3.6992 150.3027 0.0000 0.0000 0.0000
# 4 0.0000 0.0000 0.0000 19.0284 0.0000 0.0000
# 5 0.0000 0.0000 0.0000 0.0000 19.0284 0.0000
# 6 0.0000 0.0000 0.0000 0.0000 0.0000 13.5321
#
#
#
# Elastic Compliance Matrix: (Units=1/GPa)
#
#
# Indices 1 2 3 4 5 6 
#
# 1 0.033098 -0.003851 -0.000720 0.000000 0.000000 0.000000
# 2 -0.003851 0.033098 -0.000720 0.000000 0.000000 0.000000
# 3 -0.000720 -0.000720 0.006689 0.000000 0.000000 0.000000
# 4 0.000000 0.000000 0.000000 0.052553 0.000000 0.000000
# 5 0.000000 0.000000 0.000000 0.000000 0.052553 0.000000
# 6 0.000000 0.000000 0.000000 0.000000 0.000000 0.073898
#
#
# Mechanical properties :
#
#
# Convention : Reuss Voigt Hill
#
# Bulk Modulus (GPa) = 16.05080 25.98314 21.01697
# Shear Modulus (GPa) = 17.65301 23.69698 20.67499
#
# Velocity S-wave (km/s) = 2.83595 3.28576 3.06911
# Velocity P-wave (km/s) = 4.24690 5.12180 4.70473
#
# Compressibility (1/GPa) = 0.06230218
#
# Stress axis : x y z
#
# Youngs Moduli (GPa) = 30.21353 30.21353 149.50652
#
# Poissons Ratio (x) = 0.11636 0.10761
# Poissons Ratio (y) = 0.11636 0.10761
# Poissons Ratio (z) = 0.02175 0.02175
#
# Static dielectric constant tensor:
#      x y z
#    x 1.947950 0.000000 0.000000 
#    y 0.000000 1.947950 0.000000 
#    z 0.000000 0.000000 1.848230 
# 
# From -- ./inp_files/3147.got.cif
#   From: 2010.05.17/outbox.cif.g08.bks.cpg/sg190_2_cif.got.tgz:3147.got - 2010.05.20 12:16:56.
