data_PCOD9587908
_publ_section_title
;
Structure prediction by ZEFSAII (Michael W. Deem and Ramdas Pophale) SiO2 
 PCOD9587908
Probable space group: P 6/M M M
;
_chemical_formula_sum "Si O2"
_cell_formula_units_Z 156
_cell_length_a 21.682840
_cell_length_b 21.682840
_cell_length_c 21.206472
_cell_angle_alpha 90.000000
_cell_angle_beta 90.000000
_cell_angle_gamma 120.000000
_cell_volume 8634.384518
_symmetry_space_group_name_H-M "P 6/M M M"
_symmetry_group_IT_number 191
_symmetry_cell_setting 'hexagonal'
loop_
_space_group_symop_operation_xyz
x,y,z
x-y,x,z
-y,x-y,z
-x,-y,z
-x+y,-x,z
y,-x+y,z
x-y,-y,-z
-x,-x+y,-z
y,x,-z
-y,-x,-z
-x+y,y,-z
x,x-y,-z
-x,-y,-z
-x+y,-x,-z
y,-x+y,-z
x,y,-z
x-y,x,-z
-y,x-y,-z
-x+y,y,z
x,x-y,z
-y,-x,z
y,x,z
x-y,-y,z
-x,-x+y,z
loop_
_atom_site_type_symbol
_atom_site_label
_atom_site_fract_x
_atom_site_fract_y
_atom_site_fract_z
Si Si1 0.807266 0.471360 0.500000
Si Si2 0.381424 0.116661 0.069254
Si Si3 0.360255 0.918858 0.606012
Si Si4 0.921546 0.224068 0.799950
Si Si5 0.078404 0.296096 0.576547
Si Si6 0.917860 0.560486 0.249242
Si Si7 0.664251 0.187277 0.861109
O O1 0.746389 0.492777 0.500000
O O2 0.773951 0.386976 0.500000
O O3 0.859096 0.503501 0.559933
O O4 0.381442 0.190721 0.065694
O O5 0.331134 0.078783 0.128927
O O6 0.461752 0.139187 0.088620
O O7 0.361863 0.083080 0.000000
O O8 0.283956 0.914716 0.600384
O O9 0.372194 0.908192 0.678705
O O10 0.418229 0.000000 0.587366
O O11 0.855196 0.144805 0.793644
O O12 0.910899 0.279447 0.756842
O O13 0.000000 0.236941 0.787162
O O14 0.081119 0.300575 0.500000
O O15 0.143289 0.286578 0.598651
O O16 0.000000 0.233587 0.594553
O O17 0.859178 0.503743 0.202816
O O18 0.000000 0.586917 0.230562
O O19 0.600316 0.200631 0.878283
O O20 0.738540 0.261461 0.853701
#
# Coordination Sequence:
#
# PCOD9587908 Si02
#       7
#    12  24  24  24  24  24  24
#     4  12  26  41  55  73 102 137 167 195 235 296
#     4   8  15  29  48  69  94 125 163 207 249 285
#     4  10  20  36  58  80  97 118 157 210 262 298
#     4   9  17  30  49  74 103 134 168 207 252 301
#     4   9  16  27  45  70  97 122 150 187 233 281
#     4   9  19  35  55  76  97 123 159 208 259 299
#     4  10  20  33  49  71 101 136 170 202 240 293
#
# _framework density 18.067298000000001
#
# number of rings (size 3 to 8) (size 9 to 14) (size 15 to 20)
#    0.000    2.615    0.769    2.308    0.000    4.615 
#    0.000    1.538    0.000    3.077    0.000    5.385 
#    0.000    0.000    0.000   11.538    0.000    4.000 
#
# Total GULP energy -869840.282379 kJ/mol
# GULP energy per Si atom -5575.899246 kJ/mol
# Density = 1.802618 g / cm^3
# Si number density = 18.067298 Si / 1000 Ang^3
#
#
#
# Elastic Constant Matrix: (Units=GPa)
#
#
# Indices 1 2 3 4 5 6 
#
# 1 67.2259 32.5511 8.9505 0.0000 0.0000 0.0000
# 2 32.5511 67.2259 8.9505 0.0000 0.0000 0.0000
# 3 8.9505 8.9505 58.4039 0.0000 0.0000 0.0000
# 4 0.0000 0.0000 0.0000 10.9091 0.0000 0.0000
# 5 0.0000 0.0000 0.0000 0.0000 10.9091 0.0000
# 6 0.0000 0.0000 0.0000 0.0000 0.0000 17.3374
#
#
#
# Elastic Compliance Matrix: (Units=1/GPa)
#
#
# Indices 1 2 3 4 5 6 
#
# 1 0.019573 -0.009267 -0.001579 0.000000 0.000000 0.000000
# 2 -0.009267 0.019573 -0.001579 0.000000 0.000000 0.000000
# 3 -0.001579 -0.001579 0.017606 0.000000 0.000000 0.000000
# 4 0.000000 0.000000 0.000000 0.091667 0.000000 0.000000
# 5 0.000000 0.000000 0.000000 0.000000 0.091667 0.000000
# 6 0.000000 0.000000 0.000000 0.000000 0.000000 0.057679
#
#
# Mechanical properties :
#
#
# Convention : Reuss Voigt Hill
#
# Bulk Modulus (GPa) = 31.34782 32.64001 31.99392
# Shear Modulus (GPa) = 15.00383 17.32468 16.16425
#
# Velocity S-wave (km/s) = 2.88486 3.09997 2.99435
# Velocity P-wave (km/s) = 5.33712 5.56040 5.44990
#
# Compressibility (1/GPa) = 0.03190014
#
# Stress axis : x y z
#
# Youngs Moduli (GPa) = 51.09205 51.09205 56.79807
#
# Poissons Ratio (x) = 0.47346 0.08971
# Poissons Ratio (y) = 0.47346 0.08971
# Poissons Ratio (z) = 0.08069 0.08069
#
# Static dielectric constant tensor:
#      x y z
#    x 1.615910 0.000000 0.000000 
#    y 0.000000 1.615910 0.000000 
#    z 0.000000 0.000000 1.644500 
# 
# From -- ./inp_files/7739.got.cif
#   From: 2010.05.17/outbox.cif.g08.bks.cpg/sg191_4_cif.got.tgz:7739.got - 2010.05.20 12:20:32.
