data_PCOD9587151
_publ_section_title
;
Structure prediction by ZEFSAII (Michael W. Deem and Ramdas Pophale) SiO2 
 PCOD9587151
Probable space group: P 6/M M M
;
_chemical_formula_sum "Si O2"
_cell_formula_units_Z 132
_cell_length_a 18.385418
_cell_length_b 18.385418
_cell_length_c 30.564305
_cell_angle_alpha 90.000000
_cell_angle_beta 90.000000
_cell_angle_gamma 120.000000
_cell_volume 8947.303576
_symmetry_space_group_name_H-M "P 6/M M M"
_symmetry_group_IT_number 191
_symmetry_cell_setting 'hexagonal'
loop_
_space_group_symop_operation_xyz
x,y,z
x-y,x,z
-y,x-y,z
-x,-y,z
-x+y,-x,z
y,-x+y,z
x-y,-y,-z
-x,-x+y,-z
y,x,-z
-y,-x,-z
-x+y,y,-z
x,x-y,-z
-x,-y,-z
-x+y,-x,-z
y,-x+y,-z
x,y,-z
x-y,x,-z
-y,x-y,-z
-x+y,y,z
x,x-y,z
-y,-x,z
y,x,z
x-y,-y,z
-x,-x+y,z
loop_
_atom_site_type_symbol
_atom_site_label
_atom_site_fract_x
_atom_site_fract_y
_atom_site_fract_z
Si Si1 0.163056 0.497077 0.051257
Si Si2 0.097385 0.737051 0.124551
Si Si3 0.897976 0.532173 0.795038
Si Si4 0.505388 0.835457 0.604772
Si Si5 0.000000 0.588327 0.550145
Si Si6 0.903509 0.363547 0.301024
O O1 0.260057 0.520113 0.055974
O O2 0.152913 0.576457 0.063349
O O3 0.110085 0.417853 0.082170
O O4 0.141119 0.478058 0.000000
O O5 0.164391 0.835610 0.121816
O O6 0.121799 0.698487 0.165903
O O7 0.000000 0.709901 0.128604
O O8 0.868803 0.434402 0.803095
O O9 0.869787 0.543957 0.746841
O O10 0.000000 0.579983 0.792598
O O11 0.413344 0.826688 0.602309
O O12 0.501885 0.750943 0.589778
O O13 0.534065 0.853605 0.655438
O O14 0.567566 0.916236 0.576236
O O15 0.000000 0.500000 0.549826
O O16 0.000000 0.613290 0.500000
O O17 0.906347 0.453174 0.299783
O O18 0.000000 0.386511 0.305758
#
# Coordination Sequence:
#
# PCOD9587151 Si02
#       6
#    24  24  24  24  12  24
#     4   9  17  29  46  68  94 122 148 172 201 243
#     4  10  20  32  45  62  85 112 144 183 225 264
#     4   8  14  25  43  65  87 111 139 169 202 248
#     4  10  18  28  43  63  86 112 145 183 217 251
#     4   9  18  32  46  58  78 110 143 175 216 262
#     4   8  13  24  41  60  84 115 146 171 200 243
#
# _framework density 14.753049000000001
#
# number of rings (size 3 to 8) (size 9 to 14) (size 15 to 20)
#    0.000    3.000    0.909    2.000    0.000    3.273 
#    0.000    0.909    0.000    1.636    0.000    0.000 
#    0.000    0.000    0.000    4.818    0.000    1.182 
#
# Total GULP energy -734912.773941 kJ/mol
# GULP energy per Si atom -5567.521015 kJ/mol
# Density = 1.471947 g / cm^3
# Si number density = 14.753049 Si / 1000 Ang^3
#
#
#
# Elastic Constant Matrix: (Units=GPa)
#
#
# Indices 1 2 3 4 5 6 
#
# 1 66.4831 38.4161 35.2070 0.0000 0.0000 0.0000
# 2 38.4161 66.4831 35.2070 0.0000 0.0000 0.0000
# 3 35.2070 35.2070 79.7994 0.0000 0.0000 0.0000
# 4 0.0000 0.0000 0.0000 5.6822 0.0000 0.0000
# 5 0.0000 0.0000 0.0000 0.0000 5.6822 0.0000
# 6 0.0000 0.0000 0.0000 0.0000 0.0000 14.0335
#
#
#
# Elastic Compliance Matrix: (Units=1/GPa)
#
#
# Indices 1 2 3 4 5 6 
#
# 1 0.024587 -0.011042 -0.005976 0.000000 0.000000 0.000000
# 2 -0.011042 0.024587 -0.005976 0.000000 0.000000 0.000000
# 3 -0.005976 -0.005976 0.017804 0.000000 0.000000 0.000000
# 4 0.000000 0.000000 0.000000 0.175987 0.000000 0.000000
# 5 0.000000 0.000000 0.000000 0.000000 0.175987 0.000000
# 6 0.000000 0.000000 0.000000 0.000000 0.000000 0.071258
#
#
# Mechanical properties :
#
#
# Convention : Reuss Voigt Hill
#
# Bulk Modulus (GPa) = 47.64152 47.82508 47.73330
# Shear Modulus (GPa) = 9.20483 12.00863 10.60673
#
# Velocity S-wave (km/s) = 2.50056 2.85612 2.68424
# Velocity P-wave (km/s) = 6.37964 6.58514 6.48320
#
# Compressibility (1/GPa) = 0.02099009
#
# Stress axis : x y z
#
# Youngs Moduli (GPa) = 40.67260 40.67260 56.16657
#
# Poissons Ratio (x) = 0.44913 0.33563
# Poissons Ratio (y) = 0.44913 0.33563
# Poissons Ratio (z) = 0.24304 0.24304
#
# Static dielectric constant tensor:
#      x y z
#    x 1.473780 0.000000 0.000000 
#    y 0.000000 1.473780 0.000000 
#    z 0.000000 0.000000 1.522490 
# 
# From -- ./inp_files/10457.got.cif
#   From: 2010.05.17/outbox.cif.g08.bks.cpg/sg191_6_cif.got.tgz:10457.got - 2010.05.20 12:20:32.
