data_PCOD9587568
_publ_section_title
;
Structure prediction by ZEFSAII (Michael W. Deem and Ramdas Pophale) SiO2 
 PCOD9587568
Probable space group: P 6/M M M
;
_chemical_formula_sum "Si O2"
_cell_formula_units_Z 192
_cell_length_a 23.063696
_cell_length_b 23.063696
_cell_length_c 23.719724
_cell_angle_alpha 90.000000
_cell_angle_beta 90.000000
_cell_angle_gamma 120.000000
_cell_volume 10926.927790
_symmetry_space_group_name_H-M "P 6/M M M"
_symmetry_group_IT_number 191
_symmetry_cell_setting 'hexagonal'
loop_
_space_group_symop_operation_xyz
x,y,z
x-y,x,z
-y,x-y,z
-x,-y,z
-x+y,-x,z
y,-x+y,z
x-y,-y,-z
-x,-x+y,-z
y,x,-z
-y,-x,-z
-x+y,y,-z
x,x-y,-z
-x,-y,-z
-x+y,-x,-z
y,-x+y,-z
x,y,-z
x-y,x,-z
-y,x-y,-z
-x+y,y,z
x,x-y,z
-y,-x,z
y,x,z
x-y,-y,z
-x,-x+y,z
loop_
_atom_site_type_symbol
_atom_site_label
_atom_site_fract_x
_atom_site_fract_y
_atom_site_fract_z
Si Si1 0.281485 0.075945 0.931453
Si Si2 0.589310 0.861643 0.243508
Si Si3 0.540491 0.333031 0.683226
Si Si4 0.356274 0.276387 0.562402
Si Si5 0.285970 0.438931 0.932654
Si Si6 0.641734 0.485939 0.562197
Si Si7 0.920509 0.527387 0.845120
Si Si8 0.208259 0.921874 0.676500
O O1 0.261788 0.130894 0.912213
O O2 0.359835 0.106334 0.917934
O O3 0.236387 0.000000 0.910886
O O4 0.277791 0.074320 0.000000
O O5 0.588919 0.794460 0.221543
O O6 0.532902 0.836411 0.291999
O O7 0.565152 0.897555 0.199303
O O8 0.660263 0.907365 0.273542
O O9 0.565838 0.282919 0.701806
O O10 0.592010 0.407991 0.701737
O O11 0.536357 0.332805 0.615729
O O12 0.345675 0.243848 0.500000
O O13 0.318976 0.318976 0.561858
O O14 0.435189 0.327443 0.568042
O O15 0.327037 0.230041 0.617086
O O16 0.228923 0.457846 0.918222
O O17 0.355137 0.478439 0.899838
O O18 0.294915 0.444689 0.000000
O O19 0.661794 0.474302 0.500000
O O20 0.561004 0.438997 0.564619
O O21 0.908718 0.454359 0.827654
O O22 0.000000 0.572965 0.855895
O O23 0.129840 0.870161 0.684155
O O24 0.231981 0.000000 0.675171
#
# Coordination Sequence:
#
# PCOD9587568 Si02
#       8
#    24  24  24  24  24  24  24  24
#     4   8  13  22  39  64  93 125 161 200 241 286
#     4  10  20  36  56  74  96 131 174 218 258 296
#     4  10  19  31  46  65  90 125 170 217 263 309
#     4   9  17  29  46  70 100 132 168 211 258 311
#     4   9  18  34  56  79 102 131 168 211 255 296
#     4   9  17  28  42  63  93 128 167 214 267 319
#     4  11  23  36  52  77 109 141 169 203 250 304
#     4  10  20  35  55  79 105 134 168 207 254 306
#
# _framework density 17.571269000000001
#
# number of rings (size 3 to 8) (size 9 to 14) (size 15 to 20)
#    0.000    2.500    1.250    2.375    0.000    1.750 
#    0.000    3.125    0.000    3.750    0.000    0.875 
#    0.000    0.000    0.000    3.125    0.000   26.000 
#
# Total GULP energy -1069184.763626 kJ/mol
# GULP energy per Si atom -5568.670644 kJ/mol
# Density = 1.753128 g / cm^3
# Si number density = 17.571269 Si / 1000 Ang^3
#
#
#
# Elastic Constant Matrix: (Units=GPa)
#
#
# Indices 1 2 3 4 5 6 
#
# 1 80.7722 53.6991 25.9987 0.0000 0.0000 0.0000
# 2 53.6991 80.7722 25.9987 0.0000 0.0000 0.0000
# 3 25.9987 25.9987 57.4213 0.0000 0.0000 0.0000
# 4 0.0000 0.0000 0.0000 18.1801 0.0000 0.0000
# 5 0.0000 0.0000 0.0000 0.0000 18.1801 0.0000
# 6 0.0000 0.0000 0.0000 0.0000 0.0000 13.5365
#
#
#
# Elastic Compliance Matrix: (Units=1/GPa)
#
#
# Indices 1 2 3 4 5 6 
#
# 1 0.022976 -0.013961 -0.004082 0.000000 0.000000 0.000000
# 2 -0.013961 0.022976 -0.004082 0.000000 0.000000 0.000000
# 3 -0.004082 -0.004082 0.021111 0.000000 0.000000 0.000000
# 4 0.000000 0.000000 0.000000 0.055005 0.000000 0.000000
# 5 0.000000 0.000000 0.000000 0.000000 0.055005 0.000000
# 6 0.000000 0.000000 0.000000 0.000000 0.000000 0.073874
#
#
# Mechanical properties :
#
#
# Convention : Reuss Voigt Hill
#
# Bulk Modulus (GPa) = 43.83218 47.81762 45.82490
# Shear Modulus (GPa) = 16.51247 17.53062 17.02154
#
# Velocity S-wave (km/s) = 3.06885 3.16204 3.11579
# Velocity P-wave (km/s) = 6.12835 6.37212 6.25142
#
# Compressibility (1/GPa) = 0.02281429
#
# Stress axis : x y z
#
# Youngs Moduli (GPa) = 43.52378 43.52378 47.36818
#
# Poissons Ratio (x) = 0.60764 0.19334
# Poissons Ratio (y) = 0.60764 0.19334
# Poissons Ratio (z) = 0.17765 0.17765
#
# Static dielectric constant tensor:
#      x y z
#    x 1.587930 0.000000 0.000000 
#    y 0.000000 1.587930 0.000000 
#    z 0.000000 0.000000 1.638050 
# 
# From -- ./inp_files/9347.got.cif
#   From: 2010.05.17/outbox.cif.g08.bks.cpg/sg191_5_cif.got.tgz:9347.got - 2010.05.20 12:20:32.
