data_PCOD9587470
_publ_section_title
;
Structure prediction by ZEFSAII (Michael W. Deem and Ramdas Pophale) SiO2 
 PCOD9587470
Probable space group: P 6/M M M
;
_chemical_formula_sum "Si O2"
_cell_formula_units_Z 168
_cell_length_a 22.145453
_cell_length_b 22.145453
_cell_length_c 24.474339
_cell_angle_alpha 90.000000
_cell_angle_beta 90.000000
_cell_angle_gamma 120.000000
_cell_volume 10394.670805
_symmetry_space_group_name_H-M "P 6/M M M"
_symmetry_group_IT_number 191
_symmetry_cell_setting 'hexagonal'
loop_
_space_group_symop_operation_xyz
x,y,z
x-y,x,z
-y,x-y,z
-x,-y,z
-x+y,-x,z
y,-x+y,z
x-y,-y,-z
-x,-x+y,-z
y,x,-z
-y,-x,-z
-x+y,y,-z
x,x-y,-z
-x,-y,-z
-x+y,-x,-z
y,-x+y,-z
x,y,-z
x-y,x,-z
-y,x-y,-z
-x+y,y,z
x,x-y,z
-y,-x,z
y,x,z
x-y,-y,z
-x,-x+y,z
loop_
_atom_site_type_symbol
_atom_site_label
_atom_site_fract_x
_atom_site_fract_y
_atom_site_fract_z
Si Si1 0.780641 0.077854 0.658265
Si Si2 0.415506 0.081651 0.728138
Si Si3 0.922156 0.210664 0.065924
Si Si4 0.811255 0.476705 0.643261
Si Si5 0.156564 0.702293 0.063002
Si Si6 0.403427 0.128859 0.561253
Si Si7 0.608571 0.080491 0.841325
O O1 0.859695 0.140306 0.657068
O O2 0.738702 0.089223 0.707606
O O3 0.741466 0.083602 0.603984
O O4 0.767190 0.000000 0.661821
O O5 0.481217 0.136343 0.692783
O O6 0.433698 0.095172 0.791841
O O7 0.391774 0.000000 0.718079
O O8 0.865478 0.134523 0.087027
O O9 0.890077 0.261062 0.073523
O O10 0.000000 0.244276 0.088123
O O11 0.925544 0.204839 0.000000
O O12 0.738588 0.477176 0.649789
O O13 0.798569 0.399285 0.639489
O O14 0.850238 0.523336 0.589937
O O15 0.236396 0.763605 0.068724
O O16 0.131259 0.643058 0.107886
O O17 0.145430 0.678075 0.000000
O O18 0.395309 0.100561 0.500000
O O19 0.402659 0.201330 0.558048
O O20 0.543074 0.086148 0.819653
O O21 0.577036 0.000000 0.859187
#
# Coordination Sequence:
#
# PCOD9587470 Si02
#       7
#    24  24  24  24  24  24  24
#     4   9  17  30  50  74  99 128 161 198 238 278
#     4   9  18  33  50  67  89 118 154 195 237 279
#     4   8  13  22  37  56  78 105 137 172 209 250
#     4  10  19  30  45  65  91 123 159 199 242 291
#     4   9  18  31  46  65  89 118 150 182 219 266
#     4   8  15  28  44  63  89 122 160 199 237 276
#     4  10  20  32  48  71  95 117 144 183 231 279
#
# _framework density 16.162127999999999
#
# number of rings (size 3 to 8) (size 9 to 14) (size 15 to 20)
#    0.000    3.000    0.000    3.143    0.000    3.714 
#    0.000    0.714    0.000    1.429    0.000    5.000 
#    0.000    0.000    0.000    3.571    0.000   18.571 
#
# Total GULP energy -935269.190360 kJ/mol
# GULP energy per Si atom -5567.078514 kJ/mol
# Density = 1.612534 g / cm^3
# Si number density = 16.162128 Si / 1000 Ang^3
#
#
#
# Elastic Constant Matrix: (Units=GPa)
#
#
# Indices 1 2 3 4 5 6 
#
# 1 66.7460 31.6416 28.9776 0.0000 0.0000 0.0000
# 2 31.6416 66.7460 28.9776 0.0000 0.0000 0.0000
# 3 28.9776 28.9776 78.1855 0.0000 0.0000 0.0000
# 4 0.0000 0.0000 0.0000 14.0019 0.0000 0.0000
# 5 0.0000 0.0000 0.0000 0.0000 14.0019 0.0000
# 6 0.0000 0.0000 0.0000 0.0000 0.0000 17.5522
#
#
#
# Elastic Compliance Matrix: (Units=1/GPa)
#
#
# Indices 1 2 3 4 5 6 
#
# 1 0.020745 -0.007742 -0.004819 0.000000 0.000000 0.000000
# 2 -0.007742 0.020745 -0.004819 0.000000 0.000000 0.000000
# 3 -0.004819 -0.004819 0.016362 0.000000 0.000000 0.000000
# 4 0.000000 0.000000 0.000000 0.071419 0.000000 0.000000
# 5 0.000000 0.000000 0.000000 0.000000 0.071419 0.000000
# 6 0.000000 0.000000 0.000000 0.000000 0.000000 0.056973
#
#
# Mechanical properties :
#
#
# Convention : Reuss Voigt Hill
#
# Bulk Modulus (GPa) = 43.30687 43.43012 43.36850
# Shear Modulus (GPa) = 16.66007 17.24992 16.95500
#
# Velocity S-wave (km/s) = 3.21410 3.27051 3.24243
# Velocity P-wave (km/s) = 6.37396 6.41806 6.39605
#
# Compressibility (1/GPa) = 0.02309102
#
# Stress axis : x y z
#
# Youngs Moduli (GPa) = 48.20552 48.20552 61.11618
#
# Poissons Ratio (x) = 0.37320 0.29453
# Poissons Ratio (y) = 0.37320 0.29453
# Poissons Ratio (z) = 0.23231 0.23231
#
# Static dielectric constant tensor:
#      x y z
#    x 1.542460 0.000000 0.000000 
#    y 0.000000 1.542460 0.000000 
#    z 0.000000 0.000000 1.555290 
# 
# From -- ./inp_files/8969.got.cif
#   From: 2010.05.17/outbox.cif.g08.bks.cpg/sg191_5_cif.got.tgz:8969.got - 2010.05.20 12:20:32.
