data_PCOD9587801
_publ_section_title
;
Structure prediction by ZEFSAII (Michael W. Deem and Ramdas Pophale) SiO2 
 PCOD9587801
Probable space group: P 6/M M M
;
_chemical_formula_sum "Si O2"
_cell_formula_units_Z 168
_cell_length_a 18.715047
_cell_length_b 18.715047
_cell_length_c 35.450930
_cell_angle_alpha 90.000000
_cell_angle_beta 90.000000
_cell_angle_gamma 120.000000
_cell_volume 10753.259060
_symmetry_space_group_name_H-M "P 6/M M M"
_symmetry_group_IT_number 191
_symmetry_cell_setting 'hexagonal'
loop_
_space_group_symop_operation_xyz
x,y,z
x-y,x,z
-y,x-y,z
-x,-y,z
-x+y,-x,z
y,-x+y,z
x-y,-y,-z
-x,-x+y,-z
y,x,-z
-y,-x,-z
-x+y,y,-z
x,x-y,-z
-x,-y,-z
-x+y,-x,-z
y,-x+y,-z
x,y,-z
x-y,x,-z
-y,x-y,-z
-x+y,y,z
x,x-y,z
-y,-x,z
y,x,z
x-y,-y,z
-x,-x+y,z
loop_
_atom_site_type_symbol
_atom_site_label
_atom_site_fract_x
_atom_site_fract_y
_atom_site_fract_z
Si Si1 0.500181 0.834399 0.258240
Si Si2 0.630528 0.530502 0.043024
Si Si3 0.255953 0.907711 0.312488
Si Si4 0.261380 0.358511 0.109029
Si Si5 0.165441 0.666189 0.169762
Si Si6 0.164736 0.666267 0.543614
Si Si7 0.907341 0.650726 0.400618
O O1 0.420414 0.840827 0.267805
O O2 0.480915 0.740457 0.262641
O O3 0.576433 0.889135 0.285184
O O4 0.519545 0.855690 0.214017
O O5 0.564001 0.436000 0.053731
O O6 0.578301 0.578301 0.042592
O O7 0.702168 0.581248 0.072663
O O8 0.658301 0.531070 0.000000
O O9 0.162285 0.837716 0.305033
O O10 0.273719 0.899829 0.356487
O O11 0.275158 0.000000 0.306584
O O12 0.164034 0.328068 0.111971
O O13 0.289934 0.289934 0.106811
O O14 0.307654 0.419615 0.144129
O O15 0.155866 0.577933 0.159668
O O16 0.260630 0.739371 0.165267
O O17 0.139765 0.666236 0.500000
O O18 0.159456 0.579728 0.551273
O O19 0.259030 0.740971 0.547124
O O20 0.111932 0.686565 0.572410
O O21 0.837211 0.674422 0.408144
O O22 0.000000 0.723225 0.406822
#
# Coordination Sequence:
#
# PCOD9587801 Si02
#       7
#    24  24  24  24  24  24  24
#     4   9  17  29  45  66  93 124 154 180 207 244
#     4   8  14  26  45  68  92 116 141 170 207 254
#     4   9  18  32  48  65  86 113 145 181 222 265
#     4  10  20  32  46  65  89 117 150 189 231 272
#     4   9  17  29  46  68  94 122 149 177 211 254
#     4   9  17  29  45  65  90 120 152 183 213 246
#     4   9  18  32  48  65  86 113 144 179 221 267
#
# _framework density 15.623170999999999
#
# number of rings (size 3 to 8) (size 9 to 14) (size 15 to 20)
#    0.000    3.000    0.000    1.286    0.000    4.857 
#    0.000    3.571    0.000    2.429    0.000    2.000 
#    0.000    0.000    0.000   14.286    0.000    7.429 
#
# Total GULP energy -935604.596478 kJ/mol
# GULP energy per Si atom -5569.074979 kJ/mol
# Density = 1.558761 g / cm^3
# Si number density = 15.623171 Si / 1000 Ang^3
#
#
#
# Elastic Constant Matrix: (Units=GPa)
#
#
# Indices 1 2 3 4 5 6 
#
# 1 73.0621 60.9073 46.7625 0.0000 0.0000 0.0000
# 2 60.9073 73.0621 46.7625 0.0000 0.0000 0.0000
# 3 46.7625 46.7625 53.5893 0.0000 0.0000 0.0000
# 4 0.0000 0.0000 0.0000 19.9965 0.0000 0.0000
# 5 0.0000 0.0000 0.0000 0.0000 19.9965 0.0000
# 6 0.0000 0.0000 0.0000 0.0000 0.0000 6.0774
#
#
#
# Elastic Compliance Matrix: (Units=1/GPa)
#
#
# Indices 1 2 3 4 5 6 
#
# 1 0.050686 -0.031587 -0.016666 0.000000 0.000000 0.000000
# 2 -0.031587 0.050686 -0.016666 0.000000 0.000000 0.000000
# 3 -0.016666 -0.016666 0.047746 0.000000 0.000000 0.000000
# 4 0.000000 0.000000 0.000000 0.050009 0.000000 0.000000
# 5 0.000000 0.000000 0.000000 0.000000 0.050009 0.000000
# 6 0.000000 0.000000 0.000000 0.000000 0.000000 0.164545
#
#
# Mechanical properties :
#
#
# Convention : Reuss Voigt Hill
#
# Bulk Modulus (GPa) = 51.86630 56.50868 54.18749
# Shear Modulus (GPa) = 9.09182 12.23280 10.66231
#
# Velocity S-wave (km/s) = 2.41497 2.80123 2.61524
# Velocity P-wave (km/s) = 6.40675 6.83453 6.62410
#
# Compressibility (1/GPa) = 0.01928034
#
# Stress axis : x y z
#
# Youngs Moduli (GPa) = 19.72940 19.72940 20.94396
#
# Poissons Ratio (x) = 0.62319 0.34905
# Poissons Ratio (y) = 0.62319 0.34905
# Poissons Ratio (z) = 0.32881 0.32881
#
# Static dielectric constant tensor:
#      x y z
#    x 1.508650 0.000000 0.000000 
#    y 0.000000 1.508650 0.000000 
#    z 0.000000 0.000000 1.535060 
# 
# From -- ./inp_files/10757.got.cif
#   From: 2010.05.17/outbox.cif.g08.bks.cpg/sg191_6_cif.got.tgz:10757.got - 2010.05.20 12:20:32.
