data_PCOD9587921
_publ_section_title
;
Structure prediction by ZEFSAII (Michael W. Deem and Ramdas Pophale) SiO2 
 PCOD9587921
Probable space group: P 6/M M M
;
_chemical_formula_sum "Si O2"
_cell_formula_units_Z 84
_cell_length_a 17.997177
_cell_length_b 17.997177
_cell_length_c 18.287373
_cell_angle_alpha 90.000000
_cell_angle_beta 90.000000
_cell_angle_gamma 120.000000
_cell_volume 5129.685396
_symmetry_space_group_name_H-M "P 6/M M M"
_symmetry_group_IT_number 191
_symmetry_cell_setting 'hexagonal'
loop_
_space_group_symop_operation_xyz
x,y,z
x-y,x,z
-y,x-y,z
-x,-y,z
-x+y,-x,z
y,-x+y,z
x-y,-y,-z
-x,-x+y,-z
y,x,-z
-y,-x,-z
-x+y,y,-z
x,x-y,-z
-x,-y,-z
-x+y,-x,-z
y,-x+y,-z
x,y,-z
x-y,x,-z
-y,x-y,-z
-x+y,y,z
x,x-y,z
-y,-x,z
y,x,z
x-y,-y,z
-x,-x+y,z
loop_
_atom_site_type_symbol
_atom_site_label
_atom_site_fract_x
_atom_site_fract_y
_atom_site_fract_z
Si Si1 0.265775 0.365286 0.084312
Si Si2 0.731299 0.631060 0.360667
Si Si3 0.635177 0.103597 0.780874
Si Si4 0.157738 0.667323 0.500000
O O1 0.164923 0.329845 0.093005
O O2 0.295854 0.295854 0.097760
O O3 0.314795 0.440831 0.142644
O O4 0.288356 0.394403 0.000000
O O5 0.832262 0.664524 0.368738
O O6 0.702581 0.702581 0.357123
O O7 0.697893 0.573550 0.287458
O O8 0.683632 0.568381 0.428865
O O9 0.569287 0.138573 0.773578
O O10 0.578098 0.000000 0.780518
O O11 0.257532 0.742468 0.500000
O O12 0.148463 0.574232 0.500000
#
# Coordination Sequence:
#
# PCOD9587921 Si02
#       4
#    24  24  24  12
#     4   9  17  29  46  68  93 122 157 196 236 277
#     4  10  20  33  50  72  97 126 160 197 235 275
#     4   9  17  29  46  68  91 115 147 187 229 275
#     4  10  20  33  50  73 100 128 157 192 236 283
#
# _framework density 16.375274000000001
#
# number of rings (size 3 to 8) (size 9 to 14) (size 15 to 20)
#    0.000    2.571    0.000    2.286    0.000    2.857 
#    0.000    2.857    0.000    6.857    0.000    2.000 
#    0.000   10.286    0.000    0.286    0.000    1.143 
#
# Total GULP energy -467900.072489 kJ/mol
# GULP energy per Si atom -5570.238958 kJ/mol
# Density = 1.633800 g / cm^3
# Si number density = 16.375274 Si / 1000 Ang^3
#
#
#
# Elastic Constant Matrix: (Units=GPa)
#
#
# Indices 1 2 3 4 5 6 
#
# 1 88.1294 58.9021 39.7738 0.0000 0.0000 0.0000
# 2 58.9021 88.1294 39.7738 0.0000 0.0000 0.0000
# 3 39.7738 39.7738 98.5081 0.0000 0.0000 0.0000
# 4 0.0000 0.0000 0.0000 16.1905 0.0000 0.0000
# 5 0.0000 0.0000 0.0000 0.0000 16.1905 0.0000
# 6 0.0000 0.0000 0.0000 0.0000 0.0000 14.6136
#
#
#
# Elastic Compliance Matrix: (Units=1/GPa)
#
#
# Indices 1 2 3 4 5 6 
#
# 1 0.021458 -0.012756 -0.003514 0.000000 0.000000 0.000000
# 2 -0.012756 0.021458 -0.003514 0.000000 0.000000 0.000000
# 3 -0.003514 -0.003514 0.012989 0.000000 0.000000 0.000000
# 4 0.000000 0.000000 0.000000 0.061765 0.000000 0.000000
# 5 0.000000 0.000000 0.000000 0.000000 0.061765 0.000000
# 6 0.000000 0.000000 0.000000 0.000000 0.000000 0.068429
#
#
# Mechanical properties :
#
#
# Convention : Reuss Voigt Hill
#
# Bulk Modulus (GPa) = 61.20427 61.29626 61.25027
# Shear Modulus (GPa) = 17.07199 18.48673 17.77936
#
# Velocity S-wave (km/s) = 3.23235 3.36362 3.29864
# Velocity P-wave (km/s) = 7.16854 7.25250 7.21064
#
# Compressibility (1/GPa) = 0.01633873
#
# Stress axis : x y z
#
# Youngs Moduli (GPa) = 46.60176 46.60176 76.98947
#
# Poissons Ratio (x) = 0.59446 0.27051
# Poissons Ratio (y) = 0.59446 0.27051
# Poissons Ratio (z) = 0.16374 0.16374
#
# Static dielectric constant tensor:
#      x y z
#    x 1.543390 0.000000 0.000000 
#    y 0.000000 1.543390 0.000000 
#    z 0.000000 0.000000 1.565190 
# 
# From -- ./inp_files/3977.got.cif
#   From: 2010.05.17/outbox.cif.g08.bks.cpg/sg191_2_cif.got.tgz:3977.got - 2010.05.20 12:20:32.
