data_PCOD9587266
_publ_section_title
;
Structure prediction by ZEFSAII (Michael W. Deem and Ramdas Pophale) SiO2 
 PCOD9587266
Probable space group: P 6/M M M
;
_chemical_formula_sum "Si O2"
_cell_formula_units_Z 120
_cell_length_a 24.757546
_cell_length_b 24.757546
_cell_length_c 12.945323
_cell_angle_alpha 90.000000
_cell_angle_beta 90.000000
_cell_angle_gamma 120.000000
_cell_volume 6871.613307
_symmetry_space_group_name_H-M "P 6/M M M"
_symmetry_group_IT_number 191
_symmetry_cell_setting 'hexagonal'
loop_
_space_group_symop_operation_xyz
x,y,z
x-y,x,z
-y,x-y,z
-x,-y,z
-x+y,-x,z
y,-x+y,z
x-y,-y,-z
-x,-x+y,-z
y,x,-z
-y,-x,-z
-x+y,y,-z
x,x-y,-z
-x,-y,-z
-x+y,-x,-z
y,-x+y,-z
x,y,-z
x-y,x,-z
-y,x-y,-z
-x+y,y,z
x,x-y,z
-y,-x,z
y,x,z
x-y,-y,z
-x,-x+y,z
loop_
_atom_site_type_symbol
_atom_site_label
_atom_site_fract_x
_atom_site_fract_y
_atom_site_fract_z
Si Si1 0.452907 0.665600 0.830866
Si Si2 0.000000 0.560163 0.875935
Si Si3 0.267087 0.194464 0.500000
Si Si4 0.074426 0.356229 0.676497
Si Si5 0.692162 0.180546 0.614133
Si Si6 0.413168 0.110304 0.882828
O O1 0.429004 0.714502 0.844205
O O2 0.402284 0.597717 0.870909
O O3 0.465286 0.661045 0.709295
O O4 0.521953 0.696677 0.878304
O O5 0.939765 0.565575 0.852132
O O6 0.000000 0.500000 0.830952
O O7 0.000000 0.555084 0.000000
O O8 0.214932 0.214932 0.500000
O O9 0.243609 0.121805 0.500000
O O10 0.310723 0.226644 0.600276
O O11 0.114627 0.425956 0.631038
O O12 0.101309 0.364639 0.793234
O O13 0.000000 0.328925 0.679345
O O14 0.669287 0.183629 0.500000
O O15 0.765188 0.234813 0.619568
O O16 0.388742 0.098393 0.000000
#
# Coordination Sequence:
#
# PCOD9587266 Si02
#       6
#    24  12  12  24  24  24
#     4  10  21  35  50  68  91 122 163 213 264 311
#     4   9  16  28  48  69  93 129 169 210 251 300
#     4  10  20  34  56  85 114 146 180 212 246 290
#     4  10  18  29  50  78 106 136 167 204 248 300
#     4   9  17  30  48  68  93 125 160 200 248 304
#     4  10  20  34  51  73 101 131 169 209 254 313
#
# _framework density 17.463149000000001
#
# number of rings (size 3 to 8) (size 9 to 14) (size 15 to 20)
#    0.000    2.300    2.000    1.400    0.000    2.800 
#    0.000    0.000    0.000    2.500    0.000    3.500 
#    0.000    0.000    0.000    0.000    0.000    0.000 
#
# Total GULP energy -668828.827559 kJ/mol
# GULP energy per Si atom -5573.573563 kJ/mol
# Density = 1.742340 g / cm^3
# Si number density = 17.463149 Si / 1000 Ang^3
#
#
#
# Elastic Constant Matrix: (Units=GPa)
#
#
# Indices 1 2 3 4 5 6 
#
# 1 58.1668 35.4561 18.6302 0.0000 0.0000 0.0000
# 2 35.4561 58.1668 18.6302 0.0000 0.0000 0.0000
# 3 18.6302 18.6302 117.3054 0.0000 0.0000 0.0000
# 4 0.0000 0.0000 0.0000 7.8310 0.0000 0.0000
# 5 0.0000 0.0000 0.0000 0.0000 7.8310 0.0000
# 6 0.0000 0.0000 0.0000 0.0000 0.0000 11.3553
#
#
#
# Elastic Compliance Matrix: (Units=1/GPa)
#
#
# Indices 1 2 3 4 5 6 
#
# 1 0.027717 -0.016315 -0.001811 0.000000 0.000000 0.000000
# 2 -0.016315 0.027717 -0.001811 0.000000 0.000000 0.000000
# 3 -0.001811 -0.001811 0.009100 0.000000 0.000000 0.000000
# 4 0.000000 0.000000 0.000000 0.127698 0.000000 0.000000
# 5 0.000000 0.000000 0.000000 0.000000 0.127698 0.000000
# 6 0.000000 0.000000 0.000000 0.000000 0.000000 0.088064
#
#
# Mechanical properties :
#
#
# Convention : Reuss Voigt Hill
#
# Bulk Modulus (GPa) = 40.55095 42.11910 41.33503
# Shear Modulus (GPa) = 10.96278 16.13161 13.54720
#
# Velocity S-wave (km/s) = 2.50825 3.04263 2.78827
# Velocity P-wave (km/s) = 5.62669 6.04273 5.83842
#
# Compressibility (1/GPa) = 0.02466033
#
# Stress axis : x y z
#
# Youngs Moduli (GPa) = 36.07891 36.07891 109.89088
#
# Poissons Ratio (x) = 0.58863 0.19899
# Poissons Ratio (y) = 0.58863 0.19899
# Poissons Ratio (z) = 0.06533 0.06533
#
# Static dielectric constant tensor:
#      x y z
#    x 1.595280 0.000000 0.000000 
#    y 0.000000 1.595280 0.000000 
#    z 0.000000 0.000000 1.651130 
# 
# From -- ./inp_files/4823.got.cif
#   From: 2010.05.17/outbox.cif.g08.bks.cpg/sg191_3_cif.got.tgz:4823.got - 2010.05.20 12:20:32.
