data_PCOD9587853
_publ_section_title
;
Structure prediction by ZEFSAII (Michael W. Deem and Ramdas Pophale) SiO2 
 PCOD9587853
Probable space group: P 6/M M M
;
_chemical_formula_sum "Si O2"
_cell_formula_units_Z 84
_cell_length_a 18.731259
_cell_length_b 18.731259
_cell_length_c 17.448154
_cell_angle_alpha 90.000000
_cell_angle_beta 90.000000
_cell_angle_gamma 120.000000
_cell_volume 5301.686646
_symmetry_space_group_name_H-M "P 6/M M M"
_symmetry_group_IT_number 191
_symmetry_cell_setting 'hexagonal'
loop_
_space_group_symop_operation_xyz
x,y,z
x-y,x,z
-y,x-y,z
-x,-y,z
-x+y,-x,z
y,-x+y,z
x-y,-y,-z
-x,-x+y,-z
y,x,-z
-y,-x,-z
-x+y,y,-z
x,x-y,-z
-x,-y,-z
-x+y,-x,-z
y,-x+y,-z
x,y,-z
x-y,x,-z
-y,x-y,-z
-x+y,y,z
x,x-y,z
-y,-x,z
y,x,z
x-y,-y,z
-x,-x+y,z
loop_
_atom_site_type_symbol
_atom_site_label
_atom_site_fract_x
_atom_site_fract_y
_atom_site_fract_z
Si Si1 0.258958 0.905169 0.380258
Si Si2 0.332746 0.835350 0.500000
Si Si3 0.501376 0.835171 0.088737
Si Si4 0.092076 0.744805 0.801261
O O1 0.164134 0.835867 0.398351
O O2 0.315064 0.877789 0.427360
O O3 0.269933 0.901051 0.288998
O O4 0.287386 0.000000 0.399092
O O5 0.260491 0.739510 0.500000
O O6 0.422110 0.844219 0.500000
O O7 0.420035 0.840069 0.104512
O O8 0.482275 0.741138 0.096191
O O9 0.574724 0.888618 0.146707
O O10 0.525827 0.859782 0.000000
O O11 0.162296 0.837705 0.818766
O O12 0.000000 0.725014 0.815568
#
# Coordination Sequence:
#
# PCOD9587853 Si02
#       4
#    24  12  24  24
#     4   9  18  32  49  68  90 117 148 182 222 267
#     4  10  20  33  48  67  92 122 155 188 220 253
#     4   9  17  29  45  65  90 120 152 184 218 258
#     4   9  18  32  48  66  89 117 148 182 222 267
#
# _framework density 15.844015000000001
#
# number of rings (size 3 to 8) (size 9 to 14) (size 15 to 20)
#    0.000    2.857    0.000    0.857    0.000    4.571 
#    0.000    4.286    0.000    4.000    0.000    4.000 
#    0.000    3.429    0.000    7.429    0.000    7.429 
#
# Total GULP energy -467915.548071 kJ/mol
# GULP energy per Si atom -5570.423191 kJ/mol
# Density = 1.580795 g / cm^3
# Si number density = 15.844015 Si / 1000 Ang^3
#
#
#
# Elastic Constant Matrix: (Units=GPa)
#
#
# Indices 1 2 3 4 5 6 
#
# 1 98.7784 86.4772 50.0438 0.0000 0.0000 0.0000
# 2 86.4772 98.7784 50.0438 0.0000 0.0000 0.0000
# 3 50.0438 50.0438 53.7335 0.0000 0.0000 0.0000
# 4 0.0000 0.0000 0.0000 22.0088 0.0000 0.0000
# 5 0.0000 0.0000 0.0000 0.0000 22.0088 0.0000
# 6 0.0000 0.0000 0.0000 0.0000 0.0000 6.1506
#
#
#
# Elastic Compliance Matrix: (Units=1/GPa)
#
#
# Indices 1 2 3 4 5 6 
#
# 1 0.046079 -0.035214 -0.010119 0.000000 0.000000 0.000000
# 2 -0.035214 0.046079 -0.010119 0.000000 0.000000 0.000000
# 3 -0.010119 -0.010119 0.037458 0.000000 0.000000 0.000000
# 4 0.000000 0.000000 0.000000 0.045436 0.000000 0.000000
# 5 0.000000 0.000000 0.000000 0.000000 0.045436 0.000000
# 6 0.000000 0.000000 0.000000 0.000000 0.000000 0.162586
#
#
# Mechanical properties :
#
#
# Convention : Reuss Voigt Hill
#
# Bulk Modulus (GPa) = 53.43928 69.38000 61.40964
# Shear Modulus (GPa) = 9.99568 14.34866 12.17217
#
# Velocity S-wave (km/s) = 2.51446 3.01262 2.77474
# Velocity P-wave (km/s) = 6.49858 7.48235 7.00775
#
# Compressibility (1/GPa) = 0.01871283
#
# Stress axis : x y z
#
# Youngs Moduli (GPa) = 21.70189 21.70189 26.69640
#
# Poissons Ratio (x) = 0.76421 0.27013
# Poissons Ratio (y) = 0.76421 0.27013
# Poissons Ratio (z) = 0.21960 0.21960
#
# Static dielectric constant tensor:
#      x y z
#    x 1.515060 0.000000 0.000000 
#    y 0.000000 1.515060 0.000000 
#    z 0.000000 0.000000 1.541860 
# 
# From -- ./inp_files/3980.got.cif
#   From: 2010.05.17/outbox.cif.g08.bks.cpg/sg191_2_cif.got.tgz:3980.got - 2010.05.20 12:20:32.
