data_PCOD9587517
_publ_section_title
;
Structure prediction by ZEFSAII (Michael W. Deem and Ramdas Pophale) SiO2 
 PCOD9587517
Probable space group: P 6/M M M
;
_chemical_formula_sum "Si O2"
_cell_formula_units_Z 132
_cell_length_a 18.210922
_cell_length_b 18.210922
_cell_length_c 28.202633
_cell_angle_alpha 90.000000
_cell_angle_beta 90.000000
_cell_angle_gamma 120.000000
_cell_volume 8099.983909
_symmetry_space_group_name_H-M "P 6/M M M"
_symmetry_group_IT_number 191
_symmetry_cell_setting 'hexagonal'
loop_
_space_group_symop_operation_xyz
x,y,z
x-y,x,z
-y,x-y,z
-x,-y,z
-x+y,-x,z
y,-x+y,z
x-y,-y,-z
-x,-x+y,-z
y,x,-z
-y,-x,-z
-x+y,y,-z
x,x-y,-z
-x,-y,-z
-x+y,-x,-z
y,-x+y,-z
x,y,-z
x-y,x,-z
-y,x-y,-z
-x+y,y,z
x,x-y,z
-y,-x,z
y,x,z
x-y,-y,z
-x,-x+y,z
loop_
_atom_site_type_symbol
_atom_site_label
_atom_site_fract_x
_atom_site_fract_y
_atom_site_fract_z
Si Si1 0.731723 0.096937 0.912323
Si Si2 0.667888 0.164497 0.170340
Si Si3 0.634109 0.101621 0.275911
Si Si4 0.666257 0.160730 0.554978
Si Si5 0.160409 0.667561 0.000000
Si Si6 0.359951 0.097100 0.636486
O O1 0.830889 0.169112 0.914698
O O2 0.693920 0.110917 0.863622
O O3 0.685324 0.118795 0.954266
O O4 0.708602 0.000000 0.916508
O O5 0.573890 0.147779 0.160526
O O6 0.737543 0.262458 0.161441
O O7 0.671319 0.143415 0.225371
O O8 0.563067 0.126134 0.289833
O O9 0.700310 0.120833 0.317540
O O10 0.584083 0.000000 0.269158
O O11 0.664975 0.135807 0.500000
O O12 0.576176 0.152352 0.566054
O O13 0.741456 0.258545 0.559245
O O14 0.690035 0.108651 0.591140
O O15 0.259558 0.740442 0.000000
O O16 0.150099 0.575050 0.000000
O O17 0.328184 0.164092 0.632098
O O18 0.287988 0.000000 0.640770
#
# Coordination Sequence:
#
# PCOD9587517 Si02
#       6
#    24  24  24  24  12  24
#     4  10  21  35  51  71  94 122 156 196 241 285
#     4  10  19  30  45  67  97 131 164 194 223 258
#     4   9  17  29  46  68  93 121 153 188 224 265
#     4   9  17  29  46  69  97 127 155 181 211 252
#     4  10  20  33  50  73 102 134 165 194 224 261
#     4  10  20  33  48  66  89 117 151 191 234 277
#
# _framework density 16.296329
#
# number of rings (size 3 to 8) (size 9 to 14) (size 15 to 20)
#    0.000    2.364    0.000    2.909    0.000    4.727 
#    0.000    2.727    0.000    6.182    0.000    0.000 
#    0.000    2.182    0.000   10.364    0.000    0.000 
#
# Total GULP energy -736355.850141 kJ/mol
# GULP energy per Si atom -5578.453410 kJ/mol
# Density = 1.625924 g / cm^3
# Si number density = 16.296329 Si / 1000 Ang^3
#
#
#
# Elastic Constant Matrix: (Units=GPa)
#
#
# Indices 1 2 3 4 5 6 
#
# 1 83.0898 65.3328 37.2510 0.0000 0.0000 0.0000
# 2 65.3328 83.0898 37.2510 0.0000 0.0000 0.0000
# 3 37.2510 37.2510 61.3513 0.0000 0.0000 0.0000
# 4 0.0000 0.0000 0.0000 18.5662 0.0000 0.0000
# 5 0.0000 0.0000 0.0000 0.0000 18.5662 0.0000
# 6 0.0000 0.0000 0.0000 0.0000 0.0000 8.8785
#
#
#
# Elastic Compliance Matrix: (Units=1/GPa)
#
#
# Indices 1 2 3 4 5 6 
#
# 1 0.033004 -0.023312 -0.005884 0.000000 0.000000 0.000000
# 2 -0.023312 0.033004 -0.005884 0.000000 0.000000 0.000000
# 3 -0.005884 -0.005884 0.023445 0.000000 0.000000 0.000000
# 4 0.000000 0.000000 0.000000 0.053861 0.000000 0.000000
# 5 0.000000 0.000000 0.000000 0.000000 0.053861 0.000000
# 6 0.000000 0.000000 0.000000 0.000000 0.000000 0.112632
#
#
# Mechanical properties :
#
#
# Convention : Reuss Voigt Hill
#
# Bulk Modulus (GPa) = 51.83904 56.35560 54.09732
# Shear Modulus (GPa) = 12.94001 15.04857 13.99429
#
# Velocity S-wave (km/s) = 2.82094 3.04210 2.93360
# Velocity P-wave (km/s) = 6.51840 6.85536 6.68901
#
# Compressibility (1/GPa) = 0.01929048
#
# Stress axis : x y z
#
# Youngs Moduli (GPa) = 30.29978 30.29978 42.65284
#
# Poissons Ratio (x) = 0.70636 0.25098
# Poissons Ratio (y) = 0.70636 0.25098
# Poissons Ratio (z) = 0.17829 0.17829
#
# Static dielectric constant tensor:
#      x y z
#    x 1.531340 0.000000 0.000000 
#    y 0.000000 1.531340 0.000000 
#    z 0.000000 0.000000 1.556120 
# 
# From -- ./inp_files/8717.got.cif
#   From: 2010.05.17/outbox.cif.g08.bks.cpg/sg191_5_cif.got.tgz:8717.got - 2010.05.20 12:20:32.
