data_PCOD9587193
_publ_section_title
;
Structure prediction by ZEFSAII (Michael W. Deem and Ramdas Pophale) SiO2 
 PCOD9587193
Probable space group: P 6/M M M
;
_chemical_formula_sum "Si O2"
_cell_formula_units_Z 96
_cell_length_a 29.700467
_cell_length_b 29.700467
_cell_length_c 7.292444
_cell_angle_alpha 90.000000
_cell_angle_beta 90.000000
_cell_angle_gamma 120.000000
_cell_volume 5570.963212
_symmetry_space_group_name_H-M "P 6/M M M"
_symmetry_group_IT_number 191
_symmetry_cell_setting 'hexagonal'
loop_
_space_group_symop_operation_xyz
x,y,z
x-y,x,z
-y,x-y,z
-x,-y,z
-x+y,-x,z
y,-x+y,z
x-y,-y,-z
-x,-x+y,-z
y,x,-z
-y,-x,-z
-x+y,y,-z
x,x-y,-z
-x,-y,-z
-x+y,-x,-z
y,-x+y,-z
x,y,-z
x-y,x,-z
-y,x-y,-z
-x+y,y,z
x,x-y,z
-y,-x,z
y,x,z
x-y,-y,z
-x,-x+y,z
loop_
_atom_site_type_symbol
_atom_site_label
_atom_site_fract_x
_atom_site_fract_y
_atom_site_fract_z
Si Si1 0.937996 0.517451 0.778987
Si Si2 0.896314 0.689496 0.775944
Si Si3 0.897102 0.897102 0.720769
Si Si4 0.208859 0.208859 0.785200
Si Si5 0.060734 0.383583 0.776756
O O1 0.917331 0.458666 0.712329
O O2 0.919582 0.557328 0.715496
O O3 0.000000 0.548614 0.742192
O O4 0.932351 0.514279 0.000000
O O5 0.842734 0.685467 0.715665
O O6 0.946615 0.743127 0.713398
O O7 0.906130 0.642899 0.719723
O O8 0.895648 0.689966 0.000000
O O9 0.896029 0.948015 0.786157
O O10 0.899930 0.899930 0.500000
O O11 0.844684 0.844684 0.767758
O O12 0.220533 0.220533 0.000000
O O13 0.000000 0.347393 0.722950
O O14 0.060464 0.383914 0.000000
#
# Coordination Sequence:
#
# PCOD9587193 Si02
#       5
#    24  24  12  12  24
#     4   7   9  12  19  31  46  67  96 124 144 167
#     4   9  15  21  30  45  64  85 107 130 159 196
#     4  10  21  36  50  60  70  85 105 133 175 224
#     4  10  18  29  43  59  75  90 110 138 167 202
#     4   8  11  16  24  34  52  76 100 124 151 185
#
# _framework density 17.232208
#
# number of rings (size 3 to 8) (size 9 to 14) (size 15 to 20)
#    0.000    3.500    1.250    3.125    0.000    2.000 
#    0.000    0.000    0.000    0.750    0.000    0.000 
#    0.000    0.000    0.000    0.750    0.000   26.500 
#
# Total GULP energy -534825.253790 kJ/mol
# GULP energy per Si atom -5571.096394 kJ/mol
# Density = 1.719299 g / cm^3
# Si number density = 17.232208 Si / 1000 Ang^3
#
#
#
# Elastic Constant Matrix: (Units=GPa)
#
#
# Indices 1 2 3 4 5 6 
#
# 1 143.7311 105.5305 2.9303 0.0000 0.0000 0.0000
# 2 105.5305 143.7311 2.9303 0.0000 0.0000 0.0000
# 3 2.9303 2.9303 68.8782 0.0000 0.0000 0.0000
# 4 0.0000 0.0000 0.0000 -69.8743 0.0000 0.0000
# 5 0.0000 0.0000 0.0000 0.0000 -69.8743 0.0000
# 6 0.0000 0.0000 0.0000 0.0000 0.0000 19.1003
#
#
#
# Elastic Compliance Matrix: (Units=1/GPa)
#
#
# Indices 1 2 3 4 5 6 
#
# 1 0.015097 -0.011081 -0.000171 0.000000 0.000000 0.000000
# 2 -0.011081 0.015097 -0.000171 0.000000 0.000000 0.000000
# 3 -0.000171 -0.000171 0.014533 0.000000 0.000000 0.000000
# 4 0.000000 0.000000 0.000000 -0.014311 0.000000 0.000000
# 5 0.000000 0.000000 0.000000 0.000000 -0.014311 0.000000
# 6 0.000000 0.000000 0.000000 0.000000 0.000000 0.052355
#
#
# Mechanical properties :
#
#
# Convention : Reuss Voigt Hill
#
# Bulk Modulus (GPa) = 45.70121 64.34697 55.02409
# Shear Modulus (GPa) = 50.71109 -7.79973 21.45568
#
# Velocity S-wave (km/s) = 5.43065 -2.12981 3.53241
# Velocity P-wave (km/s) = 8.11794 5.60126 6.97406
#
# Compressibility (1/GPa) = 0.02188126
#
# Stress axis : x y z
#
# Youngs Moduli (GPa) = 66.23943 66.23943 68.80929
#
# Poissons Ratio (x) = 0.73399 0.01176
# Poissons Ratio (y) = 0.73399 0.01176
# Poissons Ratio (z) = 0.01132 0.01132
#
# Static dielectric constant tensor:
#      x y z
#    x 1.584050 0.000000 0.000000 
#    y 0.000000 1.584050 0.000000 
#    z 0.000000 0.000000 1.658640 
# 
# From -- ./inp_files/1610.got.cif
#   From: 2010.05.17/outbox.cif.g08.bks.cpg/sg191_1_cif.got.tgz:1610.got - 2010.05.20 12:20:32.
