data_PCOD9587422
_publ_section_title
;
Structure prediction by ZEFSAII (Michael W. Deem and Ramdas Pophale) SiO2 
 PCOD9587422
Probable space group: P 6/M M M
;
_chemical_formula_sum "Si O2"
_cell_formula_units_Z 168
_cell_length_a 21.211029
_cell_length_b 21.211029
_cell_length_c 29.506967
_cell_angle_alpha 90.000000
_cell_angle_beta 90.000000
_cell_angle_gamma 120.000000
_cell_volume 11496.845050
_symmetry_space_group_name_H-M "P 6/M M M"
_symmetry_group_IT_number 191
_symmetry_cell_setting 'hexagonal'
loop_
_space_group_symop_operation_xyz
x,y,z
x-y,x,z
-y,x-y,z
-x,-y,z
-x+y,-x,z
y,-x+y,z
x-y,-y,-z
-x,-x+y,-z
y,x,-z
-y,-x,-z
-x+y,y,-z
x,x-y,-z
-x,-y,-z
-x+y,-x,-z
y,-x+y,-z
x,y,-z
x-y,x,-z
-y,x-y,-z
-x+y,y,z
x,x-y,z
-y,-x,z
y,x,z
x-y,-y,z
-x,-x+y,z
loop_
_atom_site_type_symbol
_atom_site_label
_atom_site_fract_x
_atom_site_fract_y
_atom_site_fract_z
Si Si1 0.186700 0.522437 0.108490
Si Si2 0.646858 0.561396 0.808748
Si Si3 0.880715 0.270574 0.049854
Si Si4 0.083103 0.617936 0.635152
Si Si5 0.078559 0.304826 0.857783
Si Si6 0.183868 0.666993 0.552656
Si Si7 0.333596 0.817883 0.279107
O O1 0.256204 0.512408 0.118562
O O2 0.211451 0.605726 0.100628
O O3 0.130479 0.492167 0.150184
O O4 0.144690 0.471622 0.065773
O O5 0.585600 0.585600 0.806881
O O6 0.722217 0.634540 0.821399
O O7 0.653046 0.524067 0.763277
O O8 0.806886 0.193115 0.046878
O O9 0.920649 0.260143 0.092933
O O10 0.914872 0.287089 0.000000
O O11 0.079598 0.539799 0.636283
O O12 0.120966 0.654198 0.587690
O O13 0.136898 0.662739 0.676028
O O14 0.000000 0.599516 0.639960
O O15 0.145904 0.291808 0.855632
O O16 0.000000 0.235043 0.851378
O O17 0.163729 0.666885 0.500000
O O18 0.197830 0.598915 0.558409
O O19 0.258127 0.741874 0.561894
O O20 0.401388 0.802775 0.280985
O O21 0.257527 0.742474 0.275227
#
# Coordination Sequence:
#
# PCOD9587422 Si02
#       7
#    24  24  24  24  24  24  24
#     4  10  19  30  44  62  85 111 140 174 212 255
#     4  10  20  33  48  63  81 108 140 174 209 246
#     4   8  15  28  43  59  81 108 137 168 199 233
#     4   9  18  30  42  58  80 107 139 173 210 253
#     4   9  17  30  48  68  88 110 138 170 204 244
#     4   9  16  26  41  60  82 108 139 176 217 259
#     4  11  21  32  46  63  85 110 138 174 216 262
#
# _framework density 14.612705
#
# number of rings (size 3 to 8) (size 9 to 14) (size 15 to 20)
#    0.000    2.571    0.000    3.857    0.000    3.143 
#    0.000    4.286    0.000    1.000    0.000    4.000 
#    0.000    0.000    0.000    3.571    0.000    0.000 
#
# Total GULP energy -935647.725507 kJ/mol
# GULP energy per Si atom -5569.331699 kJ/mol
# Density = 1.457945 g / cm^3
# Si number density = 14.612705 Si / 1000 Ang^3
#
#
#
# Elastic Constant Matrix: (Units=GPa)
#
#
# Indices 1 2 3 4 5 6 
#
# 1 66.6392 46.1994 23.7492 0.0000 0.0000 0.0000
# 2 46.1994 66.6392 23.7492 0.0000 0.0000 0.0000
# 3 23.7492 23.7492 59.9946 0.0000 0.0000 0.0000
# 4 0.0000 0.0000 0.0000 -5.7782 0.0000 0.0000
# 5 0.0000 0.0000 0.0000 0.0000 -5.7782 0.0000
# 6 0.0000 0.0000 0.0000 0.0000 0.0000 10.2199
#
#
#
# Elastic Compliance Matrix: (Units=1/GPa)
#
#
# Indices 1 2 3 4 5 6 
#
# 1 0.029779 -0.019145 -0.004210 0.000000 0.000000 0.000000
# 2 -0.019145 0.029779 -0.004210 0.000000 0.000000 0.000000
# 3 -0.004210 -0.004210 0.020001 0.000000 0.000000 0.000000
# 4 0.000000 0.000000 0.000000 -0.173065 0.000000 0.000000
# 5 0.000000 0.000000 0.000000 0.000000 -0.173065 0.000000
# 6 0.000000 0.000000 0.000000 0.000000 0.000000 0.097848
#
#
# Mechanical properties :
#
#
# Convention : Reuss Voigt Hill
#
# Bulk Modulus (GPa) = 40.93172 42.29653 41.61412
# Shear Modulus (GPa) = -47.41550 6.37105 -20.52222
#
# Velocity S-wave (km/s) = -5.70251 2.09031 -3.75161
# Velocity P-wave (km/s) = 3.90976 5.90201 3.12630
#
# Compressibility (1/GPa) = 0.02443093
#
# Stress axis : x y z
#
# Youngs Moduli (GPa) = 33.58049 33.58049 49.99753
#
# Poissons Ratio (x) = 0.64290 0.21047
# Poissons Ratio (y) = 0.64290 0.21047
# Poissons Ratio (z) = 0.14136 0.14136
#
# Static dielectric constant tensor:
#      x y z
#    x 1.481150 0.000000 0.000000 
#    y 0.000000 1.481150 0.000000 
#    z 0.000000 0.000000 1.500300 
# 
# From -- ./inp_files/10028.got.cif
#   From: 2010.05.17/outbox.cif.g08.bks.cpg/sg191_6_cif.got.tgz:10028.got - 2010.05.20 12:20:32.
