data_PCOD9587779
_publ_section_title
;
Structure prediction by ZEFSAII (Michael W. Deem and Ramdas Pophale) SiO2 
 PCOD9587779
Probable space group: P 6/M M M
;
_chemical_formula_sum "Si O2"
_cell_formula_units_Z 192
_cell_length_a 30.474638
_cell_length_b 30.474638
_cell_length_c 14.599048
_cell_angle_alpha 90.000000
_cell_angle_beta 90.000000
_cell_angle_gamma 120.000000
_cell_volume 11741.735123
_symmetry_space_group_name_H-M "P 6/M M M"
_symmetry_group_IT_number 191
_symmetry_cell_setting 'hexagonal'
loop_
_space_group_symop_operation_xyz
x,y,z
x-y,x,z
-y,x-y,z
-x,-y,z
-x+y,-x,z
y,-x+y,z
x-y,-y,-z
-x,-x+y,-z
y,x,-z
-y,-x,-z
-x+y,y,-z
x,x-y,-z
-x,-y,-z
-x+y,-x,-z
y,-x+y,-z
x,y,-z
x-y,x,-z
-y,x-y,-z
-x+y,y,z
x,x-y,z
-y,-x,z
y,x,z
x-y,-y,z
-x,-x+y,z
loop_
_atom_site_type_symbol
_atom_site_label
_atom_site_fract_x
_atom_site_fract_y
_atom_site_fract_z
Si Si1 0.156377 0.215290 0.784959
Si Si2 0.859121 0.240107 0.611134
Si Si3 0.666902 0.433276 0.388742
Si Si4 0.757227 0.061443 0.106460
Si Si5 0.208534 0.266504 0.393798
Si Si6 0.875684 0.348333 0.390076
Si Si7 0.060961 0.480778 0.236080
Si Si8 0.401631 0.340005 0.107071
O O1 0.098619 0.197238 0.807493
O O2 0.176865 0.176865 0.807743
O O3 0.192994 0.268635 0.835908
O O4 0.167006 0.228975 0.677384
O O5 0.855862 0.239951 0.500000
O O6 0.804560 0.195441 0.644576
O O7 0.902123 0.226007 0.632394
O O8 0.874211 0.296560 0.638500
O O9 0.667617 0.431846 0.500000
O O10 0.720186 0.440371 0.356517
O O11 0.619750 0.380250 0.357760
O O12 0.658567 0.479691 0.365854
O O13 0.717291 0.078572 0.138495
O O14 0.725528 0.000000 0.109400
O O15 0.769621 0.076209 0.000000
O O16 0.191946 0.258749 0.500000
O O17 0.254436 0.254436 0.386319
O O18 0.882579 0.354506 0.500000
O O19 0.917769 0.395704 0.334863
O O20 0.076841 0.538421 0.212058
O O21 0.078857 0.451685 0.166392
O O22 0.000000 0.449573 0.236692
O O23 0.370678 0.370678 0.111054
O O24 0.413052 0.337855 0.000000
#
# Coordination Sequence:
#
# PCOD9587779 Si02
#       8
#    24  24  24  24  24  24  24  24
#     4  10  20  32  49  73 100 131 165 204 248 295
#     4   9  17  29  44  62  86 117 156 200 239 278
#     4   9  16  27  44  63  81 104 140 186 232 272
#     4   8  15  29  49  72  95 119 148 185 234 288
#     4   9  18  31  46  66  94 127 163 203 245 287
#     4  10  20  31  43  61  90 127 159 188 226 273
#     4  10  21  33  45  64  89 121 162 200 229 265
#     4   8  15  30  51  70  88 112 145 192 243 280
#
# _framework density 16.351927
#
# number of rings (size 3 to 8) (size 9 to 14) (size 15 to 20)
#    0.000    2.875    0.000    2.000    1.750    4.750 
#    0.000    3.125    0.000    0.125    0.000    0.000 
#    0.000    0.000    0.000    6.500    0.000    2.500 
#
# Total GULP energy -1069305.827654 kJ/mol
# GULP energy per Si atom -5569.301186 kJ/mol
# Density = 1.631471 g / cm^3
# Si number density = 16.351927 Si / 1000 Ang^3
#
#
#
# Elastic Constant Matrix: (Units=GPa)
#
#
# Indices 1 2 3 4 5 6 
#
# 1 67.0158 33.5638 22.5458 0.0000 0.0000 0.0000
# 2 33.5638 67.0158 22.5458 0.0000 0.0000 0.0000
# 3 22.5458 22.5458 41.7591 0.0000 0.0000 0.0000
# 4 0.0000 0.0000 0.0000 8.6530 0.0000 0.0000
# 5 0.0000 0.0000 0.0000 0.0000 8.6530 0.0000
# 6 0.0000 0.0000 0.0000 0.0000 0.0000 16.7260
#
#
#
# Elastic Compliance Matrix: (Units=1/GPa)
#
#
# Indices 1 2 3 4 5 6 
#
# 1 0.021505 -0.008388 -0.007082 0.000000 0.000000 0.000000
# 2 -0.008388 0.021505 -0.007082 0.000000 0.000000 0.000000
# 3 -0.007082 -0.007082 0.031594 0.000000 0.000000 0.000000
# 4 0.000000 0.000000 0.000000 0.115567 0.000000 0.000000
# 5 0.000000 0.000000 0.000000 0.000000 0.115567 0.000000
# 6 0.000000 0.000000 0.000000 0.000000 0.000000 0.059787
#
#
# Mechanical properties :
#
#
# Convention : Reuss Voigt Hill
#
# Bulk Modulus (GPa) = 33.89768 37.01128 35.45448
# Shear Modulus (GPa) = 11.89162 13.28209 12.58686
#
# Velocity S-wave (km/s) = 2.69965 2.85312 2.77744
# Velocity P-wave (km/s) = 5.52201 5.79112 5.65816
#
# Compressibility (1/GPa) = 0.02950055
#
# Stress axis : x y z
#
# Youngs Moduli (GPa) = 46.49980 46.49980 31.65137
#
# Poissons Ratio (x) = 0.39004 0.22416
# Poissons Ratio (y) = 0.39004 0.22416
# Poissons Ratio (z) = 0.32932 0.32932
#
# Static dielectric constant tensor:
#      x y z
#    x 1.555680 0.000000 0.000000 
#    y 0.000000 1.555680 0.000000 
#    z 0.000000 0.000000 1.562640 
# 
# From -- ./inp_files/5564.got.cif
#   From: 2010.05.17/outbox.cif.g08.bks.cpg/sg191_3_cif.got.tgz:5564.got - 2010.05.20 12:20:32.
