data_PCOD9587726
_publ_section_title
;
Structure prediction by ZEFSAII (Michael W. Deem and Ramdas Pophale) SiO2 
 PCOD9587726
Probable space group: P 6/M M M
;
_chemical_formula_sum "Si O2"
_cell_formula_units_Z 72
_cell_length_a 21.748446
_cell_length_b 21.748446
_cell_length_c 10.353560
_cell_angle_alpha 90.000000
_cell_angle_beta 90.000000
_cell_angle_gamma 120.000000
_cell_volume 4241.083250
_symmetry_space_group_name_H-M "P 6/M M M"
_symmetry_group_IT_number 191
_symmetry_cell_setting 'hexagonal'
loop_
_space_group_symop_operation_xyz
x,y,z
x-y,x,z
-y,x-y,z
-x,-y,z
-x+y,-x,z
y,-x+y,z
x-y,-y,-z
-x,-x+y,-z
y,x,-z
-y,-x,-z
-x+y,y,-z
x,x-y,-z
-x,-y,-z
-x+y,-x,-z
y,-x+y,-z
x,y,-z
x-y,x,-z
-y,x-y,-z
-x+y,y,z
x,x-y,z
-y,-x,z
y,x,z
x-y,-y,z
-x,-x+y,z
loop_
_atom_site_type_symbol
_atom_site_label
_atom_site_fract_x
_atom_site_fract_y
_atom_site_fract_z
Si Si1 0.332542 0.808603 0.500000
Si Si2 0.140478 0.715169 0.250743
Si Si3 0.481703 0.815274 0.000000
Si Si4 0.286878 0.286878 0.342367
Si Si5 0.858107 0.858107 0.343222
O O1 0.274948 0.725053 0.500000
O O2 0.410587 0.821174 0.500000
O O3 0.317260 0.841240 0.625724
O O4 0.203757 0.796244 0.237362
O O5 0.145347 0.674531 0.125200
O O6 0.068335 0.714410 0.281491
O O7 0.406762 0.813524 0.000000
O O8 0.469068 0.734534 0.000000
O O9 0.293178 0.293178 0.500000
O O10 0.214137 0.214137 0.311620
O O11 0.928566 0.857132 0.298981
O O12 0.861131 0.861131 0.500000
#
# Coordination Sequence:
#
# PCOD9587726 Si02
#       5
#    12  24  12  12  12
#     4  10  19  33  53  77 104 134 174 225 275 323
#     4  10  21  36  55  80 110 141 183 230 269 327
#     4  10  21  39  61  83 108 140 180 231 287 335
#     4  11  20  34  54  77 108 155 192 219 271 333
#     4   9  17  28  48  78 112 145 182 227 273 319
#
# _framework density 16.976794999999999
#
# number of rings (size 3 to 8) (size 9 to 14) (size 15 to 20)
#    0.000    2.000    1.667    2.500    0.000    2.667 
#    0.000    8.333    0.000    0.000    0.000    0.000 
#    0.000    0.000    0.000   12.667    0.000    4.000 
#
# Total GULP energy -401690.261646 kJ/mol
# GULP energy per Si atom -5579.031412 kJ/mol
# Density = 1.693816 g / cm^3
# Si number density = 16.976795 Si / 1000 Ang^3
#
#
#
# Elastic Constant Matrix: (Units=GPa)
#
#
# Indices 1 2 3 4 5 6 
#
# 1 133.2461 103.3147 50.7217 0.0000 0.0000 0.0000
# 2 103.3147 133.2461 50.7217 0.0000 0.0000 0.0000
# 3 50.7217 50.7217 118.8575 0.0000 0.0000 0.0000
# 4 0.0000 0.0000 0.0000 68.9962 0.0000 0.0000
# 5 0.0000 0.0000 0.0000 0.0000 68.9962 0.0000
# 6 0.0000 0.0000 0.0000 0.0000 0.0000 14.9657
#
#
#
# Elastic Compliance Matrix: (Units=1/GPa)
#
#
# Indices 1 2 3 4 5 6 
#
# 1 0.019292 -0.014118 -0.002208 0.000000 0.000000 0.000000
# 2 -0.014118 0.019292 -0.002208 0.000000 0.000000 0.000000
# 3 -0.002208 -0.002208 0.010298 0.000000 0.000000 0.000000
# 4 0.000000 0.000000 0.000000 0.014494 0.000000 0.000000
# 5 0.000000 0.000000 0.000000 0.000000 0.014494 0.000000
# 6 0.000000 0.000000 0.000000 0.000000 0.000000 0.066819
#
#
# Mechanical properties :
#
#
# Convention : Reuss Voigt Hill
#
# Bulk Modulus (GPa) = 84.64470 88.31842 86.48156
# Shear Modulus (GPa) = 26.92602 42.63107 34.77855
#
# Velocity S-wave (km/s) = 3.98684 5.01656 4.53105
# Velocity P-wave (km/s) = 8.43567 9.25692 8.85582
#
# Compressibility (1/GPa) = 0.01181409
#
# Stress axis : x y z
#
# Youngs Moduli (GPa) = 51.83521 51.83521 97.10668
#
# Poissons Ratio (x) = 0.73180 0.21441
# Poissons Ratio (y) = 0.73180 0.21441
# Poissons Ratio (z) = 0.11445 0.11445
#
# Static dielectric constant tensor:
#      x y z
#    x 1.557120 0.000000 0.000000 
#    y 0.000000 1.557120 0.000000 
#    z 0.000000 0.000000 1.559220 
# 
# From -- ./inp_files/2377.got.cif
#   From: 2010.05.17/outbox.cif.g08.bks.cpg/sg191_2_cif.got.tgz:2377.got - 2010.05.20 12:20:32.
