data_PCOD9587458
_publ_section_title
;
Structure prediction by ZEFSAII (Michael W. Deem and Ramdas Pophale) SiO2 
 PCOD9587458
Probable space group: P 6/M M M
;
_chemical_formula_sum "Si O2"
_cell_formula_units_Z 96
_cell_length_a 17.598641
_cell_length_b 17.598641
_cell_length_c 25.057216
_cell_angle_alpha 90.000000
_cell_angle_beta 90.000000
_cell_angle_gamma 120.000000
_cell_volume 6720.811465
_symmetry_space_group_name_H-M "P 6/M M M"
_symmetry_group_IT_number 191
_symmetry_cell_setting 'hexagonal'
loop_
_space_group_symop_operation_xyz
x,y,z
x-y,x,z
-y,x-y,z
-x,-y,z
-x+y,-x,z
y,-x+y,z
x-y,-y,-z
-x,-x+y,-z
y,x,-z
-y,-x,-z
-x+y,y,-z
x,x-y,-z
-x,-y,-z
-x+y,-x,-z
y,-x+y,-z
x,y,-z
x-y,x,-z
-y,x-y,-z
-x+y,y,z
x,x-y,z
-y,-x,z
y,x,z
x-y,-y,z
-x,-x+y,z
loop_
_atom_site_type_symbol
_atom_site_label
_atom_site_fract_x
_atom_site_fract_y
_atom_site_fract_z
Si Si1 0.000000 0.592158 0.294881
Si Si2 0.000000 0.408023 0.416372
Si Si3 0.638371 0.105900 0.000000
Si Si4 0.625854 0.727931 0.893103
Si Si5 0.150236 0.482972 0.500000
Si Si6 0.332212 0.485517 0.785716
O O1 0.914213 0.570873 0.261012
O O2 0.000000 0.500000 0.296856
O O3 0.000000 0.620029 0.355675
O O4 0.912246 0.343998 0.449466
O O5 0.000000 0.500000 0.415407
O O6 0.694026 0.127678 0.946179
O O7 0.571121 0.142242 0.000000
O O8 0.579914 0.000000 0.000000
O O9 0.662673 0.831337 0.888300
O O10 0.697920 0.697920 0.896693
O O11 0.565252 0.682428 0.841590
O O12 0.242498 0.484995 0.500000
O O13 0.164137 0.582069 0.500000
O O14 0.248652 0.497303 0.776681
O O15 0.421196 0.578805 0.788209
#
# Coordination Sequence:
#
# PCOD9587458 Si02
#       6
#    12  12  12  24  12  24
#     4   9  17  30  45  59  84 119 148 179 220 266
#     4   8  16  29  42  60  87 118 148 179 221 261
#     4   9  17  28  45  66  88 114 146 183 227 280
#     4  10  19  31  47  67  89 117 152 191 235 283
#     4   9  16  27  44  65  89 117 150 185 218 255
#     4  10  19  30  45  64  87 115 150 190 229 269
#
# _framework density 14.283989
#
# number of rings (size 3 to 8) (size 9 to 14) (size 15 to 20)
#    0.000    2.625    1.250    2.250    0.000    2.000 
#    0.000    0.000    0.000    6.750    0.000    0.000 
#    0.000    3.000    0.000   12.000    0.000   13.750 
#
# Total GULP energy -534621.173110 kJ/mol
# GULP energy per Si atom -5568.970553 kJ/mol
# Density = 1.425148 g / cm^3
# Si number density = 14.283989 Si / 1000 Ang^3
#
#
#
# Elastic Constant Matrix: (Units=GPa)
#
#
# Indices 1 2 3 4 5 6 
#
# 1 88.9980 52.7347 46.9150 0.0000 0.0000 0.0000
# 2 52.7347 88.9980 46.9150 0.0000 0.0000 0.0000
# 3 46.9150 46.9150 138.0022 0.0000 0.0000 0.0000
# 4 0.0000 0.0000 0.0000 7.0134 0.0000 0.0000
# 5 0.0000 0.0000 0.0000 0.0000 7.0134 0.0000
# 6 0.0000 0.0000 0.0000 0.0000 0.0000 18.1317
#
#
#
# Elastic Compliance Matrix: (Units=1/GPa)
#
#
# Indices 1 2 3 4 5 6 
#
# 1 0.018340 -0.009236 -0.003095 0.000000 0.000000 0.000000
# 2 -0.009236 0.018340 -0.003095 0.000000 0.000000 0.000000
# 3 -0.003095 -0.003095 0.009351 0.000000 0.000000 0.000000
# 4 0.000000 0.000000 0.000000 0.142584 0.000000 0.000000
# 5 0.000000 0.000000 0.000000 0.000000 0.142584 0.000000
# 6 0.000000 0.000000 0.000000 0.000000 0.000000 0.055152
#
#
# Mechanical properties :
#
#
# Convention : Reuss Voigt Hill
#
# Bulk Modulus (GPa) = 65.87961 67.68085 66.78023
# Shear Modulus (GPa) = 11.84094 17.72725 14.78410
#
# Velocity S-wave (km/s) = 2.88230 3.52669 3.22065
# Velocity P-wave (km/s) = 7.56956 8.00428 7.78996
#
# Compressibility (1/GPa) = 0.01517920
#
# Stress axis : x y z
#
# Youngs Moduli (GPa) = 54.52457 54.52457 106.94344
#
# Poissons Ratio (x) = 0.50357 0.33101
# Poissons Ratio (y) = 0.50357 0.33101
# Poissons Ratio (z) = 0.16876 0.16876
#
# Static dielectric constant tensor:
#      x y z
#    x 1.455330 0.000000 0.000000 
#    y 0.000000 1.455330 0.000000 
#    z 0.000000 0.000000 1.483360 
# 
# From -- ./inp_files/7257.got.cif
#   From: 2010.05.17/outbox.cif.g08.bks.cpg/sg191_4_cif.got.tgz:7257.got - 2010.05.20 12:20:32.
