data_PCOD9587274
_publ_section_title
;
Structure prediction by ZEFSAII (Michael W. Deem and Ramdas Pophale) SiO2 
 PCOD9587274
Probable space group: P 6/M M M
;
_chemical_formula_sum "Si O2"
_cell_formula_units_Z 192
_cell_length_a 29.893457
_cell_length_b 29.893457
_cell_length_c 14.576864
_cell_angle_alpha 90.000000
_cell_angle_beta 90.000000
_cell_angle_gamma 120.000000
_cell_volume 11280.984866
_symmetry_space_group_name_H-M "P 6/M M M"
_symmetry_group_IT_number 191
_symmetry_cell_setting 'hexagonal'
loop_
_space_group_symop_operation_xyz
x,y,z
x-y,x,z
-y,x-y,z
-x,-y,z
-x+y,-x,z
y,-x+y,z
x-y,-y,-z
-x,-x+y,-z
y,x,-z
-y,-x,-z
-x+y,y,-z
x,x-y,-z
-x,-y,-z
-x+y,-x,-z
y,-x+y,-z
x,y,-z
x-y,x,-z
-y,x-y,-z
-x+y,y,z
x,x-y,z
-y,-x,z
y,x,z
x-y,-y,z
-x,-x+y,z
loop_
_atom_site_type_symbol
_atom_site_label
_atom_site_fract_x
_atom_site_fract_y
_atom_site_fract_z
Si Si1 0.609269 0.940722 0.889798
Si Si2 0.245535 0.339007 0.606679
Si Si3 0.148913 0.757098 0.784575
Si Si4 0.944952 0.364142 0.390901
Si Si5 0.692207 0.208366 0.774490
Si Si6 0.845258 0.475556 0.607633
Si Si7 0.390980 0.880519 0.890096
Si Si8 0.837958 0.779855 0.389381
O O1 0.625183 0.903236 0.839609
O O2 0.549131 0.919378 0.866159
O O3 0.644121 0.000000 0.862610
O O4 0.612238 0.936927 0.000000
O O5 0.235583 0.346458 0.500000
O O6 0.232194 0.368378 0.683170
O O7 0.307738 0.368286 0.616974
O O8 0.210636 0.277990 0.626057
O O9 0.188549 0.811452 0.830336
O O10 0.178730 0.725026 0.777094
O O11 0.946015 0.373993 0.500000
O O12 0.894892 0.365967 0.358192
O O13 0.000000 0.405862 0.350868
O O14 0.732424 0.267577 0.797559
O O15 0.668025 0.201091 0.673503
O O16 0.645489 0.174784 0.843385
O O17 0.836240 0.481141 0.500000
O O18 0.855255 0.427628 0.615775
O O19 0.449766 0.899532 0.863512
O O20 0.386634 0.874563 0.000000
O O21 0.842761 0.785312 0.500000
O O22 0.891939 0.783878 0.356515
O O23 0.821102 0.821102 0.356134
#
# Coordination Sequence:
#
# PCOD9587274 Si02
#       8
#    24  24  24  24  24  24  24  24
#     4   9  19  35  53  75 103 134 166 199 241 292
#     4  10  18  30  46  67 100 133 165 207 247 289
#     4  10  20  32  48  72  98 128 168 207 244 287
#     4   9  17  29  45  66  94 130 167 201 241 288
#     4  10  20  34  51  71  95 122 157 199 243 292
#     4  10  20  34  50  69  97 130 165 205 243 287
#     4   9  18  34  56  80 103 124 150 190 241 301
#     4   9  17  28  42  61  87 121 158 196 239 284
#
# _framework density 17.019791000000001
#
# number of rings (size 3 to 8) (size 9 to 14) (size 15 to 20)
#    0.000    2.500    1.250    1.125    0.000    4.500 
#    0.000    6.250    0.000    3.625    0.000    0.875 
#    0.000    0.000    0.000    0.000    0.000    0.000 
#
# Total GULP energy -1069368.374663 kJ/mol
# GULP energy per Si atom -5569.626951 kJ/mol
# Density = 1.698105 g / cm^3
# Si number density = 17.019791 Si / 1000 Ang^3
#
#
#
# Elastic Constant Matrix: (Units=GPa)
#
#
# Indices 1 2 3 4 5 6 
#
# 1 62.5312 57.0120 17.7739 0.0000 0.0000 0.0000
# 2 57.0120 62.5312 17.7739 0.0000 0.0000 0.0000
# 3 17.7739 17.7739 36.7963 0.0000 0.0000 0.0000
# 4 0.0000 0.0000 0.0000 5.4406 0.0000 0.0000
# 5 0.0000 0.0000 0.0000 0.0000 5.4406 0.0000
# 6 0.0000 0.0000 0.0000 0.0000 0.0000 2.7596
#
#
#
# Elastic Compliance Matrix: (Units=1/GPa)
#
#
# Indices 1 2 3 4 5 6 
#
# 1 0.095476 -0.085707 -0.004718 0.000000 0.000000 0.000000
# 2 -0.085707 0.095476 -0.004718 0.000000 0.000000 0.000000
# 3 -0.004718 -0.004718 0.031735 0.000000 0.000000 0.000000
# 4 0.000000 0.000000 0.000000 0.183804 0.000000 0.000000
# 5 0.000000 0.000000 0.000000 0.000000 0.183804 0.000000
# 6 0.000000 0.000000 0.000000 0.000000 0.000000 0.362366
#
#
# Mechanical properties :
#
#
# Convention : Reuss Voigt Hill
#
# Bulk Modulus (GPa) = 30.86626 38.55314 34.70970
# Shear Modulus (GPa) = 4.33370 7.34809 5.84090
#
# Velocity S-wave (km/s) = 1.59743 2.08009 1.85453
# Velocity P-wave (km/s) = 4.64514 5.33574 5.00237
#
# Compressibility (1/GPa) = 0.03239783
#
# Stress axis : x y z
#
# Youngs Moduli (GPa) = 10.47387 10.47387 31.51103
#
# Poissons Ratio (x) = 0.89769 0.14868
# Poissons Ratio (y) = 0.89769 0.14868
# Poissons Ratio (z) = 0.04942 0.04942
#
# Static dielectric constant tensor:
#      x y z
#    x 1.609710 0.000000 0.000000 
#    y 0.000000 1.609710 0.000000 
#    z 0.000000 0.000000 1.590600 
# 
# From -- ./inp_files/5560.got.cif
#   From: 2010.05.17/outbox.cif.g08.bks.cpg/sg191_3_cif.got.tgz:5560.got - 2010.05.20 12:20:32.
