data_PCOD9587347
_publ_section_title
;
Structure prediction by ZEFSAII (Michael W. Deem and Ramdas Pophale) SiO2 
 PCOD9587347
Probable space group: P 6/M M M
;
_chemical_formula_sum "Si O2"
_cell_formula_units_Z 108
_cell_length_a 20.047152
_cell_length_b 20.047152
_cell_length_c 17.956358
_cell_angle_alpha 90.000000
_cell_angle_beta 90.000000
_cell_angle_gamma 120.000000
_cell_volume 6249.629242
_symmetry_space_group_name_H-M "P 6/M M M"
_symmetry_group_IT_number 191
_symmetry_cell_setting 'hexagonal'
loop_
_space_group_symop_operation_xyz
x,y,z
x-y,x,z
-y,x-y,z
-x,-y,z
-x+y,-x,z
y,-x+y,z
x-y,-y,-z
-x,-x+y,-z
y,x,-z
-y,-x,-z
-x+y,y,-z
x,x-y,-z
-x,-y,-z
-x+y,-x,-z
y,-x+y,-z
x,y,-z
x-y,x,-z
-y,x-y,-z
-x+y,y,z
x,x-y,z
-y,-x,z
y,x,z
x-y,-y,z
-x,-x+y,z
loop_
_atom_site_type_symbol
_atom_site_label
_atom_site_fract_x
_atom_site_fract_y
_atom_site_fract_z
Si Si1 0.636070 0.818035 0.914026
Si Si2 0.132038 0.867963 0.266262
Si Si3 0.912115 0.614441 0.208328
Si Si4 0.180334 0.090167 0.880133
Si Si5 0.506975 0.173374 0.336269
Si Si6 0.908448 0.091553 0.581251
Si Si7 0.666736 0.173707 0.500000
O O1 0.604660 0.865917 0.868053
O O2 0.730586 0.865293 0.908287
O O3 0.615072 0.807536 0.000000
O O4 0.221869 0.906162 0.247019
O O5 0.096167 0.903834 0.209588
O O6 0.120475 0.879526 0.350980
O O7 0.874150 0.545278 0.266927
O O8 0.000000 0.641104 0.193438
O O9 0.134717 0.134717 0.901817
O O10 0.589826 0.179651 0.331567
O O11 0.514840 0.257420 0.333125
O O12 0.472366 0.138627 0.418751
O O13 0.889226 0.110775 0.500000
O O14 0.000000 0.130340 0.586378
O O15 0.742592 0.257409 0.500000
O O16 0.591334 0.182667 0.500000
#
# Coordination Sequence:
#
# PCOD9587347 Si02
#       7
#    12  12  24  12  24  12  12
#     4  10  20  37  59  78 103 140 186 228 273 331
#     4  10  18  34  49  64  98 134 181 218 260 323
#     4  10  20  35  54  79 109 139 175 222 268 321
#     4  10  19  30  48  74 104 137 174 222 277 330
#     4  10  18  34  55  84 113 145 182 219 265 317
#     4  10  19  30  44  64  90 128 182 239 283 312
#     4   8  15  26  49  77 111 142 175 215 254 306
#
# _framework density 17.281025
#
# number of rings (size 3 to 8) (size 9 to 14) (size 15 to 20)
#    0.000    2.444    2.222    4.556    0.000    4.444 
#    2.000    1.667    0.000    3.333    0.000    1.556 
#    0.000    0.000    0.000    0.000    0.000    0.000 
#
# Total GULP energy -601654.023153 kJ/mol
# GULP energy per Si atom -5570.870585 kJ/mol
# Density = 1.724169 g / cm^3
# Si number density = 17.281025 Si / 1000 Ang^3
#
#
#
# Elastic Constant Matrix: (Units=GPa)
#
#
# Indices 1 2 3 4 5 6 
#
# 1 46.3655 16.1216 38.6517 0.0000 0.0000 0.0000
# 2 16.1216 46.3655 38.6517 0.0000 0.0000 0.0000
# 3 38.6517 38.6517 175.3606 0.0000 0.0000 0.0000
# 4 0.0000 0.0000 0.0000 1.2933 0.0000 0.0000
# 5 0.0000 0.0000 0.0000 0.0000 1.2933 0.0000
# 6 0.0000 0.0000 0.0000 0.0000 0.0000 15.1219
#
#
#
# Elastic Compliance Matrix: (Units=1/GPa)
#
#
# Indices 1 2 3 4 5 6 
#
# 1 0.027534 -0.005531 -0.004850 0.000000 0.000000 0.000000
# 2 -0.005531 0.027534 -0.004850 0.000000 0.000000 0.000000
# 3 -0.004850 -0.004850 0.007840 0.000000 0.000000 0.000000
# 4 0.000000 0.000000 0.000000 0.773238 0.000000 0.000000
# 5 0.000000 0.000000 0.000000 0.000000 0.773238 0.000000
# 6 0.000000 0.000000 0.000000 0.000000 0.000000 0.066129
#
#
# Mechanical properties :
#
#
# Convention : Reuss Voigt Hill
#
# Bulk Modulus (GPa) = 30.81909 50.54906 40.68407
# Shear Modulus (GPa) = 2.91241 15.18612 9.04927
#
# Velocity S-wave (km/s) = 1.29961 2.96763 2.29083
# Velocity P-wave (km/s) = 4.48606 6.40758 5.53091
#
# Compressibility (1/GPa) = 0.03244743
#
# Stress axis : x y z
#
# Youngs Moduli (GPa) = 36.31904 36.31904 127.54413
#
# Poissons Ratio (x) = 0.20087 0.61856
# Poissons Ratio (y) = 0.20087 0.61856
# Poissons Ratio (z) = 0.17614 0.17614
#
# Static dielectric constant tensor:
#      x y z
#    x 1.582670 0.000000 0.000000 
#    y 0.000000 1.582670 0.000000 
#    z 0.000000 0.000000 1.628510 
# 
# From -- ./inp_files/6225.got.cif
#   From: 2010.05.17/outbox.cif.g08.bks.cpg/sg191_4_cif.got.tgz:6225.got - 2010.05.20 12:20:32.
