data_PCOD9587390
_publ_section_title
;
Structure prediction by ZEFSAII (Michael W. Deem and Ramdas Pophale) SiO2 
 PCOD9587390
Probable space group: P 6/M M M
;
_chemical_formula_sum "Si O2"
_cell_formula_units_Z 192
_cell_length_a 31.045108
_cell_length_b 31.045108
_cell_length_c 15.017230
_cell_angle_alpha 90.000000
_cell_angle_beta 90.000000
_cell_angle_gamma 120.000000
_cell_volume 12534.494210
_symmetry_space_group_name_H-M "P 6/M M M"
_symmetry_group_IT_number 191
_symmetry_cell_setting 'hexagonal'
loop_
_space_group_symop_operation_xyz
x,y,z
x-y,x,z
-y,x-y,z
-x,-y,z
-x+y,-x,z
y,-x+y,z
x-y,-y,-z
-x,-x+y,-z
y,x,-z
-y,-x,-z
-x+y,y,-z
x,x-y,-z
-x,-y,-z
-x+y,-x,-z
y,-x+y,-z
x,y,-z
x-y,x,-z
-y,x-y,-z
-x+y,y,z
x,x-y,z
-y,-x,z
y,x,z
x-y,-y,z
-x,-x+y,z
loop_
_atom_site_type_symbol
_atom_site_label
_atom_site_fract_x
_atom_site_fract_y
_atom_site_fract_z
Si Si1 0.423820 0.481768 0.247328
Si Si2 0.635704 0.058552 0.403197
Si Si3 0.058011 0.356821 0.898033
Si Si4 0.769398 0.333590 0.395328
Si Si5 0.318068 0.261642 0.602721
Si Si6 0.230055 0.360817 0.250705
Si Si7 0.356852 0.476130 0.898289
Si Si8 0.710181 0.188401 0.746685
O O1 0.469472 0.530529 0.289202
O O2 0.443749 0.443749 0.227778
O O3 0.378628 0.457034 0.316900
O O4 0.406945 0.495722 0.157163
O O5 0.635461 0.080604 0.500000
O O6 0.687289 0.058925 0.393829
O O7 0.594007 0.000000 0.405849
O O8 0.091777 0.347796 0.829095
O O9 0.082119 0.416376 0.898363
O O10 0.000000 0.329392 0.871324
O O11 0.060886 0.342170 0.000000
O O12 0.782435 0.334421 0.500000
O O13 0.772298 0.386149 0.374656
O O14 0.712619 0.287382 0.385390
O O15 0.803254 0.320817 0.331137
O O16 0.309123 0.245552 0.500000
O O17 0.277867 0.277867 0.629516
O O18 0.325544 0.225653 0.667713
O O19 0.177570 0.355140 0.225178
O O20 0.265624 0.419382 0.276260
O O21 0.321155 0.487080 0.836659
O O22 0.361415 0.492807 0.000000
O O23 0.757481 0.242520 0.764317
#
# Coordination Sequence:
#
# PCOD9587390 Si02
#       8
#    24  24  24  24  24  24  24  24
#     4  10  20  31  43  61  85 111 137 166 200 239
#     4   8  14  26  44  62  78 101 136 174 208 244
#     4   9  17  30  49  68  83 105 140 179 215 250
#     4   9  17  31  52  74  92 109 131 161 199 249
#     4   9  17  29  45  62  80 108 147 184 210 236
#     4  10  19  29  43  64  91 119 141 169 213 261
#     4  10  20  33  48  63  80 106 142 178 206 238
#     4   9  19  33  47  67  92 113 133 161 205 259
#
# _framework density 15.317729999999999
#
# number of rings (size 3 to 8) (size 9 to 14) (size 15 to 20)
#    0.000    2.750    0.000    3.125    0.000    4.500 
#    0.000    6.250    0.000    0.000    0.000    0.000 
#    0.000    1.000    0.000    2.875    0.000    0.000 
#
# Total GULP energy -1069634.847916 kJ/mol
# GULP energy per Si atom -5571.014833 kJ/mol
# Density = 1.528287 g / cm^3
# Si number density = 15.317730 Si / 1000 Ang^3
#
#
#
# Elastic Constant Matrix: (Units=GPa)
#
#
# Indices 1 2 3 4 5 6 
#
# 1 57.2186 29.7507 35.0726 0.0000 0.0000 0.0000
# 2 29.7507 57.2186 35.0726 0.0000 0.0000 0.0000
# 3 35.0726 35.0726 72.6973 0.0000 0.0000 0.0000
# 4 0.0000 0.0000 0.0000 16.1725 0.0000 0.0000
# 5 0.0000 0.0000 0.0000 0.0000 16.1725 0.0000
# 6 0.0000 0.0000 0.0000 0.0000 0.0000 13.7340
#
#
#
# Elastic Compliance Matrix: (Units=1/GPa)
#
#
# Indices 1 2 3 4 5 6 
#
# 1 0.027614 -0.008792 -0.009081 0.000000 0.000000 0.000000
# 2 -0.008792 0.027614 -0.009081 0.000000 0.000000 0.000000
# 3 -0.009081 -0.009081 0.022518 0.000000 0.000000 0.000000
# 4 0.000000 0.000000 0.000000 0.061833 0.000000 0.000000
# 5 0.000000 0.000000 0.000000 0.000000 0.061833 0.000000
# 6 0.000000 0.000000 0.000000 0.000000 0.000000 0.072812
#
#
# Mechanical properties :
#
#
# Convention : Reuss Voigt Hill
#
# Bulk Modulus (GPa) = 41.94752 42.99177 42.46965
# Shear Modulus (GPa) = 14.87746 15.03169 14.95457
#
# Velocity S-wave (km/s) = 3.11988 3.13601 3.12796
# Velocity P-wave (km/s) = 6.35788 6.42187 6.38995
#
# Compressibility (1/GPa) = 0.02383931
#
# Stress axis : x y z
#
# Youngs Moduli (GPa) = 36.21312 36.21312 44.40952
#
# Poissons Ratio (x) = 0.31838 0.40328
# Poissons Ratio (y) = 0.31838 0.40328
# Poissons Ratio (z) = 0.32885 0.32885
#
# Static dielectric constant tensor:
#      x y z
#    x 1.512830 0.000000 0.000000 
#    y 0.000000 1.512830 0.000000 
#    z 0.000000 0.000000 1.540400 
# 
# From -- ./inp_files/5559.got.cif
#   From: 2010.05.17/outbox.cif.g08.bks.cpg/sg191_3_cif.got.tgz:5559.got - 2010.05.20 12:20:32.
