data_PCOD9587431
_publ_section_title
;
Structure prediction by ZEFSAII (Michael W. Deem and Ramdas Pophale) SiO2 
 PCOD9587431
Probable space group: P 6/M M M
;
_chemical_formula_sum "Si O2"
_cell_formula_units_Z 108
_cell_length_a 19.106159
_cell_length_b 19.106159
_cell_length_c 21.936010
_cell_angle_alpha 90.000000
_cell_angle_beta 90.000000
_cell_angle_gamma 120.000000
_cell_volume 6934.817593
_symmetry_space_group_name_H-M "P 6/M M M"
_symmetry_group_IT_number 191
_symmetry_cell_setting 'hexagonal'
loop_
_space_group_symop_operation_xyz
x,y,z
x-y,x,z
-y,x-y,z
-x,-y,z
-x+y,-x,z
y,-x+y,z
x-y,-y,-z
-x,-x+y,-z
y,x,-z
-y,-x,-z
-x+y,y,-z
x,x-y,-z
-x,-y,-z
-x+y,-x,-z
y,-x+y,-z
x,y,-z
x-y,x,-z
-y,x-y,-z
-x+y,y,z
x,x-y,z
-y,-x,z
y,x,z
x-y,-y,z
-x,-x+y,z
loop_
_atom_site_type_symbol
_atom_site_label
_atom_site_fract_x
_atom_site_fract_y
_atom_site_fract_z
Si Si1 0.504043 0.169735 0.927761
Si Si2 0.909283 0.658923 0.144409
Si Si3 0.461538 0.092364 0.500000
Si Si4 0.498452 0.830564 0.629540
Si Si5 0.907835 0.655311 0.290492
O O1 0.580538 0.161076 0.910289
O O2 0.523654 0.261827 0.918600
O O3 0.424073 0.113796 0.889717
O O4 0.489012 0.152512 0.000000
O O5 0.840189 0.680378 0.127980
O O6 0.905105 0.645663 0.217301
O O7 0.000000 0.726360 0.128828
O O8 0.544519 0.089037 0.500000
O O9 0.465582 0.138231 0.561988
O O10 0.389316 0.000000 0.500000
O O11 0.420378 0.840755 0.637816
O O12 0.474533 0.737267 0.635253
O O13 0.570039 0.881051 0.677194
O O14 0.839034 0.678067 0.306957
O O15 0.000000 0.719706 0.307381
#
# Coordination Sequence:
#
# PCOD9587431 Si02
#       5
#    24  24  12  24  24
#     4   9  17  29  45  65  90 120 152 184 217 253
#     4   9  18  32  48  66  88 114 144 178 219 265
#     4   9  17  28  42  60  82 111 149 191 229 260
#     4  10  19  30  44  63  89 121 155 187 218 254
#     4   9  18  32  49  67  87 113 144 179 220 265
#
# _framework density 15.573589999999999
#
# number of rings (size 3 to 8) (size 9 to 14) (size 15 to 20)
#    0.000    2.778    0.000    1.444    0.000    4.000 
#    0.000    4.444    0.000    3.111    0.000    3.111 
#    0.000    0.000    0.000    5.556    0.000   28.889 
#
# Total GULP energy -601636.053981 kJ/mol
# GULP energy per Si atom -5570.704204 kJ/mol
# Density = 1.553814 g / cm^3
# Si number density = 15.573590 Si / 1000 Ang^3
#
#
#
# Elastic Constant Matrix: (Units=GPa)
#
#
# Indices 1 2 3 4 5 6 
#
# 1 97.7546 78.8171 35.4109 0.0000 0.0000 0.0000
# 2 78.8171 97.7546 35.4109 0.0000 0.0000 0.0000
# 3 35.4109 35.4109 21.7351 0.0000 0.0000 0.0000
# 4 0.0000 0.0000 0.0000 20.9754 0.0000 0.0000
# 5 0.0000 0.0000 0.0000 0.0000 20.9754 0.0000
# 6 0.0000 0.0000 0.0000 0.0000 0.0000 9.4687
#
#
#
# Elastic Compliance Matrix: (Units=1/GPa)
#
#
# Indices 1 2 3 4 5 6 
#
# 1 0.034574 -0.018231 -0.026626 0.000000 0.000000 0.000000
# 2 -0.018231 0.034574 -0.026626 0.000000 0.000000 0.000000
# 3 -0.026626 -0.026626 0.132766 0.000000 0.000000 0.000000
# 4 0.000000 0.000000 0.000000 0.047675 0.000000 0.000000
# 5 0.000000 0.000000 0.000000 0.000000 0.047675 0.000000
# 6 0.000000 0.000000 0.000000 0.000000 0.000000 0.105611
#
#
# Mechanical properties :
#
#
# Convention : Reuss Voigt Hill
#
# Bulk Modulus (GPa) = 16.96397 57.39137 37.17767
# Shear Modulus (GPa) = 8.84189 14.79094 11.81642
#
# Velocity S-wave (km/s) = 2.38533 3.08514 2.75753
# Velocity P-wave (km/s) = 4.30149 7.04432 5.83632
#
# Compressibility (1/GPa) = 0.05894848
#
# Stress axis : x y z
#
# Youngs Moduli (GPa) = 28.92339 28.92339 7.53205
#
# Poissons Ratio (x) = 0.52731 0.20055
# Poissons Ratio (y) = 0.52731 0.20055
# Poissons Ratio (z) = 0.77011 0.77011
#
# Static dielectric constant tensor:
#      x y z
#    x 1.512410 0.000000 0.000000 
#    y 0.000000 1.512410 0.000000 
#    z 0.000000 0.000000 1.516190 
# 
# From -- ./inp_files/6059.got.cif
#   From: 2010.05.17/outbox.cif.g08.bks.cpg/sg191_4_cif.got.tgz:6059.got - 2010.05.20 12:20:32.
