data_PCOD9587094
_publ_section_title
;
Structure prediction by ZEFSAII (Michael W. Deem and Ramdas Pophale) SiO2 
 PCOD9587094
Probable space group: P 6/M M M
;
_chemical_formula_sum "Si O2"
_cell_formula_units_Z 120
_cell_length_a 18.474433
_cell_length_b 18.474433
_cell_length_c 26.634720
_cell_angle_alpha 90.000000
_cell_angle_beta 90.000000
_cell_angle_gamma 120.000000
_cell_volume 7872.651083
_symmetry_space_group_name_H-M "P 6/M M M"
_symmetry_group_IT_number 191
_symmetry_cell_setting 'hexagonal'
loop_
_space_group_symop_operation_xyz
x,y,z
x-y,x,z
-y,x-y,z
-x,-y,z
-x+y,-x,z
y,-x+y,z
x-y,-y,-z
-x,-x+y,-z
y,x,-z
-y,-x,-z
-x+y,y,-z
x,x-y,-z
-x,-y,-z
-x+y,-x,-z
y,-x+y,-z
x,y,-z
x-y,x,-z
-y,x-y,-z
-x+y,y,z
x,x-y,z
-y,-x,z
y,x,z
x-y,-y,z
-x,-x+y,z
loop_
_atom_site_type_symbol
_atom_site_label
_atom_site_fract_x
_atom_site_fract_y
_atom_site_fract_z
Si Si1 0.497080 0.331481 0.608536
Si Si2 0.330680 0.830619 0.104234
Si Si3 0.539917 0.635089 0.500000
Si Si4 0.363198 0.265161 0.304649
Si Si5 0.900606 0.365107 0.000000
Si Si6 0.533357 0.899932 0.789839
O O1 0.524900 0.262450 0.616327
O O2 0.575495 0.424506 0.615541
O O3 0.463524 0.323037 0.551739
O O4 0.422854 0.309677 0.647480
O O5 0.426278 0.852555 0.104726
O O6 0.267791 0.732210 0.103085
O O7 0.317409 0.867411 0.052555
O O8 0.320326 0.865300 0.157198
O O9 0.614599 0.614599 0.500000
O O10 0.453917 0.546084 0.500000
O O11 0.333433 0.166717 0.307191
O O12 0.292954 0.292954 0.302121
O O13 0.423658 0.304487 0.256297
O O14 0.874549 0.437275 0.000000
O O15 0.000000 0.412118 0.000000
O O16 0.434939 0.869877 0.781461
O O17 0.579980 0.000000 0.793952
#
# Coordination Sequence:
#
# PCOD9587094 Si02
#       6
#    24  24  12  24  12  24
#     4  10  19  30  45  66  93 124 156 189 223 260
#     4  10  18  27  39  56  79 105 134 168 206 246
#     4   9  17  28  42  60  84 119 161 197 225 254
#     4  10  20  33  49  68  89 114 145 182 223 266
#     4   9  17  28  40  52  68  95 132 172 210 246
#     4   9  17  29  45  64  86 113 143 172 203 245
#
# _framework density 15.242641000000001
#
# number of rings (size 3 to 8) (size 9 to 14) (size 15 to 20)
#    0.000    2.400    0.000    3.400    0.000    4.400 
#    0.000    2.000    0.000    6.600    0.000    0.000 
#    0.000    0.000    0.000    0.000    0.000   20.800 
#
# Total GULP energy -668182.228885 kJ/mol
# GULP energy per Si atom -5568.185241 kJ/mol
# Density = 1.520795 g / cm^3
# Si number density = 15.242641 Si / 1000 Ang^3
#
#
#
# Elastic Constant Matrix: (Units=GPa)
#
#
# Indices 1 2 3 4 5 6 
#
# 1 48.7999 28.9232 29.1465 0.0000 0.0000 0.0000
# 2 28.9232 48.7999 29.1465 0.0000 0.0000 0.0000
# 3 29.1465 29.1465 126.7831 0.0000 0.0000 0.0000
# 4 0.0000 0.0000 0.0000 11.1591 0.0000 0.0000
# 5 0.0000 0.0000 0.0000 0.0000 11.1591 0.0000
# 6 0.0000 0.0000 0.0000 0.0000 0.0000 9.9384
#
#
#
# Elastic Compliance Matrix: (Units=1/GPa)
#
#
# Indices 1 2 3 4 5 6 
#
# 1 0.032928 -0.017382 -0.003574 0.000000 0.000000 0.000000
# 2 -0.017382 0.032928 -0.003574 0.000000 0.000000 0.000000
# 3 -0.003574 -0.003574 0.009531 0.000000 0.000000 0.000000
# 4 0.000000 0.000000 0.000000 0.089613 0.000000 0.000000
# 5 0.000000 0.000000 0.000000 0.000000 0.089613 0.000000
# 6 0.000000 0.000000 0.000000 0.000000 0.000000 0.100620
#
#
# Mechanical properties :
#
#
# Convention : Reuss Voigt Hill
#
# Bulk Modulus (GPa) = 37.98234 44.31280 41.14757
# Shear Modulus (GPa) = 12.10450 15.59576 13.85013
#
# Velocity S-wave (km/s) = 2.82107 3.20217 3.01764
# Velocity P-wave (km/s) = 5.96522 6.54267 6.26061
#
# Compressibility (1/GPa) = 0.02632802
#
# Stress axis : x y z
#
# Youngs Moduli (GPa) = 30.36889 30.36889 104.92294
#
# Poissons Ratio (x) = 0.52786 0.37500
# Poissons Ratio (y) = 0.52786 0.37500
# Poissons Ratio (z) = 0.10854 0.10854
#
# Static dielectric constant tensor:
#      x y z
#    x 1.495130 0.000000 0.000000 
#    y 0.000000 1.495130 0.000000 
#    z 0.000000 0.000000 1.542970 
# 
# From -- ./inp_files/9659.got.cif
#   From: 2010.05.17/outbox.cif.g08.bks.cpg/sg191_5_cif.got.tgz:9659.got - 2010.05.20 12:20:32.
