data_PCOD9587867
_publ_section_title
;
Structure prediction by ZEFSAII (Michael W. Deem and Ramdas Pophale) SiO2 
 PCOD9587867
Probable space group: P 6/M M M
;
_chemical_formula_sum "Si O2"
_cell_formula_units_Z 132
_cell_length_a 17.922349
_cell_length_b 17.922349
_cell_length_c 29.358335
_cell_angle_alpha 90.000000
_cell_angle_beta 90.000000
_cell_angle_gamma 120.000000
_cell_volume 8166.799877
_symmetry_space_group_name_H-M "P 6/M M M"
_symmetry_group_IT_number 191
_symmetry_cell_setting 'hexagonal'
loop_
_space_group_symop_operation_xyz
x,y,z
x-y,x,z
-y,x-y,z
-x,-y,z
-x+y,-x,z
y,-x+y,z
x-y,-y,-z
-x,-x+y,-z
y,x,-z
-y,-x,-z
-x+y,y,-z
x,x-y,-z
-x,-y,-z
-x+y,-x,-z
y,-x+y,-z
x,y,-z
x-y,x,-z
-y,x-y,-z
-x+y,y,z
x,x-y,z
-y,-x,z
y,x,z
x-y,-y,z
-x,-x+y,z
loop_
_atom_site_type_symbol
_atom_site_label
_atom_site_fract_x
_atom_site_fract_y
_atom_site_fract_z
Si Si1 0.268737 0.369358 0.764938
Si Si2 0.533329 0.897348 0.852855
Si Si3 0.668693 0.160514 0.049149
Si Si4 0.467453 0.363548 0.500000
Si Si5 0.510115 0.842804 0.677846
Si Si6 0.628884 0.729566 0.410340
O O1 0.167522 0.335044 0.758817
O O2 0.298022 0.298022 0.767494
O O3 0.300203 0.426822 0.810754
O O4 0.317537 0.432526 0.722688
O O5 0.430447 0.860894 0.848622
O O6 0.554051 0.875477 0.902831
O O7 0.578249 0.000000 0.850752
O O8 0.572708 0.145416 0.049303
O O9 0.738560 0.261441 0.049576
O O10 0.680359 0.126501 0.000000
O O11 0.421154 0.421154 0.500000
O O12 0.569471 0.430529 0.500000
O O13 0.432276 0.306934 0.454665
O O14 0.426163 0.852326 0.677049
O O15 0.485096 0.742548 0.677962
O O16 0.569948 0.885255 0.633793
O O17 0.662612 0.831306 0.407024
O O18 0.700778 0.700778 0.413678
#
# Coordination Sequence:
#
# PCOD9587867 Si02
#       6
#    24  24  24  12  24  24
#     4  10  20  33  49  68  90 117 149 185 225 269
#     4   9  17  28  42  61  84 110 141 176 215 262
#     4   9  16  25  37  53  75 105 141 178 212 246
#     4   9  17  30  49  72  96 122 154 191 231 280
#     4  10  20  33  50  73 100 128 156 187 224 266
#     4  10  20  33  50  72  97 127 163 202 242 282
#
# _framework density 16.163001000000001
#
# number of rings (size 3 to 8) (size 9 to 14) (size 15 to 20)
#    0.000    2.455    0.000    2.818    0.000    4.000 
#    0.000    1.818    0.000    8.727    0.000    0.000 
#    0.000    6.545    0.000    0.000    0.000    0.727 
#
# Total GULP energy -735166.693508 kJ/mol
# GULP energy per Si atom -5569.444648 kJ/mol
# Density = 1.612621 g / cm^3
# Si number density = 16.163001 Si / 1000 Ang^3
#
#
#
# Elastic Constant Matrix: (Units=GPa)
#
#
# Indices 1 2 3 4 5 6 
#
# 1 70.2969 51.0372 33.7907 0.0000 0.0000 0.0000
# 2 51.0372 70.2969 33.7907 0.0000 0.0000 0.0000
# 3 33.7907 33.7907 144.8350 0.0000 0.0000 0.0000
# 4 0.0000 0.0000 0.0000 93.6496 0.0000 0.0000
# 5 0.0000 0.0000 0.0000 0.0000 93.6497 0.0000
# 6 0.0000 0.0000 0.0000 0.0000 0.0000 9.6298
#
#
#
# Elastic Compliance Matrix: (Units=1/GPa)
#
#
# Indices 1 2 3 4 5 6 
#
# 1 0.030697 -0.021225 -0.002210 0.000000 0.000000 0.000000
# 2 -0.021225 0.030697 -0.002210 0.000000 0.000000 0.000000
# 3 -0.002210 -0.002210 0.007936 0.000000 0.000000 0.000000
# 4 0.000000 0.000000 0.000000 0.010678 0.000000 0.000000
# 5 0.000000 0.000000 0.000000 0.000000 0.010678 0.000000
# 6 0.000000 0.000000 0.000000 0.000000 0.000000 0.103844
#
#
# Mechanical properties :
#
#
# Convention : Reuss Voigt Hill
#
# Bulk Modulus (GPa) = 55.42970 58.07400 56.75185
# Shear Modulus (GPa) = 19.85439 50.50650 35.18044
#
# Velocity S-wave (km/s) = 3.50863 5.59607 4.67047
# Velocity P-wave (km/s) = 7.12620 8.81833 8.01703
#
# Compressibility (1/GPa) = 0.01804087
#
# Stress axis : x y z
#
# Youngs Moduli (GPa) = 32.57613 32.57613 126.01398
#
# Poissons Ratio (x) = 0.69142 0.27849
# Poissons Ratio (y) = 0.69142 0.27849
# Poissons Ratio (z) = 0.07199 0.07199
#
# Static dielectric constant tensor:
#      x y z
#    x 1.537110 0.000000 0.000000 
#    y 0.000000 1.537110 0.000000 
#    z 0.000000 0.000000 1.577380 
# 
# From -- ./inp_files/9809.got.cif
#   From: 2010.05.17/outbox.cif.g08.bks.cpg/sg191_5_cif.got.tgz:9809.got - 2010.05.20 12:20:32.
