data_PCOD9587160
_publ_section_title
;
Structure prediction by ZEFSAII (Michael W. Deem and Ramdas Pophale) SiO2 
 PCOD9587160
Probable space group: P 6/M M M
;
_chemical_formula_sum "Si O2"
_cell_formula_units_Z 126
_cell_length_a 31.205903
_cell_length_b 31.205903
_cell_length_c 8.914139
_cell_angle_alpha 90.000000
_cell_angle_beta 90.000000
_cell_angle_gamma 120.000000
_cell_volume 7517.674920
_symmetry_space_group_name_H-M "P 6/M M M"
_symmetry_group_IT_number 191
_symmetry_cell_setting 'hexagonal'
loop_
_space_group_symop_operation_xyz
x,y,z
x-y,x,z
-y,x-y,z
-x,-y,z
-x+y,-x,z
y,-x+y,z
x-y,-y,-z
-x,-x+y,-z
y,x,-z
-y,-x,-z
-x+y,y,-z
x,x-y,-z
-x,-y,-z
-x+y,-x,-z
y,-x+y,-z
x,y,-z
x-y,x,-z
-y,x-y,-z
-x+y,y,z
x,x-y,z
-y,-x,z
y,x,z
x-y,-y,z
-x,-x+y,z
loop_
_atom_site_type_symbol
_atom_site_label
_atom_site_fract_x
_atom_site_fract_y
_atom_site_fract_z
Si Si1 0.802841 0.708224 0.676797
Si Si2 0.199001 0.199001 0.180544
Si Si3 0.602469 0.750415 0.822257
Si Si4 0.595737 0.595737 0.167970
Si Si5 0.500000 0.500000 0.751346
Si Si6 0.555179 0.110357 0.332641
Si Si7 0.105070 0.457849 0.319175
Si Si8 0.099060 0.000000 0.817243
O O1 0.791822 0.706537 0.500000
O O2 0.857499 0.714997 0.692732
O O3 0.801643 0.753443 0.755377
O O4 0.765666 0.655957 0.753232
O O5 0.148883 0.148883 0.226872
O O6 0.200706 0.200706 0.000000
O O7 0.595352 0.797676 0.799312
O O8 0.560986 0.701828 0.740488
O O9 0.602233 0.741690 0.000000
O O10 0.543979 0.543979 0.159022
O O11 0.580649 0.631057 0.255963
O O12 0.613985 0.613985 0.000000
O O13 0.474753 0.525248 0.658980
O O14 0.565944 0.131888 0.500000
O O15 0.607185 0.120766 0.264072
O O16 0.103130 0.458078 0.500000
O O17 0.099298 0.049649 0.767735
O O18 0.098239 0.000000 0.000000
#
# Coordination Sequence:
#
# PCOD9587160 Si02
#       8
#    24  12  24  12   6  12  24  12
#     4  10  21  37  55  74  97 127 164 206 252 304
#     4  11  21  33  52  77 104 131 163 206 257 310
#     4  10  21  37  55  74  98 128 164 208 256 302
#     4  10  18  28  43  66  97 130 164 199 237 277
#     4   8  14  24  40  62  91 130 165 192 225 268
#     4   8  15  27  45  70 101 134 165 200 235 274
#     4  10  19  32  50  73 102 135 171 205 242 288
#     4   9  17  29  47  72 101 131 162 199 247 307
#
# _framework density 16.760501000000001
#
# number of rings (size 3 to 8) (size 9 to 14) (size 15 to 20)
#    0.000    2.286    0.000    3.238    0.000    6.476 
#    0.000    5.238    0.000    0.000    0.000    0.000 
#    0.952    4.571    0.571    0.000    0.762    0.000 
#
# Total GULP energy -702437.638217 kJ/mol
# GULP energy per Si atom -5574.901891 kJ/mol
# Density = 1.672235 g / cm^3
# Si number density = 16.760501 Si / 1000 Ang^3
#
#
#
# Elastic Constant Matrix: (Units=GPa)
#
#
# Indices 1 2 3 4 5 6 
#
# 1 96.1780 54.2735 40.9990 0.0000 0.0000 0.0000
# 2 54.2735 96.1780 40.9990 0.0000 0.0000 0.0000
# 3 40.9990 40.9990 80.7857 0.0000 0.0000 0.0000
# 4 0.0000 0.0000 0.0000 9.6081 0.0000 0.0000
# 5 0.0000 0.0000 0.0000 0.0000 9.6081 0.0000
# 6 0.0000 0.0000 0.0000 0.0000 0.0000 20.9523
#
#
#
# Elastic Compliance Matrix: (Units=1/GPa)
#
#
# Indices 1 2 3 4 5 6 
#
# 1 0.016526 -0.007338 -0.004663 0.000000 0.000000 0.000000
# 2 -0.007338 0.016526 -0.004663 0.000000 0.000000 0.000000
# 3 -0.004663 -0.004663 0.017111 0.000000 0.000000 0.000000
# 4 0.000000 0.000000 0.000000 0.104079 0.000000 0.000000
# 5 0.000000 0.000000 0.000000 0.000000 0.104079 0.000000
# 6 0.000000 0.000000 0.000000 0.000000 0.000000 0.047728
#
#
# Mechanical properties :
#
#
# Convention : Reuss Voigt Hill
#
# Bulk Modulus (GPa) = 59.39793 60.63163 60.01478
# Shear Modulus (GPa) = 14.49327 17.15838 15.82583
#
# Velocity S-wave (km/s) = 2.94382 3.20306 3.07617
# Velocity P-wave (km/s) = 6.86082 7.06635 6.96435
#
# Compressibility (1/GPa) = 0.01683560
#
# Stress axis : x y z
#
# Youngs Moduli (GPa) = 60.51107 60.51107 58.44073
#
# Poissons Ratio (x) = 0.44402 0.27251
# Poissons Ratio (y) = 0.44402 0.27251
# Poissons Ratio (z) = 0.28216 0.28216
#
# Static dielectric constant tensor:
#      x y z
#    x 1.561930 0.000000 0.000000 
#    y 0.000000 1.561930 0.000000 
#    z 0.000000 0.000000 1.578960 
# 
# From -- ./inp_files/1916.got.cif
#   From: 2010.05.17/outbox.cif.g08.bks.cpg/sg191_1_cif.got.tgz:1916.got - 2010.05.20 12:20:32.
