data_PCOD9587425
_publ_section_title
;
Structure prediction by ZEFSAII (Michael W. Deem and Ramdas Pophale) SiO2 
 PCOD9587425
Probable space group: P 6/M M M
;
_chemical_formula_sum "Si O2"
_cell_formula_units_Z 168
_cell_length_a 22.861545
_cell_length_b 22.861545
_cell_length_c 25.639656
_cell_angle_alpha 90.000000
_cell_angle_beta 90.000000
_cell_angle_gamma 120.000000
_cell_volume 11605.236086
_symmetry_space_group_name_H-M "P 6/M M M"
_symmetry_group_IT_number 191
_symmetry_cell_setting 'hexagonal'
loop_
_space_group_symop_operation_xyz
x,y,z
x-y,x,z
-y,x-y,z
-x,-y,z
-x+y,-x,z
y,-x+y,z
x-y,-y,-z
-x,-x+y,-z
y,x,-z
-y,-x,-z
-x+y,y,-z
x,x-y,-z
-x,-y,-z
-x+y,-x,-z
y,-x+y,-z
x,y,-z
x-y,x,-z
-y,x-y,-z
-x+y,y,z
x,x-y,z
-y,-x,z
y,x,z
x-y,-y,z
-x,-x+y,z
loop_
_atom_site_type_symbol
_atom_site_label
_atom_site_fract_x
_atom_site_fract_y
_atom_site_fract_z
Si Si1 0.407426 0.081836 0.058301
Si Si2 0.922875 0.207009 0.113227
Si Si3 0.467058 0.391022 0.439817
Si Si4 0.441283 0.289035 0.253841
Si Si5 0.788403 0.710910 0.762155
Si Si6 0.469979 0.391199 0.838971
Si Si7 0.806805 0.332756 0.358997
O O1 0.350604 0.097452 0.079599
O O2 0.462082 0.102715 0.103777
O O3 0.370131 0.000000 0.055744
O O4 0.430832 0.107961 0.000000
O O5 0.870689 0.129312 0.103574
O O6 0.919383 0.220583 0.174961
O O7 0.000000 0.230581 0.101166
O O8 0.454067 0.367692 0.500000
O O9 0.537627 0.462374 0.439445
O O10 0.410290 0.410290 0.423446
O O11 0.480814 0.343350 0.402388
O O12 0.447203 0.223602 0.239456
O O13 0.361582 0.259447 0.264204
O O14 0.462089 0.340156 0.206121
O O15 0.488186 0.323107 0.303848
O O16 0.866025 0.732049 0.750756
O O17 0.764301 0.764301 0.749381
O O18 0.540498 0.459503 0.834488
O O19 0.411590 0.411590 0.833341
O O20 0.799806 0.399903 0.358431
O O21 0.734380 0.265621 0.368253
#
# Coordination Sequence:
#
# PCOD9587425 Si02
#       7
#    24  24  24  24  24  24  24
#     4   9  17  28  41  59  83 107 131 163 207 259
#     4   9  16  27  43  62  84 110 139 171 209 252
#     4   8  15  29  47  66  89 117 150 187 224 261
#     4  10  19  30  44  62  87 117 149 184 217 255
#     4   9  16  27  44  63  85 113 144 179 218 261
#     4  10  19  30  45  64  85 108 135 171 216 265
#     4  10  20  32  46  66  92 122 154 189 229 272
#
# _framework density 14.476224999999999
#
# number of rings (size 3 to 8) (size 9 to 14) (size 15 to 20)
#    0.000    2.714    1.429    1.429    0.000    2.000 
#    0.000    2.857    0.000    1.429    0.000    2.000 
#    0.000    0.000    0.000    3.571    0.000    3.714 
#
# Total GULP energy -935363.137208 kJ/mol
# GULP energy per Si atom -5567.637721 kJ/mol
# Density = 1.444328 g / cm^3
# Si number density = 14.476225 Si / 1000 Ang^3
#
#
#
# Elastic Constant Matrix: (Units=GPa)
#
#
# Indices 1 2 3 4 5 6 
#
# 1 78.1271 47.7578 46.9564 0.0000 0.0000 0.0000
# 2 47.7578 78.1271 46.9564 0.0000 0.0000 0.0000
# 3 46.9564 46.9564 62.6763 0.0000 0.0000 0.0000
# 4 0.0000 0.0000 0.0000 14.1074 0.0000 0.0000
# 5 0.0000 0.0000 0.0000 0.0000 14.1074 0.0000
# 6 0.0000 0.0000 0.0000 0.0000 0.0000 15.1847
#
#
#
# Elastic Compliance Matrix: (Units=1/GPa)
#
#
# Indices 1 2 3 4 5 6 
#
# 1 0.025469 -0.007459 -0.013492 0.000000 0.000000 0.000000
# 2 -0.007459 0.025469 -0.013492 0.000000 0.000000 0.000000
# 3 -0.013492 -0.013492 0.036172 0.000000 0.000000 0.000000
# 4 0.000000 0.000000 0.000000 0.070885 0.000000 0.000000
# 5 0.000000 0.000000 0.000000 0.000000 0.070885 0.000000
# 6 0.000000 0.000000 0.000000 0.000000 0.000000 0.065856
#
#
# Mechanical properties :
#
#
# Convention : Reuss Voigt Hill
#
# Bulk Modulus (GPa) = 54.88231 55.80795 55.34513
# Shear Modulus (GPa) = 13.52460 13.83055 13.67758
#
# Velocity S-wave (km/s) = 3.05989 3.09430 3.07714
# Velocity P-wave (km/s) = 7.10480 7.16948 7.13721
#
# Compressibility (1/GPa) = 0.01822081
#
# Stress axis : x y z
#
# Youngs Moduli (GPa) = 39.26388 39.26388 27.64587
#
# Poissons Ratio (x) = 0.29288 0.37301
# Poissons Ratio (y) = 0.29288 0.37301
# Poissons Ratio (z) = 0.52977 0.52977
#
# Static dielectric constant tensor:
#      x y z
#    x 1.477810 0.000000 0.000000 
#    y 0.000000 1.477810 0.000000 
#    z 0.000000 0.000000 1.479660 
# 
# From -- ./inp_files/9208.got.cif
#   From: 2010.05.17/outbox.cif.g08.bks.cpg/sg191_5_cif.got.tgz:9208.got - 2010.05.20 12:20:32.
