data_PCOD9587960
_publ_section_title
;
Structure prediction by ZEFSAII (Michael W. Deem and Ramdas Pophale) SiO2 
 PCOD9587960
Probable space group: P 6/M M M
;
_chemical_formula_sum "Si O2"
_cell_formula_units_Z 156
_cell_length_a 22.669747
_cell_length_b 22.669747
_cell_length_c 19.315499
_cell_angle_alpha 90.000000
_cell_angle_beta 90.000000
_cell_angle_gamma 120.000000
_cell_volume 8596.663167
_symmetry_space_group_name_H-M "P 6/M M M"
_symmetry_group_IT_number 191
_symmetry_cell_setting 'hexagonal'
loop_
_space_group_symop_operation_xyz
x,y,z
x-y,x,z
-y,x-y,z
-x,-y,z
-x+y,-x,z
y,-x+y,z
x-y,-y,-z
-x,-x+y,-z
y,x,-z
-y,-x,-z
-x+y,y,-z
x,x-y,-z
-x,-y,-z
-x+y,-x,-z
y,-x+y,-z
x,y,-z
x-y,x,-z
-y,x-y,-z
-x+y,y,z
x,x-y,z
-y,-x,z
y,x,z
x-y,-y,z
-x,-x+y,z
loop_
_atom_site_type_symbol
_atom_site_label
_atom_site_fract_x
_atom_site_fract_y
_atom_site_fract_z
Si Si1 0.921681 0.306930 0.124515
Si Si2 0.076179 0.285068 0.770324
Si Si3 0.666350 0.469929 0.678355
Si Si4 0.805225 0.471397 0.844049
Si Si5 0.076596 0.789035 0.396399
Si Si6 0.347683 0.427127 0.421353
Si Si7 0.785665 0.078252 0.000000
O O1 0.910845 0.266100 0.196250
O O2 0.867066 0.330992 0.119536
O O3 0.912629 0.252633 0.066002
O O4 0.000000 0.366848 0.121377
O O5 0.135067 0.270134 0.793213
O O6 0.077788 0.289665 0.687459
O O7 0.000000 0.228993 0.792165
O O8 0.740429 0.480857 0.660725
O O9 0.607615 0.392386 0.665089
O O10 0.665121 0.481238 0.760784
O O11 0.650477 0.519670 0.633568
O O12 0.734335 0.468669 0.859557
O O13 0.801688 0.400844 0.861939
O O14 0.137940 0.862061 0.418785
O O15 0.087660 0.727450 0.419943
O O16 0.000000 0.769030 0.417153
O O17 0.361504 0.454380 0.500000
O O18 0.399558 0.399558 0.404854
O O19 0.864103 0.135898 0.000000
O O20 0.768015 0.000000 0.000000
#
# Coordination Sequence:
#
# PCOD9587960 Si02
#       7
#    24  24  24  24  24  24  12
#     4  10  20  33  51  76 103 131 165 207 252 295
#     4   9  16  27  45  68  93 121 156 197 239 284
#     4  10  21  36  54  75  99 129 164 202 243 290
#     4  10  20  35  55  77 102 131 165 204 246 295
#     4   9  17  29  46  68  93 121 154 194 239 286
#     4  10  21  35  50  70  96 125 158 198 245 294
#     4  10  20  34  53  78 109 143 177 213 256 304
#
# _framework density 18.146576
#
# number of rings (size 3 to 8) (size 9 to 14) (size 15 to 20)
#    0.000    2.308    0.000    3.077    0.000    7.692 
#    0.000    2.692    0.000    2.692    0.000    3.231 
#    0.000    3.692    0.000    4.000    0.000    4.308 
#
# Total GULP energy -870690.706319 kJ/mol
# GULP energy per Si atom -5581.350682 kJ/mol
# Density = 1.810527 g / cm^3
# Si number density = 18.146576 Si / 1000 Ang^3
#
#
#
# Elastic Constant Matrix: (Units=GPa)
#
#
# Indices 1 2 3 4 5 6 
#
# 1 99.3770 67.5906 23.6670 0.0000 0.0000 0.0000
# 2 67.5906 99.3770 23.6670 0.0000 0.0000 0.0000
# 3 23.6670 23.6670 28.8250 0.0000 0.0000 0.0000
# 4 0.0000 0.0000 0.0000 0.1432 0.0000 0.0000
# 5 0.0000 0.0000 0.0000 0.0000 0.1432 0.0000
# 6 0.0000 0.0000 0.0000 0.0000 0.0000 15.8932
#
#
#
# Elastic Compliance Matrix: (Units=1/GPa)
#
#
# Indices 1 2 3 4 5 6 
#
# 1 0.019633 -0.011827 -0.006409 0.000000 0.000000 0.000000
# 2 -0.011827 0.019633 -0.006409 0.000000 0.000000 0.000000
# 3 -0.006409 -0.006409 0.045217 0.000000 0.000000 0.000000
# 4 0.000000 0.000000 0.000000 6.983797 0.000002 0.000000
# 5 0.000000 0.000000 0.000000 0.000002 6.983794 0.000000
# 6 0.000000 0.000000 0.000000 0.000000 0.000000 0.062920
#
#
# Mechanical properties :
#
#
# Convention : Reuss Voigt Hill
#
# Bulk Modulus (GPa) = 28.41556 50.82533 39.62044
# Shear Modulus (GPa) = 0.35271 10.74622 5.54946
#
# Velocity S-wave (km/s) = 0.44135 2.43614 1.75065
# Velocity P-wave (km/s) = 3.99407 5.99850 5.09581
#
# Compressibility (1/GPa) = 0.03519199
#
# Stress axis : x y z
#
# Youngs Moduli (GPa) = 50.93445 50.93445 22.11565
#
# Poissons Ratio (x) = 0.60240 0.14175
# Poissons Ratio (y) = 0.60240 0.14175
# Poissons Ratio (z) = 0.32645 0.32645
#
# Static dielectric constant tensor:
#      x y z
#    x 1.608910 0.000000 0.000000 
#    y 0.000000 1.608910 0.000000 
#    z 0.000000 0.000000 1.661610 
# 
# From -- ./inp_files/7732.got.cif
#   From: 2010.05.17/outbox.cif.g08.bks.cpg/sg191_4_cif.got.tgz:7732.got - 2010.05.20 12:20:32.
