data_PCOD9587420
_publ_section_title
;
Structure prediction by ZEFSAII (Michael W. Deem and Ramdas Pophale) SiO2 
 PCOD9587420
Probable space group: P 6/M M M
;
_chemical_formula_sum "Si O2"
_cell_formula_units_Z 144
_cell_length_a 25.180444
_cell_length_b 25.180444
_cell_length_c 17.005509
_cell_angle_alpha 90.000000
_cell_angle_beta 90.000000
_cell_angle_gamma 120.000000
_cell_volume 9337.853036
_symmetry_space_group_name_H-M "P 6/M M M"
_symmetry_group_IT_number 191
_symmetry_cell_setting 'hexagonal'
loop_
_space_group_symop_operation_xyz
x,y,z
x-y,x,z
-y,x-y,z
-x,-y,z
-x+y,-x,z
y,-x+y,z
x-y,-y,-z
-x,-x+y,-z
y,x,-z
-y,-x,-z
-x+y,y,-z
x,x-y,-z
-x,-y,-z
-x+y,-x,-z
y,-x+y,-z
x,y,-z
x-y,x,-z
-y,x-y,-z
-x+y,y,z
x,x-y,z
-y,-x,z
y,x,z
x-y,-y,z
-x,-x+y,z
loop_
_atom_site_type_symbol
_atom_site_label
_atom_site_fract_x
_atom_site_fract_y
_atom_site_fract_z
Si Si1 0.667254 0.452489 0.160015
Si Si2 0.738644 0.930351 0.094418
Si Si3 0.699973 0.632285 0.809319
Si Si4 0.602825 0.085417 0.909119
Si Si5 0.472928 0.070111 0.594645
Si Si6 0.710414 0.167166 0.694450
O O1 0.731409 0.462817 0.131454
O O2 0.618262 0.381739 0.170493
O O3 0.639746 0.481202 0.100501
O O4 0.678554 0.487126 0.243406
O O5 0.750444 0.875222 0.118500
O O6 0.676055 0.921420 0.132238
O O7 0.791205 0.000000 0.114849
O O8 0.732332 0.927848 0.000000
O O9 0.673447 0.673447 0.773567
O O10 0.642929 0.576879 0.856084
O O11 0.724235 0.602389 0.746390
O O12 0.533369 0.066737 0.883800
O O13 0.601183 0.068215 0.000000
O O14 0.470748 0.072233 0.500000
O O15 0.539528 0.079055 0.616473
O O16 0.463706 0.123187 0.632086
O O17 0.423358 0.000000 0.619252
O O18 0.773102 0.226898 0.666075
#
# Coordination Sequence:
#
# PCOD9587420 Si02
#       6
#    24  24  24  24  24  24
#     4   9  17  28  41  56  75 103 138 175 215 260
#     4   9  17  29  45  64  86 113 145 180 217 258
#     4  10  19  30  44  62  84 112 146 179 213 256
#     4   9  18  30  40  54  79 108 141 184 231 272
#     4   9  18  33  52  71  90 114 144 176 210 252
#     4  10  19  30  45  66  90 112 136 170 214 258
#
# _framework density 15.421103
#
# number of rings (size 3 to 8) (size 9 to 14) (size 15 to 20)
#    0.000    2.667    0.000    2.667    0.000    3.333 
#    0.000    0.833    0.000    1.500    0.000    1.167 
#    0.000    0.000    0.000    0.000    0.000    0.000 
#
# Total GULP energy -801913.757175 kJ/mol
# GULP energy per Si atom -5568.845536 kJ/mol
# Density = 1.538600 g / cm^3
# Si number density = 15.421103 Si / 1000 Ang^3
#
#
#
# Elastic Constant Matrix: (Units=GPa)
#
#
# Indices 1 2 3 4 5 6 
#
# 1 96.6135 66.7280 28.2352 0.0000 0.0000 0.0000
# 2 66.7280 96.6135 28.2352 0.0000 0.0000 0.0000
# 3 28.2352 28.2352 27.4267 0.0000 0.0000 0.0000
# 4 0.0000 0.0000 0.0000 8.0095 0.0000 0.0000
# 5 0.0000 0.0000 0.0000 0.0000 8.0095 0.0000
# 6 0.0000 0.0000 0.0000 0.0000 0.0000 14.9427
#
#
#
# Elastic Compliance Matrix: (Units=1/GPa)
#
#
# Indices 1 2 3 4 5 6 
#
# 1 0.021483 -0.011978 -0.009785 0.000000 0.000000 0.000000
# 2 -0.011978 0.021483 -0.009785 0.000000 0.000000 0.000000
# 3 -0.009785 -0.009785 0.056608 0.000000 0.000000 0.000000
# 4 0.000000 0.000000 0.000000 0.124852 0.000000 0.000000
# 5 0.000000 0.000000 0.000000 0.000000 0.124852 0.000000
# 6 0.000000 0.000000 0.000000 0.000000 0.000000 0.066922
#
#
# Mechanical properties :
#
#
# Convention : Reuss Voigt Hill
#
# Bulk Modulus (GPa) = 27.41429 51.89449 39.65439
# Shear Modulus (GPa) = 10.17383 12.68936 11.43160
#
# Velocity S-wave (km/s) = 2.57132 2.87166 2.72563
# Velocity P-wave (km/s) = 5.16055 6.68729 5.97290
#
# Compressibility (1/GPa) = 0.03647732
#
# Stress axis : x y z
#
# Youngs Moduli (GPa) = 46.54823 46.54823 17.66526
#
# Poissons Ratio (x) = 0.55755 0.17286
# Poissons Ratio (y) = 0.55755 0.17286
# Poissons Ratio (z) = 0.45549 0.45549
#
# Static dielectric constant tensor:
#      x y z
#    x 1.525670 0.000000 0.000000 
#    y 0.000000 1.525670 0.000000 
#    z 0.000000 0.000000 1.499170 
# 
# From -- ./inp_files/6562.got.cif
#   From: 2010.05.17/outbox.cif.g08.bks.cpg/sg191_4_cif.got.tgz:6562.got - 2010.05.20 12:20:32.
