data_PCOD9587502
_publ_section_title
;
Structure prediction by ZEFSAII (Michael W. Deem and Ramdas Pophale) SiO2 
 PCOD9587502
Probable space group: P 6/M M M
;
_chemical_formula_sum "Si O2"
_cell_formula_units_Z 132
_cell_length_a 18.285305
_cell_length_b 18.285305
_cell_length_c 28.355112
_cell_angle_alpha 90.000000
_cell_angle_beta 90.000000
_cell_angle_gamma 120.000000
_cell_volume 8210.439709
_symmetry_space_group_name_H-M "P 6/M M M"
_symmetry_group_IT_number 191
_symmetry_cell_setting 'hexagonal'
loop_
_space_group_symop_operation_xyz
x,y,z
x-y,x,z
-y,x-y,z
-x,-y,z
-x+y,-x,z
y,-x+y,z
x-y,-y,-z
-x,-x+y,-z
y,x,-z
-y,-x,-z
-x+y,y,-z
x,x-y,-z
-x,-y,-z
-x+y,-x,-z
y,-x+y,-z
x,y,-z
x-y,x,-z
-y,x-y,-z
-x+y,y,z
x,x-y,z
-y,-x,z
y,x,z
x-y,-y,z
-x,-x+y,z
loop_
_atom_site_type_symbol
_atom_site_label
_atom_site_fract_x
_atom_site_fract_y
_atom_site_fract_z
Si Si1 0.365862 0.468339 0.446704
Si Si2 0.532801 0.633441 0.178554
Si Si3 0.667568 0.502418 0.283142
Si Si4 0.738176 0.640626 0.361562
Si Si5 0.532223 0.634123 0.000000
Si Si6 0.634706 0.735394 0.089131
O O1 0.333421 0.463417 0.500000
O O2 0.434333 0.565668 0.435861
O O3 0.419210 0.419210 0.447281
O O4 0.297417 0.421719 0.406618
O O5 0.438482 0.561519 0.163410
O O6 0.583884 0.583884 0.187147
O O7 0.525688 0.670698 0.228184
O O8 0.582264 0.699395 0.137459
O O9 0.737901 0.475802 0.292174
O O10 0.574245 0.425756 0.293168
O O11 0.692147 0.582095 0.316349
O O12 0.837207 0.674413 0.357255
O O13 0.710599 0.710599 0.366355
O O14 0.568548 0.691251 0.046358
O O15 0.577385 0.577385 0.000000
O O16 0.432272 0.567729 0.000000
O O17 0.670958 0.835479 0.086543
O O18 0.702056 0.702056 0.086399
#
# Coordination Sequence:
#
# PCOD9587502 Si02
#       6
#    24  24  24  24  12  24
#     4   8  14  26  45  68  92 117 145 176 211 255
#     4   9  17  29  46  67  90 119 155 191 225 265
#     4  10  19  30  45  67  96 126 153 181 217 264
#     4  10  20  32  47  67  90 117 151 192 234 274
#     4   9  17  30  49  70  90 114 144 179 221 270
#     4  10  19  31  48  69  93 122 158 197 234 272
#
# _framework density 16.077093000000001
#
# number of rings (size 3 to 8) (size 9 to 14) (size 15 to 20)
#    0.000    2.636    0.000    3.182    0.000    4.364 
#    0.000    0.000    0.000    6.909    0.000    0.000 
#    0.000    2.182    0.000   10.364    0.000    0.000 
#
# Total GULP energy -735482.579898 kJ/mol
# GULP energy per Si atom -5571.837726 kJ/mol
# Density = 1.604050 g / cm^3
# Si number density = 16.077093 Si / 1000 Ang^3
#
#
#
# Elastic Constant Matrix: (Units=GPa)
#
#
# Indices 1 2 3 4 5 6 
#
# 1 77.3677 46.4835 33.0278 0.0000 0.0000 0.0000
# 2 46.4835 77.3677 33.0278 0.0000 0.0000 0.0000
# 3 33.0278 33.0278 61.3498 0.0000 0.0000 0.0000
# 4 0.0000 0.0000 0.0000 11.6870 0.0000 0.0000
# 5 0.0000 0.0000 0.0000 0.0000 11.6870 0.0000
# 6 0.0000 0.0000 0.0000 0.0000 0.0000 15.4421
#
#
#
# Elastic Compliance Matrix: (Units=1/GPa)
#
#
# Indices 1 2 3 4 5 6 
#
# 1 0.021853 -0.010526 -0.006098 0.000000 0.000000 0.000000
# 2 -0.010526 0.021853 -0.006098 0.000000 0.000000 0.000000
# 3 -0.006098 -0.006098 0.022865 0.000000 0.000000 0.000000
# 4 0.000000 0.000000 0.000000 0.085565 0.000000 0.000000
# 5 0.000000 0.000000 0.000000 0.000000 0.085565 0.000000
# 6 0.000000 0.000000 0.000000 0.000000 0.000000 0.064758
#
#
# Mechanical properties :
#
#
# Convention : Reuss Voigt Hill
#
# Bulk Modulus (GPa) = 47.33133 49.01818 48.17476
# Shear Modulus (GPa) = 14.08672 14.66630 14.37651
#
# Velocity S-wave (km/s) = 2.96328 3.02362 2.99360
# Velocity P-wave (km/s) = 6.41967 6.53799 6.47910
#
# Compressibility (1/GPa) = 0.02112765
#
# Stress axis : x y z
#
# Youngs Moduli (GPa) = 45.76106 45.76106 43.73453
#
# Poissons Ratio (x) = 0.48170 0.26667
# Poissons Ratio (y) = 0.48170 0.26667
# Poissons Ratio (z) = 0.27903 0.27903
#
# Static dielectric constant tensor:
#      x y z
#    x 1.534510 0.000000 0.000000 
#    y 0.000000 1.534510 0.000000 
#    z 0.000000 0.000000 1.548380 
# 
# From -- ./inp_files/9729.got.cif
#   From: 2010.05.17/outbox.cif.g08.bks.cpg/sg191_5_cif.got.tgz:9729.got - 2010.05.20 12:20:32.
