data_PCOD9587273
_publ_section_title
;
Structure prediction by ZEFSAII (Michael W. Deem and Ramdas Pophale) SiO2 
 PCOD9587273
Probable space group: P 6/M M M
;
_chemical_formula_sum "Si O2"
_cell_formula_units_Z 108
_cell_length_a 31.405211
_cell_length_b 31.405211
_cell_length_c 8.609346
_cell_angle_alpha 90.000000
_cell_angle_beta 90.000000
_cell_angle_gamma 120.000000
_cell_volume 7353.671492
_symmetry_space_group_name_H-M "P 6/M M M"
_symmetry_group_IT_number 191
_symmetry_cell_setting 'hexagonal'
loop_
_space_group_symop_operation_xyz
x,y,z
x-y,x,z
-y,x-y,z
-x,-y,z
-x+y,-x,z
y,-x+y,z
x-y,-y,-z
-x,-x+y,-z
y,x,-z
-y,-x,-z
-x+y,y,-z
x,x-y,-z
-x,-y,-z
-x+y,-x,-z
y,-x+y,-z
x,y,-z
x-y,x,-z
-y,x-y,-z
-x+y,y,z
x,x-y,z
-y,-x,z
y,x,z
x-y,-y,z
-x,-x+y,z
loop_
_atom_site_type_symbol
_atom_site_label
_atom_site_fract_x
_atom_site_fract_y
_atom_site_fract_z
Si Si1 0.470227 0.940453 0.178002
Si Si2 0.000000 0.277150 0.188378
Si Si3 0.835666 0.164335 0.188413
Si Si4 0.000000 0.821360 0.187658
Si Si5 0.892298 0.107703 0.686110
Si Si6 0.723724 0.626166 0.187436
Si Si7 0.057143 0.619400 0.685228
O O1 0.419184 0.926476 0.259792
O O2 0.500000 0.000000 0.179826
O O3 0.461970 0.923940 0.000000
O O4 0.000000 0.228350 0.234838
O O5 0.047845 0.325641 0.240922
O O6 0.000000 0.277427 0.000000
O O7 0.863678 0.136323 0.253862
O O8 0.860927 0.221587 0.232713
O O9 0.838642 0.161359 0.000000
O O10 0.948426 0.813103 0.252108
O O11 0.000000 0.824419 0.000000
O O12 0.891837 0.108164 0.500000
O O13 0.674054 0.581177 0.252825
O O14 0.721089 0.623150 0.000000
O O15 0.055960 0.620016 0.500000
O O16 0.000000 0.597795 0.741293
#
# Coordination Sequence:
#
# PCOD9587273 Si02
#       7
#    12  12  12  12  12  24  24
#     4   9  17  29  45  63  83 113 152 191 224 261
#     4   9  16  27  49  70  87 116 161 201 228 269
#     4  10  20  34  50  68  93 131 169 199 234 288
#     4  11  21  39  59  74  93 128 163 191 233 297
#     4  12  24  36  52  79 105 122 148 199 251 290
#     4  10  18  30  46  66  90 122 164 201 231 273
#     4  10  19  29  42  63  90 119 150 190 237 276
#
# _framework density 14.686541
#
# number of rings (size 3 to 8) (size 9 to 14) (size 15 to 20)
#    0.000    1.889    3.333    2.333    0.000    3.111 
#    0.000    0.000    0.000    0.222    0.000    1.556 
#    0.000    0.000    0.000    0.667    0.000   10.889 
#
# Total GULP energy -601924.359106 kJ/mol
# GULP energy per Si atom -5573.373695 kJ/mol
# Density = 1.465311 g / cm^3
# Si number density = 14.686541 Si / 1000 Ang^3
#
#
#
# Elastic Constant Matrix: (Units=GPa)
#
#
# Indices 1 2 3 4 5 6 
#
# 1 113.4021 67.4712 34.4383 0.0000 0.0000 0.0000
# 2 67.4712 113.4021 34.4383 0.0000 0.0000 0.0000
# 3 34.4383 34.4383 49.8086 0.0000 0.0000 0.0000
# 4 0.0000 0.0000 0.0000 11.9183 0.0000 0.0000
# 5 0.0000 0.0000 0.0000 0.0000 11.9183 0.0000
# 6 0.0000 0.0000 0.0000 0.0000 0.0000 22.9654
#
#
#
# Elastic Compliance Matrix: (Units=1/GPa)
#
#
# Indices 1 2 3 4 5 6 
#
# 1 0.014638 -0.007134 -0.005189 0.000000 0.000000 0.000000
# 2 -0.007134 0.014638 -0.005189 0.000000 0.000000 0.000000
# 3 -0.005189 -0.005189 0.027252 0.000000 0.000000 0.000000
# 4 0.000000 0.000000 0.000000 0.083905 0.000000 0.000000
# 5 0.000000 0.000000 0.000000 0.000000 0.083905 0.000000
# 6 0.000000 0.000000 0.000000 0.000000 0.000000 0.043544
#
#
# Mechanical properties :
#
#
# Convention : Reuss Voigt Hill
#
# Bulk Modulus (GPa) = 46.49837 61.03428 53.76632
# Shear Modulus (GPa) = 16.12526 18.71140 17.41833
#
# Velocity S-wave (km/s) = 3.31715 3.57326 3.44758
# Velocity P-wave (km/s) = 6.81179 7.65979 7.24820
#
# Compressibility (1/GPa) = 0.02150613
#
# Stress axis : x y z
#
# Youngs Moduli (GPa) = 68.31421 68.31421 36.69442
#
# Poissons Ratio (x) = 0.48733 0.19040
# Poissons Ratio (y) = 0.48733 0.19040
# Poissons Ratio (z) = 0.35447 0.35447
#
# Static dielectric constant tensor:
#      x y z
#    x 1.485980 0.000000 0.000000 
#    y 0.000000 1.485980 0.000000 
#    z 0.000000 0.000000 1.497900 
# 
# From -- ./inp_files/1801.got.cif
#   From: 2010.05.17/outbox.cif.g08.bks.cpg/sg191_1_cif.got.tgz:1801.got - 2010.05.20 12:20:32.
