data_PCOD9587451
_publ_section_title
;
Structure prediction by ZEFSAII (Michael W. Deem and Ramdas Pophale) SiO2 
 PCOD9587451
Probable space group: P 6/M M M
;
_chemical_formula_sum "Si O2"
_cell_formula_units_Z 168
_cell_length_a 18.553035
_cell_length_b 18.553035
_cell_length_c 34.783338
_cell_angle_alpha 90.000000
_cell_angle_beta 90.000000
_cell_angle_gamma 120.000000
_cell_volume 10368.879236
_symmetry_space_group_name_H-M "P 6/M M M"
_symmetry_group_IT_number 191
_symmetry_cell_setting 'hexagonal'
loop_
_space_group_symop_operation_xyz
x,y,z
x-y,x,z
-y,x-y,z
-x,-y,z
-x+y,-x,z
y,-x+y,z
x-y,-y,-z
-x,-x+y,-z
y,x,-z
-y,-x,-z
-x+y,y,-z
x,x-y,-z
-x,-y,-z
-x+y,-x,-z
y,-x+y,-z
x,y,-z
x-y,x,-z
-y,x-y,-z
-x+y,y,z
x,x-y,z
-y,-x,z
y,x,z
x-y,-y,z
-x,-x+y,z
loop_
_atom_site_type_symbol
_atom_site_label
_atom_site_fract_x
_atom_site_fract_y
_atom_site_fract_z
Si Si1 0.096301 0.903700 0.046770
Si Si2 0.836056 0.502098 0.176045
Si Si3 0.332567 0.498677 0.396310
Si Si4 0.099658 0.632117 0.688357
Si Si5 0.806656 0.613312 0.953917
Si Si6 0.639627 0.737026 0.240992
Si Si7 0.533278 0.900730 0.088870
Si Si8 0.906593 0.648199 0.455496
O O1 0.144662 0.855339 0.058193
O O2 0.000000 0.855287 0.059388
O O3 0.095562 0.904438 0.000000
O O4 0.740519 0.481038 0.177019
O O5 0.843295 0.421648 0.186998
O O6 0.886332 0.578880 0.204774
O O7 0.870472 0.527066 0.132820
O O8 0.261514 0.523028 0.401812
O O9 0.423149 0.576852 0.402516
O O10 0.329082 0.469518 0.352418
O O11 0.312652 0.425610 0.426175
O O12 0.124834 0.562417 0.698938
O O13 0.117644 0.698105 0.721673
O O14 0.000000 0.581818 0.683071
O O15 0.854598 0.568397 0.937170
O O16 0.805211 0.610422 0.000000
O O17 0.669939 0.834970 0.239019
O O18 0.709444 0.709444 0.242344
O O19 0.441013 0.882026 0.077577
O O20 0.592912 0.000000 0.086943
O O21 0.898472 0.619848 0.500000
O O22 0.836881 0.673761 0.449030
O O23 0.000000 0.721587 0.449919
#
# Coordination Sequence:
#
# PCOD9587451 Si02
#       8
#    12  24  24  24  12  24  24  24
#     4   9  17  30  51  78 106 134 164 203 252 307
#     4  10  19  33  54  80 107 135 164 198 237 285
#     4  10  19  30  44  64  94 132 170 206 243 282
#     4   9  17  29  46  70  99 129 161 198 243 295
#     4  11  22  37  54  77 104 136 173 212 255 302
#     4  10  20  33  51  75 102 132 167 206 247 293
#     4  10  21  37  56  77 103 136 173 212 252 295
#     4   9  18  32  49  68  89 116 154 200 248 297
#
# _framework density 16.20233
#
# number of rings (size 3 to 8) (size 9 to 14) (size 15 to 20)
#    0.000    2.286    0.714    2.500    0.000    4.000 
#    0.429    1.429    0.000    5.714    0.000    1.000 
#    0.000    0.000    0.000    4.571    0.000    3.143 
#
# Total GULP energy -936910.379731 kJ/mol
# GULP energy per Si atom -5576.847498 kJ/mol
# Density = 1.616545 g / cm^3
# Si number density = 16.202330 Si / 1000 Ang^3
#
#
#
# Elastic Constant Matrix: (Units=GPa)
#
#
# Indices 1 2 3 4 5 6 
#
# 1 103.9079 71.1630 50.3872 0.0000 0.0000 0.0000
# 2 71.1630 103.9079 50.3872 0.0000 0.0000 0.0000
# 3 50.3872 50.3872 64.6575 0.0000 0.0000 0.0000
# 4 0.0000 0.0000 0.0000 21.4633 0.0000 0.0000
# 5 0.0000 0.0000 0.0000 0.0000 21.4633 0.0000
# 6 0.0000 0.0000 0.0000 0.0000 0.0000 16.3724
#
#
#
# Elastic Compliance Matrix: (Units=1/GPa)
#
#
# Indices 1 2 3 4 5 6 
#
# 1 0.020449 -0.010090 -0.008072 0.000000 0.000000 0.000000
# 2 -0.010090 0.020449 -0.008072 0.000000 0.000000 0.000000
# 3 -0.008072 -0.008072 0.028048 0.000000 0.000000 0.000000
# 4 0.000000 0.000000 0.000000 0.046591 0.000000 0.000000
# 5 0.000000 0.000000 0.000000 0.000000 0.046591 0.000000
# 6 0.000000 0.000000 0.000000 0.000000 0.000000 0.061078
#
#
# Mechanical properties :
#
#
# Convention : Reuss Voigt Hill
#
# Bulk Modulus (GPa) = 60.69704 68.48315 64.59010
# Shear Modulus (GPa) = 17.78296 18.56219 18.17257
#
# Velocity S-wave (km/s) = 3.31653 3.38842 3.35267
# Velocity P-wave (km/s) = 7.22559 7.59393 7.41204
#
# Compressibility (1/GPa) = 0.01647527
#
# Stress axis : x y z
#
# Youngs Moduli (GPa) = 48.90246 48.90246 35.65353
#
# Poissons Ratio (x) = 0.49344 0.28781
# Poissons Ratio (y) = 0.49344 0.28781
# Poissons Ratio (z) = 0.39476 0.39476
#
# Static dielectric constant tensor:
#      x y z
#    x 1.531310 0.000000 0.000000 
#    y 0.000000 1.531310 0.000000 
#    z 0.000000 0.000000 1.533410 
# 
# From -- ./inp_files/10769.got.cif
#   From: 2010.05.17/outbox.cif.g08.bks.cpg/sg191_6_cif.got.tgz:10769.got - 2010.05.20 12:20:32.
