data_PCOD9587898
_publ_section_title
;
Structure prediction by ZEFSAII (Michael W. Deem and Ramdas Pophale) SiO2 
 PCOD9587898
Probable space group: P 6/M M M
;
_chemical_formula_sum "Si O2"
_cell_formula_units_Z 120
_cell_length_a 18.078876
_cell_length_b 18.078876
_cell_length_c 25.892662
_cell_angle_alpha 90.000000
_cell_angle_beta 90.000000
_cell_angle_gamma 120.000000
_cell_volume 7329.092212
_symmetry_space_group_name_H-M "P 6/M M M"
_symmetry_group_IT_number 191
_symmetry_cell_setting 'hexagonal'
loop_
_space_group_symop_operation_xyz
x,y,z
x-y,x,z
-y,x-y,z
-x,-y,z
-x+y,-x,z
y,-x+y,z
x-y,-y,-z
-x,-x+y,-z
y,x,-z
-y,-x,-z
-x+y,y,-z
x,x-y,-z
-x,-y,-z
-x+y,-x,-z
y,-x+y,-z
x,y,-z
x-y,x,-z
-y,x-y,-z
-x+y,y,z
x,x-y,z
-y,-x,z
y,x,z
x-y,-y,z
-x,-x+y,z
loop_
_atom_site_type_symbol
_atom_site_label
_atom_site_fract_x
_atom_site_fract_y
_atom_site_fract_z
Si Si1 0.360426 0.262018 0.092863
Si Si2 0.902004 0.631540 0.401785
Si Si3 0.469005 0.103522 0.000000
Si Si4 0.097654 0.732280 0.212634
Si Si5 0.332408 0.840959 0.500000
Si Si6 0.159619 0.492628 0.695579
O O1 0.323261 0.161631 0.087388
O O2 0.292238 0.292238 0.082808
O O3 0.390128 0.285297 0.152204
O O4 0.435416 0.309284 0.051448
O O5 0.829674 0.659347 0.403293
O O6 0.882411 0.567555 0.449880
O O7 0.885597 0.575804 0.350078
O O8 0.000000 0.706091 0.403746
O O9 0.569019 0.138038 0.000000
O O10 0.421518 0.000000 0.000000
O O11 0.169041 0.830960 0.222506
O O12 0.121118 0.677208 0.250634
O O13 0.000000 0.707306 0.221799
O O14 0.259046 0.740955 0.500000
O O15 0.425584 0.851168 0.500000
O O16 0.259139 0.518278 0.694162
O O17 0.149371 0.574686 0.689085
#
# Coordination Sequence:
#
# PCOD9587898 Si02
#       6
#    24  24  12  24  12  24
#     4   9  17  30  48  69  93 121 154 190 229 274
#     4  10  21  35  51  72  97 126 159 197 240 281
#     4   9  17  28  43  64  88 114 146 185 225 264
#     4   9  18  31  47  68  93 122 155 192 233 274
#     4  10  20  33  50  73 102 134 165 196 232 275
#     4  10  20  33  49  70  97 127 157 189 228 275
#
# _framework density 16.373104999999999
#
# number of rings (size 3 to 8) (size 9 to 14) (size 15 to 20)
#    0.000    2.500    0.000    2.100    0.000    4.000 
#    0.000    4.000    0.000    2.200    0.000    2.800 
#    0.000    9.600    0.000    0.400    0.000    0.800 
#
# Total GULP energy -668790.017932 kJ/mol
# GULP energy per Si atom -5573.250149 kJ/mol
# Density = 1.633584 g / cm^3
# Si number density = 16.373105 Si / 1000 Ang^3
#
#
#
# Elastic Constant Matrix: (Units=GPa)
#
#
# Indices 1 2 3 4 5 6 
#
# 1 94.2917 72.2447 45.2442 0.0000 0.0000 0.0000
# 2 72.2447 94.2917 45.2442 0.0000 0.0000 0.0000
# 3 45.2442 45.2442 79.3869 0.0000 0.0000 0.0000
# 4 0.0000 0.0000 0.0000 17.2897 0.0000 0.0000
# 5 0.0000 0.0000 0.0000 0.0000 17.2897 0.0000
# 6 0.0000 0.0000 0.0000 0.0000 0.0000 11.0235
#
#
#
# Elastic Compliance Matrix: (Units=1/GPa)
#
#
# Indices 1 2 3 4 5 6 
#
# 1 0.027028 -0.018330 -0.004957 0.000000 0.000000 0.000000
# 2 -0.018330 0.027028 -0.004957 0.000000 0.000000 0.000000
# 3 -0.004957 -0.004957 0.018247 0.000000 0.000000 0.000000
# 4 0.000000 0.000000 0.000000 0.057838 0.000000 0.000000
# 5 0.000000 0.000000 0.000000 0.000000 0.057838 0.000000
# 6 0.000000 0.000000 0.000000 0.000000 0.000000 0.090715
#
#
# Mechanical properties :
#
#
# Convention : Reuss Voigt Hill
#
# Bulk Modulus (GPa) = 63.23371 65.93741 64.58556
# Shear Modulus (GPa) = 14.68627 16.13641 15.41134
#
# Velocity S-wave (km/s) = 2.99820 3.14274 3.07132
# Velocity P-wave (km/s) = 7.11969 7.31630 7.21867
#
# Compressibility (1/GPa) = 0.01581435
#
# Stress axis : x y z
#
# Youngs Moduli (GPa) = 36.99870 36.99870 54.80327
#
# Poissons Ratio (x) = 0.67817 0.27168
# Poissons Ratio (y) = 0.67817 0.27168
# Poissons Ratio (z) = 0.18341 0.18341
#
# Static dielectric constant tensor:
#      x y z
#    x 1.537310 0.000000 0.000000 
#    y 0.000000 1.537310 0.000000 
#    z 0.000000 0.000000 1.567550 
# 
# From -- ./inp_files/8503.got.cif
#   From: 2010.05.17/outbox.cif.g08.bks.cpg/sg191_5_cif.got.tgz:8503.got - 2010.05.20 12:20:32.
