data_PCOD9587556
_publ_section_title
;
Structure prediction by ZEFSAII (Michael W. Deem and Ramdas Pophale) SiO2 
 PCOD9587556
Probable space group: P 6/M M M
;
_chemical_formula_sum "Si O2"
_cell_formula_units_Z 90
_cell_length_a 26.119837
_cell_length_b 26.119837
_cell_length_c 7.781279
_cell_angle_alpha 90.000000
_cell_angle_beta 90.000000
_cell_angle_gamma 120.000000
_cell_volume 4597.508532
_symmetry_space_group_name_H-M "P 6/M M M"
_symmetry_group_IT_number 191
_symmetry_cell_setting 'hexagonal'
loop_
_space_group_symop_operation_xyz
x,y,z
x-y,x,z
-y,x-y,z
-x,-y,z
-x+y,-x,z
y,-x+y,z
x-y,-y,-z
-x,-x+y,-z
y,x,-z
-y,-x,-z
-x+y,y,-z
x,x-y,-z
-x,-y,-z
-x+y,-x,-z
y,-x+y,-z
x,y,-z
x-y,x,-z
-y,x-y,-z
-x+y,y,z
x,x-y,z
-y,-x,z
y,x,z
x-y,-y,z
-x,-x+y,z
loop_
_atom_site_type_symbol
_atom_site_label
_atom_site_fract_x
_atom_site_fract_y
_atom_site_fract_z
Si Si1 0.111721 0.888280 0.686136
Si Si2 0.933586 0.526725 0.709421
Si Si3 0.136815 0.068408 0.000000
Si Si4 0.163757 0.443135 0.296390
Si Si5 0.756384 0.689341 0.207311
O O1 0.097836 0.902165 0.500000
O O2 0.181789 0.918241 0.711530
O O3 0.088558 0.911443 0.834802
O O4 0.933823 0.530708 0.500000
O O5 0.928562 0.464281 0.752958
O O6 0.876236 0.529556 0.772440
O O7 0.000000 0.577404 0.766266
O O8 0.097999 0.097999 0.000000
O O9 0.172250 0.456406 0.500000
O O10 0.228319 0.456637 0.228051
O O11 0.117699 0.373884 0.270821
O O12 0.706822 0.706822 0.251967
O O13 0.762245 0.691519 0.000000
#
# Coordination Sequence:
#
# PCOD9587556 Si02
#       5
#    12  24   6  24  24
#     4  12  24  41  63  87 114 148 188 232 286 350
#     4   8  14  26  45  68  96 134 179 224 269 321
#     4  12  27  48  68  88 112 144 190 246 302 354
#     4  10  19  30  47  76 108 137 177 228 281 338
#     4  11  22  36  54  78 111 147 181 221 276 342
#
# _framework density 19.575818999999999
#
# number of rings (size 3 to 8) (size 9 to 14) (size 15 to 20)
#    0.000    1.867    2.667    3.267    0.000    4.800 
#    0.000    0.000    0.000    2.133    0.000    7.467 
#    0.000    0.000    0.000    0.000    0.000    0.000 
#
# Total GULP energy -502142.070701 kJ/mol
# GULP energy per Si atom -5579.356341 kJ/mol
# Density = 1.953126 g / cm^3
# Si number density = 19.575819 Si / 1000 Ang^3
#
#
#
# Elastic Constant Matrix: (Units=GPa)
#
#
# Indices 1 2 3 4 5 6 
#
# 1 111.1974 77.5160 9.8714 0.0000 0.0000 0.0000
# 2 77.5160 111.1974 9.8714 0.0000 0.0000 0.0000
# 3 9.8714 9.8714 37.0096 0.0000 0.0000 0.0000
# 4 0.0000 0.0000 0.0000 11.1844 0.0000 0.0000
# 5 0.0000 0.0000 0.0000 0.0000 11.1844 0.0000
# 6 0.0000 0.0000 0.0000 0.0000 0.0000 16.8407
#
#
#
# Elastic Compliance Matrix: (Units=1/GPa)
#
#
# Indices 1 2 3 4 5 6 
#
# 1 0.017571 -0.012119 -0.001454 0.000000 0.000000 0.000000
# 2 -0.012119 0.017571 -0.001454 0.000000 0.000000 0.000000
# 3 -0.001454 -0.001454 0.027796 0.000000 0.000000 0.000000
# 4 0.000000 0.000000 0.000000 0.089410 0.000000 0.000000
# 5 0.000000 0.000000 0.000000 0.000000 0.089410 0.000000
# 6 0.000000 0.000000 0.000000 0.000000 0.000000 0.059380
#
#
# Mechanical properties :
#
#
# Convention : Reuss Voigt Hill
#
# Bulk Modulus (GPa) = 30.41168 50.43577 40.42373
# Shear Modulus (GPa) = 14.61340 18.65162 16.63251
#
# Velocity S-wave (km/s) = 2.73518 3.09008 2.91803
# Velocity P-wave (km/s) = 5.05411 6.20900 5.66108
#
# Compressibility (1/GPa) = 0.03288210
#
# Stress axis : x y z
#
# Youngs Moduli (GPa) = 56.91338 56.91338 35.97684
#
# Poissons Ratio (x) = 0.68976 0.05231
# Poissons Ratio (y) = 0.68976 0.05231
# Poissons Ratio (z) = 0.08275 0.08275
#
# Static dielectric constant tensor:
#      x y z
#    x 1.687230 0.000000 0.000000 
#    y 0.000000 1.687230 0.000000 
#    z 0.000000 0.000000 1.691910 
# 
# From -- ./inp_files/1283.got.cif
#   From: 2010.05.17/outbox.cif.g08.bks.cpg/sg191_1_cif.got.tgz:1283.got - 2010.05.20 12:20:32.
