data_PCOD9587755
_publ_section_title
;
Structure prediction by ZEFSAII (Michael W. Deem and Ramdas Pophale) SiO2 
 PCOD9587755
Probable space group: P 6/M M M
;
_chemical_formula_sum "Si O2"
_cell_formula_units_Z 78
_cell_length_a 26.070821
_cell_length_b 26.070821
_cell_length_c 7.827379
_cell_angle_alpha 90.000000
_cell_angle_beta 90.000000
_cell_angle_gamma 120.000000
_cell_volume 4607.405221
_symmetry_space_group_name_H-M "P 6/M M M"
_symmetry_group_IT_number 191
_symmetry_cell_setting 'hexagonal'
loop_
_space_group_symop_operation_xyz
x,y,z
x-y,x,z
-y,x-y,z
-x,-y,z
-x+y,-x,z
y,-x+y,z
x-y,-y,-z
-x,-x+y,-z
y,x,-z
-y,-x,-z
-x+y,y,-z
x,x-y,-z
-x,-y,-z
-x+y,-x,-z
y,-x+y,-z
x,y,-z
x-y,x,-z
-y,x-y,-z
-x+y,y,z
x,x-y,z
-y,-x,z
y,x,z
x-y,-y,z
-x,-x+y,z
loop_
_atom_site_type_symbol
_atom_site_label
_atom_site_fract_x
_atom_site_fract_y
_atom_site_fract_z
Si Si1 0.356102 0.423866 0.204744
Si Si2 0.666678 0.774594 0.792324
Si Si3 0.466266 0.533735 0.702508
Si Si4 0.876530 0.000000 0.000000
Si Si5 0.794228 0.000000 0.694005
O O1 0.389532 0.389532 0.271599
O O2 0.288651 0.387323 0.264817
O O3 0.398069 0.492920 0.246474
O O4 0.354343 0.419363 0.000000
O O5 0.657295 0.828648 0.743786
O O6 0.729367 0.786159 0.723273
O O7 0.670445 0.773682 0.000000
O O8 0.500000 0.500000 0.777248
O O9 0.468363 0.531638 0.500000
O O10 0.881191 0.940596 0.000000
O O11 0.839156 0.000000 0.834530
O O12 0.813945 0.000000 0.500000
#
# Coordination Sequence:
#
# PCOD9587755 Si02
#       5
#    24  24  12   6  12
#     4   9  16  28  46  69  97 132 171 205 245 299
#     4  10  19  34  55  78 107 141 176 218 269 325
#     4   9  17  27  41  63  95 133 167 201 243 289
#     4  12  27  48  68  84 106 135 180 236 288 342
#     4  12  24  39  61  86 111 143 179 220 279 348
#
# _framework density 16.929268
#
# number of rings (size 3 to 8) (size 9 to 14) (size 15 to 20)
#    0.000    2.000    3.077    1.462    0.000    5.538 
#    0.000    0.000    0.000    0.923    0.000    0.000 
#    1.538    0.000    2.769    0.000    0.923    0.000 
#
# Total GULP energy -435006.490529 kJ/mol
# GULP energy per Si atom -5577.006289 kJ/mol
# Density = 1.689074 g / cm^3
# Si number density = 16.929268 Si / 1000 Ang^3
#
#
#
# Elastic Constant Matrix: (Units=GPa)
#
#
# Indices 1 2 3 4 5 6 
#
# 1 125.2635 87.2456 34.8021 0.0000 0.0000 0.0000
# 2 87.2456 125.2635 34.8021 0.0000 0.0000 0.0000
# 3 34.8021 34.8021 58.2027 0.0000 0.0000 0.0000
# 4 0.0000 0.0000 0.0000 -2.5992 0.0000 0.0000
# 5 0.0000 0.0000 0.0000 0.0000 -2.5992 0.0000
# 6 0.0000 0.0000 0.0000 0.0000 0.0000 19.0090
#
#
#
# Elastic Compliance Matrix: (Units=1/GPa)
#
#
# Indices 1 2 3 4 5 6 
#
# 1 0.016078 -0.010226 -0.003499 0.000000 0.000000 0.000000
# 2 -0.010226 0.016078 -0.003499 0.000000 0.000000 0.000000
# 3 -0.003499 -0.003499 0.021366 0.000000 0.000000 0.000000
# 4 0.000000 0.000000 0.000000 -0.384739 0.000000 0.000000
# 5 0.000000 0.000000 0.000000 0.000000 -0.384739 0.000000
# 6 0.000000 0.000000 0.000000 0.000000 0.000000 0.052607
#
#
# Mechanical properties :
#
#
# Convention : Reuss Voigt Hill
#
# Bulk Modulus (GPa) = 52.42967 69.15881 60.79424
# Shear Modulus (GPa) = -8.03154 12.88746 2.42796
#
# Velocity S-wave (km/s) = -2.18048 2.76207 1.19887
# Velocity P-wave (km/s) = 4.96968 7.14929 6.15671
#
# Compressibility (1/GPa) = 0.01907317
#
# Stress axis : x y z
#
# Youngs Moduli (GPa) = 62.19855 62.19855 46.80374
#
# Poissons Ratio (x) = 0.63603 0.16377
# Poissons Ratio (y) = 0.63603 0.16377
# Poissons Ratio (z) = 0.21763 0.21763
#
# Static dielectric constant tensor:
#      x y z
#    x 1.572470 0.000000 0.000000 
#    y 0.000000 1.572470 0.000000 
#    z 0.000000 0.000000 1.599050 
# 
# From -- ./inp_files/1097.got.cif
#   From: 2010.05.17/outbox.cif.g08.bks.cpg/sg191_1_cif.got.tgz:1097.got - 2010.05.20 12:20:32.
