data_PCOD9587473
_publ_section_title
;
Structure prediction by ZEFSAII (Michael W. Deem and Ramdas Pophale) SiO2 
 PCOD9587473
Probable space group: P 6/M M M
;
_chemical_formula_sum "Si O2"
_cell_formula_units_Z 84
_cell_length_a 18.352663
_cell_length_b 18.352663
_cell_length_c 18.261371
_cell_angle_alpha 90.000000
_cell_angle_beta 90.000000
_cell_angle_gamma 120.000000
_cell_volume 5326.748489
_symmetry_space_group_name_H-M "P 6/M M M"
_symmetry_group_IT_number 191
_symmetry_cell_setting 'hexagonal'
loop_
_space_group_symop_operation_xyz
x,y,z
x-y,x,z
-y,x-y,z
-x,-y,z
-x+y,-x,z
y,-x+y,z
x-y,-y,-z
-x,-x+y,-z
y,x,-z
-y,-x,-z
-x+y,y,-z
x,x-y,-z
-x,-y,-z
-x+y,-x,-z
y,-x+y,-z
x,y,-z
x-y,x,-z
-y,x-y,-z
-x+y,y,z
x,x-y,z
-y,-x,z
y,x,z
x-y,-y,z
-x,-x+y,z
loop_
_atom_site_type_symbol
_atom_site_label
_atom_site_fract_x
_atom_site_fract_y
_atom_site_fract_z
Si Si1 0.897964 0.531457 0.417085
Si Si2 0.835158 0.331485 0.158639
Si Si3 0.736972 0.097971 0.284142
Si Si4 0.636050 0.540235 0.000000
O O1 0.870147 0.534995 0.500000
O O2 0.869247 0.434624 0.398972
O O3 0.876739 0.579338 0.355762
O O4 0.000000 0.580216 0.418270
O O5 0.850207 0.425104 0.168126
O O6 0.737843 0.262158 0.170814
O O7 0.888317 0.310507 0.215693
O O8 0.859285 0.321855 0.075684
O O9 0.835722 0.164279 0.276538
O O10 0.708914 0.000000 0.289416
O O11 0.615060 0.615060 0.000000
O O12 0.546710 0.453291 0.000000
#
# Coordination Sequence:
#
# PCOD9587473 Si02
#       4
#    24  24  24  12
#     4   8  14  26  45  68  92 117 145 176 211 255
#     4  10  19  30  45  66  93 123 153 185 222 265
#     4  10  20  32  47  67  90 117 150 190 233 275
#     4   9  17  28  42  60  84 119 161 195 217 244
#
# _framework density 15.76947
#
# number of rings (size 3 to 8) (size 9 to 14) (size 15 to 20)
#    0.000    2.714    0.000    3.286    0.000    3.429 
#    0.000    1.429    0.000    0.857    0.000    0.000 
#    0.000    0.000    0.000    7.143    0.000   29.714 
#
# Total GULP energy -467917.009098 kJ/mol
# GULP energy per Si atom -5570.440585 kJ/mol
# Density = 1.573358 g / cm^3
# Si number density = 15.769470 Si / 1000 Ang^3
#
#
#
# Elastic Constant Matrix: (Units=GPa)
#
#
# Indices 1 2 3 4 5 6 
#
# 1 69.0547 44.0293 31.7112 0.0000 0.0000 0.0000
# 2 44.0293 69.0547 31.7112 0.0000 0.0000 0.0000
# 3 31.7112 31.7112 85.2906 0.0000 0.0000 0.0000
# 4 0.0000 0.0000 0.0000 15.1827 0.0000 0.0000
# 5 0.0000 0.0000 0.0000 0.0000 15.1827 0.0000
# 6 0.0000 0.0000 0.0000 0.0000 0.0000 12.5127
#
#
#
# Elastic Compliance Matrix: (Units=1/GPa)
#
#
# Indices 1 2 3 4 5 6 
#
# 1 0.025566 -0.014393 -0.004154 0.000000 0.000000 0.000000
# 2 -0.014393 0.025566 -0.004154 0.000000 0.000000 0.000000
# 3 -0.004154 -0.004154 0.014814 0.000000 0.000000 0.000000
# 4 0.000000 0.000000 0.000000 0.065864 0.000000 0.000000
# 5 0.000000 0.000000 0.000000 0.000000 0.065864 0.000000
# 6 0.000000 0.000000 0.000000 0.000000 0.000000 0.079919
#
#
# Mechanical properties :
#
#
# Convention : Reuss Voigt Hill
#
# Bulk Modulus (GPa) = 48.67862 48.70037 48.68949
# Shear Modulus (GPa) = 15.15871 16.30552 15.73212
#
# Velocity S-wave (km/s) = 3.10380 3.21906 3.16196
# Velocity P-wave (km/s) = 6.61670 6.69076 6.65383
#
# Compressibility (1/GPa) = 0.02054290
#
# Stress axis : x y z
#
# Youngs Moduli (GPa) = 39.11435 39.11435 67.50554
#
# Poissons Ratio (x) = 0.56298 0.28042
# Poissons Ratio (y) = 0.56298 0.28042
# Poissons Ratio (z) = 0.16248 0.16248
#
# Static dielectric constant tensor:
#      x y z
#    x 1.518970 0.000000 0.000000 
#    y 0.000000 1.518970 0.000000 
#    z 0.000000 0.000000 1.547110 
# 
# From -- ./inp_files/3978.got.cif
#   From: 2010.05.17/outbox.cif.g08.bks.cpg/sg191_2_cif.got.tgz:3978.got - 2010.05.20 12:20:32.
