data_PCOD9587762
_publ_section_title
;
Structure prediction by ZEFSAII (Michael W. Deem and Ramdas Pophale) SiO2 
 PCOD9587762
Probable space group: P 6/M M M
;
_chemical_formula_sum "Si O2"
_cell_formula_units_Z 114
_cell_length_a 22.224737
_cell_length_b 22.224737
_cell_length_c 13.655132
_cell_angle_alpha 90.000000
_cell_angle_beta 90.000000
_cell_angle_gamma 120.000000
_cell_volume 5841.169316
_symmetry_space_group_name_H-M "P 6/M M M"
_symmetry_group_IT_number 191
_symmetry_cell_setting 'hexagonal'
loop_
_space_group_symop_operation_xyz
x,y,z
x-y,x,z
-y,x-y,z
-x,-y,z
-x+y,-x,z
y,-x+y,z
x-y,-y,-z
-x,-x+y,-z
y,x,-z
-y,-x,-z
-x+y,y,-z
x,x-y,-z
-x,-y,-z
-x+y,-x,-z
y,-x+y,-z
x,y,-z
x-y,x,-z
-y,x-y,-z
-x+y,y,z
x,x-y,z
-y,-x,z
y,x,z
x-y,-y,z
-x,-x+y,z
loop_
_atom_site_type_symbol
_atom_site_label
_atom_site_fract_x
_atom_site_fract_y
_atom_site_fract_z
Si Si1 0.684713 0.608250 0.297971
Si Si2 0.469356 0.802791 0.382559
Si Si3 0.161626 0.838375 0.757113
Si Si4 0.082272 0.164544 0.500000
Si Si5 0.374631 0.485241 0.884265
Si Si6 0.535872 0.767936 0.114042
Si Si7 0.830554 0.915277 0.278727
O O1 0.646392 0.646392 0.340224
O O2 0.667881 0.539164 0.354778
O O3 0.767302 0.659606 0.297100
O O4 0.653601 0.579631 0.189006
O O5 0.464226 0.797438 0.500000
O O6 0.401750 0.803500 0.345475
O O7 0.472955 0.736478 0.344989
O O8 0.194358 0.805643 0.833625
O O9 0.120653 0.879348 0.784031
O O10 0.116635 0.116635 0.500000
O O11 0.099027 0.198053 0.391921
O O12 0.451136 0.548865 0.861077
O O13 0.314363 0.505188 0.867881
O O14 0.374516 0.468732 0.000000
O O15 0.552435 0.776218 0.000000
O O16 0.877405 0.877405 0.265327
#
# Coordination Sequence:
#
# PCOD9587762 Si02
#       7
#    24  24  12   6  24  12  12
#     4  11  22  37  57  81 112 149 185 230 280 331
#     4  10  21  39  61  83 109 145 191 237 280 326
#     4  10  20  37  56  76 113 147 186 224 272 332
#     4   8  15  28  48  76 108 136 166 206 262 330
#     4   9  18  33  52  77 112 146 181 226 275 330
#     4   8  16  32  53  75 104 147 188 226 268 320
#     4  10  19  34  56  84 112 142 180 228 282 340
#
# _framework density 19.516641
#
# number of rings (size 3 to 8) (size 9 to 14) (size 15 to 20)
#    0.000    2.316    1.053    1.632    0.000    4.211 
#    2.526    2.105    0.000    1.895    0.000    0.000 
#    0.000    0.842    0.000    0.000    0.000    0.000 
#
# Total GULP energy -634845.005000 kJ/mol
# GULP energy per Si atom -5568.815833 kJ/mol
# Density = 1.947222 g / cm^3
# Si number density = 19.516641 Si / 1000 Ang^3
#
#
#
# Elastic Constant Matrix: (Units=GPa)
#
#
# Indices 1 2 3 4 5 6 
#
# 1 134.3207 77.5069 6.0163 0.0000 0.0000 0.0000
# 2 77.5069 134.3207 6.0163 0.0000 0.0000 0.0000
# 3 6.0163 6.0163 29.3899 0.0000 0.0000 0.0000
# 4 0.0000 0.0000 0.0000 5.0327 0.0000 0.0000
# 5 0.0000 0.0000 0.0000 0.0000 5.0327 0.0000
# 6 0.0000 0.0000 0.0000 0.0000 0.0000 28.4069
#
#
#
# Elastic Compliance Matrix: (Units=1/GPa)
#
#
# Indices 1 2 3 4 5 6 
#
# 1 0.011189 -0.006412 -0.000978 0.000000 0.000000 0.000000
# 2 -0.006412 0.011189 -0.000978 0.000000 0.000000 0.000000
# 3 -0.000978 -0.000978 0.034426 0.000000 0.000000 0.000000
# 4 0.000000 0.000000 0.000000 0.198702 0.000000 0.000000
# 5 0.000000 0.000000 0.000000 0.000000 0.198702 0.000000
# 6 0.000000 0.000000 0.000000 0.000000 0.000000 0.035203
#
#
# Mechanical properties :
#
#
# Convention : Reuss Voigt Hill
#
# Bulk Modulus (GPa) = 24.95797 53.01223 38.98510
# Shear Modulus (GPa) = 9.62462 21.59390 15.60926
#
# Velocity S-wave (km/s) = 2.22311 3.32992 2.83113
# Velocity P-wave (km/s) = 4.40516 6.48121 5.54127
#
# Compressibility (1/GPa) = 0.04006737
#
# Stress axis : x y z
#
# Youngs Moduli (GPa) = 89.37462 89.37462 29.04811
#
# Poissons Ratio (x) = 0.57311 0.02840
# Poissons Ratio (y) = 0.57311 0.02840
# Poissons Ratio (z) = 0.08739 0.08739
#
# Static dielectric constant tensor:
#      x y z
#    x 1.689520 0.000000 0.000000 
#    y 0.000000 1.689520 0.000000 
#    z 0.000000 0.000000 1.744880 
# 
# From -- ./inp_files/4450.got.cif
#   From: 2010.05.17/outbox.cif.g08.bks.cpg/sg191_3_cif.got.tgz:4450.got - 2010.05.20 12:20:32.
