data_PCOD9587942
_publ_section_title
;
Structure prediction by ZEFSAII (Michael W. Deem and Ramdas Pophale) SiO2 
 PCOD9587942
Probable space group: P 6/M M M
;
_chemical_formula_sum "Si O2"
_cell_formula_units_Z 88
_cell_length_a 17.217550
_cell_length_b 17.217550
_cell_length_c 19.213983
_cell_angle_alpha 90.000000
_cell_angle_beta 90.000000
_cell_angle_gamma 120.000000
_cell_volume 4932.768562
_symmetry_space_group_name_H-M "P 6/M M M"
_symmetry_group_IT_number 191
_symmetry_cell_setting 'hexagonal'
loop_
_space_group_symop_operation_xyz
x,y,z
x-y,x,z
-y,x-y,z
-x,-y,z
-x+y,-x,z
y,-x+y,z
x-y,-y,-z
-x,-x+y,-z
y,x,-z
-y,-x,-z
-x+y,y,-z
x,x-y,-z
-x,-y,-z
-x+y,-x,-z
y,-x+y,-z
x,y,-z
x-y,x,-z
-y,x-y,-z
-x+y,y,z
x,x-y,z
-y,-x,z
y,x,z
x-y,-y,z
-x,-x+y,z
loop_
_atom_site_type_symbol
_atom_site_label
_atom_site_fract_x
_atom_site_fract_y
_atom_site_fract_z
Si Si1 0.380701 0.282167 0.646552
Si Si2 0.333696 0.489138 0.783584
Si Si3 0.618222 0.719837 0.921145
Si Si4 0.666667 0.333334 0.584448
Si Si5 0.129864 0.564932 0.583312
O O1 0.373748 0.186874 0.626508
O O2 0.295109 0.295109 0.634851
O O3 0.409431 0.298878 0.727711
O O4 0.464629 0.367402 0.609221
O O5 0.261177 0.522354 0.781509
O O6 0.431615 0.568386 0.764731
O O7 0.332065 0.453145 0.860784
O O8 0.647397 0.823699 0.912417
O O9 0.697391 0.697391 0.914118
O O10 0.581746 0.693639 0.000000
O O11 0.666667 0.333334 0.500000
O O12 0.616267 0.232534 0.607881
O O13 0.122871 0.561436 0.500000
#
# Coordination Sequence:
#
# PCOD9587942 Si02
#       5
#    24  24  24   4  12
#     4  11  23  37  55  79 108 142 179 221 265 313
#     4  10  20  33  50  73 102 135 171 207 248 299
#     4   9  18  32  49  69  94 126 164 207 254 301
#     4   9  18  33  54  81 114 147 169 206 253 306
#     4  11  21  36  57  82 113 146 178 211 257 312
#
# _framework density 17.839880000000001
#
# number of rings (size 3 to 8) (size 9 to 14) (size 15 to 20)
#    0.000    1.909    2.727    1.500    0.000    3.273 
#    0.000    1.364    0.000    2.182    0.000    1.909 
#    0.000    6.545    0.000    2.727    0.000    0.000 
#
# Total GULP energy -490453.571735 kJ/mol
# GULP energy per Si atom -5573.336042 kJ/mol
# Density = 1.779928 g / cm^3
# Si number density = 17.839880 Si / 1000 Ang^3
#
#
#
# Elastic Constant Matrix: (Units=GPa)
#
#
# Indices 1 2 3 4 5 6 
#
# 1 75.4826 59.0124 14.2729 0.0000 0.0000 0.0000
# 2 59.0124 75.4824 14.2729 0.0000 0.0000 0.0000
# 3 14.2729 14.2729 71.7165 0.0000 0.0000 0.0000
# 4 0.0000 0.0000 0.0000 11.6638 0.0000 0.0000
# 5 0.0000 0.0000 0.0000 0.0000 11.6639 0.0000
# 6 0.0000 0.0000 0.0000 0.0000 0.0000 8.2351
#
#
#
# Elastic Compliance Matrix: (Units=1/GPa)
#
#
# Indices 1 2 3 4 5 6 
#
# 1 0.034239 -0.026476 -0.001545 0.000000 0.000000 0.000000
# 2 -0.026476 0.034240 -0.001545 0.000000 0.000000 0.000000
# 3 -0.001545 -0.001545 0.014559 0.000000 0.000000 0.000000
# 4 0.000000 0.000000 0.000000 0.085735 0.000000 0.000000
# 5 0.000000 0.000000 0.000000 0.000000 0.085735 0.000000
# 6 0.000000 0.000000 0.000000 0.000000 0.000000 0.121431
#
#
# Mechanical properties :
#
#
# Convention : Reuss Voigt Hill
#
# Bulk Modulus (GPa) = 41.83219 44.19975 43.01597
# Shear Modulus (GPa) = 11.28566 15.32079 13.30323
#
# Velocity S-wave (km/s) = 2.51790 2.93370 2.73372
# Velocity P-wave (km/s) = 5.65267 6.02537 5.84199
#
# Compressibility (1/GPa) = 0.02390503
#
# Stress axis : x y z
#
# Youngs Moduli (GPa) = 29.20604 29.20598 68.68715
#
# Poissons Ratio (x) = 0.77327 0.10612
# Poissons Ratio (y) = 0.77327 0.10612
# Poissons Ratio (z) = 0.04512 0.04512
#
# Static dielectric constant tensor:
#      x y z
#    x 1.612260 0.000000 0.000000 
#    y 0.000000 1.612260 0.000000 
#    z 0.000000 0.000000 1.640710 
# 
# From -- ./inp_files/5839.got.cif
#   From: 2010.05.17/outbox.cif.g08.bks.cpg/sg191_3_cif.got.tgz:5839.got - 2010.05.20 12:20:32.
