data_PCOD9587428
_publ_section_title
;
Structure prediction by ZEFSAII (Michael W. Deem and Ramdas Pophale) SiO2 
 PCOD9587428
Probable space group: P 6/M M M
;
_chemical_formula_sum "Si O2"
_cell_formula_units_Z 132
_cell_length_a 18.995235
_cell_length_b 18.995235
_cell_length_c 27.322876
_cell_angle_alpha 90.000000
_cell_angle_beta 90.000000
_cell_angle_gamma 120.000000
_cell_volume 8537.808008
_symmetry_space_group_name_H-M "P 6/M M M"
_symmetry_group_IT_number 191
_symmetry_cell_setting 'hexagonal'
loop_
_space_group_symop_operation_xyz
x,y,z
x-y,x,z
-y,x-y,z
-x,-y,z
-x+y,-x,z
y,-x+y,z
x-y,-y,-z
-x,-x+y,-z
y,x,-z
-y,-x,-z
-x+y,y,-z
x,x-y,-z
-x,-y,-z
-x+y,-x,-z
y,-x+y,-z
x,y,-z
x-y,x,-z
-y,x-y,-z
-x+y,y,z
x,x-y,z
-y,-x,z
y,x,z
x-y,-y,z
-x,-x+y,z
loop_
_atom_site_type_symbol
_atom_site_label
_atom_site_fract_x
_atom_site_fract_y
_atom_site_fract_z
Si Si1 0.252426 0.346105 0.942738
Si Si2 0.502104 0.332872 0.758382
Si Si3 0.907937 0.253033 0.692984
Si Si4 0.905776 0.254251 0.576417
Si Si5 0.628881 0.530885 0.500000
Si Si6 0.628909 0.531865 0.134972
O O1 0.158351 0.316702 0.934356
O O2 0.279108 0.279108 0.933332
O O3 0.306496 0.421668 0.907457
O O4 0.270261 0.369606 0.000000
O O5 0.524575 0.262288 0.752270
O O6 0.579089 0.420912 0.748523
O O7 0.426613 0.310471 0.722922
O O8 0.475085 0.332824 0.814350
O O9 0.839428 0.160573 0.704600
O O10 0.903156 0.264785 0.634752
O O11 0.000000 0.277432 0.704509
O O12 0.838914 0.161087 0.564719
O O13 0.881720 0.312650 0.546887
O O14 0.000000 0.283892 0.563698
O O15 0.574180 0.574180 0.500000
O O16 0.565314 0.434687 0.500000
O O17 0.558325 0.441675 0.120413
O O18 0.583484 0.583484 0.144257
#
# Coordination Sequence:
#
# PCOD9587428 Si02
#       6
#    24  24  24  24  12  24
#     4   9  17  29  45  64  86 113 145 180 217 257
#     4  10  19  30  44  63  89 119 149 180 215 256
#     4   9  18  31  47  67  90 117 148 183 222 263
#     4   9  17  30  48  69  92 118 149 183 220 263
#     4   9  17  28  43  64  88 114 146 183 217 250
#     4   9  17  28  43  64  87 111 142 179 215 253
#
# _framework density 15.460642
#
# number of rings (size 3 to 8) (size 9 to 14) (size 15 to 20)
#    0.000    2.818    0.000    1.545    0.000    2.182 
#    0.000    3.636    0.000    2.364    0.000    3.818 
#    0.000    2.182    0.000    6.000    0.000    8.000 
#
# Total GULP energy -734936.554811 kJ/mol
# GULP energy per Si atom -5567.701173 kJ/mol
# Density = 1.542545 g / cm^3
# Si number density = 15.460642 Si / 1000 Ang^3
#
#
#
# Elastic Constant Matrix: (Units=GPa)
#
#
# Indices 1 2 3 4 5 6 
#
# 1 97.1415 64.5587 47.9590 0.0000 0.0000 0.0000
# 2 64.5587 97.1415 47.9590 0.0000 0.0000 0.0000
# 3 47.9590 47.9590 52.7414 0.0000 0.0000 0.0000
# 4 0.0000 0.0000 0.0000 22.2450 0.0000 0.0000
# 5 0.0000 0.0000 0.0000 0.0000 22.2450 0.0000
# 6 0.0000 0.0000 0.0000 0.0000 0.0000 16.2914
#
#
#
# Elastic Compliance Matrix: (Units=1/GPa)
#
#
# Indices 1 2 3 4 5 6 
#
# 1 0.022059 -0.008632 -0.012209 0.000000 0.000000 0.000000
# 2 -0.008632 0.022059 -0.012209 0.000000 0.000000 0.000000
# 3 -0.012209 -0.012209 0.041164 0.000000 0.000000 0.000000
# 4 0.000000 0.000000 0.000000 0.044954 0.000000 0.000000
# 5 0.000000 0.000000 0.000000 0.000000 0.044954 0.000000
# 6 0.000000 0.000000 0.000000 0.000000 0.000000 0.061382
#
#
# Mechanical properties :
#
#
# Convention : Reuss Voigt Hill
#
# Bulk Modulus (GPa) = 52.13431 63.10866 57.62149
# Shear Modulus (GPa) = 16.17774 17.92610 17.05192
#
# Velocity S-wave (km/s) = 3.23829 3.40879 3.32463
# Velocity P-wave (km/s) = 6.91201 7.51004 7.21722
#
# Compressibility (1/GPa) = 0.01918123
#
# Stress axis : x y z
#
# Youngs Moduli (GPa) = 45.33344 45.33344 24.29281
#
# Poissons Ratio (x) = 0.39133 0.29659
# Poissons Ratio (y) = 0.39133 0.29659
# Poissons Ratio (z) = 0.55348 0.55348
#
# Static dielectric constant tensor:
#      x y z
#    x 1.509550 0.000000 0.000000 
#    y 0.000000 1.509550 0.000000 
#    z 0.000000 0.000000 1.512450 
# 
# From -- ./inp_files/10421.got.cif
#   From: 2010.05.17/outbox.cif.g08.bks.cpg/sg191_6_cif.got.tgz:10421.got - 2010.05.20 12:20:32.
