data_PCOD9587866
_publ_section_title
;
Structure prediction by ZEFSAII (Michael W. Deem and Ramdas Pophale) SiO2 
 PCOD9587866
Probable space group: P 6/M M M
;
_chemical_formula_sum "Si O2"
_cell_formula_units_Z 120
_cell_length_a 18.224866
_cell_length_b 18.224866
_cell_length_c 26.239361
_cell_angle_alpha 90.000000
_cell_angle_beta 90.000000
_cell_angle_gamma 120.000000
_cell_volume 7547.664269
_symmetry_space_group_name_H-M "P 6/M M M"
_symmetry_group_IT_number 191
_symmetry_cell_setting 'hexagonal'
loop_
_space_group_symop_operation_xyz
x,y,z
x-y,x,z
-y,x-y,z
-x,-y,z
-x+y,-x,z
y,-x+y,z
x-y,-y,-z
-x,-x+y,-z
y,x,-z
-y,-x,-z
-x+y,y,-z
x,x-y,-z
-x,-y,-z
-x+y,-x,-z
y,-x+y,-z
x,y,-z
x-y,x,-z
-y,x-y,-z
-x+y,y,z
x,x-y,z
-y,-x,z
y,x,z
x-y,-y,z
-x,-x+y,z
loop_
_atom_site_type_symbol
_atom_site_label
_atom_site_fract_x
_atom_site_fract_y
_atom_site_fract_z
Si Si1 0.160625 0.493636 0.146724
Si Si2 0.634941 0.734328 0.760085
Si Si3 0.903515 0.264213 0.060353
Si Si4 0.366030 0.899014 0.664699
Si Si5 0.506611 0.838256 0.555052
O O1 0.259040 0.518079 0.148456
O O2 0.150847 0.575424 0.151990
O O3 0.114389 0.426170 0.191881
O O4 0.122161 0.443287 0.094173
O O5 0.668469 0.834235 0.765020
O O6 0.704580 0.704580 0.756942
O O7 0.574863 0.699861 0.710209
O O8 0.832979 0.167022 0.072040
O O9 0.000000 0.290457 0.072064
O O10 0.898344 0.277394 0.000000
O O11 0.431951 0.863901 0.670702
O O12 0.325490 0.876818 0.608444
O O13 0.422518 0.000000 0.667291
O O14 0.550857 0.872828 0.500000
O O15 0.424203 0.848406 0.555025
O O16 0.480312 0.740156 0.556047
#
# Coordination Sequence:
#
# PCOD9587866 Si02
#       5
#    24  24  24  24  24
#     4  10  20  33  49  70  96 125 155 186 220 258
#     4  10  20  33  49  68  90 116 146 181 222 267
#     4   9  18  32  49  69  93 122 156 193 233 275
#     4   9  17  28  42  61  84 110 141 176 214 258
#     4   9  16  25  37  53  75 105 141 178 212 246
#
# _framework density 15.898958
#
# number of rings (size 3 to 8) (size 9 to 14) (size 15 to 20)
#    0.000    2.600    0.000    2.200    0.000    4.000 
#    0.000    3.000    0.000    8.000    0.000    1.400 
#    0.000    4.800    0.000    0.200    0.000    0.000 
#
# Total GULP energy -668105.226170 kJ/mol
# GULP energy per Si atom -5567.543551 kJ/mol
# Density = 1.586277 g / cm^3
# Si number density = 15.898958 Si / 1000 Ang^3
#
#
#
# Elastic Constant Matrix: (Units=GPa)
#
#
# Indices 1 2 3 4 5 6 
#
# 1 64.5801 48.7664 33.8193 0.0000 0.0000 0.0000
# 2 48.7664 64.5801 33.8193 0.0000 0.0000 0.0000
# 3 33.8193 33.8193 68.8254 0.0000 0.0000 0.0000
# 4 0.0000 0.0000 0.0000 35.0030 0.0000 0.0000
# 5 0.0000 0.0000 0.0000 0.0000 35.0030 0.0000
# 6 0.0000 0.0000 0.0000 0.0000 0.0000 7.9068
#
#
#
# Elastic Compliance Matrix: (Units=1/GPa)
#
#
# Indices 1 2 3 4 5 6 
#
# 1 0.037860 -0.025377 -0.006134 0.000000 0.000000 0.000000
# 2 -0.025377 0.037860 -0.006134 0.000000 0.000000 0.000000
# 3 -0.006134 -0.006134 0.020558 0.000000 0.000000 0.000000
# 4 0.000000 0.000000 0.000000 0.028569 0.000000 0.000000
# 5 0.000000 0.000000 0.000000 0.000000 0.028569 0.000000
# 6 0.000000 0.000000 0.000000 0.000000 0.000000 0.126473
#
#
# Mechanical properties :
#
#
# Convention : Reuss Voigt Hill
#
# Bulk Modulus (GPa) = 47.64623 47.86617 47.75620
# Shear Modulus (GPa) = 13.80560 21.02129 17.41345
#
# Velocity S-wave (km/s) = 2.94995 3.64012 3.31306
# Velocity P-wave (km/s) = 6.45261 6.91659 6.68862
#
# Compressibility (1/GPa) = 0.02098802
#
# Stress axis : x y z
#
# Youngs Moduli (GPa) = 26.41340 26.41340 48.64404
#
# Poissons Ratio (x) = 0.67029 0.29837
# Poissons Ratio (y) = 0.67029 0.29837
# Poissons Ratio (z) = 0.16201 0.16201
#
# Static dielectric constant tensor:
#      x y z
#    x 1.523370 0.000000 0.000000 
#    y 0.000000 1.523370 0.000000 
#    z 0.000000 0.000000 1.576670 
# 
# From -- ./inp_files/10291.got.cif
#   From: 2010.05.17/outbox.cif.g08.bks.cpg/sg191_6_cif.got.tgz:10291.got - 2010.05.20 12:20:32.
