data_PCOD9587541
_publ_section_title
;
Structure prediction by ZEFSAII (Michael W. Deem and Ramdas Pophale) SiO2 
 PCOD9587541
Probable space group: P 6/M M M
;
_chemical_formula_sum "Si O2"
_cell_formula_units_Z 120
_cell_length_a 18.408476
_cell_length_b 18.408476
_cell_length_c 24.796994
_cell_angle_alpha 90.000000
_cell_angle_beta 90.000000
_cell_angle_gamma 120.000000
_cell_volume 7277.217244
_symmetry_space_group_name_H-M "P 6/M M M"
_symmetry_group_IT_number 191
_symmetry_cell_setting 'hexagonal'
loop_
_space_group_symop_operation_xyz
x,y,z
x-y,x,z
-y,x-y,z
-x,-y,z
-x+y,-x,z
y,-x+y,z
x-y,-y,-z
-x,-x+y,-z
y,x,-z
-y,-x,-z
-x+y,y,-z
x,x-y,-z
-x,-y,-z
-x+y,-x,-z
y,-x+y,-z
x,y,-z
x-y,x,-z
-y,x-y,-z
-x+y,y,z
x,x-y,z
-y,-x,z
y,x,z
x-y,-y,z
-x,-x+y,z
loop_
_atom_site_type_symbol
_atom_site_label
_atom_site_fract_x
_atom_site_fract_y
_atom_site_fract_z
Si Si1 0.164125 0.668060 0.849277
Si Si2 0.355660 0.261136 0.062366
Si Si3 0.661155 0.000000 0.435330
Si Si4 0.494209 0.163357 0.383662
Si Si5 0.169168 0.169168 0.434367
Si Si6 0.904591 0.540150 0.267027
O O1 0.152869 0.576435 0.853483
O O2 0.261084 0.738917 0.854559
O O3 0.114422 0.684755 0.896005
O O4 0.132837 0.677411 0.790213
O O5 0.329819 0.164910 0.071214
O O6 0.282054 0.282054 0.070076
O O7 0.384488 0.281746 0.000000
O O8 0.662096 0.082971 0.413984
O O9 0.659606 0.000000 0.500000
O O10 0.746117 0.000000 0.417982
O O11 0.583192 0.166384 0.390125
O O12 0.499933 0.249967 0.401262
O O13 0.469481 0.148088 0.320276
O O14 0.169373 0.084687 0.417184
O O15 0.168521 0.168521 0.500000
O O16 0.907718 0.453859 0.265011
O O17 0.000000 0.614389 0.273435
#
# Coordination Sequence:
#
# PCOD9587541 Si02
#       6
#    24  24  12  24  12  24
#     4  10  19  30  46  70 102 139 177 215 252 291
#     4   9  18  32  49  70  97 130 167 208 256 308
#     4  11  23  39  57  77 105 139 170 205 255 311
#     4  11  22  37  56  78 104 136 174 216 259 306
#     4   9  17  31  53  81 109 135 165 202 245 295
#     4   9  17  31  50  72  98 129 166 209 256 300
#
# _framework density 16.489820000000002
#
# number of rings (size 3 to 8) (size 9 to 14) (size 15 to 20)
#    0.000    2.200    1.000    2.600    0.000    4.000 
#    0.000    3.000    0.000    2.600    0.000    1.400 
#    0.000    0.000    0.000    0.000    0.000    0.000 
#
# Total GULP energy -668952.725631 kJ/mol
# GULP energy per Si atom -5574.606047 kJ/mol
# Density = 1.645229 g / cm^3
# Si number density = 16.489820 Si / 1000 Ang^3
#
#
#
# Elastic Constant Matrix: (Units=GPa)
#
#
# Indices 1 2 3 4 5 6 
#
# 1 113.2899 78.3112 44.4827 0.0000 0.0000 0.0000
# 2 78.3112 113.2899 44.4827 0.0000 0.0000 0.0000
# 3 44.4827 44.4827 72.3602 0.0000 0.0000 0.0000
# 4 0.0000 0.0000 0.0000 21.7081 0.0000 0.0000
# 5 0.0000 0.0000 0.0000 0.0000 21.7081 0.0000
# 6 0.0000 0.0000 0.0000 0.0000 0.0000 17.4893
#
#
#
# Elastic Compliance Matrix: (Units=1/GPa)
#
#
# Indices 1 2 3 4 5 6 
#
# 1 0.017946 -0.010642 -0.004490 0.000000 0.000000 0.000000
# 2 -0.010642 0.017946 -0.004490 0.000000 0.000000 0.000000
# 3 -0.004490 -0.004490 0.019340 0.000000 0.000000 0.000000
# 4 0.000000 0.000000 0.000000 0.046066 0.000000 0.000000
# 5 0.000000 0.000000 0.000000 0.000000 0.046066 0.000000
# 6 0.000000 0.000000 0.000000 0.000000 0.000000 0.057178
#
#
# Mechanical properties :
#
#
# Convention : Reuss Voigt Hill
#
# Bulk Modulus (GPa) = 62.54705 70.38812 66.46759
# Shear Modulus (GPa) = 20.07093 20.95869 20.51481
#
# Velocity S-wave (km/s) = 3.49258 3.56899 3.53099
# Velocity P-wave (km/s) = 7.36731 7.73059 7.55113
#
# Compressibility (1/GPa) = 0.01598796
#
# Stress axis : x y z
#
# Youngs Moduli (GPa) = 55.72136 55.72136 51.70574
#
# Poissons Ratio (x) = 0.59301 0.23216
# Poissons Ratio (y) = 0.59301 0.23216
# Poissons Ratio (z) = 0.25019 0.25019
#
# Static dielectric constant tensor:
#      x y z
#    x 1.545270 0.000000 0.000000 
#    y 0.000000 1.545270 0.000000 
#    z 0.000000 0.000000 1.560250 
# 
# From -- ./inp_files/8628.got.cif
#   From: 2010.05.17/outbox.cif.g08.bks.cpg/sg191_5_cif.got.tgz:8628.got - 2010.05.20 12:20:32.
