data_PCOD9587417
_publ_section_title
;
Structure prediction by ZEFSAII (Michael W. Deem and Ramdas Pophale) SiO2 
 PCOD9587417
Probable space group: P 6/M M M
;
_chemical_formula_sum "Si O2"
_cell_formula_units_Z 132
_cell_length_a 27.674680
_cell_length_b 27.674680
_cell_length_c 13.042873
_cell_angle_alpha 90.000000
_cell_angle_beta 90.000000
_cell_angle_gamma 120.000000
_cell_volume 8651.055794
_symmetry_space_group_name_H-M "P 6/M M M"
_symmetry_group_IT_number 191
_symmetry_cell_setting 'hexagonal'
loop_
_space_group_symop_operation_xyz
x,y,z
x-y,x,z
-y,x-y,z
-x,-y,z
-x+y,-x,z
y,-x+y,z
x-y,-y,-z
-x,-x+y,-z
y,x,-z
-y,-x,-z
-x+y,y,-z
x,x-y,-z
-x,-y,-z
-x+y,-x,-z
y,-x+y,-z
x,y,-z
x-y,x,-z
-y,x-y,-z
-x+y,y,z
x,x-y,z
-y,-x,z
y,x,z
x-y,-y,z
-x,-x+y,z
loop_
_atom_site_type_symbol
_atom_site_label
_atom_site_fract_x
_atom_site_fract_y
_atom_site_fract_z
Si Si1 0.743622 0.871811 0.124319
Si Si2 0.477179 0.410342 0.380759
Si Si3 0.066287 0.741747 0.875832
Si Si4 0.669330 0.118478 0.192918
Si Si5 0.064264 0.935737 0.874935
Si Si6 0.444043 0.777261 0.876988
Si Si7 0.478244 0.411718 0.000000
O O1 0.712324 0.806758 0.153477
O O2 0.807524 0.903762 0.159608
O O3 0.744734 0.872367 0.000000
O O4 0.474729 0.394418 0.500000
O O5 0.540122 0.459879 0.358133
O O6 0.438597 0.438597 0.369019
O O7 0.458001 0.360755 0.301307
O O8 0.101173 0.715912 0.825092
O O9 0.000000 0.706529 0.850803
O O10 0.070300 0.738597 0.000000
O O11 0.685190 0.182247 0.176115
O O12 0.624844 0.086963 0.101815
O O13 0.000000 0.903760 0.842590
O O14 0.064481 0.935520 0.000000
O O15 0.394432 0.788863 0.845881
O O16 0.426547 0.713274 0.858278
O O17 0.451972 0.786511 0.000000
O O18 0.445015 0.445015 0.000000
O O19 0.543555 0.456445 0.000000
#
# Coordination Sequence:
#
# PCOD9587417 Si02
#       7
#    12  24  24  24  12  24  12
#     4   9  18  29  42  57  87 127 167 193 235 288
#     4   9  18  32  49  69  93 122 155 190 232 285
#     4  10  19  30  43  63  93 125 156 191 231 281
#     4  12  20  30  48  68  97 118 155 192 237 282
#     4   9  15  24  39  60  84 117 165 219 260 285
#     4  10  20  33  48  67  93 125 159 196 239 291
#     4  11  20  28  41  66  98 124 144 177 234 287
#
# _framework density 15.258254000000001
#
# number of rings (size 3 to 8) (size 9 to 14) (size 15 to 20)
#    0.000    1.909    1.818    4.636    1.273    4.727 
#    0.000    0.000    0.000    0.545    0.000    0.000 
#    0.000    1.455    0.000    0.000    0.000    0.182 
#
# Total GULP energy -736254.494436 kJ/mol
# GULP energy per Si atom -5577.685564 kJ/mol
# Density = 1.522353 g / cm^3
# Si number density = 15.258254 Si / 1000 Ang^3
#
#
#
# Elastic Constant Matrix: (Units=GPa)
#
#
# Indices 1 2 3 4 5 6 
#
# 1 113.3432 61.0544 22.4622 0.0000 0.0000 0.0000
# 2 61.0544 113.3432 22.4622 0.0000 0.0000 0.0000
# 3 22.4622 22.4622 35.7334 0.0000 0.0000 0.0000
# 4 0.0000 0.0000 0.0000 5.4719 0.0000 0.0000
# 5 0.0000 0.0000 0.0000 0.0000 5.4719 0.0000
# 6 0.0000 0.0000 0.0000 0.0000 0.0000 26.1444
#
#
#
# Elastic Compliance Matrix: (Units=1/GPa)
#
#
# Indices 1 2 3 4 5 6 
#
# 1 0.012983 -0.006141 -0.004301 0.000000 0.000000 0.000000
# 2 -0.006141 0.012983 -0.004301 0.000000 0.000000 0.000000
# 3 -0.004301 -0.004301 0.033392 0.000000 0.000000 0.000000
# 4 0.000000 0.000000 0.000000 0.182753 0.000000 0.000000
# 5 0.000000 0.000000 0.000000 0.000000 0.182753 0.000000
# 6 0.000000 0.000000 0.000000 0.000000 0.000000 0.038249
#
#
# Mechanical properties :
#
#
# Convention : Reuss Voigt Hill
#
# Bulk Modulus (GPa) = 33.47562 52.70861 43.09211
# Shear Modulus (GPa) = 9.94911 17.84703 13.89807
#
# Velocity S-wave (km/s) = 2.55629 3.42375 3.02131
# Velocity P-wave (km/s) = 5.54074 7.08863 6.36194
#
# Compressibility (1/GPa) = 0.02987248
#
# Stress axis : x y z
#
# Youngs Moduli (GPa) = 77.02246 77.02246 29.94718
#
# Poissons Ratio (x) = 0.47302 0.12880
# Poissons Ratio (y) = 0.47302 0.12880
# Poissons Ratio (z) = 0.33126 0.33126
#
# Static dielectric constant tensor:
#      x y z
#    x 1.522370 0.000000 0.000000 
#    y 0.000000 1.522370 0.000000 
#    z 0.000000 0.000000 1.463920 
# 
# From -- ./inp_files/3387.got.cif
#   From: 2010.05.17/outbox.cif.g08.bks.cpg/sg191_2_cif.got.tgz:3387.got - 2010.05.20 12:20:32.
