data_PCOD9587886
_publ_section_title
;
Structure prediction by ZEFSAII (Michael W. Deem and Ramdas Pophale) SiO2 
 PCOD9587886
Probable space group: P 6/M M M
;
_chemical_formula_sum "Si O2"
_cell_formula_units_Z 144
_cell_length_a 32.697234
_cell_length_b 32.697234
_cell_length_c 7.554929
_cell_angle_alpha 90.000000
_cell_angle_beta 90.000000
_cell_angle_gamma 120.000000
_cell_volume 6994.924797
_symmetry_space_group_name_H-M "P 6/M M M"
_symmetry_group_IT_number 191
_symmetry_cell_setting 'hexagonal'
loop_
_space_group_symop_operation_xyz
x,y,z
x-y,x,z
-y,x-y,z
-x,-y,z
-x+y,-x,z
y,-x+y,z
x-y,-y,-z
-x,-x+y,-z
y,x,-z
-y,-x,-z
-x+y,y,-z
x,x-y,-z
-x,-y,-z
-x+y,-x,-z
y,-x+y,-z
x,y,-z
x-y,x,-z
-y,x-y,-z
-x+y,y,z
x,x-y,z
-y,-x,z
y,x,z
x-y,-y,z
-x,-x+y,z
loop_
_atom_site_type_symbol
_atom_site_label
_atom_site_fract_x
_atom_site_fract_y
_atom_site_fract_z
Si Si1 0.147379 0.477934 0.207809
Si Si2 0.855064 0.802329 0.284248
Si Si3 0.520608 0.947185 0.286528
Si Si4 0.427574 0.761082 0.216485
Si Si5 0.762700 0.617312 0.707878
Si Si6 0.052598 0.292485 0.283899
O O1 0.096498 0.473254 0.233703
O O2 0.190046 0.527411 0.277622
O O3 0.149081 0.433106 0.280037
O O4 0.155603 0.478058 0.000000
O O5 0.856125 0.803095 0.500000
O O6 0.904682 0.809364 0.221899
O O7 0.840718 0.840718 0.227134
O O8 0.811494 0.751039 0.235181
O O9 0.520674 0.948006 0.500000
O O10 0.469830 0.939659 0.227427
O O11 0.559856 0.000000 0.227526
O O12 0.378716 0.757431 0.273768
O O13 0.431232 0.715616 0.270905
O O14 0.427234 0.761304 0.000000
O O15 0.772153 0.628231 0.500000
O O16 0.808356 0.616711 0.783145
O O17 0.754459 0.658615 0.781673
O O18 0.051636 0.293508 0.500000
O O19 0.000000 0.278544 0.224745
#
# Coordination Sequence:
#
# PCOD9587886 Si02
#       6
#    24  24  24  24  24  24
#     4  11  22  34  50  75 107 137 165 200 245 300
#     4   8  12  18  30  49  73 101 135 178 228 278
#     4   9  19  37  59  80 102 131 169 211 252 293
#     4   9  17  30  49  72  97 125 158 196 237 281
#     4  10  20  33  49  69  95 130 171 210 250 301
#     4   8  14  25  42  63  84 108 144 195 251 297
#
# _framework density 20.586354
#
# number of rings (size 3 to 8) (size 9 to 14) (size 15 to 20)
#    0.000    2.833    0.000    3.667    0.000    5.667 
#    0.000    2.500    0.000    0.167    0.000    1.167 
#    0.000    8.000    0.000    0.000    0.000    0.000 
#
# Total GULP energy -803651.747185 kJ/mol
# GULP energy per Si atom -5580.914911 kJ/mol
# Density = 2.053950 g / cm^3
# Si number density = 20.586354 Si / 1000 Ang^3
#
#
#
# Elastic Constant Matrix: (Units=GPa)
#
#
# Indices 1 2 3 4 5 6 
#
# 1 166.1608 106.0319 -1.9249 0.0000 0.0000 0.0000
# 2 106.0319 166.1608 -1.9249 0.0000 0.0000 0.0000
# 3 -1.9249 -1.9249 45.1956 0.0000 0.0000 0.0000
# 4 0.0000 0.0000 0.0000 -7.4777 0.0000 0.0000
# 5 0.0000 0.0000 0.0000 0.0000 -7.4777 0.0000
# 6 0.0000 0.0000 0.0000 0.0000 0.0000 30.0645
#
#
#
# Elastic Compliance Matrix: (Units=1/GPa)
#
#
# Indices 1 2 3 4 5 6 
#
# 1 0.010154 -0.006477 0.000157 0.000000 0.000000 0.000000
# 2 -0.006477 0.010154 0.000157 0.000000 0.000000 0.000000
# 3 0.000157 0.000157 0.022139 0.000000 0.000000 0.000000
# 4 0.000000 0.000000 0.000000 -0.133731 0.000000 0.000000
# 5 0.000000 0.000000 0.000000 0.000000 -0.133731 0.000000
# 6 0.000000 0.000000 0.000000 0.000000 0.000000 0.033262
#
#
# Mechanical properties :
#
#
# Convention : Reuss Voigt Hill
#
# Bulk Modulus (GPa) = 33.20291 64.65348 48.92820
# Shear Modulus (GPa) = -29.51835 21.37750 -4.07042
#
# Velocity S-wave (km/s) = -3.79077 3.22596 -1.40767
# Velocity P-wave (km/s) = 1.73098 6.73424 4.60183
#
# Compressibility (1/GPa) = 0.03011784
#
# Stress axis : x y z
#
# Youngs Moduli (GPa) = 98.48818 98.48818 45.16834
#
# Poissons Ratio (x) = 0.63795 -0.00707
# Poissons Ratio (y) = 0.63795 -0.00707
# Poissons Ratio (z) = -0.01542 -0.01542
#
# Static dielectric constant tensor:
#      x y z
#    x 1.713100 0.000000 0.000000 
#    y 0.000000 1.713100 0.000000 
#    z 0.000000 0.000000 1.862990 
# 
# From -- ./inp_files/1949.got.cif
#   From: 2010.05.17/outbox.cif.g08.bks.cpg/sg191_1_cif.got.tgz:1949.got - 2010.05.20 12:20:32.
