data_PCOD9587285
_publ_section_title
;
Structure prediction by ZEFSAII (Michael W. Deem and Ramdas Pophale) SiO2 
 PCOD9587285
Probable space group: P 6/M M M
;
_chemical_formula_sum "Si O2"
_cell_formula_units_Z 180
_cell_length_a 26.879717
_cell_length_b 26.879717
_cell_length_c 18.743312
_cell_angle_alpha 90.000000
_cell_angle_beta 90.000000
_cell_angle_gamma 120.000000
_cell_volume 11728.064619
_symmetry_space_group_name_H-M "P 6/M M M"
_symmetry_group_IT_number 191
_symmetry_cell_setting 'hexagonal'
loop_
_space_group_symop_operation_xyz
x,y,z
x-y,x,z
-y,x-y,z
-x,-y,z
-x+y,-x,z
y,-x+y,z
x-y,-y,-z
-x,-x+y,-z
y,x,-z
-y,-x,-z
-x+y,y,-z
x,x-y,-z
-x,-y,-z
-x+y,-x,-z
y,-x+y,-z
x,y,-z
x-y,x,-z
-y,x-y,-z
-x+y,y,z
x,x-y,z
-y,-x,z
y,x,z
x-y,-y,z
-x,-x+y,z
loop_
_atom_site_type_symbol
_atom_site_label
_atom_site_fract_x
_atom_site_fract_y
_atom_site_fract_z
Si Si1 0.170207 0.709851 0.307267
Si Si2 0.181002 0.934890 0.418050
Si Si3 0.068052 0.817054 0.000000
Si Si4 0.934345 0.259476 0.131528
Si Si5 0.105403 0.330606 0.287109
Si Si6 0.214499 0.666467 0.179766
Si Si7 0.835909 0.280331 0.084461
Si Si8 0.218309 0.552529 0.414798
O O1 0.227632 0.772369 0.306645
O O2 0.119070 0.723182 0.298130
O O3 0.180165 0.674983 0.244836
O O4 0.172496 0.679538 0.379644
O O5 0.197006 0.928434 0.500000
O O6 0.114865 0.885136 0.408722
O O7 0.216855 0.924651 0.356664
O O8 0.194407 0.000000 0.411443
O O9 0.078347 0.787784 0.070105
O O10 0.115499 0.884502 0.000000
O O11 0.000000 0.797372 0.000000
O O12 0.926280 0.234904 0.211581
O O13 0.891092 0.283692 0.120877
O O14 0.000000 0.307896 0.121036
O O15 0.165964 0.331928 0.280359
O O16 0.213607 0.606804 0.181637
O O17 0.279870 0.720130 0.182407
O O18 0.183495 0.675409 0.111343
O O19 0.782351 0.217650 0.104045
O O20 0.843492 0.283178 0.000000
O O21 0.214432 0.549798 0.500000
O O22 0.281613 0.563225 0.395280
O O23 0.212464 0.606232 0.389741
#
# Coordination Sequence:
#
# PCOD9587285 Si02
#       8
#    24  24  12  24  24  24  24  24
#     4   9  17  27  41  62  87 118 152 189 235 284
#     4   9  18  32  50  73 102 134 164 196 237 282
#     4  10  20  32  50  77 107 135 163 199 239 277
#     4  11  20  30  49  75  98 125 159 199 242 286
#     4  10  18  30  48  70  98 128 159 195 237 285
#     4  10  19  31  47  68  92 121 156 196 241 291
#     4  10  19  32  50  68  92 125 155 188 236 293
#     4   9  16  25  37  55  82 115 150 188 233 286
#
# _framework density 15.347801
#
# number of rings (size 3 to 8) (size 9 to 14) (size 15 to 20)
#    0.000    2.267    2.000    2.267    0.000    1.333 
#    0.000    4.000    0.000    1.400    0.000    1.867 
#    0.000    0.000    0.000   10.667    0.000    3.333 
#
# Total GULP energy -1002512.010148 kJ/mol
# GULP energy per Si atom -5569.511167 kJ/mol
# Density = 1.531287 g / cm^3
# Si number density = 15.347801 Si / 1000 Ang^3
#
#
#
# Elastic Constant Matrix: (Units=GPa)
#
#
# Indices 1 2 3 4 5 6 
#
# 1 76.8099 43.2068 39.1457 0.0000 0.0000 0.0000
# 2 43.2068 76.8099 39.1457 0.0000 0.0000 0.0000
# 3 39.1457 39.1457 78.6919 0.0000 0.0000 0.0000
# 4 0.0000 0.0000 0.0000 19.2970 0.0000 0.0000
# 5 0.0000 0.0000 0.0000 0.0000 19.2970 0.0000
# 6 0.0000 0.0000 0.0000 0.0000 0.0000 16.8016
#
#
#
# Elastic Compliance Matrix: (Units=1/GPa)
#
#
# Indices 1 2 3 4 5 6 
#
# 1 0.021047 -0.008712 -0.006136 0.000000 0.000000 0.000000
# 2 -0.008712 0.021047 -0.006136 0.000000 0.000000 0.000000
# 3 -0.006136 -0.006136 0.018813 0.000000 0.000000 0.000000
# 4 0.000000 0.000000 0.000000 0.051822 0.000000 0.000000
# 5 0.000000 0.000000 0.000000 0.000000 0.051822 0.000000
# 6 0.000000 0.000000 0.000000 0.000000 0.000000 0.059518
#
#
# Mechanical properties :
#
#
# Convention : Reuss Voigt Hill
#
# Bulk Modulus (GPa) = 52.80324 52.81198 52.80761
# Shear Modulus (GPa) = 18.35875 18.46666 18.41271
#
# Velocity S-wave (km/s) = 3.46234 3.47250 3.46742
# Velocity P-wave (km/s) = 7.10372 7.11073 7.10723
#
# Compressibility (1/GPa) = 0.01893823
#
# Stress axis : x y z
#
# Youngs Moduli (GPa) = 47.51256 47.51256 53.15570
#
# Poissons Ratio (x) = 0.41393 0.32617
# Poissons Ratio (y) = 0.41393 0.32617
# Poissons Ratio (z) = 0.29154 0.29154
#
# Static dielectric constant tensor:
#      x y z
#    x 1.499710 0.000000 0.000000 
#    y 0.000000 1.499710 0.000000 
#    z 0.000000 0.000000 1.554260 
# 
# From -- ./inp_files/6873.got.cif
#   From: 2010.05.17/outbox.cif.g08.bks.cpg/sg191_4_cif.got.tgz:6873.got - 2010.05.20 12:20:32.
