data_PCOD9587913
_publ_section_title
;
Structure prediction by ZEFSAII (Michael W. Deem and Ramdas Pophale) SiO2 
 PCOD9587913
Probable space group: P 6/M M M
;
_chemical_formula_sum "Si O2"
_cell_formula_units_Z 102
_cell_length_a 29.332253
_cell_length_b 29.332253
_cell_length_c 7.445660
_cell_angle_alpha 90.000000
_cell_angle_beta 90.000000
_cell_angle_gamma 120.000000
_cell_volume 5547.849573
_symmetry_space_group_name_H-M "P 6/M M M"
_symmetry_group_IT_number 191
_symmetry_cell_setting 'hexagonal'
loop_
_space_group_symop_operation_xyz
x,y,z
x-y,x,z
-y,x-y,z
-x,-y,z
-x+y,-x,z
y,-x+y,z
x-y,-y,-z
-x,-x+y,-z
y,x,-z
-y,-x,-z
-x+y,y,-z
x,x-y,-z
-x,-y,-z
-x+y,-x,-z
y,-x+y,-z
x,y,-z
x-y,x,-z
-y,x-y,-z
-x+y,y,z
x,x-y,z
-y,-x,z
y,x,z
x-y,-y,z
-x,-x+y,z
loop_
_atom_site_type_symbol
_atom_site_label
_atom_site_fract_x
_atom_site_fract_y
_atom_site_fract_z
Si Si1 0.327018 0.059411 0.787786
Si Si2 0.941041 0.779668 0.716468
Si Si3 0.770051 0.229950 0.000000
Si Si4 0.698886 0.556459 0.705775
Si Si5 0.476911 0.418168 0.718287
O O1 0.278481 0.069715 0.761792
O O2 0.380334 0.104008 0.703398
O O3 0.306557 0.000000 0.719752
O O4 0.336614 0.060042 0.000000
O O5 0.941809 0.783157 0.500000
O O6 0.894108 0.788216 0.782898
O O7 0.000000 0.820256 0.781453
O O8 0.810920 0.268625 0.842473
O O9 0.698647 0.538885 0.500000
O O10 0.638846 0.534008 0.770709
O O11 0.475990 0.417976 0.500000
O O12 0.533448 0.466553 0.773552
O O13 0.433092 0.433092 0.777500
#
# Coordination Sequence:
#
# PCOD9587913 Si02
#       5
#    24  24   6  24  24
#     4  10  20  33  49  73 105 140 178 222 269 324
#     4   9  18  31  47  66  89 123 169 217 267 323
#     4  12  26  40  48  76 112 152 200 244 269 326
#     4  11  22  37  57  78 111 155 192 232 280 326
#     4   8  15  31  58  90 119 148 185 228 279 345
#
# _framework density 18.385501000000001
#
# number of rings (size 3 to 8) (size 9 to 14) (size 15 to 20)
#    0.000    2.353    1.176    2.471    1.647    2.824 
#    0.000    0.588    0.000    1.647    0.000    1.647 
#    4.706    0.000    4.235    5.882    0.000    6.118 
#
# Total GULP energy -567804.991166 kJ/mol
# GULP energy per Si atom -5566.715600 kJ/mol
# Density = 1.834366 g / cm^3
# Si number density = 18.385501 Si / 1000 Ang^3
#
#
#
# Elastic Constant Matrix: (Units=GPa)
#
#
# Indices 1 2 3 4 5 6 
#
# 1 101.8178 70.3948 27.9322 0.0000 0.0000 0.0000
# 2 70.3948 101.8178 27.9322 0.0000 0.0000 0.0000
# 3 27.9322 27.9322 101.0530 0.0000 0.0000 0.0000
# 4 0.0000 0.0000 0.0000 -17.6625 0.0000 0.0000
# 5 0.0000 0.0000 0.0000 0.0000 -17.6625 0.0000
# 6 0.0000 0.0000 0.0000 0.0000 0.0000 15.7115
#
#
#
# Elastic Compliance Matrix: (Units=1/GPa)
#
#
# Indices 1 2 3 4 5 6 
#
# 1 0.019101 -0.012723 -0.001763 0.000000 0.000000 0.000000
# 2 -0.012723 0.019101 -0.001763 0.000000 0.000000 0.000000
# 3 -0.001763 -0.001763 0.010871 0.000000 0.000000 0.000000
# 4 0.000000 0.000000 0.000000 -0.056617 0.000000 0.000000
# 5 0.000000 0.000000 0.000000 0.000000 -0.056617 0.000000
# 6 0.000000 0.000000 0.000000 0.000000 0.000000 0.063648
#
#
# Mechanical properties :
#
#
# Convention : Reuss Voigt Hill
#
# Bulk Modulus (GPa) = 60.33054 61.91188 61.12121
# Shear Modulus (GPa) = 133.30043 7.97259 70.63651
#
# Velocity S-wave (km/s) = 8.52411 2.08465 6.20509
# Velocity P-wave (km/s) = 11.39149 6.28822 9.20075
#
# Compressibility (1/GPa) = 0.01657535
#
# Stress axis : x y z
#
# Youngs Moduli (GPa) = 52.35250 52.35250 91.99197
#
# Poissons Ratio (x) = 0.66606 0.16220
# Poissons Ratio (y) = 0.66606 0.16220
# Poissons Ratio (z) = 0.09231 0.09231
#
# Static dielectric constant tensor:
#      x y z
#    x 1.622110 0.000000 0.000000 
#    y 0.000000 1.622110 0.000000 
#    z 0.000000 0.000000 1.687200 
# 
# From -- ./inp_files/1436.got.cif
#   From: 2010.05.17/outbox.cif.g08.bks.cpg/sg191_1_cif.got.tgz:1436.got - 2010.05.20 12:20:32.
