data_PCOD9587040
_publ_section_title
;
Structure prediction by ZEFSAII (Michael W. Deem and Ramdas Pophale) SiO2 
 PCOD9587040
Probable space group: P 6/M M M
;
_chemical_formula_sum "Si O2"
_cell_formula_units_Z 120
_cell_length_a 21.853346
_cell_length_b 21.853346
_cell_length_c 18.919140
_cell_angle_alpha 90.000000
_cell_angle_beta 90.000000
_cell_angle_gamma 120.000000
_cell_volume 7824.703799
_symmetry_space_group_name_H-M "P 6/M M M"
_symmetry_group_IT_number 191
_symmetry_cell_setting 'hexagonal'
loop_
_space_group_symop_operation_xyz
x,y,z
x-y,x,z
-y,x-y,z
-x,-y,z
-x+y,-x,z
y,-x+y,z
x-y,-y,-z
-x,-x+y,-z
y,x,-z
-y,-x,-z
-x+y,y,-z
x,x-y,-z
-x,-y,-z
-x+y,-x,-z
y,-x+y,-z
x,y,-z
x-y,x,-z
-y,x-y,-z
-x+y,y,z
x,x-y,z
-y,-x,z
y,x,z
x-y,-y,z
-x,-x+y,z
loop_
_atom_site_type_symbol
_atom_site_label
_atom_site_fract_x
_atom_site_fract_y
_atom_site_fract_z
Si Si1 0.552905 0.702482 0.145167
Si Si2 0.334681 0.812399 0.290806
Si Si3 0.920180 0.221471 0.212875
Si Si4 0.665523 0.185804 0.000000
Si Si5 0.295916 0.918331 0.356989
Si Si6 0.779867 0.698030 0.500000
O O1 0.552438 0.776219 0.144867
O O2 0.504961 0.660520 0.212185
O O3 0.633781 0.726253 0.162020
O O4 0.521228 0.666626 0.070686
O O5 0.404219 0.808437 0.306176
O O6 0.264836 0.735165 0.292359
O O7 0.322800 0.863576 0.342934
O O8 0.858411 0.141590 0.200090
O O9 0.910019 0.244475 0.291614
O O10 0.000000 0.238331 0.206216
O O11 0.737356 0.262645 0.000000
O O12 0.597941 0.195882 0.000000
O O13 0.255178 0.906281 0.430330
O O14 0.358166 0.000000 0.355328
O O15 0.758727 0.758727 0.500000
O O16 0.862418 0.724835 0.500000
#
# Coordination Sequence:
#
# PCOD9587040 Si02
#       6
#    24  24  24  12  24  12
#     4   8  16  28  42  61  86 116 148 182 215 252
#     4  10  18  29  44  63  88 118 153 189 227 269
#     4   9  16  29  48  68  88 112 144 178 213 254
#     4  10  17  26  41  63  90 117 146 180 221 263
#     4   9  18  31  48  68  89 114 146 185 222 257
#     4  10  18  30  49  72  95 117 143 177 218 260
#
# _framework density 15.336043
#
# number of rings (size 3 to 8) (size 9 to 14) (size 15 to 20)
#    0.000    2.800    0.000    3.900    0.000    0.400 
#    0.000    3.000    0.000    4.500    0.000    1.400 
#    0.000    4.800    0.000    0.000    0.000   12.200 
#
# Total GULP energy -668458.307508 kJ/mol
# GULP energy per Si atom -5570.485896 kJ/mol
# Density = 1.530114 g / cm^3
# Si number density = 15.336043 Si / 1000 Ang^3
#
#
#
# Elastic Constant Matrix: (Units=GPa)
#
#
# Indices 1 2 3 4 5 6 
#
# 1 97.5861 71.4351 36.7293 0.0000 0.0000 0.0000
# 2 71.4351 97.5861 36.7293 0.0000 0.0000 0.0000
# 3 36.7293 36.7293 90.3900 0.0000 0.0000 0.0000
# 4 0.0000 0.0000 0.0000 15.5072 0.0000 0.0000
# 5 0.0000 0.0000 0.0000 0.0000 15.5072 0.0000
# 6 0.0000 0.0000 0.0000 0.0000 0.0000 13.0755
#
#
#
# Elastic Compliance Matrix: (Units=1/GPa)
#
#
# Indices 1 2 3 4 5 6 
#
# 1 0.022712 -0.015527 -0.002920 0.000000 0.000000 0.000000
# 2 -0.015527 0.022712 -0.002920 0.000000 0.000000 0.000000
# 3 -0.002920 -0.002920 0.013436 0.000000 0.000000 0.000000
# 4 0.000000 0.000000 0.000000 0.064486 0.000000 0.000000
# 5 0.000000 0.000000 0.000000 0.000000 0.064486 0.000000
# 6 0.000000 0.000000 0.000000 0.000000 0.000000 0.076479
#
#
# Mechanical properties :
#
#
# Convention : Reuss Voigt Hill
#
# Bulk Modulus (GPa) = 62.00463 63.92775 62.96619
# Shear Modulus (GPa) = 16.00403 18.19586 17.09995
#
# Velocity S-wave (km/s) = 3.23392 3.44826 3.34281
# Velocity P-wave (km/s) = 7.37989 7.59139 7.48638
#
# Compressibility (1/GPa) = 0.01612783
#
# Stress axis : x y z
#
# Youngs Moduli (GPa) = 44.02873 44.02873 74.42699
#
# Poissons Ratio (x) = 0.68364 0.21731
# Poissons Ratio (y) = 0.68364 0.21731
# Poissons Ratio (z) = 0.12855 0.12855
#
# Static dielectric constant tensor:
#      x y z
#    x 1.500620 0.000000 0.000000 
#    y 0.000000 1.500620 0.000000 
#    z 0.000000 0.000000 1.516930 
# 
# From -- ./inp_files/6260.got.cif
#   From: 2010.05.17/outbox.cif.g08.bks.cpg/sg191_4_cif.got.tgz:6260.got - 2010.05.20 12:20:32.
