data_PCOD9587377
_publ_section_title
;
Structure prediction by ZEFSAII (Michael W. Deem and Ramdas Pophale) SiO2 
 PCOD9587377
Probable space group: P 6/M M M
;
_chemical_formula_sum "Si O2"
_cell_formula_units_Z 96
_cell_length_a 18.395339
_cell_length_b 18.395339
_cell_length_c 20.766060
_cell_angle_alpha 90.000000
_cell_angle_beta 90.000000
_cell_angle_gamma 120.000000
_cell_volume 6085.556901
_symmetry_space_group_name_H-M "P 6/M M M"
_symmetry_group_IT_number 191
_symmetry_cell_setting 'hexagonal'
loop_
_space_group_symop_operation_xyz
x,y,z
x-y,x,z
-y,x-y,z
-x,-y,z
-x+y,-x,z
y,-x+y,z
x-y,-y,-z
-x,-x+y,-z
y,x,-z
-y,-x,-z
-x+y,y,-z
x,x-y,-z
-x,-y,-z
-x+y,-x,-z
y,-x+y,-z
x,y,-z
x-y,x,-z
-y,x-y,-z
-x+y,y,z
x,x-y,z
-y,-x,z
y,x,z
x-y,-y,z
-x,-x+y,z
loop_
_atom_site_type_symbol
_atom_site_label
_atom_site_fract_x
_atom_site_fract_y
_atom_site_fract_z
Si Si1 0.836145 0.502026 0.075791
Si Si2 0.905130 0.640409 0.817478
Si Si3 0.902110 0.363021 0.429621
Si Si4 0.497505 0.331048 0.291389
O O1 0.739136 0.478271 0.083954
O O2 0.846957 0.423479 0.094890
O O3 0.889426 0.582835 0.119556
O O4 0.856194 0.518804 0.000000
O O5 0.832580 0.665160 0.816408
O O6 0.887302 0.577714 0.757497
O O7 0.000000 0.715215 0.815798
O O8 0.870772 0.322214 0.500000
O O9 0.899685 0.449843 0.431134
O O10 0.854470 0.319049 0.364758
O O11 0.000000 0.391114 0.423967
O O12 0.526806 0.263403 0.278063
O O13 0.575009 0.424992 0.283709
#
# Coordination Sequence:
#
# PCOD9587377 Si02
#       4
#    24  24  24  24
#     4   9  17  29  46  69  98 131 163 191 217 247
#     4  10  21  35  50  68  89 114 145 183 228 274
#     4   8  14  25  40  56  75 105 149 197 236 263
#     4  10  19  29  42  62  90 123 156 187 218 255
#
# _framework density 15.775055
#
# number of rings (size 3 to 8) (size 9 to 14) (size 15 to 20)
#    0.000    2.750    0.000    2.750    0.000    5.000 
#    0.000    3.750    0.000    1.750    0.000    0.000 
#    0.000    0.000    0.000    6.250    0.000    0.000 
#
# Total GULP energy -534901.215669 kJ/mol
# GULP energy per Si atom -5571.887663 kJ/mol
# Density = 1.573915 g / cm^3
# Si number density = 15.775055 Si / 1000 Ang^3
#
#
#
# Elastic Constant Matrix: (Units=GPa)
#
#
# Indices 1 2 3 4 5 6 
#
# 1 67.3405 52.2419 32.8666 0.0000 0.0000 0.0000
# 2 52.2419 67.3405 32.8666 0.0000 0.0000 0.0000
# 3 32.8666 32.8666 66.4833 0.0000 0.0000 0.0000
# 4 0.0000 0.0000 0.0000 17.5281 0.0000 0.0000
# 5 0.0000 0.0000 0.0000 0.0000 17.5281 0.0000
# 6 0.0000 0.0000 0.0000 0.0000 0.0000 7.5493
#
#
#
# Elastic Compliance Matrix: (Units=1/GPa)
#
#
# Indices 1 2 3 4 5 6 
#
# 1 0.038857 -0.027374 -0.005677 0.000000 0.000000 0.000000
# 2 -0.027374 0.038857 -0.005677 0.000000 0.000000 0.000000
# 3 -0.005677 -0.005677 0.020654 0.000000 0.000000 0.000000
# 4 0.000000 0.000000 0.000000 0.057051 0.000000 0.000000
# 5 0.000000 0.000000 0.000000 0.000000 0.057051 0.000000
# 6 0.000000 0.000000 0.000000 0.000000 0.000000 0.132462
#
#
# Mechanical properties :
#
#
# Convention : Reuss Voigt Hill
#
# Bulk Modulus (GPa) = 47.81701 48.56829 48.19265
# Shear Modulus (GPa) = 11.64529 14.06707 12.85618
#
# Velocity S-wave (km/s) = 2.71995 2.98942 2.85786
# Velocity P-wave (km/s) = 6.34364 6.53991 6.44252
#
# Compressibility (1/GPa) = 0.02091306
#
# Stress axis : x y z
#
# Youngs Moduli (GPa) = 25.73542 25.73542 48.41691
#
# Poissons Ratio (x) = 0.70448 0.27484
# Poissons Ratio (y) = 0.70448 0.27484
# Poissons Ratio (z) = 0.14609 0.14609
#
# Static dielectric constant tensor:
#      x y z
#    x 1.512620 0.000000 0.000000 
#    y 0.000000 1.512620 0.000000 
#    z 0.000000 0.000000 1.565700 
# 
# From -- ./inp_files/7092.got.cif
#   From: 2010.05.17/outbox.cif.g08.bks.cpg/sg191_4_cif.got.tgz:7092.got - 2010.05.20 12:20:32.
