data_PCOD9587399
_publ_section_title
;
Structure prediction by ZEFSAII (Michael W. Deem and Ramdas Pophale) SiO2 
 PCOD9587399
Probable space group: P 6/M M M
;
_chemical_formula_sum "Si O2"
_cell_formula_units_Z 120
_cell_length_a 18.590943
_cell_length_b 18.590943
_cell_length_c 25.166320
_cell_angle_alpha 90.000000
_cell_angle_beta 90.000000
_cell_angle_gamma 120.000000
_cell_volume 7532.743595
_symmetry_space_group_name_H-M "P 6/M M M"
_symmetry_group_IT_number 191
_symmetry_cell_setting 'hexagonal'
loop_
_space_group_symop_operation_xyz
x,y,z
x-y,x,z
-y,x-y,z
-x,-y,z
-x+y,-x,z
y,-x+y,z
x-y,-y,-z
-x,-x+y,-z
y,x,-z
-y,-x,-z
-x+y,y,-z
x,x-y,-z
-x,-y,-z
-x+y,-x,-z
y,-x+y,-z
x,y,-z
x-y,x,-z
-y,x-y,-z
-x+y,y,z
x,x-y,z
-y,-x,z
y,x,z
x-y,-y,z
-x,-x+y,z
loop_
_atom_site_type_symbol
_atom_site_label
_atom_site_fract_x
_atom_site_fract_y
_atom_site_fract_z
Si Si1 0.905148 0.539695 0.754836
Si Si2 0.648280 0.906576 0.561965
Si Si3 0.096713 0.903288 0.064623
Si Si4 0.500610 0.668547 0.357417
Si Si5 0.194094 0.805907 0.063739
Si Si6 0.899458 0.534659 0.125579
O O1 0.907155 0.453578 0.755468
O O2 0.854584 0.534999 0.702745
O O3 0.875336 0.544109 0.813840
O O4 0.000000 0.612429 0.748663
O O5 0.622526 0.899173 0.500000
O O6 0.673111 0.836556 0.571799
O O7 0.572307 0.886084 0.600809
O O8 0.720780 0.000000 0.570713
O O9 0.145272 0.854729 0.080215
O O10 0.000000 0.854628 0.081749
O O11 0.096041 0.903960 0.000000
O O12 0.473253 0.736627 0.367502
O O13 0.423447 0.576554 0.362361
O O14 0.287700 0.854180 0.086249
O O15 0.195465 0.804536 0.000000
O O16 0.879356 0.439678 0.117253
O O17 0.000000 0.590890 0.121685
#
# Coordination Sequence:
#
# PCOD9587399 Si02
#       6
#    24  24  12  24  12  24
#     4   8  15  29  48  67  87 116 158 205 247 287
#     4   9  18  32  49  70  97 129 164 203 248 296
#     4   9  17  30  49  74 102 128 154 188 235 290
#     4  10  19  29  44  68  99 133 169 205 241 279
#     4  11  22  33  50  75 100 126 162 205 240 291
#     4   9  19  36  54  71  95 129 164 201 250 297
#
# _framework density 15.930451
#
# number of rings (size 3 to 8) (size 9 to 14) (size 15 to 20)
#    0.000    2.800    0.000    2.700    1.400    3.600 
#    0.600    2.000    0.000    1.400    0.000    1.400 
#    0.000    0.000    0.000    0.000    0.000    0.000 
#
# Total GULP energy -668204.066452 kJ/mol
# GULP energy per Si atom -5568.367220 kJ/mol
# Density = 1.589419 g / cm^3
# Si number density = 15.930451 Si / 1000 Ang^3
#
#
#
# Elastic Constant Matrix: (Units=GPa)
#
#
# Indices 1 2 3 4 5 6 
#
# 1 86.0798 59.6398 50.6352 0.0000 0.0000 0.0000
# 2 59.6398 86.0798 50.6352 0.0000 0.0000 0.0000
# 3 50.6352 50.6352 78.7537 0.0000 0.0000 0.0000
# 4 0.0000 0.0000 0.0000 22.2286 0.0000 0.0000
# 5 0.0000 0.0000 0.0000 0.0000 22.2286 0.0000
# 6 0.0000 0.0000 0.0000 0.0000 0.0000 13.2200
#
#
#
# Elastic Compliance Matrix: (Units=1/GPa)
#
#
# Indices 1 2 3 4 5 6 
#
# 1 0.025114 -0.012708 -0.007976 0.000000 0.000000 0.000000
# 2 -0.012708 0.025114 -0.007976 0.000000 0.000000 0.000000
# 3 -0.007976 -0.007976 0.022955 0.000000 0.000000 0.000000
# 4 0.000000 0.000000 0.000000 0.044987 0.000000 0.000000
# 5 0.000000 0.000000 0.000000 0.000000 0.044987 0.000000
# 6 0.000000 0.000000 0.000000 0.000000 0.000000 0.075643
#
#
# Mechanical properties :
#
#
# Convention : Reuss Voigt Hill
#
# Bulk Modulus (GPa) = 63.04845 63.63706 63.34275
# Shear Modulus (GPa) = 16.58884 17.53565 17.06224
#
# Velocity S-wave (km/s) = 3.23046 3.32137 3.27623
# Velocity P-wave (km/s) = 7.31968 7.39880 7.35935
#
# Compressibility (1/GPa) = 0.01586082
#
# Stress axis : x y z
#
# Youngs Moduli (GPa) = 39.81894 39.81894 43.56394
#
# Poissons Ratio (x) = 0.50601 0.34748
# Poissons Ratio (y) = 0.50601 0.34748
# Poissons Ratio (z) = 0.31761 0.31761
#
# Static dielectric constant tensor:
#      x y z
#    x 1.523470 0.000000 0.000000 
#    y 0.000000 1.523470 0.000000 
#    z 0.000000 0.000000 1.543280 
# 
# From -- ./inp_files/8632.got.cif
#   From: 2010.05.17/outbox.cif.g08.bks.cpg/sg191_5_cif.got.tgz:8632.got - 2010.05.20 12:20:32.
