data_PCOD9587375
_publ_section_title
;
Structure prediction by ZEFSAII (Michael W. Deem and Ramdas Pophale) SiO2 
 PCOD9587375
Probable space group: P 6/M M M
;
_chemical_formula_sum "Si O2"
_cell_formula_units_Z 132
_cell_length_a 18.432155
_cell_length_b 18.432155
_cell_length_c 28.425202
_cell_angle_alpha 90.000000
_cell_angle_beta 90.000000
_cell_angle_gamma 120.000000
_cell_volume 8363.468374
_symmetry_space_group_name_H-M "P 6/M M M"
_symmetry_group_IT_number 191
_symmetry_cell_setting 'hexagonal'
loop_
_space_group_symop_operation_xyz
x,y,z
x-y,x,z
-y,x-y,z
-x,-y,z
-x+y,-x,z
y,-x+y,z
x-y,-y,-z
-x,-x+y,-z
y,x,-z
-y,-x,-z
-x+y,y,-z
x,x-y,-z
-x,-y,-z
-x+y,-x,-z
y,-x+y,-z
x,y,-z
x-y,x,-z
-y,x-y,-z
-x+y,y,z
x,x-y,z
-y,-x,z
y,x,z
x-y,-y,z
-x,-x+y,z
loop_
_atom_site_type_symbol
_atom_site_label
_atom_site_fract_x
_atom_site_fract_y
_atom_site_fract_z
Si Si1 0.097732 0.461007 0.051398
Si Si2 0.166396 0.668856 0.152389
Si Si3 0.902743 0.639368 0.768064
Si Si4 0.501113 0.833754 0.577191
Si Si5 0.905306 0.263697 0.500000
Si Si6 0.900064 0.532201 0.318576
O O1 0.100303 0.550152 0.050330
O O2 0.144966 0.464311 0.098841
O O3 0.000000 0.391436 0.055404
O O4 0.129130 0.451614 0.000000
O O5 0.150123 0.575062 0.157903
O O6 0.263130 0.736871 0.161627
O O7 0.112477 0.689750 0.188295
O O8 0.834636 0.669272 0.771753
O O9 0.882713 0.582023 0.721509
O O10 0.000000 0.710373 0.766489
O O11 0.424584 0.849167 0.566074
O O12 0.475041 0.737521 0.568483
O O13 0.581453 0.888188 0.544888
O O14 0.523105 0.854921 0.632015
O O15 0.833552 0.166449 0.500000
O O16 0.000000 0.283910 0.500000
O O17 0.878332 0.439166 0.302642
O O18 0.000000 0.583422 0.327272
#
# Coordination Sequence:
#
# PCOD9587375 Si02
#       6
#    24  24  24  24  12  24
#     4   8  14  25  40  56  75 105 148 192 227 257
#     4  10  19  29  42  62  89 120 152 185 220 258
#     4  10  20  33  49  68  89 114 146 184 226 271
#     4  10  19  30  45  67  97 131 164 194 222 253
#     4  10  21  35  51  70  91 117 150 190 235 281
#     4   9  17  29  46  68  93 122 156 190 221 256
#
# _framework density 15.782927000000001
#
# number of rings (size 3 to 8) (size 9 to 14) (size 15 to 20)
#    0.000    2.545    0.000    3.364    0.000    3.636 
#    0.000    0.909    0.000    7.182    0.000    0.000 
#    0.000    0.000    0.000    5.818    0.000    0.000 
#
# Total GULP energy -735644.174584 kJ/mol
# GULP energy per Si atom -5573.061929 kJ/mol
# Density = 1.574700 g / cm^3
# Si number density = 15.782927 Si / 1000 Ang^3
#
#
#
# Elastic Constant Matrix: (Units=GPa)
#
#
# Indices 1 2 3 4 5 6 
#
# 1 73.4485 48.3731 31.9605 0.0000 0.0000 0.0000
# 2 48.3731 73.4485 31.9605 0.0000 0.0000 0.0000
# 3 31.9605 31.9605 69.2176 0.0000 0.0000 0.0000
# 4 0.0000 0.0000 0.0000 17.7883 0.0000 0.0000
# 5 0.0000 0.0000 0.0000 0.0000 17.7883 0.0000
# 6 0.0000 0.0000 0.0000 0.0000 0.0000 12.5377
#
#
#
# Elastic Compliance Matrix: (Units=1/GPa)
#
#
# Indices 1 2 3 4 5 6 
#
# 1 0.025357 -0.014523 -0.005002 0.000000 0.000000 0.000000
# 2 -0.014523 0.025357 -0.005002 0.000000 0.000000 0.000000
# 3 -0.005002 -0.005002 0.019067 0.000000 0.000000 0.000000
# 4 0.000000 0.000000 0.000000 0.056217 0.000000 0.000000
# 5 0.000000 0.000000 0.000000 0.000000 0.056217 0.000000
# 6 0.000000 0.000000 0.000000 0.000000 0.000000 0.079760
#
#
# Mechanical properties :
#
#
# Convention : Reuss Voigt Hill
#
# Bulk Modulus (GPa) = 48.25181 48.96699 48.60940
# Shear Modulus (GPa) = 15.72643 16.54423 16.13533
#
# Velocity S-wave (km/s) = 3.16004 3.24116 3.20085
# Velocity P-wave (km/s) = 6.62970 6.71561 6.67280
#
# Compressibility (1/GPa) = 0.02072461
#
# Stress axis : x y z
#
# Youngs Moduli (GPa) = 39.43745 39.43745 52.44757
#
# Poissons Ratio (x) = 0.57276 0.26236
# Poissons Ratio (y) = 0.57276 0.26236
# Poissons Ratio (z) = 0.19728 0.19728
#
# Static dielectric constant tensor:
#      x y z
#    x 1.515910 0.000000 0.000000 
#    y 0.000000 1.515910 0.000000 
#    z 0.000000 0.000000 1.548910 
# 
# From -- ./inp_files/8690.got.cif
#   From: 2010.05.17/outbox.cif.g08.bks.cpg/sg191_5_cif.got.tgz:8690.got - 2010.05.20 12:20:32.
