data_PCOD9587518
_publ_section_title
;
Structure prediction by ZEFSAII (Michael W. Deem and Ramdas Pophale) SiO2 
 PCOD9587518
Probable space group: P 6/M M M
;
_chemical_formula_sum "Si O2"
_cell_formula_units_Z 132
_cell_length_a 18.290710
_cell_length_b 18.290710
_cell_length_c 27.874575
_cell_angle_alpha 90.000000
_cell_angle_beta 90.000000
_cell_angle_gamma 120.000000
_cell_volume 8076.068878
_symmetry_space_group_name_H-M "P 6/M M M"
_symmetry_group_IT_number 191
_symmetry_cell_setting 'hexagonal'
loop_
_space_group_symop_operation_xyz
x,y,z
x-y,x,z
-y,x-y,z
-x,-y,z
-x+y,-x,z
y,-x+y,z
x-y,-y,-z
-x,-x+y,-z
y,x,-z
-y,-x,-z
-x+y,y,-z
x,x-y,-z
-x,-y,-z
-x+y,-x,-z
y,-x+y,-z
x,y,-z
x-y,x,-z
-y,x-y,-z
-x+y,y,z
x,x-y,z
-y,-x,z
y,x,z
x-y,-y,z
-x,-x+y,z
loop_
_atom_site_type_symbol
_atom_site_label
_atom_site_fract_x
_atom_site_fract_y
_atom_site_fract_z
Si Si1 0.667032 0.161256 0.863093
Si Si2 0.640827 0.736938 0.943046
Si Si3 0.901579 0.636708 0.223489
Si Si4 0.502340 0.667608 0.420088
Si Si5 0.358483 0.264075 0.500000
Si Si6 0.467434 0.366631 0.686395
O O1 0.575716 0.151431 0.858840
O O2 0.740635 0.259365 0.861642
O O3 0.679764 0.122291 0.912092
O O4 0.687889 0.115605 0.820206
O O5 0.667242 0.833621 0.931617
O O6 0.710290 0.710290 0.931504
O O7 0.623959 0.724792 0.000000
O O8 0.834092 0.668184 0.218844
O O9 0.881814 0.581722 0.272041
O O10 0.000000 0.707378 0.223791
O O11 0.475366 0.737683 0.429303
O O12 0.425396 0.574605 0.430388
O O13 0.581762 0.692473 0.454004
O O14 0.525874 0.670466 0.364276
O O15 0.282422 0.282422 0.500000
O O16 0.333361 0.166681 0.500000
O O17 0.562144 0.437857 0.701561
O O18 0.416484 0.416484 0.678222
#
# Coordination Sequence:
#
# PCOD9587518 Si02
#       6
#    24  24  24  24  12  24
#     4  10  20  33  49  70  96 125 155 187 224 267
#     4   9  18  32  49  69  93 122 156 193 233 275
#     4  10  20  33  49  69  93 121 154 192 234 278
#     4  10  19  30  45  67  97 131 164 194 223 258
#     4  10  21  35  51  70  91 117 150 190 235 281
#     4   9  17  29  46  68  93 122 157 195 231 268
#
# _framework density 16.344584999999999
#
# number of rings (size 3 to 8) (size 9 to 14) (size 15 to 20)
#    0.000    2.364    0.000    2.818    0.000    4.000 
#    0.000    1.818    0.000    7.364    0.000    1.273 
#    0.000    4.364    0.000    6.000    0.000    0.000 
#
# Total GULP energy -736202.948204 kJ/mol
# GULP energy per Si atom -5577.295062 kJ/mol
# Density = 1.630738 g / cm^3
# Si number density = 16.344585 Si / 1000 Ang^3
#
#
#
# Elastic Constant Matrix: (Units=GPa)
#
#
# Indices 1 2 3 4 5 6 
#
# 1 94.5566 71.8714 37.4877 0.0000 0.0000 0.0000
# 2 71.8714 94.5566 37.4877 0.0000 0.0000 0.0000
# 3 37.4877 37.4877 49.6421 0.0000 0.0000 0.0000
# 4 0.0000 0.0000 0.0000 19.4120 0.0000 0.0000
# 5 0.0000 0.0000 0.0000 0.0000 19.4120 0.0000
# 6 0.0000 0.0000 0.0000 0.0000 0.0000 11.3426
#
#
#
# Elastic Compliance Matrix: (Units=1/GPa)
#
#
# Indices 1 2 3 4 5 6 
#
# 1 0.026594 -0.017487 -0.006877 0.000000 0.000000 0.000000
# 2 -0.017487 0.026594 -0.006877 0.000000 0.000000 0.000000
# 3 -0.006877 -0.006877 0.030531 0.000000 0.000000 0.000000
# 4 0.000000 0.000000 0.000000 0.051514 0.000000 0.000000
# 5 0.000000 0.000000 0.000000 0.000000 0.051514 0.000000
# 6 0.000000 0.000000 0.000000 0.000000 0.000000 0.088163
#
#
# Mechanical properties :
#
#
# Convention : Reuss Voigt Hill
#
# Bulk Modulus (GPa) = 47.08983 59.16101 53.12542
# Shear Modulus (GPa) = 14.51497 16.16058 15.33777
#
# Velocity S-wave (km/s) = 2.98327 3.14784 3.06666
# Velocity P-wave (km/s) = 6.38277 7.03467 6.71663
#
# Compressibility (1/GPa) = 0.02123601
#
# Stress axis : x y z
#
# Youngs Moduli (GPa) = 37.60235 37.60235 32.75401
#
# Poissons Ratio (x) = 0.65757 0.22525
# Poissons Ratio (y) = 0.65757 0.22525
# Poissons Ratio (z) = 0.25859 0.25859
#
# Static dielectric constant tensor:
#      x y z
#    x 1.535650 0.000000 0.000000 
#    y 0.000000 1.535650 0.000000 
#    z 0.000000 0.000000 1.559890 
# 
# From -- ./inp_files/9751.got.cif
#   From: 2010.05.17/outbox.cif.g08.bks.cpg/sg191_5_cif.got.tgz:9751.got - 2010.05.20 12:20:32.
