data_PCOD9587698
_publ_section_title
;
Structure prediction by ZEFSAII (Michael W. Deem and Ramdas Pophale) SiO2 
 PCOD9587698
Probable space group: P 6/M M M
;
_chemical_formula_sum "Si O2"
_cell_formula_units_Z 120
_cell_length_a 17.821964
_cell_length_b 17.821964
_cell_length_c 26.300259
_cell_angle_alpha 90.000000
_cell_angle_beta 90.000000
_cell_angle_gamma 120.000000
_cell_volume 7234.387729
_symmetry_space_group_name_H-M "P 6/M M M"
_symmetry_group_IT_number 191
_symmetry_cell_setting 'hexagonal'
loop_
_space_group_symop_operation_xyz
x,y,z
x-y,x,z
-y,x-y,z
-x,-y,z
-x+y,-x,z
y,-x+y,z
x-y,-y,-z
-x,-x+y,-z
y,x,-z
-y,-x,-z
-x+y,y,-z
x,x-y,-z
-x,-y,-z
-x+y,-x,-z
y,-x+y,-z
x,y,-z
x-y,x,-z
-y,x-y,-z
-x+y,y,z
x,x-y,z
-y,-x,z
y,x,z
x-y,-y,z
-x,-x+y,z
loop_
_atom_site_type_symbol
_atom_site_label
_atom_site_fract_x
_atom_site_fract_y
_atom_site_fract_z
Si Si1 0.104525 0.467509 0.000000
Si Si2 0.333623 0.842363 0.439435
Si Si3 0.101772 0.372359 0.100753
Si Si4 0.000000 0.412965 0.719964
Si Si5 0.331162 0.000000 0.384473
Si Si6 0.333039 0.489693 0.798979
Si Si7 0.821155 0.000000 0.441898
O O1 0.125979 0.432737 0.949153
O O2 0.139945 0.569973 0.000000
O O3 0.000000 0.420876 0.000000
O O4 0.335200 0.858387 0.500000
O O5 0.421954 0.843907 0.426067
O O6 0.251326 0.748675 0.429155
O O7 0.326162 0.915655 0.409682
O O8 0.167851 0.335702 0.103398
O O9 0.119484 0.432532 0.150071
O O10 0.000000 0.301922 0.098250
O O11 0.915191 0.360935 0.755037
O O12 0.000000 0.500000 0.700952
O O13 0.000000 0.354097 0.674284
O O14 0.244530 0.000000 0.400630
O O15 0.246916 0.493832 0.786301
O O16 0.414796 0.585205 0.807485
O O17 0.914321 0.085679 0.437216
O O18 0.788987 0.000000 0.500000
#
# Coordination Sequence:
#
# PCOD9587698 Si02
#       7
#    12  24  24  12  12  24  12
#     4   9  17  28  47  76 108 140 174 213 265 326
#     4  10  20  34  52  75 105 139 172 207 252 307
#     4  10  19  32  52  78 107 142 179 221 269 323
#     4  10  22  38  53  71 102 140 174 216 266 311
#     4  12  22  34  54  80 104 134 174 220 260 299
#     4  10  20  35  55  76 100 133 175 219 262 309
#     4  10  21  38  60  85 112 140 168 204 256 317
#
# _framework density 16.587444000000001
#
# number of rings (size 3 to 8) (size 9 to 14) (size 15 to 20)
#    0.000    1.900    1.000    3.800    0.000    6.000 
#    0.000    0.000    0.000    5.400    0.000    0.000 
#    0.000    2.400    0.000    0.000    0.000    0.000 
#
# Total GULP energy -669786.561380 kJ/mol
# GULP energy per Si atom -5581.554678 kJ/mol
# Density = 1.654969 g / cm^3
# Si number density = 16.587444 Si / 1000 Ang^3
#
#
#
# Elastic Constant Matrix: (Units=GPa)
#
#
# Indices 1 2 3 4 5 6 
#
# 1 111.0722 55.8762 49.9290 0.0000 0.0000 0.0000
# 2 55.8762 111.0722 49.9290 0.0000 0.0000 0.0000
# 3 49.9290 49.9290 72.4724 0.0000 0.0000 0.0000
# 4 0.0000 0.0000 0.0000 33.6277 0.0000 0.0000
# 5 0.0000 0.0000 0.0000 0.0000 33.6277 0.0000
# 6 0.0000 0.0000 0.0000 0.0000 0.0000 27.5980
#
#
#
# Elastic Compliance Matrix: (Units=1/GPa)
#
#
# Indices 1 2 3 4 5 6 
#
# 1 0.014153 -0.003965 -0.007019 0.000000 0.000000 0.000000
# 2 -0.003965 0.014153 -0.007019 0.000000 0.000000 0.000000
# 3 -0.007019 -0.007019 0.023470 0.000000 0.000000 0.000000
# 4 0.000000 0.000000 0.000000 0.029737 0.000000 0.000000
# 5 0.000000 0.000000 0.000000 0.000000 0.029737 0.000000
# 6 0.000000 0.000000 0.000000 0.000000 0.000000 0.036234
#
#
# Mechanical properties :
#
#
# Convention : Reuss Voigt Hill
#
# Bulk Modulus (GPa) = 63.41163 67.34279 65.37721
# Shear Modulus (GPa) = 26.49056 28.22951 27.36004
#
# Velocity S-wave (km/s) = 4.00062 4.12984 4.06574
# Velocity P-wave (km/s) = 7.72344 7.96414 7.84471
#
# Compressibility (1/GPa) = 0.01576998
#
# Stress axis : x y z
#
# Youngs Moduli (GPa) = 70.65772 70.65772 42.60806
#
# Poissons Ratio (x) = 0.28012 0.29907
# Poissons Ratio (y) = 0.28012 0.29907
# Poissons Ratio (z) = 0.49595 0.49595
#
# Static dielectric constant tensor:
#      x y z
#    x 1.545270 0.000000 0.000000 
#    y 0.000000 1.545270 0.000000 
#    z 0.000000 0.000000 1.549790 
# 
# From -- ./inp_files/8649.got.cif
#   From: 2010.05.17/outbox.cif.g08.bks.cpg/sg191_5_cif.got.tgz:8649.got - 2010.05.20 12:20:32.
