data_PCOD9587329
_publ_section_title
;
Structure prediction by ZEFSAII (Michael W. Deem and Ramdas Pophale) SiO2 
 PCOD9587329
Probable space group: P 6/M M M
;
_chemical_formula_sum "Si O2"
_cell_formula_units_Z 168
_cell_length_a 29.733484
_cell_length_b 29.733484
_cell_length_c 14.179667
_cell_angle_alpha 90.000000
_cell_angle_beta 90.000000
_cell_angle_gamma 120.000000
_cell_volume 10856.460691
_symmetry_space_group_name_H-M "P 6/M M M"
_symmetry_group_IT_number 191
_symmetry_cell_setting 'hexagonal'
loop_
_space_group_symop_operation_xyz
x,y,z
x-y,x,z
-y,x-y,z
-x,-y,z
-x+y,-x,z
y,-x+y,z
x-y,-y,-z
-x,-x+y,-z
y,x,-z
-y,-x,-z
-x+y,y,-z
x,x-y,-z
-x,-y,-z
-x+y,-x,-z
y,-x+y,-z
x,y,-z
x-y,x,-z
-y,x-y,-z
-x+y,y,z
x,x-y,z
-y,-x,z
y,x,z
x-y,-y,z
-x,-x+y,z
loop_
_atom_site_type_symbol
_atom_site_label
_atom_site_fract_x
_atom_site_fract_y
_atom_site_fract_z
Si Si1 0.436950 0.667037 0.385501
Si Si2 0.887145 0.578919 0.113675
Si Si3 0.786396 0.213605 0.891422
Si Si4 0.753890 0.693036 0.799182
Si Si5 0.581102 0.519576 0.790552
Si Si6 0.647726 0.939139 0.392851
Si Si7 0.525483 0.640046 0.389704
Si Si8 0.849563 0.150437 0.891504
O O1 0.434653 0.667613 0.500000
O O2 0.440485 0.720243 0.351720
O O3 0.384058 0.615942 0.353580
O O4 0.486674 0.661134 0.363550
O O5 0.828150 0.558934 0.149251
O O6 0.922305 0.637943 0.150013
O O7 0.909166 0.543610 0.152501
O O8 0.886988 0.579804 0.000000
O O9 0.817918 0.182083 0.892018
O O10 0.777363 0.222638 0.000000
O O11 0.731464 0.731464 0.813817
O O12 0.749526 0.678617 0.688567
O O13 0.811069 0.713977 0.839711
O O14 0.536864 0.463137 0.824015
O O15 0.557531 0.557531 0.798089
O O16 0.594810 0.515711 0.682092
O O17 0.660691 0.932279 0.500000
O O18 0.586135 0.903088 0.379485
O O19 0.664079 0.000000 0.382663
O O20 0.516729 0.624322 0.500000
O O21 0.858038 0.141963 0.000000
#
# Coordination Sequence:
#
# PCOD9587329 Si02
#       8
#    24  24  12  24  24  24  24  12
#     4   9  17  30  47  65  85 111 145 186 235 290
#     4  10  19  33  52  71  91 116 152 191 233 286
#     4   7  14  30  50  69  87 107 139 187 230 270
#     4  10  18  31  51  71  95 130 163 195 241 287
#     4  11  23  35  46  66  96 125 156 191 227 275
#     4   9  17  30  48  69  93 123 161 200 236 281
#     4  10  19  33  50  66  89 119 152 192 232 276
#     4   9  18  30  45  73 103 123 159 206 234 268
#
# _framework density 15.474656
#
# number of rings (size 3 to 8) (size 9 to 14) (size 15 to 20)
#    0.000    2.429    1.429    2.714    0.000    4.571 
#    2.571    1.786    0.000    0.000    0.000    0.000 
#    0.714    0.000    0.429    0.214    0.000    0.929 
#
# Total GULP energy -936253.642204 kJ/mol
# GULP energy per Si atom -5572.938346 kJ/mol
# Density = 1.543944 g / cm^3
# Si number density = 15.474656 Si / 1000 Ang^3
#
#
#
# Elastic Constant Matrix: (Units=GPa)
#
#
# Indices 1 2 3 4 5 6 
#
# 1 91.6866 57.1585 39.9743 0.0000 0.0000 0.0000
# 2 57.1585 91.6866 39.9743 0.0000 0.0000 0.0000
# 3 39.9743 39.9743 67.8518 0.0000 0.0000 0.0000
# 4 0.0000 0.0000 0.0000 16.3299 0.0000 0.0000
# 5 0.0000 0.0000 0.0000 0.0000 16.3299 0.0000
# 6 0.0000 0.0000 0.0000 0.0000 0.0000 17.2640
#
#
#
# Elastic Compliance Matrix: (Units=1/GPa)
#
#
# Indices 1 2 3 4 5 6 
#
# 1 0.019395 -0.009567 -0.005790 0.000000 0.000000 0.000000
# 2 -0.009567 0.019395 -0.005790 0.000000 0.000000 0.000000
# 3 -0.005790 -0.005790 0.021561 0.000000 0.000000 0.000000
# 4 0.000000 0.000000 0.000000 0.061237 0.000000 0.000000
# 5 0.000000 0.000000 0.000000 0.000000 0.061237 0.000000
# 6 0.000000 0.000000 0.000000 0.000000 0.000000 0.057924
#
#
# Mechanical properties :
#
#
# Convention : Reuss Voigt Hill
#
# Bulk Modulus (GPa) = 55.38255 58.38212 56.88233
# Shear Modulus (GPa) = 17.29722 17.59262 17.44492
#
# Velocity S-wave (km/s) = 3.34695 3.37540 3.36120
# Velocity P-wave (km/s) = 7.12762 7.28015 7.20429
#
# Compressibility (1/GPa) = 0.01805623
#
# Stress axis : x y z
#
# Youngs Moduli (GPa) = 51.55900 51.55900 46.38054
#
# Poissons Ratio (x) = 0.49325 0.26856
# Poissons Ratio (y) = 0.49325 0.26856
# Poissons Ratio (z) = 0.29855 0.29855
#
# Static dielectric constant tensor:
#      x y z
#    x 1.511890 0.000000 0.000000 
#    y 0.000000 1.511890 0.000000 
#    z 0.000000 0.000000 1.542920 
# 
# From -- ./inp_files/5322.got.cif
#   From: 2010.05.17/outbox.cif.g08.bks.cpg/sg191_3_cif.got.tgz:5322.got - 2010.05.20 12:20:32.
