data_PCOD9587631
_publ_section_title
;
Structure prediction by ZEFSAII (Michael W. Deem and Ramdas Pophale) SiO2 
 PCOD9587631
Probable space group: P 6/M M M
;
_chemical_formula_sum "Si O2"
_cell_formula_units_Z 132
_cell_length_a 17.921745
_cell_length_b 17.921745
_cell_length_c 28.855968
_cell_angle_alpha 90.000000
_cell_angle_beta 90.000000
_cell_angle_gamma 120.000000
_cell_volume 8026.512137
_symmetry_space_group_name_H-M "P 6/M M M"
_symmetry_group_IT_number 191
_symmetry_cell_setting 'hexagonal'
loop_
_space_group_symop_operation_xyz
x,y,z
x-y,x,z
-y,x-y,z
-x,-y,z
-x+y,-x,z
y,-x+y,z
x-y,-y,-z
-x,-x+y,-z
y,x,-z
-y,-x,-z
-x+y,y,-z
x,x-y,-z
-x,-y,-z
-x+y,-x,-z
y,-x+y,-z
x,y,-z
x-y,x,-z
-y,x-y,-z
-x+y,y,z
x,x-y,z
-y,-x,z
y,x,z
x-y,-y,z
-x,-x+y,z
loop_
_atom_site_type_symbol
_atom_site_label
_atom_site_fract_x
_atom_site_fract_y
_atom_site_fract_z
Si Si1 0.104007 0.636339 0.773889
Si Si2 0.634066 0.732844 0.862158
Si Si3 0.628435 0.731506 0.500000
Si Si4 0.842075 0.333487 0.053286
Si Si5 0.371154 0.102933 0.682549
Si Si6 0.467413 0.363518 0.408613
O O1 0.138844 0.569422 0.772707
O O2 0.127009 0.692407 0.820264
O O3 0.123885 0.693411 0.728054
O O4 0.000000 0.578742 0.774646
O O5 0.668021 0.834011 0.863839
O O6 0.705742 0.705742 0.854573
O O7 0.582986 0.690641 0.909551
O O8 0.695973 0.695973 0.500000
O O9 0.668436 0.834218 0.500000
O O10 0.568361 0.692942 0.454751
O O11 0.850927 0.425464 0.063250
O O12 0.742283 0.257718 0.056525
O O13 0.869459 0.334135 0.000000
O O14 0.331173 0.165587 0.682394
O O15 0.431942 0.124820 0.637563
O O16 0.303629 0.000000 0.682210
O O17 0.569361 0.430640 0.408698
O O18 0.421428 0.421428 0.408541
#
# Coordination Sequence:
#
# PCOD9587631 Si02
#       6
#    24  24  12  24  24  24
#     4   9  17  30  49  71  93 118 149 185 226 275
#     4  10  20  33  49  69  93 122 157 196 236 277
#     4  10  19  31  49  72  97 127 164 202 237 277
#     4   9  17  29  46  69  97 127 156 186 223 270
#     4  10  19  31  49  72  97 127 164 203 240 279
#     4   9  17  30  49  70  90 116 152 193 237 286
#
# _framework density 16.445499999999999
#
# number of rings (size 3 to 8) (size 9 to 14) (size 15 to 20)
#    0.000    2.545    0.000    2.636    0.000    5.455 
#    0.000    0.909    0.000   13.909    0.000    0.000 
#    0.000    8.727    0.000    4.545    0.000    1.091 
#
# Total GULP energy -735528.456399 kJ/mol
# GULP energy per Si atom -5572.185276 kJ/mol
# Density = 1.640807 g / cm^3
# Si number density = 16.445500 Si / 1000 Ang^3
#
#
#
# Elastic Constant Matrix: (Units=GPa)
#
#
# Indices 1 2 3 4 5 6 
#
# 1 81.3180 54.2573 36.8708 0.0000 0.0000 0.0000
# 2 54.2573 81.3180 36.8708 0.0000 0.0000 0.0000
# 3 36.8708 36.8708 102.6139 0.0000 0.0000 0.0000
# 4 0.0000 0.0000 0.0000 2.5181 0.0000 0.0000
# 5 0.0000 0.0000 0.0000 0.0000 2.5181 0.0000
# 6 0.0000 0.0000 0.0000 0.0000 0.0000 13.5304
#
#
#
# Elastic Compliance Matrix: (Units=1/GPa)
#
#
# Indices 1 2 3 4 5 6 
#
# 1 0.023061 -0.013893 -0.003294 0.000000 0.000000 0.000000
# 2 -0.013893 0.023061 -0.003294 0.000000 0.000000 0.000000
# 3 -0.003294 -0.003294 0.012113 0.000000 0.000000 0.000000
# 4 0.000000 0.000000 0.000000 0.397132 0.000000 0.000000
# 5 0.000000 0.000000 0.000000 0.000000 0.397132 0.000000
# 6 0.000000 0.000000 0.000000 0.000000 0.000000 0.073908
#
#
# Mechanical properties :
#
#
# Convention : Reuss Voigt Hill
#
# Bulk Modulus (GPa) = 57.89886 57.91643 57.90764
# Shear Modulus (GPa) = 5.13808 12.86337 9.00072
#
# Velocity S-wave (km/s) = 1.76949 2.79978 2.34200
# Velocity P-wave (km/s) = 6.28154 6.76353 6.52699
#
# Compressibility (1/GPa) = 0.01727150
#
# Stress axis : x y z
#
# Youngs Moduli (GPa) = 43.36365 43.36365 82.55927
#
# Poissons Ratio (x) = 0.60246 0.27196
# Poissons Ratio (y) = 0.60246 0.27196
# Poissons Ratio (z) = 0.14284 0.14284
#
# Static dielectric constant tensor:
#      x y z
#    x 1.551740 0.000000 0.000000 
#    y 0.000000 1.551740 0.000000 
#    z 0.000000 0.000000 1.561650 
# 
# From -- ./inp_files/8693.got.cif
#   From: 2010.05.17/outbox.cif.g08.bks.cpg/sg191_5_cif.got.tgz:8693.got - 2010.05.20 12:20:32.
