data_PCOD9587872
_publ_section_title
;
Structure prediction by ZEFSAII (Michael W. Deem and Ramdas Pophale) SiO2 
 PCOD9587872
Probable space group: P 6/M M M
;
_chemical_formula_sum "Si O2"
_cell_formula_units_Z 108
_cell_length_a 21.448656
_cell_length_b 21.448656
_cell_length_c 16.962596
_cell_angle_alpha 90.000000
_cell_angle_beta 90.000000
_cell_angle_gamma 120.000000
_cell_volume 6758.076726
_symmetry_space_group_name_H-M "P 6/M M M"
_symmetry_group_IT_number 191
_symmetry_cell_setting 'hexagonal'
loop_
_space_group_symop_operation_xyz
x,y,z
x-y,x,z
-y,x-y,z
-x,-y,z
-x+y,-x,z
y,-x+y,z
x-y,-y,-z
-x,-x+y,-z
y,x,-z
-y,-x,-z
-x+y,y,-z
x,x-y,-z
-x,-y,-z
-x+y,-x,-z
y,-x+y,-z
x,y,-z
x-y,x,-z
-y,x-y,-z
-x+y,y,z
x,x-y,z
-y,-x,z
y,x,z
x-y,-y,z
-x,-x+y,z
loop_
_atom_site_type_symbol
_atom_site_label
_atom_site_fract_x
_atom_site_fract_y
_atom_site_fract_z
Si Si1 0.553630 0.706029 0.192384
Si Si2 0.687463 0.916293 0.500000
Si Si3 0.458342 0.541659 0.808856
Si Si4 0.081333 0.779172 0.092730
Si Si5 0.458177 0.541824 0.382475
Si Si6 0.292561 0.850730 0.380737
O O1 0.527164 0.763582 0.178342
O O2 0.499278 0.624808 0.167270
O O3 0.627448 0.734772 0.145317
O O4 0.567059 0.706803 0.286323
O O5 0.712142 0.856071 0.500000
O O6 0.633478 0.898014 0.574377
O O7 0.747841 0.000000 0.500000
O O8 0.500000 0.500000 0.835236
O O9 0.458858 0.541143 0.713171
O O10 0.137371 0.862630 0.106345
O O11 0.000000 0.755581 0.111017
O O12 0.085834 0.764396 0.000000
O O13 0.500000 0.500000 0.408265
O O14 0.501476 0.625832 0.405551
O O15 0.232556 0.767445 0.398002
#
# Coordination Sequence:
#
# PCOD9587872 Si02
#       6
#    24  12  12  24  12  24
#     4   9  17  30  46  64  88 119 151 183 221 264
#     4  10  20  33  49  68  91 115 143 183 223 263
#     4   9  16  26  42  64  88 113 143 185 225 256
#     4   9  17  29  46  67  89 113 142 178 219 263
#     4   9  16  27  44  64  86 114 149 183 220 260
#     4   9  18  31  45  65  91 118 151 185 221 262
#
# _framework density 15.980877
#
# number of rings (size 3 to 8) (size 9 to 14) (size 15 to 20)
#    0.000    2.889    0.000    1.333    0.000    3.111 
#    1.333    1.667    0.000    2.333    0.000    1.556 
#    0.000    0.000    0.000   11.111    0.000    5.778 
#
# Total GULP energy -601605.710991 kJ/mol
# GULP energy per Si atom -5570.423250 kJ/mol
# Density = 1.594450 g / cm^3
# Si number density = 15.980877 Si / 1000 Ang^3
#
#
#
# Elastic Constant Matrix: (Units=GPa)
#
#
# Indices 1 2 3 4 5 6 
#
# 1 138.8332 105.1026 38.4494 0.0000 0.0000 0.0000
# 2 105.1026 138.8332 38.4494 0.0000 0.0000 0.0000
# 3 38.4494 38.4494 26.9625 0.0000 0.0000 0.0000
# 4 0.0000 0.0000 0.0000 13.4294 0.0000 0.0000
# 5 0.0000 0.0000 0.0000 0.0000 13.4294 0.0000
# 6 0.0000 0.0000 0.0000 0.0000 0.0000 16.8653
#
#
#
# Elastic Compliance Matrix: (Units=1/GPa)
#
#
# Indices 1 2 3 4 5 6 
#
# 1 0.018547 -0.011100 -0.010620 0.000000 0.000000 0.000000
# 2 -0.011100 0.018547 -0.010620 0.000000 0.000000 0.000000
# 3 -0.010620 -0.010620 0.067378 0.000000 0.000000 0.000000
# 4 0.000000 0.000000 0.000000 0.074463 0.000000 0.000000
# 5 0.000000 0.000000 0.000000 0.000000 0.074463 0.000000
# 6 0.000000 0.000000 0.000000 0.000000 0.000000 0.059293
#
#
# Mechanical properties :
#
#
# Convention : Reuss Voigt Hill
#
# Bulk Modulus (GPa) = 25.13067 74.29239 49.71153
# Shear Modulus (GPa) = 12.79964 16.92001 14.85983
#
# Velocity S-wave (km/s) = 2.83315 3.25740 3.05265
# Velocity P-wave (km/s) = 5.14412 7.79338 6.60298
#
# Compressibility (1/GPa) = 0.03979201
#
# Stress axis : x y z
#
# Youngs Moduli (GPa) = 53.91709 53.91709 14.84164
#
# Poissons Ratio (x) = 0.59846 0.15762
# Poissons Ratio (y) = 0.59846 0.15762
# Poissons Ratio (z) = 0.57261 0.57261
#
# Static dielectric constant tensor:
#      x y z
#    x 1.525550 0.000000 0.000000 
#    y 0.000000 1.525550 0.000000 
#    z 0.000000 0.000000 1.548010 
# 
# From -- ./inp_files/6161.got.cif
#   From: 2010.05.17/outbox.cif.g08.bks.cpg/sg191_4_cif.got.tgz:6161.got - 2010.05.20 12:20:32.
