data_PCOD9587641
_publ_section_title
;
Structure prediction by ZEFSAII (Michael W. Deem and Ramdas Pophale) SiO2 
 PCOD9587641
Probable space group: P 6/M M M
;
_chemical_formula_sum "Si O2"
_cell_formula_units_Z 108
_cell_length_a 17.206082
_cell_length_b 17.206082
_cell_length_c 24.933529
_cell_angle_alpha 90.000000
_cell_angle_beta 90.000000
_cell_angle_gamma 120.000000
_cell_volume 6392.612205
_symmetry_space_group_name_H-M "P 6/M M M"
_symmetry_group_IT_number 191
_symmetry_cell_setting 'hexagonal'
loop_
_space_group_symop_operation_xyz
x,y,z
x-y,x,z
-y,x-y,z
-x,-y,z
-x+y,-x,z
y,-x+y,z
x-y,-y,-z
-x,-x+y,-z
y,x,-z
-y,-x,-z
-x+y,y,-z
x,x-y,-z
-x,-y,-z
-x+y,-x,-z
y,-x+y,-z
x,y,-z
x-y,x,-z
-y,x-y,-z
-x+y,y,z
x,x-y,z
-y,-x,z
y,x,z
x-y,-y,z
-x,-x+y,z
loop_
_atom_site_type_symbol
_atom_site_label
_atom_site_fract_x
_atom_site_fract_y
_atom_site_fract_z
Si Si1 0.849160 0.516573 0.059823
Si Si2 0.715236 0.610622 0.381710
Si Si3 0.554309 0.445692 0.438646
Si Si4 0.153410 0.666579 0.272363
Si Si5 0.097498 0.722875 0.167416
O O1 0.744524 0.489048 0.062622
O O2 0.858917 0.429459 0.065219
O O3 0.895176 0.582070 0.109292
O O4 0.881224 0.555094 0.000000
O O5 0.818271 0.636542 0.393350
O O6 0.681009 0.681009 0.395917
O O7 0.647714 0.514726 0.410015
O O8 0.697444 0.587895 0.318445
O O9 0.500000 0.500000 0.438643
O O10 0.570252 0.429749 0.500000
O O11 0.138078 0.569039 0.284492
O O12 0.258890 0.741111 0.272279
O O13 0.115697 0.669404 0.214113
O O14 0.175680 0.824321 0.172097
O O15 0.000000 0.708539 0.175049
#
# Coordination Sequence:
#
# PCOD9587641 Si02
#       5
#    24  24  12  24  24
#     4   9  17  29  45  66  94 127 159 188 220 264
#     4  10  20  34  53  76 104 139 176 216 259 303
#     4   9  18  34  54  76 104 136 169 207 251 301
#     4  10  19  31  49  73 102 133 165 199 237 284
#     4  10  21  34  48  67  90 119 154 195 242 289
#
# _framework density 16.894503
#
# number of rings (size 3 to 8) (size 9 to 14) (size 15 to 20)
#    0.000    2.333    1.111    1.778    0.000    4.444 
#    0.667    3.333    0.000    0.444    0.000    0.000 
#    0.000    5.333    0.000   11.111    0.000    0.000 
#
# Total GULP energy -601998.228376 kJ/mol
# GULP energy per Si atom -5574.057670 kJ/mol
# Density = 1.685605 g / cm^3
# Si number density = 16.894503 Si / 1000 Ang^3
#
#
#
# Elastic Constant Matrix: (Units=GPa)
#
#
# Indices 1 2 3 4 5 6 
#
# 1 60.9030 58.0117 10.5712 0.0000 0.0000 0.0000
# 2 58.0117 60.9030 10.5712 0.0000 0.0000 0.0000
# 3 10.5712 10.5712 68.4277 0.0000 0.0000 0.0000
# 4 0.0000 0.0000 0.0000 14.2339 0.0000 0.0000
# 5 0.0000 0.0000 0.0000 0.0000 14.2339 0.0000
# 6 0.0000 0.0000 0.0000 0.0000 0.0000 1.4456
#
#
#
# Elastic Compliance Matrix: (Units=1/GPa)
#
#
# Indices 1 2 3 4 5 6 
#
# 1 0.177256 -0.168609 -0.001336 0.000000 0.000000 0.000000
# 2 -0.168609 0.177256 -0.001336 0.000000 0.000000 0.000000
# 3 -0.001336 -0.001336 0.015027 0.000000 0.000000 0.000000
# 4 0.000000 0.000000 0.000000 0.070255 0.000000 0.000000
# 5 0.000000 0.000000 0.000000 0.000000 0.070255 0.000000
# 6 0.000000 0.000000 0.000000 0.000000 0.000000 0.691731
#
#
# Mechanical properties :
#
#
# Convention : Reuss Voigt Hill
#
# Bulk Modulus (GPa) = 37.06840 38.72688 37.89764
# Shear Modulus (GPa) = 3.21888 13.38801 8.30345
#
# Velocity S-wave (km/s) = 1.38182 2.81810 2.21936
# Velocity P-wave (km/s) = 4.95324 5.79322 5.38962
#
# Compressibility (1/GPa) = 0.02697716
#
# Stress axis : x y z
#
# Youngs Moduli (GPa) = 5.64155 5.64155 66.54823
#
# Poissons Ratio (x) = 0.95122 0.08890
# Poissons Ratio (y) = 0.95122 0.08890
# Poissons Ratio (z) = 0.00754 0.00754
#
# Static dielectric constant tensor:
#      x y z
#    x 1.565010 0.000000 0.000000 
#    y 0.000000 1.565010 0.000000 
#    z 0.000000 0.000000 1.597510 
# 
# From -- ./inp_files/8353.got.cif
#   From: 2010.05.17/outbox.cif.g08.bks.cpg/sg191_5_cif.got.tgz:8353.got - 2010.05.20 12:20:32.
