data_PCOD9587713
_publ_section_title
;
Structure prediction by ZEFSAII (Michael W. Deem and Ramdas Pophale) SiO2 
 PCOD9587713
Probable space group: P 6/M M M
;
_chemical_formula_sum "Si O2"
_cell_formula_units_Z 168
_cell_length_a 22.594836
_cell_length_b 22.594836
_cell_length_c 23.640742
_cell_angle_alpha 90.000000
_cell_angle_beta 90.000000
_cell_angle_gamma 120.000000
_cell_volume 10452.258020
_symmetry_space_group_name_H-M "P 6/M M M"
_symmetry_group_IT_number 191
_symmetry_cell_setting 'hexagonal'
loop_
_space_group_symop_operation_xyz
x,y,z
x-y,x,z
-y,x-y,z
-x,-y,z
-x+y,-x,z
y,-x+y,z
x-y,-y,-z
-x,-x+y,-z
y,x,-z
-y,-x,-z
-x+y,y,-z
x,x-y,-z
-x,-y,-z
-x+y,-x,-z
y,-x+y,-z
x,y,-z
x-y,x,-z
-y,x-y,-z
-x+y,y,z
x,x-y,z
-y,-x,z
y,x,z
x-y,-y,z
-x,-x+y,z
loop_
_atom_site_type_symbol
_atom_site_label
_atom_site_fract_x
_atom_site_fract_y
_atom_site_fract_z
Si Si1 0.666672 0.196503 0.567125
Si Si2 0.280425 0.858357 0.759454
Si Si3 0.606425 0.734402 0.933976
Si Si4 0.288828 0.076732 0.566847
Si Si5 0.610610 0.081236 0.854678
Si Si6 0.919871 0.332205 0.364055
Si Si7 0.209788 0.922436 0.835014
O O1 0.669470 0.184707 0.500000
O O2 0.608239 0.216477 0.575476
O O3 0.740823 0.259178 0.584056
O O4 0.647546 0.128360 0.601372
O O5 0.221215 0.778786 0.757565
O O6 0.343272 0.876267 0.801370
O O7 0.308646 0.888689 0.698146
O O8 0.244779 0.897856 0.788070
O O9 0.583933 0.791967 0.926541
O O10 0.552771 0.661372 0.908180
O O11 0.673190 0.761440 0.894602
O O12 0.619255 0.730709 0.000000
O O13 0.306811 0.082789 0.500000
O O14 0.272806 0.136403 0.580734
O O15 0.352168 0.085013 0.603189
O O16 0.227238 0.000000 0.576108
O O17 0.544393 0.088785 0.861259
O O18 0.583110 0.000000 0.846740
O O19 0.000000 0.389069 0.361812
O O20 0.129767 0.870234 0.833476
O O21 0.232281 0.000000 0.826521
#
# Coordination Sequence:
#
# PCOD9587713 Si02
#       7
#    24  24  24  24  24  24  24
#     4  10  21  37  55  73  96 128 165 201 235 276
#     4  10  19  33  52  70  92 123 158 195 233 276
#     4   9  17  30  49  71  94 121 155 196 237 275
#     4   9  17  29  45  66  93 123 154 190 235 286
#     4  10  20  32  47  69  98 129 157 190 235 286
#     4  11  21  32  50  75 100 124 152 194 246 294
#     4   9  17  29  46  68  94 124 156 192 233 276
#
# _framework density 16.073080999999998
#
# number of rings (size 3 to 8) (size 9 to 14) (size 15 to 20)
#    0.000    2.286    0.000    5.714    0.000    4.857 
#    0.000    1.429    0.000    2.571    0.000    1.000 
#    0.000    0.000    0.000    8.143    0.000    3.143 
#
# Total GULP energy -936811.498145 kJ/mol
# GULP energy per Si atom -5576.258918 kJ/mol
# Density = 1.603650 g / cm^3
# Si number density = 16.073081 Si / 1000 Ang^3
#
#
#
# Elastic Constant Matrix: (Units=GPa)
#
#
# Indices 1 2 3 4 5 6 
#
# 1 61.7665 16.5552 11.2289 0.0000 0.0000 0.0000
# 2 16.5552 61.7665 11.2289 0.0000 0.0000 0.0000
# 3 11.2289 11.2289 53.7127 0.0000 0.0000 0.0000
# 4 0.0000 0.0000 0.0000 11.7596 0.0000 0.0000
# 5 0.0000 0.0000 0.0000 0.0000 11.7596 0.0000
# 6 0.0000 0.0000 0.0000 0.0000 0.0000 22.6056
#
#
#
# Elastic Compliance Matrix: (Units=1/GPa)
#
#
# Indices 1 2 3 4 5 6 
#
# 1 0.017850 -0.004268 -0.002839 0.000000 0.000000 0.000000
# 2 -0.004268 0.017850 -0.002839 0.000000 0.000000 0.000000
# 3 -0.002839 -0.002839 0.019805 0.000000 0.000000 0.000000
# 4 0.000000 0.000000 0.000000 0.085037 0.000000 0.000000
# 5 0.000000 0.000000 0.000000 0.000000 0.085037 0.000000
# 6 0.000000 0.000000 0.000000 0.000000 0.000000 0.044237
#
#
# Mechanical properties :
#
#
# Convention : Reuss Voigt Hill
#
# Bulk Modulus (GPa) = 28.08104 28.36353 28.22229
# Shear Modulus (GPa) = 16.57931 18.44046 17.50988
#
# Velocity S-wave (km/s) = 3.21517 3.39084 3.30417
# Velocity P-wave (km/s) = 5.59392 5.74589 5.67041
#
# Compressibility (1/GPa) = 0.03561122
#
# Stress axis : x y z
#
# Youngs Moduli (GPa) = 56.02179 56.02179 50.49295
#
# Poissons Ratio (x) = 0.23911 0.14337
# Poissons Ratio (y) = 0.23911 0.14337
# Poissons Ratio (z) = 0.15907 0.15907
#
# Static dielectric constant tensor:
#      x y z
#    x 1.531750 0.000000 0.000000 
#    y 0.000000 1.531750 0.000000 
#    z 0.000000 0.000000 1.538210 
# 
# From -- ./inp_files/8998.got.cif
#   From: 2010.05.17/outbox.cif.g08.bks.cpg/sg191_5_cif.got.tgz:8998.got - 2010.05.20 12:20:32.
