data_PCOD9587147
_publ_section_title
;
Structure prediction by ZEFSAII (Michael W. Deem and Ramdas Pophale) SiO2 
 PCOD9587147
Probable space group: P 6/M M M
;
_chemical_formula_sum "Si O2"
_cell_formula_units_Z 96
_cell_length_a 33.186345
_cell_length_b 33.186345
_cell_length_c 7.791372
_cell_angle_alpha 90.000000
_cell_angle_beta 90.000000
_cell_angle_gamma 120.000000
_cell_volume 7431.276479
_symmetry_space_group_name_H-M "P 6/M M M"
_symmetry_group_IT_number 191
_symmetry_cell_setting 'hexagonal'
loop_
_space_group_symop_operation_xyz
x,y,z
x-y,x,z
-y,x-y,z
-x,-y,z
-x+y,-x,z
y,-x+y,z
x-y,-y,-z
-x,-x+y,-z
y,x,-z
-y,-x,-z
-x+y,y,-z
x,x-y,-z
-x,-y,-z
-x+y,-x,-z
y,-x+y,-z
x,y,-z
x-y,x,-z
-y,x-y,-z
-x+y,y,z
x,x-y,z
-y,-x,z
y,x,z
x-y,-y,z
-x,-x+y,z
loop_
_atom_site_type_symbol
_atom_site_label
_atom_site_fract_x
_atom_site_fract_y
_atom_site_fract_z
Si Si1 0.792581 0.115327 0.000000
Si Si2 0.519011 0.946173 0.792225
Si Si3 0.564360 0.827903 0.000000
Si Si4 0.678573 0.112886 0.694172
Si Si5 0.324096 0.054982 0.299030
O O1 0.773336 0.083098 0.831404
O O2 0.847214 0.152787 0.000000
O O3 0.766360 0.145538 0.000000
O O4 0.467076 0.934151 0.743222
O O5 0.536580 0.913253 0.717158
O O6 0.553082 0.000000 0.742560
O O7 0.520368 0.944034 0.000000
O O8 0.550935 0.846615 0.832552
O O9 0.547062 0.773531 0.000000
O O10 0.691658 0.130021 0.500000
O O11 0.696167 0.075718 0.725030
O O12 0.317064 0.061886 0.500000
O O13 0.296413 0.000000 0.262575
#
# Coordination Sequence:
#
# PCOD9587147 Si02
#       5
#    12  24  12  24  24
#     4   9  17  27  39  54  71  95 123 153 194 234
#     4   9  17  28  41  58  82 111 139 164 190 223
#     4   9  18  31  42  55  75  97 124 158 194 231
#     4  10  18  28  43  60  77 101 131 161 195 232
#     4   9  17  27  39  56  75  96 126 162 196 229
#
# _framework density 12.918374
#
# number of rings (size 3 to 8) (size 9 to 14) (size 15 to 20)
#    0.000    2.750    1.250    1.875    0.000    3.000 
#    0.000    6.250    0.000    0.000    0.000    0.000 
#    0.000    0.000    0.000    3.000    0.000    6.500 
#
# Total GULP energy -534849.902228 kJ/mol
# GULP energy per Si atom -5571.353148 kJ/mol
# Density = 1.288897 g / cm^3
# Si number density = 12.918374 Si / 1000 Ang^3
#
#
#
# Elastic Constant Matrix: (Units=GPa)
#
#
# Indices 1 2 3 4 5 6 
#
# 1 71.4522 36.6098 47.6608 0.0000 0.0000 0.0000
# 2 36.6098 71.4522 47.6608 0.0000 0.0000 0.0000
# 3 47.6608 47.6608 80.1159 0.0000 0.0000 0.0000
# 4 0.0000 0.0000 0.0000 7.9666 0.0000 0.0000
# 5 0.0000 0.0000 0.0000 0.0000 7.9666 0.0000
# 6 0.0000 0.0000 0.0000 0.0000 0.0000 17.4212
#
#
#
# Elastic Compliance Matrix: (Units=1/GPa)
#
#
# Indices 1 2 3 4 5 6 
#
# 1 0.024086 -0.004614 -0.011584 0.000000 0.000000 0.000000
# 2 -0.004614 0.024086 -0.011584 0.000000 0.000000 0.000000
# 3 -0.011584 -0.011584 0.026264 0.000000 0.000000 0.000000
# 4 0.000000 0.000000 0.000000 0.125524 0.000000 0.000000
# 5 0.000000 0.000000 0.000000 0.000000 0.125524 0.000000
# 6 0.000000 0.000000 0.000000 0.000000 0.000000 0.057401
#
#
# Mechanical properties :
#
#
# Convention : Reuss Voigt Hill
#
# Bulk Modulus (GPa) = 52.98580 54.09811 53.54195
# Shear Modulus (GPa) = 11.24249 12.74348 11.99299
#
# Velocity S-wave (km/s) = 2.95324 3.14421 3.05022
# Velocity P-wave (km/s) = 7.26180 7.42625 7.34448
#
# Compressibility (1/GPa) = 0.01887298
#
# Stress axis : x y z
#
# Youngs Moduli (GPa) = 41.51717 41.51717 38.07429
#
# Poissons Ratio (x) = 0.19157 0.44105
# Poissons Ratio (y) = 0.19157 0.44105
# Poissons Ratio (z) = 0.48093 0.48093
#
# Static dielectric constant tensor:
#      x y z
#    x 1.398550 0.000000 0.000000 
#    y 0.000000 1.398550 0.000000 
#    z 0.000000 0.000000 1.456360 
# 
# From -- ./inp_files/1563.got.cif
#   From: 2010.05.17/outbox.cif.g08.bks.cpg/sg191_1_cif.got.tgz:1563.got - 2010.05.20 12:20:32.
