data_PCOD9587794
_publ_section_title
;
Structure prediction by ZEFSAII (Michael W. Deem and Ramdas Pophale) SiO2 
 PCOD9587794
Probable space group: P 6/M M M
;
_chemical_formula_sum "Si O2"
_cell_formula_units_Z 96
_cell_length_a 29.618979
_cell_length_b 29.618979
_cell_length_c 7.576309
_cell_angle_alpha 90.000000
_cell_angle_beta 90.000000
_cell_angle_gamma 120.000000
_cell_volume 5756.101963
_symmetry_space_group_name_H-M "P 6/M M M"
_symmetry_group_IT_number 191
_symmetry_cell_setting 'hexagonal'
loop_
_space_group_symop_operation_xyz
x,y,z
x-y,x,z
-y,x-y,z
-x,-y,z
-x+y,-x,z
y,-x+y,z
x-y,-y,-z
-x,-x+y,-z
y,x,-z
-y,-x,-z
-x+y,y,-z
x,x-y,-z
-x,-y,-z
-x+y,-x,-z
y,-x+y,-z
x,y,-z
x-y,x,-z
-y,x-y,-z
-x+y,y,z
x,x-y,z
-y,-x,z
y,x,z
x-y,-y,z
-x,-x+y,z
loop_
_atom_site_type_symbol
_atom_site_label
_atom_site_fract_x
_atom_site_fract_y
_atom_site_fract_z
Si Si1 0.896726 0.896726 0.286976
Si Si2 0.062920 0.580027 0.710633
Si Si3 0.896107 0.690297 0.210962
Si Si4 0.000000 0.209076 0.210382
Si Si5 0.940011 0.323221 0.712633
O O1 0.947871 0.895742 0.223377
O O2 0.899421 0.899421 0.500000
O O3 0.844293 0.844293 0.239138
O O4 0.073372 0.584536 0.500000
O O5 0.081515 0.540758 0.782662
O O6 0.079541 0.637538 0.778466
O O7 0.000000 0.549050 0.730061
O O8 0.842496 0.684992 0.279989
O O9 0.904758 0.641727 0.242414
O O10 0.947320 0.741771 0.281940
O O11 0.895842 0.696646 0.000000
O O12 0.000000 0.217117 0.000000
O O13 0.942590 0.327366 0.500000
O O14 0.000000 0.345472 0.774818
#
# Coordination Sequence:
#
# PCOD9587794 Si02
#       5
#    12  24  24  12  24
#     4  10  21  36  52  68  84  99 115 146 203 271
#     4   7  10  18  34  57  83 108 132 157 184 216
#     4  10  20  32  45  60  79 107 140 173 214 258
#     4  10  20  35  51  63  77 101 136 175 207 248
#     4   9  16  26  42  63  84 106 135 169 202 237
#
# _framework density 16.677954
#
# number of rings (size 3 to 8) (size 9 to 14) (size 15 to 20)
#    0.000    3.000    1.250    3.125    0.000    3.500 
#    0.000    0.000    0.000    1.500    0.000    3.500 
#    0.000    0.000    0.000    0.750    0.000   11.500 
#
# Total GULP energy -534723.037255 kJ/mol
# GULP energy per Si atom -5570.031638 kJ/mol
# Density = 1.663999 g / cm^3
# Si number density = 16.677954 Si / 1000 Ang^3
#
#
#
# Elastic Constant Matrix: (Units=GPa)
#
#
# Indices 1 2 3 4 5 6 
#
# 1 126.6756 98.1883 3.5740 0.0000 0.0000 0.0000
# 2 98.1883 126.6756 3.5740 0.0000 0.0000 0.0000
# 3 3.5740 3.5740 36.7675 0.0000 0.0000 0.0000
# 4 0.0000 0.0000 0.0000 16.9792 0.0000 0.0000
# 5 0.0000 0.0000 0.0000 0.0000 16.9792 0.0000
# 6 0.0000 0.0000 0.0000 0.0000 0.0000 14.2437
#
#
#
# Elastic Compliance Matrix: (Units=1/GPa)
#
#
# Indices 1 2 3 4 5 6 
#
# 1 0.019782 -0.015321 -0.000434 0.000000 0.000000 0.000000
# 2 -0.015321 0.019782 -0.000434 0.000000 0.000000 0.000000
# 3 -0.000434 -0.000434 0.027282 0.000000 0.000000 0.000000
# 4 0.000000 0.000000 0.000000 0.058896 0.000000 0.000000
# 5 0.000000 0.000000 0.000000 0.000000 0.058896 0.000000
# 6 0.000000 0.000000 0.000000 0.000000 0.000000 0.070207
#
#
# Mechanical properties :
#
#
# Convention : Reuss Voigt Hill
#
# Bulk Modulus (GPa) = 29.01108 55.64349 42.32729
# Shear Modulus (GPa) = 16.73857 21.95923 19.34890
#
# Velocity S-wave (km/s) = 3.17146 3.63252 3.40979
# Velocity P-wave (km/s) = 5.55369 7.14350 6.39816
#
# Compressibility (1/GPa) = 0.03446959
#
# Stress axis : x y z
#
# Youngs Moduli (GPa) = 50.55068 50.55068 36.65385
#
# Poissons Ratio (x) = 0.77450 0.01589
# Poissons Ratio (y) = 0.77450 0.01589
# Poissons Ratio (z) = 0.02192 0.02192
#
# Static dielectric constant tensor:
#      x y z
#    x 1.575810 0.000000 0.000000 
#    y 0.000000 1.575810 0.000000 
#    z 0.000000 0.000000 1.636680 
# 
# From -- ./inp_files/1607.got.cif
#   From: 2010.05.17/outbox.cif.g08.bks.cpg/sg191_1_cif.got.tgz:1607.got - 2010.05.20 12:20:32.
