data_PCOD9587636
_publ_section_title
;
Structure prediction by ZEFSAII (Michael W. Deem and Ramdas Pophale) SiO2 
 PCOD9587636
Probable space group: P 6/M M M
;
_chemical_formula_sum "Si O2"
_cell_formula_units_Z 132
_cell_length_a 17.870271
_cell_length_b 17.870271
_cell_length_c 28.956133
_cell_angle_alpha 90.000000
_cell_angle_beta 90.000000
_cell_angle_gamma 120.000000
_cell_volume 8008.173460
_symmetry_space_group_name_H-M "P 6/M M M"
_symmetry_group_IT_number 191
_symmetry_cell_setting 'hexagonal'
loop_
_space_group_symop_operation_xyz
x,y,z
x-y,x,z
-y,x-y,z
-x,-y,z
-x+y,-x,z
y,-x+y,z
x-y,-y,-z
-x,-x+y,-z
y,x,-z
-y,-x,-z
-x+y,y,-z
x,x-y,-z
-x,-y,-z
-x+y,-x,-z
y,-x+y,-z
x,y,-z
x-y,x,-z
-y,x-y,-z
-x+y,y,z
x,x-y,z
-y,-x,z
y,x,z
x-y,-y,z
-x,-x+y,z
loop_
_atom_site_type_symbol
_atom_site_label
_atom_site_fract_x
_atom_site_fract_y
_atom_site_fract_z
Si Si1 0.732110 0.100310 0.640719
Si Si2 0.895774 0.532547 0.908712
Si Si3 0.270209 0.370865 0.182055
Si Si4 0.268623 0.896812 0.000000
Si Si5 0.489576 0.332797 0.728468
Si Si6 0.637565 0.104703 0.551657
O O1 0.833070 0.166931 0.648111
O O2 0.681475 0.114602 0.682689
O O3 0.702566 0.125760 0.593436
O O4 0.703789 0.000000 0.638574
O O5 0.860673 0.430337 0.908861
O O6 0.873907 0.567367 0.862727
O O7 0.000000 0.578918 0.908421
O O8 0.875184 0.568103 0.954854
O O9 0.168289 0.336577 0.185527
O O10 0.298868 0.298868 0.178176
O O11 0.315064 0.429164 0.227037
O O12 0.165668 0.834333 0.000000
O O13 0.304243 0.000000 0.000000
O O14 0.514407 0.257204 0.728322
O O15 0.573681 0.426320 0.729798
O O16 0.674275 0.132864 0.500000
O O17 0.567533 0.135065 0.560128
O O18 0.582504 0.000000 0.550817
#
# Coordination Sequence:
#
# PCOD9587636 Si02
#       6
#    24  24  24  12  24  24
#     4  10  20  32  47  68  93 122 157 197 238 278
#     4   9  17  30  49  71  93 119 153 192 234 283
#     4  10  20  33  50  72  97 127 163 201 238 276
#     4  10  19  31  49  72  97 127 164 204 243 283
#     4  10  20  33  50  73 100 127 153 184 226 277
#     4   8  14  26  45  68  92 117 146 181 222 271
#
# _framework density 16.483160000000002
#
# number of rings (size 3 to 8) (size 9 to 14) (size 15 to 20)
#    0.000    2.545    0.000    3.182    0.000    4.364 
#    0.000    0.000    0.000    7.000    0.000    0.000 
#    0.000    8.727    0.000    4.545    0.000    1.091 
#
# Total GULP energy -735686.558843 kJ/mol
# GULP energy per Si atom -5573.383022 kJ/mol
# Density = 1.644564 g / cm^3
# Si number density = 16.483160 Si / 1000 Ang^3
#
#
#
# Elastic Constant Matrix: (Units=GPa)
#
#
# Indices 1 2 3 4 5 6 
#
# 1 87.4915 62.8517 38.0831 0.0000 0.0000 0.0000
# 2 62.8517 87.4915 38.0831 0.0000 0.0000 0.0000
# 3 38.0831 38.0831 122.9650 0.0000 0.0000 0.0000
# 4 0.0000 0.0000 0.0000 34.9263 0.0000 0.0000
# 5 0.0000 0.0000 0.0000 0.0000 34.9263 0.0000
# 6 0.0000 0.0000 0.0000 0.0000 0.0000 12.3199
#
#
#
# Elastic Compliance Matrix: (Units=1/GPa)
#
#
# Indices 1 2 3 4 5 6 
#
# 1 0.024237 -0.016348 -0.002443 0.000000 0.000000 0.000000
# 2 -0.016348 0.024237 -0.002443 0.000000 0.000000 0.000000
# 3 -0.002443 -0.002443 0.009646 0.000000 0.000000 0.000000
# 4 0.000000 0.000000 0.000000 0.028632 0.000000 0.000000
# 5 0.000000 0.000000 0.000000 0.000000 0.028632 0.000000
# 6 0.000000 0.000000 0.000000 0.000000 0.000000 0.081169
#
#
# Mechanical properties :
#
#
# Convention : Reuss Voigt Hill
#
# Bulk Modulus (GPa) = 63.89382 63.99821 63.94601
# Shear Modulus (GPa) = 20.47181 27.02986 23.75084
#
# Velocity S-wave (km/s) = 3.52800 4.05390 3.80006
# Velocity P-wave (km/s) = 7.44600 7.79890 7.62449
#
# Compressibility (1/GPa) = 0.01565097
#
# Stress axis : x y z
#
# Youngs Moduli (GPa) = 41.25927 41.25927 103.67144
#
# Poissons Ratio (x) = 0.67449 0.25331
# Poissons Ratio (y) = 0.67449 0.25331
# Poissons Ratio (z) = 0.10081 0.10081
#
# Static dielectric constant tensor:
#      x y z
#    x 1.545400 0.000000 0.000000 
#    y 0.000000 1.545400 0.000000 
#    z 0.000000 0.000000 1.564670 
# 
# From -- ./inp_files/9783.got.cif
#   From: 2010.05.17/outbox.cif.g08.bks.cpg/sg191_5_cif.got.tgz:9783.got - 2010.05.20 12:20:32.
