data_PCOD9587382
_publ_section_title
;
Structure prediction by ZEFSAII (Michael W. Deem and Ramdas Pophale) SiO2 
 PCOD9587382
Probable space group: P 6/M M M
;
_chemical_formula_sum "Si O2"
_cell_formula_units_Z 120
_cell_length_a 18.125303
_cell_length_b 18.125303
_cell_length_c 26.423790
_cell_angle_alpha 90.000000
_cell_angle_beta 90.000000
_cell_angle_gamma 120.000000
_cell_volume 7517.895621
_symmetry_space_group_name_H-M "P 6/M M M"
_symmetry_group_IT_number 191
_symmetry_cell_setting 'hexagonal'
loop_
_space_group_symop_operation_xyz
x,y,z
x-y,x,z
-y,x-y,z
-x,-y,z
-x+y,-x,z
y,-x+y,z
x-y,-y,-z
-x,-x+y,-z
y,x,-z
-y,-x,-z
-x+y,y,-z
x,x-y,-z
-x,-y,-z
-x+y,-x,-z
y,-x+y,-z
x,y,-z
x-y,x,-z
-y,x-y,-z
-x+y,y,z
x,x-y,z
-y,-x,z
y,x,z
x-y,-y,z
-x,-x+y,z
loop_
_atom_site_type_symbol
_atom_site_label
_atom_site_fract_x
_atom_site_fract_y
_atom_site_fract_z
Si Si1 0.503978 0.835002 0.184122
Si Si2 0.902450 0.540608 0.293689
Si Si3 0.364342 0.263080 0.500000
Si Si4 0.097010 0.366033 0.094500
Si Si5 0.492169 0.159681 0.000000
Si Si6 0.363855 0.467332 0.404048
O O1 0.426835 0.853670 0.177214
O O2 0.473014 0.736507 0.172984
O O3 0.534044 0.853873 0.242320
O O4 0.581188 0.888944 0.146168
O O5 0.904546 0.452273 0.296584
O O6 0.867507 0.545718 0.348680
O O7 0.000000 0.615321 0.288484
O O8 0.298587 0.298587 0.500000
O O9 0.324014 0.162007 0.500000
O O10 0.424191 0.301650 0.549282
O O11 0.169633 0.339267 0.092378
O O12 0.000000 0.291341 0.090489
O O13 0.118011 0.433112 0.049004
O O14 0.574700 0.149399 0.000000
O O15 0.518433 0.259217 0.000000
O O16 0.433501 0.566500 0.412771
O O17 0.418864 0.418864 0.400794
#
# Coordination Sequence:
#
# PCOD9587382 Si02
#       6
#    24  24  12  24  12  24
#     4  10  19  29  42  62  91 126 160 190 218 250
#     4   8  14  25  41  60  82 110 145 182 216 253
#     4  10  19  29  43  62  83 109 142 182 223 263
#     4  10  21  35  51  71  93 119 151 190 235 278
#     4  10  20  33  50  73 102 134 165 194 222 253
#     4   8  14  26  44  64  84 107 137 173 215 262
#
# _framework density 15.961912
#
# number of rings (size 3 to 8) (size 9 to 14) (size 15 to 20)
#    0.000    2.800    0.000    3.300    0.000    4.800 
#    0.000    2.000    0.000    1.900    0.000    0.000 
#    0.000    2.400    0.000    0.000    0.000   26.000 
#
# Total GULP energy -668394.111771 kJ/mol
# GULP energy per Si atom -5569.950931 kJ/mol
# Density = 1.592558 g / cm^3
# Si number density = 15.961912 Si / 1000 Ang^3
#
#
#
# Elastic Constant Matrix: (Units=GPa)
#
#
# Indices 1 2 3 4 5 6 
#
# 1 72.6737 50.1665 32.2469 0.0000 0.0000 0.0000
# 2 50.1665 72.6737 32.2469 0.0000 0.0000 0.0000
# 3 32.2469 32.2469 110.9740 0.0000 0.0000 0.0000
# 4 0.0000 0.0000 0.0000 7.8345 0.0000 0.0000
# 5 0.0000 0.0000 0.0000 0.0000 7.8345 0.0000
# 6 0.0000 0.0000 0.0000 0.0000 0.0000 11.2536
#
#
#
# Elastic Compliance Matrix: (Units=1/GPa)
#
#
# Indices 1 2 3 4 5 6 
#
# 1 0.027018 -0.017412 -0.002791 0.000000 0.000000 0.000000
# 2 -0.017412 0.027018 -0.002791 0.000000 0.000000 0.000000
# 3 -0.002791 -0.002791 0.010633 0.000000 0.000000 0.000000
# 4 0.000000 0.000000 0.000000 0.127640 0.000000 0.000000
# 5 0.000000 0.000000 0.000000 0.000000 0.127640 0.000000
# 6 0.000000 0.000000 0.000000 0.000000 0.000000 0.088861
#
#
# Mechanical properties :
#
#
# Convention : Reuss Voigt Hill
#
# Bulk Modulus (GPa) = 53.53249 53.96023 53.74636
# Shear Modulus (GPa) = 10.84537 14.82860 12.83698
#
# Velocity S-wave (km/s) = 2.60946 3.05126 2.83896
# Velocity P-wave (km/s) = 6.53372 6.80386 6.67016
#
# Compressibility (1/GPa) = 0.01868024
#
# Stress axis : x y z
#
# Youngs Moduli (GPa) = 37.01204 37.01204 94.04364
#
# Poissons Ratio (x) = 0.64446 0.26251
# Poissons Ratio (y) = 0.64446 0.26251
# Poissons Ratio (z) = 0.10331 0.10331
#
# Static dielectric constant tensor:
#      x y z
#    x 1.521120 0.000000 0.000000 
#    y 0.000000 1.521120 0.000000 
#    z 0.000000 0.000000 1.570990 
# 
# From -- ./inp_files/9622.got.cif
#   From: 2010.05.17/outbox.cif.g08.bks.cpg/sg191_5_cif.got.tgz:9622.got - 2010.05.20 12:20:32.
