data_PCOD9587185
_publ_section_title
;
Structure prediction by ZEFSAII (Michael W. Deem and Ramdas Pophale) SiO2 
 PCOD9587185
Probable space group: P 6/M M M
;
_chemical_formula_sum "Si O2"
_cell_formula_units_Z 144
_cell_length_a 23.629160
_cell_length_b 23.629160
_cell_length_c 20.535047
_cell_angle_alpha 90.000000
_cell_angle_beta 90.000000
_cell_angle_gamma 120.000000
_cell_volume 9929.397545
_symmetry_space_group_name_H-M "P 6/M M M"
_symmetry_group_IT_number 191
_symmetry_cell_setting 'hexagonal'
loop_
_space_group_symop_operation_xyz
x,y,z
x-y,x,z
-y,x-y,z
-x,-y,z
-x+y,-x,z
y,-x+y,z
x-y,-y,-z
-x,-x+y,-z
y,x,-z
-y,-x,-z
-x+y,y,-z
x,x-y,-z
-x,-y,-z
-x+y,-x,-z
y,-x+y,-z
x,y,-z
x-y,x,-z
-y,x-y,-z
-x+y,y,z
x,x-y,z
-y,-x,z
y,x,z
x-y,-y,z
-x,-x+y,z
loop_
_atom_site_type_symbol
_atom_site_label
_atom_site_fract_x
_atom_site_fract_y
_atom_site_fract_z
Si Si1 0.718130 0.925459 0.693252
Si Si2 0.524652 0.602243 0.613955
Si Si3 0.875329 0.618712 0.186056
Si Si4 0.722739 0.925922 0.077161
Si Si5 0.397798 0.922436 0.770434
Si Si6 0.123098 0.378299 0.426826
O O1 0.737534 0.868767 0.693127
O O2 0.669390 0.910161 0.754304
O O3 0.675337 0.915785 0.628473
O O4 0.775881 0.000000 0.697164
O O5 0.451117 0.548884 0.593468
O O6 0.568834 0.568834 0.600401
O O7 0.524366 0.610131 0.692195
O O8 0.559727 0.673353 0.583018
O O9 0.799953 0.599905 0.187570
O O10 0.906778 0.659203 0.120325
O O11 0.885795 0.557797 0.195923
O O12 0.742910 0.871455 0.092655
O O13 0.777294 0.000000 0.092180
O O14 0.708876 0.921896 0.000000
O O15 0.451282 0.902563 0.790398
O O16 0.430485 0.000000 0.782828
O O17 0.101895 0.352327 0.500000
O O18 0.198276 0.396552 0.419434
#
# Coordination Sequence:
#
# PCOD9587185 Si02
#       6
#    24  24  24  24  24  24
#     4  10  19  30  45  65  87 111 142 178 216 260
#     4   9  17  28  43  63  84 107 136 171 211 253
#     4  10  18  28  46  68  88 114 147 181 216 256
#     4   9  17  28  43  65  92 120 149 183 223 264
#     4   9  16  26  42  64  88 112 138 170 209 252
#     4  10  20  31  43  61  86 115 143 175 218 261
#
# _framework density 14.50239
#
# number of rings (size 3 to 8) (size 9 to 14) (size 15 to 20)
#    0.000    2.500    1.667    3.000    0.000    1.667 
#    0.000    0.833    0.000    1.500    0.000    3.500 
#    0.000    4.000    0.000    4.333    0.000    0.000 
#
# Total GULP energy -802387.229325 kJ/mol
# GULP energy per Si atom -5572.133537 kJ/mol
# Density = 1.446938 g / cm^3
# Si number density = 14.502390 Si / 1000 Ang^3
#
#
#
# Elastic Constant Matrix: (Units=GPa)
#
#
# Indices 1 2 3 4 5 6 
#
# 1 87.2141 47.5672 27.4903 0.0000 0.0000 0.0000
# 2 47.5672 87.2141 27.4903 0.0000 0.0000 0.0000
# 3 27.4903 27.4903 38.1186 0.0000 0.0000 0.0000
# 4 0.0000 0.0000 0.0000 14.5284 0.0000 0.0000
# 5 0.0000 0.0000 0.0000 0.0000 14.5284 0.0000
# 6 0.0000 0.0000 0.0000 0.0000 0.0000 19.8234
#
#
#
# Elastic Compliance Matrix: (Units=1/GPa)
#
#
# Indices 1 2 3 4 5 6 
#
# 1 0.017867 -0.007355 -0.007581 0.000000 0.000000 0.000000
# 2 -0.007355 0.017867 -0.007581 0.000000 0.000000 0.000000
# 3 -0.007581 -0.007581 0.037168 0.000000 0.000000 0.000000
# 4 0.000000 0.000000 0.000000 0.068831 0.000000 0.000000
# 5 0.000000 0.000000 0.000000 0.000000 0.068831 0.000000
# 6 0.000000 0.000000 0.000000 0.000000 0.000000 0.050445
#
#
# Mechanical properties :
#
#
# Convention : Reuss Voigt Hill
#
# Bulk Modulus (GPa) = 35.88304 46.40472 41.14388
# Shear Modulus (GPa) = 15.85625 17.10933 16.48279
#
# Velocity S-wave (km/s) = 3.31018 3.43849 3.37494
# Velocity P-wave (km/s) = 6.27744 6.91605 6.60447
#
# Compressibility (1/GPa) = 0.02786832
#
# Stress axis : x y z
#
# Youngs Moduli (GPa) = 55.96828 55.96828 26.90465
#
# Poissons Ratio (x) = 0.41167 0.20396
# Poissons Ratio (y) = 0.41167 0.20396
# Poissons Ratio (z) = 0.42429 0.42429
#
# Static dielectric constant tensor:
#      x y z
#    x 1.470620 0.000000 0.000000 
#    y 0.000000 1.470620 0.000000 
#    z 0.000000 0.000000 1.494380 
# 
# From -- ./inp_files/6549.got.cif
#   From: 2010.05.17/outbox.cif.g08.bks.cpg/sg191_4_cif.got.tgz:6549.got - 2010.05.20 12:20:32.
