data_PCOD9587670
_publ_section_title
;
Structure prediction by ZEFSAII (Michael W. Deem and Ramdas Pophale) SiO2 
 PCOD9587670
Probable space group: P 6/M M M
;
_chemical_formula_sum "Si O2"
_cell_formula_units_Z 144
_cell_length_a 22.748865
_cell_length_b 22.748865
_cell_length_c 20.720033
_cell_angle_alpha 90.000000
_cell_angle_beta 90.000000
_cell_angle_gamma 120.000000
_cell_volume 9286.253635
_symmetry_space_group_name_H-M "P 6/M M M"
_symmetry_group_IT_number 191
_symmetry_cell_setting 'hexagonal'
loop_
_space_group_symop_operation_xyz
x,y,z
x-y,x,z
-y,x-y,z
-x,-y,z
-x+y,-x,z
y,-x+y,z
x-y,-y,-z
-x,-x+y,-z
y,x,-z
-y,-x,-z
-x+y,y,-z
x,x-y,-z
-x,-y,-z
-x+y,-x,-z
y,-x+y,-z
x,y,-z
x-y,x,-z
-y,x-y,-z
-x+y,y,z
x,x-y,z
-y,-x,z
y,x,z
x-y,-y,z
-x,-x+y,z
loop_
_atom_site_type_symbol
_atom_site_label
_atom_site_fract_x
_atom_site_fract_y
_atom_site_fract_z
Si Si1 0.290277 0.076903 0.686943
Si Si2 0.262917 0.878716 0.190747
Si Si3 0.383482 0.078614 0.573491
Si Si4 0.530436 0.196350 0.232302
Si Si5 0.212262 0.923936 0.075261
Si Si6 0.529565 0.333540 0.388442
O O1 0.270586 0.135293 0.692422
O O2 0.335315 0.082376 0.749418
O O3 0.338875 0.091872 0.625160
O O4 0.229151 0.000000 0.682039
O O5 0.194994 0.805007 0.191995
O O6 0.322665 0.862313 0.202488
O O7 0.260437 0.912326 0.123857
O O8 0.365432 0.085419 0.500000
O O9 0.462265 0.131891 0.584447
O O10 0.363260 0.000000 0.582741
O O11 0.595986 0.191972 0.213221
O O12 0.540013 0.270007 0.215304
O O13 0.524445 0.191375 0.310259
O O14 0.135375 0.864626 0.088844
O O15 0.226839 0.000000 0.085196
O O16 0.226130 0.917583 0.000000
O O17 0.531666 0.265833 0.407166
O O18 0.598642 0.401359 0.407257
#
# Coordination Sequence:
#
# PCOD9587670 Si02
#       6
#    24  24  24  24  24  24
#     4  10  19  32  50  71  93 118 151 190 230 272
#     4   9  16  28  47  70  93 119 154 191 224 263
#     4  10  21  35  50  67  89 121 158 196 237 277
#     4   9  16  27  45  69  95 122 154 192 234 277
#     4   9  17  29  47  71  97 124 153 187 227 271
#     4  10  19  32  49  69  93 122 156 193 234 282
#
# _framework density 15.506791
#
# number of rings (size 3 to 8) (size 9 to 14) (size 15 to 20)
#    0.000    2.500    1.667    1.333    0.000    3.333 
#    0.000    0.833    0.000    3.833    0.000    2.333 
#    0.000    5.333    0.000    4.333    0.000    0.000 
#
# Total GULP energy -802302.194538 kJ/mol
# GULP energy per Si atom -5571.543018 kJ/mol
# Density = 1.547150 g / cm^3
# Si number density = 15.506791 Si / 1000 Ang^3
#
#
#
# Elastic Constant Matrix: (Units=GPa)
#
#
# Indices 1 2 3 4 5 6 
#
# 1 92.8451 56.2689 36.3460 0.0000 0.0000 0.0000
# 2 56.2689 92.8451 36.3460 0.0000 0.0000 0.0000
# 3 36.3460 36.3460 63.8419 0.0000 0.0000 0.0000
# 4 0.0000 0.0000 0.0000 18.1473 0.0000 0.0000
# 5 0.0000 0.0000 0.0000 0.0000 18.1473 0.0000
# 6 0.0000 0.0000 0.0000 0.0000 0.0000 18.2881
#
#
#
# Elastic Compliance Matrix: (Units=1/GPa)
#
#
# Indices 1 2 3 4 5 6 
#
# 1 0.018311 -0.009029 -0.005285 0.000000 0.000000 0.000000
# 2 -0.009029 0.018311 -0.005285 0.000000 0.000000 0.000000
# 3 -0.005285 -0.005285 0.021681 0.000000 0.000000 0.000000
# 4 0.000000 0.000000 0.000000 0.055105 0.000000 0.000000
# 5 0.000000 0.000000 0.000000 0.000000 0.055105 0.000000
# 6 0.000000 0.000000 0.000000 0.000000 0.000000 0.054680
#
#
# Mechanical properties :
#
#
# Convention : Reuss Voigt Hill
#
# Bulk Modulus (GPa) = 52.33589 56.38377 54.35983
# Shear Modulus (GPa) = 18.60406 18.95462 18.77934
#
# Velocity S-wave (km/s) = 3.46748 3.50000 3.48377
# Velocity P-wave (km/s) = 7.06079 7.26450 7.16337
#
# Compressibility (1/GPa) = 0.01910735
#
# Stress axis : x y z
#
# Youngs Moduli (GPa) = 54.61092 54.61092 46.12342
#
# Poissons Ratio (x) = 0.49307 0.24375
# Poissons Ratio (y) = 0.49307 0.24375
# Poissons Ratio (z) = 0.28860 0.28860
#
# Static dielectric constant tensor:
#      x y z
#    x 1.511540 0.000000 0.000000 
#    y 0.000000 1.511540 0.000000 
#    z 0.000000 0.000000 1.527150 
# 
# From -- ./inp_files/6560.got.cif
#   From: 2010.05.17/outbox.cif.g08.bks.cpg/sg191_4_cif.got.tgz:6560.got - 2010.05.20 12:20:32.
