data_PCOD9587776
_publ_section_title
;
Structure prediction by ZEFSAII (Michael W. Deem and Ramdas Pophale) SiO2 
 PCOD9587776
Probable space group: P 6/M M M
;
_chemical_formula_sum "Si O2"
_cell_formula_units_Z 180
_cell_length_a 27.250747
_cell_length_b 27.250747
_cell_length_c 18.429948
_cell_angle_alpha 90.000000
_cell_angle_beta 90.000000
_cell_angle_gamma 120.000000
_cell_volume 11852.543692
_symmetry_space_group_name_H-M "P 6/M M M"
_symmetry_group_IT_number 191
_symmetry_cell_setting 'hexagonal'
loop_
_space_group_symop_operation_xyz
x,y,z
x-y,x,z
-y,x-y,z
-x,-y,z
-x+y,-x,z
y,-x+y,z
x-y,-y,-z
-x,-x+y,-z
y,x,-z
-y,-x,-z
-x+y,y,-z
x,x-y,-z
-x,-y,-z
-x+y,-x,-z
y,-x+y,-z
x,y,-z
x-y,x,-z
-y,x-y,-z
-x+y,y,z
x,x-y,z
-y,-x,z
y,x,z
x-y,-y,z
-x,-x+y,z
loop_
_atom_site_type_symbol
_atom_site_label
_atom_site_fract_x
_atom_site_fract_y
_atom_site_fract_z
Si Si1 0.553431 0.219700 0.864941
Si Si2 0.542454 0.878673 0.584653
Si Si3 0.555519 0.000000 0.413148
Si Si4 0.324007 0.932012 0.790136
Si Si5 0.628419 0.143770 0.727301
Si Si6 0.063735 0.827479 0.586400
Si Si7 0.843668 0.573103 0.916153
Si Si8 0.357102 0.235448 0.338394
O O1 0.605870 0.211739 0.887874
O O2 0.569385 0.284693 0.869689
O O3 0.537259 0.196395 0.782454
O O4 0.494926 0.183131 0.908376
O O5 0.526113 0.867106 0.500000
O O6 0.556605 0.942873 0.602601
O O7 0.496679 0.842797 0.646263
O O8 0.597106 0.873395 0.602413
O O9 0.500000 0.000000 0.382628
O O10 0.550614 0.000000 0.500000
O O11 0.362099 0.905503 0.761146
O O12 0.294768 0.897733 0.863775
O O13 0.274679 0.911181 0.729780
O O14 0.359333 0.000000 0.796806
O O15 0.563175 0.126350 0.724512
O O16 0.065513 0.818413 0.500000
O O17 0.107077 0.892923 0.601265
O O18 0.086803 0.791552 0.627384
O O19 0.000000 0.806835 0.607361
O O20 0.791920 0.583840 0.894195
O O21 0.857506 0.589315 0.000000
O O22 0.368127 0.184064 0.318912
#
# Coordination Sequence:
#
# PCOD9587776 Si02
#       8
#    24  24  12  24  24  24  24  24
#     4   9  17  31  50  71  91 115 148 185 226 272
#     4  10  20  30  44  64  85 117 156 194 237 279
#     4   9  18  30  42  60  86 114 147 191 240 284
#     4  10  20  32  49  70  89 116 154 188 218 259
#     4   9  19  31  44  63  90 119 147 184 231 280
#     4   9  17  28  43  62  86 117 149 185 228 271
#     4   9  18  33  51  70  96 124 143 169 218 271
#     4  10  20  32  45  64  91 118 149 191 233 274
#
# _framework density 15.186612999999999
#
# number of rings (size 3 to 8) (size 9 to 14) (size 15 to 20)
#    0.000    2.600    0.000    1.733    4.667    5.600 
#    0.000    0.000    0.000    0.933    0.000    4.667 
#    0.000    1.067    0.000    0.000    0.000    0.000 
#
# Total GULP energy -1002797.800801 kJ/mol
# GULP energy per Si atom -5571.098893 kJ/mol
# Density = 1.515205 g / cm^3
# Si number density = 15.186613 Si / 1000 Ang^3
#
#
#
# Elastic Constant Matrix: (Units=GPa)
#
#
# Indices 1 2 3 4 5 6 
#
# 1 72.5649 45.1045 18.5275 0.0000 0.0000 0.0000
# 2 45.1045 72.5649 18.5275 0.0000 0.0000 0.0000
# 3 18.5275 18.5275 65.1142 0.0000 0.0000 0.0000
# 4 0.0000 0.0000 0.0000 15.6537 0.0000 0.0000
# 5 0.0000 0.0000 0.0000 0.0000 15.6537 0.0000
# 6 0.0000 0.0000 0.0000 0.0000 0.0000 13.7302
#
#
#
# Elastic Compliance Matrix: (Units=1/GPa)
#
#
# Indices 1 2 3 4 5 6 
#
# 1 0.022875 -0.013541 -0.002656 0.000000 0.000000 0.000000
# 2 -0.013541 0.022875 -0.002656 0.000000 0.000000 0.000000
# 3 -0.002656 -0.002656 0.016869 0.000000 0.000000 0.000000
# 4 0.000000 0.000000 0.000000 0.063883 0.000000 0.000000
# 5 0.000000 0.000000 0.000000 0.000000 0.063883 0.000000
# 6 0.000000 0.000000 0.000000 0.000000 0.000000 0.072832
#
#
# Mechanical properties :
#
#
# Convention : Reuss Voigt Hill
#
# Bulk Modulus (GPa) = 40.13754 41.61813 40.87783
# Shear Modulus (GPa) = 16.16932 17.54651 16.85791
#
# Velocity S-wave (km/s) = 3.26653 3.40279 3.33536
# Velocity P-wave (km/s) = 6.38074 6.55001 6.46593
#
# Compressibility (1/GPa) = 0.02491433
#
# Stress axis : x y z
#
# Youngs Moduli (GPa) = 43.71502 43.71502 59.27979
#
# Poissons Ratio (x) = 0.59193 0.15745
# Poissons Ratio (y) = 0.59193 0.15745
# Poissons Ratio (z) = 0.11611 0.11611
#
# Static dielectric constant tensor:
#      x y z
#    x 1.502630 0.000000 0.000000 
#    y 0.000000 1.502630 0.000000 
#    z 0.000000 0.000000 1.517200 
# 
# From -- ./inp_files/6888.got.cif
#   From: 2010.05.17/outbox.cif.g08.bks.cpg/sg191_4_cif.got.tgz:6888.got - 2010.05.20 12:20:32.
