data_PCOD9587703
_publ_section_title
;
Structure prediction by ZEFSAII (Michael W. Deem and Ramdas Pophale) SiO2 
 PCOD9587703
Probable space group: P 6/M M M
;
_chemical_formula_sum "Si O2"
_cell_formula_units_Z 144
_cell_length_a 20.827280
_cell_length_b 20.827280
_cell_length_c 23.679844
_cell_angle_alpha 90.000000
_cell_angle_beta 90.000000
_cell_angle_gamma 120.000000
_cell_volume 8895.586356
_symmetry_space_group_name_H-M "P 6/M M M"
_symmetry_group_IT_number 191
_symmetry_cell_setting 'hexagonal'
loop_
_space_group_symop_operation_xyz
x,y,z
x-y,x,z
-y,x-y,z
-x,-y,z
-x+y,-x,z
y,-x+y,z
x-y,-y,-z
-x,-x+y,-z
y,x,-z
-y,-x,-z
-x+y,y,-z
x,x-y,-z
-x,-y,-z
-x+y,-x,-z
y,-x+y,-z
x,y,-z
x-y,x,-z
-y,x-y,-z
-x+y,y,z
x,x-y,z
-y,-x,z
y,x,z
x-y,-y,z
-x,-x+y,z
loop_
_atom_site_type_symbol
_atom_site_label
_atom_site_fract_x
_atom_site_fract_y
_atom_site_fract_z
Si Si1 0.910393 0.455197 0.562971
Si Si2 0.544603 0.455398 0.937461
Si Si3 0.569119 0.657532 0.646802
Si Si4 0.332291 0.821171 0.241197
Si Si5 0.915618 0.686826 0.436738
Si Si6 0.418151 0.328209 0.132689
Si Si7 0.171537 0.343073 0.068510
Si Si8 0.831867 0.915934 0.068225
O O1 0.879843 0.439922 0.500000
O O2 0.890607 0.506734 0.599500
O O3 0.000000 0.500000 0.558923
O O4 0.500000 0.500000 0.941596
O O5 0.617903 0.510026 0.904256
O O6 0.560689 0.439311 0.000000
O O7 0.605945 0.605945 0.660351
O O8 0.530614 0.669026 0.700975
O O9 0.631253 0.729510 0.614483
O O10 0.411478 0.822956 0.236325
O O11 0.262804 0.737197 0.239426
O O12 0.322379 0.869076 0.191614
O O13 0.907524 0.651897 0.500000
O O14 0.856916 0.713831 0.433963
O O15 0.000000 0.750824 0.432898
O O16 0.367152 0.367152 0.138700
O O17 0.376059 0.251054 0.098896
O O18 0.127554 0.255108 0.079009
O O19 0.177845 0.355690 0.000000
O O20 0.872021 0.872021 0.089554
O O21 0.839284 0.919642 0.000000
#
# Coordination Sequence:
#
# PCOD9587703 Si02
#       8
#    12  12  24  24  24  24  12  12
#     4   9  16  27  47  78 111 138 169 215 269 319
#     4   9  18  33  55  80 102 129 170 217 264 314
#     4  10  19  32  53  80 107 137 176 222 270 318
#     4  12  24  40  57  76 104 143 185 228 273 324
#     4   9  17  30  49  76 110 144 179 221 269 318
#     4  11  22  37  58  81 108 141 180 226 273 320
#     4  11  22  37  56  83 117 146 174 216 275 335
#     4   9  17  30  51  80 114 149 180 208 247 311
#
# _framework density 16.187804
#
# number of rings (size 3 to 8) (size 9 to 14) (size 15 to 20)
#    0.000    1.833    2.500    2.750    0.000    4.667 
#    0.000    0.000    0.000    0.167    0.000    3.500 
#    0.000    0.000    0.000    0.000    0.000    0.000 
#
# Total GULP energy -802388.413813 kJ/mol
# GULP energy per Si atom -5572.141763 kJ/mol
# Density = 1.615096 g / cm^3
# Si number density = 16.187804 Si / 1000 Ang^3
#
#
#
# Elastic Constant Matrix: (Units=GPa)
#
#
# Indices 1 2 3 4 5 6 
#
# 1 114.9253 71.0638 61.3882 0.0000 0.0000 0.0000
# 2 71.0638 114.9253 61.3882 0.0000 0.0000 0.0000
# 3 61.3882 61.3882 132.0107 0.0000 0.0000 0.0000
# 4 0.0000 0.0000 0.0000 22.7619 0.0000 0.0000
# 5 0.0000 0.0000 0.0000 0.0000 22.7619 0.0000
# 6 0.0000 0.0000 0.0000 0.0000 0.0000 21.9307
#
#
#
# Elastic Compliance Matrix: (Units=1/GPa)
#
#
# Indices 1 2 3 4 5 6 
#
# 1 0.015279 -0.007520 -0.003608 0.000000 0.000000 0.000000
# 2 -0.007520 0.015279 -0.003608 0.000000 0.000000 0.000000
# 3 -0.003608 -0.003608 0.010931 0.000000 0.000000 0.000000
# 4 0.000000 0.000000 0.000000 0.043933 0.000000 0.000000
# 5 0.000000 0.000000 0.000000 0.000000 0.043933 0.000000
# 6 0.000000 0.000000 0.000000 0.000000 0.000000 0.045598
#
#
# Mechanical properties :
#
#
# Convention : Reuss Voigt Hill
#
# Bulk Modulus (GPa) = 83.22274 83.28242 83.25258
# Shear Modulus (GPa) = 23.98893 24.69229 24.34061
#
# Velocity S-wave (km/s) = 3.85374 3.90983 3.88188
# Velocity P-wave (km/s) = 8.44536 8.48184 8.46362
#
# Compressibility (1/GPa) = 0.01201595
#
# Stress axis : x y z
#
# Youngs Moduli (GPa) = 65.45075 65.45075 91.48671
#
# Poissons Ratio (x) = 0.49222 0.33006
# Poissons Ratio (y) = 0.49222 0.33006
# Poissons Ratio (z) = 0.23613 0.23613
#
# Static dielectric constant tensor:
#      x y z
#    x 1.533150 0.000000 0.000000 
#    y 0.000000 1.533150 0.000000 
#    z 0.000000 0.000000 1.554130 
# 
# From -- ./inp_files/7693.got.cif
#   From: 2010.05.17/outbox.cif.g08.bks.cpg/sg191_4_cif.got.tgz:7693.got - 2010.05.20 12:20:32.
