data_PCOD9587134
_publ_section_title
;
Structure prediction by ZEFSAII (Michael W. Deem and Ramdas Pophale) SiO2 
 PCOD9587134
Probable space group: P 6/M M M
;
_chemical_formula_sum "Si O2"
_cell_formula_units_Z 168
_cell_length_a 22.978598
_cell_length_b 22.978598
_cell_length_c 23.393984
_cell_angle_alpha 90.000000
_cell_angle_beta 90.000000
_cell_angle_gamma 120.000000
_cell_volume 10697.489653
_symmetry_space_group_name_H-M "P 6/M M M"
_symmetry_group_IT_number 191
_symmetry_cell_setting 'hexagonal'
loop_
_space_group_symop_operation_xyz
x,y,z
x-y,x,z
-y,x-y,z
-x,-y,z
-x+y,-x,z
y,-x+y,z
x-y,-y,-z
-x,-x+y,-z
y,x,-z
-y,-x,-z
-x+y,y,-z
x,x-y,-z
-x,-y,-z
-x+y,-x,-z
y,-x+y,-z
x,y,-z
x-y,x,-z
-y,x-y,-z
-x+y,y,z
x,x-y,z
-y,-x,z
y,x,z
x-y,-y,z
-x,-x+y,z
loop_
_atom_site_type_symbol
_atom_site_label
_atom_site_fract_x
_atom_site_fract_y
_atom_site_fract_z
Si Si1 0.467772 0.801067 0.607440
Si Si2 0.583494 0.920441 0.817692
Si Si3 0.678115 0.600894 0.566283
Si Si4 0.666714 0.469267 0.744999
Si Si5 0.791691 0.075681 0.776860
Si Si6 0.391901 0.473315 0.063324
Si Si7 0.284459 0.076525 0.640239
O O1 0.393871 0.787741 0.593822
O O2 0.475850 0.737925 0.590045
O O3 0.524588 0.869031 0.579322
O O4 0.476409 0.808455 0.676247
O O5 0.525851 0.870273 0.774686
O O6 0.649074 0.914106 0.807164
O O7 0.555231 0.900026 0.881912
O O8 0.608221 0.000000 0.809050
O O9 0.698062 0.616006 0.500000
O O10 0.621231 0.621231 0.577239
O O11 0.740528 0.648618 0.606641
O O12 0.737852 0.475703 0.761991
O O13 0.604358 0.395643 0.759008
O O14 0.865738 0.134263 0.792126
O O15 0.782939 0.079925 0.708410
O O16 0.774756 0.000000 0.789009
O O17 0.449086 0.550915 0.071882
O O18 0.432251 0.432251 0.061822
O O19 0.361435 0.466060 0.000000
O O20 0.264544 0.132272 0.626017
O O21 0.229038 0.000000 0.626372
#
# Coordination Sequence:
#
# PCOD9587134 Si02
#       7
#    24  24  24  24  24  24  24
#     4  10  21  36  52  68  87 114 148 184 221 262
#     4  10  18  27  44  71  96 115 143 186 231 271
#     4  10  21  35  50  69  92 117 145 178 219 268
#     4  10  20  33  48  65  88 118 150 183 219 262
#     4   9  17  29  46  68  94 122 150 183 225 271
#     4   8  14  25  40  59  87 122 154 182 216 261
#     4   9  17  30  48  69  93 121 152 184 220 264
#
# _framework density 15.704618
#
# number of rings (size 3 to 8) (size 9 to 14) (size 15 to 20)
#    0.000    2.571    0.000    2.857    0.000    7.714 
#    0.000    2.143    0.000    2.857    0.000    2.000 
#    0.000    1.143    0.000    3.571    0.000    3.714 
#
# Total GULP energy -936301.320891 kJ/mol
# GULP energy per Si atom -5573.222148 kJ/mol
# Density = 1.566887 g / cm^3
# Si number density = 15.704618 Si / 1000 Ang^3
#
#
#
# Elastic Constant Matrix: (Units=GPa)
#
#
# Indices 1 2 3 4 5 6 
#
# 1 74.1681 43.0038 25.7975 0.0000 0.0000 0.0000
# 2 43.0038 74.1681 25.7975 0.0000 0.0000 0.0000
# 3 25.7975 25.7975 20.4431 0.0000 0.0000 0.0000
# 4 0.0000 0.0000 0.0000 8.4735 0.0000 0.0000
# 5 0.0000 0.0000 0.0000 0.0000 8.4735 0.0000
# 6 0.0000 0.0000 0.0000 0.0000 0.0000 15.5822
#
#
#
# Elastic Compliance Matrix: (Units=1/GPa)
#
#
# Indices 1 2 3 4 5 6 
#
# 1 0.025648 -0.006440 -0.024238 0.000000 0.000000 0.000000
# 2 -0.006440 0.025648 -0.024238 0.000000 0.000000 0.000000
# 3 -0.024238 -0.024238 0.110089 0.000000 0.000000 0.000000
# 4 0.000000 0.000000 0.000000 0.118016 0.000000 0.000000
# 5 0.000000 0.000000 0.000000 0.000000 0.118016 0.000000
# 6 0.000000 0.000000 0.000000 0.000000 0.000000 0.064176
#
#
# Mechanical properties :
#
#
# Convention : Reuss Voigt Hill
#
# Bulk Modulus (GPa) = 19.39813 39.77520 29.58667
# Shear Modulus (GPa) = 8.49463 11.45120 9.97292
#
# Velocity S-wave (km/s) = 2.32825 2.70323 2.52272
# Velocity P-wave (km/s) = 4.42790 5.92666 5.23124
#
# Compressibility (1/GPa) = 0.05155135
#
# Stress axis : x y z
#
# Youngs Moduli (GPa) = 38.99000 38.99000 9.08360
#
# Poissons Ratio (x) = 0.25111 0.22017
# Poissons Ratio (y) = 0.25111 0.22017
# Poissons Ratio (z) = 0.94504 0.94504
#
# Static dielectric constant tensor:
#      x y z
#    x 1.516600 0.000000 0.000000 
#    y 0.000000 1.516600 0.000000 
#    z 0.000000 0.000000 1.528770 
# 
# From -- ./inp_files/8990.got.cif
#   From: 2010.05.17/outbox.cif.g08.bks.cpg/sg191_5_cif.got.tgz:8990.got - 2010.05.20 12:20:32.
