data_PCOD9587818
_publ_section_title
;
Structure prediction by ZEFSAII (Michael W. Deem and Ramdas Pophale) SiO2 
 PCOD9587818
Probable space group: P 6/M M M
;
_chemical_formula_sum "Si O2"
_cell_formula_units_Z 132
_cell_length_a 18.275726
_cell_length_b 18.275726
_cell_length_c 28.094131
_cell_angle_alpha 90.000000
_cell_angle_beta 90.000000
_cell_angle_gamma 120.000000
_cell_volume 8126.349775
_symmetry_space_group_name_H-M "P 6/M M M"
_symmetry_group_IT_number 191
_symmetry_cell_setting 'hexagonal'
loop_
_space_group_symop_operation_xyz
x,y,z
x-y,x,z
-y,x-y,z
-x,-y,z
-x+y,-x,z
y,-x+y,z
x-y,-y,-z
-x,-x+y,-z
y,x,-z
-y,-x,-z
-x+y,y,-z
x,x-y,-z
-x,-y,-z
-x+y,-x,-z
y,-x+y,-z
x,y,-z
x-y,x,-z
-y,x-y,-z
-x+y,y,z
x,x-y,z
-y,-x,z
y,x,z
x-y,-y,z
-x,-x+y,z
loop_
_atom_site_type_symbol
_atom_site_label
_atom_site_fract_x
_atom_site_fract_y
_atom_site_fract_z
Si Si1 0.493943 0.160950 0.227515
Si Si2 0.264027 0.903535 0.691970
Si Si3 0.161079 0.666724 0.500000
Si Si4 0.738207 0.095266 0.420330
Si Si5 0.468313 0.102406 0.946176
Si Si6 0.363280 0.264371 0.141645
O O1 0.575701 0.151402 0.223139
O O2 0.518075 0.259038 0.225842
O O3 0.442810 0.122350 0.276345
O O4 0.427005 0.114680 0.185185
O O5 0.166872 0.833129 0.702631
O O6 0.277512 0.898333 0.635628
O O7 0.290589 0.000000 0.702806
O O8 0.258513 0.741487 0.500000
O O9 0.153195 0.576598 0.500000
O O10 0.118231 0.681873 0.546127
O O11 0.834707 0.165294 0.430503
O O12 0.714832 0.000000 0.429989
O O13 0.565712 0.131425 0.934579
O O14 0.420258 0.123209 0.906031
O O15 0.419580 0.000000 0.947085
O O16 0.464553 0.130542 0.000000
O O17 0.330141 0.165071 0.147356
O O18 0.293524 0.293524 0.139756
#
# Coordination Sequence:
#
# PCOD9587818 Si02
#       6
#    24  24  12  24  24  24
#     4  10  20  33  49  70  96 124 152 183 222 269
#     4   9  18  32  49  69  93 122 155 190 228 269
#     4  10  20  33  48  67  92 122 155 190 228 269
#     4   9  18  32  49  69  93 121 153 189 230 273
#     4   8  14  26  45  68  92 117 146 181 221 266
#     4  10  20  32  47  68  93 121 154 193 235 276
#
# _framework density 16.243455000000001
#
# number of rings (size 3 to 8) (size 9 to 14) (size 15 to 20)
#    0.000    2.727    0.000    2.182    0.000    4.000 
#    0.000    1.818    0.000    3.091    0.000    2.545 
#    0.000    6.545    0.000    4.909    0.000    0.000 
#
# Total GULP energy -735485.908620 kJ/mol
# GULP energy per Si atom -5571.862944 kJ/mol
# Density = 1.620648 g / cm^3
# Si number density = 16.243455 Si / 1000 Ang^3
#
#
#
# Elastic Constant Matrix: (Units=GPa)
#
#
# Indices 1 2 3 4 5 6 
#
# 1 93.3330 77.7166 45.1938 0.0000 0.0000 0.0000
# 2 77.7166 93.3330 45.1938 0.0000 0.0000 0.0000
# 3 45.1938 45.1938 57.0963 0.0000 0.0000 0.0000
# 4 0.0000 0.0000 0.0000 20.0488 0.0000 0.0000
# 5 0.0000 0.0000 0.0000 0.0000 20.0488 0.0000
# 6 0.0000 0.0000 0.0000 0.0000 0.0000 7.8082
#
#
#
# Elastic Compliance Matrix: (Units=1/GPa)
#
#
# Indices 1 2 3 4 5 6 
#
# 1 0.037043 -0.026993 -0.007955 0.000000 0.000000 0.000000
# 2 -0.026993 0.037043 -0.007955 0.000000 0.000000 0.000000
# 3 -0.007955 -0.007955 0.030107 0.000000 0.000000 0.000000
# 4 0.000000 0.000000 0.000000 0.049878 0.000000 0.000000
# 5 0.000000 0.000000 0.000000 0.000000 0.049878 0.000000
# 6 0.000000 0.000000 0.000000 0.000000 0.000000 0.128071
#
#
# Mechanical properties :
#
#
# Convention : Reuss Voigt Hill
#
# Bulk Modulus (GPa) = 54.38408 64.44117 59.41262
# Shear Modulus (GPa) = 11.79376 14.62505 13.20940
#
# Velocity S-wave (km/s) = 2.69748 3.00386 2.85478
# Velocity P-wave (km/s) = 6.57686 7.19647 6.89363
#
# Compressibility (1/GPa) = 0.01838773
#
# Stress axis : x y z
#
# Youngs Moduli (GPa) = 26.99598 26.99598 33.21466
#
# Poissons Ratio (x) = 0.72870 0.26421
# Poissons Ratio (y) = 0.72870 0.26421
# Poissons Ratio (z) = 0.21475 0.21475
#
# Static dielectric constant tensor:
#      x y z
#    x 1.531460 0.000000 0.000000 
#    y 0.000000 1.531460 0.000000 
#    z 0.000000 0.000000 1.568260 
# 
# From -- ./inp_files/9844.got.cif
#   From: 2010.05.17/outbox.cif.g08.bks.cpg/sg191_5_cif.got.tgz:9844.got - 2010.05.20 12:20:32.
