data_PCOD9587304
_publ_section_title
;
Structure prediction by ZEFSAII (Michael W. Deem and Ramdas Pophale) SiO2 
 PCOD9587304
Probable space group: P 6/M M M
;
_chemical_formula_sum "Si O2"
_cell_formula_units_Z 84
_cell_length_a 23.037225
_cell_length_b 23.037225
_cell_length_c 11.968836
_cell_angle_alpha 90.000000
_cell_angle_beta 90.000000
_cell_angle_gamma 120.000000
_cell_volume 5501.015592
_symmetry_space_group_name_H-M "P 6/M M M"
_symmetry_group_IT_number 191
_symmetry_cell_setting 'hexagonal'
loop_
_space_group_symop_operation_xyz
x,y,z
x-y,x,z
-y,x-y,z
-x,-y,z
-x+y,-x,z
y,-x+y,z
x-y,-y,-z
-x,-x+y,-z
y,x,-z
-y,-x,-z
-x+y,y,-z
x,x-y,-z
-x,-y,-z
-x+y,-x,-z
y,-x+y,-z
x,y,-z
x-y,x,-z
-y,x-y,-z
-x+y,y,z
x,x-y,z
-y,-x,z
y,x,z
x-y,-y,z
-x,-x+y,z
loop_
_atom_site_type_symbol
_atom_site_label
_atom_site_fract_x
_atom_site_fract_y
_atom_site_fract_z
Si Si1 0.919909 0.526538 0.632839
Si Si2 0.866135 0.866135 0.136203
Si Si3 0.285530 0.077256 0.500000
Si Si4 0.624465 0.880130 0.276674
Si Si5 0.000000 0.731336 0.133476
O O1 0.907023 0.526366 0.500000
O O2 0.904746 0.452373 0.663759
O O3 0.881311 0.556531 0.700081
O O4 0.000000 0.575783 0.648324
O O5 0.865670 0.932835 0.172963
O O6 0.799007 0.799007 0.170282
O O7 0.867006 0.867006 0.000000
O O8 0.258553 0.129277 0.500000
O O9 0.332117 0.093295 0.390998
O O10 0.229950 0.000000 0.500000
O O11 0.614643 0.807322 0.252811
O O12 0.668434 0.933902 0.183006
O O13 0.000000 0.729562 0.000000
#
# Coordination Sequence:
#
# PCOD9587304 Si02
#       5
#    24  12  12  24  12
#     4   9  16  28  49  75 101 125 154 194 240 297
#     4   9  17  30  46  62  82 114 161 211 257 303
#     4  10  18  30  49  72  95 123 163 213 263 312
#     4  11  20  31  51  75 103 132 164 208 256 307
#     4  11  22  34  48  67  99 138 174 216 260 301
#
# _framework density 15.269907999999999
#
# number of rings (size 3 to 8) (size 9 to 14) (size 15 to 20)
#    0.000    2.000    4.286    1.857    0.000    2.286 
#    0.000    0.000    0.000    2.429    0.000    0.000 
#    0.000    0.000    0.000    0.000    0.000    0.000 
#
# Total GULP energy -468562.672863 kJ/mol
# GULP energy per Si atom -5578.127058 kJ/mol
# Density = 1.523515 g / cm^3
# Si number density = 15.269908 Si / 1000 Ang^3
#
#
#
# Elastic Constant Matrix: (Units=GPa)
#
#
# Indices 1 2 3 4 5 6 
#
# 1 120.5798 65.1344 29.1635 0.0000 0.0000 0.0000
# 2 65.1344 120.5798 29.1635 0.0000 0.0000 0.0000
# 3 29.1635 29.1635 49.2039 0.0000 0.0000 0.0000
# 4 0.0000 0.0000 0.0000 13.1231 0.0000 0.0000
# 5 0.0000 0.0000 0.0000 0.0000 13.1231 0.0000
# 6 0.0000 0.0000 0.0000 0.0000 0.0000 27.7227
#
#
#
# Elastic Compliance Matrix: (Units=1/GPa)
#
#
# Indices 1 2 3 4 5 6 
#
# 1 0.012326 -0.005710 -0.003921 0.000000 0.000000 0.000000
# 2 -0.005710 0.012326 -0.003921 0.000000 0.000000 0.000000
# 3 -0.003921 -0.003921 0.024972 0.000000 0.000000 0.000000
# 4 0.000000 0.000000 0.000000 0.076201 0.000000 0.000000
# 5 0.000000 0.000000 0.000000 0.000000 0.076201 0.000000
# 6 0.000000 0.000000 0.000000 0.000000 0.000000 0.036072
#
#
# Mechanical properties :
#
#
# Convention : Reuss Voigt Hill
#
# Bulk Modulus (GPa) = 44.40756 59.69847 52.05301
# Shear Modulus (GPa) = 18.33450 21.92060 20.12755
#
# Velocity S-wave (km/s) = 3.46886 3.79297 3.63453
# Velocity P-wave (km/s) = 6.72227 7.63953 7.19553
#
# Compressibility (1/GPa) = 0.02251869
#
# Stress axis : x y z
#
# Youngs Moduli (GPa) = 81.12932 81.12932 40.04460
#
# Poissons Ratio (x) = 0.46323 0.15703
# Poissons Ratio (y) = 0.46323 0.15703
# Poissons Ratio (z) = 0.31815 0.31815
#
# Static dielectric constant tensor:
#      x y z
#    x 1.504870 0.000000 0.000000 
#    y 0.000000 1.504870 0.000000 
#    z 0.000000 0.000000 1.503940 
# 
# From -- ./inp_files/2675.got.cif
#   From: 2010.05.17/outbox.cif.g08.bks.cpg/sg191_2_cif.got.tgz:2675.got - 2010.05.20 12:20:32.
