data_PCOD9587645
_publ_section_title
;
Structure prediction by ZEFSAII (Michael W. Deem and Ramdas Pophale) SiO2 
 PCOD9587645
Probable space group: P 6/M M M
;
_chemical_formula_sum "Si O2"
_cell_formula_units_Z 144
_cell_length_a 31.901929
_cell_length_b 31.901929
_cell_length_c 7.669139
_cell_angle_alpha 90.000000
_cell_angle_beta 90.000000
_cell_angle_gamma 120.000000
_cell_volume 6759.446410
_symmetry_space_group_name_H-M "P 6/M M M"
_symmetry_group_IT_number 191
_symmetry_cell_setting 'hexagonal'
loop_
_space_group_symop_operation_xyz
x,y,z
x-y,x,z
-y,x-y,z
-x,-y,z
-x+y,-x,z
y,-x+y,z
x-y,-y,-z
-x,-x+y,-z
y,x,-z
-y,-x,-z
-x+y,y,-z
x,x-y,-z
-x,-y,-z
-x+y,-x,-z
y,-x+y,-z
x,y,-z
x-y,x,-z
-y,x-y,-z
-x+y,y,z
x,x-y,z
-y,-x,z
y,x,z
x-y,-y,z
-x,-x+y,z
loop_
_atom_site_type_symbol
_atom_site_label
_atom_site_fract_x
_atom_site_fract_y
_atom_site_fract_z
Si Si1 0.057722 0.300730 0.302309
Si Si2 0.918549 0.597130 0.696491
Si Si3 0.465521 0.280811 0.202286
Si Si4 0.058217 0.575024 0.295513
Si Si5 0.849893 0.055738 0.793464
Si Si6 0.334134 0.762806 0.710957
O O1 0.077457 0.312551 0.500000
O O2 0.067456 0.351330 0.219318
O O3 0.072199 0.262808 0.226894
O O4 0.000000 0.269309 0.308946
O O5 0.940380 0.607319 0.500000
O O6 0.861063 0.569865 0.689149
O O7 0.929019 0.556495 0.778887
O O8 0.466119 0.233060 0.260763
O O9 0.520191 0.324156 0.220770
O O10 0.451184 0.275170 0.000000
O O11 0.073885 0.583821 0.500000
O O12 0.074959 0.537480 0.225292
O O13 0.000000 0.544559 0.291818
O O14 0.901588 0.098413 0.722931
O O15 0.826710 0.000000 0.724086
O O16 0.856085 0.052558 0.000000
O O17 0.334166 0.764267 0.500000
O O18 0.383891 0.767781 0.770449
O O19 0.288939 0.711062 0.764607
#
# Coordination Sequence:
#
# PCOD9587645 Si02
#       6
#    24  24  24  24  24  24
#     4   9  18  32  50  74 103 132 165 209 257 301
#     4  10  19  31  50  73  95 123 161 204 249 295
#     4  10  22  37  48  62  90 126 159 191 231 281
#     4   8  14  26  46  72  98 121 149 189 236 287
#     4   9  18  33  53  77 106 140 176 213 254 302
#     4   9  17  31  52  74  92 111 141 185 236 289
#
# _framework density 21.303519999999999
#
# number of rings (size 3 to 8) (size 9 to 14) (size 15 to 20)
#    0.000    2.833    0.000    1.667    0.000    6.333 
#    0.000    5.000    0.000    2.667    0.000    2.333 
#    0.000    0.000    0.000    4.167    0.000    4.333 
#
# Total GULP energy -801857.333805 kJ/mol
# GULP energy per Si atom -5568.453707 kJ/mol
# Density = 2.125503 g / cm^3
# Si number density = 21.303520 Si / 1000 Ang^3
#
#
#
# Elastic Constant Matrix: (Units=GPa)
#
#
# Indices 1 2 3 4 5 6 
#
# 1 109.1409 62.5070 8.9553 0.0000 0.0000 0.0000
# 2 62.5070 109.1409 8.9553 0.0000 0.0000 0.0000
# 3 8.9553 8.9553 37.2933 0.0000 0.0000 0.0000
# 4 0.0000 0.0000 0.0000 13.9704 0.0000 0.0000
# 5 0.0000 0.0000 0.0000 0.0000 13.9704 0.0000
# 6 0.0000 0.0000 0.0000 0.0000 0.0000 23.3169
#
#
#
# Elastic Compliance Matrix: (Units=1/GPa)
#
#
# Indices 1 2 3 4 5 6 
#
# 1 0.013710 -0.007734 -0.001435 0.000000 0.000000 0.000000
# 2 -0.007734 0.013710 -0.001435 0.000000 0.000000 0.000000
# 3 -0.001435 -0.001435 0.027504 0.000000 0.000000 0.000000
# 4 0.000000 0.000000 0.000000 0.071580 0.000000 0.000000
# 5 0.000000 0.000000 0.000000 0.000000 0.071580 0.000000
# 6 0.000000 0.000000 0.000000 0.000000 0.000000 0.042887
#
#
# Mechanical properties :
#
#
# Convention : Reuss Voigt Hill
#
# Bulk Modulus (GPa) = 29.66032 46.26782 37.96407
# Shear Modulus (GPa) = 18.28714 21.92870 20.10792
#
# Velocity S-wave (km/s) = 2.93304 3.21182 3.07559
# Velocity P-wave (km/s) = 5.04215 5.95986 5.52011
#
# Compressibility (1/GPa) = 0.03371508
#
# Stress axis : x y z
#
# Youngs Moduli (GPa) = 72.94146 72.94146 36.35887
#
# Poissons Ratio (x) = 0.56413 0.05217
# Poissons Ratio (y) = 0.56413 0.05217
# Poissons Ratio (z) = 0.10467 0.10467
#
# Static dielectric constant tensor:
#      x y z
#    x 1.781400 0.000000 0.000000 
#    y 0.000000 1.781400 0.000000 
#    z 0.000000 0.000000 1.853110 
# 
# From -- ./inp_files/1978.got.cif
#   From: 2010.05.17/outbox.cif.g08.bks.cpg/sg191_1_cif.got.tgz:1978.got - 2010.05.20 12:20:32.
