data_PCOD9587356
_publ_section_title
;
Structure prediction by ZEFSAII (Michael W. Deem and Ramdas Pophale) SiO2 
 PCOD9587356
Probable space group: P 6/M M M
;
_chemical_formula_sum "Si O2"
_cell_formula_units_Z 192
_cell_length_a 30.622529
_cell_length_b 30.622529
_cell_length_c 15.258227
_cell_angle_alpha 90.000000
_cell_angle_beta 90.000000
_cell_angle_gamma 120.000000
_cell_volume 12391.298316
_symmetry_space_group_name_H-M "P 6/M M M"
_symmetry_group_IT_number 191
_symmetry_cell_setting 'hexagonal'
loop_
_space_group_symop_operation_xyz
x,y,z
x-y,x,z
-y,x-y,z
-x,-y,z
-x+y,-x,z
y,-x+y,z
x-y,-y,-z
-x,-x+y,-z
y,x,-z
-y,-x,-z
-x+y,y,-z
x,x-y,-z
-x,-y,-z
-x+y,-x,-z
y,-x+y,-z
x,y,-z
x-y,x,-z
-y,x-y,-z
-x+y,y,z
x,x-y,z
-y,-x,z
y,x,z
x-y,-y,z
-x,-x+y,z
loop_
_atom_site_type_symbol
_atom_site_label
_atom_site_fract_x
_atom_site_fract_y
_atom_site_fract_z
Si Si1 0.698080 0.501818 0.401386
Si Si2 0.368517 0.235746 0.101495
Si Si3 0.149758 0.479847 0.896344
Si Si4 0.666225 0.437582 0.766672
Si Si5 0.439564 0.057403 0.221646
Si Si6 0.418693 0.938922 0.405809
Si Si7 0.758205 0.138789 0.396520
Si Si8 0.942791 0.664679 0.749474
O O1 0.676740 0.488320 0.500000
O O2 0.750147 0.500294 0.402836
O O3 0.665607 0.464406 0.324649
O O4 0.717078 0.560394 0.381858
O O5 0.362558 0.181279 0.113996
O O6 0.427262 0.277527 0.118196
O O7 0.333673 0.245175 0.167524
O O8 0.358419 0.241833 0.000000
O O9 0.195172 0.524716 0.843892
O O10 0.097072 0.469672 0.854294
O O11 0.152520 0.489177 0.000000
O O12 0.716180 0.432360 0.766710
O O13 0.616135 0.383866 0.775279
O O14 0.467202 0.076950 0.314658
O O15 0.386007 0.054463 0.233176
O O16 0.426919 0.000000 0.205617
O O17 0.391244 0.923219 0.500000
O O18 0.462432 0.924863 0.405713
O O19 0.446781 0.000000 0.405020
O O20 0.757674 0.128547 0.500000
O O21 0.812684 0.187317 0.374987
O O22 0.745282 0.091341 0.336402
O O23 0.000000 0.709548 0.741544
#
# Coordination Sequence:
#
# PCOD9587356 Si02
#       8
#    24  24  24  24  24  24  24  24
#     4   8  15  30  53  77  95 112 138 172 209 254
#     4   9  17  31  52  72  87 110 147 186 224 269
#     4  10  21  36  53  71  90 114 147 186 220 253
#     4  11  23  38  55  73  93 115 140 174 219 271
#     4   9  18  31  47  70  97 121 143 169 210 264
#     4   8  14  26  44  63  83 110 142 171 198 235
#     4   9  17  30  48  67  89 122 161 194 221 253
#     4  10  19  28  41  65  96 124 146 177 225 272
#
# _framework density 15.494745
#
# number of rings (size 3 to 8) (size 9 to 14) (size 15 to 20)
#    0.000    2.750    0.000    3.500    0.000    4.000 
#    0.000    4.375    0.000    1.500    0.000    2.625 
#    0.000    0.000    0.000    0.000    0.000    0.000 
#
# Total GULP energy -1070727.690923 kJ/mol
# GULP energy per Si atom -5576.706724 kJ/mol
# Density = 1.545948 g / cm^3
# Si number density = 15.494745 Si / 1000 Ang^3
#
#
#
# Elastic Constant Matrix: (Units=GPa)
#
#
# Indices 1 2 3 4 5 6 
#
# 1 53.9315 48.0309 46.1456 0.0000 0.0000 0.0000
# 2 48.0309 53.9315 46.1456 0.0000 0.0000 0.0000
# 3 46.1456 46.1456 92.2981 0.0000 0.0000 0.0000
# 4 0.0000 0.0000 0.0000 18.4373 0.0000 0.0000
# 5 0.0000 0.0000 0.0000 0.0000 18.4373 0.0000
# 6 0.0000 0.0000 0.0000 0.0000 0.0000 2.9503
#
#
#
# Elastic Compliance Matrix: (Units=1/GPa)
#
#
# Indices 1 2 3 4 5 6 
#
# 1 0.093694 -0.075780 -0.008957 0.000000 0.000000 0.000000
# 2 -0.075780 0.093694 -0.008957 0.000000 0.000000 0.000000
# 3 -0.008957 -0.008957 0.019790 0.000000 0.000000 0.000000
# 4 0.000000 0.000000 0.000000 0.054238 0.000000 0.000000
# 5 0.000000 0.000000 0.000000 0.000000 0.054238 0.000000
# 6 0.000000 0.000000 0.000000 0.000000 0.000000 0.338948
#
#
# Mechanical properties :
#
#
# Convention : Reuss Voigt Hill
#
# Bulk Modulus (GPa) = 50.52264 53.42284 51.97274
# Shear Modulus (GPa) = 5.89214 11.95424 8.92319
#
# Velocity S-wave (km/s) = 1.95216 2.78061 2.40236
# Velocity P-wave (km/s) = 6.14478 6.69790 6.42730
#
# Compressibility (1/GPa) = 0.01979311
#
# Stress axis : x y z
#
# Youngs Moduli (GPa) = 10.67299 10.67299 50.52939
#
# Poissons Ratio (x) = 0.80880 0.45257
# Poissons Ratio (y) = 0.80880 0.45257
# Poissons Ratio (z) = 0.09559 0.09559
#
# Static dielectric constant tensor:
#      x y z
#    x 1.520120 0.000000 0.000000 
#    y 0.000000 1.520120 0.000000 
#    z 0.000000 0.000000 1.540270 
# 
# From -- ./inp_files/5571.got.cif
#   From: 2010.05.17/outbox.cif.g08.bks.cpg/sg191_3_cif.got.tgz:5571.got - 2010.05.20 12:20:32.
