data_PCOD9587396
_publ_section_title
;
Structure prediction by ZEFSAII (Michael W. Deem and Ramdas Pophale) SiO2 
 PCOD9587396
Probable space group: P 6/M M M
;
_chemical_formula_sum "Si O2"
_cell_formula_units_Z 108
_cell_length_a 17.438066
_cell_length_b 17.438066
_cell_length_c 26.891936
_cell_angle_alpha 90.000000
_cell_angle_beta 90.000000
_cell_angle_gamma 120.000000
_cell_volume 7081.892577
_symmetry_space_group_name_H-M "P 6/M M M"
_symmetry_group_IT_number 191
_symmetry_cell_setting 'hexagonal'
loop_
_space_group_symop_operation_xyz
x,y,z
x-y,x,z
-y,x-y,z
-x,-y,z
-x+y,-x,z
y,-x+y,z
x-y,-y,-z
-x,-x+y,-z
y,x,-z
-y,-x,-z
-x+y,y,-z
x,x-y,-z
-x,-y,-z
-x+y,-x,-z
y,-x+y,-z
x,y,-z
x-y,x,-z
-y,x-y,-z
-x+y,y,z
x,x-y,z
-y,-x,z
y,x,z
x-y,-y,z
-x,-x+y,z
loop_
_atom_site_type_symbol
_atom_site_label
_atom_site_fract_x
_atom_site_fract_y
_atom_site_fract_z
Si Si1 0.484263 0.332248 0.898348
Si Si2 0.406960 0.000000 0.708921
Si Si3 0.643266 0.643266 0.440656
Si Si4 0.849511 0.515745 0.631275
Si Si5 0.176534 0.000000 0.560389
Si Si6 0.406879 0.406879 0.177735
Si Si7 0.099615 0.376186 0.000000
O O1 0.496715 0.248358 0.890716
O O2 0.578069 0.421932 0.899972
O O3 0.427435 0.341625 0.854212
O O4 0.435002 0.319405 0.950844
O O5 0.429348 0.087638 0.677799
O O6 0.500000 0.000000 0.709430
O O7 0.379268 0.000000 0.765561
O O8 0.635628 0.635628 0.500000
O O9 0.649611 0.562570 0.416102
O O10 0.733732 0.733732 0.427070
O O11 0.759553 0.519106 0.629132
O O12 0.830572 0.415286 0.634889
O O13 0.177805 0.088903 0.577487
O O14 0.172972 0.000000 0.500000
O O15 0.500000 0.500000 0.179471
O O16 0.173982 0.347963 0.000000
O O17 0.000000 0.296921 0.000000
#
# Coordination Sequence:
#
# PCOD9587396 Si02
#       7
#    24  12  12  24  12  12  12
#     4  10  19  29  44  66  95 129 166 205 246 291
#     4   8  17  33  49  67  91 120 153 192 244 293
#     4  10  20  34  50  69  97 131 161 189 229 286
#     4  10  20  34  52  72  94 122 158 200 243 287
#     4   9  16  26  42  65  92 121 153 188 225 267
#     4   9  17  30  47  65  90 123 156 195 241 290
#     4  10  19  31  47  68  95 130 168 206 249 299
#
# _framework density 15.250161
#
# number of rings (size 3 to 8) (size 9 to 14) (size 15 to 20)
#    0.000    2.444    1.111    2.556    0.000    4.000 
#    0.000    1.111    0.000    4.111    0.000    0.000 
#    0.000    0.000    0.000    0.000    0.000    8.778 
#
# Total GULP energy -601921.306977 kJ/mol
# GULP energy per Si atom -5573.345435 kJ/mol
# Density = 1.521545 g / cm^3
# Si number density = 15.250161 Si / 1000 Ang^3
#
#
#
# Elastic Constant Matrix: (Units=GPa)
#
#
# Indices 1 2 3 4 5 6 
#
# 1 97.4778 56.3446 46.6293 0.0000 0.0000 0.0000
# 2 56.3446 97.4778 46.6293 0.0000 0.0000 0.0000
# 3 46.6293 46.6293 120.4461 0.0000 0.0000 0.0000
# 4 0.0000 0.0000 0.0000 6.8293 0.0000 0.0000
# 5 0.0000 0.0000 0.0000 0.0000 6.8293 0.0000
# 6 0.0000 0.0000 0.0000 0.0000 0.0000 20.5666
#
#
#
# Elastic Compliance Matrix: (Units=1/GPa)
#
#
# Indices 1 2 3 4 5 6 
#
# 1 0.016403 -0.007908 -0.003289 0.000000 0.000000 0.000000
# 2 -0.007908 0.016403 -0.003289 0.000000 0.000000 0.000000
# 3 -0.003289 -0.003289 0.010849 0.000000 0.000000 0.000000
# 4 0.000000 0.000000 0.000000 0.146429 0.000000 0.000000
# 5 0.000000 0.000000 0.000000 0.000000 0.146429 0.000000
# 6 0.000000 0.000000 0.000000 0.000000 0.000000 0.048623
#
#
# Mechanical properties :
#
#
# Convention : Reuss Voigt Hill
#
# Bulk Modulus (GPa) = 68.10232 68.28979 68.19606
# Shear Modulus (GPa) = 11.93316 17.89825 14.91571
#
# Velocity S-wave (km/s) = 2.80034 3.42956 3.13080
# Velocity P-wave (km/s) = 7.43032 7.78200 7.60819
#
# Compressibility (1/GPa) = 0.01468379
#
# Stress axis : x y z
#
# Youngs Moduli (GPa) = 60.96422 60.96422 92.17595
#
# Poissons Ratio (x) = 0.48212 0.30314
# Poissons Ratio (y) = 0.48212 0.30314
# Poissons Ratio (z) = 0.20049 0.20049
#
# Static dielectric constant tensor:
#      x y z
#    x 1.494660 0.000000 0.000000 
#    y 0.000000 1.494660 0.000000 
#    z 0.000000 0.000000 1.509490 
# 
# From -- ./inp_files/9532.got.cif
#   From: 2010.05.17/outbox.cif.g08.bks.cpg/sg191_5_cif.got.tgz:9532.got - 2010.05.20 12:20:32.
