data_PCOD9587505
_publ_section_title
;
Structure prediction by ZEFSAII (Michael W. Deem and Ramdas Pophale) SiO2 
 PCOD9587505
Probable space group: P 6/M M M
;
_chemical_formula_sum "Si O2"
_cell_formula_units_Z 120
_cell_length_a 18.132032
_cell_length_b 18.132032
_cell_length_c 25.945342
_cell_angle_alpha 90.000000
_cell_angle_beta 90.000000
_cell_angle_gamma 120.000000
_cell_volume 7387.253205
_symmetry_space_group_name_H-M "P 6/M M M"
_symmetry_group_IT_number 191
_symmetry_cell_setting 'hexagonal'
loop_
_space_group_symop_operation_xyz
x,y,z
x-y,x,z
-y,x-y,z
-x,-y,z
-x+y,-x,z
y,-x+y,z
x-y,-y,-z
-x,-x+y,-z
y,x,-z
-y,-x,-z
-x+y,y,-z
x,x-y,-z
-x,-y,-z
-x+y,-x,-z
y,-x+y,-z
x,y,-z
x-y,x,-z
-y,x-y,-z
-x+y,y,z
x,x-y,z
-y,-x,z
y,x,z
x-y,-y,z
-x,-x+y,z
loop_
_atom_site_type_symbol
_atom_site_label
_atom_site_fract_x
_atom_site_fract_y
_atom_site_fract_z
Si Si1 0.365247 0.266506 0.698395
Si Si2 0.897790 0.268064 0.500000
Si Si3 0.261337 0.899412 0.000000
Si Si4 0.897284 0.364897 0.399189
Si Si5 0.331996 0.836130 0.211057
Si Si6 0.102107 0.634948 0.903637
O O1 0.332230 0.166115 0.699069
O O2 0.294601 0.294601 0.691535
O O3 0.433242 0.308156 0.651883
O O4 0.417561 0.307140 0.750803
O O5 0.833435 0.166566 0.500000
O O6 0.877583 0.307730 0.449933
O O7 0.000000 0.302321 0.500000
O O8 0.299964 0.878703 0.949713
O O9 0.160566 0.839435 0.000000
O O10 0.296106 0.000000 0.000000
O O11 0.863143 0.431572 0.400158
O O12 0.000000 0.422027 0.398476
O O13 0.426885 0.853769 0.220582
O O14 0.262306 0.737695 0.220270
O O15 0.326832 0.857556 0.151464
O O16 0.127365 0.563683 0.917583
O O17 0.000000 0.584287 0.896957
#
# Coordination Sequence:
#
# PCOD9587505 Si02
#       6
#    24  12  12  24  24  24
#     4  10  20  33  50  71  94 122 157 196 235 276
#     4  10  19  31  49  72  97 127 164 204 243 283
#     4  10  19  31  47  66  89 117 152 192 231 271
#     4   9  17  30  49  71  93 119 152 188 227 274
#     4  10  19  30  45  67  96 127 157 188 223 264
#     4   9  17  29  46  67  90 118 151 185 222 267
#
# _framework density 16.244198000000001
#
# number of rings (size 3 to 8) (size 9 to 14) (size 15 to 20)
#    0.000    2.400    0.000    3.200    0.000    4.400 
#    0.000    0.000    0.000   10.000    0.000    0.000 
#    0.000    4.800    0.000    6.400    0.000    0.400 
#
# Total GULP energy -668844.686216 kJ/mol
# GULP energy per Si atom -5573.705718 kJ/mol
# Density = 1.620723 g / cm^3
# Si number density = 16.244198 Si / 1000 Ang^3
#
#
#
# Elastic Constant Matrix: (Units=GPa)
#
#
# Indices 1 2 3 4 5 6 
#
# 1 82.0524 48.1963 35.3658 0.0000 0.0000 0.0000
# 2 48.1963 82.0524 35.3658 0.0000 0.0000 0.0000
# 3 35.3658 35.3658 75.7667 0.0000 0.0000 0.0000
# 4 0.0000 0.0000 0.0000 10.2633 0.0000 0.0000
# 5 0.0000 0.0000 0.0000 0.0000 10.2633 0.0000
# 6 0.0000 0.0000 0.0000 0.0000 0.0000 16.9280
#
#
#
# Elastic Compliance Matrix: (Units=1/GPa)
#
#
# Indices 1 2 3 4 5 6 
#
# 1 0.019911 -0.009626 -0.004801 0.000000 0.000000 0.000000
# 2 -0.009626 0.019911 -0.004801 0.000000 0.000000 0.000000
# 3 -0.004801 -0.004801 0.017680 0.000000 0.000000 0.000000
# 4 0.000000 0.000000 0.000000 0.097434 0.000000 0.000000
# 5 0.000000 0.000000 0.000000 0.000000 0.097434 0.000000
# 6 0.000000 0.000000 0.000000 0.000000 0.000000 0.059074
#
#
# Mechanical properties :
#
#
# Convention : Reuss Voigt Hill
#
# Bulk Modulus (GPa) = 52.50208 53.08081 52.79145
# Shear Modulus (GPa) = 14.03520 15.55383 14.79452
#
# Velocity S-wave (km/s) = 2.94260 3.09771 3.02115
# Velocity P-wave (km/s) = 6.62841 6.74849 6.68872
#
# Compressibility (1/GPa) = 0.01904686
#
# Stress axis : x y z
#
# Youngs Moduli (GPa) = 50.22428 50.22428 56.56123
#
# Poissons Ratio (x) = 0.48347 0.27153
# Poissons Ratio (y) = 0.48347 0.27153
# Poissons Ratio (z) = 0.24110 0.24110
#
# Static dielectric constant tensor:
#      x y z
#    x 1.539690 0.000000 0.000000 
#    y 0.000000 1.539690 0.000000 
#    z 0.000000 0.000000 1.548900 
# 
# From -- ./inp_files/8514.got.cif
#   From: 2010.05.17/outbox.cif.g08.bks.cpg/sg191_5_cif.got.tgz:8514.got - 2010.05.20 12:20:32.
