data_PCOD9587579
_publ_section_title
;
Structure prediction by ZEFSAII (Michael W. Deem and Ramdas Pophale) SiO2 
 PCOD9587579
Probable space group: P 6/M M M
;
_chemical_formula_sum "Si O2"
_cell_formula_units_Z 156
_cell_length_a 23.038583
_cell_length_b 23.038583
_cell_length_c 20.815883
_cell_angle_alpha 90.000000
_cell_angle_beta 90.000000
_cell_angle_gamma 120.000000
_cell_volume 9568.348789
_symmetry_space_group_name_H-M "P 6/M M M"
_symmetry_group_IT_number 191
_symmetry_cell_setting 'hexagonal'
loop_
_space_group_symop_operation_xyz
x,y,z
x-y,x,z
-y,x-y,z
-x,-y,z
-x+y,-x,z
y,-x+y,z
x-y,-y,-z
-x,-x+y,-z
y,x,-z
-y,-x,-z
-x+y,y,-z
x,x-y,-z
-x,-y,-z
-x+y,-x,-z
y,-x+y,-z
x,y,-z
x-y,x,-z
-y,x-y,-z
-x+y,y,z
x,x-y,z
-y,-x,z
y,x,z
x-y,-y,z
-x,-x+y,z
loop_
_atom_site_type_symbol
_atom_site_label
_atom_site_fract_x
_atom_site_fract_y
_atom_site_fract_z
Si Si1 0.197721 0.666088 0.376580
Si Si2 0.265464 0.875714 0.571292
Si Si3 0.525592 0.606591 0.000000
Si Si4 0.076127 0.790416 0.174399
Si Si5 0.073382 0.279686 0.673800
Si Si6 0.079578 0.660838 0.863690
Si Si7 0.196419 0.529741 0.777457
O O1 0.193834 0.596917 0.393310
O O2 0.271458 0.728543 0.391315
O O3 0.143664 0.678628 0.412231
O O4 0.188164 0.667897 0.299643
O O5 0.274143 0.904824 0.500000
O O6 0.195412 0.804589 0.571881
O O7 0.256774 0.917712 0.627548
O O8 0.548786 0.647793 0.934282
O O9 0.563807 0.563807 0.000000
O O10 0.446832 0.553169 0.000000
O O11 0.135159 0.864842 0.158285
O O12 0.080430 0.780770 0.251270
O O13 0.086321 0.733661 0.140732
O O14 0.000000 0.772823 0.161294
O O15 0.132101 0.264202 0.658536
O O16 0.000000 0.217374 0.664754
O O17 0.130559 0.657335 0.813345
O O18 0.000000 0.607500 0.851967
O O19 0.262835 0.525669 0.794947
O O20 0.206514 0.603257 0.791587
#
# Coordination Sequence:
#
# PCOD9587579 Si02
#       7
#    24  24  12  24  24  24  24
#     4   9  17  29  45  64  86 115 151 191 232 272
#     4   9  17  28  42  62  88 116 146 183 228 273
#     4   9  18  32  47  66  95 126 156 192 236 283
#     4   9  17  30  49  73  99 125 156 195 238 281
#     4   9  17  30  49  71  94 121 153 189 228 273
#     4  10  19  31  50  72  92 119 154 194 239 282
#     4  10  19  31  47  66  90 119 153 192 234 282
#
# _framework density 16.303754000000001
#
# number of rings (size 3 to 8) (size 9 to 14) (size 15 to 20)
#    0.000    2.692    0.000    2.154    0.000    5.231 
#    0.000    1.538    0.000    2.615    0.000    4.308 
#    0.000    0.000    0.000    3.846    0.000   13.077 
#
# Total GULP energy -869117.027483 kJ/mol
# GULP energy per Si atom -5571.262997 kJ/mol
# Density = 1.626665 g / cm^3
# Si number density = 16.303754 Si / 1000 Ang^3
#
#
#
# Elastic Constant Matrix: (Units=GPa)
#
#
# Indices 1 2 3 4 5 6 
#
# 1 82.3922 41.4583 29.0202 0.0000 0.0000 0.0000
# 2 41.4583 82.3922 29.0202 0.0000 0.0000 0.0000
# 3 29.0202 29.0202 25.8620 0.0000 0.0000 0.0000
# 4 0.0000 0.0000 0.0000 12.0026 0.0000 0.0000
# 5 0.0000 0.0000 0.0000 0.0000 12.0026 0.0000
# 6 0.0000 0.0000 0.0000 0.0000 0.0000 20.4669
#
#
#
# Elastic Compliance Matrix: (Units=1/GPa)
#
#
# Indices 1 2 3 4 5 6 
#
# 1 0.020730 -0.003700 -0.019109 0.000000 0.000000 0.000000
# 2 -0.003700 0.020730 -0.019109 0.000000 0.000000 0.000000
# 3 -0.019109 -0.019109 0.081552 0.000000 0.000000 0.000000
# 4 0.000000 0.000000 0.000000 0.083315 0.000000 0.000000
# 5 0.000000 0.000000 0.000000 0.000000 0.083315 0.000000
# 6 0.000000 0.000000 0.000000 0.000000 0.000000 0.048859
#
#
# Mechanical properties :
#
#
# Convention : Reuss Voigt Hill
#
# Bulk Modulus (GPa) = 25.52663 43.29376 34.41019
# Shear Modulus (GPa) = 11.48381 14.97093 13.22737
#
# Velocity S-wave (km/s) = 2.65687 3.03355 2.85144
# Velocity P-wave (km/s) = 5.01027 6.23555 5.65619
#
# Compressibility (1/GPa) = 0.03917477
#
# Stress axis : x y z
#
# Youngs Moduli (GPa) = 48.24039 48.24039 12.26210
#
# Poissons Ratio (x) = 0.17850 0.23432
# Poissons Ratio (y) = 0.17850 0.23432
# Poissons Ratio (z) = 0.92183 0.92183
#
# Static dielectric constant tensor:
#      x y z
#    x 1.540820 0.000000 0.000000 
#    y 0.000000 1.540820 0.000000 
#    z 0.000000 0.000000 1.553280 
# 
# From -- ./inp_files/7744.got.cif
#   From: 2010.05.17/outbox.cif.g08.bks.cpg/sg191_4_cif.got.tgz:7744.got - 2010.05.20 12:20:32.
