data_PCOD9587043
_publ_section_title
;
Structure prediction by ZEFSAII (Michael W. Deem and Ramdas Pophale) SiO2 
 PCOD9587043
Probable space group: P 6/M M M
;
_chemical_formula_sum "Si O2"
_cell_formula_units_Z 138
_cell_length_a 32.005739
_cell_length_b 32.005739
_cell_length_c 7.614682
_cell_angle_alpha 90.000000
_cell_angle_beta 90.000000
_cell_angle_gamma 120.000000
_cell_volume 6755.198601
_symmetry_space_group_name_H-M "P 6/M M M"
_symmetry_group_IT_number 191
_symmetry_cell_setting 'hexagonal'
loop_
_space_group_symop_operation_xyz
x,y,z
x-y,x,z
-y,x-y,z
-x,-y,z
-x+y,-x,z
y,-x+y,z
x-y,-y,-z
-x,-x+y,-z
y,x,-z
-y,-x,-z
-x+y,y,-z
x,x-y,-z
-x,-y,-z
-x+y,-x,-z
y,-x+y,-z
x,y,-z
x-y,x,-z
-y,x-y,-z
-x+y,y,z
x,x-y,z
-y,-x,z
y,x,z
x-y,-y,z
-x,-x+y,z
loop_
_atom_site_type_symbol
_atom_site_label
_atom_site_fract_x
_atom_site_fract_y
_atom_site_fract_z
Si Si1 0.424745 0.946065 0.285612
Si Si2 0.941611 0.883222 0.500000
Si Si3 0.766837 0.138967 0.209077
Si Si4 0.106259 0.893742 0.298042
Si Si5 0.144860 0.472458 0.709342
Si Si6 0.762733 0.429454 0.285078
Si Si7 0.267984 0.053607 0.289917
O O1 0.423737 0.946279 0.500000
O O2 0.468778 0.937555 0.236442
O O3 0.374015 0.903306 0.221495
O O4 0.439592 0.000000 0.228475
O O5 0.915249 0.915249 0.500000
O O6 0.922630 0.845260 0.334137
O O7 0.815597 0.184404 0.281719
O O8 0.720757 0.142972 0.261826
O O9 0.766045 0.090128 0.259342
O O10 0.769310 0.141580 0.000000
O O11 0.115615 0.884386 0.500000
O O12 0.075695 0.840417 0.219521
O O13 0.145075 0.479338 0.500000
O O14 0.193151 0.519325 0.775586
O O15 0.762803 0.429608 0.500000
O O16 0.711764 0.423528 0.229856
O O17 0.768505 0.384253 0.230297
O O18 0.261189 0.049135 0.500000
O O19 0.248547 0.000000 0.219352
#
# Coordination Sequence:
#
# PCOD9587043 Si02
#       7
#    24   6  24  12  24  24  24
#     4   8  14  26  46  73 103 132 164 207 256 304
#     4  10  17  26  44  78 124 160 182 210 262 326
#     4  11  24  39  52  71 103 142 178 215 264 315
#     4   8  16  29  49  75 106 136 176 219 255 298
#     4  10  19  31  51  76 101 130 172 218 263 313
#     4   9  16  26  43  70 101 130 161 207 267 329
#     4  10  19  34  58  83 103 133 178 224 267 311
#
# _framework density 20.428709000000001
#
# number of rings (size 3 to 8) (size 9 to 14) (size 15 to 20)
#    0.261    2.261    0.870    2.826    0.000    5.565 
#    0.000    1.739    0.000    2.087    0.000    1.217 
#    0.000    1.391    0.000    0.000    0.000    6.174 
#
# Total GULP energy -769763.382945 kJ/mol
# GULP energy per Si atom -5577.995529 kJ/mol
# Density = 2.038221 g / cm^3
# Si number density = 20.428709 Si / 1000 Ang^3
#
#
#
# Elastic Constant Matrix: (Units=GPa)
#
#
# Indices 1 2 3 4 5 6 
#
# 1 191.5385 134.8740 0.0731 0.0000 0.0000 0.0000
# 2 134.8740 191.5385 0.0731 0.0000 0.0000 0.0000
# 3 0.0731 0.0731 38.2488 0.0000 0.0000 0.0000
# 4 0.0000 0.0000 0.0000 -26.9896 0.0000 0.0000
# 5 0.0000 0.0000 0.0000 0.0000 -26.9896 0.0000
# 6 0.0000 0.0000 0.0000 0.0000 0.0000 28.3322
#
#
#
# Elastic Compliance Matrix: (Units=1/GPa)
#
#
# Indices 1 2 3 4 5 6 
#
# 1 0.010356 -0.007292 -0.000006 0.000000 0.000000 0.000000
# 2 -0.007292 0.010356 -0.000006 0.000000 0.000000 0.000000
# 3 -0.000006 -0.000006 0.026145 0.000000 0.000000 0.000000
# 4 0.000000 0.000000 0.000000 -0.037051 0.000000 0.000000
# 5 0.000000 0.000000 0.000000 0.000000 -0.037051 0.000000
# 6 0.000000 0.000000 0.000000 0.000000 0.000000 0.035295
#
#
# Mechanical properties :
#
#
# Convention : Reuss Voigt Hill
#
# Bulk Modulus (GPa) = 31.00927 76.81849 53.91388
# Shear Modulus (GPa) = 149.67443 13.95765 81.81604
#
# Velocity S-wave (km/s) = 8.56888 2.61672 6.33534
# Velocity P-wave (km/s) = 10.63547 6.84211 8.94225
#
# Compressibility (1/GPa) = 0.03224842
#
# Stress axis : x y z
#
# Youngs Moduli (GPa) = 96.56544 96.56544 38.24878
#
# Poissons Ratio (x) = 0.70416 0.00022
# Poissons Ratio (y) = 0.70416 0.00022
# Poissons Ratio (z) = 0.00057 0.00057
#
# Static dielectric constant tensor:
#      x y z
#    x 1.742370 0.000000 0.000000 
#    y 0.000000 1.742370 0.000000 
#    z 0.000000 0.000000 1.762850 
# 
# From -- ./inp_files/2045.got.cif
#   From: 2010.05.17/outbox.cif.g08.bks.cpg/sg191_2_cif.got.tgz:2045.got - 2010.05.20 12:20:32.
