data_PCOD9587272
_publ_section_title
;
Structure prediction by ZEFSAII (Michael W. Deem and Ramdas Pophale) SiO2 
 PCOD9587272
Probable space group: P 6/M M M
;
_chemical_formula_sum "Si O2"
_cell_formula_units_Z 132
_cell_length_a 24.003144
_cell_length_b 24.003144
_cell_length_c 16.835356
_cell_angle_alpha 90.000000
_cell_angle_beta 90.000000
_cell_angle_gamma 120.000000
_cell_volume 8400.191701
_symmetry_space_group_name_H-M "P 6/M M M"
_symmetry_group_IT_number 191
_symmetry_cell_setting 'hexagonal'
loop_
_space_group_symop_operation_xyz
x,y,z
x-y,x,z
-y,x-y,z
-x,-y,z
-x+y,-x,z
y,-x+y,z
x-y,-y,-z
-x,-x+y,-z
y,x,-z
-y,-x,-z
-x+y,y,-z
x,x-y,-z
-x,-y,-z
-x+y,-x,-z
y,-x+y,-z
x,y,-z
x-y,x,-z
-y,x-y,-z
-x+y,y,z
x,x-y,z
-y,-x,z
y,x,z
x-y,-y,z
-x,-x+y,z
loop_
_atom_site_type_symbol
_atom_site_label
_atom_site_fract_x
_atom_site_fract_y
_atom_site_fract_z
Si Si1 0.334264 0.539112 0.595310
Si Si2 0.926197 0.203087 0.404999
Si Si3 0.078479 0.474795 0.000000
Si Si4 0.804286 0.071659 0.095685
Si Si5 0.602858 0.679391 0.145902
Si Si6 0.409477 0.271133 0.312745
O O1 0.335764 0.535236 0.500000
O O2 0.276742 0.553483 0.615109
O O3 0.402503 0.597498 0.622485
O O4 0.314399 0.470280 0.631786
O O5 0.922024 0.212440 0.500000
O O6 0.870478 0.129523 0.387477
O O7 0.907645 0.249399 0.356278
O O8 0.000000 0.223403 0.387519
O O9 0.099279 0.451632 0.078632
O O10 0.098234 0.549117 0.000000
O O11 0.000000 0.434069 0.000000
O O12 0.871770 0.128231 0.127087
O O13 0.747292 0.085919 0.115456
O O14 0.781904 0.000000 0.125696
O O15 0.808442 0.070446 0.000000
O O16 0.633086 0.633086 0.155465
O O17 0.582801 0.692702 0.230618
O O18 0.409675 0.204838 0.297598
#
# Coordination Sequence:
#
# PCOD9587272 Si02
#       6
#    24  24  12  24  24  24
#     4   9  17  30  48  68  91 120 154 190 227 269
#     4   9  17  30  48  69  95 128 163 197 236 283
#     4   9  18  32  47  62  83 114 150 185 222 268
#     4   9  16  27  44  65  89 117 150 189 231 274
#     4  10  18  30  46  65  88 117 152 189 230 278
#     4  10  19  29  44  70  97 120 149 191 238 280
#
# _framework density 15.713927999999999
#
# number of rings (size 3 to 8) (size 9 to 14) (size 15 to 20)
#    0.000    2.636    0.909    1.818    0.000    3.636 
#    0.000    0.000    0.000    2.000    0.000    8.909 
#    0.000    0.000    0.000    6.182    0.000    8.364 
#
# Total GULP energy -735362.136134 kJ/mol
# GULP energy per Si atom -5570.925274 kJ/mol
# Density = 1.567816 g / cm^3
# Si number density = 15.713928 Si / 1000 Ang^3
#
#
#
# Elastic Constant Matrix: (Units=GPa)
#
#
# Indices 1 2 3 4 5 6 
#
# 1 93.1895 60.1710 37.9028 0.0000 0.0000 0.0000
# 2 60.1710 93.1895 37.9028 0.0000 0.0000 0.0000
# 3 37.9028 37.9028 53.2724 0.0000 0.0000 0.0000
# 4 0.0000 0.0000 0.0000 12.3472 0.0000 0.0000
# 5 0.0000 0.0000 0.0000 0.0000 12.3472 0.0000
# 6 0.0000 0.0000 0.0000 0.0000 0.0000 16.5092
#
#
#
# Elastic Compliance Matrix: (Units=1/GPa)
#
#
# Indices 1 2 3 4 5 6 
#
# 1 0.020172 -0.010114 -0.007156 0.000000 0.000000 0.000000
# 2 -0.010114 0.020172 -0.007156 0.000000 0.000000 0.000000
# 3 -0.007156 -0.007156 0.028954 0.000000 0.000000 0.000000
# 4 0.000000 0.000000 0.000000 0.080990 0.000000 0.000000
# 5 0.000000 0.000000 0.000000 0.000000 0.080990 0.000000
# 6 0.000000 0.000000 0.000000 0.000000 0.000000 0.060572
#
#
# Mechanical properties :
#
#
# Convention : Reuss Voigt Hill
#
# Bulk Modulus (GPa) = 48.90976 56.84495 52.87735
# Shear Modulus (GPa) = 14.38774 15.15238 14.77006
#
# Velocity S-wave (km/s) = 3.02918 3.10863 3.06916
# Velocity P-wave (km/s) = 6.58993 7.00986 6.80314
#
# Compressibility (1/GPa) = 0.02044582
#
# Stress axis : x y z
#
# Youngs Moduli (GPa) = 49.57381 49.57381 34.53725
#
# Poissons Ratio (x) = 0.50140 0.24715
# Poissons Ratio (y) = 0.50140 0.24715
# Poissons Ratio (z) = 0.35475 0.35475
#
# Static dielectric constant tensor:
#      x y z
#    x 1.519050 0.000000 0.000000 
#    y 0.000000 1.519050 0.000000 
#    z 0.000000 0.000000 1.501720 
# 
# From -- ./inp_files/4971.got.cif
#   From: 2010.05.17/outbox.cif.g08.bks.cpg/sg191_3_cif.got.tgz:4971.got - 2010.05.20 12:20:32.
