data_PCOD9587859
_publ_section_title
;
Structure prediction by ZEFSAII (Michael W. Deem and Ramdas Pophale) SiO2 
 PCOD9587859
Probable space group: P 6/M M M
;
_chemical_formula_sum "Si O2"
_cell_formula_units_Z 192
_cell_length_a 30.614044
_cell_length_b 30.614044
_cell_length_c 14.661168
_cell_angle_alpha 90.000000
_cell_angle_beta 90.000000
_cell_angle_gamma 120.000000
_cell_volume 11899.825861
_symmetry_space_group_name_H-M "P 6/M M M"
_symmetry_group_IT_number 191
_symmetry_cell_setting 'hexagonal'
loop_
_space_group_symop_operation_xyz
x,y,z
x-y,x,z
-y,x-y,z
-x,-y,z
-x+y,-x,z
y,-x+y,z
x-y,-y,-z
-x,-x+y,-z
y,x,-z
-y,-x,-z
-x+y,y,-z
x,x-y,-z
-x,-y,-z
-x+y,-x,-z
y,-x+y,-z
x,y,-z
x-y,x,-z
-y,x-y,-z
-x+y,y,z
x,x-y,z
-y,-x,z
y,x,z
x-y,-y,z
-x,-x+y,z
loop_
_atom_site_type_symbol
_atom_site_label
_atom_site_fract_x
_atom_site_fract_y
_atom_site_fract_z
Si Si1 0.607246 0.940495 0.891148
Si Si2 0.322676 0.214280 0.602033
Si Si3 0.142463 0.755936 0.778079
Si Si4 0.939616 0.420265 0.219590
Si Si5 0.698340 0.201808 0.723859
Si Si6 0.874749 0.489312 0.602527
Si Si7 0.334229 0.771070 0.900432
Si Si8 0.847013 0.792022 0.389665
O O1 0.622173 0.900654 0.850391
O O2 0.553167 0.927668 0.848368
O O3 0.646169 0.000000 0.868774
O O4 0.603526 0.936260 0.000000
O O5 0.335561 0.236945 0.500000
O O6 0.323138 0.161569 0.596811
O O7 0.358913 0.243932 0.684407
O O8 0.265131 0.197282 0.625414
O O9 0.185956 0.814045 0.802086
O O10 0.173338 0.727725 0.754986
O O11 0.923105 0.461553 0.192238
O O12 0.915782 0.398209 0.318330
O O13 0.000000 0.451655 0.227152
O O14 0.740452 0.259549 0.705756
O O15 0.664199 0.174649 0.637266
O O16 0.664842 0.198931 0.810889
O O17 0.889632 0.509803 0.500000
O O18 0.865364 0.432682 0.601935
O O19 0.380205 0.760409 0.896616
O O20 0.281184 0.718817 0.898214
O O21 0.336806 0.795126 0.000000
O O22 0.851518 0.796727 0.500000
O O23 0.899274 0.798548 0.354102
O O24 0.831324 0.831324 0.354633
#
# Coordination Sequence:
#
# PCOD9587859 Si02
#       8
#    24  24  24  24  24  24  24  24
#     4  10  21  37  55  75 101 131 162 199 243 288
#     4   8  15  28  45  65  89 118 155 198 239 278
#     4  10  20  34  51  72  98 130 163 194 236 290
#     4   9  18  35  57  77  98 124 158 201 244 290
#     4  10  20  33  48  69  97 128 160 191 234 291
#     4  10  20  34  52  73  98 127 160 199 241 286
#     4   9  17  30  49  71  94 120 152 193 239 284
#     4   8  13  22  38  61  89 121 156 194 235 274
#
# _framework density 16.134689999999999
#
# number of rings (size 3 to 8) (size 9 to 14) (size 15 to 20)
#    0.000    2.750    1.250    1.250    0.000    3.000 
#    0.000    5.000    0.000    0.375    0.000    0.875 
#    0.000    0.000    0.000    0.000    0.000    0.000 
#
# Total GULP energy -1068810.367337 kJ/mol
# GULP energy per Si atom -5566.720663 kJ/mol
# Density = 1.609797 g / cm^3
# Si number density = 16.134690 Si / 1000 Ang^3
#
#
#
# Elastic Constant Matrix: (Units=GPa)
#
#
# Indices 1 2 3 4 5 6 
#
# 1 54.8623 16.9111 37.0785 0.0000 0.0000 0.0000
# 2 16.9111 54.8623 37.0785 0.0000 0.0000 0.0000
# 3 37.0785 37.0785 80.1556 0.0000 0.0000 0.0000
# 4 0.0000 0.0000 0.0000 20.5285 0.0000 0.0000
# 5 0.0000 0.0000 0.0000 0.0000 20.5285 0.0000
# 6 0.0000 0.0000 0.0000 0.0000 0.0000 18.9756
#
#
#
# Elastic Compliance Matrix: (Units=1/GPa)
#
#
# Indices 1 2 3 4 5 6 
#
# 1 0.026519 0.000169 -0.012345 0.000000 0.000000 0.000000
# 2 0.000169 0.026519 -0.012345 0.000000 0.000000 0.000000
# 3 -0.012345 -0.012345 0.023897 0.000000 0.000000 0.000000
# 4 0.000000 0.000000 0.000000 0.048713 0.000000 0.000000
# 5 0.000000 0.000000 0.000000 0.000000 0.048713 0.000000
# 6 0.000000 0.000000 0.000000 0.000000 0.000000 0.052699
#
#
# Mechanical properties :
#
#
# Convention : Reuss Voigt Hill
#
# Bulk Modulus (GPa) = 35.85281 41.33515 38.59398
# Shear Modulus (GPa) = 17.51924 18.59398 18.05661
#
# Velocity S-wave (km/s) = 3.29874 3.39842 3.34895
# Velocity P-wave (km/s) = 6.06450 6.40885 6.23905
#
# Compressibility (1/GPa) = 0.02789182
#
# Stress axis : x y z
#
# Youngs Moduli (GPa) = 37.70896 37.70896 41.84580
#
# Poissons Ratio (x) = -0.00638 0.51660
# Poissons Ratio (y) = -0.00638 0.51660
# Poissons Ratio (z) = 0.46553 0.46553
#
# Static dielectric constant tensor:
#      x y z
#    x 1.559480 0.000000 0.000000 
#    y 0.000000 1.559480 0.000000 
#    z 0.000000 0.000000 1.539820 
# 
# From -- ./inp_files/5561.got.cif
#   From: 2010.05.17/outbox.cif.g08.bks.cpg/sg191_3_cif.got.tgz:5561.got - 2010.05.20 12:20:32.
