data_PCOD9587950
_publ_section_title
;
Structure prediction by ZEFSAII (Michael W. Deem and Ramdas Pophale) SiO2 
 PCOD9587950
Probable space group: P 6/M M M
;
_chemical_formula_sum "Si O2"
_cell_formula_units_Z 102
_cell_length_a 27.881358
_cell_length_b 27.881358
_cell_length_c 8.105727
_cell_angle_alpha 90.000000
_cell_angle_beta 90.000000
_cell_angle_gamma 120.000000
_cell_volume 5456.955975
_symmetry_space_group_name_H-M "P 6/M M M"
_symmetry_group_IT_number 191
_symmetry_cell_setting 'hexagonal'
loop_
_space_group_symop_operation_xyz
x,y,z
x-y,x,z
-y,x-y,z
-x,-y,z
-x+y,-x,z
y,-x+y,z
x-y,-y,-z
-x,-x+y,-z
y,x,-z
-y,-x,-z
-x+y,y,-z
x,x-y,-z
-x,-y,-z
-x+y,-x,-z
y,-x+y,-z
x,y,-z
x-y,x,-z
-y,x-y,-z
-x+y,y,z
x,x-y,z
-y,-x,z
y,x,z
x-y,-y,z
-x,-x+y,z
loop_
_atom_site_type_symbol
_atom_site_label
_atom_site_fract_x
_atom_site_fract_y
_atom_site_fract_z
Si Si1 0.442258 0.000000 0.685160
Si Si2 0.189764 0.189764 0.813214
Si Si3 0.000000 0.883447 0.500000
Si Si4 0.879494 0.385596 0.193600
Si Si5 0.425547 0.266741 0.697489
Si Si6 0.305295 0.094830 0.691012
O O1 0.459543 0.056720 0.775707
O O2 0.500000 0.000000 0.672951
O O3 0.421916 0.000000 0.500000
O O4 0.150534 0.150534 0.664600
O O5 0.198505 0.251051 0.788771
O O6 0.169513 0.169513 0.000000
O O7 0.943752 0.887503 0.500000
O O8 0.871018 0.435509 0.262457
O O9 0.845508 0.324772 0.266131
O O10 0.869219 0.382786 0.000000
O O11 0.419306 0.261279 0.500000
O O12 0.432182 0.216091 0.762209
O O13 0.365740 0.257084 0.755813
O O14 0.298115 0.075225 0.500000
O O15 0.308219 0.154110 0.689509
#
# Coordination Sequence:
#
# PCOD9587950 Si02
#       6
#    12  12   6  24  24  24
#     4   9  17  30  49  71  95 127 167 208 252 305
#     4  12  24  38  64  97 123 156 201 245 298 361
#     4  12  27  48  70  92 124 164 207 258 310 356
#     4  10  20  33  50  75 109 147 184 226 277 333
#     4   9  19  35  56  80 107 143 186 233 285 339
#     4   9  18  36  58  80 111 147 182 229 290 351
#
# _framework density 18.691739999999999
#
# number of rings (size 3 to 8) (size 9 to 14) (size 15 to 20)
#    0.000    2.235    1.176    3.235    0.000    7.059 
#    0.000    3.529    0.000    1.176    0.000    0.000 
#    0.000    0.000    0.000    0.000    0.000    0.000 
#
# Total GULP energy -568391.547149 kJ/mol
# GULP energy per Si atom -5572.466149 kJ/mol
# Density = 1.864920 g / cm^3
# Si number density = 18.691740 Si / 1000 Ang^3
#
#
#
# Elastic Constant Matrix: (Units=GPa)
#
#
# Indices 1 2 3 4 5 6 
#
# 1 104.7821 47.2872 25.0296 0.0000 0.0000 0.0000
# 2 47.2872 104.7821 25.0296 0.0000 0.0000 0.0000
# 3 25.0296 25.0296 64.1565 0.0000 0.0000 0.0000
# 4 0.0000 0.0000 0.0000 18.2128 0.0000 0.0000
# 5 0.0000 0.0000 0.0000 0.0000 18.2128 0.0000
# 6 0.0000 0.0000 0.0000 0.0000 0.0000 28.7475
#
#
#
# Elastic Compliance Matrix: (Units=1/GPa)
#
#
# Indices 1 2 3 4 5 6 
#
# 1 0.012469 -0.004924 -0.002944 0.000000 0.000000 0.000000
# 2 -0.004924 0.012469 -0.002944 0.000000 0.000000 0.000000
# 3 -0.002944 -0.002944 0.017884 0.000000 0.000000 0.000000
# 4 0.000000 0.000000 0.000000 0.054906 0.000000 0.000000
# 5 0.000000 0.000000 0.000000 0.000000 0.054906 0.000000
# 6 0.000000 0.000000 0.000000 0.000000 0.000000 0.034786
#
#
# Mechanical properties :
#
#
# Convention : Reuss Voigt Hill
#
# Bulk Modulus (GPa) = 47.17126 52.04595 49.60860
# Shear Modulus (GPa) = 23.13655 24.79292 23.96474
#
# Velocity S-wave (km/s) = 3.52205 3.64594 3.58453
# Velocity P-wave (km/s) = 6.46769 6.75490 6.61285
#
# Compressibility (1/GPa) = 0.02119935
#
# Stress axis : x y z
#
# Youngs Moduli (GPa) = 80.19970 80.19970 55.91711
#
# Poissons Ratio (x) = 0.39490 0.16459
# Poissons Ratio (y) = 0.39490 0.16459
# Poissons Ratio (z) = 0.23607 0.23607
#
# Static dielectric constant tensor:
#      x y z
#    x 1.661790 0.000000 0.000000 
#    y 0.000000 1.661790 0.000000 
#    z 0.000000 0.000000 1.676100 
# 
# From -- ./inp_files/1479.got.cif
#   From: 2010.05.17/outbox.cif.g08.bks.cpg/sg191_1_cif.got.tgz:1479.got - 2010.05.20 12:20:32.
