data_PCOD9587110
_publ_section_title
;
Structure prediction by ZEFSAII (Michael W. Deem and Ramdas Pophale) SiO2 
 PCOD9587110
Probable space group: P 6/M M M
;
_chemical_formula_sum "Si O2"
_cell_formula_units_Z 168
_cell_length_a 32.521049
_cell_length_b 32.521049
_cell_length_c 14.555176
_cell_angle_alpha 90.000000
_cell_angle_beta 90.000000
_cell_angle_gamma 120.000000
_cell_volume 13331.443747
_symmetry_space_group_name_H-M "P 6/M M M"
_symmetry_group_IT_number 191
_symmetry_cell_setting 'hexagonal'
loop_
_space_group_symop_operation_xyz
x,y,z
x-y,x,z
-y,x-y,z
-x,-y,z
-x+y,-x,z
y,-x+y,z
x-y,-y,-z
-x,-x+y,-z
y,x,-z
-y,-x,-z
-x+y,y,-z
x,x-y,-z
-x,-y,-z
-x+y,-x,-z
y,-x+y,-z
x,y,-z
x-y,x,-z
-y,x-y,-z
-x+y,y,z
x,x-y,z
-y,-x,z
y,x,z
x-y,-y,z
-x,-x+y,z
loop_
_atom_site_type_symbol
_atom_site_label
_atom_site_fract_x
_atom_site_fract_y
_atom_site_fract_z
Si Si1 0.852784 0.799333 0.391259
Si Si2 0.861103 0.624979 0.390221
Si Si3 0.434450 0.266957 0.101716
Si Si4 0.712281 0.767468 0.287097
Si Si5 0.526279 0.713265 0.706849
Si Si6 0.677954 0.887977 0.893898
Si Si7 0.666219 0.236452 0.609644
O O1 0.844676 0.787195 0.500000
O O2 0.905550 0.811100 0.368928
O O3 0.841574 0.841574 0.375391
O O4 0.814585 0.754487 0.333998
O O5 0.866445 0.627830 0.500000
O O6 0.816559 0.633117 0.367036
O O7 0.908134 0.664462 0.340283
O O8 0.846038 0.572519 0.354134
O O9 0.438402 0.219201 0.100203
O O10 0.463892 0.296492 0.189351
O O11 0.378437 0.247185 0.115735
O O12 0.448403 0.288927 0.000000
O O13 0.727519 0.727519 0.294334
O O14 0.705650 0.778158 0.181971
O O15 0.524429 0.762215 0.708471
O O16 0.476713 0.675172 0.662839
O O17 0.683971 0.841986 0.877348
O O18 0.691016 0.902708 0.000000
O O19 0.666608 0.228756 0.500000
O O20 0.617267 0.234533 0.633421
O O21 0.711025 0.288976 0.628280
#
# Coordination Sequence:
#
# PCOD9587110 Si02
#       7
#    24  24  24  24  24  24  24
#     4   9  17  28  41  56  74  98 128 159 190 228
#     4  10  18  27  40  56  75 100 131 167 200 226
#     4   8  13  22  38  57  73  92 122 159 194 227
#     4  11  20  27  37  54  79 108 132 154 186 232
#     4   9  15  24  39  58  77  97 128 167 200 229
#     4   9  16  27  42  56  72  98 131 162 191 225
#     4   9  16  25  37  55  81 111 138 162 193 236
#
# _framework density 12.601786000000001
#
# number of rings (size 3 to 8) (size 9 to 14) (size 15 to 20)
#    0.000    2.714    1.429    3.143    0.000    4.571 
#    0.000    0.000    0.000    0.571    0.000    1.000 
#    0.000    1.714    0.000    3.000    0.000    4.571 
#
# Total GULP energy -935275.628286 kJ/mol
# GULP energy per Si atom -5567.116835 kJ/mol
# Density = 1.257310 g / cm^3
# Si number density = 12.601786 Si / 1000 Ang^3
#
#
#
# Elastic Constant Matrix: (Units=GPa)
#
#
# Indices 1 2 3 4 5 6 
#
# 1 74.7823 42.8522 46.4810 0.0000 0.0000 0.0000
# 2 42.8522 74.7823 46.4810 0.0000 0.0000 0.0000
# 3 46.4810 46.4810 76.9125 0.0000 0.0000 0.0000
# 4 0.0000 0.0000 0.0000 16.0250 0.0000 0.0000
# 5 0.0000 0.0000 0.0000 0.0000 16.0250 0.0000
# 6 0.0000 0.0000 0.0000 0.0000 0.0000 15.9651
#
#
#
# Elastic Compliance Matrix: (Units=1/GPa)
#
#
# Indices 1 2 3 4 5 6 
#
# 1 0.023795 -0.007523 -0.009834 0.000000 0.000000 0.000000
# 2 -0.007523 0.023795 -0.009834 0.000000 0.000000 0.000000
# 3 -0.009834 -0.009834 0.024888 0.000000 0.000000 0.000000
# 4 0.000000 0.000000 0.000000 0.062402 0.000000 0.000000
# 5 0.000000 0.000000 0.000000 0.000000 0.062402 0.000000
# 6 0.000000 0.000000 0.000000 0.000000 0.000000 0.062637
#
#
# Mechanical properties :
#
#
# Convention : Reuss Voigt Hill
#
# Bulk Modulus (GPa) = 55.25891 55.34508 55.30199
# Shear Modulus (GPa) = 15.60871 15.64723 15.62797
#
# Velocity S-wave (km/s) = 3.52321 3.52755 3.52538
# Velocity P-wave (km/s) = 7.77791 7.78494 7.78143
#
# Compressibility (1/GPa) = 0.01809663
#
# Stress axis : x y z
#
# Youngs Moduli (GPa) = 42.02508 42.02508 40.18034
#
# Poissons Ratio (x) = 0.31616 0.39513
# Poissons Ratio (y) = 0.31616 0.39513
# Poissons Ratio (z) = 0.41327 0.41327
#
# Static dielectric constant tensor:
#      x y z
#    x 1.394170 0.000000 0.000000 
#    y 0.000000 1.394170 0.000000 
#    z 0.000000 0.000000 1.433350 
# 
# From -- ./inp_files/5443.got.cif
#   From: 2010.05.17/outbox.cif.g08.bks.cpg/sg191_3_cif.got.tgz:5443.got - 2010.05.20 12:20:32.
