data_PCOD9587915
_publ_section_title
;
Structure prediction by ZEFSAII (Michael W. Deem and Ramdas Pophale) SiO2 
 PCOD9587915
Probable space group: P 6/M M M
;
_chemical_formula_sum "Si O2"
_cell_formula_units_Z 168
_cell_length_a 21.160494
_cell_length_b 21.160494
_cell_length_c 29.078987
_cell_angle_alpha 90.000000
_cell_angle_beta 90.000000
_cell_angle_gamma 120.000000
_cell_volume 11276.167269
_symmetry_space_group_name_H-M "P 6/M M M"
_symmetry_group_IT_number 191
_symmetry_cell_setting 'hexagonal'
loop_
_space_group_symop_operation_xyz
x,y,z
x-y,x,z
-y,x-y,z
-x,-y,z
-x+y,-x,z
y,-x+y,z
x-y,-y,-z
-x,-x+y,-z
y,x,-z
-y,-x,-z
-x+y,y,-z
x,x-y,-z
-x,-y,-z
-x+y,-x,-z
y,-x+y,-z
x,y,-z
x-y,x,-z
-y,x-y,-z
-x+y,y,z
x,x-y,z
-y,-x,z
y,x,z
x-y,-y,z
-x,-x+y,z
loop_
_atom_site_type_symbol
_atom_site_label
_atom_site_fract_x
_atom_site_fract_y
_atom_site_fract_z
Si Si1 0.516793 0.182846 0.776141
Si Si2 0.295933 0.915986 0.448660
Si Si3 0.813712 0.335213 0.600817
Si Si4 0.696044 0.777141 0.354648
Si Si5 0.534989 0.916746 0.137536
Si Si6 0.666975 0.483480 0.053346
Si Si7 0.357978 0.914623 0.313084
O O1 0.600668 0.201336 0.780539
O O2 0.513286 0.256643 0.770621
O O3 0.473344 0.136989 0.821048
O O4 0.481877 0.128826 0.732824
O O5 0.265192 0.906666 0.500000
O O6 0.322206 0.858334 0.439134
O O7 0.242674 0.907199 0.406808
O O8 0.361446 0.000000 0.444739
O O9 0.794053 0.397027 0.589450
O O10 0.741412 0.258589 0.611860
O O11 0.868980 0.362440 0.644085
O O12 0.713534 0.856767 0.342668
O O13 0.762639 0.762639 0.351531
O O14 0.631311 0.717689 0.322864
O O15 0.460000 0.919999 0.139075
O O16 0.533253 0.879146 0.089232
O O17 0.599693 0.000000 0.142377
O O18 0.742054 0.484108 0.062563
O O19 0.598804 0.401197 0.058986
O O20 0.666817 0.503964 0.000000
O O21 0.420200 0.000000 0.312271
#
# Coordination Sequence:
#
# PCOD9587915 Si02
#       7
#    24  24  24  24  24  24  24
#     4  11  21  32  46  63  86 113 141 174 213 260
#     4   9  18  32  50  69  85 105 137 178 217 247
#     4  11  22  34  47  63  86 114 142 171 205 250
#     4   9  17  30  48  69  91 113 139 170 205 246
#     4   9  18  30  42  58  80 107 140 177 215 253
#     4   9  16  26  41  60  82 108 139 176 218 264
#     4  10  20  33  50  68  84 107 139 176 215 250
#
# _framework density 14.898680000000001
#
# number of rings (size 3 to 8) (size 9 to 14) (size 15 to 20)
#    0.000    2.286    0.000    5.571    0.000    4.857 
#    0.000    5.000    0.000    1.000    0.000    0.000 
#    0.000    0.000    0.000    3.571    0.000    0.000 
#
# Total GULP energy -936544.771617 kJ/mol
# GULP energy per Si atom -5574.671260 kJ/mol
# Density = 1.486477 g / cm^3
# Si number density = 14.898680 Si / 1000 Ang^3
#
#
#
# Elastic Constant Matrix: (Units=GPa)
#
#
# Indices 1 2 3 4 5 6 
#
# 1 67.4000 48.1188 11.3848 0.0000 0.0000 0.0000
# 2 48.1188 67.4000 11.3848 0.0000 0.0000 0.0000
# 3 11.3848 11.3848 43.2656 0.0000 0.0000 0.0000
# 4 0.0000 0.0000 0.0000 10.2498 0.0000 0.0000
# 5 0.0000 0.0000 0.0000 0.0000 10.2498 0.0000
# 6 0.0000 0.0000 0.0000 0.0000 0.0000 9.6406
#
#
#
# Elastic Compliance Matrix: (Units=1/GPa)
#
#
# Indices 1 2 3 4 5 6 
#
# 1 0.030497 -0.021367 -0.002402 0.000000 0.000000 0.000000
# 2 -0.021367 0.030497 -0.002402 0.000000 0.000000 0.000000
# 3 -0.002402 -0.002402 0.024377 0.000000 0.000000 0.000000
# 4 0.000000 0.000000 0.000000 0.097563 0.000000 0.000000
# 5 0.000000 0.000000 0.000000 0.000000 0.097563 0.000000
# 6 0.000000 0.000000 0.000000 0.000000 0.000000 0.103728
#
#
# Mechanical properties :
#
#
# Convention : Reuss Voigt Hill
#
# Bulk Modulus (GPa) = 30.27753 35.53804 32.90779
# Shear Modulus (GPa) = 11.17122 13.17318 12.17220
#
# Velocity S-wave (km/s) = 2.74124 2.97675 2.86142
# Velocity P-wave (km/s) = 5.51231 5.97659 5.74914
#
# Compressibility (1/GPa) = 0.03302779
#
# Stress axis : x y z
#
# Youngs Moduli (GPa) = 32.78999 32.78999 41.02154
#
# Poissons Ratio (x) = 0.70062 0.09855
# Poissons Ratio (y) = 0.70062 0.09855
# Poissons Ratio (z) = 0.07878 0.07878
#
# Static dielectric constant tensor:
#      x y z
#    x 1.487600 0.000000 0.000000 
#    y 0.000000 1.487600 0.000000 
#    z 0.000000 0.000000 1.507520 
# 
# From -- ./inp_files/10027.got.cif
#   From: 2010.05.17/outbox.cif.g08.bks.cpg/sg191_6_cif.got.tgz:10027.got - 2010.05.20 12:20:32.
