data_PCOD9587603
_publ_section_title
;
Structure prediction by ZEFSAII (Michael W. Deem and Ramdas Pophale) SiO2 
 PCOD9587603
Probable space group: P 6/M M M
;
_chemical_formula_sum "Si O2"
_cell_formula_units_Z 120
_cell_length_a 17.753652
_cell_length_b 17.753652
_cell_length_c 28.319871
_cell_angle_alpha 90.000000
_cell_angle_beta 90.000000
_cell_angle_gamma 120.000000
_cell_volume 7730.317079
_symmetry_space_group_name_H-M "P 6/M M M"
_symmetry_group_IT_number 191
_symmetry_cell_setting 'hexagonal'
loop_
_space_group_symop_operation_xyz
x,y,z
x-y,x,z
-y,x-y,z
-x,-y,z
-x+y,-x,z
y,-x+y,z
x-y,-y,-z
-x,-x+y,-z
y,x,-z
-y,-x,-z
-x+y,y,-z
x,x-y,-z
-x,-y,-z
-x+y,-x,-z
y,-x+y,-z
x,y,-z
x-y,x,-z
-y,x-y,-z
-x+y,y,z
x,x-y,z
-y,-x,z
y,x,z
x-y,-y,z
-x,-x+y,z
loop_
_atom_site_type_symbol
_atom_site_label
_atom_site_fract_x
_atom_site_fract_y
_atom_site_fract_z
Si Si1 0.372238 0.268616 0.906404
Si Si2 0.626191 0.897952 0.281484
Si Si3 0.591253 0.000000 0.553762
Si Si4 0.667843 0.513322 0.375978
Si Si5 0.362499 0.467438 0.000000
Si Si6 0.532554 0.895084 0.187201
O O1 0.330016 0.165008 0.906400
O O2 0.305019 0.305019 0.906434
O O3 0.432372 0.306419 0.860105
O O4 0.432407 0.306396 0.952696
O O5 0.662332 0.831166 0.284995
O O6 0.564855 0.881046 0.326794
O O7 0.567086 0.873581 0.234547
O O8 0.697282 0.000000 0.279191
O O9 0.655209 0.085803 0.583288
O O10 0.500000 0.000000 0.552131
O O11 0.619158 0.000000 0.500000
O O12 0.751038 0.502075 0.384628
O O13 0.579652 0.420349 0.373331
O O14 0.420762 0.420762 0.000000
O O15 0.429826 0.570175 0.000000
O O16 0.429746 0.859492 0.187111
O O17 0.579268 0.000000 0.187230
#
# Coordination Sequence:
#
# PCOD9587603 Si02
#       6
#    24  24  12  24  12  24
#     4  10  19  31  48  70  94 124 162 202 240 281
#     4  10  19  31  49  72  97 127 161 198 238 284
#     4   9  18  32  48  66  92 126 159 192 234 280
#     4  10  19  31  48  70  96 126 161 199 239 282
#     4   9  17  30  49  68  86 112 150 193 237 286
#     4   9  17  29  47  69  92 119 153 191 234 284
#
# _framework density 15.523296
#
# number of rings (size 3 to 8) (size 9 to 14) (size 15 to 20)
#    0.000    2.400    1.000    2.300    0.000    3.600 
#    0.000    0.000    0.000   12.400    0.000    0.000 
#    0.000    7.200    0.000    0.000    0.000    9.900 
#
# Total GULP energy -668579.982417 kJ/mol
# GULP energy per Si atom -5571.499853 kJ/mol
# Density = 1.548796 g / cm^3
# Si number density = 15.523296 Si / 1000 Ang^3
#
#
#
# Elastic Constant Matrix: (Units=GPa)
#
#
# Indices 1 2 3 4 5 6 
#
# 1 92.3697 56.9703 45.1913 0.0000 0.0000 0.0000
# 2 56.9703 92.3697 45.1913 0.0000 0.0000 0.0000
# 3 45.1913 45.1913 144.1694 0.0000 0.0000 0.0000
# 4 0.0000 0.0000 0.0000 -0.0968 0.0000 0.0000
# 5 0.0000 0.0000 0.0000 0.0000 -0.0968 0.0000
# 6 0.0000 0.0000 0.0000 0.0000 0.0000 17.6997
#
#
#
# Elastic Compliance Matrix: (Units=1/GPa)
#
#
# Indices 1 2 3 4 5 6 
#
# 1 0.018256 -0.009993 -0.002590 0.000000 0.000000 0.000000
# 2 -0.009993 0.018256 -0.002590 0.000000 0.000000 0.000000
# 3 -0.002590 -0.002590 0.008560 0.000000 0.000000 0.000000
# 4 0.000000 0.000000 0.000000-10.329478 0.000002 0.000000
# 5 0.000000 0.000000 0.000000 0.000002-10.329480 0.000000
# 6 0.000000 0.000000 0.000000 0.000000 0.000000 0.056498
#
#
# Mechanical properties :
#
#
# Convention : Reuss Voigt Hill
#
# Bulk Modulus (GPa) = 67.90515 69.29052 68.59783
# Shear Modulus (GPa) = -0.24364 15.60495 7.68066
#
# Velocity S-wave (km/s) = -0.39660 3.17402 2.22678
# Velocity P-wave (km/s) = 6.60525 7.62666 7.13426
#
# Compressibility (1/GPa) = 0.01472642
#
# Stress axis : x y z
#
# Youngs Moduli (GPa) = 54.77515 54.77515 116.81903
#
# Poissons Ratio (x) = 0.54735 0.30261
# Poissons Ratio (y) = 0.54735 0.30261
# Poissons Ratio (z) = 0.14189 0.14189
#
# Static dielectric constant tensor:
#      x y z
#    x 1.511320 0.000000 0.000000 
#    y 0.000000 1.511320 0.000000 
#    z 0.000000 0.000000 1.519440 
# 
# From -- ./inp_files/8564.got.cif
#   From: 2010.05.17/outbox.cif.g08.bks.cpg/sg191_5_cif.got.tgz:8564.got - 2010.05.20 12:20:32.
