data_PCOD9587800
_publ_section_title
;
Structure prediction by ZEFSAII (Michael W. Deem and Ramdas Pophale) SiO2 
 PCOD9587800
Probable space group: P 6/M M M
;
_chemical_formula_sum "Si O2"
_cell_formula_units_Z 108
_cell_length_a 22.188886
_cell_length_b 22.188886
_cell_length_c 17.885169
_cell_angle_alpha 90.000000
_cell_angle_beta 90.000000
_cell_angle_gamma 120.000000
_cell_volume 7625.962717
_symmetry_space_group_name_H-M "P 6/M M M"
_symmetry_group_IT_number 191
_symmetry_cell_setting 'hexagonal'
loop_
_space_group_symop_operation_xyz
x,y,z
x-y,x,z
-y,x-y,z
-x,-y,z
-x+y,-x,z
y,-x+y,z
x-y,-y,-z
-x,-x+y,-z
y,x,-z
-y,-x,-z
-x+y,y,-z
x,x-y,-z
-x,-y,-z
-x+y,-x,-z
y,-x+y,-z
x,y,-z
x-y,x,-z
-y,x-y,-z
-x+y,y,z
x,x-y,z
-y,-x,z
y,x,z
x-y,-y,z
-x,-x+y,z
loop_
_atom_site_type_symbol
_atom_site_label
_atom_site_fract_x
_atom_site_fract_y
_atom_site_fract_z
Si Si1 0.708579 0.557709 0.356492
Si Si2 0.808237 0.332850 0.088296
Si Si3 0.081960 0.468862 0.500000
Si Si4 0.386917 0.918752 0.786370
Si Si5 0.078747 0.288517 0.588238
O O1 0.767017 0.534033 0.357864
O O2 0.656946 0.533415 0.427463
O O3 0.662984 0.538920 0.282036
O O4 0.751369 0.641053 0.365429
O O5 0.792341 0.396171 0.099463
O O6 0.740458 0.259543 0.108589
O O7 0.875219 0.351392 0.138531
O O8 0.821925 0.331274 0.000000
O O9 0.080157 0.540079 0.500000
O O10 0.000000 0.407048 0.500000
O O11 0.459560 0.919119 0.777463
O O12 0.408129 0.000000 0.787536
O O13 0.083059 0.307958 0.500000
O O14 0.128124 0.256247 0.598220
O O15 0.000000 0.237634 0.607433
#
# Coordination Sequence:
#
# PCOD9587800 Si02
#       5
#    24  24  12  24  24
#     4  11  20  31  46  63  84 111 144 180 216 256
#     4   9  17  30  48  68  89 114 144 177 214 258
#     4  11  21  32  48  66  86 113 143 179 222 268
#     4  10  20  32  46  65  88 113 142 179 222 265
#     4   9  16  26  41  60  80 103 132 166 201 237
#
# _framework density 14.162146999999999
#
# number of rings (size 3 to 8) (size 9 to 14) (size 15 to 20)
#    0.000    2.111    1.111    3.889    0.000    3.111 
#    0.000    2.222    0.000    7.778    0.000    1.556 
#    0.000    0.000    0.000    0.000    0.000    0.000 
#
# Total GULP energy -601735.955669 kJ/mol
# GULP energy per Si atom -5571.629219 kJ/mol
# Density = 1.412991 g / cm^3
# Si number density = 14.162147 Si / 1000 Ang^3
#
#
#
# Elastic Constant Matrix: (Units=GPa)
#
#
# Indices 1 2 3 4 5 6 
#
# 1 84.4556 39.0345 41.5599 0.0000 0.0000 0.0000
# 2 39.0345 84.4556 41.5599 0.0000 0.0000 0.0000
# 3 41.5599 41.5599 74.5150 0.0000 0.0000 0.0000
# 4 0.0000 0.0000 0.0000 17.1531 0.0000 0.0000
# 5 0.0000 0.0000 0.0000 0.0000 17.1531 0.0000
# 6 0.0000 0.0000 0.0000 0.0000 0.0000 22.7106
#
#
#
# Elastic Compliance Matrix: (Units=1/GPa)
#
#
# Indices 1 2 3 4 5 6 
#
# 1 0.017491 -0.004526 -0.007231 0.000000 0.000000 0.000000
# 2 -0.004526 0.017491 -0.007231 0.000000 0.000000 0.000000
# 3 -0.007231 -0.007231 0.021486 0.000000 0.000000 0.000000
# 4 0.000000 0.000000 0.000000 0.058299 0.000000 0.000000
# 5 0.000000 0.000000 0.000000 0.000000 0.058299 0.000000
# 6 0.000000 0.000000 0.000000 0.000000 0.000000 0.044032
#
#
# Mechanical properties :
#
#
# Convention : Reuss Voigt Hill
#
# Bulk Modulus (GPa) = 54.07777 54.19273 54.13525
# Shear Modulus (GPa) = 19.13977 19.48815 19.31396
#
# Velocity S-wave (km/s) = 3.68023 3.71357 3.69694
# Velocity P-wave (km/s) = 7.50509 7.53236 7.51874
#
# Compressibility (1/GPa) = 0.01849189
#
# Stress axis : x y z
#
# Youngs Moduli (GPa) = 57.17365 57.17365 46.54156
#
# Poissons Ratio (x) = 0.25875 0.33654
# Poissons Ratio (y) = 0.25875 0.33654
# Poissons Ratio (z) = 0.41343 0.41343
#
# Static dielectric constant tensor:
#      x y z
#    x 1.466330 0.000000 0.000000 
#    y 0.000000 1.466330 0.000000 
#    z 0.000000 0.000000 1.469390 
# 
# From -- ./inp_files/6130.got.cif
#   From: 2010.05.17/outbox.cif.g08.bks.cpg/sg191_4_cif.got.tgz:6130.got - 2010.05.20 12:20:32.
