data_PCOD9587929
_publ_section_title
;
Structure prediction by ZEFSAII (Michael W. Deem and Ramdas Pophale) SiO2 
 PCOD9587929
Probable space group: P 6/M M M
;
_chemical_formula_sum "Si O2"
_cell_formula_units_Z 144
_cell_length_a 33.129738
_cell_length_b 33.129738
_cell_length_c 8.963119
_cell_angle_alpha 90.000000
_cell_angle_beta 90.000000
_cell_angle_gamma 120.000000
_cell_volume 8519.729316
_symmetry_space_group_name_H-M "P 6/M M M"
_symmetry_group_IT_number 191
_symmetry_cell_setting 'hexagonal'
loop_
_space_group_symop_operation_xyz
x,y,z
x-y,x,z
-y,x-y,z
-x,-y,z
-x+y,-x,z
y,-x+y,z
x-y,-y,-z
-x,-x+y,-z
y,x,-z
-y,-x,-z
-x+y,y,-z
x,x-y,-z
-x,-y,-z
-x+y,-x,-z
y,-x+y,-z
x,y,-z
x-y,x,-z
-y,x-y,-z
-x+y,y,z
x,x-y,z
-y,-x,z
y,x,z
x-y,-y,z
-x,-x+y,z
loop_
_atom_site_type_symbol
_atom_site_label
_atom_site_fract_x
_atom_site_fract_y
_atom_site_fract_z
Si Si1 0.198330 0.894953 0.678533
Si Si2 0.141598 0.522240 0.827704
Si Si3 0.857539 0.052370 0.681674
Si Si4 0.332916 0.572260 0.320234
Si Si5 0.350108 0.296764 0.175677
Si Si6 0.437298 0.052674 0.678581
O O1 0.206593 0.899347 0.500000
O O2 0.157713 0.842288 0.709210
O O3 0.176789 0.927838 0.719852
O O4 0.245890 0.911463 0.763990
O O5 0.140793 0.570397 0.822367
O O6 0.190307 0.534223 0.750450
O O7 0.095328 0.483212 0.747566
O O8 0.141412 0.509155 0.000000
O O9 0.858512 0.051682 0.500000
O O10 0.909183 0.090818 0.731772
O O11 0.837640 0.000000 0.735685
O O12 0.332669 0.568280 0.500000
O O13 0.284063 0.568125 0.274351
O O14 0.376458 0.623543 0.281622
O O15 0.308730 0.308730 0.198171
O O16 0.394019 0.336296 0.264328
O O17 0.360824 0.300986 0.000000
O O18 0.440017 0.055201 0.500000
O O19 0.424587 0.000000 0.722937
#
# Coordination Sequence:
#
# PCOD9587929 Si02
#       6
#    24  24  24  24  24  24
#     4   9  17  29  46  68  92 120 157 198 238 283
#     4  10  21  36  54  78 109 141 170 206 254 302
#     4   8  13  21  35  56  81 110 146 189 234 278
#     4   9  17  31  53  80 109 141 177 215 253 295
#     4  10  20  33  50  72  98 127 157 192 239 294
#     4  10  21  37  57  78  99 128 168 211 251 292
#
# _framework density 16.901945000000001
#
# number of rings (size 3 to 8) (size 9 to 14) (size 15 to 20)
#    0.000    2.667    0.000    3.167    0.000    5.333 
#    0.000    2.500    0.000    6.167    0.000    1.167 
#    0.000    0.000    0.000    0.000    0.000    0.000 
#
# Total GULP energy -802735.741264 kJ/mol
# GULP energy per Si atom -5574.553759 kJ/mol
# Density = 1.686348 g / cm^3
# Si number density = 16.901945 Si / 1000 Ang^3
#
#
#
# Elastic Constant Matrix: (Units=GPa)
#
#
# Indices 1 2 3 4 5 6 
#
# 1 92.5098 50.0755 41.4226 0.0000 0.0000 0.0000
# 2 50.0755 92.5098 41.4226 0.0000 0.0000 0.0000
# 3 41.4226 41.4226 49.5854 0.0000 0.0000 0.0000
# 4 0.0000 0.0000 0.0000 19.1267 0.0000 0.0000
# 5 0.0000 0.0000 0.0000 0.0000 19.1267 0.0000
# 6 0.0000 0.0000 0.0000 0.0000 0.0000 21.2172
#
#
#
# Elastic Compliance Matrix: (Units=1/GPa)
#
#
# Indices 1 2 3 4 5 6 
#
# 1 0.018597 -0.004969 -0.011385 0.000000 0.000000 0.000000
# 2 -0.004969 0.018597 -0.011385 0.000000 0.000000 0.000000
# 3 -0.011385 -0.011385 0.039188 0.000000 0.000000 0.000000
# 4 0.000000 0.000000 0.000000 0.052283 0.000000 0.000000
# 5 0.000000 0.000000 0.000000 0.000000 0.052283 0.000000
# 6 0.000000 0.000000 0.000000 0.000000 0.000000 0.047132
#
#
# Mechanical properties :
#
#
# Convention : Reuss Voigt Hill
#
# Bulk Modulus (GPa) = 47.83349 55.60519 51.71934
# Shear Modulus (GPa) = 17.21028 18.67309 17.94168
#
# Velocity S-wave (km/s) = 3.19445 3.32744 3.26163
# Velocity P-wave (km/s) = 6.47828 6.90888 6.69704
#
# Compressibility (1/GPa) = 0.02090585
#
# Stress axis : x y z
#
# Youngs Moduli (GPa) = 53.77231 53.77231 25.51795
#
# Poissons Ratio (x) = 0.26719 0.29051
# Poissons Ratio (y) = 0.26719 0.29051
# Poissons Ratio (z) = 0.61218 0.61218
#
# Static dielectric constant tensor:
#      x y z
#    x 1.561070 0.000000 0.000000 
#    y 0.000000 1.561070 0.000000 
#    z 0.000000 0.000000 1.566890 
# 
# From -- ./inp_files/1980.got.cif
#   From: 2010.05.17/outbox.cif.g08.bks.cpg/sg191_1_cif.got.tgz:1980.got - 2010.05.20 12:20:32.
