data_PCOD9587232
_publ_section_title
;
Structure prediction by ZEFSAII (Michael W. Deem and Ramdas Pophale) SiO2 
 PCOD9587232
Probable space group: P 6/M M M
;
_chemical_formula_sum "Si O2"
_cell_formula_units_Z 120
_cell_length_a 23.823485
_cell_length_b 23.823485
_cell_length_c 15.623611
_cell_angle_alpha 90.000000
_cell_angle_beta 90.000000
_cell_angle_gamma 120.000000
_cell_volume 7679.317670
_symmetry_space_group_name_H-M "P 6/M M M"
_symmetry_group_IT_number 191
_symmetry_cell_setting 'hexagonal'
loop_
_space_group_symop_operation_xyz
x,y,z
x-y,x,z
-y,x-y,z
-x,-y,z
-x+y,-x,z
y,-x+y,z
x-y,-y,-z
-x,-x+y,-z
y,x,-z
-y,-x,-z
-x+y,y,-z
x,x-y,-z
-x,-y,-z
-x+y,-x,-z
y,-x+y,-z
x,y,-z
x-y,x,-z
-y,x-y,-z
-x+y,y,z
x,x-y,z
-y,-x,z
y,x,z
x-y,-y,z
-x,-x+y,z
loop_
_atom_site_type_symbol
_atom_site_label
_atom_site_fract_x
_atom_site_fract_y
_atom_site_fract_z
Si Si1 0.382642 0.254617 0.849416
Si Si2 0.280326 0.206305 0.000000
Si Si3 0.280332 0.922319 0.666253
Si Si4 0.524789 0.924161 0.103520
Si Si5 0.923480 0.719850 0.500000
Si Si6 0.478110 0.399573 0.600986
O O1 0.404631 0.202316 0.867191
O O2 0.326527 0.239969 0.918049
O O3 0.354539 0.245213 0.754114
O O4 0.440745 0.327740 0.859626
O O5 0.222714 0.222714 0.000000
O O6 0.261625 0.130813 0.000000
O O7 0.235516 0.910900 0.584000
O O8 0.331870 0.898738 0.646376
O O9 0.321182 0.000000 0.678468
O O10 0.451280 0.902560 0.129257
O O11 0.568049 0.000000 0.127942
O O12 0.526030 0.921119 0.000000
O O13 0.872672 0.745343 0.500000
O O14 0.000000 0.773287 0.500000
O O15 0.482047 0.388123 0.500000
O O16 0.550325 0.449676 0.633221
O O17 0.438526 0.438526 0.606526
#
# Coordination Sequence:
#
# PCOD9587232 Si02
#       6
#    24  12  24  24  12  24
#     4  11  21  31  47  71  99 129 159 195 237 282
#     4  10  20  34  51  72  99 129 157 191 235 283
#     4  10  18  29  46  68  94 128 161 190 228 276
#     4   9  17  30  49  70  92 120 154 194 235 275
#     4  10  20  34  49  66  91 121 155 193 237 289
#     4   8  13  23  40  64  94 124 153 185 223 266
#
# _framework density 15.626388
#
# number of rings (size 3 to 8) (size 9 to 14) (size 15 to 20)
#    0.000    2.400    2.000    3.600    0.000    0.800 
#    0.000    2.000    0.000    0.600    0.000    0.000 
#    0.000    0.000    0.000    6.800    0.000    0.400 
#
# Total GULP energy -668763.024868 kJ/mol
# GULP energy per Si atom -5573.025207 kJ/mol
# Density = 1.559082 g / cm^3
# Si number density = 15.626388 Si / 1000 Ang^3
#
#
#
# Elastic Constant Matrix: (Units=GPa)
#
#
# Indices 1 2 3 4 5 6 
#
# 1 81.6275 49.3119 28.9720 0.0000 0.0000 0.0000
# 2 49.3119 81.6275 28.9720 0.0000 0.0000 0.0000
# 3 28.9720 28.9720 82.6863 0.0000 0.0000 0.0000
# 4 0.0000 0.0000 0.0000 3.5468 0.0000 0.0000
# 5 0.0000 0.0000 0.0000 0.0000 3.5468 0.0000
# 6 0.0000 0.0000 0.0000 0.0000 0.0000 16.1578
#
#
#
# Elastic Compliance Matrix: (Units=1/GPa)
#
#
# Indices 1 2 3 4 5 6 
#
# 1 0.019992 -0.010953 -0.003167 0.000000 0.000000 0.000000
# 2 -0.010953 0.019992 -0.003167 0.000000 0.000000 0.000000
# 3 -0.003167 -0.003167 0.014313 0.000000 0.000000 0.000000
# 4 0.000000 0.000000 0.000000 0.281941 0.000000 0.000000
# 5 0.000000 0.000000 0.000000 0.000000 0.281941 0.000000
# 6 0.000000 0.000000 0.000000 0.000000 0.000000 0.061890
#
#
# Mechanical properties :
#
#
# Convention : Reuss Voigt Hill
#
# Bulk Modulus (GPa) = 50.70355 51.16144 50.93249
# Shear Modulus (GPa) = 6.93274 13.89599 10.41437
#
# Velocity S-wave (km/s) = 2.10860 2.98529 2.58439
# Velocity P-wave (km/s) = 6.20049 6.68536 6.44749
#
# Compressibility (1/GPa) = 0.01972249
#
# Stress axis : x y z
#
# Youngs Moduli (GPa) = 50.02075 50.02075 69.86546
#
# Poissons Ratio (x) = 0.54788 0.22126
# Poissons Ratio (y) = 0.54788 0.22126
# Poissons Ratio (z) = 0.15841 0.15841
#
# Static dielectric constant tensor:
#      x y z
#    x 1.514600 0.000000 0.000000 
#    y 0.000000 1.514600 0.000000 
#    z 0.000000 0.000000 1.553500 
# 
# From -- ./inp_files/4755.got.cif
#   From: 2010.05.17/outbox.cif.g08.bks.cpg/sg191_3_cif.got.tgz:4755.got - 2010.05.20 12:20:32.
