data_PCOD9587025
_publ_section_title
;
Structure prediction by ZEFSAII (Michael W. Deem and Ramdas Pophale) SiO2 
 PCOD9587025
Probable space group: P 6/M M M
;
_chemical_formula_sum "Si O2"
_cell_formula_units_Z 108
_cell_length_a 29.738065
_cell_length_b 29.738065
_cell_length_c 10.517873
_cell_angle_alpha 90.000000
_cell_angle_beta 90.000000
_cell_angle_gamma 120.000000
_cell_volume 8055.341690
_symmetry_space_group_name_H-M "P 6/M M M"
_symmetry_group_IT_number 191
_symmetry_cell_setting 'hexagonal'
loop_
_space_group_symop_operation_xyz
x,y,z
x-y,x,z
-y,x-y,z
-x,-y,z
-x+y,-x,z
y,-x+y,z
x-y,-y,-z
-x,-x+y,-z
y,x,-z
-y,-x,-z
-x+y,y,-z
x,x-y,-z
-x,-y,-z
-x+y,-x,-z
y,-x+y,-z
x,y,-z
x-y,x,-z
-y,x-y,-z
-x+y,y,z
x,x-y,z
-y,-x,z
y,x,z
x-y,-y,z
-x,-x+y,z
loop_
_atom_site_type_symbol
_atom_site_label
_atom_site_fract_x
_atom_site_fract_y
_atom_site_fract_z
Si Si1 0.903134 0.701186 0.000000
Si Si2 0.531629 0.468371 0.648854
Si Si3 0.063089 0.678477 0.000000
Si Si4 0.937136 0.312287 0.500000
Si Si5 0.936933 0.371458 0.257943
Si Si6 0.941094 0.777524 0.760993
Si Si7 0.714740 0.804997 0.500000
O O1 0.913261 0.653337 0.000000
O O2 0.928442 0.736747 0.124588
O O3 0.842644 0.685288 0.000000
O O4 0.500000 0.500000 0.650395
O O5 0.539076 0.460925 0.500000
O O6 0.494285 0.413800 0.716380
O O7 0.078521 0.658471 0.874717
O O8 0.000000 0.651643 0.000000
O O9 0.921179 0.332001 0.375283
O O10 0.916613 0.251613 0.500000
O O11 0.000000 0.341234 0.500000
O O12 0.000000 0.404095 0.258555
O O13 0.896875 0.793750 0.766265
O O14 0.934485 0.748529 0.626851
O O15 0.000000 0.823384 0.773467
O O16 0.699485 0.849743 0.500000
#
# Coordination Sequence:
#
# PCOD9587025 Si02
#       7
#    12  12  12  12  24  24  12
#     4  10  20  32  46  61  82 111 138 171 211 254
#     4   9  14  25  39  53  77 103 135 169 195 225
#     4  10  18  27  38  58  82 101 133 175 208 237
#     4  10  16  25  40  56  72  99 137 169 202 239
#     4   9  17  25  38  56  75 103 132 168 203 226
#     4  10  19  31  46  63  81 104 132 166 215 266
#     4  10  20  30  42  61  84 107 134 173 213 254
#
# _framework density 13.407252
#
# number of rings (size 3 to 8) (size 9 to 14) (size 15 to 20)
#    0.000    2.333    1.111    3.333    0.000    2.222 
#    0.000    2.222    0.000    0.222    0.000    0.000 
#    0.000    5.333    0.000    0.000    0.000    0.889 
#
# Total GULP energy -601967.335824 kJ/mol
# GULP energy per Si atom -5573.771628 kJ/mol
# Density = 1.337674 g / cm^3
# Si number density = 13.407252 Si / 1000 Ang^3
#
#
#
# Elastic Constant Matrix: (Units=GPa)
#
#
# Indices 1 2 3 4 5 6 
#
# 1 92.1561 43.0941 47.7877 0.0000 0.0000 0.0000
# 2 43.0941 92.1561 47.7877 0.0000 0.0000 0.0000
# 3 47.7877 47.7877 129.8466 0.0000 0.0000 0.0000
# 4 0.0000 0.0000 0.0000 -15.4844 0.0000 0.0000
# 5 0.0000 0.0000 0.0000 0.0000 -15.4844 0.0000
# 6 0.0000 0.0000 0.0000 0.0000 0.0000 24.5310
#
#
#
# Elastic Compliance Matrix: (Units=1/GPa)
#
#
# Indices 1 2 3 4 5 6 
#
# 1 0.015187 -0.005195 -0.003678 0.000000 0.000000 0.000000
# 2 -0.005195 0.015187 -0.003678 0.000000 0.000000 0.000000
# 3 -0.003678 -0.003678 0.010408 0.000000 0.000000 0.000000
# 4 0.000000 0.000000 0.000000 -0.064581 0.000000 0.000000
# 5 0.000000 0.000000 0.000000 0.000000 -0.064581 0.000000
# 6 0.000000 0.000000 0.000000 0.000000 0.000000 0.040765
#
#
# Mechanical properties :
#
#
# Convention : Reuss Voigt Hill
#
# Bulk Modulus (GPa) = 63.76309 65.72195 64.74252
# Shear Modulus (GPa) = -289.24675 10.41172 -139.41751
#
# Velocity S-wave (km/s) = -14.70399 2.78973 -10.20845
# Velocity P-wave (km/s) = 15.51176 7.71381 9.51608
#
# Compressibility (1/GPa) = 0.01568305
#
# Stress axis : x y z
#
# Youngs Moduli (GPa) = 65.84401 65.84401 96.07715
#
# Poissons Ratio (x) = 0.34206 0.35333
# Poissons Ratio (y) = 0.34206 0.35333
# Poissons Ratio (z) = 0.24214 0.24214
#
# Static dielectric constant tensor:
#      x y z
#    x 1.419250 0.000000 0.000000 
#    y 0.000000 1.419250 0.000000 
#    z 0.000000 0.000000 1.454710 
# 
# From -- ./inp_files/1797.got.cif
#   From: 2010.05.17/outbox.cif.g08.bks.cpg/sg191_1_cif.got.tgz:1797.got - 2010.05.20 12:20:32.
