data_PCOD9587154
_publ_section_title
;
Structure prediction by ZEFSAII (Michael W. Deem and Ramdas Pophale) SiO2 
 PCOD9587154
Probable space group: P 6/M M M
;
_chemical_formula_sum "Si O2"
_cell_formula_units_Z 192
_cell_length_a 23.718832
_cell_length_b 23.718832
_cell_length_c 24.900785
_cell_angle_alpha 90.000000
_cell_angle_beta 90.000000
_cell_angle_gamma 120.000000
_cell_volume 12131.940403
_symmetry_space_group_name_H-M "P 6/M M M"
_symmetry_group_IT_number 191
_symmetry_cell_setting 'hexagonal'
loop_
_space_group_symop_operation_xyz
x,y,z
x-y,x,z
-y,x-y,z
-x,-y,z
-x+y,-x,z
y,-x+y,z
x-y,-y,-z
-x,-x+y,-z
y,x,-z
-y,-x,-z
-x+y,y,-z
x,x-y,-z
-x,-y,-z
-x+y,-x,-z
y,-x+y,-z
x,y,-z
x-y,x,-z
-y,x-y,-z
-x+y,y,z
x,x-y,z
-y,-x,z
y,x,z
x-y,-y,z
-x,-x+y,z
loop_
_atom_site_type_symbol
_atom_site_label
_atom_site_fract_x
_atom_site_fract_y
_atom_site_fract_z
Si Si1 0.162555 0.518798 0.781940
Si Si2 0.795596 0.462243 0.901598
Si Si3 0.205835 0.281157 0.855738
Si Si4 0.796052 0.333496 0.340114
Si Si5 0.073909 0.795944 0.436158
Si Si6 0.734315 0.605445 0.939117
Si Si7 0.075440 0.367394 0.763880
Si Si8 0.391792 0.128282 0.354393
O O1 0.130372 0.565186 0.781589
O O2 0.203606 0.537079 0.836497
O O3 0.199835 0.533300 0.725184
O O4 0.116060 0.441707 0.782776
O O5 0.726729 0.453458 0.920266
O O6 0.804419 0.402210 0.919346
O O7 0.852438 0.533214 0.920201
O O8 0.130839 0.261678 0.865175
O O9 0.224177 0.224177 0.856095
O O10 0.251215 0.335735 0.899531
O O11 0.229652 0.320126 0.799468
O O12 0.804878 0.402439 0.356508
O O13 0.725965 0.274035 0.356395
O O14 0.851776 0.318882 0.361066
O O15 0.077807 0.787007 0.500000
O O16 0.130129 0.869872 0.423247
O O17 0.091203 0.748634 0.402569
O O18 0.000000 0.777158 0.423830
O O19 0.801862 0.603723 0.938335
O O20 0.721448 0.617243 0.000000
O O21 0.090458 0.365935 0.701352
O O22 0.000000 0.341905 0.771677
O O23 0.394363 0.197182 0.348023
#
# Coordination Sequence:
#
# PCOD9587154 Si02
#       8
#    24  24  24  24  24  24  24  24
#     4   9  17  27  39  59  88 123 158 194 235 280
#     4  10  18  28  43  63  89 121 159 200 239 275
#     4  10  20  34  53  75  96 118 145 179 220 267
#     4   9  16  25  39  60  88 120 156 198 245 291
#     4   9  17  30  49  72  97 125 156 188 221 259
#     4   9  18  32  49  67  89 118 151 188 227 266
#     4  10  18  28  45  68  93 122 153 188 231 275
#     4   9  17  28  44  67  94 123 156 193 231 272
#
# _framework density 15.825993
#
# number of rings (size 3 to 8) (size 9 to 14) (size 15 to 20)
#    0.000    2.625    1.250    1.375    0.000    1.750 
#    0.000    1.250    0.000    2.875    0.000    2.625 
#    0.000    1.000    0.000    7.125    0.000    2.750 
#
# Total GULP energy -1068993.752766 kJ/mol
# GULP energy per Si atom -5567.675796 kJ/mol
# Density = 1.578997 g / cm^3
# Si number density = 15.825993 Si / 1000 Ang^3
#
#
#
# Elastic Constant Matrix: (Units=GPa)
#
#
# Indices 1 2 3 4 5 6 
#
# 1 83.3538 51.0152 25.8958 0.0000 0.0000 0.0000
# 2 51.0152 83.3538 25.8958 0.0000 0.0000 0.0000
# 3 25.8958 25.8958 41.2779 0.0000 0.0000 0.0000
# 4 0.0000 0.0000 0.0000 13.9329 0.0000 0.0000
# 5 0.0000 0.0000 0.0000 0.0000 13.9329 0.0000
# 6 0.0000 0.0000 0.0000 0.0000 0.0000 16.1693
#
#
#
# Elastic Compliance Matrix: (Units=1/GPa)
#
#
# Indices 1 2 3 4 5 6 
#
# 1 0.020369 -0.010554 -0.006158 0.000000 0.000000 0.000000
# 2 -0.010554 0.020369 -0.006158 0.000000 0.000000 0.000000
# 3 -0.006158 -0.006158 0.031952 0.000000 0.000000 0.000000
# 4 0.000000 0.000000 0.000000 0.071772 0.000000 0.000000
# 5 0.000000 0.000000 0.000000 0.000000 0.071772 0.000000
# 6 0.000000 0.000000 0.000000 0.000000 0.000000 0.061846
#
#
# Mechanical properties :
#
#
# Convention : Reuss Voigt Hill
#
# Bulk Modulus (GPa) = 37.10276 45.95545 41.52911
# Shear Modulus (GPa) = 15.02384 15.81893 15.42139
#
# Velocity S-wave (km/s) = 3.08444 3.16500 3.12498
# Velocity P-wave (km/s) = 6.01499 6.51593 6.27046
#
# Compressibility (1/GPa) = 0.02695217
#
# Stress axis : x y z
#
# Youngs Moduli (GPa) = 49.09353 49.09353 31.29655
#
# Poissons Ratio (x) = 0.51811 0.19272
# Poissons Ratio (y) = 0.51811 0.19272
# Poissons Ratio (z) = 0.30231 0.30231
#
# Static dielectric constant tensor:
#      x y z
#    x 1.528350 0.000000 0.000000 
#    y 0.000000 1.528350 0.000000 
#    z 0.000000 0.000000 1.535990 
# 
# From -- ./inp_files/9321.got.cif
#   From: 2010.05.17/outbox.cif.g08.bks.cpg/sg191_5_cif.got.tgz:9321.got - 2010.05.20 12:20:32.
