data_PCOD9587845
_publ_section_title
;
Structure prediction by ZEFSAII (Michael W. Deem and Ramdas Pophale) SiO2 
 PCOD9587845
Probable space group: P 6/M M M
;
_chemical_formula_sum "Si O2"
_cell_formula_units_Z 132
_cell_length_a 18.274364
_cell_length_b 18.274364
_cell_length_c 29.056321
_cell_angle_alpha 90.000000
_cell_angle_beta 90.000000
_cell_angle_gamma 120.000000
_cell_volume 8403.414754
_symmetry_space_group_name_H-M "P 6/M M M"
_symmetry_group_IT_number 191
_symmetry_cell_setting 'hexagonal'
loop_
_space_group_symop_operation_xyz
x,y,z
x-y,x,z
-y,x-y,z
-x,-y,z
-x+y,-x,z
y,-x+y,z
x-y,-y,-z
-x,-x+y,-z
y,x,-z
-y,-x,-z
-x+y,y,-z
x,x-y,-z
-x,-y,-z
-x+y,-x,-z
y,-x+y,-z
x,y,-z
x-y,x,-z
-y,x-y,-z
-x+y,y,z
x,x-y,z
-y,-x,z
y,x,z
x-y,-y,z
-x,-x+y,z
loop_
_atom_site_type_symbol
_atom_site_label
_atom_site_fract_x
_atom_site_fract_y
_atom_site_fract_z
Si Si1 0.263379 0.902117 0.632221
Si Si2 0.331743 0.836798 0.185250
Si Si3 0.899115 0.366187 0.283488
Si Si4 0.666010 0.504135 0.446255
Si Si5 0.731802 0.095706 0.000000
Si Si6 0.492261 0.332323 0.083262
O O1 0.164072 0.835929 0.629050
O O2 0.300925 0.874703 0.675143
O O3 0.308042 0.890675 0.587095
O O4 0.291391 0.000000 0.637719
O O5 0.424162 0.848324 0.185938
O O6 0.261208 0.738792 0.186180
O O7 0.324269 0.875862 0.233008
O O8 0.324476 0.869282 0.134910
O O9 0.864756 0.432378 0.288727
O O10 0.000000 0.422061 0.285450
O O11 0.663134 0.524388 0.500000
O O12 0.740490 0.480979 0.441747
O O13 0.576066 0.423935 0.433834
O O14 0.687754 0.111178 0.044293
O O15 0.829728 0.170273 0.000000
O O16 0.712243 0.000000 0.000000
O O17 0.516669 0.258335 0.079333
O O18 0.576214 0.423787 0.078047
#
# Coordination Sequence:
#
# PCOD9587845 Si02
#       6
#    24  24  24  24  12  24
#     4  10  20  33  48  65  86 113 146 185 228 272
#     4   9  16  26  40  59  85 118 154 185 209 235
#     4   9  17  28  42  62  88 116 145 178 217 260
#     4   9  17  29  46  69  97 127 155 180 206 240
#     4  10  21  35  49  66  87 111 140 178 225 271
#     4   9  17  28  43  64  92 126 159 187 212 241
#
# _framework density 15.707898999999999
#
# number of rings (size 3 to 8) (size 9 to 14) (size 15 to 20)
#    0.000    2.727    0.000    1.909    0.000    5.091 
#    0.000    3.636    0.000    6.091    0.000    0.000 
#    0.000    0.000    0.000    4.545    0.000   23.636 
#
# Total GULP energy -735025.026692 kJ/mol
# GULP energy per Si atom -5568.371414 kJ/mol
# Density = 1.567215 g / cm^3
# Si number density = 15.707899 Si / 1000 Ang^3
#
#
#
# Elastic Constant Matrix: (Units=GPa)
#
#
# Indices 1 2 3 4 5 6 
#
# 1 54.5378 35.2233 33.8807 0.0000 0.0000 0.0000
# 2 35.2233 54.5378 33.8807 0.0000 0.0000 0.0000
# 3 33.8807 33.8807 84.7699 0.0000 0.0000 0.0000
# 4 0.0000 0.0000 0.0000 19.0605 0.0000 0.0000
# 5 0.0000 0.0000 0.0000 0.0000 19.0605 0.0000
# 6 0.0000 0.0000 0.0000 0.0000 0.0000 9.6572
#
#
#
# Elastic Compliance Matrix: (Units=1/GPa)
#
#
# Indices 1 2 3 4 5 6 
#
# 1 0.033865 -0.017910 -0.006377 0.000000 0.000000 0.000000
# 2 -0.017910 0.033865 -0.006377 0.000000 0.000000 0.000000
# 3 -0.006377 -0.006377 0.016894 0.000000 0.000000 0.000000
# 4 0.000000 0.000000 0.000000 0.052465 0.000000 0.000000
# 5 0.000000 0.000000 0.000000 0.000000 0.052465 0.000000
# 6 0.000000 0.000000 0.000000 0.000000 0.000000 0.103549
#
#
# Mechanical properties :
#
#
# Convention : Reuss Voigt Hill
#
# Bulk Modulus (GPa) = 42.92548 44.42386 43.67467
# Shear Modulus (GPa) = 13.80478 15.61303 14.70890
#
# Velocity S-wave (km/s) = 2.96774 3.15613 3.06339
# Velocity P-wave (km/s) = 6.25540 6.45168 6.35430
#
# Compressibility (1/GPa) = 0.02329619
#
# Stress axis : x y z
#
# Youngs Moduli (GPa) = 29.52941 29.52941 59.19313
#
# Poissons Ratio (x) = 0.52887 0.37745
# Poissons Ratio (y) = 0.52887 0.37745
# Poissons Ratio (z) = 0.18830 0.18830
#
# Static dielectric constant tensor:
#      x y z
#    x 1.512640 0.000000 0.000000 
#    y 0.000000 1.512640 0.000000 
#    z 0.000000 0.000000 1.567950 
# 
# From -- ./inp_files/9707.got.cif
#   From: 2010.05.17/outbox.cif.g08.bks.cpg/sg191_5_cif.got.tgz:9707.got - 2010.05.20 12:20:32.
