data_PCOD9587262
_publ_section_title
;
Structure prediction by ZEFSAII (Michael W. Deem and Ramdas Pophale) SiO2 
 PCOD9587262
Probable space group: P 6/M M M
;
_chemical_formula_sum "Si O2"
_cell_formula_units_Z 96
_cell_length_a 17.166089
_cell_length_b 17.166089
_cell_length_c 24.448009
_cell_angle_alpha 90.000000
_cell_angle_beta 90.000000
_cell_angle_gamma 120.000000
_cell_volume 6239.026757
_symmetry_space_group_name_H-M "P 6/M M M"
_symmetry_group_IT_number 191
_symmetry_cell_setting 'hexagonal'
loop_
_space_group_symop_operation_xyz
x,y,z
x-y,x,z
-y,x-y,z
-x,-y,z
-x+y,-x,z
y,-x+y,z
x-y,-y,-z
-x,-x+y,-z
y,x,-z
-y,-x,-z
-x+y,y,-z
x,x-y,-z
-x,-y,-z
-x+y,-x,-z
y,-x+y,-z
x,y,-z
x-y,x,-z
-y,x-y,-z
-x+y,y,z
x,x-y,z
-y,-x,z
y,x,z
x-y,-y,z
-x,-x+y,z
loop_
_atom_site_type_symbol
_atom_site_label
_atom_site_fract_x
_atom_site_fract_y
_atom_site_fract_z
Si Si1 0.107264 0.553632 0.171981
Si Si2 0.392501 0.607500 0.939073
Si Si3 0.582248 0.791124 0.565061
Si Si4 0.608029 0.715240 0.765266
Si Si5 0.794180 0.897090 0.566347
Si Si6 0.640530 0.105656 0.351983
O O1 0.150682 0.575341 0.112217
O O2 0.130134 0.645317 0.203687
O O3 0.000000 0.500000 0.167850
O O4 0.430102 0.715051 0.935731
O O5 0.412968 0.587033 0.000000
O O6 0.571929 0.785965 0.500000
O O7 0.688869 0.844435 0.578816
O O8 0.539803 0.843576 0.595092
O O9 0.635842 0.817921 0.779752
O O10 0.679269 0.679269 0.774983
O O11 0.582953 0.700668 0.700937
O O12 0.843958 0.843958 0.586034
O O13 0.800516 0.900258 0.500000
O O14 0.566879 0.133758 0.337371
O O15 0.587095 0.000000 0.363894
#
# Coordination Sequence:
#
# PCOD9587262 Si02
#       6
#    12  12  12  24  12  24
#     4  10  18  29  49  77 103 132 174 219 257 297
#     4   8  16  29  43  65 102 143 179 208 239 293
#     4  11  22  35  50  69  90 120 156 189 232 299
#     4  10  19  33  53  77 103 128 164 212 257 302
#     4   9  17  30  49  72  94 114 142 182 227 280
#     4  10  20  36  53  69  92 119 150 193 242 292
#
# _framework density 15.387015
#
# number of rings (size 3 to 8) (size 9 to 14) (size 15 to 20)
#    0.250    2.000    2.500    1.625    0.000    2.750 
#    1.500    2.500    0.000    0.250    0.000    0.000 
#    0.000    0.000    0.000    0.000    0.000    0.000 
#
# Total GULP energy -534440.638137 kJ/mol
# GULP energy per Si atom -5567.089981 kJ/mol
# Density = 1.535199 g / cm^3
# Si number density = 15.387015 Si / 1000 Ang^3
#
#
#
# Elastic Constant Matrix: (Units=GPa)
#
#
# Indices 1 2 3 4 5 6 
#
# 1 56.2216 46.2658 17.9910 0.0000 0.0000 0.0000
# 2 46.2658 56.2216 17.9910 0.0000 0.0000 0.0000
# 3 17.9910 17.9910 79.3284 0.0000 0.0000 0.0000
# 4 0.0000 0.0000 0.0000 21.2945 0.0000 0.0000
# 5 0.0000 0.0000 0.0000 0.0000 21.2945 0.0000
# 6 0.0000 0.0000 0.0000 0.0000 0.0000 4.9779
#
#
#
# Elastic Compliance Matrix: (Units=1/GPa)
#
#
# Indices 1 2 3 4 5 6 
#
# 1 0.055523 -0.044922 -0.002404 0.000000 0.000000 0.000000
# 2 -0.044922 0.055523 -0.002404 0.000000 0.000000 0.000000
# 3 -0.002404 -0.002404 0.013696 0.000000 0.000000 0.000000
# 4 0.000000 0.000000 0.000000 0.046961 0.000000 0.000000
# 5 0.000000 0.000000 0.000000 0.000000 0.046961 0.000000
# 6 0.000000 0.000000 0.000000 0.000000 0.000000 0.200889
#
#
# Mechanical properties :
#
#
# Convention : Reuss Voigt Hill
#
# Bulk Modulus (GPa) = 39.55387 39.58524 39.56955
# Shear Modulus (GPa) = 9.47974 16.81494 13.14734
#
# Velocity S-wave (km/s) = 2.48480 3.30934 2.92626
# Velocity P-wave (km/s) = 5.83045 6.35488 6.09831
#
# Compressibility (1/GPa) = 0.02528198
#
# Stress axis : x y z
#
# Youngs Moduli (GPa) = 18.01053 18.01053 73.01194
#
# Poissons Ratio (x) = 0.80906 0.17554
# Poissons Ratio (y) = 0.80906 0.17554
# Poissons Ratio (z) = 0.04330 0.04330
#
# Static dielectric constant tensor:
#      x y z
#    x 1.526540 0.000000 0.000000 
#    y 0.000000 1.526540 0.000000 
#    z 0.000000 0.000000 1.489620 
# 
# From -- ./inp_files/8291.got.cif
#   From: 2010.05.17/outbox.cif.g08.bks.cpg/sg191_5_cif.got.tgz:8291.got - 2010.05.20 12:20:32.
