data_PCOD9587665
_publ_section_title
;
Structure prediction by ZEFSAII (Michael W. Deem and Ramdas Pophale) SiO2 
 PCOD9587665
Probable space group: P 6/M M M
;
_chemical_formula_sum "Si O2"
_cell_formula_units_Z 120
_cell_length_a 21.211347
_cell_length_b 21.211347
_cell_length_c 19.074122
_cell_angle_alpha 90.000000
_cell_angle_beta 90.000000
_cell_angle_gamma 120.000000
_cell_volume 7432.102408
_symmetry_space_group_name_H-M "P 6/M M M"
_symmetry_group_IT_number 191
_symmetry_cell_setting 'hexagonal'
loop_
_space_group_symop_operation_xyz
x,y,z
x-y,x,z
-y,x-y,z
-x,-y,z
-x+y,-x,z
y,-x+y,z
x-y,-y,-z
-x,-x+y,-z
y,x,-z
-y,-x,-z
-x+y,y,-z
x,x-y,-z
-x,-y,-z
-x+y,-x,-z
y,-x+y,-z
x,y,-z
x-y,x,-z
-y,x-y,-z
-x+y,y,z
x,x-y,z
-y,-x,z
y,x,z
x-y,-y,z
-x,-x+y,z
loop_
_atom_site_type_symbol
_atom_site_label
_atom_site_fract_x
_atom_site_fract_y
_atom_site_fract_z
Si Si1 0.142953 0.430379 0.863597
Si Si2 0.312771 0.082505 0.259017
Si Si3 0.614636 0.528540 0.000000
Si Si4 0.513364 0.181096 0.500000
Si Si5 0.425400 0.340385 0.632884
Si Si6 0.194266 0.528370 0.264328
O O1 0.209415 0.418831 0.885746
O O2 0.095444 0.365575 0.808142
O O3 0.107072 0.443083 0.930757
O O4 0.176042 0.502257 0.815203
O O5 0.294216 0.147108 0.257777
O O6 0.359461 0.090044 0.329291
O O7 0.247004 0.000000 0.256438
O O8 0.565770 0.565770 0.000000
O O9 0.558648 0.441353 0.000000
O O10 0.590844 0.181688 0.500000
O O11 0.526260 0.263130 0.500000
O O12 0.464117 0.136019 0.433531
O O13 0.395345 0.395345 0.618093
O O14 0.486988 0.366742 0.692355
O O15 0.252795 0.505590 0.289311
O O16 0.226585 0.613293 0.272065
#
# Coordination Sequence:
#
# PCOD9587665 Si02
#       6
#    24  24  12  12  24  24
#     4   9  18  32  48  64  87 120 156 194 231 272
#     4   9  17  32  53  75  97 123 156 191 230 276
#     4  11  21  30  42  64  92 119 149 189 238 282
#     4  12  24  37  51  69  96 127 159 195 239 286
#     4  10  21  35  51  70  93 122 156 194 232 272
#     4  10  19  32  49  68  90 117 152 191 232 278
#
# _framework density 16.146172
#
# number of rings (size 3 to 8) (size 9 to 14) (size 15 to 20)
#    0.000    2.100    0.000    5.700    0.000    2.800 
#    0.000    2.000    0.000    3.000    0.000    0.000 
#    0.000    0.000    0.000    0.000    0.000   41.600 
#
# Total GULP energy -668310.226292 kJ/mol
# GULP energy per Si atom -5569.251886 kJ/mol
# Density = 1.610942 g / cm^3
# Si number density = 16.146172 Si / 1000 Ang^3
#
#
#
# Elastic Constant Matrix: (Units=GPa)
#
#
# Indices 1 2 3 4 5 6 
#
# 1 97.1047 57.2112 45.6713 0.0000 0.0000 0.0000
# 2 57.2112 97.1047 45.6713 0.0000 0.0000 0.0000
# 3 45.6713 45.6713 99.0541 0.0000 0.0000 0.0000
# 4 0.0000 0.0000 0.0000 -45.3393 0.0000 0.0000
# 5 0.0000 0.0000 0.0000 0.0000 -45.3393 0.0000
# 6 0.0000 0.0000 0.0000 0.0000 0.0000 19.9467
#
#
#
# Elastic Compliance Matrix: (Units=1/GPa)
#
#
# Indices 1 2 3 4 5 6 
#
# 1 0.016990 -0.008077 -0.004109 0.000000 0.000000 0.000000
# 2 -0.008077 0.016990 -0.004109 0.000000 0.000000 0.000000
# 3 -0.004109 -0.004109 0.013885 0.000000 0.000000 0.000000
# 4 0.000000 0.000000 0.000000 -0.022056 0.000000 0.000000
# 5 0.000000 0.000000 0.000000 0.000000 -0.022056 0.000000
# 6 0.000000 0.000000 0.000000 0.000000 0.000000 0.050134
#
#
# Mechanical properties :
#
#
# Convention : Reuss Voigt Hill
#
# Bulk Modulus (GPa) = 65.47639 65.59681 65.53660
# Shear Modulus (GPa) = 54.60380 -4.49907 25.05236
#
# Velocity S-wave (km/s) = 5.82167 -1.67108 3.94331
# Velocity P-wave (km/s) = 9.26442 6.08208 7.83649
#
# Compressibility (1/GPa) = 0.01527268
#
# Stress axis : x y z
#
# Youngs Moduli (GPa) = 58.85916 58.85916 72.02031
#
# Poissons Ratio (x) = 0.47541 0.29596
# Poissons Ratio (y) = 0.47541 0.29596
# Poissons Ratio (z) = 0.24188 0.24188
#
# Static dielectric constant tensor:
#      x y z
#    x 1.544050 0.000000 0.000000 
#    y 0.000000 1.544050 0.000000 
#    z 0.000000 0.000000 1.560070 
# 
# From -- ./inp_files/6266.got.cif
#   From: 2010.05.17/outbox.cif.g08.bks.cpg/sg191_4_cif.got.tgz:6266.got - 2010.05.20 12:20:32.
