data_PCOD9587165
_publ_section_title
;
Structure prediction by ZEFSAII (Michael W. Deem and Ramdas Pophale) SiO2 
 PCOD9587165
Probable space group: P 6/M M M
;
_chemical_formula_sum "Si O2"
_cell_formula_units_Z 168
_cell_length_a 24.185490
_cell_length_b 24.185490
_cell_length_c 20.658269
_cell_angle_alpha 90.000000
_cell_angle_beta 90.000000
_cell_angle_gamma 120.000000
_cell_volume 10464.882134
_symmetry_space_group_name_H-M "P 6/M M M"
_symmetry_group_IT_number 191
_symmetry_cell_setting 'hexagonal'
loop_
_space_group_symop_operation_xyz
x,y,z
x-y,x,z
-y,x-y,z
-x,-y,z
-x+y,-x,z
y,-x+y,z
x-y,-y,-z
-x,-x+y,-z
y,x,-z
-y,-x,-z
-x+y,y,-z
x,x-y,-z
-x,-y,-z
-x+y,-x,-z
y,-x+y,-z
x,y,-z
x-y,x,-z
-y,x-y,-z
-x+y,y,z
x,x-y,z
-y,-x,z
y,x,z
x-y,-y,z
-x,-x+y,z
loop_
_atom_site_type_symbol
_atom_site_label
_atom_site_fract_x
_atom_site_fract_y
_atom_site_fract_z
Si Si1 0.601015 0.922378 0.570796
Si Si2 0.220315 0.317404 0.742737
Si Si3 0.196523 0.927918 0.600835
Si Si4 0.802769 0.071785 0.887702
Si Si5 0.641885 0.074087 0.292927
Si Si6 0.398741 0.475502 0.841108
Si Si7 0.584428 0.728671 0.924702
O O1 0.571107 0.900532 0.500000
O O2 0.659987 0.909237 0.578560
O O3 0.557053 0.897800 0.634607
O O4 0.636236 0.000000 0.572171
O O5 0.173632 0.347264 0.743193
O O6 0.200800 0.273515 0.679178
O O7 0.207828 0.280889 0.810144
O O8 0.293344 0.371130 0.733729
O O9 0.126477 0.873524 0.580814
O O10 0.220807 0.000000 0.579179
O O11 0.875697 0.124304 0.902364
O O12 0.758983 0.098279 0.917500
O O13 0.778948 0.000000 0.908419
O O14 0.617611 0.098592 0.233879
O O15 0.589110 0.000000 0.300963
O O16 0.457211 0.542790 0.863503
O O17 0.424899 0.424899 0.843468
O O18 0.335077 0.450276 0.882716
O O19 0.571282 0.785641 0.903626
O O20 0.567184 0.714895 0.000000
#
# Coordination Sequence:
#
# PCOD9587165 Si02
#       7
#    24  24  24  24  24  24  24
#     4   8  14  24  38  56  78 107 142 179 219 261
#     4   9  15  23  39  62  82 107 146 190 235 279
#     4   9  16  24  35  52  76 105 140 184 233 284
#     4  10  18  28  44  65  90 118 152 195 243 293
#     4   9  15  25  41  60  87 118 149 182 218 263
#     4  10  20  32  49  74 102 131 159 189 228 276
#     4  10  21  35  51  71  95 124 158 198 240 280
#
# _framework density 16.053692000000002
#
# number of rings (size 3 to 8) (size 9 to 14) (size 15 to 20)
#    0.000    2.714    1.429    2.571    0.000    1.714 
#    0.000    0.714    0.000    1.000    0.000    3.000 
#    0.000    3.429    0.000    7.143    0.000    0.000 
#
# Total GULP energy -935416.493881 kJ/mol
# GULP energy per Si atom -5567.955321 kJ/mol
# Density = 1.601715 g / cm^3
# Si number density = 16.053692 Si / 1000 Ang^3
#
#
#
# Elastic Constant Matrix: (Units=GPa)
#
#
# Indices 1 2 3 4 5 6 
#
# 1 62.4852 33.1850 32.3814 0.0000 0.0000 0.0000
# 2 33.1850 62.4852 32.3814 0.0000 0.0000 0.0000
# 3 32.3814 32.3814 83.2396 0.0000 0.0000 0.0000
# 4 0.0000 0.0000 0.0000 5.5784 0.0000 0.0000
# 5 0.0000 0.0000 0.0000 0.0000 5.5784 0.0000
# 6 0.0000 0.0000 0.0000 0.0000 0.0000 14.6501
#
#
#
# Elastic Compliance Matrix: (Units=1/GPa)
#
#
# Indices 1 2 3 4 5 6 
#
# 1 0.024159 -0.009970 -0.005520 0.000000 0.000000 0.000000
# 2 -0.009970 0.024159 -0.005520 0.000000 0.000000 0.000000
# 3 -0.005520 -0.005520 0.016308 0.000000 0.000000 0.000000
# 4 0.000000 0.000000 0.000000 0.179264 0.000000 0.000000
# 5 0.000000 0.000000 0.000000 0.000000 0.179264 0.000000
# 6 0.000000 0.000000 0.000000 0.000000 0.000000 0.068259
#
#
# Mechanical properties :
#
#
# Convention : Reuss Voigt Hill
#
# Bulk Modulus (GPa) = 44.23371 44.90064 44.56717
# Shear Modulus (GPa) = 9.24269 12.51218 10.87743
#
# Velocity S-wave (km/s) = 2.40205 2.79479 2.60583
# Velocity P-wave (km/s) = 5.94193 6.20034 6.07251
#
# Compressibility (1/GPa) = 0.02260719
#
# Stress axis : x y z
#
# Youngs Moduli (GPa) = 41.39193 41.39193 61.31935
#
# Poissons Ratio (x) = 0.41269 0.33847
# Poissons Ratio (y) = 0.41269 0.33847
# Poissons Ratio (z) = 0.22847 0.22847
#
# Static dielectric constant tensor:
#      x y z
#    x 1.529190 0.000000 0.000000 
#    y 0.000000 1.529190 0.000000 
#    z 0.000000 0.000000 1.602940 
# 
# From -- ./inp_files/7950.got.cif
#   From: 2010.05.17/outbox.cif.g08.bks.cpg/sg191_4_cif.got.tgz:7950.got - 2010.05.20 12:20:32.
