data_PCOD9587573
_publ_section_title
;
Structure prediction by ZEFSAII (Michael W. Deem and Ramdas Pophale) SiO2 
 PCOD9587573
Probable space group: P 6/M M M
;
_chemical_formula_sum "Si O2"
_cell_formula_units_Z 132
_cell_length_a 23.426803
_cell_length_b 23.426803
_cell_length_c 18.321278
_cell_angle_alpha 90.000000
_cell_angle_beta 90.000000
_cell_angle_gamma 120.000000
_cell_volume 8707.880235
_symmetry_space_group_name_H-M "P 6/M M M"
_symmetry_group_IT_number 191
_symmetry_cell_setting 'hexagonal'
loop_
_space_group_symop_operation_xyz
x,y,z
x-y,x,z
-y,x-y,z
-x,-y,z
-x+y,-x,z
y,-x+y,z
x-y,-y,-z
-x,-x+y,-z
y,x,-z
-y,-x,-z
-x+y,y,-z
x,x-y,-z
-x,-y,-z
-x+y,-x,-z
y,-x+y,-z
x,y,-z
x-y,x,-z
-y,x-y,-z
-x+y,y,z
x,x-y,z
-y,-x,z
y,x,z
x-y,-y,z
-x,-x+y,z
loop_
_atom_site_type_symbol
_atom_site_label
_atom_site_fract_x
_atom_site_fract_y
_atom_site_fract_z
Si Si1 0.205480 0.923240 0.222179
Si Si2 0.207809 0.924950 0.500000
Si Si3 0.641490 0.721432 0.080966
Si Si4 0.121379 0.745309 0.639719
Si Si5 0.397089 0.920067 0.853860
Si Si6 0.079306 0.603870 0.318558
O O1 0.128585 0.871416 0.234084
O O2 0.228118 0.905594 0.146396
O O3 0.244918 0.911572 0.287293
O O4 0.227218 0.000000 0.220990
O O5 0.130794 0.869207 0.500000
O O6 0.240241 0.911727 0.429156
O O7 0.224542 0.000000 0.500000
O O8 0.678745 0.678745 0.079170
O O9 0.566048 0.669878 0.102289
O O10 0.646585 0.749121 0.000000
O O11 0.197527 0.802474 0.640500
O O12 0.111356 0.672705 0.640020
O O13 0.448747 0.897494 0.878468
O O14 0.383136 0.904887 0.767878
O O15 0.437249 0.000000 0.858886
O O16 0.097793 0.548897 0.342027
O O17 0.000000 0.569143 0.324933
#
# Coordination Sequence:
#
# PCOD9587573 Si02
#       6
#    24  12  24  24  24  24
#     4  10  19  31  47  64  85 114 147 183 227 282
#     4  10  20  32  49  72  97 123 151 191 237 283
#     4   9  16  25  38  58  85 113 142 178 215 256
#     4  10  19  31  48  69  93 121 152 187 228 274
#     4   8  13  21  35  56  83 115 145 173 208 248
#     4   9  15  25  44  66  89 118 149 181 216 256
#
# _framework density 15.158683999999999
#
# number of rings (size 3 to 8) (size 9 to 14) (size 15 to 20)
#    0.000    2.727    1.818    2.727    0.000    0.727 
#    0.000    2.273    0.000    2.273    0.000    0.000 
#    0.000    4.364    0.000    4.545    0.000   16.909 
#
# Total GULP energy -735024.569714 kJ/mol
# GULP energy per Si atom -5568.367952 kJ/mol
# Density = 1.512418 g / cm^3
# Si number density = 15.158684 Si / 1000 Ang^3
#
#
#
# Elastic Constant Matrix: (Units=GPa)
#
#
# Indices 1 2 3 4 5 6 
#
# 1 81.7780 44.2457 28.2850 0.0000 0.0000 0.0000
# 2 44.2457 81.7780 28.2850 0.0000 0.0000 0.0000
# 3 28.2850 28.2850 69.1644 0.0000 0.0000 0.0000
# 4 0.0000 0.0000 0.0000 14.7268 0.0000 0.0000
# 5 0.0000 0.0000 0.0000 0.0000 14.7268 0.0000
# 6 0.0000 0.0000 0.0000 0.0000 0.0000 18.7662
#
#
#
# Elastic Compliance Matrix: (Units=1/GPa)
#
#
# Indices 1 2 3 4 5 6 
#
# 1 0.018181 -0.008462 -0.003975 0.000000 0.000000 0.000000
# 2 -0.008462 0.018181 -0.003975 0.000000 0.000000 0.000000
# 3 -0.003975 -0.003975 0.017709 0.000000 0.000000 0.000000
# 4 0.000000 0.000000 0.000000 0.067903 0.000000 0.000000
# 5 0.000000 0.000000 0.000000 0.000000 0.067903 0.000000
# 6 0.000000 0.000000 0.000000 0.000000 0.000000 0.053287
#
#
# Mechanical properties :
#
#
# Convention : Reuss Voigt Hill
#
# Bulk Modulus (GPa) = 47.06137 48.26128 47.66133
# Shear Modulus (GPa) = 17.66334 18.43762 18.05048
#
# Velocity S-wave (km/s) = 3.41725 3.49134 3.45449
# Velocity P-wave (km/s) = 6.83252 6.93968 6.88631
#
# Compressibility (1/GPa) = 0.02124885
#
# Stress axis : x y z
#
# Youngs Moduli (GPa) = 55.00115 55.00115 56.46773
#
# Poissons Ratio (x) = 0.46543 0.22444
# Poissons Ratio (y) = 0.46543 0.22444
# Poissons Ratio (z) = 0.21861 0.21861
#
# Static dielectric constant tensor:
#      x y z
#    x 1.497230 0.000000 0.000000 
#    y 0.000000 1.497230 0.000000 
#    z 0.000000 0.000000 1.520480 
# 
# From -- ./inp_files/4939.got.cif
#   From: 2010.05.17/outbox.cif.g08.bks.cpg/sg191_3_cif.got.tgz:4939.got - 2010.05.20 12:20:32.
