data_PCOD9587067
_publ_section_title
;
Structure prediction by ZEFSAII (Michael W. Deem and Ramdas Pophale) SiO2 
 PCOD9587067
Probable space group: P 6/M M M
;
_chemical_formula_sum "Si O2"
_cell_formula_units_Z 168
_cell_length_a 29.114454
_cell_length_b 29.114454
_cell_length_c 15.611752
_cell_angle_alpha 90.000000
_cell_angle_beta 90.000000
_cell_angle_gamma 120.000000
_cell_volume 11460.394704
_symmetry_space_group_name_H-M "P 6/M M M"
_symmetry_group_IT_number 191
_symmetry_cell_setting 'hexagonal'
loop_
_space_group_symop_operation_xyz
x,y,z
x-y,x,z
-y,x-y,z
-x,-y,z
-x+y,-x,z
y,-x+y,z
x-y,-y,-z
-x,-x+y,-z
y,x,-z
-y,-x,-z
-x+y,y,-z
x,x-y,-z
-x,-y,-z
-x+y,-x,-z
y,-x+y,-z
x,y,-z
x-y,x,-z
-y,x-y,-z
-x+y,y,z
x,x-y,z
-y,-x,z
y,x,z
x-y,-y,z
-x,-x+y,z
loop_
_atom_site_type_symbol
_atom_site_label
_atom_site_fract_x
_atom_site_fract_y
_atom_site_fract_z
Si Si1 0.583482 0.519636 0.233556
Si Si2 0.760778 0.623701 0.364710
Si Si3 0.596715 0.659573 0.901812
Si Si4 0.222152 0.060274 0.783332
Si Si5 0.196550 0.255714 0.593612
Si Si6 0.638205 0.576423 0.403192
Si Si7 0.224136 0.879689 0.833043
O O1 0.542404 0.457597 0.221486
O O2 0.549307 0.549307 0.223525
O O3 0.630091 0.548117 0.164184
O O4 0.607342 0.534117 0.328891
O O5 0.801206 0.602412 0.387101
O O6 0.787223 0.683504 0.399969
O O7 0.700212 0.595047 0.394801
O O8 0.761537 0.629926 0.261895
O O9 0.636336 0.636336 0.885395
O O10 0.628562 0.722369 0.886665
O O11 0.578716 0.647158 0.000000
O O12 0.205634 0.102817 0.810794
O O13 0.227689 0.062764 0.679427
O O14 0.281594 0.081088 0.818455
O O15 0.183638 0.000000 0.808570
O O16 0.171743 0.234844 0.500000
O O17 0.247690 0.247690 0.597545
O O18 0.620876 0.556914 0.500000
O O19 0.623607 0.623607 0.389559
O O20 0.175665 0.824336 0.866831
#
# Coordination Sequence:
#
# PCOD9587067 Si02
#       7
#    24  24  24  24  24  24  24
#     4   9  18  32  47  62  84 113 145 185 220 243
#     4  10  18  26  38  57  83 114 146 180 220 265
#     4  10  19  30  47  68  88 115 149 182 218 259
#     4   9  17  27  40  56  76 106 141 181 227 275
#     4   9  16  24  34  50  74 104 139 178 219 265
#     4  10  19  29  43  62  84 116 155 187 220 261
#     4   9  17  29  44  62  85 115 147 177 216 266
#
# _framework density 14.659181
#
# number of rings (size 3 to 8) (size 9 to 14) (size 15 to 20)
#    0.000    2.571    1.429    2.571    0.000    5.143 
#    0.000    2.857    0.000    0.143    0.000    0.000 
#    0.000    0.000    0.000    7.000    0.000    7.429 
#
# Total GULP energy -935292.659152 kJ/mol
# GULP energy per Si atom -5567.218209 kJ/mol
# Density = 1.462582 g / cm^3
# Si number density = 14.659181 Si / 1000 Ang^3
#
#
#
# Elastic Constant Matrix: (Units=GPa)
#
#
# Indices 1 2 3 4 5 6 
#
# 1 73.9843 38.3043 29.3476 0.0000 0.0000 0.0000
# 2 38.3043 73.9843 29.3476 0.0000 0.0000 0.0000
# 3 29.3476 29.3476 53.9865 0.0000 0.0000 0.0000
# 4 0.0000 0.0000 0.0000 5.9818 0.0000 0.0000
# 5 0.0000 0.0000 0.0000 0.0000 5.9818 0.0000
# 6 0.0000 0.0000 0.0000 0.0000 0.0000 17.8400
#
#
#
# Elastic Compliance Matrix: (Units=1/GPa)
#
#
# Indices 1 2 3 4 5 6 
#
# 1 0.020234 -0.007793 -0.006763 0.000000 0.000000 0.000000
# 2 -0.007793 0.020234 -0.006763 0.000000 0.000000 0.000000
# 3 -0.006763 -0.006763 0.025876 0.000000 0.000000 0.000000
# 4 0.000000 0.000000 0.000000 0.167174 0.000000 0.000000
# 5 0.000000 0.000000 0.000000 0.000000 0.167174 0.000000
# 6 0.000000 0.000000 0.000000 0.000000 0.000000 0.056054
#
#
# Mechanical properties :
#
#
# Convention : Reuss Voigt Hill
#
# Bulk Modulus (GPa) = 42.18388 43.99491 43.08939
# Shear Modulus (GPa) = 9.85640 12.95776 11.40708
#
# Velocity S-wave (km/s) = 2.59582 2.97633 2.79257
# Velocity P-wave (km/s) = 6.15006 6.47212 6.31315
#
# Compressibility (1/GPa) = 0.02370574
#
# Stress axis : x y z
#
# Youngs Moduli (GPa) = 49.42226 49.42226 38.64595
#
# Poissons Ratio (x) = 0.38515 0.26136
# Poissons Ratio (y) = 0.38515 0.26136
# Poissons Ratio (z) = 0.33424 0.33424
#
# Static dielectric constant tensor:
#      x y z
#    x 1.482230 0.000000 0.000000 
#    y 0.000000 1.482230 0.000000 
#    z 0.000000 0.000000 1.517000 
# 
# From -- ./inp_files/5374.got.cif
#   From: 2010.05.17/outbox.cif.g08.bks.cpg/sg191_3_cif.got.tgz:5374.got - 2010.05.20 12:20:32.
