data_PCOD9587864
_publ_section_title
;
Structure prediction by ZEFSAII (Michael W. Deem and Ramdas Pophale) SiO2 
 PCOD9587864
Probable space group: P 6/M M M
;
_chemical_formula_sum "Si O2"
_cell_formula_units_Z 108
_cell_length_a 22.385694
_cell_length_b 22.385694
_cell_length_c 16.639946
_cell_angle_alpha 90.000000
_cell_angle_beta 90.000000
_cell_angle_gamma 120.000000
_cell_volume 7221.437720
_symmetry_space_group_name_H-M "P 6/M M M"
_symmetry_group_IT_number 191
_symmetry_cell_setting 'hexagonal'
loop_
_space_group_symop_operation_xyz
x,y,z
x-y,x,z
-y,x-y,z
-x,-y,z
-x+y,-x,z
y,-x+y,z
x-y,-y,-z
-x,-x+y,-z
y,x,-z
-y,-x,-z
-x+y,y,-z
x,x-y,-z
-x,-y,-z
-x+y,-x,-z
y,-x+y,-z
x,y,-z
x-y,x,-z
-y,x-y,-z
-x+y,y,z
x,x-y,z
-y,-x,z
y,x,z
x-y,-y,z
-x,-x+y,z
loop_
_atom_site_type_symbol
_atom_site_label
_atom_site_fract_x
_atom_site_fract_y
_atom_site_fract_z
Si Si1 0.333386 0.528016 0.817857
Si Si2 0.388274 0.467081 0.500000
Si Si3 0.158548 0.079274 0.901976
Si Si4 0.332697 0.526354 0.373750
Si Si5 0.841728 0.683455 0.902439
Si Si6 0.919553 0.600976 0.096945
O O1 0.259936 0.519872 0.841772
O O2 0.394640 0.605361 0.833121
O O3 0.331591 0.515615 0.722019
O O4 0.346998 0.473484 0.864050
O O5 0.405124 0.405124 0.500000
O O6 0.462769 0.537232 0.500000
O O7 0.348529 0.474204 0.423040
O O8 0.118771 0.118771 0.876403
O O9 0.237557 0.118779 0.875323
O O10 0.158932 0.079466 0.000000
O O11 0.260795 0.521589 0.396726
O O12 0.396525 0.603476 0.390280
O O13 0.761874 0.644893 0.878067
O O14 0.842047 0.684094 0.000000
O O15 0.000000 0.639784 0.119779
O O16 0.916162 0.595527 0.000000
#
# Coordination Sequence:
#
# PCOD9587864 Si02
#       6
#    24  12  12  24  12  24
#     4  10  20  34  50  68  90 117 150 190 237 282
#     4   9  17  28  42  64  94 123 146 170 208 258
#     4   9  15  22  35  58  86 112 137 169 213 265
#     4   9  17  29  47  68  90 116 147 183 220 262
#     4   9  16  29  46  61  82 111 145 181 220 267
#     4  10  20  33  49  67  87 115 152 193 234 276
#
# _framework density 14.955470999999999
#
# number of rings (size 3 to 8) (size 9 to 14) (size 15 to 20)
#    0.000    2.556    1.111    1.556    0.000    6.667 
#    0.000    4.444    0.000    1.333    0.000    0.000 
#    0.000    0.000    0.000    0.000    0.000    0.000 
#
# Total GULP energy -601794.845110 kJ/mol
# GULP energy per Si atom -5572.174492 kJ/mol
# Density = 1.492143 g / cm^3
# Si number density = 14.955471 Si / 1000 Ang^3
#
#
#
# Elastic Constant Matrix: (Units=GPa)
#
#
# Indices 1 2 3 4 5 6 
#
# 1 91.8268 39.4160 26.4461 0.0000 0.0000 0.0000
# 2 39.4160 91.8268 26.4461 0.0000 0.0000 0.0000
# 3 26.4461 26.4461 20.0279 0.0000 0.0000 0.0000
# 4 0.0000 0.0000 0.0000 15.6597 0.0000 0.0000
# 5 0.0000 0.0000 0.0000 0.0000 15.6597 0.0000
# 6 0.0000 0.0000 0.0000 0.0000 0.0000 26.2054
#
#
#
# Elastic Compliance Matrix: (Units=1/GPa)
#
#
# Indices 1 2 3 4 5 6 
#
# 1 0.017683 -0.001397 -0.021506 0.000000 0.000000 0.000000
# 2 -0.001397 0.017683 -0.021506 0.000000 0.000000 0.000000
# 3 -0.021506 -0.021506 0.106725 0.000000 0.000000 0.000000
# 4 0.000000 0.000000 0.000000 0.063858 0.000000 0.000000
# 5 0.000000 0.000000 0.000000 0.000000 0.063858 0.000000
# 6 0.000000 0.000000 0.000000 0.000000 0.000000 0.038160
#
#
# Mechanical properties :
#
#
# Convention : Reuss Voigt Hill
#
# Bulk Modulus (GPa) = 18.77038 43.14423 30.95730
# Shear Modulus (GPa) = 12.06148 18.92986 15.49567
#
# Velocity S-wave (km/s) = 2.84296 3.56160 3.22237
# Velocity P-wave (km/s) = 4.83267 6.76937 5.88129
#
# Compressibility (1/GPa) = 0.05327543
#
# Stress axis : x y z
#
# Youngs Moduli (GPa) = 56.55064 56.55064 9.36985
#
# Poissons Ratio (x) = 0.07899 0.20151
# Poissons Ratio (y) = 0.07899 0.20151
# Poissons Ratio (z) = 1.21616 1.21616
#
# Static dielectric constant tensor:
#      x y z
#    x 1.490730 0.000000 0.000000 
#    y 0.000000 1.490730 0.000000 
#    z 0.000000 0.000000 1.491630 
# 
# From -- ./inp_files/6190.got.cif
#   From: 2010.05.17/outbox.cif.g08.bks.cpg/sg191_4_cif.got.tgz:6190.got - 2010.05.20 12:20:32.
