data_PCOD9587289
_publ_section_title
;
Structure prediction by ZEFSAII (Michael W. Deem and Ramdas Pophale) SiO2 
 PCOD9587289
Probable space group: P 6/M M M
;
_chemical_formula_sum "Si O2"
_cell_formula_units_Z 108
_cell_length_a 18.749631
_cell_length_b 18.749631
_cell_length_c 22.077724
_cell_angle_alpha 90.000000
_cell_angle_beta 90.000000
_cell_angle_gamma 120.000000
_cell_volume 6721.564673
_symmetry_space_group_name_H-M "P 6/M M M"
_symmetry_group_IT_number 191
_symmetry_cell_setting 'hexagonal'
loop_
_space_group_symop_operation_xyz
x,y,z
x-y,x,z
-y,x-y,z
-x,-y,z
-x+y,-x,z
y,-x+y,z
x-y,-y,-z
-x,-x+y,-z
y,x,-z
-y,-x,-z
-x+y,y,-z
x,x-y,-z
-x,-y,-z
-x+y,-x,-z
y,-x+y,-z
x,y,-z
x-y,x,-z
-y,x-y,-z
-x+y,y,z
x,x-y,z
-y,-x,z
y,x,z
x-y,-y,z
-x,-x+y,z
loop_
_atom_site_type_symbol
_atom_site_label
_atom_site_fract_x
_atom_site_fract_y
_atom_site_fract_z
Si Si1 0.468437 0.369715 0.891956
Si Si2 0.371074 0.466471 0.630517
Si Si3 0.807906 0.192095 0.572613
Si Si4 0.260513 0.359730 0.000000
Si Si5 0.167346 0.666703 0.240887
Si Si6 0.095885 0.191769 0.426324
O O1 0.563625 0.436376 0.907878
O O2 0.421961 0.421961 0.889212
O O3 0.419483 0.300856 0.942015
O O4 0.466520 0.335405 0.825179
O O5 0.438298 0.561703 0.616723
O O6 0.412925 0.412925 0.613721
O O7 0.284704 0.431057 0.597471
O O8 0.356494 0.461908 0.703004
O O9 0.807399 0.192602 0.500000
O O10 0.856119 0.143882 0.592194
O O11 0.294196 0.294196 0.000000
O O12 0.162573 0.325146 0.000000
O O13 0.192673 0.596337 0.239665
O O14 0.245524 0.754477 0.253179
O O15 0.143941 0.143941 0.406928
O O16 0.095446 0.190892 0.500000
#
# Coordination Sequence:
#
# PCOD9587289 Si02
#       6
#    24  24  12  12  24  12
#     4   9  17  29  47  71 100 134 168 201 241 293
#     4  10  21  37  55  74  99 133 172 211 252 299
#     4  11  22  37  54  77 102 129 164 209 258 309
#     4  10  19  31  47  70 101 135 172 214 257 301
#     4  10  18  30  48  71  98 130 168 207 245 284
#     4   9  17  30  51  78 106 132 157 190 239 305
#
# _framework density 16.067688
#
# number of rings (size 3 to 8) (size 9 to 14) (size 15 to 20)
#    0.000    2.222    1.111    2.667    0.000    6.222 
#    0.667    1.111    0.000    3.222    0.000    0.000 
#    0.000    0.000    0.000    0.000    0.000    0.000 
#
# Total GULP energy -601898.059275 kJ/mol
# GULP energy per Si atom -5573.130178 kJ/mol
# Density = 1.603112 g / cm^3
# Si number density = 16.067688 Si / 1000 Ang^3
#
#
#
# Elastic Constant Matrix: (Units=GPa)
#
#
# Indices 1 2 3 4 5 6 
#
# 1 100.1302 65.8345 36.6593 0.0000 0.0000 0.0000
# 2 65.8345 100.1302 36.6593 0.0000 0.0000 0.0000
# 3 36.6593 36.6593 57.6914 0.0000 0.0000 0.0000
# 4 0.0000 0.0000 0.0000 20.4668 0.0000 0.0000
# 5 0.0000 0.0000 0.0000 0.0000 20.4668 0.0000
# 6 0.0000 0.0000 0.0000 0.0000 0.0000 17.1478
#
#
#
# Elastic Compliance Matrix: (Units=1/GPa)
#
#
# Indices 1 2 3 4 5 6 
#
# 1 0.018768 -0.010391 -0.005323 0.000000 0.000000 0.000000
# 2 -0.010391 0.018768 -0.005323 0.000000 0.000000 0.000000
# 3 -0.005323 -0.005323 0.024099 0.000000 0.000000 0.000000
# 4 0.000000 0.000000 0.000000 0.048860 0.000000 0.000000
# 5 0.000000 0.000000 0.000000 0.000000 0.048860 0.000000
# 6 0.000000 0.000000 0.000000 0.000000 0.000000 0.058316
#
#
# Mechanical properties :
#
#
# Convention : Reuss Voigt Hill
#
# Bulk Modulus (GPa) = 51.12398 59.58421 55.35410
# Shear Modulus (GPa) = 18.77845 19.53620 19.15732
#
# Velocity S-wave (km/s) = 3.42235 3.49071 3.45670
# Velocity P-wave (km/s) = 6.89228 7.30825 7.10331
#
# Compressibility (1/GPa) = 0.01956029
#
# Stress axis : x y z
#
# Youngs Moduli (GPa) = 53.28340 53.28340 41.49632
#
# Poissons Ratio (x) = 0.55365 0.22089
# Poissons Ratio (y) = 0.55365 0.22089
# Poissons Ratio (z) = 0.28363 0.28363
#
# Static dielectric constant tensor:
#      x y z
#    x 1.530340 0.000000 0.000000 
#    y 0.000000 1.530340 0.000000 
#    z 0.000000 0.000000 1.540660 
# 
# From -- ./inp_files/8430.got.cif
#   From: 2010.05.17/outbox.cif.g08.bks.cpg/sg191_5_cif.got.tgz:8430.got - 2010.05.20 12:20:32.
