data_PCOD9587478
_publ_section_title
;
Structure prediction by ZEFSAII (Michael W. Deem and Ramdas Pophale) SiO2 
 PCOD9587478
Probable space group: P 6/M M M
;
_chemical_formula_sum "Si O2"
_cell_formula_units_Z 132
_cell_length_a 18.107493
_cell_length_b 18.107493
_cell_length_c 28.627179
_cell_angle_alpha 90.000000
_cell_angle_beta 90.000000
_cell_angle_gamma 120.000000
_cell_volume 8128.788749
_symmetry_space_group_name_H-M "P 6/M M M"
_symmetry_group_IT_number 191
_symmetry_cell_setting 'hexagonal'
loop_
_space_group_symop_operation_xyz
x,y,z
x-y,x,z
-y,x-y,z
-x,-y,z
-x+y,-x,z
y,-x+y,z
x-y,-y,-z
-x,-x+y,-z
y,x,-z
-y,-x,-z
-x+y,y,-z
x,x-y,-z
-x,-y,-z
-x+y,-x,-z
y,-x+y,-z
x,y,-z
x-y,x,-z
-y,x-y,-z
-x+y,y,z
x,x-y,z
-y,-x,z
y,x,z
x-y,-y,z
-x,-x+y,z
loop_
_atom_site_type_symbol
_atom_site_label
_atom_site_fract_x
_atom_site_fract_y
_atom_site_fract_z
Si Si1 0.102989 0.467828 0.774602
Si Si2 0.901058 0.267224 0.685338
Si Si3 0.540867 0.902978 0.500000
Si Si4 0.160136 0.493885 0.945788
Si Si5 0.098422 0.364723 0.862920
Si Si6 0.836258 0.505030 0.601616
O O1 0.137238 0.568619 0.774384
O O2 0.124314 0.432211 0.728432
O O3 0.125026 0.432765 0.820745
O O4 0.000000 0.421667 0.774826
O O5 0.833199 0.166802 0.684056
O O6 0.888816 0.309233 0.638479
O O7 0.000000 0.295089 0.690779
O O8 0.452237 0.904474 0.500000
O O9 0.538922 0.858822 0.451404
O O10 0.616288 0.000000 0.500000
O O11 0.258929 0.517857 0.941895
O O12 0.150405 0.575203 0.934123
O O13 0.108856 0.416730 0.910414
O O14 0.135080 0.470957 0.000000
O O15 0.166017 0.332034 0.863943
O O16 0.000000 0.293656 0.856237
O O17 0.737233 0.474465 0.609767
O O18 0.853751 0.426876 0.607420
#
# Coordination Sequence:
#
# PCOD9587478 Si02
#       6
#    24  24  12  24  24  24
#     4   9  17  30  49  72  96 121 149 180 216 263
#     4  10  20  33  50  71  94 122 156 195 237 279
#     4   9  17  28  42  60  84 119 161 197 227 264
#     4   9  17  29  46  69  97 127 156 186 223 270
#     4  10  20  33  49  69  93 122 157 197 239 280
#     4  10  19  30  45  66  93 124 157 193 232 274
#
# _framework density 16.238581
#
# number of rings (size 3 to 8) (size 9 to 14) (size 15 to 20)
#    0.000    2.455    0.000    2.818    0.000    4.000 
#    0.000    1.818    0.000    5.455    0.000    0.000 
#    0.000    4.364    0.000    4.545    0.000   18.909 
#
# Total GULP energy -735797.212435 kJ/mol
# GULP energy per Si atom -5574.221306 kJ/mol
# Density = 1.620162 g / cm^3
# Si number density = 16.238581 Si / 1000 Ang^3
#
#
#
# Elastic Constant Matrix: (Units=GPa)
#
#
# Indices 1 2 3 4 5 6 
#
# 1 77.8366 53.0465 31.0455 0.0000 0.0000 0.0000
# 2 53.0465 77.8366 31.0455 0.0000 0.0000 0.0000
# 3 31.0455 31.0455 83.0601 0.0000 0.0000 0.0000
# 4 0.0000 0.0000 0.0000 19.4205 0.0000 0.0000
# 5 0.0000 0.0000 0.0000 0.0000 19.4205 0.0000
# 6 0.0000 0.0000 0.0000 0.0000 0.0000 12.3950
#
#
#
# Elastic Compliance Matrix: (Units=1/GPa)
#
#
# Indices 1 2 3 4 5 6 
#
# 1 0.024813 -0.015526 -0.003471 0.000000 0.000000 0.000000
# 2 -0.015526 0.024813 -0.003471 0.000000 0.000000 0.000000
# 3 -0.003471 -0.003471 0.014634 0.000000 0.000000 0.000000
# 4 0.000000 0.000000 0.000000 0.051492 0.000000 0.000000
# 5 0.000000 0.000000 0.000000 0.000000 0.051492 0.000000
# 6 0.000000 0.000000 0.000000 0.000000 0.000000 0.080677
#
#
# Mechanical properties :
#
#
# Convention : Reuss Voigt Hill
#
# Bulk Modulus (GPa) = 51.75010 52.11205 51.93107
# Shear Modulus (GPa) = 16.70567 18.48693 17.59630
#
# Velocity S-wave (km/s) = 3.21091 3.37776 3.29540
# Velocity P-wave (km/s) = 6.75903 6.88284 6.82122
#
# Compressibility (1/GPa) = 0.01932364
#
# Stress axis : x y z
#
# Youngs Moduli (GPa) = 40.30152 40.30152 68.33208
#
# Poissons Ratio (x) = 0.62571 0.23720
# Poissons Ratio (y) = 0.62571 0.23720
# Poissons Ratio (z) = 0.13990 0.13990
#
# Static dielectric constant tensor:
#      x y z
#    x 1.540420 0.000000 0.000000 
#    y 0.000000 1.540420 0.000000 
#    z 0.000000 0.000000 1.559180 
# 
# From -- ./inp_files/9773.got.cif
#   From: 2010.05.17/outbox.cif.g08.bks.cpg/sg191_5_cif.got.tgz:9773.got - 2010.05.20 12:20:32.
