data_PCOD9587238
_publ_section_title
;
Structure prediction by ZEFSAII (Michael W. Deem and Ramdas Pophale) SiO2 
 PCOD9587238
Probable space group: P 6/M M M
;
_chemical_formula_sum "Si O2"
_cell_formula_units_Z 96
_cell_length_a 29.021040
_cell_length_b 29.021040
_cell_length_c 8.650970
_cell_angle_alpha 90.000000
_cell_angle_beta 90.000000
_cell_angle_gamma 120.000000
_cell_volume 6309.884086
_symmetry_space_group_name_H-M "P 6/M M M"
_symmetry_group_IT_number 191
_symmetry_cell_setting 'hexagonal'
loop_
_space_group_symop_operation_xyz
x,y,z
x-y,x,z
-y,x-y,z
-x,-y,z
-x+y,-x,z
y,-x+y,z
x-y,-y,-z
-x,-x+y,-z
y,x,-z
-y,-x,-z
-x+y,y,-z
x,x-y,-z
-x,-y,-z
-x+y,-x,-z
y,-x+y,-z
x,y,-z
x-y,x,-z
-y,x-y,-z
-x+y,y,z
x,x-y,z
-y,-x,z
y,x,z
x-y,-y,z
-x,-x+y,z
loop_
_atom_site_type_symbol
_atom_site_label
_atom_site_fract_x
_atom_site_fract_y
_atom_site_fract_z
Si Si1 0.704759 0.000000 0.186782
Si Si2 0.780252 0.663734 0.186885
Si Si3 0.399028 0.000000 0.315672
Si Si4 0.455500 0.175173 0.684994
Si Si5 0.105854 0.499433 0.814969
O O1 0.755867 0.055428 0.235821
O O2 0.652427 0.000000 0.247014
O O3 0.703185 0.000000 0.000000
O O4 0.840447 0.680894 0.233491
O O5 0.742854 0.604626 0.253301
O O6 0.777707 0.660021 0.000000
O O7 0.451770 0.052307 0.258106
O O8 0.396366 0.000000 0.500000
O O9 0.455143 0.170380 0.500000
O O10 0.470898 0.235449 0.724584
O O11 0.492052 0.154292 0.757908
O O12 0.111833 0.555917 0.772159
O O13 0.101462 0.493990 0.000000
#
# Coordination Sequence:
#
# PCOD9587238 Si02
#       5
#    12  24  12  24  24
#     4  10  18  29  47  68  96 129 161 196 232 277
#     4   9  17  29  46  67  92 125 160 192 230 276
#     4  12  23  33  48  71  98 128 158 193 239 286
#     4  10  20  33  50  72  95 118 148 189 234 282
#     4  11  23  37  52  70  94 125 159 195 237 287
#
# _framework density 15.214225000000001
#
# number of rings (size 3 to 8) (size 9 to 14) (size 15 to 20)
#    0.000    1.750    2.500    3.000    0.000    5.000 
#    0.000    0.000    0.000    0.500    0.000    0.000 
#    0.000    0.000    0.000    0.375    0.000   12.000 
#
# Total GULP energy -535747.131676 kJ/mol
# GULP energy per Si atom -5580.699288 kJ/mol
# Density = 1.517960 g / cm^3
# Si number density = 15.214225 Si / 1000 Ang^3
#
#
#
# Elastic Constant Matrix: (Units=GPa)
#
#
# Indices 1 2 3 4 5 6 
#
# 1 112.9567 65.9852 21.8232 0.0000 0.0000 0.0000
# 2 65.9852 112.9567 21.8232 0.0000 0.0000 0.0000
# 3 21.8232 21.8232 18.5161 0.0000 0.0000 0.0000
# 4 0.0000 0.0000 0.0000 8.4903 0.0000 0.0000
# 5 0.0000 0.0000 0.0000 0.0000 8.4903 0.0000
# 6 0.0000 0.0000 0.0000 0.0000 0.0000 23.4858
#
#
#
# Elastic Compliance Matrix: (Units=1/GPa)
#
#
# Indices 1 2 3 4 5 6 
#
# 1 0.014566 -0.006723 -0.009244 0.000000 0.000000 0.000000
# 2 -0.006723 0.014566 -0.009244 0.000000 0.000000 0.000000
# 3 -0.009244 -0.009244 0.075797 0.000000 0.000000 0.000000
# 4 0.000000 0.000000 0.000000 0.117782 0.000000 0.000000
# 5 0.000000 0.000000 0.000000 0.000000 0.117782 0.000000
# 6 0.000000 0.000000 0.000000 0.000000 0.000000 0.042579
#
#
# Mechanical properties :
#
#
# Convention : Reuss Voigt Hill
#
# Bulk Modulus (GPa) = 18.34612 51.52138 34.93375
# Shear Modulus (GPa) = 11.07019 17.07980 14.07499
#
# Velocity S-wave (km/s) = 2.70037 3.35419 3.04488
# Velocity P-wave (km/s) = 4.66984 6.99559 5.94750
#
# Compressibility (1/GPa) = 0.05450742
#
# Stress axis : x y z
#
# Youngs Moduli (GPa) = 68.65157 68.65157 13.19314
#
# Poissons Ratio (x) = 0.46156 0.12196
# Poissons Ratio (y) = 0.46156 0.12196
# Poissons Ratio (z) = 0.63461 0.63461
#
# Static dielectric constant tensor:
#      x y z
#    x 1.504280 0.000000 0.000000 
#    y 0.000000 1.504280 0.000000 
#    z 0.000000 0.000000 1.506620 
# 
# From -- ./inp_files/1567.got.cif
#   From: 2010.05.17/outbox.cif.g08.bks.cpg/sg191_1_cif.got.tgz:1567.got - 2010.05.20 12:20:32.
