data_PCOD9587630
_publ_section_title
;
Structure prediction by ZEFSAII (Michael W. Deem and Ramdas Pophale) SiO2 
 PCOD9587630
Probable space group: P 6/M M M
;
_chemical_formula_sum "Si O2"
_cell_formula_units_Z 132
_cell_length_a 17.930197
_cell_length_b 17.930197
_cell_length_c 28.898755
_cell_angle_alpha 90.000000
_cell_angle_beta 90.000000
_cell_angle_gamma 120.000000
_cell_volume 8045.997388
_symmetry_space_group_name_H-M "P 6/M M M"
_symmetry_group_IT_number 191
_symmetry_cell_setting 'hexagonal'
loop_
_space_group_symop_operation_xyz
x,y,z
x-y,x,z
-y,x-y,z
-x,-y,z
-x+y,-x,z
y,-x+y,z
x-y,-y,-z
-x,-x+y,-z
y,x,-z
-y,-x,-z
-x+y,y,-z
x,x-y,-z
-x,-y,-z
-x+y,-x,-z
y,-x+y,-z
x,y,-z
x-y,x,-z
-y,x-y,-z
-x+y,y,z
x,x-y,z
-y,-x,z
y,x,z
x-y,-y,z
-x,-x+y,z
loop_
_atom_site_type_symbol
_atom_site_label
_atom_site_fract_x
_atom_site_fract_y
_atom_site_fract_z
Si Si1 0.900098 0.633704 0.053154
Si Si2 0.630573 0.733237 0.770934
Si Si3 0.895984 0.364354 0.139158
Si Si4 0.103874 0.467484 0.680731
Si Si5 0.332608 0.842743 0.500000
Si Si6 0.899256 0.270530 0.589596
O O1 0.834988 0.669975 0.058125
O O2 0.873209 0.558952 0.090752
O O3 0.000000 0.703271 0.061392
O O4 0.893212 0.603251 0.000000
O O5 0.671376 0.835688 0.769243
O O6 0.697484 0.697484 0.770195
O O7 0.573613 0.697751 0.817298
O O8 0.567367 0.692220 0.727057
O O9 0.861055 0.430528 0.143806
O O10 0.000000 0.421707 0.139164
O O11 0.138757 0.569379 0.680339
O O12 0.125223 0.431542 0.634967
O O13 0.000000 0.421297 0.680665
O O14 0.257570 0.742431 0.500000
O O15 0.426249 0.852498 0.500000
O O16 0.316080 0.884967 0.454865
O O17 0.831159 0.168842 0.585830
O O18 0.000000 0.299365 0.592701
#
# Coordination Sequence:
#
# PCOD9587630 Si02
#       6
#    24  24  24  24  12  24
#     4   9  17  29  46  68  93 122 157 195 232 271
#     4  10  19  31  49  72  97 126 161 199 236 275
#     4   9  17  29  46  67  88 112 146 188 232 278
#     4   9  17  30  49  71  93 119 153 192 233 279
#     4  10  20  33  50  73 100 128 157 192 236 285
#     4  10  20  33  50  72  97 127 163 201 239 280
#
# _framework density 16.405671999999999
#
# number of rings (size 3 to 8) (size 9 to 14) (size 15 to 20)
#    0.000    2.545    0.000    2.545    0.000    4.000 
#    0.000    1.818    0.000   11.818    0.000    1.273 
#    0.000   10.909    0.000    0.182    0.000    1.455 
#
# Total GULP energy -735245.323030 kJ/mol
# GULP energy per Si atom -5570.040326 kJ/mol
# Density = 1.636833 g / cm^3
# Si number density = 16.405672 Si / 1000 Ang^3
#
#
#
# Elastic Constant Matrix: (Units=GPa)
#
#
# Indices 1 2 3 4 5 6 
#
# 1 87.2160 55.8439 39.8275 0.0000 0.0000 0.0000
# 2 55.8439 87.2160 39.8275 0.0000 0.0000 0.0000
# 3 39.8275 39.8275 117.8527 0.0000 0.0000 0.0000
# 4 0.0000 0.0000 0.0000 9.3099 0.0000 0.0000
# 5 0.0000 0.0000 0.0000 0.0000 9.3099 0.0000
# 6 0.0000 0.0000 0.0000 0.0000 0.0000 15.6860
#
#
#
# Elastic Compliance Matrix: (Units=1/GPa)
#
#
# Indices 1 2 3 4 5 6 
#
# 1 0.020243 -0.011633 -0.002910 0.000000 0.000000 0.000000
# 2 -0.011633 0.020243 -0.002910 0.000000 0.000000 0.000000
# 3 -0.002910 -0.002910 0.010452 0.000000 0.000000 0.000000
# 4 0.000000 0.000000 0.000000 0.107412 0.000000 0.000000
# 5 0.000000 0.000000 0.000000 0.000000 0.107412 0.000000
# 6 0.000000 0.000000 0.000000 0.000000 0.000000 0.063751
#
#
# Mechanical properties :
#
#
# Convention : Reuss Voigt Hill
#
# Bulk Modulus (GPa) = 62.37048 62.58692 62.47870
# Shear Modulus (GPa) = 13.52224 17.31358 15.41791
#
# Velocity S-wave (km/s) = 2.87408 3.25213 3.06893
# Velocity P-wave (km/s) = 7.00813 7.23423 7.12208
#
# Compressibility (1/GPa) = 0.01603323
#
# Stress axis : x y z
#
# Youngs Moduli (GPa) = 49.40018 49.40018 95.67699
#
# Poissons Ratio (x) = 0.57465 0.27840
# Poissons Ratio (y) = 0.57465 0.27840
# Poissons Ratio (z) = 0.14374 0.14374
#
# Static dielectric constant tensor:
#      x y z
#    x 1.548170 0.000000 0.000000 
#    y 0.000000 1.548170 0.000000 
#    z 0.000000 0.000000 1.562370 
# 
# From -- ./inp_files/8677.got.cif
#   From: 2010.05.17/outbox.cif.g08.bks.cpg/sg191_5_cif.got.tgz:8677.got - 2010.05.20 12:20:32.
