data_PCOD9587114
_publ_section_title
;
Structure prediction by ZEFSAII (Michael W. Deem and Ramdas Pophale) SiO2 
 PCOD9587114
Probable space group: P 6/M M M
;
_chemical_formula_sum "Si O2"
_cell_formula_units_Z 144
_cell_length_a 21.145320
_cell_length_b 21.145320
_cell_length_c 25.716472
_cell_angle_alpha 90.000000
_cell_angle_beta 90.000000
_cell_angle_gamma 120.000000
_cell_volume 9957.963811
_symmetry_space_group_name_H-M "P 6/M M M"
_symmetry_group_IT_number 191
_symmetry_cell_setting 'hexagonal'
loop_
_space_group_symop_operation_xyz
x,y,z
x-y,x,z
-y,x-y,z
-x,-y,z
-x+y,-x,z
y,-x+y,z
x-y,-y,-z
-x,-x+y,-z
y,x,-z
-y,-x,-z
-x+y,y,-z
x,x-y,-z
-x,-y,-z
-x+y,-x,-z
y,-x+y,-z
x,y,-z
x-y,x,-z
-y,x-y,-z
-x+y,y,z
x,x-y,z
-y,-x,z
y,x,z
x-y,-y,z
-x,-x+y,z
loop_
_atom_site_type_symbol
_atom_site_label
_atom_site_fract_x
_atom_site_fract_y
_atom_site_fract_z
Si Si1 0.485487 0.817993 0.343889
Si Si2 0.083576 0.618581 0.559100
Si Si3 0.184696 0.664797 0.851982
Si Si4 0.331502 0.165751 0.062771
Si Si5 0.663542 0.577160 0.937880
Si Si6 0.833132 0.916566 0.063531
Si Si7 0.083831 0.618584 0.755996
O O1 0.403865 0.807730 0.343889
O O2 0.481439 0.740720 0.338273
O O3 0.524836 0.858620 0.397290
O O4 0.528617 0.872289 0.296363
O O5 0.100937 0.647246 0.500000
O O6 0.083116 0.541558 0.559259
O O7 0.000000 0.596305 0.571367
O O8 0.206503 0.603252 0.840572
O O9 0.256645 0.743356 0.857285
O O10 0.135331 0.641668 0.903738
O O11 0.132244 0.662210 0.805497
O O12 0.371735 0.250920 0.076286
O O13 0.249371 0.124686 0.082478
O O14 0.328549 0.164275 0.000000
O O15 0.616876 0.616876 0.926180
O O16 0.658274 0.563584 0.000000
O O17 0.875254 0.875254 0.079910
O O18 0.831812 0.915906 0.000000
O O19 0.080134 0.540067 0.758013
O O20 0.000000 0.599673 0.756923
#
# Coordination Sequence:
#
# PCOD9587114 Si02
#       7
#    24  24  24  12  24  12  24
#     4  10  18  27  40  60  87 115 143 177 222 273
#     4   8  14  25  40  56  76 108 150 189 221 256
#     4  11  22  36  52  70  92 115 141 177 225 278
#     4   9  16  29  46  65  88 112 142 174 208 247
#     4  10  20  34  52  71  91 117 148 181 215 257
#     4   9  15  22  35  58  88 118 144 170 202 242
#     4   9  18  32  49  66  83 107 141 179 216 258
#
# _framework density 14.460787
#
# number of rings (size 3 to 8) (size 9 to 14) (size 15 to 20)
#    0.000    2.500    0.833    2.917    0.000    6.000 
#    0.000    2.500    0.000    2.000    0.000    0.000 
#    0.000    0.000    0.000    0.000    0.000    0.000 
#
# Total GULP energy -802074.923119 kJ/mol
# GULP energy per Si atom -5569.964744 kJ/mol
# Density = 1.442787 g / cm^3
# Si number density = 14.460787 Si / 1000 Ang^3
#
#
#
# Elastic Constant Matrix: (Units=GPa)
#
#
# Indices 1 2 3 4 5 6 
#
# 1 56.4825 57.6742 38.1320 0.0000 0.0000 0.0000
# 2 57.6742 56.4825 38.1320 0.0000 0.0000 0.0000
# 3 38.1320 38.1320 66.7553 0.0000 0.0000 0.0000
# 4 0.0000 0.0000 0.0000 16.1417 0.0000 0.0000
# 5 0.0000 0.0000 0.0000 0.0000 16.1417 0.0000
# 6 0.0000 0.0000 0.0000 0.0000 0.0000 -0.5959
#
#
#
# Elastic Compliance Matrix: (Units=1/GPa)
#
#
# Indices 1 2 3 4 5 6 
#
# 1 -0.412483 0.426649 -0.008092 0.000000 0.000000 0.000000
# 2 0.426649 -0.412483 -0.008092 0.000000 0.000000 0.000000
# 3 -0.008092 -0.008092 0.024224 0.000000 0.000000 0.000000
# 4 0.000000 0.000000 0.000000 0.061951 0.000000 0.000000
# 5 0.000000 0.000000 0.000000 0.000000 0.061951 0.000000
# 6 0.000000 0.000000 0.000000 0.000000 0.000000 -1.678265
#
#
# Mechanical properties :
#
#
# Convention : Reuss Voigt Hill
#
# Bulk Modulus (GPa) = 49.53229 49.73298 49.63264
# Shear Modulus (GPa) = -1.57763 9.38967 3.90602
#
# Velocity S-wave (km/s) = -1.04563 2.55094 1.64529
# Velocity P-wave (km/s) = 5.73318 6.56831 6.16490
#
# Compressibility (1/GPa) = 0.02018885
#
# Stress axis : x y z
#
# Youngs Moduli (GPa) = -2.42434 -2.42434 41.28076
#
# Poissons Ratio (x) = 1.03434 0.33403
# Poissons Ratio (y) = 1.03434 0.33403
# Poissons Ratio (z) = -0.01962 -0.01962
#
# Static dielectric constant tensor:
#      x y z
#    x 1.474030 0.000000 0.000000 
#    y 0.000000 1.474030 0.000000 
#    z 0.000000 0.000000 1.491050 
# 
# From -- ./inp_files/8925.got.cif
#   From: 2010.05.17/outbox.cif.g08.bks.cpg/sg191_5_cif.got.tgz:8925.got - 2010.05.20 12:20:32.
