data_PCOD9587381
_publ_section_title
;
Structure prediction by ZEFSAII (Michael W. Deem and Ramdas Pophale) SiO2 
 PCOD9587381
Probable space group: P 6/M M M
;
_chemical_formula_sum "Si O2"
_cell_formula_units_Z 108
_cell_length_a 17.989916
_cell_length_b 17.989916
_cell_length_c 23.785329
_cell_angle_alpha 90.000000
_cell_angle_beta 90.000000
_cell_angle_gamma 120.000000
_cell_volume 6666.502798
_symmetry_space_group_name_H-M "P 6/M M M"
_symmetry_group_IT_number 191
_symmetry_cell_setting 'hexagonal'
loop_
_space_group_symop_operation_xyz
x,y,z
x-y,x,z
-y,x-y,z
-x,-y,z
-x+y,-x,z
y,-x+y,z
x-y,-y,-z
-x,-x+y,-z
y,x,-z
-y,-x,-z
-x+y,y,-z
x,x-y,-z
-x,-y,-z
-x+y,-x,-z
y,-x+y,-z
x,y,-z
x-y,x,-z
-y,x-y,-z
-x+y,y,z
x,x-y,z
-y,-x,z
y,x,z
x-y,-y,z
-x,-x+y,z
loop_
_atom_site_type_symbol
_atom_site_label
_atom_site_fract_x
_atom_site_fract_y
_atom_site_fract_z
Si Si1 0.509069 0.841571 0.891627
Si Si2 0.729784 0.632565 0.785188
Si Si3 0.271807 0.370240 0.000000
Si Si4 0.100657 0.640205 0.561131
Si Si5 0.669261 0.505427 0.316821
O O1 0.425986 0.851971 0.893129
O O2 0.482390 0.741195 0.891900
O O3 0.565645 0.882436 0.835978
O O4 0.569992 0.883735 0.945429
O O5 0.829613 0.659226 0.787647
O O6 0.708428 0.708428 0.789628
O O7 0.691068 0.580207 0.727525
O O8 0.295016 0.295016 0.000000
O O9 0.171137 0.342274 0.000000
O O10 0.133540 0.682882 0.500000
O O11 0.106508 0.553254 0.560017
O O12 0.144227 0.683909 0.619274
O O13 0.000000 0.608815 0.564393
O O14 0.736469 0.472937 0.305038
O O15 0.572429 0.427572 0.311092
#
# Coordination Sequence:
#
# PCOD9587381 Si02
#       5
#    24  24  12  24  24
#     4  10  20  33  50  73 102 134 165 195 227 265
#     4  10  21  35  51  71  93 119 151 189 233 277
#     4  10  21  35  51  72  97 127 162 202 247 289
#     4   8  14  25  40  56  75 105 149 197 237 269
#     4  10  19  29  42  62  90 123 157 191 226 265
#
# _framework density 16.200396999999999
#
# number of rings (size 3 to 8) (size 9 to 14) (size 15 to 20)
#    0.000    2.444    0.000    3.444    0.000    4.889 
#    0.000    3.333    0.000    1.667    0.000    0.000 
#    0.000    5.333    0.000    0.000    0.000    0.444 
#
# Total GULP energy -602018.191601 kJ/mol
# GULP energy per Si atom -5574.242515 kJ/mol
# Density = 1.616352 g / cm^3
# Si number density = 16.200397 Si / 1000 Ang^3
#
#
#
# Elastic Constant Matrix: (Units=GPa)
#
#
# Indices 1 2 3 4 5 6 
#
# 1 83.8635 66.5975 36.8769 0.0000 0.0000 0.0000
# 2 66.5975 83.8635 36.8769 0.0000 0.0000 0.0000
# 3 36.8769 36.8769 111.7624 0.0000 0.0000 0.0000
# 4 0.0000 0.0000 0.0000 6.1062 0.0000 0.0000
# 5 0.0000 0.0000 0.0000 0.0000 6.1062 0.0000
# 6 0.0000 0.0000 0.0000 0.0000 0.0000 8.6330
#
#
#
# Elastic Compliance Matrix: (Units=1/GPa)
#
#
# Indices 1 2 3 4 5 6 
#
# 1 0.032923 -0.024994 -0.002616 0.000000 0.000000 0.000000
# 2 -0.024994 0.032923 -0.002616 0.000000 0.000000 0.000000
# 3 -0.002616 -0.002616 0.010674 0.000000 0.000000 0.000000
# 4 0.000000 0.000000 0.000000 0.163768 0.000000 0.000000
# 5 0.000000 0.000000 0.000000 0.000000 0.163768 0.000000
# 6 0.000000 0.000000 0.000000 0.000000 0.000000 0.115835
#
#
# Mechanical properties :
#
#
# Convention : Reuss Voigt Hill
#
# Bulk Modulus (GPa) = 62.24033 62.24359 62.24196
# Shear Modulus (GPa) = 8.53681 13.44495 10.99088
#
# Velocity S-wave (km/s) = 2.29803 2.88395 2.60750
# Velocity P-wave (km/s) = 6.74861 7.04230 6.89702
#
# Compressibility (1/GPa) = 0.01606675
#
# Stress axis : x y z
#
# Youngs Moduli (GPa) = 30.37392 30.37392 93.68586
#
# Poissons Ratio (x) = 0.75918 0.24509
# Poissons Ratio (y) = 0.75918 0.24509
# Poissons Ratio (z) = 0.07946 0.07946
#
# Static dielectric constant tensor:
#      x y z
#    x 1.530370 0.000000 0.000000 
#    y 0.000000 1.530370 0.000000 
#    z 0.000000 0.000000 1.573840 
# 
# From -- ./inp_files/7312.got.cif
#   From: 2010.05.17/outbox.cif.g08.bks.cpg/sg191_4_cif.got.tgz:7312.got - 2010.05.20 12:20:32.
