data_PCOD9587615
_publ_section_title
;
Structure prediction by ZEFSAII (Michael W. Deem and Ramdas Pophale) SiO2 
 PCOD9587615
Probable space group: P 6/M M M
;
_chemical_formula_sum "Si O2"
_cell_formula_units_Z 132
_cell_length_a 18.086424
_cell_length_b 18.086424
_cell_length_c 29.203411
_cell_angle_alpha 90.000000
_cell_angle_beta 90.000000
_cell_angle_gamma 120.000000
_cell_volume 8273.125794
_symmetry_space_group_name_H-M "P 6/M M M"
_symmetry_group_IT_number 191
_symmetry_cell_setting 'hexagonal'
loop_
_space_group_symop_operation_xyz
x,y,z
x-y,x,z
-y,x-y,z
-x,-y,z
-x+y,-x,z
y,-x+y,z
x-y,-y,-z
-x,-x+y,-z
y,x,-z
-y,-x,-z
-x+y,y,-z
x,x-y,-z
-x,-y,-z
-x+y,-x,-z
y,-x+y,-z
x,y,-z
x-y,x,-z
-y,x-y,-z
-x+y,y,z
x,x-y,z
-y,-x,z
y,x,z
x-y,-y,z
-x,-x+y,z
loop_
_atom_site_type_symbol
_atom_site_label
_atom_site_fract_x
_atom_site_fract_y
_atom_site_fract_z
Si Si1 0.589447 0.000000 0.552127
Si Si2 0.157210 0.667835 0.617739
Si Si3 0.830297 0.830297 0.944291
Si Si4 0.899384 0.268146 0.705710
Si Si5 0.898222 0.533475 0.795026
Si Si6 0.000000 0.341199 0.945124
Si Si7 0.162110 0.668798 0.103041
O O1 0.652380 0.085674 0.579889
O O2 0.500000 0.000000 0.550608
O O3 0.617070 0.000000 0.500000
O O4 0.163544 0.581772 0.620355
O O5 0.249356 0.750645 0.608112
O O6 0.123217 0.685320 0.665331
O O7 0.829832 0.914916 0.928825
O O8 0.744877 0.744877 0.930866
O O9 0.832118 0.832118 0.000000
O O10 0.832624 0.167377 0.701220
O O11 0.882033 0.300912 0.753729
O O12 0.000000 0.299522 0.703422
O O13 0.874941 0.437471 0.781661
O O14 0.853638 0.528815 0.842915
O O15 0.000000 0.585080 0.803817
O O16 0.083027 0.421670 0.924865
O O17 0.000000 0.344797 0.000000
O O18 0.166779 0.583390 0.097052
O O19 0.248710 0.751290 0.088374
#
# Coordination Sequence:
#
# PCOD9587615 Si02
#       7
#    12  24  12  24  24  12  24
#     4   9  18  32  47  64  92 132 175 217 261 304
#     4  10  19  31  48  72 101 134 171 212 258 308
#     4   9  17  31  53  80 104 124 149 188 240 294
#     4  10  19  31  50  76 104 134 167 206 251 302
#     4   9  17  31  52  77 104 134 164 196 240 296
#     4  11  23  39  56  74  98 132 171 208 250 303
#     4  11  22  37  55  77 103 133 169 209 251 296
#
# _framework density 15.955275
#
# number of rings (size 3 to 8) (size 9 to 14) (size 15 to 20)
#    0.000    2.091    1.818    2.364    0.000    3.273 
#    0.000    0.000    0.000    8.182    0.000    0.000 
#    0.000    0.000    0.000    0.000    0.000    8.273 
#
# Total GULP energy -736195.699891 kJ/mol
# GULP energy per Si atom -5577.240151 kJ/mol
# Density = 1.591896 g / cm^3
# Si number density = 15.955275 Si / 1000 Ang^3
#
#
#
# Elastic Constant Matrix: (Units=GPa)
#
#
# Indices 1 2 3 4 5 6 
#
# 1 126.5990 78.7419 56.3901 0.0000 0.0000 0.0000
# 2 78.7419 126.5990 56.3901 0.0000 0.0000 0.0000
# 3 56.3901 56.3901 69.5792 0.0000 0.0000 0.0000
# 4 0.0000 0.0000 0.0000 13.4669 0.0000 0.0000
# 5 0.0000 0.0000 0.0000 0.0000 13.4669 0.0000
# 6 0.0000 0.0000 0.0000 0.0000 0.0000 23.9285
#
#
#
# Elastic Compliance Matrix: (Units=1/GPa)
#
#
# Indices 1 2 3 4 5 6 
#
# 1 0.014836 -0.006059 -0.007113 0.000000 0.000000 0.000000
# 2 -0.006059 0.014836 -0.007113 0.000000 0.000000 0.000000
# 3 -0.007113 -0.007113 0.025902 0.000000 0.000000 0.000000
# 4 0.000000 0.000000 0.000000 0.074256 0.000000 0.000000
# 5 0.000000 0.000000 0.000000 0.000000 0.074256 0.000000
# 6 0.000000 0.000000 0.000000 0.000000 0.000000 0.041791
#
#
# Mechanical properties :
#
#
# Convention : Reuss Voigt Hill
#
# Bulk Modulus (GPa) = 66.65414 78.42461 72.53938
# Shear Modulus (GPa) = 17.15569 18.92282 18.03926
#
# Velocity S-wave (km/s) = 3.28264 3.44756 3.36611
# Velocity P-wave (km/s) = 7.49893 8.06889 7.78913
#
# Compressibility (1/GPa) = 0.01500282
#
# Stress axis : x y z
#
# Youngs Moduli (GPa) = 67.40314 67.40314 38.60777
#
# Poissons Ratio (x) = 0.40843 0.27462
# Poissons Ratio (y) = 0.40843 0.27462
# Poissons Ratio (z) = 0.47944 0.47944
#
# Static dielectric constant tensor:
#      x y z
#    x 1.522200 0.000000 0.000000 
#    y 0.000000 1.522200 0.000000 
#    z 0.000000 0.000000 1.530640 
# 
# From -- ./inp_files/8738.got.cif
#   From: 2010.05.17/outbox.cif.g08.bks.cpg/sg191_5_cif.got.tgz:8738.got - 2010.05.20 12:20:32.
