data_PCOD9587663
_publ_section_title
;
Structure prediction by ZEFSAII (Michael W. Deem and Ramdas Pophale) SiO2 
 PCOD9587663
Probable space group: P 6/M M M
;
_chemical_formula_sum "Si O2"
_cell_formula_units_Z 150
_cell_length_a 27.262239
_cell_length_b 27.262239
_cell_length_c 14.295026
_cell_angle_alpha 90.000000
_cell_angle_beta 90.000000
_cell_angle_gamma 120.000000
_cell_volume 9201.076105
_symmetry_space_group_name_H-M "P 6/M M M"
_symmetry_group_IT_number 191
_symmetry_cell_setting 'hexagonal'
loop_
_space_group_symop_operation_xyz
x,y,z
x-y,x,z
-y,x-y,z
-x,-y,z
-x+y,-x,z
y,-x+y,z
x-y,-y,-z
-x,-x+y,-z
y,x,-z
-y,-x,-z
-x+y,y,-z
x,x-y,-z
-x,-y,-z
-x+y,-x,-z
y,-x+y,-z
x,y,-z
x-y,x,-z
-y,x-y,-z
-x+y,y,z
x,x-y,z
-y,-x,z
y,x,z
x-y,-y,z
-x,-x+y,z
loop_
_atom_site_type_symbol
_atom_site_label
_atom_site_fract_x
_atom_site_fract_y
_atom_site_fract_z
Si Si1 0.097499 0.311994 0.897662
Si Si2 0.068882 0.590142 0.273410
Si Si3 0.679899 0.068493 0.394396
Si Si4 0.118139 0.000000 0.000000
Si Si5 0.000000 0.117953 0.208871
Si Si6 0.341080 0.407938 0.105957
Si Si7 0.186571 0.186571 0.606739
Si Si8 0.701403 0.908077 0.693992
O O1 0.160348 0.320696 0.899056
O O2 0.097637 0.370996 0.888937
O O3 0.070895 0.279807 0.800898
O O4 0.071588 0.287414 0.000000
O O5 0.089591 0.544796 0.279465
O O6 0.085756 0.635364 0.356289
O O7 0.085410 0.627403 0.179386
O O8 0.000000 0.553477 0.273551
O O9 0.697536 0.087632 0.500000
O O10 0.734406 0.088262 0.330185
O O11 0.647138 0.000000 0.392614
O O12 0.112839 0.056419 0.000000
O O13 0.142981 0.000000 0.104002
O O14 0.056663 0.113325 0.211505
O O15 0.000000 0.149665 0.304619
O O16 0.363791 0.363791 0.124019
O O17 0.357092 0.428722 0.000000
O O18 0.166662 0.166662 0.500000
O O19 0.194843 0.248654 0.623087
O O20 0.689218 0.844609 0.688496
#
# Coordination Sequence:
#
# PCOD9587663 Si02
#       8
#    24  24  24   6  12  24  12  24
#     4   9  18  32  49  71  96 124 162 207 251 295
#     4   9  17  28  43  64  92 123 156 194 231 272
#     4  10  19  32  49  67  91 124 163 204 241 284
#     4   8  15  32  60  88 108 124 150 188 243 310
#     4  10  21  40  64  86 106 129 158 199 253 318
#     4   9  16  26  44  67  93 125 158 191 235 287
#     4  12  26  41  55  75 105 136 167 212 260 306
#     4  11  22  36  54  74  97 131 172 210 254 304
#
# _framework density 16.302441000000002
#
# number of rings (size 3 to 8) (size 9 to 14) (size 15 to 20)
#    0.000    2.240    2.400    1.080    1.120    3.520 
#    1.440    3.200    0.000    0.480    0.000    0.000 
#    0.000    0.000    0.000    3.840    0.000   16.640 
#
# Total GULP energy -835596.734459 kJ/mol
# GULP energy per Si atom -5570.644896 kJ/mol
# Density = 1.626534 g / cm^3
# Si number density = 16.302441 Si / 1000 Ang^3
#
#
#
# Elastic Constant Matrix: (Units=GPa)
#
#
# Indices 1 2 3 4 5 6 
#
# 1 232.8306 -178.2219 27.4429 0.0000 0.0000 0.0000
# 2 -178.2219 232.8306 27.4429 0.0000 0.0000 0.0000
# 3 27.4429 27.4429 132.5213 0.0000 0.0000 0.0000
# 4 0.0000 0.0000 0.0000 13.9008 0.0000 0.0000
# 5 0.0000 0.0000 0.0000 0.0000 13.9008 0.0000
# 6 0.0000 0.0000 0.0000 0.0000 0.0000 205.5262
#
#
#
# Elastic Compliance Matrix: (Units=1/GPa)
#
#
# Indices 1 2 3 4 5 6 
#
# 1 0.012779 0.010346 -0.004789 0.000000 0.000000 0.000000
# 2 0.010346 0.012779 -0.004789 0.000000 0.000000 0.000000
# 3 -0.004789 -0.004789 0.009529 0.000000 0.000000 0.000000
# 4 0.000000 0.000000 0.000000 0.071938 0.000000 0.000000
# 5 0.000000 0.000000 0.000000 0.000000 0.071938 0.000000
# 6 0.000000 0.000000 0.000000 0.000000 0.000000 0.004866
#
#
# Mechanical properties :
#
#
# Convention : Reuss Voigt Hill
#
# Bulk Modulus (GPa) = 27.30419 39.05672 33.18046
# Shear Modulus (GPa) = 25.70686 94.76681 60.23684
#
# Velocity S-wave (km/s) = 3.97529 7.63260 6.08521
# Velocity P-wave (km/s) = 6.15268 10.08390 8.35286
#
# Compressibility (1/GPa) = 0.03662442
#
# Stress axis : x y z
#
# Youngs Moduli (GPa) = 78.25337 78.25337 104.93916
#
# Poissons Ratio (x) = -0.80963 0.50254
# Poissons Ratio (y) = -0.80963 0.50254
# Poissons Ratio (z) = 0.37474 0.37474
#
# Static dielectric constant tensor:
#      x y z
#    x 1.530870 0.000000 0.000000 
#    y 0.000000 1.530870 0.000000 
#    z 0.000000 0.000000 1.619900 
# 
# From -- ./inp_files/5298.got.cif
#   From: 2010.05.17/outbox.cif.g08.bks.cpg/sg191_3_cif.got.tgz:5298.got - 2010.05.20 12:20:32.
