data_PCOD9587002
_publ_section_title
;
Structure prediction by ZEFSAII (Michael W. Deem and Ramdas Pophale) SiO2 
 PCOD9587002
Probable space group: P -6 2 C
;
_chemical_formula_sum "Si O2"
_cell_formula_units_Z 52
_cell_length_a 11.937924
_cell_length_b 11.937924
_cell_length_c 19.584328
_cell_angle_alpha 90.000000
_cell_angle_beta 90.000000
_cell_angle_gamma 120.000000
_cell_volume 2417.112839
_symmetry_space_group_name_H-M "P -6 2 C"
_symmetry_group_IT_number 190
_symmetry_cell_setting 'hexagonal'
loop_
_space_group_symop_operation_xyz
x,y,z
-x+y,-x,1/2-z
-y,x-y,z
x,y,1/2-z
-x+y,-x,z
-y,x-y,1/2-z
x-y,-y,-z
-x,-x+y,-z
y,x,-z
y,x,1/2+z
x-y,-y,1/2+z
-x,-x+y,1/2+z
loop_
_atom_site_type_symbol
_atom_site_label
_atom_site_fract_x
_atom_site_fract_y
_atom_site_fract_z
Si Si1 0.666668 0.333335 0.331074
Si Si2 0.135502 0.313474 0.516606
Si Si3 0.025779 0.284163 0.750000
Si Si4 0.540499 0.596138 0.879326
Si Si5 0.765639 0.029524 0.750000
Si Si6 0.632627 0.943168 0.100233
O O1 0.666667 0.333334 0.250000
O O2 0.597194 0.411009 0.355919
O O3 0.093980 0.399969 0.558796
O O4 0.205560 0.378066 0.445682
O O5 0.239214 0.302113 0.565023
O O6 0.000000 0.182905 0.500000
O O7 0.015174 0.359461 0.683878
O O8 0.160703 0.283903 0.750000
O O9 0.918182 0.132953 0.750000
O O10 0.491501 0.451631 0.903975
O O11 0.717381 0.060076 0.820019
#
# Coordination Sequence:
#
# PCOD9587002 Si02
#       6
#     4  12   6  12   6  12
#     4  12  21  36  69 108 144 181 263 310 372 420
#     4  11  25  45  68 103 148 191 235 304 371 445
#     4  12  24  42  74 106 150 196 248 315 367 453
#     4  12  23  43  73 106 142 200 244 308 377 439
#     4  12  24  48  66 108 140 188 252 309 367 437
#     4  11  26  46  71 108 144 188 256 305 363 463
#
# _framework density 21.513271
#
# number of rings (size 3 to 8) (size 9 to 14) (size 15 to 20)
#    0.000    0.462    5.769    2.308    3.231    0.000 
#    5.538    0.000    0.000    6.462    0.000    0.000 
#    0.000    0.000    0.000    0.000    0.000    0.000 
#
# Total GULP energy -290683.208052 kJ/mol
# GULP energy per Si atom -5590.061693 kJ/mol
# Density = 2.146431 g / cm^3
# Si number density = 21.513271 Si / 1000 Ang^3
#
#
#
# Elastic Constant Matrix: (Units=GPa)
#
#
# Indices 1 2 3 4 5 6 
#
# 1 89.5510 24.0936 49.2253 -0.0001 -0.0002 0.0004
# 2 24.0936 89.5511 49.2257 0.0001 0.0002 -0.0002
# 3 49.2253 49.2257 187.3404 0.0000 0.0001 0.0000
# 4 -0.0001 0.0001 0.0000 29.9229 0.0000 -0.0002
# 5 -0.0002 0.0002 0.0001 0.0000 29.9232 0.0001
# 6 0.0004 -0.0002 0.0000 -0.0002 0.0001 32.7284
#
#
#
# Elastic Compliance Matrix: (Units=1/GPa)
#
#
# Indices 1 2 3 4 5 6 
#
# 1 0.013335 -0.001942 -0.002994 0.000000 0.000000 0.000000
# 2 -0.001942 0.013335 -0.002994 0.000000 0.000000 0.000000
# 3 -0.002994 -0.002994 0.006911 0.000000 0.000000 0.000000
# 4 0.000000 0.000000 0.000000 0.033419 0.000000 0.000000
# 5 0.000000 0.000000 0.000000 0.000000 0.033419 0.000000
# 6 0.000000 0.000000 0.000000 0.000000 0.000000 0.030555
#
#
# Mechanical properties :
#
#
# Convention : Reuss Voigt Hill
#
# Bulk Modulus (GPa) = 56.42624 67.94796 62.18710
# Shear Modulus (GPa) = 32.73550 34.77476 33.75513
#
# Velocity S-wave (km/s) = 3.90505 4.02485 3.96540
# Velocity P-wave (km/s) = 6.82775 7.29740 7.06647
#
# Compressibility (1/GPa) = 0.01772225
#
# Stress axis : x y z
#
# Youngs Moduli (GPa) = 74.99129 74.99123 144.69606
#
# Poissons Ratio (x) = 0.14565 0.43315
# Poissons Ratio (y) = 0.14565 0.43316
# Poissons Ratio (z) = 0.22449 0.22449
#
# Static dielectric constant tensor:
#      x y z
#    x 1.849270 0.000000 0.000000 
#    y 0.000000 1.849260 0.000000 
#    z 0.000000 0.000000 1.771190 
# 
# From -- ./inp_files/4232.got.cif
#   From: 2010.05.17/outbox.cif.g08.bks.cpg/sg190_3_cif.got.tgz:4232.got - 2010.05.20 12:16:56.
