data_PCOD9587796
_publ_section_title
;
Structure prediction by ZEFSAII (Michael W. Deem and Ramdas Pophale) SiO2 
 PCOD9587796
Probable space group: P 6/M M M
;
_chemical_formula_sum "Si O2"
_cell_formula_units_Z 120
_cell_length_a 18.289492
_cell_length_b 18.289492
_cell_length_c 26.065191
_cell_angle_alpha 90.000000
_cell_angle_beta 90.000000
_cell_angle_gamma 120.000000
_cell_volume 7550.832374
_symmetry_space_group_name_H-M "P 6/M M M"
_symmetry_group_IT_number 191
_symmetry_cell_setting 'hexagonal'
loop_
_space_group_symop_operation_xyz
x,y,z
x-y,x,z
-y,x-y,z
-x,-y,z
-x+y,-x,z
y,-x+y,z
x-y,-y,-z
-x,-x+y,-z
y,x,-z
-y,-x,-z
-x+y,y,-z
x,x-y,-z
-x,-y,-z
-x+y,-x,-z
y,-x+y,-z
x,y,-z
x-y,x,-z
-y,x-y,-z
-x+y,y,z
x,x-y,z
-y,-x,z
y,x,z
x-y,-y,z
-x,-x+y,z
loop_
_atom_site_type_symbol
_atom_site_label
_atom_site_fract_x
_atom_site_fract_y
_atom_site_fract_z
Si Si1 0.333883 0.496001 0.413430
Si Si2 0.102807 0.635065 0.888153
Si Si3 0.735677 0.094116 0.500000
Si Si4 0.666107 0.504071 0.706380
Si Si5 0.362575 0.902955 0.000000
Si Si6 0.902592 0.262997 0.793459
O O1 0.259681 0.519363 0.419023
O O2 0.423539 0.576462 0.426817
O O3 0.308339 0.417968 0.450761
O O4 0.335975 0.475253 0.353545
O O5 0.131010 0.565505 0.878251
O O6 0.134193 0.675516 0.944517
O O7 0.122447 0.699212 0.842162
O O8 0.000000 0.581005 0.891250
O O9 0.832753 0.167248 0.500000
O O10 0.718279 0.000000 0.500000
O O11 0.740427 0.480854 0.711628
O O12 0.576098 0.423903 0.719762
O O13 0.691587 0.582192 0.743731
O O14 0.452778 0.905556 0.000000
O O15 0.384490 0.000000 0.000000
O O16 0.835878 0.164123 0.789707
O O17 0.000000 0.289681 0.798634
#
# Coordination Sequence:
#
# PCOD9587796 Si02
#       6
#    24  24  12  24  12  24
#     4   9  17  29  46  69  98 130 158 179 201 238
#     4   8  13  23  41  64  88 112 137 165 200 247
#     4  10  21  35  49  66  89 117 150 190 235 275
#     4   9  17  29  46  69  97 127 154 177 203 242
#     4   7  10  18  35  60  87 112 136 162 194 237
#     4  10  20  32  45  62  85 113 146 186 231 274
#
# _framework density 15.892288000000001
#
# number of rings (size 3 to 8) (size 9 to 14) (size 15 to 20)
#    0.000    3.100    0.000    2.500    0.000    4.400 
#    0.000    3.500    0.000    0.700    0.000    0.000 
#    0.000    0.000    0.000   10.000    0.000   11.800 
#
# Total GULP energy -668349.931837 kJ/mol
# GULP energy per Si atom -5569.582765 kJ/mol
# Density = 1.585612 g / cm^3
# Si number density = 15.892288 Si / 1000 Ang^3
#
#
#
# Elastic Constant Matrix: (Units=GPa)
#
#
# Indices 1 2 3 4 5 6 
#
# 1 62.4519 50.3816 36.5998 0.0000 0.0000 0.0000
# 2 50.3816 62.4519 36.5998 0.0000 0.0000 0.0000
# 3 36.5998 36.5998 68.0562 0.0000 0.0000 0.0000
# 4 0.0000 0.0000 0.0000 11.7567 0.0000 0.0000
# 5 0.0000 0.0000 0.0000 0.0000 11.7567 0.0000
# 6 0.0000 0.0000 0.0000 0.0000 0.0000 6.0352
#
#
#
# Elastic Compliance Matrix: (Units=1/GPa)
#
#
# Indices 1 2 3 4 5 6 
#
# 1 0.048230 -0.034618 -0.007320 0.000000 0.000000 0.000000
# 2 -0.034618 0.048230 -0.007320 0.000000 0.000000 0.000000
# 3 -0.007320 -0.007320 0.022567 0.000000 0.000000 0.000000
# 4 0.000000 0.000000 0.000000 0.085058 0.000000 0.000000
# 5 0.000000 0.000000 0.000000 0.000000 0.085058 0.000000
# 6 0.000000 0.000000 0.000000 0.000000 0.000000 0.165696
#
#
# Mechanical properties :
#
#
# Convention : Reuss Voigt Hill
#
# Bulk Modulus (GPa) = 48.75760 48.90251 48.83005
# Shear Modulus (GPa) = 8.92553 10.53497 9.73025
#
# Velocity S-wave (km/s) = 2.37244 2.57747 2.47708
# Velocity P-wave (km/s) = 6.18476 6.30046 6.24288
#
# Compressibility (1/GPa) = 0.02050962
#
# Stress axis : x y z
#
# Youngs Moduli (GPa) = 20.73414 20.73414 44.31240
#
# Poissons Ratio (x) = 0.71778 0.32437
# Poissons Ratio (y) = 0.71778 0.32437
# Poissons Ratio (z) = 0.15178 0.15178
#
# Static dielectric constant tensor:
#      x y z
#    x 1.516980 0.000000 0.000000 
#    y 0.000000 1.516980 0.000000 
#    z 0.000000 0.000000 1.570820 
# 
# From -- ./inp_files/9544.got.cif
#   From: 2010.05.17/outbox.cif.g08.bks.cpg/sg191_5_cif.got.tgz:9544.got - 2010.05.20 12:20:32.
