data_PCOD9587464
_publ_section_title
;
Structure prediction by ZEFSAII (Michael W. Deem and Ramdas Pophale) SiO2 
 PCOD9587464
Probable space group: P 6/M M M
;
_chemical_formula_sum "Si O2"
_cell_formula_units_Z 132
_cell_length_a 25.000126
_cell_length_b 25.000126
_cell_length_c 15.475838
_cell_angle_alpha 90.000000
_cell_angle_beta 90.000000
_cell_angle_gamma 120.000000
_cell_volume 8376.627469
_symmetry_space_group_name_H-M "P 6/M M M"
_symmetry_group_IT_number 191
_symmetry_cell_setting 'hexagonal'
loop_
_space_group_symop_operation_xyz
x,y,z
x-y,x,z
-y,x-y,z
-x,-y,z
-x+y,-x,z
y,-x+y,z
x-y,-y,-z
-x,-x+y,-z
y,x,-z
-y,-x,-z
-x+y,y,-z
x,x-y,-z
-x,-y,-z
-x+y,-x,-z
y,-x+y,-z
x,y,-z
x-y,x,-z
-y,x-y,-z
-x+y,y,z
x,x-y,z
-y,-x,z
y,x,z
x-y,-y,z
-x,-x+y,z
loop_
_atom_site_type_symbol
_atom_site_label
_atom_site_fract_x
_atom_site_fract_y
_atom_site_fract_z
Si Si1 0.861903 0.266707 0.905697
Si Si2 0.788694 0.454254 0.500000
Si Si3 0.334223 0.790456 0.857555
Si Si4 0.142135 0.511075 0.680467
Si Si5 0.195495 0.268002 0.397479
Si Si6 0.295133 0.368297 0.274692
O O1 0.799523 0.200478 0.901728
O O2 0.838544 0.316397 0.898066
O O3 0.901481 0.272989 0.821790
O O4 0.891175 0.273097 0.000000
O O5 0.735414 0.470827 0.500000
O O6 0.761295 0.380648 0.500000
O O7 0.828983 0.478981 0.586014
O O8 0.398798 0.797595 0.886440
O O9 0.277913 0.722087 0.874409
O O10 0.339800 0.805435 0.754886
O O11 0.113963 0.556982 0.689120
O O12 0.098889 0.438656 0.695634
O O13 0.206772 0.282678 0.500000
O O14 0.123762 0.247524 0.381170
O O15 0.217913 0.217913 0.379487
O O16 0.238479 0.328455 0.339900
O O17 0.334085 0.334085 0.272895
#
# Coordination Sequence:
#
# PCOD9587464 Si02
#       6
#    24  12  24  24  24  24
#     4   9  18  32  48  66  90 118 147 185 235 284
#     4  10  19  30  45  65  89 117 150 189 235 289
#     4   9  16  27  43  62  85 112 144 184 233 289
#     4   9  19  32  43  61  88 119 157 199 244 289
#     4   9  18  32  51  76 104 131 158 191 230 273
#     4  10  20  33  50  70  92 121 161 200 233 277
#
# _framework density 15.758131000000001
#
# number of rings (size 3 to 8) (size 9 to 14) (size 15 to 20)
#    0.000    2.727    0.000    1.364    1.273    3.273 
#    0.000    1.818    0.000    2.909    0.000    6.364 
#    0.000    0.000    0.000    0.000    0.000    0.000 
#
# Total GULP energy -735166.827430 kJ/mol
# GULP energy per Si atom -5569.445662 kJ/mol
# Density = 1.572226 g / cm^3
# Si number density = 15.758131 Si / 1000 Ang^3
#
#
#
# Elastic Constant Matrix: (Units=GPa)
#
#
# Indices 1 2 3 4 5 6 
#
# 1 70.1980 39.5508 29.3305 0.0000 0.0000 0.0000
# 2 39.5508 70.1980 29.3305 0.0000 0.0000 0.0000
# 3 29.3305 29.3305 93.4615 0.0000 0.0000 0.0000
# 4 0.0000 0.0000 0.0000 6.2893 0.0000 0.0000
# 5 0.0000 0.0000 0.0000 0.0000 6.2893 0.0000
# 6 0.0000 0.0000 0.0000 0.0000 0.0000 15.3236
#
#
#
# Elastic Compliance Matrix: (Units=1/GPa)
#
#
# Indices 1 2 3 4 5 6 
#
# 1 0.021789 -0.010841 -0.003436 0.000000 0.000000 0.000000
# 2 -0.010841 0.021789 -0.003436 0.000000 0.000000 0.000000
# 3 -0.003436 -0.003436 0.012856 0.000000 0.000000 0.000000
# 4 0.000000 0.000000 0.000000 0.159000 0.000000 0.000000
# 5 0.000000 0.000000 0.000000 0.000000 0.159000 0.000000
# 6 0.000000 0.000000 0.000000 0.000000 0.000000 0.065259
#
#
# Mechanical properties :
#
#
# Convention : Reuss Voigt Hill
#
# Bulk Modulus (GPa) = 47.59825 47.80905 47.70365
# Shear Modulus (GPa) = 10.37086 14.62349 12.49717
#
# Velocity S-wave (km/s) = 2.56818 3.04961 2.81919
# Velocity P-wave (km/s) = 6.25021 6.54258 6.39806
#
# Compressibility (1/GPa) = 0.02100917
#
# Stress axis : x y z
#
# Youngs Moduli (GPa) = 45.89517 45.89517 77.78430
#
# Poissons Ratio (x) = 0.49753 0.26725
# Poissons Ratio (y) = 0.49753 0.26725
# Poissons Ratio (z) = 0.15769 0.15769
#
# Static dielectric constant tensor:
#      x y z
#    x 1.518580 0.000000 0.000000 
#    y 0.000000 1.518580 0.000000 
#    z 0.000000 0.000000 1.544900 
# 
# From -- ./inp_files/4941.got.cif
#   From: 2010.05.17/outbox.cif.g08.bks.cpg/sg191_3_cif.got.tgz:4941.got - 2010.05.20 12:20:32.
