data_PCOD9587626
_publ_section_title
;
Structure prediction by ZEFSAII (Michael W. Deem and Ramdas Pophale) SiO2 
 PCOD9587626
Probable space group: P 6/M M M
;
_chemical_formula_sum "Si O2"
_cell_formula_units_Z 132
_cell_length_a 18.407267
_cell_length_b 18.407267
_cell_length_c 27.896988
_cell_angle_alpha 90.000000
_cell_angle_beta 90.000000
_cell_angle_gamma 120.000000
_cell_volume 8185.902565
_symmetry_space_group_name_H-M "P 6/M M M"
_symmetry_group_IT_number 191
_symmetry_cell_setting 'hexagonal'
loop_
_space_group_symop_operation_xyz
x,y,z
x-y,x,z
-y,x-y,z
-x,-y,z
-x+y,-x,z
y,-x+y,z
x-y,-y,-z
-x,-x+y,-z
y,x,-z
-y,-x,-z
-x+y,y,-z
x,x-y,-z
-x,-y,-z
-x+y,-x,-z
y,-x+y,-z
x,y,-z
x-y,x,-z
-y,x-y,-z
-x+y,y,z
x,x-y,z
-y,-x,z
y,x,z
x-y,-y,z
-x,-x+y,z
loop_
_atom_site_type_symbol
_atom_site_label
_atom_site_fract_x
_atom_site_fract_y
_atom_site_fract_z
Si Si1 0.261187 0.904762 0.285876
Si Si2 0.898844 0.367310 0.090534
Si Si3 0.902956 0.260571 0.172919
Si Si4 0.837749 0.504627 0.364926
Si Si5 0.365686 0.264814 0.000000
Si Si6 0.644197 0.904895 0.556675
O O1 0.164999 0.835002 0.296047
O O2 0.276397 0.898810 0.229387
O O3 0.317093 0.880689 0.318919
O O4 0.285913 0.000000 0.295891
O O5 0.865107 0.432554 0.086435
O O6 0.877099 0.315252 0.139680
O O7 0.000000 0.423764 0.090132
O O8 0.879123 0.304823 0.046187
O O9 0.836880 0.163121 0.163826
O O10 0.000000 0.290419 0.161669
O O11 0.740747 0.481494 0.364828
O O12 0.846247 0.423124 0.364837
O O13 0.880188 0.563044 0.411196
O O14 0.298811 0.298811 0.000000
O O15 0.329875 0.164938 0.000000
O O16 0.624867 0.899401 0.500000
O O17 0.670523 0.835262 0.567451
O O18 0.714139 0.000000 0.567394
#
# Coordination Sequence:
#
# PCOD9587626 Si02
#       6
#    24  24  24  24  12  24
#     4   9  18  31  47  68  93 121 153 190 231 272
#     4   9  17  29  46  67  89 115 149 189 230 270
#     4   9  17  30  48  69  93 122 156 191 227 270
#     4  10  20  33  48  67  92 121 152 186 226 271
#     4  10  19  31  49  72  97 125 158 194 231 273
#     4   9  18  32  49  69  93 121 152 186 225 267
#
# _framework density 16.125283
#
# number of rings (size 3 to 8) (size 9 to 14) (size 15 to 20)
#    0.000    2.727    0.000    1.545    0.000    3.636 
#    0.000    2.727    0.000    6.818    0.000    3.818 
#    0.000    8.727    0.000    0.545    0.000    0.364 
#
# Total GULP energy -735115.048691 kJ/mol
# GULP energy per Si atom -5569.053399 kJ/mol
# Density = 1.608858 g / cm^3
# Si number density = 16.125283 Si / 1000 Ang^3
#
#
#
# Elastic Constant Matrix: (Units=GPa)
#
#
# Indices 1 2 3 4 5 6 
#
# 1 103.7526 79.7257 49.4129 0.0000 0.0000 0.0000
# 2 79.7257 103.7526 49.4129 0.0000 0.0000 0.0000
# 3 49.4129 49.4129 60.0770 0.0000 0.0000 0.0000
# 4 0.0000 0.0000 0.0000 18.5473 0.0000 0.0000
# 5 0.0000 0.0000 0.0000 0.0000 18.5473 0.0000
# 6 0.0000 0.0000 0.0000 0.0000 0.0000 12.0134
#
#
#
# Elastic Compliance Matrix: (Units=1/GPa)
#
#
# Indices 1 2 3 4 5 6 
#
# 1 0.025703 -0.015917 -0.008048 0.000000 0.000000 0.000000
# 2 -0.015917 0.025703 -0.008048 0.000000 0.000000 0.000000
# 3 -0.008048 -0.008048 0.029885 0.000000 0.000000 0.000000
# 4 0.000000 0.000000 0.000000 0.053916 0.000000 0.000000
# 5 0.000000 0.000000 0.000000 0.000000 0.053916 0.000000
# 6 0.000000 0.000000 0.000000 0.000000 0.000000 0.083240
#
#
# Mechanical properties :
#
#
# Convention : Reuss Voigt Hill
#
# Bulk Modulus (GPa) = 57.93087 69.40948 63.67017
# Shear Modulus (GPa) = 14.61370 15.75697 15.18534
#
# Velocity S-wave (km/s) = 3.01368 3.12935 3.07206
# Velocity P-wave (km/s) = 6.93637 7.49629 7.22176
#
# Compressibility (1/GPa) = 0.01726195
#
# Stress axis : x y z
#
# Youngs Moduli (GPa) = 38.90646 38.90646 33.46197
#
# Poissons Ratio (x) = 0.61929 0.26931
# Poissons Ratio (y) = 0.61929 0.26931
# Poissons Ratio (z) = 0.31313 0.31313
#
# Static dielectric constant tensor:
#      x y z
#    x 1.532060 0.000000 0.000000 
#    y 0.000000 1.532060 0.000000 
#    z 0.000000 0.000000 1.559960 
# 
# From -- ./inp_files/10491.got.cif
#   From: 2010.05.17/outbox.cif.g08.bks.cpg/sg191_6_cif.got.tgz:10491.got - 2010.05.20 12:20:32.
