data_PCOD9587806
_publ_section_title
;
Structure prediction by ZEFSAII (Michael W. Deem and Ramdas Pophale) SiO2 
 PCOD9587806
Probable space group: P 6/M M M
;
_chemical_formula_sum "Si O2"
_cell_formula_units_Z 132
_cell_length_a 17.983216
_cell_length_b 17.983216
_cell_length_c 28.999187
_cell_angle_alpha 90.000000
_cell_angle_beta 90.000000
_cell_angle_gamma 120.000000
_cell_volume 8121.779146
_symmetry_space_group_name_H-M "P 6/M M M"
_symmetry_group_IT_number 191
_symmetry_cell_setting 'hexagonal'
loop_
_space_group_symop_operation_xyz
x,y,z
x-y,x,z
-y,x-y,z
-x,-y,z
-x+y,-x,z
y,-x+y,z
x-y,-y,-z
-x,-x+y,-z
y,x,-z
-y,-x,-z
-x+y,y,-z
x,x-y,-z
-x,-y,-z
-x+y,-x,-z
y,-x+y,-z
x,y,-z
x-y,x,-z
-y,x-y,-z
-x+y,y,z
x,x-y,z
-y,-x,z
y,x,z
x-y,-y,z
-x,-x+y,z
loop_
_atom_site_type_symbol
_atom_site_label
_atom_site_fract_x
_atom_site_fract_y
_atom_site_fract_z
Si Si1 0.841824 0.509098 0.276532
Si Si2 0.269192 0.365671 0.636894
Si Si3 0.360154 0.458898 0.000000
Si Si4 0.732448 0.632582 0.810412
Si Si5 0.666485 0.158931 0.553320
Si Si6 0.895610 0.532771 0.899584
O O1 0.741822 0.483643 0.276211
O O2 0.851579 0.425790 0.276229
O O3 0.882999 0.566670 0.321840
O O4 0.884753 0.568574 0.231990
O O5 0.169792 0.339584 0.638896
O O6 0.289167 0.289167 0.641379
O O7 0.308139 0.416518 0.589247
O O8 0.321265 0.457551 0.950110
O O9 0.382720 0.382720 0.000000
O O10 0.451713 0.548287 0.000000
O O11 0.833039 0.666078 0.804498
O O12 0.704147 0.704147 0.812072
O O13 0.700071 0.576829 0.857229
O O14 0.665531 0.133275 0.500000
O O15 0.574823 0.149645 0.564014
O O16 0.741344 0.258656 0.557253
O O17 0.866231 0.433116 0.890995
O O18 0.000000 0.581870 0.902678
#
# Coordination Sequence:
#
# PCOD9587806 Si02
#       6
#    24  24  12  24  24  24
#     4  10  20  33  50  73 101 130 155 178 208 253
#     4  10  21  35  50  69  93 122 156 195 238 278
#     4   7  10  18  35  60  87 112 138 170 208 253
#     4  10  20  32  46  65  89 118 152 192 236 276
#     4   9  17  29  46  69  98 131 163 192 223 264
#     4   8  13  23  41  64  88 113 141 173 212 262
#
# _framework density 16.252596
#
# number of rings (size 3 to 8) (size 9 to 14) (size 15 to 20)
#    0.000    2.818    0.000    3.091    0.000    4.364 
#    0.000    3.182    0.000    0.727    0.000    0.000 
#    0.000    4.364    0.000    4.545    0.000   10.727 
#
# Total GULP energy -735568.803070 kJ/mol
# GULP energy per Si atom -5572.490932 kJ/mol
# Density = 1.621560 g / cm^3
# Si number density = 16.252596 Si / 1000 Ang^3
#
#
#
# Elastic Constant Matrix: (Units=GPa)
#
#
# Indices 1 2 3 4 5 6 
#
# 1 77.2647 65.1768 40.1099 0.0000 0.0000 0.0000
# 2 65.1768 77.2647 40.1099 0.0000 0.0000 0.0000
# 3 40.1099 40.1099 94.9879 0.0000 0.0000 0.0000
# 4 0.0000 0.0000 0.0000 14.3321 0.0000 0.0000
# 5 0.0000 0.0000 0.0000 0.0000 14.3321 0.0000
# 6 0.0000 0.0000 0.0000 0.0000 0.0000 6.0439
#
#
#
# Elastic Compliance Matrix: (Units=1/GPa)
#
#
# Indices 1 2 3 4 5 6 
#
# 1 0.045969 -0.036758 -0.003889 0.000000 0.000000 0.000000
# 2 -0.036758 0.045969 -0.003889 0.000000 0.000000 0.000000
# 3 -0.003889 -0.003889 0.013812 0.000000 0.000000 0.000000
# 4 0.000000 0.000000 0.000000 0.069773 0.000000 0.000000
# 5 0.000000 0.000000 0.000000 0.000000 0.069773 0.000000
# 6 0.000000 0.000000 0.000000 0.000000 0.000000 0.165455
#
#
# Mechanical properties :
#
#
# Convention : Reuss Voigt Hill
#
# Bulk Modulus (GPa) = 59.96481 60.03450 59.99966
# Shear Modulus (GPa) = 9.89344 13.88302 11.88823
#
# Velocity S-wave (km/s) = 2.46992 2.92585 2.70750
# Velocity P-wave (km/s) = 6.71637 6.95936 6.83895
#
# Compressibility (1/GPa) = 0.01667645
#
# Stress axis : x y z
#
# Youngs Moduli (GPa) = 21.75373 21.75373 72.39901
#
# Poissons Ratio (x) = 0.79963 0.28159
# Poissons Ratio (y) = 0.79963 0.28159
# Poissons Ratio (z) = 0.08461 0.08461
#
# Static dielectric constant tensor:
#      x y z
#    x 1.529670 0.000000 0.000000 
#    y 0.000000 1.529670 0.000000 
#    z 0.000000 0.000000 1.577880 
# 
# From -- ./inp_files/9698.got.cif
#   From: 2010.05.17/outbox.cif.g08.bks.cpg/sg191_5_cif.got.tgz:9698.got - 2010.05.20 12:20:32.
