data_PCOD9587410
_publ_section_title
;
Structure prediction by ZEFSAII (Michael W. Deem and Ramdas Pophale) SiO2 
 PCOD9587410
Probable space group: P 6/M M M
;
_chemical_formula_sum "Si O2"
_cell_formula_units_Z 120
_cell_length_a 24.773650
_cell_length_b 24.773650
_cell_length_c 14.250116
_cell_angle_alpha 90.000000
_cell_angle_beta 90.000000
_cell_angle_gamma 120.000000
_cell_volume 7574.064977
_symmetry_space_group_name_H-M "P 6/M M M"
_symmetry_group_IT_number 191
_symmetry_cell_setting 'hexagonal'
loop_
_space_group_symop_operation_xyz
x,y,z
x-y,x,z
-y,x-y,z
-x,-y,z
-x+y,-x,z
y,-x+y,z
x-y,-y,-z
-x,-x+y,-z
y,x,-z
-y,-x,-z
-x+y,y,-z
x,x-y,-z
-x,-y,-z
-x+y,-x,-z
y,-x+y,-z
x,y,-z
x-y,x,-z
-y,x-y,-z
-x+y,y,z
x,x-y,z
-y,-x,z
y,x,z
x-y,-y,z
-x,-x+y,z
loop_
_atom_site_type_symbol
_atom_site_label
_atom_site_fract_x
_atom_site_fract_y
_atom_site_fract_z
Si Si1 0.197541 0.270814 0.613637
Si Si2 0.000000 0.876540 0.885064
Si Si3 0.856939 0.268346 0.306756
Si Si4 0.244606 0.244606 0.112394
Si Si5 0.929129 0.403114 0.612759
Si Si6 0.877588 0.627698 0.894044
O O1 0.202356 0.277524 0.500000
O O2 0.125358 0.250716 0.638196
O O3 0.225121 0.225121 0.638574
O O4 0.239845 0.339495 0.658812
O O5 0.938335 0.876669 0.855181
O O6 0.000000 0.815571 0.849715
O O7 0.000000 0.876339 0.000000
O O8 0.786516 0.213485 0.327416
O O9 0.880700 0.334251 0.354705
O O10 0.863340 0.279941 0.194490
O O11 0.247583 0.308705 0.133314
O O12 0.238371 0.238371 0.000000
O O13 0.929955 0.403692 0.500000
O O14 0.915524 0.457762 0.643629
O O15 0.000000 0.424703 0.644104
O O16 0.820549 0.641097 0.897767
O O17 0.884710 0.608579 0.000000
#
# Coordination Sequence:
#
# PCOD9587410 Si02
#       6
#    24  12  24  12  24  24
#     4   9  17  28  43  65  91 117 147 189 241 290
#     4   9  15  22  33  48  66  92 132 185 242 294
#     4  10  19  29  47  72  95 122 155 191 232 274
#     4   9  16  25  38  53  72 106 145 188 239 285
#     4   9  18  32  50  72  98 128 156 181 216 269
#     4   9  18  30  41  59  88 119 155 195 234 278
#
# _framework density 15.843539
#
# number of rings (size 3 to 8) (size 9 to 14) (size 15 to 20)
#    0.000    2.800    0.000    2.500    2.800    5.600 
#    0.000    0.000    0.000    1.200    0.000    2.800 
#    0.000    0.000    0.000    0.000    0.000    0.000 
#
# Total GULP energy -668180.400401 kJ/mol
# GULP energy per Si atom -5568.170003 kJ/mol
# Density = 1.580748 g / cm^3
# Si number density = 15.843539 Si / 1000 Ang^3
#
#
#
# Elastic Constant Matrix: (Units=GPa)
#
#
# Indices 1 2 3 4 5 6 
#
# 1 106.8076 26.0944 30.3922 0.0000 0.0000 0.0000
# 2 26.0944 106.8076 30.3922 0.0000 0.0000 0.0000
# 3 30.3922 30.3922 49.6308 0.0000 0.0000 0.0000
# 4 0.0000 0.0000 0.0000 11.1169 0.0000 0.0000
# 5 0.0000 0.0000 0.0000 0.0000 11.1169 0.0000
# 6 0.0000 0.0000 0.0000 0.0000 0.0000 40.3566
#
#
#
# Elastic Compliance Matrix: (Units=1/GPa)
#
#
# Indices 1 2 3 4 5 6 
#
# 1 0.011421 -0.000969 -0.006400 0.000000 0.000000 0.000000
# 2 -0.000969 0.011421 -0.006400 0.000000 0.000000 0.000000
# 3 -0.006400 -0.006400 0.027987 0.000000 0.000000 0.000000
# 4 0.000000 0.000000 0.000000 0.089953 0.000000 0.000000
# 5 0.000000 0.000000 0.000000 0.000000 0.089953 0.000000
# 6 0.000000 0.000000 0.000000 0.000000 0.000000 0.024779
#
#
# Mechanical properties :
#
#
# Convention : Reuss Voigt Hill
#
# Bulk Modulus (GPa) = 42.93746 48.55597 45.74671
# Shear Modulus (GPa) = 17.19300 24.27589 20.73445
#
# Velocity S-wave (km/s) = 3.29777 3.91861 3.62152
# Velocity P-wave (km/s) = 6.45447 7.15456 6.81351
#
# Compressibility (1/GPa) = 0.02328969
#
# Stress axis : x y z
#
# Youngs Moduli (GPa) = 87.56155 87.56155 35.73050
#
# Poissons Ratio (x) = 0.08485 0.22868
# Poissons Ratio (y) = 0.08485 0.22868
# Poissons Ratio (z) = 0.56041 0.56041
#
# Static dielectric constant tensor:
#      x y z
#    x 1.580990 0.000000 0.000000 
#    y 0.000000 1.580990 0.000000 
#    z 0.000000 0.000000 1.578240 
# 
# From -- ./inp_files/4820.got.cif
#   From: 2010.05.17/outbox.cif.g08.bks.cpg/sg191_3_cif.got.tgz:4820.got - 2010.05.20 12:20:32.
