data_PCOD9587277
_publ_section_title
;
Structure prediction by ZEFSAII (Michael W. Deem and Ramdas Pophale) SiO2 
 PCOD9587277
Probable space group: P 6/M M M
;
_chemical_formula_sum "Si O2"
_cell_formula_units_Z 168
_cell_length_a 30.888194
_cell_length_b 30.888194
_cell_length_c 11.329250
_cell_angle_alpha 90.000000
_cell_angle_beta 90.000000
_cell_angle_gamma 120.000000
_cell_volume 9360.883163
_symmetry_space_group_name_H-M "P 6/M M M"
_symmetry_group_IT_number 191
_symmetry_cell_setting 'hexagonal'
loop_
_space_group_symop_operation_xyz
x,y,z
x-y,x,z
-y,x-y,z
-x,-y,z
-x+y,-x,z
y,-x+y,z
x-y,-y,-z
-x,-x+y,-z
y,x,-z
-y,-x,-z
-x+y,y,-z
x,x-y,-z
-x,-y,-z
-x+y,-x,-z
y,-x+y,-z
x,y,-z
x-y,x,-z
-y,x-y,-z
-x+y,y,z
x,x-y,z
-y,-x,z
y,x,z
x-y,-y,z
-x,-x+y,z
loop_
_atom_site_type_symbol
_atom_site_label
_atom_site_fract_x
_atom_site_fract_y
_atom_site_fract_z
Si Si1 0.808235 0.717667 0.000000
Si Si2 0.470213 0.838651 0.135133
Si Si3 0.701842 0.194542 0.635128
Si Si4 0.843547 0.056343 0.773575
Si Si5 0.796736 0.106517 0.359966
Si Si6 0.303292 0.941870 0.000000
Si Si7 0.305522 0.394529 0.365982
Si Si8 0.943804 0.381480 0.821317
O O1 0.816511 0.752048 0.113450
O O2 0.755667 0.667255 0.000000
O O3 0.852805 0.705610 0.000000
O O4 0.413871 0.827741 0.141027
O O5 0.481300 0.813629 0.248775
O O6 0.507959 0.898450 0.149845
O O7 0.478732 0.825547 0.000000
O O8 0.681379 0.192881 0.500000
O O9 0.753195 0.246806 0.644764
O O10 0.711413 0.147738 0.638375
O O11 0.901581 0.098420 0.779534
O O12 0.818389 0.070170 0.666651
O O13 0.831250 0.000000 0.768510
O O14 0.794017 0.112385 0.500000
O O15 0.838999 0.161002 0.311692
O O16 0.740947 0.085602 0.311685
O O17 0.332016 0.933568 0.892726
O O18 0.319272 0.000000 0.000000
O O19 0.310569 0.382604 0.500000
O O20 0.360129 0.421084 0.309272
O O21 0.000000 0.424816 0.848131
#
# Coordination Sequence:
#
# PCOD9587277 Si02
#       8
#    12  24  24  24  24  12  24  24
#     4  10  20  32  47  69  97 127 157 189 234 293
#     4  10  21  37  56  79 109 142 181 229 276 319
#     4   9  18  34  57  83 110 140 173 211 263 328
#     4  10  20  33  48  66  89 119 155 196 242 293
#     4   9  17  29  46  69  97 128 161 196 237 293
#     4  10  18  30  47  66  93 129 169 213 251 290
#     4   9  17  29  47  72 104 137 169 207 252 302
#     4  10  20  33  49  70  99 139 185 226 262 298
#
# _framework density 17.947023999999999
#
# number of rings (size 3 to 8) (size 9 to 14) (size 15 to 20)
#    0.000    2.429    0.714    1.929    0.000    4.857 
#    0.000    5.000    0.000    0.429    0.000    4.000 
#    0.000    1.714    0.000    3.571    0.000    0.000 
#
# Total GULP energy -935304.064973 kJ/mol
# GULP energy per Si atom -5567.286101 kJ/mol
# Density = 1.790618 g / cm^3
# Si number density = 17.947024 Si / 1000 Ang^3
#
#
#
# Elastic Constant Matrix: (Units=GPa)
#
#
# Indices 1 2 3 4 5 6 
#
# 1 41.8698 18.5265 17.9526 0.0000 0.0000 0.0000
# 2 18.5265 41.8698 17.9526 0.0000 0.0000 0.0000
# 3 17.9526 17.9526 71.4430 0.0000 0.0000 0.0000
# 4 0.0000 0.0000 0.0000 12.3196 0.0000 0.0000
# 5 0.0000 0.0000 0.0000 0.0000 12.3196 0.0000
# 6 0.0000 0.0000 0.0000 0.0000 0.0000 11.6716
#
#
#
# Elastic Compliance Matrix: (Units=1/GPa)
#
#
# Indices 1 2 3 4 5 6 
#
# 1 0.031152 -0.011687 -0.004891 0.000000 0.000000 0.000000
# 2 -0.011687 0.031152 -0.004891 0.000000 0.000000 0.000000
# 3 -0.004891 -0.004891 0.016455 0.000000 0.000000 0.000000
# 4 0.000000 0.000000 0.000000 0.081171 0.000000 0.000000
# 5 0.000000 0.000000 0.000000 0.000000 0.081171 0.000000
# 6 0.000000 0.000000 0.000000 0.000000 0.000000 0.085678
#
#
# Mechanical properties :
#
#
# Convention : Reuss Voigt Hill
#
# Bulk Modulus (GPa) = 27.91699 29.33843 28.62771
# Shear Modulus (GPa) = 13.10071 13.97891 13.53981
#
# Velocity S-wave (km/s) = 2.70472 2.79390 2.74967
# Velocity P-wave (km/s) = 5.03418 5.17596 5.10556
#
# Compressibility (1/GPa) = 0.03582049
#
# Stress axis : x y z
#
# Youngs Moduli (GPa) = 32.10062 32.10062 60.77030
#
# Poissons Ratio (x) = 0.37516 0.29725
# Poissons Ratio (y) = 0.37516 0.29725
# Poissons Ratio (z) = 0.15701 0.15701
#
# Static dielectric constant tensor:
#      x y z
#    x 1.604150 0.000000 0.000000 
#    y 0.000000 1.604150 0.000000 
#    z 0.000000 0.000000 3.093180 
# 
# From -- ./inp_files/3668.got.cif
#   From: 2010.05.17/outbox.cif.g08.bks.cpg/sg191_2_cif.got.tgz:3668.got - 2010.05.20 12:20:32.
