data_PCOD9587209
_publ_section_title
;
Structure prediction by ZEFSAII (Michael W. Deem and Ramdas Pophale) SiO2 
 PCOD9587209
Probable space group: P 6/M M M
;
_chemical_formula_sum "Si O2"
_cell_formula_units_Z 132
_cell_length_a 18.410318
_cell_length_b 18.410318
_cell_length_c 30.208177
_cell_angle_alpha 90.000000
_cell_angle_beta 90.000000
_cell_angle_gamma 120.000000
_cell_volume 8867.020841
_symmetry_space_group_name_H-M "P 6/M M M"
_symmetry_group_IT_number 191
_symmetry_cell_setting 'hexagonal'
loop_
_space_group_symop_operation_xyz
x,y,z
x-y,x,z
-y,x-y,z
-x,-y,z
-x+y,-x,z
y,-x+y,z
x-y,-y,-z
-x,-x+y,-z
y,x,-z
-y,-x,-z
-x+y,y,-z
x,x-y,-z
-x,-y,-z
-x+y,-x,-z
y,-x+y,-z
x,y,-z
x-y,x,-z
-y,x-y,-z
-x+y,y,z
x,x-y,z
-y,-x,z
y,x,z
x-y,-y,z
-x,-x+y,z
loop_
_atom_site_type_symbol
_atom_site_label
_atom_site_fract_x
_atom_site_fract_y
_atom_site_fract_z
Si Si1 0.904184 0.364199 0.797157
Si Si2 0.164020 0.498100 0.447861
Si Si3 0.000000 0.411857 0.050684
Si Si4 0.669563 0.505921 0.893030
Si Si5 0.095009 0.359743 0.625419
Si Si6 0.496866 0.165299 0.701030
O O1 0.907524 0.453762 0.798037
O O2 0.857440 0.320483 0.842213
O O3 0.860032 0.323457 0.751106
O O4 0.000000 0.385447 0.797731
O O5 0.144378 0.481499 0.500000
O O6 0.260958 0.521915 0.442027
O O7 0.153089 0.576545 0.434794
O O8 0.110637 0.417199 0.417902
O O9 0.083933 0.433107 0.077071
O O10 0.000000 0.500000 0.050212
O O11 0.000000 0.386575 0.000000
O O12 0.751053 0.502105 0.907045
O O13 0.586570 0.413431 0.895100
O O14 0.167378 0.334755 0.626043
O O15 0.113298 0.422622 0.666607
O O16 0.000000 0.285277 0.626729
O O17 0.575350 0.150700 0.694851
O O18 0.525070 0.262535 0.694031
#
# Coordination Sequence:
#
# PCOD9587209 Si02
#       6
#    24  24  12  24  24  24
#     4   9  16  27  42  60  85 119 155 188 222 257
#     4   9  17  29  46  68  95 127 160 190 218 252
#     4   9  18  32  46  60  84 116 147 183 228 270
#     4  10  18  29  45  65  88 116 152 191 227 266
#     4  10  21  35  49  66  88 115 148 188 235 282
#     4  10  19  29  43  65  95 128 158 186 215 251
#
# _framework density 14.886623
#
# number of rings (size 3 to 8) (size 9 to 14) (size 15 to 20)
#    0.000    2.455    0.909    2.182    0.000    3.636 
#    0.000    4.545    0.000    1.273    0.000    0.000 
#    0.000    0.000    0.000    4.818    0.000    1.364 
#
# Total GULP energy -735809.010739 kJ/mol
# GULP energy per Si atom -5574.310687 kJ/mol
# Density = 1.485274 g / cm^3
# Si number density = 14.886623 Si / 1000 Ang^3
#
#
#
# Elastic Constant Matrix: (Units=GPa)
#
#
# Indices 1 2 3 4 5 6 
#
# 1 75.9883 52.2349 35.3607 0.0000 0.0000 0.0000
# 2 52.2349 75.9883 35.3607 0.0000 0.0000 0.0000
# 3 35.3607 35.3607 75.5667 0.0000 0.0000 0.0000
# 4 0.0000 0.0000 0.0000 13.2834 0.0000 0.0000
# 5 0.0000 0.0000 0.0000 0.0000 13.2834 0.0000
# 6 0.0000 0.0000 0.0000 0.0000 0.0000 11.8767
#
#
#
# Elastic Compliance Matrix: (Units=1/GPa)
#
#
# Indices 1 2 3 4 5 6 
#
# 1 0.026306 -0.015794 -0.004919 0.000000 0.000000 0.000000
# 2 -0.015794 0.026306 -0.004919 0.000000 0.000000 0.000000
# 3 -0.004919 -0.004919 0.017837 0.000000 0.000000 0.000000
# 4 0.000000 0.000000 0.000000 0.075282 0.000000 0.000000
# 5 0.000000 0.000000 0.000000 0.000000 0.075282 0.000000
# 6 0.000000 0.000000 0.000000 0.000000 0.000000 0.084198
#
#
# Mechanical properties :
#
#
# Convention : Reuss Voigt Hill
#
# Bulk Modulus (GPa) = 52.12420 52.60621 52.36520
# Shear Modulus (GPa) = 13.77910 14.66117 14.22013
#
# Velocity S-wave (km/s) = 3.04567 3.14165 3.09403
# Velocity P-wave (km/s) = 6.88900 6.96954 6.92939
#
# Compressibility (1/GPa) = 0.01918495
#
# Stress axis : x y z
#
# Youngs Moduli (GPa) = 38.01480 38.01480 56.06359
#
# Poissons Ratio (x) = 0.60039 0.27577
# Poissons Ratio (y) = 0.60039 0.27577
# Poissons Ratio (z) = 0.18699 0.18699
#
# Static dielectric constant tensor:
#      x y z
#    x 1.478920 0.000000 0.000000 
#    y 0.000000 1.478920 0.000000 
#    z 0.000000 0.000000 1.513550 
# 
# From -- ./inp_files/10353.got.cif
#   From: 2010.05.17/outbox.cif.g08.bks.cpg/sg191_6_cif.got.tgz:10353.got - 2010.05.20 12:20:32.
