data_PCOD9587315
_publ_section_title
;
Structure prediction by ZEFSAII (Michael W. Deem and Ramdas Pophale) SiO2 
 PCOD9587315
Probable space group: P 6/M M M
;
_chemical_formula_sum "Si O2"
_cell_formula_units_Z 108
_cell_length_a 30.659316
_cell_length_b 30.659316
_cell_length_c 7.538222
_cell_angle_alpha 90.000000
_cell_angle_beta 90.000000
_cell_angle_gamma 120.000000
_cell_volume 6136.552841
_symmetry_space_group_name_H-M "P 6/M M M"
_symmetry_group_IT_number 191
_symmetry_cell_setting 'hexagonal'
loop_
_space_group_symop_operation_xyz
x,y,z
x-y,x,z
-y,x-y,z
-x,-y,z
-x+y,-x,z
y,-x+y,z
x-y,-y,-z
-x,-x+y,-z
y,x,-z
-y,-x,-z
-x+y,y,-z
x,x-y,-z
-x,-y,-z
-x+y,-x,-z
y,-x+y,-z
x,y,-z
x-y,x,-z
-y,x-y,-z
-x+y,y,z
x,x-y,z
-y,-x,z
y,x,z
x-y,-y,z
-x,-x+y,z
loop_
_atom_site_type_symbol
_atom_site_label
_atom_site_fract_x
_atom_site_fract_y
_atom_site_fract_z
Si Si1 0.302614 0.056462 0.713750
Si Si2 0.160652 0.839349 0.199233
Si Si3 0.566131 0.335198 0.000000
Si Si4 0.403314 0.056710 0.284052
Si Si5 0.669580 0.160692 0.715467
Si Si6 0.783720 0.567440 0.699719
O O1 0.303176 0.056363 0.500000
O O2 0.293116 0.101192 0.769704
O O3 0.357881 0.066645 0.771589
O O4 0.262758 0.000000 0.773227
O O5 0.186363 0.813638 0.308356
O O6 0.170097 0.829904 0.000000
O O7 0.540586 0.345336 0.171648
O O8 0.625034 0.374967 0.000000
O O9 0.556564 0.278282 0.000000
O O10 0.402347 0.056936 0.500000
O O11 0.458038 0.101802 0.234001
O O12 0.386490 0.000000 0.227353
O O13 0.664953 0.163772 0.500000
O O14 0.728066 0.182680 0.772155
O O15 0.773851 0.547701 0.500000
#
# Coordination Sequence:
#
# PCOD9587315 Si02
#       6
#    24  12  12  24  24  12
#     4   9  17  30  46  64  93 135 180 220 258 305
#     4  12  22  26  42  70 108 144 171 215 266 311
#     4  12  27  44  63  83 109 133 167 214 272 332
#     4   8  14  27  50  79 109 140 173 210 251 294
#     4  10  20  36  60  84 109 140 175 216 257 307
#     4  10  18  30  50  78 104 134 176 216 244 288
#
# _framework density 17.599457999999998
#
# number of rings (size 3 to 8) (size 9 to 14) (size 15 to 20)
#    0.000    2.222    3.333    2.444    1.556    0.889 
#    0.000    0.556    0.000    2.667    0.000    3.111 
#    0.000    0.000    0.000    0.333    0.000    6.444 
#
# Total GULP energy -601647.968581 kJ/mol
# GULP energy per Si atom -5570.814524 kJ/mol
# Density = 1.755940 g / cm^3
# Si number density = 17.599458 Si / 1000 Ang^3
#
#
#
# Elastic Constant Matrix: (Units=GPa)
#
#
# Indices 1 2 3 4 5 6 
#
# 1 82.5070 30.8051 18.0419 0.0000 0.0000 0.0000
# 2 30.8051 82.5070 18.0419 0.0000 0.0000 0.0000
# 3 18.0419 18.0419 63.7880 0.0000 0.0000 0.0000
# 4 0.0000 0.0000 0.0000 11.0601 0.0000 0.0000
# 5 0.0000 0.0000 0.0000 0.0000 11.0601 0.0000
# 6 0.0000 0.0000 0.0000 0.0000 0.0000 25.8509
#
#
#
# Elastic Compliance Matrix: (Units=1/GPa)
#
#
# Indices 1 2 3 4 5 6 
#
# 1 0.014520 -0.004821 -0.002743 0.000000 0.000000 0.000000
# 2 -0.004821 0.014520 -0.002743 0.000000 0.000000 0.000000
# 3 -0.002743 -0.002743 0.017229 0.000000 0.000000 0.000000
# 4 0.000000 0.000000 0.000000 0.090415 0.000000 0.000000
# 5 0.000000 0.000000 0.000000 0.000000 0.090415 0.000000
# 6 0.000000 0.000000 0.000000 0.000000 0.000000 0.038683
#
#
# Mechanical properties :
#
#
# Convention : Reuss Voigt Hill
#
# Bulk Modulus (GPa) = 38.98125 40.28666 39.63395
# Shear Modulus (GPa) = 16.95208 20.38844 18.67026
#
# Velocity S-wave (km/s) = 3.10694 3.40732 3.26059
# Velocity P-wave (km/s) = 5.92182 6.19841 6.06170
#
# Compressibility (1/GPa) = 0.02565336
#
# Stress axis : x y z
#
# Youngs Moduli (GPa) = 68.86953 68.86953 58.04265
#
# Poissons Ratio (x) = 0.33205 0.15922
# Poissons Ratio (y) = 0.33205 0.15922
# Poissons Ratio (z) = 0.18892 0.18892
#
# Static dielectric constant tensor:
#      x y z
#    x 1.607350 0.000000 0.000000 
#    y 0.000000 1.607350 0.000000 
#    z 0.000000 0.000000 1.660980 
# 
# From -- ./inp_files/1787.got.cif
#   From: 2010.05.17/outbox.cif.g08.bks.cpg/sg191_1_cif.got.tgz:1787.got - 2010.05.20 12:20:32.
