data_PCOD9587354
_publ_section_title
;
Structure prediction by ZEFSAII (Michael W. Deem and Ramdas Pophale) SiO2 
 PCOD9587354
Probable space group: P 6/M M M
;
_chemical_formula_sum "Si O2"
_cell_formula_units_Z 192
_cell_length_a 23.136072
_cell_length_b 23.136072
_cell_length_c 27.496935
_cell_angle_alpha 90.000000
_cell_angle_beta 90.000000
_cell_angle_gamma 120.000000
_cell_volume 12746.594587
_symmetry_space_group_name_H-M "P 6/M M M"
_symmetry_group_IT_number 191
_symmetry_cell_setting 'hexagonal'
loop_
_space_group_symop_operation_xyz
x,y,z
x-y,x,z
-y,x-y,z
-x,-y,z
-x+y,-x,z
y,-x+y,z
x-y,-y,-z
-x,-x+y,-z
y,x,-z
-y,-x,-z
-x+y,y,-z
x,x-y,-z
-x,-y,-z
-x+y,-x,-z
y,-x+y,-z
x,y,-z
x-y,x,-z
-y,x-y,-z
-x+y,y,z
x,x-y,z
-y,-x,z
y,x,z
x-y,-y,z
-x,-x+y,z
loop_
_atom_site_type_symbol
_atom_site_label
_atom_site_fract_x
_atom_site_fract_y
_atom_site_fract_z
Si Si1 0.467422 0.074934 0.556291
Si Si2 0.193993 0.667115 0.629609
Si Si3 0.474969 0.079342 0.920386
Si Si4 0.924663 0.530110 0.804780
Si Si5 0.848334 0.286932 0.274421
Si Si6 0.206209 0.279416 0.141881
Si Si7 0.626194 0.744782 0.947200
Si Si8 0.922473 0.212684 0.744698
O O1 0.453651 0.083241 0.500000
O O2 0.536890 0.073779 0.556844
O O3 0.483002 0.138331 0.589068
O O4 0.411262 0.000000 0.572689
O O5 0.201120 0.600560 0.631120
O O6 0.266026 0.733975 0.621386
O O7 0.164369 0.677641 0.679945
O O8 0.549700 0.099400 0.934549
O O9 0.473017 0.088114 0.862241
O O10 0.441698 0.117014 0.945040
O O11 0.429602 0.000000 0.930282
O O12 0.923243 0.461622 0.791997
O O13 0.874351 0.538912 0.771311
O O14 0.000000 0.589705 0.796025
O O15 0.778555 0.221446 0.262798
O O16 0.899541 0.259306 0.282997
O O17 0.131440 0.262880 0.133243
O O18 0.216498 0.216498 0.139000
O O19 0.250547 0.330793 0.099981
O O20 0.224671 0.306170 0.197107
O O21 0.614548 0.807274 0.943674
O O22 0.658864 0.749694 0.000000
O O23 0.864982 0.135019 0.736133
O O24 0.000000 0.235973 0.734570
#
# Coordination Sequence:
#
# PCOD9587354 Si02
#       8
#    24  24  24  24  24  24  24  24
#     4   8  15  29  47  65  85 110 143 184 227 268
#     4  10  20  32  45  63  89 120 153 188 226 267
#     4   9  18  31  46  64  83 102 126 160 203 247
#     4   9  17  29  44  61  81 104 132 167 204 244
#     4  10  19  28  40  61  87 114 144 176 210 248
#     4   9  17  29  45  64  86 112 139 167 202 244
#     4  10  20  31  43  61  83 105 130 161 198 241
#     4   9  17  29  45  64  86 112 141 173 209 251
#
# _framework density 15.062847
#
# number of rings (size 3 to 8) (size 9 to 14) (size 15 to 20)
#    0.000    2.750    0.000    3.125    0.000    6.000 
#    0.000    1.875    0.000    1.500    0.000    1.750 
#    0.000    0.000    0.000    3.125    0.000    3.250 
#
# Total GULP energy -1068966.872463 kJ/mol
# GULP energy per Si atom -5567.535794 kJ/mol
# Density = 1.502856 g / cm^3
# Si number density = 15.062847 Si / 1000 Ang^3
#
#
#
# Elastic Constant Matrix: (Units=GPa)
#
#
# Indices 1 2 3 4 5 6 
#
# 1 72.6252 42.0802 32.5162 0.0000 0.0000 0.0000
# 2 42.0802 72.6252 32.5162 0.0000 0.0000 0.0000
# 3 32.5162 32.5162 33.7059 0.0000 0.0000 0.0000
# 4 0.0000 0.0000 0.0000 8.6079 0.0000 0.0000
# 5 0.0000 0.0000 0.0000 0.0000 8.6079 0.0000
# 6 0.0000 0.0000 0.0000 0.0000 0.0000 15.2725
#
#
#
# Elastic Compliance Matrix: (Units=1/GPa)
#
#
# Indices 1 2 3 4 5 6 
#
# 1 0.025990 -0.006748 -0.018563 0.000000 0.000000 0.000000
# 2 -0.006748 0.025990 -0.018563 0.000000 0.000000 0.000000
# 3 -0.018563 -0.018563 0.065484 0.000000 0.000000 0.000000
# 4 0.000000 0.000000 0.000000 0.116173 0.000000 0.000000
# 5 0.000000 0.000000 0.000000 0.000000 0.116173 0.000000
# 6 0.000000 0.000000 0.000000 0.000000 0.000000 0.065477
#
#
# Mechanical properties :
#
#
# Convention : Reuss Voigt Hill
#
# Bulk Modulus (GPa) = 33.65151 43.68683 38.66917
# Shear Modulus (GPa) = 9.74769 11.28724 10.51747
#
# Velocity S-wave (km/s) = 2.54664 2.74038 2.64529
# Velocity P-wave (km/s) = 5.57103 6.25131 5.92095
#
# Compressibility (1/GPa) = 0.02971635
#
# Stress axis : x y z
#
# Youngs Moduli (GPa) = 38.47560 38.47560 15.27079
#
# Poissons Ratio (x) = 0.25964 0.28348
# Poissons Ratio (y) = 0.25964 0.28348
# Poissons Ratio (z) = 0.71423 0.71423
#
# Static dielectric constant tensor:
#      x y z
#    x 1.499680 0.000000 0.000000 
#    y 0.000000 1.499680 0.000000 
#    z 0.000000 0.000000 1.516150 
# 
# From -- ./inp_files/10141.got.cif
#   From: 2010.05.17/outbox.cif.g08.bks.cpg/sg191_6_cif.got.tgz:10141.got - 2010.05.20 12:20:32.
