data_PCOD9587104
_publ_section_title
;
Structure prediction by ZEFSAII (Michael W. Deem and Ramdas Pophale) SiO2 
 PCOD9587104
Probable space group: P 6/M M M
;
_chemical_formula_sum "Si O2"
_cell_formula_units_Z 72
_cell_length_a 18.047225
_cell_length_b 18.047225
_cell_length_c 15.953239
_cell_angle_alpha 90.000000
_cell_angle_beta 90.000000
_cell_angle_gamma 120.000000
_cell_volume 4499.874161
_symmetry_space_group_name_H-M "P 6/M M M"
_symmetry_group_IT_number 191
_symmetry_cell_setting 'hexagonal'
loop_
_space_group_symop_operation_xyz
x,y,z
x-y,x,z
-y,x-y,z
-x,-y,z
-x+y,-x,z
y,-x+y,z
x-y,-y,-z
-x,-x+y,-z
y,x,-z
-y,-x,-z
-x+y,y,-z
x,x-y,-z
-x,-y,-z
-x+y,-x,-z
y,-x+y,-z
x,y,-z
x-y,x,-z
-y,x-y,-z
-x+y,y,z
x,x-y,z
-y,-x,z
y,x,z
x-y,-y,z
-x,-x+y,z
loop_
_atom_site_type_symbol
_atom_site_label
_atom_site_fract_x
_atom_site_fract_y
_atom_site_fract_z
Si Si1 0.897642 0.533669 0.177449
Si Si2 0.332647 0.841726 0.500000
Si Si3 0.832581 0.501917 0.000000
Si Si4 0.368931 0.268740 0.659244
O O1 0.864398 0.432199 0.188083
O O2 0.876964 0.574349 0.256380
O O3 0.000000 0.580356 0.173964
O O4 0.866744 0.549354 0.088055
O O5 0.257859 0.742141 0.500000
O O6 0.425533 0.851066 0.500000
O O7 0.316288 0.884083 0.581493
O O8 0.731357 0.462714 0.000000
O O9 0.859071 0.429536 0.000000
O O10 0.336137 0.168069 0.650131
O O11 0.297638 0.297638 0.662011
#
# Coordination Sequence:
#
# PCOD9587104 Si02
#       4
#    24  12  12  24
#     4   9  17  29  45  64  86 114 148 185 225 269
#     4  10  20  33  50  73 100 128 155 184 218 257
#     4  10  18  27  39  57  84 117 151 183 215 254
#     4  10  20  33  49  69  92 119 152 190 231 273
#
# _framework density 16.000447000000001
#
# number of rings (size 3 to 8) (size 9 to 14) (size 15 to 20)
#    0.000    2.333    0.000    3.333    0.000    4.667 
#    0.000    0.000    0.000   11.000    0.000    0.000 
#    0.000    4.000    0.000    0.000    0.000   34.667 
#
# Total GULP energy -401128.051951 kJ/mol
# GULP energy per Si atom -5571.222944 kJ/mol
# Density = 1.596403 g / cm^3
# Si number density = 16.000447 Si / 1000 Ang^3
#
#
#
# Elastic Constant Matrix: (Units=GPa)
#
#
# Indices 1 2 3 4 5 6 
#
# 1 69.1711 47.9598 37.1704 0.0000 0.0000 0.0000
# 2 47.9598 69.1711 37.1704 0.0000 0.0000 0.0000
# 3 37.1704 37.1704 144.1764 0.0000 0.0000 0.0000
# 4 0.0000 0.0000 0.0000 323.4890 -0.0001 0.0000
# 5 0.0000 0.0000 0.0000 -0.0001 323.4891 0.0000
# 6 0.0000 0.0000 0.0000 0.0000 0.0000 10.6056
#
#
#
# Elastic Compliance Matrix: (Units=1/GPa)
#
#
# Indices 1 2 3 4 5 6 
#
# 1 0.028676 -0.018468 -0.002632 0.000000 0.000000 0.000000
# 2 -0.018468 0.028676 -0.002632 0.000000 0.000000 0.000000
# 3 -0.002632 -0.002632 0.008293 0.000000 0.000000 0.000000
# 4 0.000000 0.000000 0.000000 0.003091 0.000000 0.000000
# 5 0.000000 0.000000 0.000000 0.000000 0.003091 0.000000
# 6 0.000000 0.000000 0.000000 0.000000 0.000000 0.094289
#
#
# Mechanical properties :
#
#
# Convention : Reuss Voigt Hill
#
# Bulk Modulus (GPa) = 55.00044 58.56885 56.78465
# Shear Modulus (GPa) = 22.76437 142.19795 82.48116
#
# Velocity S-wave (km/s) = 3.77601 9.43738 7.18757
# Velocity P-wave (km/s) = 7.31163 12.46741 10.21998
#
# Compressibility (1/GPa) = 0.01818167
#
# Stress axis : x y z
#
# Youngs Moduli (GPa) = 34.87211 34.87211 120.58509
#
# Poissons Ratio (x) = 0.64403 0.31734
# Poissons Ratio (y) = 0.64403 0.31734
# Poissons Ratio (z) = 0.09177 0.09177
#
# Static dielectric constant tensor:
#      x y z
#    x 1.523550 0.000000 0.000000 
#    y 0.000000 1.523550 0.000000 
#    z 0.000000 0.000000 1.561150 
# 
# From -- ./inp_files/3918.got.cif
#   From: 2010.05.17/outbox.cif.g08.bks.cpg/sg191_2_cif.got.tgz:3918.got - 2010.05.20 12:20:32.
