data_PCOD9587912
_publ_section_title
;
Structure prediction by ZEFSAII (Michael W. Deem and Ramdas Pophale) SiO2 
 PCOD9587912
Probable space group: P 6/M M M
;
_chemical_formula_sum "Si O2"
_cell_formula_units_Z 120
_cell_length_a 17.976010
_cell_length_b 17.976010
_cell_length_c 28.049380
_cell_angle_alpha 90.000000
_cell_angle_beta 90.000000
_cell_angle_gamma 120.000000
_cell_volume 7849.472998
_symmetry_space_group_name_H-M "P 6/M M M"
_symmetry_group_IT_number 191
_symmetry_cell_setting 'hexagonal'
loop_
_space_group_symop_operation_xyz
x,y,z
x-y,x,z
-y,x-y,z
-x,-y,z
-x+y,-x,z
y,-x+y,z
x-y,-y,-z
-x,-x+y,-z
y,x,-z
-y,-x,-z
-x+y,y,-z
x,x-y,-z
-x,-y,-z
-x+y,-x,-z
y,-x+y,-z
x,y,-z
x-y,x,-z
-y,x-y,-z
-x+y,y,z
x,x-y,z
-y,-x,z
y,x,z
x-y,-y,z
-x,-x+y,z
loop_
_atom_site_type_symbol
_atom_site_label
_atom_site_fract_x
_atom_site_fract_y
_atom_site_fract_z
Si Si1 0.509972 0.667198 0.620968
Si Si2 0.590459 0.000000 0.554602
Si Si3 0.901675 0.630104 0.000000
Si Si4 0.333572 0.492142 0.269366
Si Si5 0.332544 0.841635 0.908217
Si Si6 0.633159 0.902965 0.181705
O O1 0.509791 0.754896 0.613081
O O2 0.413845 0.586156 0.615631
O O3 0.570447 0.654528 0.584220
O O4 0.534956 0.664653 0.676102
O O5 0.500000 0.000000 0.554040
O O6 0.616087 0.000000 0.500000
O O7 0.883889 0.570358 0.046295
O O8 0.829058 0.658115 0.000000
O O9 0.000000 0.705439 0.000000
O O10 0.258686 0.517373 0.267219
O O11 0.425135 0.574866 0.258310
O O12 0.307682 0.417680 0.231100
O O13 0.426038 0.852075 0.909787
O O14 0.258846 0.741154 0.908444
O O15 0.317118 0.882265 0.860841
O O16 0.659829 0.829915 0.179141
O O17 0.709067 0.000000 0.177322
#
# Coordination Sequence:
#
# PCOD9587912 Si02
#       6
#    24  12  12  24  24  24
#     4   9  17  29  45  64  87 118 154 189 224 265
#     4   9  18  30  42  60  86 114 147 188 230 264
#     4  10  21  35  51  70  93 123 160 202 247 287
#     4   9  17  28  44  66  92 121 151 183 218 261
#     4  10  20  33  49  71  99 131 162 192 226 269
#     4  10  21  34  48  68  93 121 153 190 234 278
#
# _framework density 15.287649999999999
#
# number of rings (size 3 to 8) (size 9 to 14) (size 15 to 20)
#    0.000    2.500    0.000    2.100    1.400    5.200 
#    0.000    3.000    0.000    1.500    0.000    0.000 
#    0.000    4.800    0.000    0.300    0.000    1.700 
#
# Total GULP energy -669304.342432 kJ/mol
# GULP energy per Si atom -5577.536187 kJ/mol
# Density = 1.525285 g / cm^3
# Si number density = 15.287650 Si / 1000 Ang^3
#
#
#
# Elastic Constant Matrix: (Units=GPa)
#
#
# Indices 1 2 3 4 5 6 
#
# 1 84.1848 66.1542 51.2641 0.0000 0.0000 0.0000
# 2 66.1542 84.1848 51.2641 0.0000 0.0000 0.0000
# 3 51.2641 51.2641 107.0183 0.0000 0.0000 0.0000
# 4 0.0000 0.0000 0.0000 15.3728 0.0000 0.0000
# 5 0.0000 0.0000 0.0000 0.0000 15.3728 0.0000
# 6 0.0000 0.0000 0.0000 0.0000 0.0000 9.0153
#
#
#
# Elastic Compliance Matrix: (Units=1/GPa)
#
#
# Indices 1 2 3 4 5 6 
#
# 1 0.032670 -0.022791 -0.004732 0.000000 0.000000 0.000000
# 2 -0.022791 0.032670 -0.004732 0.000000 0.000000 0.000000
# 3 -0.004732 -0.004732 0.013878 0.000000 0.000000 0.000000
# 4 0.000000 0.000000 0.000000 0.065050 0.000000 0.000000
# 5 0.000000 0.000000 0.000000 0.000000 0.065050 0.000000
# 6 0.000000 0.000000 0.000000 0.000000 0.000000 0.110923
#
#
# Mechanical properties :
#
#
# Convention : Reuss Voigt Hill
#
# Bulk Modulus (GPa) = 67.99560 68.08361 68.03960
# Shear Modulus (GPa) = 12.83191 15.06590 13.94891
#
# Velocity S-wave (km/s) = 2.90032 3.14267 3.02392
# Velocity P-wave (km/s) = 7.46926 7.60264 7.53625
#
# Compressibility (1/GPa) = 0.01470683
#
# Stress axis : x y z
#
# Youngs Moduli (GPa) = 30.60904 30.60904 72.05726
#
# Poissons Ratio (x) = 0.69762 0.34099
# Poissons Ratio (y) = 0.69762 0.34099
# Poissons Ratio (z) = 0.14485 0.14485
#
# Static dielectric constant tensor:
#      x y z
#    x 1.489740 0.000000 0.000000 
#    y 0.000000 1.489740 0.000000 
#    z 0.000000 0.000000 1.520860 
# 
# From -- ./inp_files/8601.got.cif
#   From: 2010.05.17/outbox.cif.g08.bks.cpg/sg191_5_cif.got.tgz:8601.got - 2010.05.20 12:20:32.
