data_PCOD9587852
_publ_section_title
;
Structure prediction by ZEFSAII (Michael W. Deem and Ramdas Pophale) SiO2 
 PCOD9587852
Probable space group: P 6/M M M
;
_chemical_formula_sum "Si O2"
_cell_formula_units_Z 108
_cell_length_a 18.559192
_cell_length_b 18.559192
_cell_length_c 22.472402
_cell_angle_alpha 90.000000
_cell_angle_beta 90.000000
_cell_angle_gamma 120.000000
_cell_volume 6703.448177
_symmetry_space_group_name_H-M "P 6/M M M"
_symmetry_group_IT_number 191
_symmetry_cell_setting 'hexagonal'
loop_
_space_group_symop_operation_xyz
x,y,z
x-y,x,z
-y,x-y,z
-x,-y,z
-x+y,-x,z
y,-x+y,z
x-y,-y,-z
-x,-x+y,-z
y,x,-z
-y,-x,-z
-x+y,y,-z
x,x-y,-z
-x,-y,-z
-x+y,-x,-z
y,-x+y,-z
x,y,-z
x-y,x,-z
-y,x-y,-z
-x+y,y,z
x,x-y,z
-y,-x,z
y,x,z
x-y,-y,z
-x,-x+y,z
loop_
_atom_site_type_symbol
_atom_site_label
_atom_site_fract_x
_atom_site_fract_y
_atom_site_fract_z
Si Si1 0.905252 0.259194 0.070774
Si Si2 0.836524 0.332955 0.834983
Si Si3 0.631299 0.100602 0.500000
Si Si4 0.740098 0.094990 0.739547
Si Si5 0.353018 0.095876 0.401125
O O1 0.835913 0.164088 0.085150
O O2 0.878888 0.316066 0.108061
O O3 0.000000 0.286120 0.085445
O O4 0.900852 0.270592 0.000000
O O5 0.845377 0.422689 0.834924
O O6 0.740066 0.259935 0.834877
O O7 0.879322 0.316112 0.778273
O O8 0.567146 0.134292 0.500000
O O9 0.688755 0.122101 0.558045
O O10 0.575962 0.000000 0.500000
O O11 0.835547 0.164454 0.752984
O O12 0.727134 0.099992 0.668986
O O13 0.713587 0.000000 0.753154
O O14 0.321431 0.160716 0.412611
O O15 0.286972 0.000000 0.415348
#
# Coordination Sequence:
#
# PCOD9587852 Si02
#       5
#    24  24  12  24  24
#     4   9  18  32  49  69  93 121 152 186 225 267
#     4  10  20  33  48  67  92 121 152 186 226 271
#     4   9  17  28  43  64  88 114 146 185 225 262
#     4   9  18  31  47  68  93 121 152 187 227 269
#     4   9  17  30  48  69  93 121 153 187 224 268
#
# _framework density 16.111111000000001
#
# number of rings (size 3 to 8) (size 9 to 14) (size 15 to 20)
#    0.000    2.778    0.000    1.222    0.000    3.111 
#    0.000    3.333    0.000    3.778    0.000    4.667 
#    0.000    8.000    0.000    0.667    0.000    0.000 
#
# Total GULP energy -601533.194121 kJ/mol
# GULP energy per Si atom -5569.751797 kJ/mol
# Density = 1.607444 g / cm^3
# Si number density = 16.111111 Si / 1000 Ang^3
#
#
#
# Elastic Constant Matrix: (Units=GPa)
#
#
# Indices 1 2 3 4 5 6 
#
# 1 118.8605 92.0723 49.7516 0.0000 0.0000 0.0000
# 2 92.0723 118.8605 49.7516 0.0000 0.0000 0.0000
# 3 49.7516 49.7516 60.4578 0.0000 0.0000 0.0000
# 4 0.0000 0.0000 0.0000 20.8563 0.0000 0.0000
# 5 0.0000 0.0000 0.0000 0.0000 20.8563 0.0000
# 6 0.0000 0.0000 0.0000 0.0000 0.0000 13.3941
#
#
#
# Elastic Compliance Matrix: (Units=1/GPa)
#
#
# Indices 1 2 3 4 5 6 
#
# 1 0.022539 -0.014790 -0.006377 0.000000 0.000000 0.000000
# 2 -0.014790 0.022539 -0.006377 0.000000 0.000000 0.000000
# 3 -0.006377 -0.006377 0.027035 0.000000 0.000000 0.000000
# 4 0.000000 0.000000 0.000000 0.047947 0.000000 0.000000
# 5 0.000000 0.000000 0.000000 0.000000 0.047947 0.000000
# 6 0.000000 0.000000 0.000000 0.000000 0.000000 0.074660
#
#
# Mechanical properties :
#
#
# Convention : Reuss Voigt Hill
#
# Bulk Modulus (GPa) = 58.73212 75.70329 67.21771
# Shear Modulus (GPa) = 16.47821 18.12824 17.30323
#
# Velocity S-wave (km/s) = 3.20157 3.35804 3.28074
# Velocity P-wave (km/s) = 7.08522 7.88197 7.49419
#
# Compressibility (1/GPa) = 0.01702646
#
# Stress axis : x y z
#
# Youngs Moduli (GPa) = 44.36684 44.36684 36.98860
#
# Poissons Ratio (x) = 0.65621 0.23586
# Poissons Ratio (y) = 0.65621 0.23586
# Poissons Ratio (z) = 0.28291 0.28291
#
# Static dielectric constant tensor:
#      x y z
#    x 1.528760 0.000000 0.000000 
#    y 0.000000 1.528760 0.000000 
#    z 0.000000 0.000000 1.561040 
# 
# From -- ./inp_files/7315.got.cif
#   From: 2010.05.17/outbox.cif.g08.bks.cpg/sg191_4_cif.got.tgz:7315.got - 2010.05.20 12:20:32.
