data_PCOD9587618
_publ_section_title
;
Structure prediction by ZEFSAII (Michael W. Deem and Ramdas Pophale) SiO2 
 PCOD9587618
Probable space group: P 6/M M M
;
_chemical_formula_sum "Si O2"
_cell_formula_units_Z 168
_cell_length_a 27.194558
_cell_length_b 27.194558
_cell_length_c 17.326429
_cell_angle_alpha 90.000000
_cell_angle_beta 90.000000
_cell_angle_gamma 120.000000
_cell_volume 11096.951910
_symmetry_space_group_name_H-M "P 6/M M M"
_symmetry_group_IT_number 191
_symmetry_cell_setting 'hexagonal'
loop_
_space_group_symop_operation_xyz
x,y,z
x-y,x,z
-y,x-y,z
-x,-y,z
-x+y,-x,z
y,-x+y,z
x-y,-y,-z
-x,-x+y,-z
y,x,-z
-y,-x,-z
-x+y,y,-z
x,x-y,-z
-x,-y,-z
-x+y,-x,-z
y,-x+y,-z
x,y,-z
x-y,x,-z
-y,x-y,-z
-x+y,y,z
x,x-y,z
-y,-x,z
y,x,z
x-y,-y,z
-x,-x+y,z
loop_
_atom_site_type_symbol
_atom_site_label
_atom_site_fract_x
_atom_site_fract_y
_atom_site_fract_z
Si Si1 0.378056 0.244827 0.000000
Si Si2 0.721307 0.654791 0.679714
Si Si3 0.067446 0.688671 0.852874
Si Si4 0.861340 0.485833 0.151151
Si Si5 0.834236 0.553820 0.408972
Si Si6 0.515373 0.201894 0.000000
Si Si7 0.065176 0.243448 0.409797
Si Si8 0.333721 0.781908 0.699110
O O1 0.363067 0.267341 0.922989
O O2 0.356085 0.178043 0.000000
O O3 0.446729 0.276310 0.000000
O O4 0.675824 0.675824 0.667830
O O5 0.720112 0.641179 0.770359
O O6 0.707491 0.599047 0.632342
O O7 0.780357 0.705449 0.646340
O O8 0.094324 0.647241 0.852237
O O9 0.000000 0.651842 0.863716
O O10 0.886601 0.443301 0.152782
O O11 0.820647 0.469692 0.076633
O O12 0.822751 0.473131 0.226872
O O13 0.842003 0.552491 0.500000
O O14 0.785265 0.570530 0.395631
O O15 0.810346 0.492536 0.370375
O O16 0.537678 0.268839 0.000000
O O17 0.070529 0.262489 0.500000
O O18 0.113395 0.226790 0.397022
O O19 0.000000 0.193872 0.399591
O O20 0.387314 0.774628 0.681056
O O21 0.278370 0.721631 0.716149
#
# Coordination Sequence:
#
# PCOD9587618 Si02
#       8
#    12  24  24  24  24  12  24  24
#     4   9  19  32  49  71  95 127 160 189 228 271
#     4  10  19  31  48  72  99 128 161 198 241 286
#     4  10  20  34  50  72 100 128 159 197 239 280
#     4  10  19  32  50  71  94 124 157 191 236 295
#     4  10  20  33  50  71  94 121 155 198 248 298
#     4   9  17  30  47  69  94 115 146 191 232 278
#     4   9  17  29  46  70 100 131 162 198 239 281
#     4  10  20  34  51  70  92 120 155 198 249 302
#
# _framework density 15.139291999999999
#
# number of rings (size 3 to 8) (size 9 to 14) (size 15 to 20)
#    0.000    2.286    1.429    1.857    0.000    4.286 
#    0.000    0.000    0.000    6.000    0.000    2.000 
#    0.000    0.000    0.000    0.000    0.000    0.000 
#
# Total GULP energy -936488.223241 kJ/mol
# GULP energy per Si atom -5574.334662 kJ/mol
# Density = 1.510483 g / cm^3
# Si number density = 15.139292 Si / 1000 Ang^3
#
#
#
# Elastic Constant Matrix: (Units=GPa)
#
#
# Indices 1 2 3 4 5 6 
#
# 1 85.6832 49.2964 54.4671 0.0000 0.0000 0.0000
# 2 49.2964 85.6832 54.4671 0.0000 0.0000 0.0000
# 3 54.4671 54.4671 110.6555 0.0000 0.0000 0.0000
# 4 0.0000 0.0000 0.0000 19.5452 0.0000 0.0000
# 5 0.0000 0.0000 0.0000 0.0000 19.5452 0.0000
# 6 0.0000 0.0000 0.0000 0.0000 0.0000 18.1934
#
#
#
# Elastic Compliance Matrix: (Units=1/GPa)
#
#
# Indices 1 2 3 4 5 6 
#
# 1 0.019887 -0.007596 -0.006050 0.000000 0.000000 0.000000
# 2 -0.007596 0.019887 -0.006050 0.000000 0.000000 0.000000
# 3 -0.006050 -0.006050 0.014993 0.000000 0.000000 0.000000
# 4 0.000000 0.000000 0.000000 0.051163 0.000000 0.000000
# 5 0.000000 0.000000 0.000000 0.000000 0.051163 0.000000
# 6 0.000000 0.000000 0.000000 0.000000 0.000000 0.054965
#
#
# Mechanical properties :
#
#
# Convention : Reuss Voigt Hill
#
# Bulk Modulus (GPa) = 65.03944 66.49810 65.76877
# Shear Modulus (GPa) = 19.48751 19.70952 19.59852
#
# Velocity S-wave (km/s) = 3.59167 3.61207 3.60188
# Velocity P-wave (km/s) = 7.76235 7.83681 7.79967
#
# Compressibility (1/GPa) = 0.01537529
#
# Stress axis : x y z
#
# Youngs Moduli (GPa) = 50.28463 50.28463 66.69828
#
# Poissons Ratio (x) = 0.38195 0.40352
# Poissons Ratio (y) = 0.38195 0.40352
# Poissons Ratio (z) = 0.30422 0.30422
#
# Static dielectric constant tensor:
#      x y z
#    x 1.491530 0.000000 0.000000 
#    y 0.000000 1.491530 0.000000 
#    z 0.000000 0.000000 1.496120 
# 
# From -- ./inp_files/5361.got.cif
#   From: 2010.05.17/outbox.cif.g08.bks.cpg/sg191_3_cif.got.tgz:5361.got - 2010.05.20 12:20:32.
