data_PCOD9587330
_publ_section_title
;
Structure prediction by ZEFSAII (Michael W. Deem and Ramdas Pophale) SiO2 
 PCOD9587330
Probable space group: P 6/M M M
;
_chemical_formula_sum "Si O2"
_cell_formula_units_Z 156
_cell_length_a 22.184882
_cell_length_b 22.184882
_cell_length_c 22.313313
_cell_angle_alpha 90.000000
_cell_angle_beta 90.000000
_cell_angle_gamma 120.000000
_cell_volume 9510.622316
_symmetry_space_group_name_H-M "P 6/M M M"
_symmetry_group_IT_number 191
_symmetry_cell_setting 'hexagonal'
loop_
_space_group_symop_operation_xyz
x,y,z
x-y,x,z
-y,x-y,z
-x,-y,z
-x+y,-x,z
y,-x+y,z
x-y,-y,-z
-x,-x+y,-z
y,x,-z
-y,-x,-z
-x+y,y,-z
x,x-y,-z
-x,-y,-z
-x+y,-x,-z
y,-x+y,-z
x,y,-z
x-y,x,-z
-y,x-y,-z
-x+y,y,z
x,x-y,z
-y,-x,z
y,x,z
x-y,-y,z
-x,-x+y,z
loop_
_atom_site_type_symbol
_atom_site_label
_atom_site_fract_x
_atom_site_fract_y
_atom_site_fract_z
Si Si1 0.921488 0.705510 0.263393
Si Si2 0.380795 0.299439 0.146615
Si Si3 0.080337 0.919664 0.073084
Si Si4 0.161181 0.322361 0.928406
Si Si5 0.333793 0.808531 0.662694
Si Si6 0.919162 0.700965 0.500000
Si Si7 0.377445 0.080672 0.380771
Si Si8 0.666065 0.475210 0.193927
O O1 0.863479 0.726957 0.257320
O O2 0.915033 0.656232 0.208042
O O3 0.909266 0.662005 0.324257
O O4 0.000000 0.768531 0.264203
O O5 0.350940 0.350940 0.133133
O O6 0.358177 0.238937 0.097606
O O7 0.462839 0.336110 0.158998
O O8 0.120621 0.879380 0.091320
O O9 0.000000 0.879053 0.092694
O O10 0.079853 0.920148 0.000000
O O11 0.162243 0.324485 0.000000
O O12 0.404463 0.808927 0.647770
O O13 0.266787 0.733214 0.651501
O O14 0.325078 0.866525 0.627783
O O15 0.334805 0.821880 0.734386
O O16 0.863090 0.726179 0.500000
O O17 0.907802 0.654143 0.558642
O O18 0.000000 0.761154 0.500000
O O19 0.357296 0.000000 0.379672
O O20 0.738550 0.477099 0.180868
O O21 0.599965 0.400036 0.180620
#
# Coordination Sequence:
#
# PCOD9587330 Si02
#       8
#    24  24  12  12  24  12  24  24
#     4  10  18  31  51  74 101 133 170 214 261 308
#     4  11  21  34  54  81 110 138 174 218 264 314
#     4   9  17  30  49  74 104 140 181 221 257 295
#     4  11  22  37  56  77 108 145 181 217 262 323
#     4  10  19  31  50  75 108 142 176 218 264 313
#     4  10  20  34  53  78 107 141 181 223 268 320
#     4  10  20  33  52  77 104 137 176 221 269 315
#     4  10  19  33  54  82 112 140 175 221 274 324
#
# _framework density 16.402712000000001
#
# number of rings (size 3 to 8) (size 9 to 14) (size 15 to 20)
#    0.000    1.846    3.077    2.231    0.000    3.077 
#    0.000    1.923    0.000    2.077    0.000    2.154 
#    0.000    3.692    0.000    0.000    0.000    0.308 
#
# Total GULP energy -870638.732694 kJ/mol
# GULP energy per Si atom -5581.017517 kJ/mol
# Density = 1.636538 g / cm^3
# Si number density = 16.402712 Si / 1000 Ang^3
#
#
#
# Elastic Constant Matrix: (Units=GPa)
#
#
# Indices 1 2 3 4 5 6 
#
# 1 113.0982 75.2637 24.2672 0.0000 0.0000 0.0000
# 2 75.2637 113.0982 24.2672 0.0000 0.0000 0.0000
# 3 24.2672 24.2672 61.6740 0.0000 0.0000 0.0000
# 4 0.0000 0.0000 0.0000 18.9094 0.0000 0.0000
# 5 0.0000 0.0000 0.0000 0.0000 18.9094 0.0000
# 6 0.0000 0.0000 0.0000 0.0000 0.0000 18.9173
#
#
#
# Elastic Compliance Matrix: (Units=1/GPa)
#
#
# Indices 1 2 3 4 5 6 
#
# 1 0.016169 -0.010261 -0.002325 0.000000 0.000000 0.000000
# 2 -0.010261 0.016169 -0.002325 0.000000 0.000000 0.000000
# 3 -0.002325 -0.002325 0.018044 0.000000 0.000000 0.000000
# 4 0.000000 0.000000 0.000000 0.052884 0.000000 0.000000
# 5 0.000000 0.000000 0.000000 0.000000 0.052884 0.000000
# 6 0.000000 0.000000 0.000000 0.000000 0.000000 0.052862
#
#
# Mechanical properties :
#
#
# Convention : Reuss Voigt Hill
#
# Bulk Modulus (GPa) = 48.63574 59.49627 54.06600
# Shear Modulus (GPa) = 20.35112 22.28537 21.31824
#
# Velocity S-wave (km/s) = 3.52620 3.68997 3.60902
# Velocity P-wave (km/s) = 6.80398 7.38278 7.09928
#
# Compressibility (1/GPa) = 0.02056101
#
# Stress axis : x y z
#
# Youngs Moduli (GPa) = 61.84526 61.84526 55.42115
#
# Poissons Ratio (x) = 0.63462 0.12883
# Poissons Ratio (y) = 0.63462 0.12883
# Poissons Ratio (z) = 0.14377 0.14377
#
# Static dielectric constant tensor:
#      x y z
#    x 1.539780 0.000000 0.000000 
#    y 0.000000 1.539780 0.000000 
#    z 0.000000 0.000000 1.544120 
# 
# From -- ./inp_files/7768.got.cif
#   From: 2010.05.17/outbox.cif.g08.bks.cpg/sg191_4_cif.got.tgz:7768.got - 2010.05.20 12:20:32.
