data_PCOD9587301
_publ_section_title
;
Structure prediction by ZEFSAII (Michael W. Deem and Ramdas Pophale) SiO2 
 PCOD9587301
Probable space group: P 6/M M M
;
_chemical_formula_sum "Si O2"
_cell_formula_units_Z 180
_cell_length_a 21.176384
_cell_length_b 21.176384
_cell_length_c 31.703629
_cell_angle_alpha 90.000000
_cell_angle_beta 90.000000
_cell_angle_gamma 120.000000
_cell_volume 12312.414171
_symmetry_space_group_name_H-M "P 6/M M M"
_symmetry_group_IT_number 191
_symmetry_cell_setting 'hexagonal'
loop_
_space_group_symop_operation_xyz
x,y,z
x-y,x,z
-y,x-y,z
-x,-y,z
-x+y,-x,z
y,-x+y,z
x-y,-y,-z
-x,-x+y,-z
y,x,-z
-y,-x,-z
-x+y,y,-z
x,x-y,-z
-x,-y,-z
-x+y,-x,-z
y,-x+y,-z
x,y,-z
x-y,x,-z
-y,x-y,-z
-x+y,y,z
x,x-y,z
-y,-x,z
y,x,z
x-y,-y,z
-x,-x+y,z
loop_
_atom_site_type_symbol
_atom_site_label
_atom_site_fract_x
_atom_site_fract_y
_atom_site_fract_z
Si Si1 0.335133 0.521970 0.365347
Si Si2 0.085436 0.441407 0.712960
Si Si3 0.916801 0.534953 0.126049
Si Si4 0.516627 0.183606 0.951061
Si Si5 0.081101 0.774913 0.329018
Si Si6 0.083904 0.773262 0.500000
Si Si7 0.817291 0.483424 0.205350
Si Si8 0.611718 0.695436 0.414482
O O1 0.256104 0.512208 0.355803
O O2 0.394491 0.605510 0.372266
O O3 0.361912 0.491629 0.326607
O O4 0.328669 0.471210 0.404708
O O5 0.087122 0.367186 0.703704
O O6 0.129310 0.480722 0.754784
O O7 0.000000 0.417713 0.714072
O O8 0.920094 0.460047 0.127351
O O9 0.879015 0.533203 0.081817
O O10 0.863267 0.526588 0.164136
O O11 0.000000 0.599634 0.130417
O O12 0.598829 0.197658 0.945860
O O13 0.516041 0.258021 0.942600
O O14 0.496206 0.163027 0.000000
O O15 0.144071 0.855930 0.322031
O O16 0.090414 0.747403 0.375214
O O17 0.000000 0.760979 0.326826
O O18 0.141938 0.858063 0.500000
O O19 0.095273 0.736718 0.541694
O O20 0.000000 0.752744 0.500000
O O21 0.743116 0.486232 0.209905
O O22 0.799630 0.399815 0.201756
O O23 0.629584 0.629584 0.413225
#
# Coordination Sequence:
#
# PCOD9587301 Si02
#       8
#    24  24  24  24  24  12  24  24
#     4  11  21  33  48  66  90 116 144 176 214 260
#     4  10  20  32  48  66  84 110 141 176 213 250
#     4   9  18  30  42  57  78 105 137 173 211 252
#     4   9  16  26  41  60  81 105 135 172 214 259
#     4   9  16  28  45  65  87 110 139 171 206 245
#     4  10  18  30  49  72  95 117 145 179 218 258
#     4  11  21  32  45  61  84 111 140 173 212 259
#     4   9  18  31  49  69  87 111 143 182 218 249
#
# _framework density 14.619391
#
# number of rings (size 3 to 8) (size 9 to 14) (size 15 to 20)
#    0.000    2.267    0.000    6.000    0.000    3.200 
#    0.000    4.333    0.000    1.400    0.000    0.933 
#    0.000    3.200    0.000    0.000    0.000    0.267 
#
# Total GULP energy -1003492.541333 kJ/mol
# GULP energy per Si atom -5574.958563 kJ/mol
# Density = 1.458612 g / cm^3
# Si number density = 14.619391 Si / 1000 Ang^3
#
#
#
# Elastic Constant Matrix: (Units=GPa)
#
#
# Indices 1 2 3 4 5 6 
#
# 1 77.8529 51.8271 32.6303 0.0000 0.0000 0.0000
# 2 51.8271 77.8529 32.6303 0.0000 0.0000 0.0000
# 3 32.6303 32.6303 69.9727 0.0000 0.0000 0.0000
# 4 0.0000 0.0000 0.0000 15.3659 0.0000 0.0000
# 5 0.0000 0.0000 0.0000 0.0000 15.3659 0.0000
# 6 0.0000 0.0000 0.0000 0.0000 0.0000 13.0129
#
#
#
# Elastic Compliance Matrix: (Units=1/GPa)
#
#
# Indices 1 2 3 4 5 6 
#
# 1 0.024250 -0.014174 -0.004699 0.000000 0.000000 0.000000
# 2 -0.014174 0.024250 -0.004699 0.000000 0.000000 0.000000
# 3 -0.004699 -0.004699 0.018674 0.000000 0.000000 0.000000
# 4 0.000000 0.000000 0.000000 0.065079 0.000000 0.000000
# 5 0.000000 0.000000 0.000000 0.000000 0.065079 0.000000
# 6 0.000000 0.000000 0.000000 0.000000 0.000000 0.076847
#
#
# Mechanical properties :
#
#
# Convention : Reuss Voigt Hill
#
# Bulk Modulus (GPa) = 49.92365 51.09490 50.50928
# Shear Modulus (GPa) = 15.24403 15.98831 15.61617
#
# Velocity S-wave (km/s) = 3.23263 3.31061 3.27185
# Velocity P-wave (km/s) = 6.93947 7.04553 6.99270
#
# Compressibility (1/GPa) = 0.02003058
#
# Stress axis : x y z
#
# Youngs Moduli (GPa) = 41.23777 41.23777 53.55165
#
# Poissons Ratio (x) = 0.58449 0.25162
# Poissons Ratio (y) = 0.58449 0.25162
# Poissons Ratio (z) = 0.19376 0.19376
#
# Static dielectric constant tensor:
#      x y z
#    x 1.477310 0.000000 0.000000 
#    y 0.000000 1.477310 0.000000 
#    z 0.000000 0.000000 1.489510 
# 
# From -- ./inp_files/10872.got.cif
#   From: 2010.05.17/outbox.cif.g08.bks.cpg/sg191_6_cif.got.tgz:10872.got - 2010.05.20 12:20:32.
