data_PCOD9587336
_publ_section_title
;
Structure prediction by ZEFSAII (Michael W. Deem and Ramdas Pophale) SiO2 
 PCOD9587336
Probable space group: P 6/M M M
;
_chemical_formula_sum "Si O2"
_cell_formula_units_Z 84
_cell_length_a 18.375960
_cell_length_b 18.375960
_cell_length_c 14.646163
_cell_angle_alpha 90.000000
_cell_angle_beta 90.000000
_cell_angle_gamma 120.000000
_cell_volume 4283.064046
_symmetry_space_group_name_H-M "P 6/M M M"
_symmetry_group_IT_number 191
_symmetry_cell_setting 'hexagonal'
loop_
_space_group_symop_operation_xyz
x,y,z
x-y,x,z
-y,x-y,z
-x,-y,z
-x+y,-x,z
y,-x+y,z
x-y,-y,-z
-x,-x+y,-z
y,x,-z
-y,-x,-z
-x+y,y,-z
x,x-y,-z
-x,-y,-z
-x+y,-x,-z
y,-x+y,-z
x,y,-z
x-y,x,-z
-y,x-y,-z
-x+y,y,z
x,x-y,z
-y,-x,z
y,x,z
x-y,-y,z
-x,-x+y,z
loop_
_atom_site_type_symbol
_atom_site_label
_atom_site_fract_x
_atom_site_fract_y
_atom_site_fract_z
Si Si1 0.101318 0.632297 0.701036
Si Si2 0.376382 0.188191 0.391826
Si Si3 0.901882 0.098119 0.293003
Si Si4 0.428461 0.330670 0.900533
Si Si5 0.140223 0.280446 0.898729
O O1 0.118699 0.559350 0.668260
O O2 0.142950 0.715882 0.642071
O O3 0.132234 0.655265 0.806291
O O4 0.000000 0.592073 0.701699
O O5 0.366640 0.183320 0.500000
O O6 0.285739 0.142870 0.343352
O O7 0.891330 0.108671 0.184820
O O8 0.000000 0.144617 0.315789
O O9 0.401171 0.401171 0.903521
O O10 0.343452 0.240493 0.892305
O O11 0.466548 0.331274 0.000000
O O12 0.120983 0.241966 0.000000
#
# Coordination Sequence:
#
# PCOD9587336 Si02
#       5
#    24  12  12  24  12
#     4  10  21  39  64  94 125 156 197 248 300 365
#     4  12  26  45  67  89 118 162 209 263 332 392
#     4  12  25  42  64  92 128 170 220 275 329 386
#     4   9  16  28  51  86 123 156 192 235 287 353
#     4  10  18  31  57  89 124 168 214 255 300 369
#
# _framework density 19.612127999999998
#
# number of rings (size 3 to 8) (size 9 to 14) (size 15 to 20)
#    0.000    1.714    2.857    1.857    0.000    5.143 
#    0.857    4.286    0.000    1.714    0.000    0.000 
#    0.000    0.000    0.000    0.000    0.000    0.000 
#
# Total GULP energy -469008.973733 kJ/mol
# GULP energy per Si atom -5583.440163 kJ/mol
# Density = 1.956749 g / cm^3
# Si number density = 19.612128 Si / 1000 Ang^3
#
#
#
# Elastic Constant Matrix: (Units=GPa)
#
#
# Indices 1 2 3 4 5 6 
#
# 1 102.4115 62.0327 49.9226 0.0000 0.0000 0.0000
# 2 62.0327 102.4115 49.9226 0.0000 0.0000 0.0000
# 3 49.9226 49.9226 123.1728 0.0000 0.0000 0.0000
# 4 0.0000 0.0000 0.0000 -6.6743 0.0000 0.0000
# 5 0.0000 0.0000 0.0000 0.0000 -6.6743 0.0000
# 6 0.0000 0.0000 0.0000 0.0000 0.0000 20.1894
#
#
#
# Elastic Compliance Matrix: (Units=1/GPa)
#
#
# Indices 1 2 3 4 5 6 
#
# 1 0.016416 -0.008350 -0.003269 0.000000 0.000000 0.000000
# 2 -0.008350 0.016416 -0.003269 0.000000 0.000000 0.000000
# 3 -0.003269 -0.003269 0.010769 0.000000 0.000000 0.000000
# 4 0.000000 0.000000 0.000000 -0.149828 0.000000 0.000000
# 5 0.000000 0.000000 0.000000 0.000000 -0.149828 0.000000
# 6 0.000000 0.000000 0.000000 0.000000 0.000000 0.049531
#
#
# Mechanical properties :
#
#
# Convention : Reuss Voigt Hill
#
# Bulk Modulus (GPa) = 72.33806 72.41685 72.37746
# Shear Modulus (GPa) = -29.04602 12.44267 -8.30168
#
# Velocity S-wave (km/s) = -3.85258 2.52154 -2.05964
# Velocity P-wave (km/s) = 4.14422 6.74405 5.59718
#
# Compressibility (1/GPa) = 0.01382398
#
# Stress axis : x y z
#
# Youngs Moduli (GPa) = 60.91702 60.91702 92.86136
#
# Poissons Ratio (x) = 0.50864 0.30358
# Poissons Ratio (y) = 0.50864 0.30358
# Poissons Ratio (z) = 0.19915 0.19915
#
# Static dielectric constant tensor:
#      x y z
#    x 1.685840 0.000000 0.000000 
#    y 0.000000 1.685840 0.000000 
#    z 0.000000 0.000000 1.706090 
# 
# From -- ./inp_files/4002.got.cif
#   From: 2010.05.17/outbox.cif.g08.bks.cpg/sg191_3_cif.got.tgz:4002.got - 2010.05.20 12:20:32.
