data_PCOD9587020
_publ_section_title
;
Structure prediction by ZEFSAII (Michael W. Deem and Ramdas Pophale) SiO2 
 PCOD9587020
Probable space group: P -6 2 C
;
_chemical_formula_sum "Si O2"
_cell_formula_units_Z 72
_cell_length_a 24.000000
_cell_length_b 24.000000
_cell_length_c 9.000000
_cell_angle_alpha 90.000000
_cell_angle_beta 90.000000
_cell_angle_gamma 120.000000
_cell_volume 4489.475693
_symmetry_space_group_name_H-M "P -6 2 C"
_symmetry_group_IT_number 190
_symmetry_cell_setting 'hexagonal'
loop_
_space_group_symop_operation_xyz
x,y,z
-x+y,-x,1/2-z
-y,x-y,z
x,y,1/2-z
-x+y,-x,z
-y,x-y,1/2-z
x-y,-y,-z
-x,-x+y,-z
y,x,-z
y,x,1/2+z
x-y,-y,1/2+z
-x,-x+y,1/2+z
loop_
_atom_site_type_symbol
_atom_site_label
_atom_site_fract_x
_atom_site_fract_y
_atom_site_fract_z
Si Si1 0.471527 0.067867 0.074141
Si Si2 0.929901 0.190889 0.569095
Si Si3 0.600147 0.746950 0.930242
Si Si4 0.598359 0.401223 0.429968
Si Si5 0.069406 0.929562 0.931459
Si Si6 0.523808 0.263315 0.929890
O O1 0.468026 0.058919 0.250000
O O2 0.425033 0.096647 0.036888
O O3 0.543585 0.123906 0.038389
O O4 0.447978 0.000000 0.000000
O O5 0.932674 0.190018 0.750000
O O6 0.879859 0.211349 0.508961
O O7 0.914232 0.122847 0.497480
O O8 0.000000 0.240708 0.500000
O O9 0.603236 0.754956 0.750000
O O10 0.545796 0.759348 0.001425
O O11 0.602186 0.395767 0.250000
O O12 0.668510 0.428019 0.503521
O O13 0.549505 0.334242 0.505496
O O14 0.069891 0.930900 0.750000
O O15 0.000000 0.881329 0.000000
O O16 0.090977 0.000000 0.000000
O O17 0.523325 0.261716 0.750000
#
# Coordination Sequence:
#
# PCOD9587020 Si02
#       6
#    12  12  12  12  12  12
#     4   9  19  32  50  73  99 130 165 200 243 292
#     4  11  21  34  52  77 105 136 171 210 253 301
#     4  10  20  35  52  74 103 137 169 204 252 305
#     4  10  20  35  51  71 101 137 167 200 249 305
#     4  11  21  35  53  76 104 136 171 210 254 304
#     4  11  21  33  51  77 102 130 168 212 253 297
#
# _framework density 16.037507000000002
#
# number of rings (size 3 to 8) (size 9 to 14) (size 15 to 20)
#    0.000    1.667    0.000    8.500    0.000    5.333 
#    0.000    0.000    0.000    1.000    0.000    4.667 
#    0.000    0.000    0.000    0.000    0.000    0.000 
#
# Total GULP energy -401882.757490 kJ/mol
# GULP energy per Si atom -5581.704965 kJ/mol
# Density = 1.600101 g / cm^3
# Si number density = 16.037507 Si / 1000 Ang^3
#
#
#
# Elastic Constant Matrix: (Units=GPa)
#
#
# Indices 1 2 3 4 5 6 
#
# 1 110.2897 75.6910 59.9060 0.0000 0.0000 0.0000
# 2 75.6910 110.2897 59.9060 0.0000 0.0000 0.0000
# 3 59.9060 59.9060 153.5661 0.0000 0.0000 0.0000
# 4 0.0000 0.0000 0.0000 31.4075 0.0000 0.0000
# 5 0.0000 0.0000 0.0000 0.0000 31.4075 0.0000
# 6 0.0000 0.0000 0.0000 0.0000 0.0000 17.2994
#
#
#
# Elastic Compliance Matrix: (Units=1/GPa)
#
#
# Indices 1 2 3 4 5 6 
#
# 1 0.018042 -0.010861 -0.002802 0.000000 0.000000 0.000000
# 2 -0.010861 0.018042 -0.002802 0.000000 0.000000 0.000000
# 3 -0.002802 -0.002802 0.008698 0.000000 0.000000 0.000000
# 4 0.000000 0.000000 0.000000 0.031839 0.000000 0.000000
# 5 0.000000 0.000000 0.000000 0.000000 0.031839 0.000000
# 6 0.000000 0.000000 0.000000 0.000000 0.000000 0.057806
#
#
# Mechanical properties :
#
#
# Convention : Reuss Voigt Hill
#
# Bulk Modulus (GPa) = 84.35426 85.01682 84.68554
# Shear Modulus (GPa) = 24.61287 27.93239 26.27263
#
# Velocity S-wave (km/s) = 3.92178 4.17789 4.05186
# Velocity P-wave (km/s) = 8.55684 8.74067 8.64924
#
# Compressibility (1/GPa) = 0.01185477
#
# Stress axis : x y z
#
# Youngs Moduli (GPa) = 55.42542 55.42542 114.97364
#
# Poissons Ratio (x) = 0.60195 0.32211
# Poissons Ratio (y) = 0.60195 0.32211
# Poissons Ratio (z) = 0.15528 0.15528
#
# Static dielectric constant tensor:
#      x y z
#    x 1.543840 0.000000 0.000000 
#    y 0.000000 1.543840 0.000000 
#    z 0.000000 0.000000 1.528440 
# 
# From -- ./inp_files/1261.got.cif
#   From: 2010.05.17/outbox.ucp.g08.bks.cvg/sg190_1_cif.got.tgz:1261.got - 2010.06.11 15:22:26.
