data_PCOD9587696
_publ_section_title
;
Structure prediction by ZEFSAII (Michael W. Deem and Ramdas Pophale) SiO2 
 PCOD9587696
Probable space group: P 6/M M M
;
_chemical_formula_sum "Si O2"
_cell_formula_units_Z 168
_cell_length_a 22.015058
_cell_length_b 22.015058
_cell_length_c 23.715309
_cell_angle_alpha 90.000000
_cell_angle_beta 90.000000
_cell_angle_gamma 120.000000
_cell_volume 9954.033255
_symmetry_space_group_name_H-M "P 6/M M M"
_symmetry_group_IT_number 191
_symmetry_cell_setting 'hexagonal'
loop_
_space_group_symop_operation_xyz
x,y,z
x-y,x,z
-y,x-y,z
-x,-y,z
-x+y,-x,z
y,-x+y,z
x-y,-y,-z
-x,-x+y,-z
y,x,-z
-y,-x,-z
-x+y,y,-z
x,x-y,-z
-x,-y,-z
-x+y,-x,-z
y,-x+y,-z
x,y,-z
x-y,x,-z
-y,x-y,-z
-x+y,y,z
x,x-y,z
-y,-x,z
y,x,z
x-y,-y,z
-x,-x+y,z
loop_
_atom_site_type_symbol
_atom_site_label
_atom_site_fract_x
_atom_site_fract_y
_atom_site_fract_z
Si Si1 0.333978 0.529234 0.931412
Si Si2 0.812050 0.476679 0.660219
Si Si3 0.291958 0.372973 0.934939
Si Si4 0.918974 0.349448 0.565543
Si Si5 0.221577 0.300973 0.618971
Si Si6 0.077664 0.293580 0.827905
Si Si7 0.731218 0.124998 0.731355
O O1 0.269225 0.538449 0.912439
O O2 0.407511 0.592490 0.911036
O O3 0.318905 0.452304 0.916782
O O4 0.335058 0.532076 0.000000
O O5 0.739536 0.479071 0.654776
O O6 0.797182 0.398591 0.669435
O O7 0.860532 0.509908 0.604857
O O8 0.859084 0.530674 0.709904
O O9 0.352888 0.352888 0.932948
O O10 0.233480 0.321240 0.891694
O O11 0.267636 0.364805 0.000000
O O12 0.909576 0.359582 0.500000
O O13 0.912130 0.273327 0.575469
O O14 0.000000 0.405547 0.581609
O O15 0.142068 0.284136 0.612546
O O16 0.237380 0.237380 0.614770
O O17 0.249749 0.339361 0.679623
O O18 0.138791 0.277581 0.812265
O O19 0.084788 0.356614 0.788039
O O20 0.000000 0.229274 0.820815
O O21 0.798459 0.201542 0.739381
#
# Coordination Sequence:
#
# PCOD9587696 Si02
#       7
#    24  24  24  24  24  24  24
#     4   9  16  26  41  60  83 112 146 183 224 274
#     4  10  20  34  52  73 100 133 166 200 240 291
#     4   9  18  31  47  69  96 126 159 196 239 284
#     4   9  18  32  49  69  94 126 165 209 252 287
#     4   9  16  27  45  67  90 116 149 191 237 284
#     4  10  19  32  52  75  99 126 158 197 238 283
#     4   8  16  31  49  68  88 115 154 196 233 268
#
# _framework density 16.877580999999999
#
# number of rings (size 3 to 8) (size 9 to 14) (size 15 to 20)
#    0.000    2.857    0.000    2.429    0.000    4.000 
#    0.000    2.857    0.000    2.000    0.000    2.000 
#    0.000    3.429    0.000    7.143    0.000    0.000 
#
# Total GULP energy -935471.988100 kJ/mol
# GULP energy per Si atom -5568.285643 kJ/mol
# Density = 1.683917 g / cm^3
# Si number density = 16.877581 Si / 1000 Ang^3
#
#
#
# Elastic Constant Matrix: (Units=GPa)
#
#
# Indices 1 2 3 4 5 6 
#
# 1 53.2354 73.5534 15.6862 0.0000 0.0000 0.0000
# 2 73.5534 53.2354 15.6862 0.0000 0.0000 0.0000
# 3 15.6862 15.6862 47.8755 0.0000 0.0000 0.0000
# 4 0.0000 0.0000 0.0000 11.4978 0.0000 0.0000
# 5 0.0000 0.0000 0.0000 0.0000 11.4978 0.0000
# 6 0.0000 0.0000 0.0000 0.0000 0.0000 -10.1590
#
#
#
# Elastic Compliance Matrix: (Units=1/GPa)
#
#
# Indices 1 2 3 4 5 6 
#
# 1 -0.020317 0.028900 -0.002812 0.000000 0.000000 0.000000
# 2 0.028900 -0.020317 -0.002812 0.000000 0.000000 0.000000
# 3 -0.002812 -0.002812 0.022730 0.000000 0.000000 0.000000
# 4 0.000000 0.000000 0.000000 0.086973 0.000000 0.000000
# 5 0.000000 0.000000 0.000000 0.000000 0.086973 0.000000
# 6 0.000000 0.000000 0.000000 0.000000 0.000000 -0.098435
#
#
# Mechanical properties :
#
#
# Convention : Reuss Voigt Hill
#
# Bulk Modulus (GPa) = 34.90699 40.46642 37.68671
# Shear Modulus (GPa) = 242.67213 5.86204 124.26708
#
# Velocity S-wave (km/s) = 12.00399 1.86569 8.59001
# Velocity P-wave (km/s) = 14.58956 5.35440 10.98919
#
# Compressibility (1/GPa) = 0.02864755
#
# Stress axis : x y z
#
# Youngs Moduli (GPa) = -49.21916 -49.21916 43.99418
#
# Poissons Ratio (x) = 1.42245 0.12372
# Poissons Ratio (y) = 1.42245 0.12372
# Poissons Ratio (z) = -0.13841 -0.13841
#
# Static dielectric constant tensor:
#      x y z
#    x 1.572200 0.000000 0.000000 
#    y 0.000000 1.572200 0.000000 
#    z 0.000000 0.000000 1.607220 
# 
# From -- ./inp_files/9018.got.cif
#   From: 2010.05.17/outbox.cif.g08.bks.cpg/sg191_5_cif.got.tgz:9018.got - 2010.05.20 12:20:32.
