data_PCOD9587293
_publ_section_title
;
Structure prediction by ZEFSAII (Michael W. Deem and Ramdas Pophale) SiO2 
 PCOD9587293
Probable space group: P 6/M M M
;
_chemical_formula_sum "Si O2"
_cell_formula_units_Z 180
_cell_length_a 21.791241
_cell_length_b 21.791241
_cell_length_c 31.792947
_cell_angle_alpha 90.000000
_cell_angle_beta 90.000000
_cell_angle_gamma 120.000000
_cell_volume 13074.507706
_symmetry_space_group_name_H-M "P 6/M M M"
_symmetry_group_IT_number 191
_symmetry_cell_setting 'hexagonal'
loop_
_space_group_symop_operation_xyz
x,y,z
x-y,x,z
-y,x-y,z
-x,-y,z
-x+y,-x,z
y,-x+y,z
x-y,-y,-z
-x,-x+y,-z
y,x,-z
-y,-x,-z
-x+y,y,-z
x,x-y,-z
-x,-y,-z
-x+y,-x,-z
y,-x+y,-z
x,y,-z
x-y,x,-z
-y,x-y,-z
-x+y,y,z
x,x-y,z
-y,-x,z
y,x,z
x-y,-y,z
-x,-x+y,z
loop_
_atom_site_type_symbol
_atom_site_label
_atom_site_fract_x
_atom_site_fract_y
_atom_site_fract_z
Si Si1 0.081678 0.467067 0.800114
Si Si2 0.916810 0.693290 0.500000
Si Si3 0.706812 0.556562 0.717801
Si Si4 0.380356 0.298692 0.585510
Si Si5 0.478522 0.665877 0.630304
Si Si6 0.701860 0.919410 0.668525
Si Si7 0.518642 0.332784 0.122364
Si Si8 0.385341 0.465691 0.048287
O O1 0.081284 0.540642 0.796852
O O2 0.112072 0.454870 0.757038
O O3 0.134871 0.478372 0.838170
O O4 0.000000 0.406809 0.807637
O O5 0.859684 0.719367 0.500000
O O6 0.904601 0.645576 0.541287
O O7 0.000000 0.753769 0.500000
O O8 0.771559 0.543118 0.728849
O O9 0.666930 0.507582 0.677490
O O10 0.742082 0.636698 0.700718
O O11 0.361456 0.361456 0.585911
O O12 0.460831 0.325352 0.597960
O O13 0.333288 0.245073 0.622629
O O14 0.471010 0.735505 0.627139
O O15 0.404987 0.595014 0.623368
O O16 0.729839 0.864920 0.671800
O O17 0.759304 0.000000 0.675325
O O18 0.521290 0.260645 0.124732
O O19 0.598397 0.401604 0.121709
O O20 0.477940 0.336958 0.080903
O O21 0.460224 0.539777 0.048742
O O22 0.406263 0.406263 0.060313
O O23 0.359808 0.453243 0.000000
#
# Coordination Sequence:
#
# PCOD9587293 Si02
#       8
#    24  12  24  24  24  24  24  24
#     4  10  19  29  41  57  77 102 133 166 200 240
#     4  10  18  30  49  70  91 113 139 171 208 248
#     4   9  17  29  44  61  81 103 130 167 205 241
#     4   9  18  31  47  66  85 107 137 174 209 238
#     4  10  19  31  46  64  87 113 140 168 203 249
#     4   9  16  27  43  62  83 105 130 160 195 234
#     4  10  19  29  40  55  77 104 132 163 200 241
#     4   8  14  26  43  59  74  95 125 160 197 236
#
# _framework density 13.767249
#
# number of rings (size 3 to 8) (size 9 to 14) (size 15 to 20)
#    0.000    2.667    0.000    4.267    0.000    2.667 
#    0.000    0.333    0.000    6.467    0.000    0.933 
#    0.000    3.200    0.000    0.000    0.000    0.267 
#
# Total GULP energy -1002846.715426 kJ/mol
# GULP energy per Si atom -5571.370641 kJ/mol
# Density = 1.373591 g / cm^3
# Si number density = 13.767249 Si / 1000 Ang^3
#
#
#
# Elastic Constant Matrix: (Units=GPa)
#
#
# Indices 1 2 3 4 5 6 
#
# 1 88.1500 60.1801 43.8771 0.0000 0.0000 0.0000
# 2 60.1801 88.1500 43.8771 0.0000 0.0000 0.0000
# 3 43.8771 43.8771 84.0528 0.0000 0.0000 0.0000
# 4 0.0000 0.0000 0.0000 16.0298 0.0000 0.0000
# 5 0.0000 0.0000 0.0000 0.0000 16.0298 0.0000
# 6 0.0000 0.0000 0.0000 0.0000 0.0000 13.9849
#
#
#
# Elastic Compliance Matrix: (Units=1/GPa)
#
#
# Indices 1 2 3 4 5 6 
#
# 1 0.022753 -0.012999 -0.005092 0.000000 0.000000 0.000000
# 2 -0.012999 0.022753 -0.005092 0.000000 0.000000 0.000000
# 3 -0.005092 -0.005092 0.017213 0.000000 0.000000 0.000000
# 4 0.000000 0.000000 0.000000 0.062384 0.000000 0.000000
# 5 0.000000 0.000000 0.000000 0.000000 0.062384 0.000000
# 6 0.000000 0.000000 0.000000 0.000000 0.000000 0.071505
#
#
# Mechanical properties :
#
#
# Convention : Reuss Voigt Hill
#
# Bulk Modulus (GPa) = 61.14612 61.80236 61.47424
# Shear Modulus (GPa) = 16.08697 16.70349 16.39523
#
# Velocity S-wave (km/s) = 3.42204 3.48699 3.45467
# Velocity P-wave (km/s) = 7.75399 7.82307 7.78861
#
# Compressibility (1/GPa) = 0.01635427
#
# Stress axis : x y z
#
# Youngs Moduli (GPa) = 43.94944 43.94944 58.09452
#
# Poissons Ratio (x) = 0.57131 0.29581
# Poissons Ratio (y) = 0.57131 0.29581
# Poissons Ratio (z) = 0.22378 0.22378
#
# Static dielectric constant tensor:
#      x y z
#    x 1.440590 0.000000 0.000000 
#    y 0.000000 1.440590 0.000000 
#    z 0.000000 0.000000 1.453630 
# 
# From -- ./inp_files/10874.got.cif
#   From: 2010.05.17/outbox.cif.g08.bks.cpg/sg191_6_cif.got.tgz:10874.got - 2010.05.20 12:20:32.
