data_PCOD9587686
_publ_section_title
;
Structure prediction by ZEFSAII (Michael W. Deem and Ramdas Pophale) SiO2 
 PCOD9587686
Probable space group: P 6/M M M
;
_chemical_formula_sum "Si O2"
_cell_formula_units_Z 144
_cell_length_a 22.817174
_cell_length_b 22.817174
_cell_length_c 16.939232
_cell_angle_alpha 90.000000
_cell_angle_beta 90.000000
_cell_angle_gamma 120.000000
_cell_volume 7637.444308
_symmetry_space_group_name_H-M "P 6/M M M"
_symmetry_group_IT_number 191
_symmetry_cell_setting 'hexagonal'
loop_
_space_group_symop_operation_xyz
x,y,z
x-y,x,z
-y,x-y,z
-x,-y,z
-x+y,-x,z
y,-x+y,z
x-y,-y,-z
-x,-x+y,-z
y,x,-z
-y,-x,-z
-x+y,y,-z
x,x-y,-z
-x,-y,-z
-x+y,-x,-z
y,-x+y,-z
x,y,-z
x-y,x,-z
-y,x-y,-z
-x+y,y,z
x,x-y,z
-y,-x,z
y,x,z
x-y,-y,z
-x,-x+y,z
loop_
_atom_site_type_symbol
_atom_site_label
_atom_site_fract_x
_atom_site_fract_y
_atom_site_fract_z
Si Si1 0.202965 0.666990 0.825757
Si Si2 0.517731 0.162478 0.000000
Si Si3 0.566130 0.850726 0.589291
Si Si4 0.339115 0.920039 0.254248
Si Si5 0.271489 0.073800 0.592918
Si Si6 0.294873 0.215319 0.168803
Si Si7 0.356579 0.079172 0.000000
O O1 0.217052 0.608526 0.795827
O O2 0.259096 0.740905 0.796041
O O3 0.205115 0.666864 0.920196
O O4 0.126949 0.648166 0.804922
O O5 0.562552 0.125104 0.000000
O O6 0.437120 0.119065 0.000000
O O7 0.545487 0.857150 0.500000
O O8 0.544688 0.772344 0.602886
O O9 0.550719 0.886197 0.660775
O O10 0.648019 0.891572 0.591399
O O11 0.266633 0.911964 0.228256
O O12 0.391880 0.000000 0.252357
O O13 0.253329 0.067010 0.500000
O O14 0.252073 0.126037 0.629607
O O15 0.236191 0.000000 0.629477
O O16 0.276109 0.138055 0.183548
O O17 0.236659 0.236659 0.172315
O O18 0.326993 0.234891 0.080381
O O19 0.331268 0.000000 0.000000
#
# Coordination Sequence:
#
# PCOD9587686 Si02
#       7
#    24  12  24  24  24  24  12
#     4  11  23  39  59  82 111 148 189 231 272 321
#     4  10  21  34  55  84 111 147 186 226 273 320
#     4   9  17  30  50  76 105 137 172 211 261 325
#     4  11  22  34  53  82 113 145 178 220 278 335
#     4   8  13  21  34  53  78 109 145 186 233 287
#     4  10  20  33  51  75 105 141 182 225 271 327
#     4  10  19  32  50  76 108 147 182 214 265 324
#
# _framework density 18.854474
#
# number of rings (size 3 to 8) (size 9 to 14) (size 15 to 20)
#    0.000    2.167    1.667    3.667    0.000    2.167 
#    0.000    2.500    0.000    0.833    0.000    2.333 
#    0.000    3.333    0.000    5.333    0.000   29.167 
#
# Total GULP energy -802448.427478 kJ/mol
# GULP energy per Si atom -5572.558524 kJ/mol
# Density = 1.881156 g / cm^3
# Si number density = 18.854474 Si / 1000 Ang^3
#
#
#
# Elastic Constant Matrix: (Units=GPa)
#
#
# Indices 1 2 3 4 5 6 
#
# 1 49.1302 39.3247 14.0141 0.0000 0.0000 0.0000
# 2 39.3247 49.1302 14.0141 0.0000 0.0000 0.0000
# 3 14.0141 14.0141 105.6850 0.0000 0.0000 0.0000
# 4 0.0000 0.0000 0.0000 9.1025 0.0000 0.0000
# 5 0.0000 0.0000 0.0000 0.0000 9.1025 0.0000
# 6 0.0000 0.0000 0.0000 0.0000 0.0000 4.9028
#
#
#
# Elastic Compliance Matrix: (Units=1/GPa)
#
#
# Indices 1 2 3 4 5 6 
#
# 1 0.056892 -0.045091 -0.001565 0.000000 0.000000 0.000000
# 2 -0.045091 0.056892 -0.001565 0.000000 0.000000 0.000000
# 3 -0.001565 -0.001565 0.009877 0.000000 0.000000 0.000000
# 4 0.000000 0.000000 0.000000 0.109861 0.000000 0.000000
# 5 0.000000 0.000000 0.000000 0.000000 0.109861 0.000000
# 6 0.000000 0.000000 0.000000 0.000000 0.000000 0.203966
#
#
# Mechanical properties :
#
#
# Convention : Reuss Voigt Hill
#
# Bulk Modulus (GPa) = 36.73798 37.62789 37.18293
# Shear Modulus (GPa) = 7.65857 13.72771 10.69314
#
# Velocity S-wave (km/s) = 2.01761 2.70124 2.38406
# Velocity P-wave (km/s) = 4.99550 5.45245 5.22897
#
# Compressibility (1/GPa) = 0.02721979
#
# Stress axis : x y z
#
# Youngs Moduli (GPa) = 17.57713 17.57713 101.24446
#
# Poissons Ratio (x) = 0.79257 0.15843
# Poissons Ratio (y) = 0.79257 0.15843
# Poissons Ratio (z) = 0.02751 0.02751
#
# Static dielectric constant tensor:
#      x y z
#    x 1.655620 0.000000 0.000000 
#    y 0.000000 1.655620 0.000000 
#    z 0.000000 0.000000 1.735190 
# 
# From -- ./inp_files/6675.got.cif
#   From: 2010.05.17/outbox.cif.g08.bks.cpg/sg191_4_cif.got.tgz:6675.got - 2010.05.20 12:20:32.
