data_PCOD9587432
_publ_section_title
;
Structure prediction by ZEFSAII (Michael W. Deem and Ramdas Pophale) SiO2 
 PCOD9587432
Probable space group: P 6/M M M
;
_chemical_formula_sum "Si O2"
_cell_formula_units_Z 132
_cell_length_a 18.653725
_cell_length_b 18.653725
_cell_length_c 27.656645
_cell_angle_alpha 90.000000
_cell_angle_beta 90.000000
_cell_angle_gamma 120.000000
_cell_volume 8334.149117
_symmetry_space_group_name_H-M "P 6/M M M"
_symmetry_group_IT_number 191
_symmetry_cell_setting 'hexagonal'
loop_
_space_group_symop_operation_xyz
x,y,z
x-y,x,z
-y,x-y,z
-x,-y,z
-x+y,-x,z
y,-x+y,z
x-y,-y,-z
-x,-x+y,-z
y,x,-z
-y,-x,-z
-x+y,y,-z
x,x-y,-z
-x,-y,-z
-x+y,-x,-z
y,-x+y,-z
x,y,-z
x-y,x,-z
-y,x-y,-z
-x+y,y,z
x,x-y,z
-y,-x,z
y,x,z
x-y,-y,z
-x,-x+y,z
loop_
_atom_site_type_symbol
_atom_site_label
_atom_site_fract_x
_atom_site_fract_y
_atom_site_fract_z
Si Si1 0.332828 0.835832 0.132892
Si Si2 0.833135 0.331857 0.603579
Si Si3 0.740499 0.645561 0.790411
Si Si4 0.350097 0.256908 0.323985
Si Si5 0.460452 0.094819 0.500000
Si Si6 0.094590 0.741509 0.057649
O O1 0.422396 0.844792 0.132974
O O2 0.260328 0.739673 0.132901
O O3 0.315341 0.878304 0.178827
O O4 0.315496 0.878254 0.086869
O O5 0.845424 0.422712 0.608346
O O6 0.737606 0.262395 0.609918
O O7 0.884761 0.313854 0.643080
O O8 0.861038 0.322700 0.549739
O O9 0.835728 0.671456 0.801364
O O10 0.712898 0.712898 0.801869
O O11 0.728140 0.628673 0.733002
O O12 0.325542 0.162771 0.334394
O O13 0.279233 0.279233 0.333630
O O14 0.547147 0.094294 0.500000
O O15 0.388290 0.000000 0.500000
O O16 0.163860 0.836141 0.069705
O O17 0.000000 0.713611 0.070011
O O18 0.098481 0.731338 0.000000
#
# Coordination Sequence:
#
# PCOD9587432 Si02
#       6
#    24  24  24  24  12  24
#     4  10  20  33  48  67  92 122 155 190 227 265
#     4  10  19  30  44  63  89 121 155 188 222 262
#     4   9  18  32  49  69  92 118 148 182 223 269
#     4   9  18  32  49  68  90 117 148 183 224 269
#     4   9  17  28  42  60  82 111 149 191 229 262
#     4   9  18  32  49  69  93 121 152 186 226 271
#
# _framework density 15.83845
#
# number of rings (size 3 to 8) (size 9 to 14) (size 15 to 20)
#    0.000    2.636    0.000    1.727    0.000    3.636 
#    0.000    3.636    0.000    3.818    0.000    3.818 
#    0.000    4.364    0.000    0.364    0.000   18.909 
#
# Total GULP energy -735444.378704 kJ/mol
# GULP energy per Si atom -5571.548324 kJ/mol
# Density = 1.580240 g / cm^3
# Si number density = 15.838450 Si / 1000 Ang^3
#
#
#
# Elastic Constant Matrix: (Units=GPa)
#
#
# Indices 1 2 3 4 5 6 
#
# 1 107.0224 88.0018 47.5753 0.0000 0.0000 0.0000
# 2 88.0018 107.0224 47.5753 0.0000 0.0000 0.0000
# 3 47.5753 47.5753 65.0951 0.0000 0.0000 0.0000
# 4 0.0000 0.0000 0.0000 21.9764 0.0000 0.0000
# 5 0.0000 0.0000 0.0000 0.0000 21.9764 0.0000
# 6 0.0000 0.0000 0.0000 0.0000 0.0000 9.5103
#
#
#
# Elastic Compliance Matrix: (Units=1/GPa)
#
#
# Indices 1 2 3 4 5 6 
#
# 1 0.030272 -0.022303 -0.005824 0.000000 0.000000 0.000000
# 2 -0.022303 0.030272 -0.005824 0.000000 0.000000 0.000000
# 3 -0.005824 -0.005824 0.023876 0.000000 0.000000 0.000000
# 4 0.000000 0.000000 0.000000 0.045503 0.000000 0.000000
# 5 0.000000 0.000000 0.000000 0.000000 0.045503 0.000000
# 6 0.000000 0.000000 0.000000 0.000000 0.000000 0.105149
#
#
# Mechanical properties :
#
#
# Convention : Reuss Voigt Hill
#
# Bulk Modulus (GPa) = 60.54486 71.71607 66.13047
# Shear Modulus (GPa) = 14.12498 17.09182 15.60840
#
# Velocity S-wave (km/s) = 2.98957 3.28858 3.14263
# Velocity P-wave (km/s) = 7.08704 7.73290 7.41700
#
# Compressibility (1/GPa) = 0.01651668
#
# Stress axis : x y z
#
# Youngs Moduli (GPa) = 33.03403 33.03403 41.88354
#
# Poissons Ratio (x) = 0.73674 0.24395
# Poissons Ratio (y) = 0.73674 0.24395
# Poissons Ratio (z) = 0.19240 0.19240
#
# Static dielectric constant tensor:
#      x y z
#    x 1.517410 0.000000 0.000000 
#    y 0.000000 1.517410 0.000000 
#    z 0.000000 0.000000 1.543010 
# 
# From -- ./inp_files/9713.got.cif
#   From: 2010.05.17/outbox.cif.g08.bks.cpg/sg191_5_cif.got.tgz:9713.got - 2010.05.20 12:20:32.
