data_PCOD9587807
_publ_section_title
;
Structure prediction by ZEFSAII (Michael W. Deem and Ramdas Pophale) SiO2 
 PCOD9587807
Probable space group: P 6/M M M
;
_chemical_formula_sum "Si O2"
_cell_formula_units_Z 96
_cell_length_a 17.879168
_cell_length_b 17.879168
_cell_length_c 21.320424
_cell_angle_alpha 90.000000
_cell_angle_beta 90.000000
_cell_angle_gamma 120.000000
_cell_volume 5902.297275
_symmetry_space_group_name_H-M "P 6/M M M"
_symmetry_group_IT_number 191
_symmetry_cell_setting 'hexagonal'
loop_
_space_group_symop_operation_xyz
x,y,z
x-y,x,z
-y,x-y,z
-x,-y,z
-x+y,-x,z
y,-x+y,z
x-y,-y,-z
-x,-x+y,-z
y,x,-z
-y,-x,-z
-x+y,y,-z
x,x-y,-z
-x,-y,-z
-x+y,-x,-z
y,-x+y,-z
x,y,-z
x-y,x,-z
-y,x-y,-z
-x+y,y,z
x,x-y,z
-y,-x,z
y,x,z
x-y,-y,z
-x,-x+y,z
loop_
_atom_site_type_symbol
_atom_site_label
_atom_site_fract_x
_atom_site_fract_y
_atom_site_fract_z
Si Si1 0.370326 0.272118 0.000000
Si Si2 0.637886 0.532900 0.363457
Si Si3 0.359296 0.458649 0.500000
Si Si4 0.489844 0.332697 0.878302
Si Si5 0.268409 0.899802 0.241151
O O1 0.429750 0.314511 0.938897
O O2 0.293768 0.293768 0.000000
O O3 0.342674 0.171337 0.000000
O O4 0.567382 0.432619 0.352125
O O5 0.582270 0.582270 0.367652
O O6 0.679892 0.542979 0.432122
O O7 0.700278 0.576414 0.305308
O O8 0.382212 0.382212 0.500000
O O9 0.451280 0.548721 0.500000
O O10 0.515642 0.257821 0.878122
O O11 0.573664 0.426337 0.880038
O O12 0.433202 0.318058 0.816232
O O13 0.167444 0.832557 0.232241
O O14 0.296405 0.000000 0.243453
#
# Coordination Sequence:
#
# PCOD9587807 Si02
#       5
#    12  24  12  24  24
#     4  10  21  35  51  72  97 127 162 200 239 273
#     4   8  13  23  41  64  88 113 141 173 212 262
#     4   7  10  18  35  60  87 112 138 170 208 253
#     4  10  20  33  50  73 101 130 156 182 216 263
#     4  10  20  32  46  65  89 118 152 192 236 277
#
# _framework density 16.264852999999999
#
# number of rings (size 3 to 8) (size 9 to 14) (size 15 to 20)
#    0.000    2.875    0.000    3.625    0.000    3.500 
#    0.000    1.875    0.000    0.875    0.000    0.000 
#    0.000    6.000    0.000    0.000    0.000   15.250 
#
# Total GULP energy -534760.653928 kJ/mol
# GULP energy per Si atom -5570.423478 kJ/mol
# Density = 1.622783 g / cm^3
# Si number density = 16.264853 Si / 1000 Ang^3
#
#
#
# Elastic Constant Matrix: (Units=GPa)
#
#
# Indices 1 2 3 4 5 6 
#
# 1 79.4346 64.0509 37.7151 0.0000 0.0000 0.0000
# 2 64.0509 79.4346 37.7151 0.0000 0.0000 0.0000
# 3 37.7151 37.7151 137.9603 0.0000 0.0000 0.0000
# 4 0.0000 0.0000 0.0000 27.5627 0.0000 0.0000
# 5 0.0000 0.0000 0.0000 0.0000 27.5627 0.0000
# 6 0.0000 0.0000 0.0000 0.0000 0.0000 7.6918
#
#
#
# Elastic Compliance Matrix: (Units=1/GPa)
#
#
# Indices 1 2 3 4 5 6 
#
# 1 0.036571 -0.028432 -0.002225 0.000000 0.000000 0.000000
# 2 -0.028432 0.036571 -0.002225 0.000000 0.000000 0.000000
# 3 -0.002225 -0.002225 0.008465 0.000000 0.000000 0.000000
# 4 0.000000 0.000000 0.000000 0.036281 0.000000 0.000000
# 5 0.000000 0.000000 0.000000 0.000000 0.036281 0.000000
# 6 0.000000 0.000000 0.000000 0.000000 0.000000 0.130008
#
#
# Mechanical properties :
#
#
# Convention : Reuss Voigt Hill
#
# Bulk Modulus (GPa) = 63.11942 63.97686 63.54814
# Shear Modulus (GPa) = 14.07565 23.05336 18.56451
#
# Velocity S-wave (km/s) = 2.94496 3.76889 3.38211
# Velocity P-wave (km/s) = 7.10319 7.63932 7.37612
#
# Compressibility (1/GPa) = 0.01584298
#
# Stress axis : x y z
#
# Youngs Moduli (GPa) = 27.34373 27.34373 118.13357
#
# Poissons Ratio (x) = 0.77745 0.26285
# Poissons Ratio (y) = 0.77745 0.26285
# Poissons Ratio (z) = 0.06084 0.06084
#
# Static dielectric constant tensor:
#      x y z
#    x 1.529400 0.000000 0.000000 
#    y 0.000000 1.529400 0.000000 
#    z 0.000000 0.000000 1.579950 
# 
# From -- ./inp_files/7211.got.cif
#   From: 2010.05.17/outbox.cif.g08.bks.cpg/sg191_4_cif.got.tgz:7211.got - 2010.05.20 12:20:32.
