data_PCOD9587227
_publ_section_title
;
Structure prediction by ZEFSAII (Michael W. Deem and Ramdas Pophale) SiO2 
 PCOD9587227
Probable space group: P 6/M M M
;
_chemical_formula_sum "Si O2"
_cell_formula_units_Z 156
_cell_length_a 22.769471
_cell_length_b 22.769471
_cell_length_c 22.958921
_cell_angle_alpha 90.000000
_cell_angle_beta 90.000000
_cell_angle_gamma 120.000000
_cell_volume 10308.322259
_symmetry_space_group_name_H-M "P 6/M M M"
_symmetry_group_IT_number 191
_symmetry_cell_setting 'hexagonal'
loop_
_space_group_symop_operation_xyz
x,y,z
x-y,x,z
-y,x-y,z
-x,-y,z
-x+y,-x,z
y,-x+y,z
x-y,-y,-z
-x,-x+y,-z
y,x,-z
-y,-x,-z
-x+y,y,-z
x,x-y,-z
-x,-y,-z
-x+y,-x,-z
y,-x+y,-z
x,y,-z
x-y,x,-z
-y,x-y,-z
-x+y,y,z
x,x-y,z
-y,-x,z
y,x,z
x-y,-y,z
-x,-x+y,z
loop_
_atom_site_type_symbol
_atom_site_label
_atom_site_fract_x
_atom_site_fract_y
_atom_site_fract_z
Si Si1 0.711684 0.151404 0.884190
Si Si2 0.666599 0.194982 0.432882
Si Si3 0.790500 0.077317 0.281964
Si Si4 0.332679 0.527311 0.000000
Si Si5 0.850404 0.286631 0.676404
Si Si6 0.789461 0.077706 0.143406
Si Si7 0.530602 0.920803 0.220925
O O1 0.774722 0.225279 0.866447
O O2 0.680286 0.161705 0.942945
O O3 0.745436 0.104068 0.890533
O O4 0.655301 0.117184 0.834802
O O5 0.665509 0.173682 0.500000
O O6 0.594714 0.189428 0.419819
O O7 0.726675 0.273326 0.428851
O O8 0.685422 0.154638 0.386362
O O9 0.869240 0.130761 0.291608
O O10 0.747492 0.102682 0.318684
O O11 0.776960 0.082254 0.212885
O O12 0.766924 0.000000 0.294345
O O13 0.406114 0.593887 0.000000
O O14 0.273604 0.547208 0.000000
O O15 0.774574 0.225427 0.691793
O O16 0.880954 0.346738 0.722941
O O17 0.868211 0.131790 0.132978
O O18 0.764852 0.000000 0.130398
O O19 0.459814 0.919628 0.219092
O O20 0.589452 0.000000 0.222298
#
# Coordination Sequence:
#
# PCOD9587227 Si02
#       7
#    24  24  24  12  24  24  24
#     4  10  19  33  51  69  89 117 154 196 237 277
#     4   9  17  29  45  64  88 120 159 202 246 289
#     4   9  16  27  46  70  93 117 147 184 223 266
#     4  10  21  36  53  69  90 121 158 198 243 293
#     4  10  18  29  46  67  90 118 154 195 234 275
#     4   9  16  28  48  71  94 119 149 185 224 267
#     4  11  21  31  45  65  91 121 151 187 233 281
#
# _framework density 15.133404000000001
#
# number of rings (size 3 to 8) (size 9 to 14) (size 15 to 20)
#    0.000    2.308    1.538    2.538    0.000    0.615 
#    0.000    1.538    0.000    9.231    0.000    7.538 
#    0.000    0.000    0.000    0.000    0.000    9.077 
#
# Total GULP energy -869408.950642 kJ/mol
# GULP energy per Si atom -5573.134299 kJ/mol
# Density = 1.509896 g / cm^3
# Si number density = 15.133404 Si / 1000 Ang^3
#
#
#
# Elastic Constant Matrix: (Units=GPa)
#
#
# Indices 1 2 3 4 5 6 
#
# 1 106.9835 69.7684 54.6791 0.0000 0.0000 0.0000
# 2 69.7684 106.9835 54.6791 0.0000 0.0000 0.0000
# 3 54.6791 54.6791 73.3732 0.0000 0.0000 0.0000
# 4 0.0000 0.0000 0.0000 14.9119 0.0000 0.0000
# 5 0.0000 0.0000 0.0000 0.0000 14.9119 0.0000
# 6 0.0000 0.0000 0.0000 0.0000 0.0000 18.6075
#
#
#
# Elastic Compliance Matrix: (Units=1/GPa)
#
#
# Indices 1 2 3 4 5 6 
#
# 1 0.018684 -0.008186 -0.007823 0.000000 0.000000 0.000000
# 2 -0.008186 0.018684 -0.007823 0.000000 0.000000 0.000000
# 3 -0.007823 -0.007823 0.025289 0.000000 0.000000 0.000000
# 4 0.000000 0.000000 0.000000 0.067060 0.000000 0.000000
# 5 0.000000 0.000000 0.000000 0.000000 0.067060 0.000000
# 6 0.000000 0.000000 0.000000 0.000000 0.000000 0.053742
#
#
# Mechanical properties :
#
#
# Convention : Reuss Voigt Hill
#
# Bulk Modulus (GPa) = 66.70278 71.73260 69.21769
# Shear Modulus (GPa) = 16.49165 16.90052 16.69609
#
# Velocity S-wave (km/s) = 3.30472 3.34544 3.32514
# Velocity P-wave (km/s) = 7.66380 7.90099 7.78330
#
# Compressibility (1/GPa) = 0.01499188
#
# Stress axis : x y z
#
# Youngs Moduli (GPa) = 53.52054 53.52054 39.54274
#
# Poissons Ratio (x) = 0.43814 0.30935
# Poissons Ratio (y) = 0.43814 0.30935
# Poissons Ratio (z) = 0.41871 0.41871
#
# Static dielectric constant tensor:
#      x y z
#    x 1.498910 0.000000 0.000000 
#    y 0.000000 1.498910 0.000000 
#    z 0.000000 0.000000 1.492360 
# 
# From -- ./inp_files/7742.got.cif
#   From: 2010.05.17/outbox.cif.g08.bks.cpg/sg191_4_cif.got.tgz:7742.got - 2010.05.20 12:20:32.
