data_PCOD9587699
_publ_section_title
;
Structure prediction by ZEFSAII (Michael W. Deem and Ramdas Pophale) SiO2 
 PCOD9587699
Probable space group: P 6/M M M
;
_chemical_formula_sum "Si O2"
_cell_formula_units_Z 132
_cell_length_a 27.080063
_cell_length_b 27.080063
_cell_length_c 12.325432
_cell_angle_alpha 90.000000
_cell_angle_beta 90.000000
_cell_angle_gamma 120.000000
_cell_volume 7827.663045
_symmetry_space_group_name_H-M "P 6/M M M"
_symmetry_group_IT_number 191
_symmetry_cell_setting 'hexagonal'
loop_
_space_group_symop_operation_xyz
x,y,z
x-y,x,z
-y,x-y,z
-x,-y,z
-x+y,-x,z
y,-x+y,z
x-y,-y,-z
-x,-x+y,-z
y,x,-z
-y,-x,-z
-x+y,y,-z
x,x-y,-z
-x,-y,-z
-x+y,-x,-z
y,-x+y,-z
x,y,-z
x-y,x,-z
-y,x-y,-z
-x+y,y,z
x,x-y,z
-y,-x,z
y,x,z
x-y,-y,z
-x,-x+y,z
loop_
_atom_site_type_symbol
_atom_site_label
_atom_site_fract_x
_atom_site_fract_y
_atom_site_fract_z
Si Si1 0.670950 0.736633 0.000000
Si Si2 0.235262 0.879698 0.231010
Si Si3 0.932247 0.466124 0.628934
Si Si4 0.882727 0.352697 0.232053
Si Si5 0.552206 0.935700 0.000000
Si Si6 0.242403 0.177262 0.369737
Si Si7 0.668347 0.221143 0.121573
O O1 0.668202 0.766688 0.109782
O O2 0.612205 0.675882 0.000000
O O3 0.721414 0.721414 0.000000
O O4 0.187350 0.812651 0.238757
O O5 0.300247 0.893962 0.250936
O O6 0.216625 0.913276 0.313414
O O7 0.923247 0.461624 0.500000
O O8 0.905673 0.502389 0.681564
O O9 0.000000 0.500000 0.650654
O O10 0.815315 0.323568 0.212834
O O11 0.907358 0.382405 0.114581
O O12 0.565470 0.000000 0.000000
O O13 0.248982 0.182478 0.500000
O O14 0.224236 0.112118 0.341181
O O15 0.198686 0.198686 0.337897
O O16 0.604784 0.209567 0.125282
O O17 0.712608 0.287393 0.134616
O O18 0.679264 0.205689 0.000000
#
# Coordination Sequence:
#
# PCOD9587699 Si02
#       7
#    12  24  12  24  12  24  24
#     4   9  17  29  46  72 111 148 176 205 247 308
#     4  10  20  32  51  79 109 143 180 218 265 314
#     4  11  26  43  57  75 101 138 181 227 281 335
#     4  11  20  36  54  76 105 136 176 218 267 329
#     4   9  18  30  49  75  99 129 165 207 257 313
#     4   9  18  33  53  77 105 138 179 223 264 308
#     4  10  19  32  52  80 108 132 164 208 265 322
#
# _framework density 16.863271000000001
#
# number of rings (size 3 to 8) (size 9 to 14) (size 15 to 20)
#    0.000    2.091    1.818    2.091    0.000    4.000 
#    0.000    2.727    0.000    1.818    0.000    1.273 
#    0.000    0.000    0.000    0.000    0.000   18.909 
#
# Total GULP energy -735583.057454 kJ/mol
# GULP energy per Si atom -5572.598920 kJ/mol
# Density = 1.682489 g / cm^3
# Si number density = 16.863271 Si / 1000 Ang^3
#
#
#
# Elastic Constant Matrix: (Units=GPa)
#
#
# Indices 1 2 3 4 5 6 
#
# 1 90.2774 51.5443 37.9043 0.0000 0.0000 0.0000
# 2 51.5443 90.2774 37.9043 0.0000 0.0000 0.0000
# 3 37.9043 37.9043 53.4179 0.0000 0.0000 0.0000
# 4 0.0000 0.0000 0.0000 24.4058 0.0000 0.0000
# 5 0.0000 0.0000 0.0000 0.0000 24.4058 0.0000
# 6 0.0000 0.0000 0.0000 0.0000 0.0000 19.3665
#
#
#
# Elastic Compliance Matrix: (Units=1/GPa)
#
#
# Indices 1 2 3 4 5 6 
#
# 1 0.018589 -0.007229 -0.008061 0.000000 0.000000 0.000000
# 2 -0.007229 0.018589 -0.008061 0.000000 0.000000 0.000000
# 3 -0.008061 -0.008061 0.030160 0.000000 0.000000 0.000000
# 4 0.000000 0.000000 0.000000 0.040974 0.000000 0.000000
# 5 0.000000 0.000000 0.000000 0.000000 0.040974 0.000000
# 6 0.000000 0.000000 0.000000 0.000000 0.000000 0.051636
#
#
# Mechanical properties :
#
#
# Convention : Reuss Voigt Hill
#
# Bulk Modulus (GPa) = 48.45767 54.29763 51.37765
# Shear Modulus (GPa) = 19.64633 20.74360 20.19497
#
# Velocity S-wave (km/s) = 3.41697 3.51109 3.46435
# Velocity P-wave (km/s) = 6.66075 6.97894 6.82170
#
# Compressibility (1/GPa) = 0.02063657
#
# Stress axis : x y z
#
# Youngs Moduli (GPa) = 53.79581 53.79581 33.15670
#
# Poissons Ratio (x) = 0.38889 0.26727
# Poissons Ratio (y) = 0.38889 0.26727
# Poissons Ratio (z) = 0.43363 0.43363
#
# Static dielectric constant tensor:
#      x y z
#    x 1.588300 0.000000 0.000000 
#    y 0.000000 1.588300 0.000000 
#    z 0.000000 0.000000 1.561250 
# 
# From -- ./inp_files/3401.got.cif
#   From: 2010.05.17/outbox.cif.g08.bks.cpg/sg191_2_cif.got.tgz:3401.got - 2010.05.20 12:20:32.
