data_PCOD9587275
_publ_section_title
;
Structure prediction by ZEFSAII (Michael W. Deem and Ramdas Pophale) SiO2 
 PCOD9587275
Probable space group: P 6/M M M
;
_chemical_formula_sum "Si O2"
_cell_formula_units_Z 132
_cell_length_a 24.042067
_cell_length_b 24.042067
_cell_length_c 16.656972
_cell_angle_alpha 90.000000
_cell_angle_beta 90.000000
_cell_angle_gamma 120.000000
_cell_volume 8338.161327
_symmetry_space_group_name_H-M "P 6/M M M"
_symmetry_group_IT_number 191
_symmetry_cell_setting 'hexagonal'
loop_
_space_group_symop_operation_xyz
x,y,z
x-y,x,z
-y,x-y,z
-x,-y,z
-x+y,-x,z
y,-x+y,z
x-y,-y,-z
-x,-x+y,-z
y,x,-z
-y,-x,-z
-x+y,y,-z
x,x-y,-z
-x,-y,-z
-x+y,-x,-z
y,-x+y,-z
x,y,-z
x-y,x,-z
-y,x-y,-z
-x+y,y,z
x,x-y,z
-y,-x,z
y,x,z
x-y,-y,z
-x,-x+y,z
loop_
_atom_site_type_symbol
_atom_site_label
_atom_site_fract_x
_atom_site_fract_y
_atom_site_fract_z
Si Si1 0.070378 0.264726 0.903894
Si Si2 0.270715 0.410610 0.684358
Si Si3 0.275108 0.201107 0.595115
Si Si4 0.924375 0.605049 0.146364
Si Si5 0.396780 0.474878 0.000000
Si Si6 0.472391 0.072760 0.403628
O O1 0.129663 0.259326 0.869995
O O2 0.079899 0.334848 0.889203
O O3 0.000000 0.213930 0.871530
O O4 0.069122 0.256101 0.000000
O O5 0.212677 0.425353 0.682631
O O6 0.241508 0.338510 0.648677
O O7 0.297836 0.414540 0.773221
O O8 0.331807 0.456262 0.630695
O O9 0.292598 0.214547 0.500000
O O10 0.252424 0.126212 0.607904
O O11 0.223806 0.223806 0.612159
O O12 0.000000 0.632542 0.164422
O O13 0.902922 0.549928 0.079480
O O14 0.435413 0.435413 0.000000
O O15 0.450433 0.549568 0.000000
O O16 0.471526 0.073879 0.500000
O O17 0.541259 0.082518 0.378425
O O18 0.419267 0.000000 0.378446
#
# Coordination Sequence:
#
# PCOD9587275 Si02
#       6
#    24  24  24  24  12  24
#     4   9  16  27  43  61  84 117 156 195 234 278
#     4  11  21  30  45  73 102 127 156 192 234 281
#     4   9  17  29  45  66  95 131 167 203 245 290
#     4  10  18  30  46  67  95 126 158 191 229 278
#     4   9  18  32  49  70  95 122 152 188 232 279
#     4   9  18  33  52  72  95 125 159 194 234 281
#
# _framework density 15.830829
#
# number of rings (size 3 to 8) (size 9 to 14) (size 15 to 20)
#    0.000    2.455    0.909    3.273    0.000    3.273 
#    0.000    1.818    0.000    0.727    0.000    2.545 
#    0.000    0.000    0.000    6.182    0.000    8.364 
#
# Total GULP energy -735686.429969 kJ/mol
# GULP energy per Si atom -5573.382045 kJ/mol
# Density = 1.579480 g / cm^3
# Si number density = 15.830829 Si / 1000 Ang^3
#
#
#
# Elastic Constant Matrix: (Units=GPa)
#
#
# Indices 1 2 3 4 5 6 
#
# 1 99.3503 60.7292 43.2266 0.0000 0.0000 0.0000
# 2 60.7292 99.3503 43.2266 0.0000 0.0000 0.0000
# 3 43.2266 43.2266 58.2241 0.0000 0.0000 0.0000
# 4 0.0000 0.0000 0.0000 12.1055 0.0000 0.0000
# 5 0.0000 0.0000 0.0000 0.0000 12.1055 0.0000
# 6 0.0000 0.0000 0.0000 0.0000 0.0000 19.3106
#
#
#
# Elastic Compliance Matrix: (Units=1/GPa)
#
#
# Indices 1 2 3 4 5 6 
#
# 1 0.018160 -0.007732 -0.007742 0.000000 0.000000 0.000000
# 2 -0.007732 0.018160 -0.007742 0.000000 0.000000 0.000000
# 3 -0.007742 -0.007742 0.028671 0.000000 0.000000 0.000000
# 4 0.000000 0.000000 0.000000 0.082607 0.000000 0.000000
# 5 0.000000 0.000000 0.000000 0.000000 0.082607 0.000000
# 6 0.000000 0.000000 0.000000 0.000000 0.000000 0.051785
#
#
# Mechanical properties :
#
#
# Convention : Reuss Voigt Hill
#
# Bulk Modulus (GPa) = 53.88283 61.25438 57.56861
# Shear Modulus (GPa) = 14.94280 16.02046 15.48163
#
# Velocity S-wave (km/s) = 3.07564 3.18461 3.13060
# Velocity P-wave (km/s) = 6.83544 7.23184 7.03643
#
# Compressibility (1/GPa) = 0.01855879
#
# Stress axis : x y z
#
# Youngs Moduli (GPa) = 55.06512 55.06512 34.87901
#
# Poissons Ratio (x) = 0.42578 0.27003
# Poissons Ratio (y) = 0.42578 0.27003
# Poissons Ratio (z) = 0.42631 0.42631
#
# Static dielectric constant tensor:
#      x y z
#    x 1.524510 0.000000 0.000000 
#    y 0.000000 1.524510 0.000000 
#    z 0.000000 0.000000 1.546140 
# 
# From -- ./inp_files/4986.got.cif
#   From: 2010.05.17/outbox.cif.g08.bks.cpg/sg191_3_cif.got.tgz:4986.got - 2010.05.20 12:20:32.
