data_PCOD9587254
_publ_section_title
;
Structure prediction by ZEFSAII (Michael W. Deem and Ramdas Pophale) SiO2 
 PCOD9587254
Probable space group: P 6/M M M
;
_chemical_formula_sum "Si O2"
_cell_formula_units_Z 168
_cell_length_a 21.793927
_cell_length_b 21.793927
_cell_length_c 25.686046
_cell_angle_alpha 90.000000
_cell_angle_beta 90.000000
_cell_angle_gamma 120.000000
_cell_volume 10565.714503
_symmetry_space_group_name_H-M "P 6/M M M"
_symmetry_group_IT_number 191
_symmetry_cell_setting 'hexagonal'
loop_
_space_group_symop_operation_xyz
x,y,z
x-y,x,z
-y,x-y,z
-x,-y,z
-x+y,-x,z
y,-x+y,z
x-y,-y,-z
-x,-x+y,-z
y,x,-z
-y,-x,-z
-x+y,y,-z
x,x-y,-z
-x,-y,-z
-x+y,-x,-z
y,-x+y,-z
x,y,-z
x-y,x,-z
-y,x-y,-z
-x+y,y,z
x,x-y,z
-y,-x,z
y,x,z
x-y,-y,z
-x,-x+y,z
loop_
_atom_site_type_symbol
_atom_site_label
_atom_site_fract_x
_atom_site_fract_y
_atom_site_fract_z
Si Si1 0.811932 0.335724 0.260046
Si Si2 0.643745 0.082682 0.355234
Si Si3 0.806172 0.473023 0.561613
Si Si4 0.082964 0.650677 0.170764
Si Si5 0.785543 0.077009 0.787999
Si Si6 0.077654 0.293620 0.337666
Si Si7 0.385188 0.914351 0.943496
O O1 0.786527 0.393264 0.264620
O O2 0.744520 0.255481 0.260304
O O3 0.866853 0.349779 0.307118
O O4 0.860600 0.353272 0.208504
O O5 0.638795 0.121955 0.406272
O O6 0.718007 0.083689 0.357828
O O7 0.583540 0.000000 0.348905
O O8 0.817209 0.487928 0.500000
O O9 0.744152 0.488304 0.579648
O O10 0.780599 0.390300 0.568841
O O11 0.082881 0.721240 0.188043
O O12 0.105873 0.655747 0.110735
O O13 0.000000 0.587201 0.176250
O O14 0.859476 0.140525 0.805826
O O15 0.780929 0.081237 0.725337
O O16 0.772914 0.000000 0.800731
O O17 0.142107 0.284214 0.355610
O O18 0.000000 0.230102 0.351121
O O19 0.447887 0.895773 0.940157
O O20 0.424594 0.000000 0.944848
O O21 0.348800 0.888631 0.000000
#
# Coordination Sequence:
#
# PCOD9587254 Si02
#       7
#    24  24  24  24  24  24  24
#     4  12  24  36  49  66  93 126 159 196 239 288
#     4  11  22  35  52  74  97 123 156 198 246 287
#     4  10  21  37  56  75  97 128 164 198 232 277
#     4  10  18  29  48  73  95 118 151 194 242 287
#     4   9  16  27  44  66  92 121 152 186 228 277
#     4   9  16  28  46  68  94 123 154 187 227 276
#     4   8  14  25  41  63  92 122 150 183 228 284
#
# _framework density 15.900486000000001
#
# number of rings (size 3 to 8) (size 9 to 14) (size 15 to 20)
#    0.000    2.143    1.429    3.714    0.000    3.429 
#    0.000    2.143    0.000    2.000    0.000    2.000 
#    0.000    1.143    0.000    0.000    0.000    0.000 
#
# Total GULP energy -936007.782682 kJ/mol
# GULP energy per Si atom -5571.474897 kJ/mol
# Density = 1.586430 g / cm^3
# Si number density = 15.900486 Si / 1000 Ang^3
#
#
#
# Elastic Constant Matrix: (Units=GPa)
#
#
# Indices 1 2 3 4 5 6 
#
# 1 74.1747 36.9251 26.8908 0.0000 0.0000 0.0000
# 2 36.9251 74.1747 26.8908 0.0000 0.0000 0.0000
# 3 26.8908 26.8908 54.0625 0.0000 0.0000 0.0000
# 4 0.0000 0.0000 0.0000 -26.5729 0.0000 0.0000
# 5 0.0000 0.0000 0.0000 0.0000 -26.5729 0.0000
# 6 0.0000 0.0000 0.0000 0.0000 0.0000 18.6248
#
#
#
# Elastic Compliance Matrix: (Units=1/GPa)
#
#
# Indices 1 2 3 4 5 6 
#
# 1 0.019351 -0.007495 -0.005897 0.000000 0.000000 0.000000
# 2 -0.007495 0.019351 -0.005897 0.000000 0.000000 0.000000
# 3 -0.005897 -0.005897 0.024363 0.000000 0.000000 0.000000
# 4 0.000000 0.000000 0.000000 -0.037632 0.000000 0.000000
# 5 0.000000 0.000000 0.000000 0.000000 -0.037632 0.000000
# 6 0.000000 0.000000 0.000000 0.000000 0.000000 0.053692
#
#
# Mechanical properties :
#
#
# Convention : Reuss Voigt Hill
#
# Bulk Modulus (GPa) = 40.83859 42.64726 41.74293
# Shear Modulus (GPa) = 56.66853 0.54284 28.60569
#
# Velocity S-wave (km/s) = 5.97636 0.58493 4.24612
# Velocity P-wave (km/s) = 8.56517 5.22836 7.09570
#
# Compressibility (1/GPa) = 0.02448664
#
# Stress axis : x y z
#
# Youngs Moduli (GPa) = 51.67765 51.67765 41.04513
#
# Poissons Ratio (x) = 0.38733 0.24204
# Poissons Ratio (y) = 0.38733 0.24204
# Poissons Ratio (z) = 0.30474 0.30474
#
# Static dielectric constant tensor:
#      x y z
#    x 1.538640 0.000000 0.000000 
#    y 0.000000 1.538640 0.000000 
#    z 0.000000 0.000000 1.547770 
# 
# From -- ./inp_files/9011.got.cif
#   From: 2010.05.17/outbox.cif.g08.bks.cpg/sg191_5_cif.got.tgz:9011.got - 2010.05.20 12:20:32.
