data_PCOD9587472
_publ_section_title
;
Structure prediction by ZEFSAII (Michael W. Deem and Ramdas Pophale) SiO2 
 PCOD9587472
Probable space group: P 6/M M M
;
_chemical_formula_sum "Si O2"
_cell_formula_units_Z 108
_cell_length_a 18.364523
_cell_length_b 18.364523
_cell_length_c 23.390108
_cell_angle_alpha 90.000000
_cell_angle_beta 90.000000
_cell_angle_gamma 120.000000
_cell_volume 6831.595814
_symmetry_space_group_name_H-M "P 6/M M M"
_symmetry_group_IT_number 191
_symmetry_cell_setting 'hexagonal'
loop_
_space_group_symop_operation_xyz
x,y,z
x-y,x,z
-y,x-y,z
-x,-y,z
-x+y,-x,z
y,-x+y,z
x-y,-y,-z
-x,-x+y,-z
y,x,-z
-y,-x,-z
-x+y,y,-z
x,x-y,-z
-x,-y,-z
-x+y,-x,-z
y,-x+y,-z
x,y,-z
x-y,x,-z
-y,x-y,-z
-x+y,y,z
x,x-y,z
-y,-x,z
y,x,z
x-y,-y,z
-x,-x+y,z
loop_
_atom_site_type_symbol
_atom_site_label
_atom_site_fract_x
_atom_site_fract_y
_atom_site_fract_z
Si Si1 0.899079 0.532752 0.833941
Si Si2 0.902752 0.258638 0.064940
Si Si3 0.834899 0.503109 0.292175
Si Si4 0.366287 0.467676 0.500000
Si Si5 0.634732 0.901391 0.391804
O O1 0.875530 0.437765 0.847239
O O2 0.878329 0.574045 0.886798
O O3 0.857865 0.531583 0.773510
O O4 0.000000 0.585829 0.826254
O O5 0.840182 0.159819 0.069701
O O6 0.000000 0.287766 0.073034
O O7 0.894146 0.283873 0.000000
O O8 0.737697 0.475393 0.301919
O O9 0.851007 0.425504 0.302000
O O10 0.888041 0.580391 0.334621
O O11 0.422639 0.422639 0.500000
O O12 0.432568 0.567433 0.500000
O O13 0.308820 0.431297 0.444009
O O14 0.665558 0.832779 0.391314
O O15 0.705027 0.000000 0.397588
#
# Coordination Sequence:
#
# PCOD9587472 Si02
#       5
#    24  24  24  12  24
#     4   9  17  28  43  64  88 115 148 183 218 259
#     4   9  17  29  45  64  86 113 146 184 224 265
#     4  10  19  30  45  66  93 123 153 185 221 262
#     4   9  17  30  49  72  96 122 152 183 217 260
#     4  10  20  33  50  71  94 122 156 194 234 275
#
# _framework density 15.808897999999999
#
# number of rings (size 3 to 8) (size 9 to 14) (size 15 to 20)
#    0.000    2.556    0.000    2.556    0.000    2.667 
#    0.000    2.222    0.000    4.000    0.000    1.556 
#    0.000    2.667    0.000    7.111    0.000    4.889 
#
# Total GULP energy -601535.386432 kJ/mol
# GULP energy per Si atom -5569.772097 kJ/mol
# Density = 1.577292 g / cm^3
# Si number density = 15.808898 Si / 1000 Ang^3
#
#
#
# Elastic Constant Matrix: (Units=GPa)
#
#
# Indices 1 2 3 4 5 6 
#
# 1 75.9741 44.5205 43.3621 0.0000 0.0000 0.0000
# 2 44.5205 75.9741 43.3621 0.0000 0.0000 0.0000
# 3 43.3621 43.3621 86.0261 0.0000 0.0000 0.0000
# 4 0.0000 0.0000 0.0000 19.8747 0.0000 0.0000
# 5 0.0000 0.0000 0.0000 0.0000 19.8747 0.0000
# 6 0.0000 0.0000 0.0000 0.0000 0.0000 15.7268
#
#
#
# Elastic Compliance Matrix: (Units=1/GPa)
#
#
# Indices 1 2 3 4 5 6 
#
# 1 0.022408 -0.009384 -0.006565 0.000000 0.000000 0.000000
# 2 -0.009384 0.022408 -0.006565 0.000000 0.000000 0.000000
# 3 -0.006565 -0.006565 0.018243 0.000000 0.000000 0.000000
# 4 0.000000 0.000000 0.000000 0.050315 0.000000 0.000000
# 5 0.000000 0.000000 0.000000 0.000000 0.050315 0.000000
# 6 0.000000 0.000000 0.000000 0.000000 0.000000 0.063586
#
#
# Mechanical properties :
#
#
# Convention : Reuss Voigt Hill
#
# Bulk Modulus (GPa) = 55.45947 55.60705 55.53326
# Shear Modulus (GPa) = 17.96530 18.21056 18.08793
#
# Velocity S-wave (km/s) = 3.37472 3.39767 3.38622
# Velocity P-wave (km/s) = 7.09523 7.11640 7.10582
#
# Compressibility (1/GPa) = 0.01803118
#
# Stress axis : x y z
#
# Youngs Moduli (GPa) = 44.62595 44.62595 54.81688
#
# Poissons Ratio (x) = 0.41879 0.35987
# Poissons Ratio (y) = 0.41879 0.35987
# Poissons Ratio (z) = 0.29296 0.29296
#
# Static dielectric constant tensor:
#      x y z
#    x 1.521280 0.000000 0.000000 
#    y 0.000000 1.521280 0.000000 
#    z 0.000000 0.000000 1.538780 
# 
# From -- ./inp_files/7339.got.cif
#   From: 2010.05.17/outbox.cif.g08.bks.cpg/sg191_4_cif.got.tgz:7339.got - 2010.05.20 12:20:32.
