data_PCOD9587832
_publ_section_title
;
Structure prediction by ZEFSAII (Michael W. Deem and Ramdas Pophale) SiO2 
 PCOD9587832
Probable space group: P 6/M M M
;
_chemical_formula_sum "Si O2"
_cell_formula_units_Z 124
_cell_length_a 32.276744
_cell_length_b 32.276744
_cell_length_c 8.499769
_cell_angle_alpha 90.000000
_cell_angle_beta 90.000000
_cell_angle_gamma 120.000000
_cell_volume 7668.619508
_symmetry_space_group_name_H-M "P 6/M M M"
_symmetry_group_IT_number 191
_symmetry_cell_setting 'hexagonal'
loop_
_space_group_symop_operation_xyz
x,y,z
x-y,x,z
-y,x-y,z
-x,-y,z
-x+y,-x,z
y,-x+y,z
x-y,-y,-z
-x,-x+y,-z
y,x,-z
-y,-x,-z
-x+y,y,-z
x,x-y,-z
-x,-y,-z
-x+y,-x,-z
y,-x+y,-z
x,y,-z
x-y,x,-z
-y,x-y,-z
-x+y,y,z
x,x-y,z
-y,-x,z
y,x,z
x-y,-y,z
-x,-x+y,z
loop_
_atom_site_type_symbol
_atom_site_label
_atom_site_fract_x
_atom_site_fract_y
_atom_site_fract_z
Si Si1 0.054489 0.717059 0.681146
Si Si2 0.518043 0.306489 0.311761
Si Si3 0.158146 0.747148 0.812059
Si Si4 0.333334 0.666667 0.687552
Si Si5 0.144511 0.195226 0.000000
Si Si6 0.077991 0.252103 0.675341
Si Si7 0.774894 0.387447 0.186505
O O1 0.054864 0.702622 0.500000
O O2 0.102985 0.725176 0.762269
O O3 0.063567 0.770918 0.678281
O O4 0.000000 0.681983 0.743690
O O5 0.518421 0.308627 0.500000
O O6 0.530832 0.265416 0.264766
O O7 0.464551 0.286880 0.250718
O O8 0.558156 0.356953 0.245056
O O9 0.198215 0.801786 0.757517
O O10 0.159818 0.748402 0.000000
O O11 0.333334 0.666667 0.500000
O O12 0.360512 0.639489 0.746115
O O13 0.166552 0.223389 0.836965
O O14 0.149497 0.149497 0.000000
O O15 0.091082 0.182163 0.000000
O O16 0.062679 0.228540 0.500000
O O17 0.134837 0.269673 0.683919
O O18 0.772808 0.386404 0.000000
#
# Coordination Sequence:
#
# PCOD9587832 Si02
#       7
#    24  24  24   4  12  24  12
#     4  10  20  33  50  72  98 130 168 208 251 299
#     4  10  20  34  52  72 100 136 174 210 249 303
#     4  10  21  35  51  72 101 135 173 212 253 301
#     4  12  22  32  46  72 106 143 175 204 250 308
#     4  10  20  32  48  69  94 124 158 197 243 293
#     4   9  18  32  50  72  99 130 163 200 246 301
#     4  12  22  32  50  76 107 137 170 212 256 300
#
# _framework density 16.169794
#
# number of rings (size 3 to 8) (size 9 to 14) (size 15 to 20)
#    0.000    1.935    0.968    3.484    1.355    4.258 
#    0.000    0.000    0.000    0.097    0.000    0.677 
#    0.000    5.419    0.000    4.839    0.000    0.000 
#
# Total GULP energy -690502.589476 kJ/mol
# GULP energy per Si atom -5568.569270 kJ/mol
# Density = 1.613299 g / cm^3
# Si number density = 16.169794 Si / 1000 Ang^3
#
#
#
# Elastic Constant Matrix: (Units=GPa)
#
#
# Indices 1 2 3 4 5 6 
#
# 1 164.4401 -18.7006 41.8513 -0.0004 0.0001 0.0010
# 2 -18.7006 164.4402 41.8518 0.0004 -0.0001 -0.0004
# 3 41.8513 41.8518 95.8527 -0.0001 0.0000 0.0003
# 4 -0.0004 0.0004 -0.0001 11.5878 0.0001 0.0001
# 5 0.0001 -0.0001 0.0000 0.0001 11.5884 0.0004
# 6 0.0010 -0.0004 0.0003 0.0001 0.0004 91.5728
#
#
#
# Elastic Compliance Matrix: (Units=1/GPa)
#
#
# Indices 1 2 3 4 5 6 
#
# 1 0.007309 0.001849 -0.003999 0.000000 0.000000 0.000000
# 2 0.001849 0.007309 -0.003999 0.000000 0.000000 0.000000
# 3 -0.003999 -0.003999 0.013924 0.000000 0.000000 0.000000
# 4 0.000000 0.000000 0.000000 0.086298 0.000000 0.000000
# 5 0.000000 0.000000 0.000000 0.000000 0.086293 0.000000
# 6 0.000000 0.000000 0.000000 0.000000 0.000000 0.010920
#
#
# Mechanical properties :
#
#
# Convention : Reuss Voigt Hill
#
# Bulk Modulus (GPa) = 61.55313 61.63751 61.59532
# Shear Modulus (GPa) = 21.76127 46.93184 34.34655
#
# Velocity S-wave (km/s) = 3.67249 5.39327 4.61382
# Velocity P-wave (km/s) = 7.49215 8.77410 8.15834
#
# Compressibility (1/GPa) = 0.01624613
#
# Stress axis : x y z
#
# Youngs Moduli (GPa) = 136.81411 136.81376 71.81595
#
# Poissons Ratio (x) = -0.25296 0.28717
# Poissons Ratio (y) = -0.25296 0.28717
# Poissons Ratio (z) = 0.54707 0.54707
#
# Static dielectric constant tensor:
#      x y z
#    x 1.544030 0.000000 0.000000 
#    y 0.000000 1.544030 0.000000 
#    z 0.000000 0.000000 1.589310 
# 
# From -- ./inp_files/1896.got.cif
#   From: 2010.05.17/outbox.cif.g08.bks.cpg/sg191_1_cif.got.tgz:1896.got - 2010.05.20 12:20:32.
