data_PCOD9587408
_publ_section_title
;
Structure prediction by ZEFSAII (Michael W. Deem and Ramdas Pophale) SiO2 
 PCOD9587408
Probable space group: P 6/M M M
;
_chemical_formula_sum "Si O2"
_cell_formula_units_Z 120
_cell_length_a 18.295981
_cell_length_b 18.295981
_cell_length_c 25.467998
_cell_angle_alpha 90.000000
_cell_angle_beta 90.000000
_cell_angle_gamma 120.000000
_cell_volume 7383.067517
_symmetry_space_group_name_H-M "P 6/M M M"
_symmetry_group_IT_number 191
_symmetry_cell_setting 'hexagonal'
loop_
_space_group_symop_operation_xyz
x,y,z
x-y,x,z
-y,x-y,z
-x,-y,z
-x+y,-x,z
y,-x+y,z
x-y,-y,-z
-x,-x+y,-z
y,x,-z
-y,-x,-z
-x+y,y,-z
x,x-y,-z
-x,-y,-z
-x+y,-x,-z
y,-x+y,-z
x,y,-z
x-y,x,-z
-y,x-y,-z
-x+y,y,z
x,x-y,z
-y,-x,z
y,x,z
x-y,-y,z
-x,-x+y,z
loop_
_atom_site_type_symbol
_atom_site_label
_atom_site_fract_x
_atom_site_fract_y
_atom_site_fract_z
Si Si1 0.099639 0.361091 0.000000
Si Si2 0.333466 0.835713 0.436546
Si Si3 0.100909 0.466939 0.097833
Si Si4 0.000000 0.414822 0.716061
Si Si5 0.334919 0.000000 0.392260
Si Si6 0.331432 0.497784 0.786035
Si Si7 0.826191 0.000000 0.562510
O O1 0.118505 0.420011 0.051080
O O2 0.161800 0.323599 0.000000
O O3 0.000000 0.293968 0.000000
O O4 0.334155 0.836471 0.500000
O O5 0.419264 0.838527 0.418745
O O6 0.250833 0.749168 0.419590
O O7 0.329812 0.916679 0.417155
O O8 0.122806 0.561403 0.082486
O O9 0.144992 0.472168 0.152932
O O10 0.000000 0.415148 0.107071
O O11 0.000000 0.358643 0.668299
O O12 0.917411 0.363496 0.751734
O O13 0.000000 0.500000 0.697194
O O14 0.248981 0.000000 0.405092
O O15 0.242754 0.485507 0.768248
O O16 0.404719 0.595282 0.782453
O O17 0.831413 0.915707 0.572657
O O18 0.807715 0.000000 0.500000
#
# Coordination Sequence:
#
# PCOD9587408 Si02
#       7
#    12  24  24  12  12  24  12
#     4  10  19  29  45  72 103 133 168 204 249 301
#     4  10  20  34  52  75 104 136 167 201 246 301
#     4   9  16  29  49  72  99 130 161 196 244 303
#     4  10  22  38  51  67  98 136 170 210 258 299
#     4  12  22  34  54  78 102 130 172 216 254 289
#     4  10  19  33  52  72  95 127 169 211 250 293
#     4  10  21  38  60  85 112 138 162 194 244 307
#
# _framework density 16.253405999999998
#
# number of rings (size 3 to 8) (size 9 to 14) (size 15 to 20)
#    0.000    2.000    1.000    3.800    0.000    6.400 
#    0.000    0.000    0.000    5.300    0.000    0.000 
#    0.000    0.000    0.000    0.000    0.000    0.000 
#
# Total GULP energy -669697.786414 kJ/mol
# GULP energy per Si atom -5580.814887 kJ/mol
# Density = 1.621641 g / cm^3
# Si number density = 16.253406 Si / 1000 Ang^3
#
#
#
# Elastic Constant Matrix: (Units=GPa)
#
#
# Indices 1 2 3 4 5 6 
#
# 1 122.0242 70.7149 45.8379 0.0000 0.0000 0.0000
# 2 70.7149 122.0242 45.8379 0.0000 0.0000 0.0000
# 3 45.8379 45.8379 57.8009 0.0000 0.0000 0.0000
# 4 0.0000 0.0000 0.0000 11.5659 0.0000 0.0000
# 5 0.0000 0.0000 0.0000 0.0000 11.5659 0.0000
# 6 0.0000 0.0000 0.0000 0.0000 0.0000 25.6546
#
#
#
# Elastic Compliance Matrix: (Units=1/GPa)
#
#
# Indices 1 2 3 4 5 6 
#
# 1 0.013910 -0.005579 -0.006607 0.000000 0.000000 0.000000
# 2 -0.005579 0.013910 -0.006607 0.000000 0.000000 0.000000
# 3 -0.006607 -0.006607 0.027779 0.000000 0.000000 0.000000
# 4 0.000000 0.000000 0.000000 0.086461 0.000000 0.000000
# 5 0.000000 0.000000 0.000000 0.000000 0.086461 0.000000
# 6 0.000000 0.000000 0.000000 0.000000 0.000000 0.038979
#
#
# Mechanical properties :
#
#
# Convention : Reuss Voigt Hill
#
# Bulk Modulus (GPa) = 55.51087 69.62563 62.56825
# Shear Modulus (GPa) = 16.07251 19.05454 17.56352
#
# Velocity S-wave (km/s) = 3.14804 3.42766 3.29082
# Velocity P-wave (km/s) = 6.88775 7.65478 7.28137
#
# Compressibility (1/GPa) = 0.01801449
#
# Stress axis : x y z
#
# Youngs Moduli (GPa) = 71.88967 71.88967 35.99822
#
# Poissons Ratio (x) = 0.40111 0.23782
# Poissons Ratio (y) = 0.40111 0.23782
# Poissons Ratio (z) = 0.47494 0.47494
#
# Static dielectric constant tensor:
#      x y z
#    x 1.531650 0.000000 0.000000 
#    y 0.000000 1.531650 0.000000 
#    z 0.000000 0.000000 1.538650 
# 
# From -- ./inp_files/8647.got.cif
#   From: 2010.05.17/outbox.cif.g08.bks.cpg/sg191_5_cif.got.tgz:8647.got - 2010.05.20 12:20:32.
