data_PCOD9587085
_publ_section_title
;
Structure prediction by ZEFSAII (Michael W. Deem and Ramdas Pophale) SiO2 
 PCOD9587085
Probable space group: P 6/M M M
;
_chemical_formula_sum "Si O2"
_cell_formula_units_Z 120
_cell_length_a 18.197539
_cell_length_b 18.197539
_cell_length_c 26.425757
_cell_angle_alpha 90.000000
_cell_angle_beta 90.000000
_cell_angle_gamma 120.000000
_cell_volume 7578.502294
_symmetry_space_group_name_H-M "P 6/M M M"
_symmetry_group_IT_number 191
_symmetry_cell_setting 'hexagonal'
loop_
_space_group_symop_operation_xyz
x,y,z
x-y,x,z
-y,x-y,z
-x,-y,z
-x+y,-x,z
y,-x+y,z
x-y,-y,-z
-x,-x+y,-z
y,x,-z
-y,-x,-z
-x+y,y,-z
x,x-y,-z
-x,-y,-z
-x+y,-x,-z
y,-x+y,-z
x,y,-z
x-y,x,-z
-y,x-y,-z
-x+y,y,z
x,x-y,z
-y,-x,z
y,x,z
x-y,-y,z
-x,-x+y,z
loop_
_atom_site_type_symbol
_atom_site_label
_atom_site_fract_x
_atom_site_fract_y
_atom_site_fract_z
Si Si1 0.365250 0.467544 0.901135
Si Si2 0.167105 0.497460 0.500000
Si Si3 0.540618 0.637678 0.393338
Si Si4 0.098889 0.365925 0.804905
Si Si5 0.629706 0.897904 0.000000
Si Si6 0.331053 0.496484 0.715868
O O1 0.431874 0.568127 0.901866
O O2 0.422295 0.422295 0.900543
O O3 0.308349 0.432632 0.851133
O O4 0.308116 0.430114 0.950917
O O5 0.267103 0.534205 0.500000
O O6 0.146706 0.573353 0.500000
O O7 0.131419 0.448826 0.447222
O O8 0.450088 0.549913 0.395843
O O9 0.611758 0.611758 0.387484
O O10 0.534375 0.680717 0.342212
O O11 0.166891 0.333781 0.804003
O O12 0.111450 0.419793 0.754017
O O13 0.000000 0.295336 0.810804
O O14 0.666022 0.833011 0.000000
O O15 0.697756 0.000000 0.000000
O O16 0.263567 0.527134 0.726415
O O17 0.426666 0.573335 0.722514
#
# Coordination Sequence:
#
# PCOD9587085 Si02
#       6
#    24  12  24  24  12  24
#     4   9  17  30  49  71  93 119 152 188 227 274
#     4  10  18  27  39  55  76 101 132 174 223 270
#     4   9  17  28  41  56  76 106 143 179 215 260
#     4  10  20  33  50  71  94 122 156 193 231 273
#     4  10  19  31  49  72  97 127 164 204 243 283
#     4  10  19  30  45  66  92 120 150 185 225 269
#
# _framework density 15.834263999999999
#
# number of rings (size 3 to 8) (size 9 to 14) (size 15 to 20)
#    0.000    2.400    0.000    3.300    0.000    4.400 
#    0.000    2.000    0.000    7.100    0.000    0.000 
#    0.000    4.800    0.000    0.000    0.000    0.400 
#
# Total GULP energy -668237.802830 kJ/mol
# GULP energy per Si atom -5568.648357 kJ/mol
# Density = 1.579822 g / cm^3
# Si number density = 15.834264 Si / 1000 Ang^3
#
#
#
# Elastic Constant Matrix: (Units=GPa)
#
#
# Indices 1 2 3 4 5 6 
#
# 1 66.3222 41.1743 29.4470 0.0000 0.0000 0.0000
# 2 41.1743 66.3222 29.4470 0.0000 0.0000 0.0000
# 3 29.4470 29.4470 99.7417 0.0000 0.0000 0.0000
# 4 0.0000 0.0000 0.0000 10.9778 0.0000 0.0000
# 5 0.0000 0.0000 0.0000 0.0000 10.9778 0.0000
# 6 0.0000 0.0000 0.0000 0.0000 0.0000 12.5740
#
#
#
# Elastic Compliance Matrix: (Units=1/GPa)
#
#
# Indices 1 2 3 4 5 6 
#
# 1 0.025431 -0.014334 -0.003276 0.000000 0.000000 0.000000
# 2 -0.014334 0.025431 -0.003276 0.000000 0.000000 0.000000
# 3 -0.003276 -0.003276 0.011960 0.000000 0.000000 0.000000
# 4 0.000000 0.000000 0.000000 0.091093 0.000000 0.000000
# 5 0.000000 0.000000 0.000000 0.000000 0.091093 0.000000
# 6 0.000000 0.000000 0.000000 0.000000 0.000000 0.079529
#
#
# Mechanical properties :
#
#
# Convention : Reuss Voigt Hill
#
# Bulk Modulus (GPa) = 47.50536 48.05806 47.78171
# Shear Modulus (GPa) = 13.39304 15.72709 14.56007
#
# Velocity S-wave (km/s) = 2.91147 3.15498 3.03566
# Velocity P-wave (km/s) = 6.43187 6.60972 6.52140
#
# Compressibility (1/GPa) = 0.02105025
#
# Stress axis : x y z
#
# Youngs Moduli (GPa) = 39.32179 39.32179 83.60863
#
# Poissons Ratio (x) = 0.56362 0.27393
# Poissons Ratio (y) = 0.56362 0.27393
# Poissons Ratio (z) = 0.12883 0.12883
#
# Static dielectric constant tensor:
#      x y z
#    x 1.525890 0.000000 0.000000 
#    y 0.000000 1.525890 0.000000 
#    z 0.000000 0.000000 1.558430 
# 
# From -- ./inp_files/8580.got.cif
#   From: 2010.05.17/outbox.cif.g08.bks.cpg/sg191_5_cif.got.tgz:8580.got - 2010.05.20 12:20:32.
