data_PCOD9587652
_publ_section_title
;
Structure prediction by ZEFSAII (Michael W. Deem and Ramdas Pophale) SiO2 
 PCOD9587652
Probable space group: P 6/M M M
;
_chemical_formula_sum "Si O2"
_cell_formula_units_Z 108
_cell_length_a 18.263026
_cell_length_b 18.263026
_cell_length_c 21.802786
_cell_angle_alpha 90.000000
_cell_angle_beta 90.000000
_cell_angle_gamma 120.000000
_cell_volume 6297.788892
_symmetry_space_group_name_H-M "P 6/M M M"
_symmetry_group_IT_number 191
_symmetry_cell_setting 'hexagonal'
loop_
_space_group_symop_operation_xyz
x,y,z
x-y,x,z
-y,x-y,z
-x,-y,z
-x+y,-x,z
y,-x+y,z
x-y,-y,-z
-x,-x+y,-z
y,x,-z
-y,-x,-z
-x+y,y,-z
x,x-y,-z
-x,-y,-z
-x+y,-x,-z
y,-x+y,-z
x,y,-z
x-y,x,-z
-y,x-y,-z
-x+y,y,z
x,x-y,z
-y,-x,z
y,x,z
x-y,-y,z
-x,-x+y,z
loop_
_atom_site_type_symbol
_atom_site_label
_atom_site_fract_x
_atom_site_fract_y
_atom_site_fract_z
Si Si1 0.000000 0.661536 0.926474
Si Si2 0.735551 0.100425 0.384377
Si Si3 0.831140 0.831140 0.074664
Si Si4 0.836708 0.331880 0.868225
Si Si5 0.899911 0.366681 0.267851
Si Si6 0.532176 0.634242 0.500000
O O1 0.000000 0.746593 0.906314
O O2 0.083006 0.663367 0.901295
O O3 0.000000 0.659762 0.000000
O O4 0.835588 0.164413 0.387440
O O5 0.698964 0.115342 0.321227
O O6 0.691419 0.123054 0.439698
O O7 0.702791 0.000000 0.388731
O O8 0.915489 0.830978 0.094810
O O9 0.832049 0.832049 0.000000
O O10 0.833112 0.416556 0.880668
O O11 0.751103 0.248898 0.887163
O O12 0.850432 0.329480 0.795026
O O13 0.882466 0.441233 0.289694
O O14 0.000000 0.413729 0.252760
O O15 0.577550 0.577550 0.500000
O O16 0.432172 0.567829 0.500000
#
# Coordination Sequence:
#
# PCOD9587652 Si02
#       6
#    12  24  12  24  24  12
#     4  11  23  39  57  77 103 138 175 211 255 317
#     4  10  19  31  50  76 106 141 182 224 263 306
#     4   9  17  31  53  81 109 135 164 201 247 298
#     4  11  22  37  56  79 106 136 174 219 267 315
#     4   9  17  32  54  78 102 133 171 213 260 312
#     4   9  17  30  49  74 102 134 170 211 261 316
#
# _framework density 17.148876000000001
#
# number of rings (size 3 to 8) (size 9 to 14) (size 15 to 20)
#    0.000    2.111    1.111    3.000    0.000    5.333 
#    0.000    0.000    0.000    9.111    0.000    0.000 
#    0.000    2.667    0.000    0.000    0.000    0.000 
#
# Total GULP energy -602496.271726 kJ/mol
# GULP energy per Si atom -5578.669183 kJ/mol
# Density = 1.710984 g / cm^3
# Si number density = 17.148876 Si / 1000 Ang^3
#
#
#
# Elastic Constant Matrix: (Units=GPa)
#
#
# Indices 1 2 3 4 5 6 
#
# 1 140.2708 88.3534 42.5450 0.0000 0.0000 0.0000
# 2 88.3534 140.2708 42.5450 0.0000 0.0000 0.0000
# 3 42.5450 42.5450 47.0866 0.0000 0.0000 0.0000
# 4 0.0000 0.0000 0.0000 12.0442 0.0000 0.0000
# 5 0.0000 0.0000 0.0000 0.0000 12.0442 0.0000
# 6 0.0000 0.0000 0.0000 0.0000 0.0000 25.9587
#
#
#
# Elastic Compliance Matrix: (Units=1/GPa)
#
#
# Indices 1 2 3 4 5 6 
#
# 1 0.012926 -0.006336 -0.005955 0.000000 0.000000 0.000000
# 2 -0.006336 0.012926 -0.005955 0.000000 0.000000 0.000000
# 3 -0.005955 -0.005955 0.031998 0.000000 0.000000 0.000000
# 4 0.000000 0.000000 0.000000 0.083027 0.000000 0.000000
# 5 0.000000 0.000000 0.000000 0.000000 0.083027 0.000000
# 6 0.000000 0.000000 0.000000 0.000000 0.000000 0.038523
#
#
# Mechanical properties :
#
#
# Convention : Reuss Voigt Hill
#
# Bulk Modulus (GPa) = 46.81633 74.94613 60.88123
# Shear Modulus (GPa) = 16.33794 20.28841 18.31318
#
# Velocity S-wave (km/s) = 3.08995 3.44332 3.27141
# Velocity P-wave (km/s) = 6.33164 7.72054 7.06032
#
# Compressibility (1/GPa) = 0.02136007
#
# Stress axis : x y z
#
# Youngs Moduli (GPa) = 77.36481 77.36481 31.25209
#
# Poissons Ratio (x) = 0.49015 0.18609
# Poissons Ratio (y) = 0.49015 0.18609
# Poissons Ratio (z) = 0.46067 0.46067
#
# Static dielectric constant tensor:
#      x y z
#    x 1.573510 0.000000 0.000000 
#    y 0.000000 1.573510 0.000000 
#    z 0.000000 0.000000 1.578500 
# 
# From -- ./inp_files/7384.got.cif
#   From: 2010.05.17/outbox.cif.g08.bks.cpg/sg191_4_cif.got.tgz:7384.got - 2010.05.20 12:20:32.
