data_PCOD9587426
_publ_section_title
;
Structure prediction by ZEFSAII (Michael W. Deem and Ramdas Pophale) SiO2 
 PCOD9587426
Probable space group: P 6/M M M
;
_chemical_formula_sum "Si O2"
_cell_formula_units_Z 108
_cell_length_a 20.731764
_cell_length_b 20.731764
_cell_length_c 20.779254
_cell_angle_alpha 90.000000
_cell_angle_beta 90.000000
_cell_angle_gamma 120.000000
_cell_volume 7734.515183
_symmetry_space_group_name_H-M "P 6/M M M"
_symmetry_group_IT_number 191
_symmetry_cell_setting 'hexagonal'
loop_
_space_group_symop_operation_xyz
x,y,z
x-y,x,z
-y,x-y,z
-x,-y,z
-x+y,-x,z
y,-x+y,z
x-y,-y,-z
-x,-x+y,-z
y,x,-z
-y,-x,-z
-x+y,y,-z
x,x-y,-z
-x,-y,-z
-x+y,-x,-z
y,-x+y,-z
x,y,-z
x-y,x,-z
-y,x-y,-z
-x+y,y,z
x,x-y,z
-y,-x,z
y,x,z
x-y,-y,z
-x,-x+y,z
loop_
_atom_site_type_symbol
_atom_site_label
_atom_site_fract_x
_atom_site_fract_y
_atom_site_fract_z
Si Si1 0.464244 0.085132 0.000000
Si Si2 0.085410 0.542705 0.575611
Si Si3 0.820353 0.487146 0.874864
Si Si4 0.915215 0.680684 0.500000
Si Si5 0.565149 0.858824 0.382786
Si Si6 0.087712 0.619399 0.255363
O O1 0.467785 0.129579 0.935858
O O2 0.541159 0.082317 0.000000
O O3 0.398467 0.000000 0.000000
O O4 0.075170 0.537585 0.500000
O O5 0.131171 0.502122 0.592020
O O6 0.000000 0.500000 0.603962
O O7 0.743136 0.486271 0.874611
O O8 0.806512 0.403256 0.880338
O O9 0.865079 0.520142 0.808741
O O10 0.851883 0.703765 0.500000
O O11 0.900914 0.630536 0.564390
O O12 0.000000 0.745809 0.500000
O O13 0.550201 0.775101 0.379694
O O14 0.572592 0.892098 0.311218
O O15 0.103101 0.551551 0.275002
O O16 0.000000 0.579132 0.241543
#
# Coordination Sequence:
#
# PCOD9587426 Si02
#       6
#    12  12  24  12  24  24
#     4   9  17  30  46  62  80 105 142 180 210 254
#     4  11  20  32  52  66  84 121 163 193 229 284
#     4  10  19  30  44  63  87 112 139 176 227 275
#     4  10  20  33  51  70  91 113 143 185 225 269
#     4  11  21  32  46  68  91 116 153 194 235 269
#     4  10  19  31  47  63  82 114 154 188 221 267
#
# _framework density 13.963384
#
# number of rings (size 3 to 8) (size 9 to 14) (size 15 to 20)
#    0.000    1.778    2.222    3.889    0.000    2.667 
#    0.667    1.111    0.000    0.111    0.000    0.000 
#    0.000    0.000    0.000    0.000    0.000    0.000 
#
# Total GULP energy -601826.496940 kJ/mol
# GULP energy per Si atom -5572.467564 kJ/mol
# Density = 1.393160 g / cm^3
# Si number density = 13.963384 Si / 1000 Ang^3
#
#
#
# Elastic Constant Matrix: (Units=GPa)
#
#
# Indices 1 2 3 4 5 6 
#
# 1 93.7048 51.0875 47.4254 0.0000 0.0000 0.0000
# 2 51.0875 93.7048 47.4254 0.0000 0.0000 0.0000
# 3 47.4254 47.4254 116.8482 0.0000 0.0000 0.0000
# 4 0.0000 0.0000 0.0000 17.0272 0.0000 0.0000
# 5 0.0000 0.0000 0.0000 0.0000 17.0272 0.0000
# 6 0.0000 0.0000 0.0000 0.0000 0.0000 21.3087
#
#
#
# Elastic Compliance Matrix: (Units=1/GPa)
#
#
# Indices 1 2 3 4 5 6 
#
# 1 0.016436 -0.007028 -0.003818 0.000000 0.000000 0.000000
# 2 -0.007028 0.016436 -0.003818 0.000000 0.000000 0.000000
# 3 -0.003818 -0.003818 0.011658 0.000000 0.000000 0.000000
# 4 0.000000 0.000000 0.000000 0.058730 0.000000 0.000000
# 5 0.000000 0.000000 0.000000 0.000000 0.058730 0.000000
# 6 0.000000 0.000000 0.000000 0.000000 0.000000 0.046929
#
#
# Mechanical properties :
#
#
# Convention : Reuss Voigt Hill
#
# Bulk Modulus (GPa) = 65.79043 66.23717 66.01380
# Shear Modulus (GPa) = 20.54944 21.62722 21.08833
#
# Velocity S-wave (km/s) = 3.84039 3.93982 3.89042
# Velocity P-wave (km/s) = 8.17823 8.26048 8.21946
#
# Compressibility (1/GPa) = 0.01519978
#
# Stress axis : x y z
#
# Youngs Moduli (GPa) = 60.84125 60.84125 85.78061
#
# Poissons Ratio (x) = 0.42762 0.32754
# Poissons Ratio (y) = 0.42762 0.32754
# Poissons Ratio (z) = 0.23231 0.23231
#
# Static dielectric constant tensor:
#      x y z
#    x 1.345540 0.000000 0.000000 
#    y 0.000000 1.345540 0.000000 
#    z 0.000000 0.000000 1.499890 
# 
# From -- ./inp_files/7507.got.cif
#   From: 2010.05.17/outbox.cif.g08.bks.cpg/sg191_4_cif.got.tgz:7507.got - 2010.05.20 12:20:32.
