data_PCOD9587998
_publ_section_title
;
Structure prediction by ZEFSAII (Michael W. Deem and Ramdas Pophale) SiO2 
 PCOD9587998
Probable space group: P 6/M M M
;
_chemical_formula_sum "Si O2"
_cell_formula_units_Z 108
_cell_length_a 17.523999
_cell_length_b 17.523999
_cell_length_c 24.017423
_cell_angle_alpha 90.000000
_cell_angle_beta 90.000000
_cell_angle_gamma 120.000000
_cell_volume 6387.390649
_symmetry_space_group_name_H-M "P 6/M M M"
_symmetry_group_IT_number 191
_symmetry_cell_setting 'hexagonal'
loop_
_space_group_symop_operation_xyz
x,y,z
x-y,x,z
-y,x-y,z
-x,-y,z
-x+y,-x,z
y,-x+y,z
x-y,-y,-z
-x,-x+y,-z
y,x,-z
-y,-x,-z
-x+y,y,-z
x,x-y,-z
-x,-y,-z
-x+y,-x,-z
y,-x+y,-z
x,y,-z
x-y,x,-z
-y,x-y,-z
-x+y,y,z
x,x-y,z
-y,-x,z
y,x,z
x-y,-y,z
-x,-x+y,z
loop_
_atom_site_type_symbol
_atom_site_label
_atom_site_fract_x
_atom_site_fract_y
_atom_site_fract_z
Si Si1 0.354877 0.354877 0.270494
Si Si2 0.849315 0.333743 0.349866
Si Si3 0.000000 0.825265 0.137113
Si Si4 0.000000 0.175686 0.272421
Si Si5 0.646853 0.646853 0.137519
Si Si6 0.407476 0.000000 0.436580
Si Si7 0.488672 0.154263 0.937264
O O1 0.348936 0.435965 0.297226
O O2 0.265048 0.265048 0.286409
O O3 0.361104 0.361104 0.203991
O O4 0.831241 0.415621 0.353031
O O5 0.759123 0.240878 0.347986
O O6 0.912349 0.342554 0.401985
O O7 0.000000 0.828282 0.204792
O O8 0.000000 0.736554 0.122573
O O9 0.912098 0.824195 0.117764
O O10 0.088516 0.177031 0.291598
O O11 0.566763 0.651074 0.109389
O O12 0.500000 0.000000 0.437402
O O13 0.379935 0.000000 0.500000
O O14 0.589766 0.179532 0.933135
O O15 0.479652 0.239826 0.931445
O O16 0.458565 0.117518 0.000000
#
# Coordination Sequence:
#
# PCOD9587998 Si02
#       7
#    12  24  12  12  12  12  24
#     4  10  21  35  49  69 103 143 174 209 262 314
#     4  10  20  34  52  74 102 138 180 222 262 308
#     4   9  17  29  46  69  96 125 156 194 241 292
#     4   9  16  27  45  68  93 122 160 204 248 297
#     4  11  21  34  53  76 101 131 171 212 253 310
#     4   8  16  32  52  75 104 134 164 206 262 313
#     4  10  21  37  56  77 100 126 159 205 262 319
#
# _framework density 16.908311999999999
#
# number of rings (size 3 to 8) (size 9 to 14) (size 15 to 20)
#    0.000    2.333    0.000    3.667    0.000    7.556 
#    0.000    0.000    0.000    4.000    0.000    0.000 
#    0.000    5.333    0.000    0.000    0.000   33.111 
#
# Total GULP energy -602266.074669 kJ/mol
# GULP energy per Si atom -5576.537728 kJ/mol
# Density = 1.686983 g / cm^3
# Si number density = 16.908312 Si / 1000 Ang^3
#
#
#
# Elastic Constant Matrix: (Units=GPa)
#
#
# Indices 1 2 3 4 5 6 
#
# 1 99.2682 36.5556 42.5153 0.0000 0.0000 0.0000
# 2 36.5556 99.2682 42.5153 0.0000 0.0000 0.0000
# 3 42.5153 42.5153 96.5411 0.0000 0.0000 0.0000
# 4 0.0000 0.0000 0.0000 10.3481 0.0000 0.0000
# 5 0.0000 0.0000 0.0000 0.0000 10.3481 0.0000
# 6 0.0000 0.0000 0.0000 0.0000 0.0000 31.3563
#
#
#
# Elastic Compliance Matrix: (Units=1/GPa)
#
#
# Indices 1 2 3 4 5 6 
#
# 1 0.013055 -0.002890 -0.004476 0.000000 0.000000 0.000000
# 2 -0.002890 0.013055 -0.004476 0.000000 0.000000 0.000000
# 3 -0.004476 -0.004476 0.014301 0.000000 0.000000 0.000000
# 4 0.000000 0.000000 0.000000 0.096636 0.000000 0.000000
# 5 0.000000 0.000000 0.000000 0.000000 0.096636 0.000000
# 6 0.000000 0.000000 0.000000 0.000000 0.000000 0.031892
#
#
# Mechanical properties :
#
#
# Convention : Reuss Voigt Hill
#
# Bulk Modulus (GPa) = 59.79093 59.80555 59.79824
# Shear Modulus (GPa) = 16.95856 21.97659 19.46757
#
# Velocity S-wave (km/s) = 3.17041 3.60912 3.39685
# Velocity P-wave (km/s) = 6.98861 7.26739 7.12936
#
# Compressibility (1/GPa) = 0.01672494
#
# Stress axis : x y z
#
# Youngs Moduli (GPa) = 76.59697 76.59697 69.92494
#
# Poissons Ratio (x) = 0.22140 0.31302
# Poissons Ratio (y) = 0.22140 0.31302
# Poissons Ratio (z) = 0.34289 0.34289
#
# Static dielectric constant tensor:
#      x y z
#    x 1.561900 0.000000 0.000000 
#    y 0.000000 1.561900 0.000000 
#    z 0.000000 0.000000 1.571750 
# 
# From -- ./inp_files/7404.got.cif
#   From: 2010.05.17/outbox.cif.g08.bks.cpg/sg191_4_cif.got.tgz:7404.got - 2010.05.20 12:20:32.
