data_PCOD9587029
_publ_section_title
;
Structure prediction by ZEFSAII (Michael W. Deem and Ramdas Pophale) SiO2 
 PCOD9587029
Probable space group: P 6/M M M
;
_chemical_formula_sum "Si O2"
_cell_formula_units_Z 96
_cell_length_a 29.239139
_cell_length_b 29.239139
_cell_length_c 7.491634
_cell_angle_alpha 90.000000
_cell_angle_beta 90.000000
_cell_angle_gamma 120.000000
_cell_volume 5546.721281
_symmetry_space_group_name_H-M "P 6/M M M"
_symmetry_group_IT_number 191
_symmetry_cell_setting 'hexagonal'
loop_
_space_group_symop_operation_xyz
x,y,z
x-y,x,z
-y,x-y,z
-x,-y,z
-x+y,-x,z
y,-x+y,z
x-y,-y,-z
-x,-x+y,-z
y,x,-z
-y,-x,-z
-x+y,y,-z
x,x-y,-z
-x,-y,-z
-x+y,-x,-z
y,-x+y,-z
x,y,-z
x-y,x,-z
-y,x-y,-z
-x+y,y,z
x,x-y,z
-y,-x,z
y,x,z
x-y,-y,z
-x,-x+y,z
loop_
_atom_site_type_symbol
_atom_site_label
_atom_site_fract_x
_atom_site_fract_y
_atom_site_fract_z
Si Si1 0.286779 0.000000 0.295874
Si Si2 0.542716 0.822326 0.717691
Si Si3 0.218778 0.884028 0.281908
Si Si4 0.000000 0.391498 0.207820
Si Si5 0.604517 0.498898 0.714125
O O1 0.299913 0.056171 0.216393
O O2 0.270005 0.000000 0.500000
O O3 0.342211 0.000000 0.300733
O O4 0.542249 0.822343 0.500000
O O5 0.526824 0.763412 0.774684
O O6 0.603932 0.860366 0.770306
O O7 0.507661 0.847090 0.780157
O O8 0.219721 0.885353 0.500000
O O9 0.159517 0.840484 0.228254
O O10 0.051358 0.447145 0.250706
O O11 0.000000 0.380778 0.000000
O O12 0.604262 0.493521 0.500000
O O13 0.552388 0.447612 0.784158
#
# Coordination Sequence:
#
# PCOD9587029 Si02
#       5
#    12  24  24  12  24
#     4  10  16  27  47  62  82 111 139 170 198 237
#     4   8  13  23  41  63  82  97 122 164 203 234
#     4   8  13  21  38  63  82 100 130 165 199 231
#     4  12  23  31  40  59  88 114 134 167 213 250
#     4  10  19  31  47  63  79 106 143 171 196 246
#
# _framework density 17.307521999999999
#
# number of rings (size 3 to 8) (size 9 to 14) (size 15 to 20)
#    0.000    2.750    2.500    3.000    0.000    2.000 
#    0.000    0.000    0.000    3.500    0.000    3.500 
#    0.000    0.000    0.000    0.375    0.000   12.000 
#
# Total GULP energy -535323.530914 kJ/mol
# GULP energy per Si atom -5576.286780 kJ/mol
# Density = 1.726813 g / cm^3
# Si number density = 17.307522 Si / 1000 Ang^3
#
#
#
# Elastic Constant Matrix: (Units=GPa)
#
#
# Indices 1 2 3 4 5 6 
#
# 1 118.4352 65.5732 -0.1548 0.0000 0.0000 0.0000
# 2 65.5732 118.4352 -0.1548 0.0000 0.0000 0.0000
# 3 -0.1548 -0.1548 51.7425 0.0000 0.0000 0.0000
# 4 0.0000 0.0000 0.0000 -24.6617 0.0000 0.0000
# 5 0.0000 0.0000 0.0000 0.0000 -24.6617 0.0000
# 6 0.0000 0.0000 0.0000 0.0000 0.0000 26.4310
#
#
#
# Elastic Compliance Matrix: (Units=1/GPa)
#
#
# Indices 1 2 3 4 5 6 
#
# 1 0.012176 -0.006741 0.000016 0.000000 0.000000 0.000000
# 2 -0.006741 0.012176 0.000016 0.000000 0.000000 0.000000
# 3 0.000016 0.000016 0.019327 0.000000 0.000000 0.000000
# 4 0.000000 0.000000 0.000000 -0.040549 0.000000 0.000000
# 5 0.000000 0.000000 0.000000 0.000000 -0.040549 0.000000
# 6 0.000000 0.000000 0.000000 0.000000 0.000000 0.037834
#
#
# Mechanical properties :
#
#
# Convention : Reuss Voigt Hill
#
# Bulk Modulus (GPa) = 33.04614 46.57114 39.80864
# Shear Modulus (GPa) = 209.03380 10.31149 109.67265
#
# Velocity S-wave (km/s) = 11.00175 2.44351 7.96898
# Velocity P-wave (km/s) = 13.43576 5.90994 10.37899
#
# Compressibility (1/GPa) = 0.03026072
#
# Stress axis : x y z
#
# Youngs Moduli (GPa) = 82.12972 82.12972 51.74222
#
# Poissons Ratio (x) = 0.55366 -0.00084
# Poissons Ratio (y) = 0.55366 -0.00084
# Poissons Ratio (z) = -0.00134 -0.00134
#
# Static dielectric constant tensor:
#      x y z
#    x 1.594120 0.000000 0.000000 
#    y 0.000000 1.594120 0.000000 
#    z 0.000000 0.000000 1.651140 
# 
# From -- ./inp_files/1558.got.cif
#   From: 2010.05.17/outbox.cif.g08.bks.cpg/sg191_1_cif.got.tgz:1558.got - 2010.05.20 12:20:32.
