data_PCOD9587674
_publ_section_title
;
Structure prediction by ZEFSAII (Michael W. Deem and Ramdas Pophale) SiO2 
 PCOD9587674
Probable space group: P 6/M M M
;
_chemical_formula_sum "Si O2"
_cell_formula_units_Z 108
_cell_length_a 30.637683
_cell_length_b 30.637683
_cell_length_c 8.122603
_cell_angle_alpha 90.000000
_cell_angle_beta 90.000000
_cell_angle_gamma 120.000000
_cell_volume 6602.945240
_symmetry_space_group_name_H-M "P 6/M M M"
_symmetry_group_IT_number 191
_symmetry_cell_setting 'hexagonal'
loop_
_space_group_symop_operation_xyz
x,y,z
x-y,x,z
-y,x-y,z
-x,-y,z
-x+y,-x,z
y,-x+y,z
x-y,-y,-z
-x,-x+y,-z
y,x,-z
-y,-x,-z
-x+y,y,-z
x,x-y,-z
-x,-y,-z
-x+y,-x,-z
y,-x+y,-z
x,y,-z
x-y,x,-z
-y,x-y,-z
-x+y,y,z
x,x-y,z
-y,-x,z
y,x,z
x-y,-y,z
-x,-x+y,z
loop_
_atom_site_type_symbol
_atom_site_label
_atom_site_fract_x
_atom_site_fract_y
_atom_site_fract_z
Si Si1 0.510255 0.703006 0.807922
Si Si2 0.000000 0.804575 0.307767
Si Si3 0.790974 0.895487 0.813506
Si Si4 0.000000 0.703176 0.196729
Si Si5 0.437203 0.770533 0.500000
Si Si6 0.841234 0.682468 0.685520
Si Si7 0.379380 0.107932 0.198355
O O1 0.522323 0.761162 0.798972
O O2 0.469381 0.673746 0.666308
O O3 0.561213 0.701764 0.770177
O O4 0.495232 0.687180 0.000000
O O5 0.949746 0.806489 0.262765
O O6 0.000000 0.755339 0.232780
O O7 0.000000 0.796861 0.500000
O O8 0.730223 0.865112 0.804022
O O9 0.808753 0.904377 0.000000
O O10 0.949718 0.653520 0.254398
O O11 0.000000 0.700035 0.000000
O O12 0.386185 0.772369 0.500000
O O13 0.426264 0.713132 0.500000
O O14 0.851441 0.702882 0.500000
O O15 0.865420 0.648034 0.717031
O O16 0.373934 0.110077 0.000000
#
# Coordination Sequence:
#
# PCOD9587674 Si02
#       7
#    24  12  12  12  12  12  24
#     4   9  18  32  52  77 105 140 180 221 266 319
#     4  12  24  38  54  79 105 132 177 229 271 319
#     4  12  24  40  56  73 103 146 182 214 270 338
#     4  10  20  32  50  74 107 146 178 211 259 322
#     4  10  21  36  56  81 111 141 175 216 263 317
#     4  12  22  28  48  76 105 141 180 222 262 308
#     4  10  19  32  49  73 106 144 181 216 260 315
#
# _framework density 16.356337
#
# number of rings (size 3 to 8) (size 9 to 14) (size 15 to 20)
#    0.000    1.556    3.333    3.111    1.556    0.444 
#    0.000    0.000    0.000    1.556    0.000    3.111 
#    0.000    4.444    0.000    0.000    0.000    0.000 
#
# Total GULP energy -602210.787795 kJ/mol
# GULP energy per Si atom -5576.025813 kJ/mol
# Density = 1.631911 g / cm^3
# Si number density = 16.356337 Si / 1000 Ang^3
#
#
#
# Elastic Constant Matrix: (Units=GPa)
#
#
# Indices 1 2 3 4 5 6 
#
# 1 112.8049 59.1946 45.1161 0.0000 0.0000 0.0000
# 2 59.1946 112.8049 45.1161 0.0000 0.0000 0.0000
# 3 45.1161 45.1161 55.2419 0.0000 0.0000 0.0000
# 4 0.0000 0.0000 0.0000 15.6055 0.0000 0.0000
# 5 0.0000 0.0000 0.0000 0.0000 15.6055 0.0000
# 6 0.0000 0.0000 0.0000 0.0000 0.0000 26.8051
#
#
#
# Elastic Compliance Matrix: (Units=1/GPa)
#
#
# Indices 1 2 3 4 5 6 
#
# 1 0.014413 -0.004240 -0.008308 0.000000 0.000000 0.000000
# 2 -0.004240 0.014413 -0.008308 0.000000 0.000000 0.000000
# 3 -0.008308 -0.008308 0.031672 0.000000 0.000000 0.000000
# 4 0.000000 0.000000 0.000000 0.064080 0.000000 0.000000
# 5 0.000000 0.000000 0.000000 0.000000 0.064080 0.000000
# 6 0.000000 0.000000 0.000000 0.000000 0.000000 0.037306
#
#
# Mechanical properties :
#
#
# Convention : Reuss Voigt Hill
#
# Bulk Modulus (GPa) = 53.23185 64.41170 58.82178
# Shear Modulus (GPa) = 18.25235 20.36488 19.30861
#
# Velocity S-wave (km/s) = 3.34416 3.53239 3.43956
# Velocity P-wave (km/s) = 6.89398 7.49018 7.19826
#
# Compressibility (1/GPa) = 0.01878575
#
# Stress axis : x y z
#
# Youngs Moduli (GPa) = 69.38331 69.38331 31.57364
#
# Poissons Ratio (x) = 0.29422 0.26230
# Poissons Ratio (y) = 0.29422 0.26230
# Poissons Ratio (z) = 0.57641 0.57641
#
# Static dielectric constant tensor:
#      x y z
#    x 1.491940 0.000000 0.000000 
#    y 0.000000 1.491940 0.000000 
#    z 0.000000 0.000000 1.567700 
# 
# From -- ./inp_files/1810.got.cif
#   From: 2010.05.17/outbox.cif.g08.bks.cpg/sg191_1_cif.got.tgz:1810.got - 2010.05.20 12:20:32.
