data_PCOD9587006
_publ_section_title
;
Structure prediction by ZEFSAII (Michael W. Deem and Ramdas Pophale) SiO2 
 PCOD9587006
Probable space group: P -6 2 C
;
_chemical_formula_sum "Si O2"
_cell_formula_units_Z 48
_cell_length_a 16.702453
_cell_length_b 16.702453
_cell_length_c 9.842839
_cell_angle_alpha 90.000000
_cell_angle_beta 90.000000
_cell_angle_gamma 120.000000
_cell_volume 2377.998245
_symmetry_space_group_name_H-M "P -6 2 C"
_symmetry_group_IT_number 190
_symmetry_cell_setting 'hexagonal'
loop_
_space_group_symop_operation_xyz
x,y,z
-x+y,-x,1/2-z
-y,x-y,z
x,y,1/2-z
-x+y,-x,z
-y,x-y,1/2-z
x-y,-y,-z
-x,-x+y,-z
y,x,-z
y,x,1/2+z
x-y,-y,1/2+z
-x,-x+y,1/2+z
loop_
_atom_site_type_symbol
_atom_site_label
_atom_site_fract_x
_atom_site_fract_y
_atom_site_fract_z
Si Si1 0.816430 0.270572 0.001951
Si Si2 0.836397 0.457107 0.093341
Si Si3 0.000000 0.644216 0.500000
Si Si4 0.182927 0.866286 0.750000
Si Si5 0.229209 0.262072 0.250000
Si Si6 0.767006 0.680808 0.750000
O O1 0.853500 0.375230 0.047868
O O2 0.705683 0.230868 0.995049
O O3 0.827289 0.210343 0.120248
O O4 0.872805 0.262367 0.876910
O O5 0.802342 0.440798 0.250000
O O6 0.930563 0.553028 0.080657
O O7 0.043678 0.722261 0.384827
O O8 0.071959 0.824932 0.750000
O O9 0.251945 0.976301 0.750000
O O10 0.128548 0.250646 0.250000
#
# Coordination Sequence:
#
# PCOD9587006 Si02
#       6
#    12  12   6   6   6   6
#     4  12  25  43  68 100 143 183 227 288 337 408
#     4  12  23  41  67  97 133 184 230 264 339 430
#     4  12  22  38  72  96 122 184 234 268 340 424
#     4  12  24  47  69  98 135 187 237 284 356 430
#     4  12  22  48  70  94 136 182 232 296 356 412
#     4  12  28  43  67 108 139 175 237 306 358 394
#
# _framework density 20.185044000000001
#
# number of rings (size 3 to 8) (size 9 to 14) (size 15 to 20)
#    0.000    0.000    8.750    1.250    3.500    2.000 
#    0.750    0.000    0.000    0.000    0.000    0.000 
#    0.000    0.000    0.000    0.000    0.000    0.000 
#
# Total GULP energy -268047.323351 kJ/mol
# GULP energy per Si atom -5584.319236 kJ/mol
# Density = 2.013910 g / cm^3
# Si number density = 20.185044 Si / 1000 Ang^3
#
#
#
# Elastic Constant Matrix: (Units=GPa)
#
#
# Indices 1 2 3 4 5 6 
#
# 1 112.7936 49.9566 25.2310 0.0000 0.0000 0.0000
# 2 49.9566 112.7936 25.2310 0.0000 0.0000 0.0000
# 3 25.2310 25.2310 100.2018 0.0000 0.0000 0.0000
# 4 0.0000 0.0000 0.0000 15.6518 0.0000 0.0000
# 5 0.0000 0.0000 0.0000 0.0000 15.6518 0.0000
# 6 0.0000 0.0000 0.0000 0.0000 0.0000 31.4185
#
#
#
# Elastic Compliance Matrix: (Units=1/GPa)
#
#
# Indices 1 2 3 4 5 6 
#
# 1 0.011289 -0.004625 -0.001678 0.000000 0.000000 0.000000
# 2 -0.004625 0.011289 -0.001678 0.000000 0.000000 0.000000
# 3 -0.001678 -0.001678 0.010825 0.000000 0.000000 0.000000
# 4 0.000000 0.000000 0.000000 0.063891 0.000000 0.000000
# 5 0.000000 0.000000 0.000000 0.000000 0.063891 0.000000
# 6 0.000000 0.000000 0.000000 0.000000 0.000000 0.031828
#
#
# Mechanical properties :
#
#
# Convention : Reuss Voigt Hill
#
# Bulk Modulus (GPa) = 57.33389 58.51402 57.92396
# Shear Modulus (GPa) = 23.27861 27.56910 25.42385
#
# Velocity S-wave (km/s) = 3.39965 3.69971 3.55285
# Velocity P-wave (km/s) = 6.62390 6.87766 6.75197
#
# Compressibility (1/GPa) = 0.01744169
#
# Stress axis : x y z
#
# Youngs Moduli (GPa) = 88.57820 88.57820 92.37873
#
# Poissons Ratio (x) = 0.40965 0.15503
# Poissons Ratio (y) = 0.40965 0.15503
# Poissons Ratio (z) = 0.14865 0.14865
#
# Static dielectric constant tensor:
#      x y z
#    x 1.734300 0.000000 0.000000 
#    y 0.000000 1.734300 0.000000 
#    z 0.000000 0.000000 1.713600 
# 
# From -- ./inp_files/726.got.cif
#   From: 2010.05.17/outbox.cif.g08.bks.cpg/sg190_1_cif.got.tgz:726.got - 2010.05.20 12:16:56.
