data_PCOD9587442
_publ_section_title
;
Structure prediction by ZEFSAII (Michael W. Deem and Ramdas Pophale) SiO2 
 PCOD9587442
Probable space group: P 6/M M M
;
_chemical_formula_sum "Si O2"
_cell_formula_units_Z 132
_cell_length_a 18.303876
_cell_length_b 18.303876
_cell_length_c 28.720264
_cell_angle_alpha 90.000000
_cell_angle_beta 90.000000
_cell_angle_gamma 120.000000
_cell_volume 8333.073057
_symmetry_space_group_name_H-M "P 6/M M M"
_symmetry_group_IT_number 191
_symmetry_cell_setting 'hexagonal'
loop_
_space_group_symop_operation_xyz
x,y,z
x-y,x,z
-y,x-y,z
-x,-y,z
-x+y,-x,z
y,-x+y,z
x-y,-y,-z
-x,-x+y,-z
y,x,-z
-y,-x,-z
-x+y,y,-z
x,x-y,-z
-x,-y,-z
-x+y,-x,-z
y,-x+y,-z
x,y,-z
x-y,x,-z
-y,x-y,-z
-x+y,y,z
x,x-y,z
-y,-x,z
y,x,z
x-y,-y,z
-x,-x+y,z
loop_
_atom_site_type_symbol
_atom_site_label
_atom_site_fract_x
_atom_site_fract_y
_atom_site_fract_z
Si Si1 0.634158 0.533219 0.268555
Si Si2 0.101635 0.467488 0.909424
Si Si3 0.905763 0.644139 0.553083
Si Si4 0.496752 0.332077 0.629263
Si Si5 0.101049 0.366703 0.820761
Si Si6 0.898160 0.268026 0.000000
O O1 0.564004 0.435997 0.257496
O O2 0.582079 0.582079 0.274501
O O3 0.675754 0.535573 0.317882
O O4 0.697813 0.579749 0.226580
O O5 0.135223 0.567612 0.910189
O O6 0.122709 0.432071 0.863379
O O7 0.000000 0.422855 0.909072
O O8 0.121326 0.429582 0.954942
O O9 0.896463 0.610799 0.500000
O O10 0.835017 0.670033 0.559491
O O11 0.888229 0.574089 0.591376
O O12 0.000000 0.719897 0.558024
O O13 0.523378 0.261689 0.621728
O O14 0.575156 0.424845 0.624147
O O15 0.165439 0.330878 0.823029
O O16 0.000000 0.299227 0.823060
O O17 0.832683 0.167318 0.000000
O O18 0.000000 0.301803 0.000000
#
# Coordination Sequence:
#
# PCOD9587442 Si02
#       6
#    24  24  24  24  24  12
#     4   9  17  29  46  67  89 115 149 189 231 274
#     4   9  17  30  49  70  90 115 148 186 229 277
#     4   9  18  32  49  68  89 114 145 182 224 268
#     4  10  19  30  44  64  92 124 156 188 222 260
#     4  10  19  31  48  69  93 122 157 194 230 271
#     4  10  19  31  49  72  97 127 164 202 237 275
#
# _framework density 15.840495000000001
#
# number of rings (size 3 to 8) (size 9 to 14) (size 15 to 20)
#    0.000    2.545    0.000    2.636    0.000    4.727 
#    0.000    0.909    0.000   11.364    0.000    1.273 
#    0.000    4.364    0.000    5.818    0.000    4.364 
#
# Total GULP energy -735142.020026 kJ/mol
# GULP energy per Si atom -5569.257727 kJ/mol
# Density = 1.580444 g / cm^3
# Si number density = 15.840495 Si / 1000 Ang^3
#
#
#
# Elastic Constant Matrix: (Units=GPa)
#
#
# Indices 1 2 3 4 5 6 
#
# 1 75.8404 48.7977 50.0489 0.0000 0.0000 0.0000
# 2 48.7977 75.8404 50.0489 0.0000 0.0000 0.0000
# 3 50.0489 50.0489 102.6981 0.0000 0.0000 0.0000
# 4 0.0000 0.0000 0.0000 15.7493 0.0000 0.0000
# 5 0.0000 0.0000 0.0000 0.0000 15.7493 0.0000
# 6 0.0000 0.0000 0.0000 0.0000 0.0000 13.5213
#
#
#
# Elastic Compliance Matrix: (Units=1/GPa)
#
#
# Indices 1 2 3 4 5 6 
#
# 1 0.025081 -0.011898 -0.006425 0.000000 0.000000 0.000000
# 2 -0.011898 0.025081 -0.006425 0.000000 0.000000 0.000000
# 3 -0.006425 -0.006425 0.015999 0.000000 0.000000 0.000000
# 4 0.000000 0.000000 0.000000 0.063495 0.000000 0.000000
# 5 0.000000 0.000000 0.000000 0.000000 0.063495 0.000000
# 6 0.000000 0.000000 0.000000 0.000000 0.000000 0.073957
#
#
# Mechanical properties :
#
#
# Convention : Reuss Voigt Hill
#
# Bulk Modulus (GPa) = 59.99991 61.35221 60.67606
# Shear Modulus (GPa) = 15.52037 16.03620 15.77828
#
# Velocity S-wave (km/s) = 3.13356 3.18520 3.15949
# Velocity P-wave (km/s) = 7.14507 7.23482 7.19009
#
# Compressibility (1/GPa) = 0.01666669
#
# Stress axis : x y z
#
# Youngs Moduli (GPa) = 39.87129 39.87129 62.50351
#
# Poissons Ratio (x) = 0.47438 0.40155
# Poissons Ratio (y) = 0.47438 0.40155
# Poissons Ratio (z) = 0.25615 0.25615
#
# Static dielectric constant tensor:
#      x y z
#    x 1.526150 0.000000 0.000000 
#    y 0.000000 1.526150 0.000000 
#    z 0.000000 0.000000 1.538800 
# 
# From -- ./inp_files/8696.got.cif
#   From: 2010.05.17/outbox.cif.g08.bks.cpg/sg191_5_cif.got.tgz:8696.got - 2010.05.20 12:20:32.
