data_PCOD9587492
_publ_section_title
;
Structure prediction by ZEFSAII (Michael W. Deem and Ramdas Pophale) SiO2 
 PCOD9587492
Probable space group: P 6/M M M
;
_chemical_formula_sum "Si O2"
_cell_formula_units_Z 120
_cell_length_a 18.159011
_cell_length_b 18.159011
_cell_length_c 26.320360
_cell_angle_alpha 90.000000
_cell_angle_beta 90.000000
_cell_angle_gamma 120.000000
_cell_volume 7516.347323
_symmetry_space_group_name_H-M "P 6/M M M"
_symmetry_group_IT_number 191
_symmetry_cell_setting 'hexagonal'
loop_
_space_group_symop_operation_xyz
x,y,z
x-y,x,z
-y,x-y,z
-x,-y,z
-x+y,-x,z
y,-x+y,z
x-y,-y,-z
-x,-x+y,-z
y,x,-z
-y,-x,-z
-x+y,y,-z
x,x-y,-z
-x,-y,-z
-x+y,-x,-z
y,-x+y,-z
x,y,-z
x-y,x,-z
-y,x-y,-z
-x+y,y,z
x,x-y,z
-y,-x,z
y,x,z
x-y,-y,z
-x,-x+y,z
loop_
_atom_site_type_symbol
_atom_site_label
_atom_site_fract_x
_atom_site_fract_y
_atom_site_fract_z
Si Si1 0.901192 0.270861 0.887438
Si Si2 0.095643 0.738761 0.000000
Si Si3 0.903177 0.362470 0.500000
Si Si4 0.903653 0.267747 0.700531
Si Si5 0.667058 0.506904 0.206013
Si Si6 0.835926 0.331201 0.389616
O O1 0.828883 0.171118 0.880779
O O2 0.878719 0.321427 0.846341
O O3 0.000000 0.297008 0.880825
O O4 0.892059 0.294597 0.945828
O O5 0.162181 0.837820 0.000000
O O6 0.000000 0.718981 0.000000
O O7 0.904969 0.452485 0.500000
O O8 0.858586 0.320197 0.447278
O O9 0.000000 0.384009 0.500000
O O10 0.831151 0.168850 0.701248
O O11 0.884793 0.311664 0.748198
O O12 0.888482 0.309249 0.650258
O O13 0.000000 0.288713 0.702625
O O14 0.740931 0.481862 0.207358
O O15 0.575213 0.424788 0.211110
O O16 0.852496 0.426248 0.383230
O O17 0.737203 0.262798 0.380379
#
# Coordination Sequence:
#
# PCOD9587492 Si02
#       6
#    24  12  12  24  24  24
#     4   9  17  29  46  67  90 118 151 188 229 272
#     4   8  14  26  43  62  85 113 147 185 226 272
#     4   9  17  28  42  60  84 119 163 205 237 266
#     4  10  21  35  51  71  94 121 151 186 228 272
#     4  10  20  33  49  69  94 123 154 187 223 263
#     4  10  19  30  45  66  94 127 161 195 231 272
#
# _framework density 15.965201
#
# number of rings (size 3 to 8) (size 9 to 14) (size 15 to 20)
#    0.000    2.500    0.000    2.500    0.000    3.600 
#    0.000    3.500    0.000    2.300    0.000    4.200 
#    0.000    4.800    0.000    0.200    0.000   21.600 
#
# Total GULP energy -668295.632967 kJ/mol
# GULP energy per Si atom -5569.130275 kJ/mol
# Density = 1.592886 g / cm^3
# Si number density = 15.965201 Si / 1000 Ang^3
#
#
#
# Elastic Constant Matrix: (Units=GPa)
#
#
# Indices 1 2 3 4 5 6 
#
# 1 75.5986 62.2358 38.9647 0.0000 0.0000 0.0000
# 2 62.2358 75.5986 38.9647 0.0000 0.0000 0.0000
# 3 38.9647 38.9647 112.4194 0.0000 0.0000 0.0000
# 4 0.0000 0.0000 0.0000 19.7205 0.0000 0.0000
# 5 0.0000 0.0000 0.0000 0.0000 19.7205 0.0000
# 6 0.0000 0.0000 0.0000 0.0000 0.0000 6.6814
#
#
#
# Elastic Compliance Matrix: (Units=1/GPa)
#
#
# Indices 1 2 3 4 5 6 
#
# 1 0.041929 -0.032906 -0.003127 0.000000 0.000000 0.000000
# 2 -0.032906 0.041929 -0.003127 0.000000 0.000000 0.000000
# 3 -0.003127 -0.003127 0.011063 0.000000 0.000000 0.000000
# 4 0.000000 0.000000 0.000000 0.050709 0.000000 0.000000
# 5 0.000000 0.000000 0.000000 0.000000 0.050709 0.000000
# 6 0.000000 0.000000 0.000000 0.000000 0.000000 0.149669
#
#
# Mechanical properties :
#
#
# Convention : Reuss Voigt Hill
#
# Bulk Modulus (GPa) = 60.24127 60.43854 60.33990
# Shear Modulus (GPa) = 11.63164 17.45459 14.54312
#
# Velocity S-wave (km/s) = 2.70212 3.31008 3.02143
# Velocity P-wave (km/s) = 6.89565 7.24896 7.07451
#
# Compressibility (1/GPa) = 0.01659992
#
# Stress axis : x y z
#
# Youngs Moduli (GPa) = 23.84986 23.84986 90.38938
#
# Poissons Ratio (x) = 0.78480 0.28269
# Poissons Ratio (y) = 0.78480 0.28269
# Poissons Ratio (z) = 0.07459 0.07459
#
# Static dielectric constant tensor:
#      x y z
#    x 1.520540 0.000000 0.000000 
#    y 0.000000 1.520540 0.000000 
#    z 0.000000 0.000000 1.569240 
# 
# From -- ./inp_files/8537.got.cif
#   From: 2010.05.17/outbox.cif.g08.bks.cpg/sg191_5_cif.got.tgz:8537.got - 2010.05.20 12:20:32.
