data_PCOD9587060
_publ_section_title
;
Structure prediction by ZEFSAII (Michael W. Deem and Ramdas Pophale) SiO2 
 PCOD9587060
Probable space group: P 6/M M M
;
_chemical_formula_sum "Si O2"
_cell_formula_units_Z 96
_cell_length_a 22.889737
_cell_length_b 22.889737
_cell_length_c 11.891356
_cell_angle_alpha 90.000000
_cell_angle_beta 90.000000
_cell_angle_gamma 120.000000
_cell_volume 5395.648108
_symmetry_space_group_name_H-M "P 6/M M M"
_symmetry_group_IT_number 191
_symmetry_cell_setting 'hexagonal'
loop_
_space_group_symop_operation_xyz
x,y,z
x-y,x,z
-y,x-y,z
-x,-y,z
-x+y,-x,z
y,-x+y,z
x-y,-y,-z
-x,-x+y,-z
y,x,-z
-y,-x,-z
-x+y,y,-z
x,x-y,-z
-x,-y,-z
-x+y,-x,-z
y,-x+y,-z
x,y,-z
x-y,x,-z
-y,x-y,-z
-x+y,y,z
x,x-y,z
-y,-x,z
y,x,z
x-y,-y,z
-x,-x+y,z
loop_
_atom_site_type_symbol
_atom_site_label
_atom_site_fract_x
_atom_site_fract_y
_atom_site_fract_z
Si Si1 0.362938 0.507287 0.000000
Si Si2 0.077724 0.670030 0.633738
Si Si3 0.666326 0.199142 0.751773
Si Si4 0.113909 0.750492 0.000000
Si Si5 0.923581 0.210918 0.236512
O O1 0.337959 0.525688 0.886199
O O2 0.325258 0.426228 0.000000
O O3 0.444405 0.555596 0.000000
O O4 0.086532 0.671839 0.500000
O O5 0.131096 0.655658 0.695132
O O6 0.088101 0.741036 0.678625
O O7 0.000000 0.615278 0.660533
O O8 0.606339 0.212677 0.718962
O O9 0.738721 0.261280 0.721256
O O10 0.085229 0.765809 0.888018
O O11 0.194671 0.805330 0.000000
O O12 0.866018 0.133983 0.251287
O O13 0.000000 0.227842 0.250178
#
# Coordination Sequence:
#
# PCOD9587060 Si02
#       5
#    12  24  24  12  24
#     4  10  20  33  54  82 111 144 180 219 268 321
#     4  10  22  39  58  79 104 139 182 228 278 323
#     4  11  22  37  57  81 110 144 181 222 268 323
#     4  10  17  31  55  80 105 137 178 223 266 308
#     4  10  20  34  56  83 111 141 176 220 268 321
#
# _framework density 17.792117000000001
#
# number of rings (size 3 to 8) (size 9 to 14) (size 15 to 20)
#    0.000    1.750    2.500    2.500    0.000    3.000 
#    0.000    3.125    0.000    5.750    0.000    0.000 
#    0.000    3.000    0.000    6.250    0.000    0.000 
#
# Total GULP energy -535902.546716 kJ/mol
# GULP energy per Si atom -5582.318195 kJ/mol
# Density = 1.775162 g / cm^3
# Si number density = 17.792117 Si / 1000 Ang^3
#
#
#
# Elastic Constant Matrix: (Units=GPa)
#
#
# Indices 1 2 3 4 5 6 
#
# 1 86.2375 56.2245 37.5866 0.0000 0.0000 0.0000
# 2 56.2245 86.2375 37.5866 0.0000 0.0000 0.0000
# 3 37.5866 37.5866 67.0580 0.0000 0.0000 0.0000
# 4 0.0000 0.0000 0.0000 -7.7091 0.0000 0.0000
# 5 0.0000 0.0000 0.0000 0.0000 -7.7091 0.0000
# 6 0.0000 0.0000 0.0000 0.0000 0.0000 15.0065
#
#
#
# Elastic Compliance Matrix: (Units=1/GPa)
#
#
# Indices 1 2 3 4 5 6 
#
# 1 0.021643 -0.011676 -0.005587 0.000000 0.000000 0.000000
# 2 -0.011676 0.021643 -0.005587 0.000000 0.000000 0.000000
# 3 -0.005587 -0.005587 0.021175 0.000000 0.000000 0.000000
# 4 0.000000 0.000000 0.000000 -0.129718 0.000000 0.000000
# 5 0.000000 0.000000 0.000000 0.000000 -0.129718 0.000000
# 6 0.000000 0.000000 0.000000 0.000000 0.000000 0.066638
#
#
# Mechanical properties :
#
#
# Convention : Reuss Voigt Hill
#
# Bulk Modulus (GPa) = 53.29657 55.81425 54.55541
# Shear Modulus (GPa) = -65.45993 7.12670 -29.16661
#
# Velocity S-wave (km/s) = -6.07218 2.00356 -4.05322
# Velocity P-wave (km/s) = 4.37512 6.06553 2.97060
#
# Compressibility (1/GPa) = 0.01876294
#
# Stress axis : x y z
#
# Youngs Moduli (GPa) = 46.20397 46.20397 47.22465
#
# Poissons Ratio (x) = 0.53947 0.26384
# Poissons Ratio (y) = 0.53947 0.26384
# Poissons Ratio (z) = 0.25813 0.25813
#
# Static dielectric constant tensor:
#      x y z
#    x 1.601350 0.000000 0.000000 
#    y 0.000000 1.601350 0.000000 
#    z 0.000000 0.000000 1.603270 
# 
# From -- ./inp_files/2839.got.cif
#   From: 2010.05.17/outbox.cif.g08.bks.cpg/sg191_2_cif.got.tgz:2839.got - 2010.05.20 12:20:32.
