data_PCOD9587321
_publ_section_title
;
Structure prediction by ZEFSAII (Michael W. Deem and Ramdas Pophale) SiO2 
 PCOD9587321
Probable space group: P 6/M M M
;
_chemical_formula_sum "Si O2"
_cell_formula_units_Z 84
_cell_length_a 18.028867
_cell_length_b 18.028867
_cell_length_c 20.804786
_cell_angle_alpha 90.000000
_cell_angle_beta 90.000000
_cell_angle_gamma 120.000000
_cell_volume 5856.400304
_symmetry_space_group_name_H-M "P 6/M M M"
_symmetry_group_IT_number 191
_symmetry_cell_setting 'hexagonal'
loop_
_space_group_symop_operation_xyz
x,y,z
x-y,x,z
-y,x-y,z
-x,-y,z
-x+y,-x,z
y,-x+y,z
x-y,-y,-z
-x,-x+y,-z
y,x,-z
-y,-x,-z
-x+y,y,-z
x,x-y,-z
-x,-y,-z
-x+y,-x,-z
y,-x+y,-z
x,y,-z
x-y,x,-z
-y,x-y,-z
-x+y,y,z
x,x-y,z
-y,-x,z
y,x,z
x-y,-y,z
-x,-x+y,z
loop_
_atom_site_type_symbol
_atom_site_label
_atom_site_fract_x
_atom_site_fract_y
_atom_site_fract_z
Si Si1 0.631979 0.532584 0.357178
Si Si2 0.898326 0.796652 0.423363
Si Si3 0.334581 0.839464 0.500000
Si Si4 0.795701 0.897851 0.068865
Si Si5 0.207068 0.103534 0.787773
Si Si6 0.823784 0.647567 0.320500
O O1 0.568481 0.431520 0.343368
O O2 0.579867 0.579867 0.341479
O O3 0.649174 0.539904 0.434015
O O4 0.722298 0.583972 0.322524
O O5 0.851610 0.851610 0.408195
O O6 0.890175 0.780350 0.500000
O O7 0.854479 0.708958 0.383512
O O8 0.239917 0.760084 0.500000
O O9 0.403860 0.807720 0.500000
O O10 0.855037 0.855037 0.068417
O O11 0.754599 0.877300 0.139503
O O12 0.746966 0.873483 0.000000
O O13 0.148613 0.148613 0.779925
O O14 0.284325 0.142163 0.737227
#
# Coordination Sequence:
#
# PCOD9587321 Si02
#       6
#    24  12  12  12  12  12
#     4  10  21  35  48  62  82 107 138 179 231 283
#     4  10  21  34  48  64  88 122 158 191 219 255
#     4  10  18  31  47  66  79  99 130 177 230 279
#     4   8  13  22  38  62  94 132 168 194 215 242
#     4  10  19  30  46  70 102 136 166 193 217 249
#     4  12  22  34  47  68  86 114 149 191 233 277
#
# _framework density 14.343282
#
# number of rings (size 3 to 8) (size 9 to 14) (size 15 to 20)
#    0.000    2.000    1.429    3.571    2.000    4.000 
#    0.857    1.429    0.000    0.000    0.000    0.000 
#    0.000    1.143    0.000   10.571    0.000    0.000 
#
# Total GULP energy -467875.857324 kJ/mol
# GULP energy per Si atom -5569.950682 kJ/mol
# Density = 1.431064 g / cm^3
# Si number density = 14.343282 Si / 1000 Ang^3
#
#
#
# Elastic Constant Matrix: (Units=GPa)
#
#
# Indices 1 2 3 4 5 6 
#
# 1 87.7494 40.4145 37.5122 0.0000 0.0000 0.0000
# 2 40.4145 87.7494 37.5122 0.0000 0.0000 0.0000
# 3 37.5122 37.5122 73.3106 0.0000 0.0000 0.0000
# 4 0.0000 0.0000 0.0000 -65.1190 0.0000 0.0000
# 5 0.0000 0.0000 0.0000 0.0000 -65.1190 0.0000
# 6 0.0000 0.0000 0.0000 0.0000 0.0000 23.6674
#
#
#
# Elastic Compliance Matrix: (Units=1/GPa)
#
#
# Indices 1 2 3 4 5 6 
#
# 1 0.016133 -0.004994 -0.005700 0.000000 0.000000 0.000000
# 2 -0.004994 0.016133 -0.005700 0.000000 0.000000 0.000000
# 3 -0.005700 -0.005700 0.019474 0.000000 0.000000 0.000000
# 4 0.000000 0.000000 0.000000 -0.015356 0.000000 0.000000
# 5 0.000000 0.000000 0.000000 0.000000 -0.015356 0.000000
# 6 0.000000 0.000000 0.000000 0.000000 0.000000 0.042252
#
#
# Mechanical properties :
#
#
# Convention : Reuss Voigt Hill
#
# Bulk Modulus (GPa) = 52.76284 53.29858 53.03071
# Shear Modulus (GPa) = 48.83709 -12.42277 18.20716
#
# Velocity S-wave (km/s) = 5.84146 -2.94616 3.56671
# Velocity P-wave (km/s) = 9.07538 5.06624 7.34947
#
# Compressibility (1/GPa) = 0.01895273
#
# Stress axis : x y z
#
# Youngs Moduli (GPa) = 61.98656 61.98656 51.35173
#
# Poissons Ratio (x) = 0.30953 0.29269
# Poissons Ratio (y) = 0.30953 0.29269
# Poissons Ratio (z) = 0.35330 0.35330
#
# Static dielectric constant tensor:
#      x y z
#    x 1.474670 0.000000 0.000000 
#    y 0.000000 1.474670 0.000000 
#    z 0.000000 0.000000 1.497850 
# 
# From -- ./inp_files/7079.got.cif
#   From: 2010.05.17/outbox.cif.g08.bks.cpg/sg191_4_cif.got.tgz:7079.got - 2010.05.20 12:20:32.
