data_PCOD9587449
_publ_section_title
;
Structure prediction by ZEFSAII (Michael W. Deem and Ramdas Pophale) SiO2 
 PCOD9587449
Probable space group: P 6/M M M
;
_chemical_formula_sum "Si O2"
_cell_formula_units_Z 132
_cell_length_a 18.160781
_cell_length_b 18.160781
_cell_length_c 28.764560
_cell_angle_alpha 90.000000
_cell_angle_beta 90.000000
_cell_angle_gamma 120.000000
_cell_volume 8215.942847
_symmetry_space_group_name_H-M "P 6/M M M"
_symmetry_group_IT_number 191
_symmetry_cell_setting 'hexagonal'
loop_
_space_group_symop_operation_xyz
x,y,z
x-y,x,z
-y,x-y,z
-x,-y,z
-x+y,-x,z
y,-x+y,z
x-y,-y,-z
-x,-x+y,-z
y,x,-z
-y,-x,-z
-x+y,y,-z
x,x-y,-z
-x,-y,-z
-x+y,-x,-z
y,-x+y,-z
x,y,-z
x-y,x,-z
-y,x-y,-z
-x+y,y,z
x,x-y,z
-y,-x,z
y,x,z
x-y,-y,z
-x,-x+y,z
loop_
_atom_site_type_symbol
_atom_site_label
_atom_site_fract_x
_atom_site_fract_y
_atom_site_fract_z
Si Si1 0.495484 0.163549 0.868778
Si Si2 0.635135 0.533272 0.233214
Si Si3 0.840663 0.508239 0.589247
Si Si4 0.641725 0.905240 0.947389
Si Si5 0.098786 0.370704 0.500000
Si Si6 0.268360 0.900070 0.323372
O O1 0.574285 0.148569 0.872653
O O2 0.523194 0.261597 0.876087
O O3 0.460821 0.138449 0.816382
O O4 0.426520 0.111420 0.907897
O O5 0.565756 0.434245 0.242773
O O6 0.581687 0.581687 0.228648
O O7 0.698523 0.578234 0.275639
O O8 0.741286 0.482572 0.589195
O O9 0.850317 0.425159 0.588025
O O10 0.882714 0.569245 0.544902
O O11 0.882429 0.565600 0.634835
O O12 0.667767 0.833884 0.941667
O O13 0.718599 0.000000 0.943232
O O14 0.606132 0.895496 0.000000
O O15 0.171449 0.342898 0.500000
O O16 0.000000 0.296967 0.500000
O O17 0.168302 0.831699 0.328772
O O18 0.297326 0.000000 0.323478
#
# Coordination Sequence:
#
# PCOD9587449 Si02
#       6
#    24  24  24  24  12  24
#     4  10  19  30  44  64  92 125 159 192 224 258
#     4   9  17  29  46  68  92 118 150 188 228 271
#     4  10  20  33  50  73 101 131 160 190 226 271
#     4   9  18  32  49  68  89 114 145 182 225 272
#     4  10  21  35  51  72  97 127 162 200 241 281
#     4  10  20  33  49  69  93 122 156 194 235 277
#
# _framework density 16.066324000000002
#
# number of rings (size 3 to 8) (size 9 to 14) (size 15 to 20)
#    0.000    2.364    0.000    2.818    0.000    4.000 
#    0.000    1.818    0.000    7.364    0.000    1.273 
#    0.000    4.364    0.000    5.818    0.000    4.364 
#
# Total GULP energy -735776.345874 kJ/mol
# GULP energy per Si atom -5574.063226 kJ/mol
# Density = 1.602976 g / cm^3
# Si number density = 16.066324 Si / 1000 Ang^3
#
#
#
# Elastic Constant Matrix: (Units=GPa)
#
#
# Indices 1 2 3 4 5 6 
#
# 1 83.4186 63.5089 51.6875 0.0000 0.0000 0.0000
# 2 63.5089 83.4186 51.6875 0.0000 0.0000 0.0000
# 3 51.6875 51.6875 112.8504 0.0000 0.0000 0.0000
# 4 0.0000 0.0000 0.0000 20.1122 0.0000 0.0000
# 5 0.0000 0.0000 0.0000 0.0000 20.1122 0.0000
# 6 0.0000 0.0000 0.0000 0.0000 0.0000 9.9549
#
#
#
# Elastic Compliance Matrix: (Units=1/GPa)
#
#
# Indices 1 2 3 4 5 6 
#
# 1 0.030134 -0.020092 -0.004599 0.000000 0.000000 0.000000
# 2 -0.020092 0.030134 -0.004599 0.000000 0.000000 0.000000
# 3 -0.004599 -0.004599 0.013075 0.000000 0.000000 0.000000
# 4 0.000000 0.000000 0.000000 0.049721 0.000000 0.000000
# 5 0.000000 0.000000 0.000000 0.000000 0.049721 0.000000
# 6 0.000000 0.000000 0.000000 0.000000 0.000000 0.100453
#
#
# Mechanical properties :
#
#
# Convention : Reuss Voigt Hill
#
# Bulk Modulus (GPa) = 67.74624 68.16170 67.95397
# Shear Modulus (GPa) = 14.84816 17.55610 16.20213
#
# Velocity S-wave (km/s) = 3.04333 3.30923 3.17906
# Velocity P-wave (km/s) = 7.38967 7.55769 7.47415
#
# Compressibility (1/GPa) = 0.01476097
#
# Stress axis : x y z
#
# Youngs Moduli (GPa) = 33.18461 33.18461 76.48422
#
# Poissons Ratio (x) = 0.66675 0.35179
# Poissons Ratio (y) = 0.66675 0.35179
# Poissons Ratio (z) = 0.15263 0.15263
#
# Static dielectric constant tensor:
#      x y z
#    x 1.525700 0.000000 0.000000 
#    y 0.000000 1.525700 0.000000 
#    z 0.000000 0.000000 1.549880 
# 
# From -- ./inp_files/8698.got.cif
#   From: 2010.05.17/outbox.cif.g08.bks.cpg/sg191_5_cif.got.tgz:8698.got - 2010.05.20 12:20:32.
