data_PCOD9587026
_publ_section_title
;
Structure prediction by ZEFSAII (Michael W. Deem and Ramdas Pophale) SiO2 
 PCOD9587026
Probable space group: P 6/M M M
;
_chemical_formula_sum "Si O2"
_cell_formula_units_Z 144
_cell_length_a 25.264013
_cell_length_b 25.264013
_cell_length_c 17.303371
_cell_angle_alpha 90.000000
_cell_angle_beta 90.000000
_cell_angle_gamma 120.000000
_cell_volume 9564.582631
_symmetry_space_group_name_H-M "P 6/M M M"
_symmetry_group_IT_number 191
_symmetry_cell_setting 'hexagonal'
loop_
_space_group_symop_operation_xyz
x,y,z
x-y,x,z
-y,x-y,z
-x,-y,z
-x+y,-x,z
y,-x+y,z
x-y,-y,-z
-x,-x+y,-z
y,x,-z
-y,-x,-z
-x+y,y,-z
x,x-y,-z
-x,-y,-z
-x+y,-x,-z
y,-x+y,-z
x,y,-z
x-y,x,-z
-y,x-y,-z
-x+y,y,z
x,x-y,z
-y,-x,z
y,x,z
x-y,-y,z
-x,-x+y,z
loop_
_atom_site_type_symbol
_atom_site_label
_atom_site_fract_x
_atom_site_fract_y
_atom_site_fract_z
Si Si1 0.525003 0.925948 0.000000
Si Si2 0.925783 0.297144 0.588678
Si Si3 0.070351 0.261730 0.679119
Si Si4 0.433039 0.359433 0.835954
Si Si5 0.074507 0.478581 0.674474
Si Si6 0.673958 0.776124 0.161105
Si Si7 0.741018 0.932472 0.000000
O O1 0.538616 0.903036 0.920222
O O2 0.456449 0.912897 0.000000
O O3 0.567974 0.000000 0.000000
O O4 0.905519 0.282861 0.500000
O O5 0.910496 0.236508 0.636318
O O6 0.905024 0.342222 0.626571
O O7 0.000000 0.336066 0.589260
O O8 0.121498 0.242996 0.662307
O O9 0.073344 0.276657 0.770460
O O10 0.000000 0.213822 0.658042
O O11 0.399934 0.399934 0.838262
O O12 0.478437 0.385372 0.763644
O O13 0.380793 0.290600 0.820631
O O14 0.093867 0.546934 0.647854
O O15 0.000000 0.440923 0.672053
O O16 0.652885 0.826443 0.159460
O O17 0.702092 0.777716 0.077259
O O18 0.756604 0.878302 0.000000
O O19 0.798348 0.000000 0.000000
#
# Coordination Sequence:
#
# PCOD9587026 Si02
#       7
#    12  24  24  24  24  24  12
#     4   9  17  25  35  56  82 112 148 176 199 237
#     4   9  17  29  44  62  86 115 147 183 221 267
#     4  10  19  32  49  68  91 120 157 198 243 296
#     4  10  16  25  40  56  82 116 147 179 215 256
#     4   9  16  25  39  59  84 116 149 177 205 243
#     4  10  19  29  43  63  86 115 151 189 230 278
#     4  10  19  29  42  61  83 107 141 185 233 284
#
# _framework density 15.055543999999999
#
# number of rings (size 3 to 8) (size 9 to 14) (size 15 to 20)
#    0.000    2.417    1.667    2.500    0.000    3.333 
#    0.000    1.667    0.000    0.250    0.000    0.000 
#    0.000    4.000    0.000   16.167    0.000    5.833 
#
# Total GULP energy -801856.069098 kJ/mol
# GULP energy per Si atom -5568.444924 kJ/mol
# Density = 1.502128 g / cm^3
# Si number density = 15.055544 Si / 1000 Ang^3
#
#
#
# Elastic Constant Matrix: (Units=GPa)
#
#
# Indices 1 2 3 4 5 6 
#
# 1 46.3812 27.0026 20.2688 0.0000 0.0000 0.0000
# 2 27.0026 46.3812 20.2688 0.0000 0.0000 0.0000
# 3 20.2688 20.2688 78.1320 0.0000 0.0000 0.0000
# 4 0.0000 0.0000 0.0000 7.9538 0.0000 0.0000
# 5 0.0000 0.0000 0.0000 0.0000 7.9538 0.0000
# 6 0.0000 0.0000 0.0000 0.0000 0.0000 9.6893
#
#
#
# Elastic Compliance Matrix: (Units=1/GPa)
#
#
# Indices 1 2 3 4 5 6 
#
# 1 0.033755 -0.017848 -0.004126 0.000000 0.000000 0.000000
# 2 -0.017848 0.033755 -0.004126 0.000000 0.000000 0.000000
# 3 -0.004126 -0.004126 0.014940 0.000000 0.000000 0.000000
# 4 0.000000 0.000000 0.000000 0.125726 0.000000 0.000000
# 5 0.000000 0.000000 0.000000 0.000000 0.125726 0.000000
# 6 0.000000 0.000000 0.000000 0.000000 0.000000 0.103207
#
#
# Mechanical properties :
#
#
# Convention : Reuss Voigt Hill
#
# Bulk Modulus (GPa) = 33.06110 33.99719 33.52915
# Shear Modulus (GPa) = 10.01216 12.00966 11.01091
#
# Velocity S-wave (km/s) = 2.58159 2.82740 2.70729
# Velocity P-wave (km/s) = 5.55817 5.76968 5.66491
#
# Compressibility (1/GPa) = 0.03024703
#
# Stress axis : x y z
#
# Youngs Moduli (GPa) = 29.62531 29.62531 66.93534
#
# Poissons Ratio (x) = 0.52877 0.27620
# Poissons Ratio (y) = 0.52877 0.27620
# Poissons Ratio (z) = 0.12225 0.12225
#
# Static dielectric constant tensor:
#      x y z
#    x 1.485360 0.000000 0.000000 
#    y 0.000000 1.485360 0.000000 
#    z 0.000000 0.000000 1.541440 
# 
# From -- ./inp_files/6661.got.cif
#   From: 2010.05.17/outbox.cif.g08.bks.cpg/sg191_4_cif.got.tgz:6661.got - 2010.05.20 12:20:32.
