data_PCOD9587150
_publ_section_title
;
Structure prediction by ZEFSAII (Michael W. Deem and Ramdas Pophale) SiO2 
 PCOD9587150
Probable space group: P 6/M M M
;
_chemical_formula_sum "Si O2"
_cell_formula_units_Z 168
_cell_length_a 21.617755
_cell_length_b 21.617755
_cell_length_c 29.062563
_cell_angle_alpha 90.000000
_cell_angle_beta 90.000000
_cell_angle_gamma 120.000000
_cell_volume 11762.123212
_symmetry_space_group_name_H-M "P 6/M M M"
_symmetry_group_IT_number 191
_symmetry_cell_setting 'hexagonal'
loop_
_space_group_symop_operation_xyz
x,y,z
x-y,x,z
-y,x-y,z
-x,-y,z
-x+y,-x,z
y,-x+y,z
x-y,-y,-z
-x,-x+y,-z
y,x,-z
-y,-x,-z
-x+y,y,-z
x,x-y,-z
-x,-y,-z
-x+y,-x,-z
y,-x+y,-z
x,y,-z
x-y,x,-z
-y,x-y,-z
-x+y,y,z
x,x-y,z
-y,-x,z
y,x,z
x-y,-y,z
-x,-x+y,z
loop_
_atom_site_type_symbol
_atom_site_label
_atom_site_fract_x
_atom_site_fract_y
_atom_site_fract_z
Si Si1 0.519254 0.185185 0.782213
Si Si2 0.369363 0.082213 0.449083
Si Si3 0.812186 0.335377 0.586998
Si Si4 0.697268 0.778085 0.352922
Si Si5 0.534269 0.918510 0.134371
Si Si6 0.667107 0.479982 0.053800
Si Si7 0.302690 0.846773 0.316109
O O1 0.599836 0.199671 0.786591
O O2 0.518701 0.259351 0.785638
O O3 0.472470 0.130397 0.822220
O O4 0.488435 0.150207 0.732427
O O5 0.347093 0.092189 0.500000
O O6 0.452590 0.137306 0.441943
O O7 0.327596 0.091473 0.406450
O O8 0.350649 0.000000 0.446027
O O9 0.813593 0.406797 0.571980
O O10 0.732202 0.267799 0.585945
O O11 0.841239 0.343779 0.639483
O O12 0.714661 0.857331 0.340457
O O13 0.759180 0.759180 0.346287
O O14 0.626228 0.720862 0.325450
O O15 0.460894 0.921788 0.134942
O O16 0.530355 0.876353 0.087926
O O17 0.597864 0.000000 0.136364
O O18 0.740581 0.481162 0.064161
O O19 0.600382 0.399619 0.060253
O O20 0.667400 0.498108 0.000000
O O21 0.227907 0.772094 0.316314
#
# Coordination Sequence:
#
# PCOD9587150 Si02
#       7
#    24  24  24  24  24  24  24
#     4  10  18  28  43  62  84 108 137 175 217 257
#     4   9  18  32  48  63  79 102 133 170 206 236
#     4  10  19  30  43  59  81 107 134 164 201 248
#     4   9  17  30  48  68  88 109 135 165 197 236
#     4   9  18  29  38  52  76 106 137 165 198 245
#     4   9  16  26  41  59  77  97 125 165 211 254
#     4   8  16  29  43  60  80 104 134 166 199 235
#
# _framework density 14.283136000000001
#
# number of rings (size 3 to 8) (size 9 to 14) (size 15 to 20)
#    0.000    2.857    0.000    2.571    0.000    3.143 
#    0.000    5.000    0.000    3.571    0.000    0.000 
#    0.000    0.000    0.000    3.571    0.000    0.000 
#
# Total GULP energy -935648.381860 kJ/mol
# GULP energy per Si atom -5569.335606 kJ/mol
# Density = 1.425063 g / cm^3
# Si number density = 14.283136 Si / 1000 Ang^3
#
#
#
# Elastic Constant Matrix: (Units=GPa)
#
#
# Indices 1 2 3 4 5 6 
#
# 1 55.8385 32.0643 17.0235 0.0000 0.0000 0.0000
# 2 32.0643 55.8385 17.0235 0.0000 0.0000 0.0000
# 3 17.0235 17.0235 64.5238 0.0000 0.0000 0.0000
# 4 0.0000 0.0000 0.0000 14.4400 0.0000 0.0000
# 5 0.0000 0.0000 0.0000 0.0000 14.4400 0.0000
# 6 0.0000 0.0000 0.0000 0.0000 0.0000 11.8871
#
#
#
# Elastic Compliance Matrix: (Units=1/GPa)
#
#
# Indices 1 2 3 4 5 6 
#
# 1 0.027367 -0.014696 -0.003343 0.000000 0.000000 0.000000
# 2 -0.014696 0.027367 -0.003343 0.000000 0.000000 0.000000
# 3 -0.003343 -0.003343 0.017262 0.000000 0.000000 0.000000
# 4 0.000000 0.000000 0.000000 0.069252 0.000000 0.000000
# 5 0.000000 0.000000 0.000000 0.000000 0.069252 0.000000
# 6 0.000000 0.000000 0.000000 0.000000 0.000000 0.084125
#
#
# Mechanical properties :
#
#
# Convention : Reuss Voigt Hill
#
# Bulk Modulus (GPa) = 34.20898 34.26928 34.23913
# Shear Modulus (GPa) = 14.40375 15.49272 14.94823
#
# Velocity S-wave (km/s) = 3.17905 3.29703 3.23858
# Velocity P-wave (km/s) = 6.12190 6.20796 6.16508
#
# Compressibility (1/GPa) = 0.02923209
#
# Stress axis : x y z
#
# Youngs Moduli (GPa) = 36.54074 36.54074 57.93013
#
# Poissons Ratio (x) = 0.53699 0.19366
# Poissons Ratio (y) = 0.53699 0.19366
# Poissons Ratio (z) = 0.12216 0.12216
#
# Static dielectric constant tensor:
#      x y z
#    x 1.461060 0.000000 0.000000 
#    y 0.000000 1.461060 0.000000 
#    z 0.000000 0.000000 1.492990 
# 
# From -- ./inp_files/10029.got.cif
#   From: 2010.05.17/outbox.cif.g08.bks.cpg/sg191_6_cif.got.tgz:10029.got - 2010.05.20 12:20:32.
