data_PCOD9587873
_publ_section_title
;
Structure prediction by ZEFSAII (Michael W. Deem and Ramdas Pophale) SiO2 
 PCOD9587873
Probable space group: P 6/M M M
;
_chemical_formula_sum "Si O2"
_cell_formula_units_Z 120
_cell_length_a 27.715023
_cell_length_b 27.715023
_cell_length_c 11.952752
_cell_angle_alpha 90.000000
_cell_angle_beta 90.000000
_cell_angle_gamma 120.000000
_cell_volume 7951.133165
_symmetry_space_group_name_H-M "P 6/M M M"
_symmetry_group_IT_number 191
_symmetry_cell_setting 'hexagonal'
loop_
_space_group_symop_operation_xyz
x,y,z
x-y,x,z
-y,x-y,z
-x,-y,z
-x+y,-x,z
y,-x+y,z
x-y,-y,-z
-x,-x+y,-z
y,x,-z
-y,-x,-z
-x+y,y,-z
x,x-y,-z
-x,-y,-z
-x+y,-x,-z
y,-x+y,-z
x,y,-z
x-y,x,-z
-y,x-y,-z
-x+y,y,z
x,x-y,z
-y,-x,z
y,x,z
x-y,-y,z
-x,-x+y,z
loop_
_atom_site_type_symbol
_atom_site_label
_atom_site_fract_x
_atom_site_fract_y
_atom_site_fract_z
Si Si1 0.667553 0.522464 0.314064
Si Si2 0.062449 0.588722 0.500000
Si Si3 0.361062 0.238522 0.628922
Si Si4 0.554597 0.220658 0.866184
Si Si5 0.555848 0.331026 0.500000
Si Si6 0.937392 0.173210 0.363677
O O1 0.620441 0.525226 0.387873
O O2 0.716915 0.585791 0.303692
O O3 0.654650 0.489574 0.198310
O O4 0.682589 0.484772 0.394490
O O5 0.060476 0.530238 0.500000
O O6 0.000000 0.577540 0.500000
O O7 0.368254 0.259261 0.500000
O O8 0.362336 0.181168 0.626104
O O9 0.298827 0.220034 0.668403
O O10 0.616581 0.233161 0.836030
O O11 0.547593 0.273797 0.837223
O O12 0.548636 0.213606 0.000000
O O13 0.604761 0.395240 0.500000
O O14 0.580843 0.290422 0.500000
O O15 0.936297 0.172458 0.500000
O O16 0.887433 0.112568 0.327278
O O17 0.000000 0.191816 0.328084
#
# Coordination Sequence:
#
# PCOD9587873 Si02
#       6
#    24  12  24  24  12  24
#     4  11  19  30  46  63  84 114 146 183 226 278
#     4  10  21  34  46  63  86 109 136 176 228 283
#     4   9  15  24  37  57  82 107 136 174 219 264
#     4  10  20  33  49  68  91 120 155 194 234 279
#     4  11  20  28  40  60  87 116 144 179 228 284
#     4   8  14  23  36  55  81 112 143 174 209 252
#
# _framework density 15.092188
#
# number of rings (size 3 to 8) (size 9 to 14) (size 15 to 20)
#    0.000    2.300    2.000    5.700    0.000    1.600 
#    0.000    2.000    0.000    0.800    0.000    4.200 
#    0.000    0.000    0.000    0.000    0.000    0.200 
#
# Total GULP energy -668102.295357 kJ/mol
# GULP energy per Si atom -5567.519128 kJ/mol
# Density = 1.505784 g / cm^3
# Si number density = 15.092188 Si / 1000 Ang^3
#
#
#
# Elastic Constant Matrix: (Units=GPa)
#
#
# Indices 1 2 3 4 5 6 
#
# 1 85.4022 47.2431 20.6446 0.0000 0.0000 0.0000
# 2 47.2431 85.4022 20.6446 0.0000 0.0000 0.0000
# 3 20.6446 20.6446 31.6012 0.0000 0.0000 0.0000
# 4 0.0000 0.0000 0.0000 10.7376 0.0000 0.0000
# 5 0.0000 0.0000 0.0000 0.0000 10.7376 0.0000
# 6 0.0000 0.0000 0.0000 0.0000 0.0000 19.0796
#
#
#
# Elastic Compliance Matrix: (Units=1/GPa)
#
#
# Indices 1 2 3 4 5 6 
#
# 1 0.017835 -0.008371 -0.006182 0.000000 0.000000 0.000000
# 2 -0.008371 0.017835 -0.006182 0.000000 0.000000 0.000000
# 3 -0.006182 -0.006182 0.039722 0.000000 0.000000 0.000000
# 4 0.000000 0.000000 0.000000 0.093130 0.000000 0.000000
# 5 0.000000 0.000000 0.000000 0.000000 0.093130 0.000000
# 6 0.000000 0.000000 0.000000 0.000000 0.000000 0.052412
#
#
# Mechanical properties :
#
#
# Convention : Reuss Voigt Hill
#
# Bulk Modulus (GPa) = 29.48152 42.16337 35.82244
# Shear Modulus (GPa) = 13.62984 15.70252 14.66618
#
# Velocity S-wave (km/s) = 3.00843 3.22908 3.12071
# Velocity P-wave (km/s) = 5.62532 6.47306 6.06402
#
# Compressibility (1/GPa) = 0.03391955
#
# Stress axis : x y z
#
# Youngs Moduli (GPa) = 56.07055 56.07055 25.17500
#
# Poissons Ratio (x) = 0.46939 0.15564
# Poissons Ratio (y) = 0.46939 0.15564
# Poissons Ratio (z) = 0.34664 0.34664
#
# Static dielectric constant tensor:
#      x y z
#    x 1.517790 0.000000 0.000000 
#    y 0.000000 1.517790 0.000000 
#    z 0.000000 0.000000 1.497840 
# 
# From -- ./inp_files/3260.got.cif
#   From: 2010.05.17/outbox.cif.g08.bks.cpg/sg191_2_cif.got.tgz:3260.got - 2010.05.20 12:20:32.
