data_PCOD9587590
_publ_section_title
;
Structure prediction by ZEFSAII (Michael W. Deem and Ramdas Pophale) SiO2 
 PCOD9587590
Probable space group: P 6/M M M
;
_chemical_formula_sum "Si O2"
_cell_formula_units_Z 168
_cell_length_a 22.549073
_cell_length_b 22.549073
_cell_length_c 25.758952
_cell_angle_alpha 90.000000
_cell_angle_beta 90.000000
_cell_angle_gamma 120.000000
_cell_volume 11342.693758
_symmetry_space_group_name_H-M "P 6/M M M"
_symmetry_group_IT_number 191
_symmetry_cell_setting 'hexagonal'
loop_
_space_group_symop_operation_xyz
x,y,z
x-y,x,z
-y,x-y,z
-x,-y,z
-x+y,-x,z
y,-x+y,z
x-y,-y,-z
-x,-x+y,-z
y,x,-z
-y,-x,-z
-x+y,y,-z
x,x-y,-z
-x,-y,-z
-x+y,-x,-z
y,-x+y,-z
x,y,-z
x-y,x,-z
-y,x-y,-z
-x+y,y,z
x,x-y,z
-y,-x,z
y,x,z
x-y,-y,z
-x,-x+y,z
loop_
_atom_site_type_symbol
_atom_site_label
_atom_site_fract_x
_atom_site_fract_y
_atom_site_fract_z
Si Si1 0.469973 0.390069 0.332604
Si Si2 0.917542 0.574328 0.556018
Si Si3 0.080665 0.611141 0.854126
Si Si4 0.284506 0.077389 0.286453
Si Si5 0.212788 0.921660 0.589820
Si Si6 0.566027 0.851950 0.241536
Si Si7 0.194866 0.667114 0.061462
O O1 0.539278 0.460723 0.323855
O O2 0.408246 0.408246 0.326463
O O3 0.468461 0.364758 0.391277
O O4 0.464039 0.334475 0.291699
O O5 0.890580 0.540428 0.500000
O O6 0.904746 0.637946 0.563177
O O7 0.000000 0.608236 0.554801
O O8 0.083771 0.541886 0.843205
O O9 0.116427 0.664833 0.807693
O O10 0.126989 0.645341 0.905062
O O11 0.000000 0.586019 0.859570
O O12 0.253566 0.126783 0.279904
O O13 0.303176 0.080886 0.347764
O O14 0.352834 0.107320 0.252814
O O15 0.233512 0.000000 0.273044
O O16 0.135713 0.864288 0.577023
O O17 0.235486 0.000000 0.576861
O O18 0.544369 0.772185 0.236514
O O19 0.212762 0.606381 0.069219
O O20 0.259869 0.740131 0.076552
O O21 0.182527 0.669169 0.000000
#
# Coordination Sequence:
#
# PCOD9587590 Si02
#       7
#    24  24  24  24  24  24  24
#     4  10  19  31  48  67  89 116 142 174 219 270
#     4   9  17  28  42  62  87 111 136 169 211 262
#     4  10  20  32  47  68  93 120 150 187 230 273
#     4   9  16  26  42  61  82 109 140 174 210 252
#     4   9  16  27  42  61  84 110 140 173 212 254
#     4  11  20  30  46  65  88 116 149 185 220 265
#     4   9  17  30  48  69  94 125 160 194 226 261
#
# _framework density 14.811297
#
# number of rings (size 3 to 8) (size 9 to 14) (size 15 to 20)
#    0.000    2.429    1.429    2.286    0.000    2.571 
#    0.000    2.857    0.000    3.429    0.000    2.000 
#    0.000    0.000    0.000    3.571    0.000    3.714 
#
# Total GULP energy -935900.628928 kJ/mol
# GULP energy per Si atom -5570.837077 kJ/mol
# Density = 1.477759 g / cm^3
# Si number density = 14.811297 Si / 1000 Ang^3
#
#
#
# Elastic Constant Matrix: (Units=GPa)
#
#
# Indices 1 2 3 4 5 6 
#
# 1 78.0992 38.9138 43.7501 0.0000 0.0000 0.0000
# 2 38.9138 78.0992 43.7501 0.0000 0.0000 0.0000
# 3 43.7501 43.7501 77.5978 0.0000 0.0000 0.0000
# 4 0.0000 0.0000 0.0000 -34.3423 0.0000 0.0000
# 5 0.0000 0.0000 0.0000 0.0000 -34.3423 0.0000
# 6 0.0000 0.0000 0.0000 0.0000 0.0000 19.5927
#
#
#
# Elastic Compliance Matrix: (Units=1/GPa)
#
#
# Indices 1 2 3 4 5 6 
#
# 1 0.020148 -0.005372 -0.008330 0.000000 0.000000 0.000000
# 2 -0.005372 0.020148 -0.008330 0.000000 0.000000 0.000000
# 3 -0.008330 -0.008330 0.022281 0.000000 0.000000 0.000000
# 4 0.000000 0.000000 0.000000 -0.029119 0.000000 0.000000
# 5 0.000000 0.000000 0.000000 0.000000 -0.029119 0.000000
# 6 0.000000 0.000000 0.000000 0.000000 0.000000 0.051039
#
#
# Mechanical properties :
#
#
# Convention : Reuss Voigt Hill
#
# Bulk Modulus (GPa) = 54.02638 54.06934 54.04786
# Shear Modulus (GPa) = 47.34221 -2.65957 22.34132
#
# Velocity S-wave (km/s) = 5.65977 -1.34147 3.88802
# Velocity P-wave (km/s) = 8.90316 5.84682 7.53165
#
# Compressibility (1/GPa) = 0.01850948
#
# Stress axis : x y z
#
# Youngs Moduli (GPa) = 49.63373 49.63373 44.88222
#
# Poissons Ratio (x) = 0.26664 0.37389
# Poissons Ratio (y) = 0.26664 0.37389
# Poissons Ratio (z) = 0.41347 0.41347
#
# Static dielectric constant tensor:
#      x y z
#    x 1.486100 0.000000 0.000000 
#    y 0.000000 1.486100 0.000000 
#    z 0.000000 0.000000 1.511630 
# 
# From -- ./inp_files/9205.got.cif
#   From: 2010.05.17/outbox.cif.g08.bks.cpg/sg191_5_cif.got.tgz:9205.got - 2010.05.20 12:20:32.
