data_PCOD9587477
_publ_section_title
;
Structure prediction by ZEFSAII (Michael W. Deem and Ramdas Pophale) SiO2 
 PCOD9587477
Probable space group: P 6/M M M
;
_chemical_formula_sum "Si O2"
_cell_formula_units_Z 120
_cell_length_a 18.009833
_cell_length_b 18.009833
_cell_length_c 26.283709
_cell_angle_alpha 90.000000
_cell_angle_beta 90.000000
_cell_angle_gamma 120.000000
_cell_volume 7383.064346
_symmetry_space_group_name_H-M "P 6/M M M"
_symmetry_group_IT_number 191
_symmetry_cell_setting 'hexagonal'
loop_
_space_group_symop_operation_xyz
x,y,z
x-y,x,z
-y,x-y,z
-x,-y,z
-x+y,-x,z
y,-x+y,z
x-y,-y,-z
-x,-x+y,-z
y,x,-z
-y,-x,-z
-x+y,y,-z
x,x-y,-z
-x,-y,-z
-x+y,-x,-z
y,-x+y,-z
x,y,-z
x-y,x,-z
-y,x-y,-z
-x+y,y,z
x,x-y,z
-y,-x,z
y,x,z
x-y,-y,z
-x,-x+y,z
loop_
_atom_site_type_symbol
_atom_site_label
_atom_site_fract_x
_atom_site_fract_y
_atom_site_fract_z
Si Si1 0.505584 0.836753 0.389166
Si Si2 0.541110 0.902442 0.500000
Si Si3 0.467600 0.103441 0.199905
Si Si4 0.364045 0.896647 0.000000
Si Si5 0.268255 0.370953 0.099887
Si Si6 0.633282 0.732475 0.702724
O O1 0.427512 0.855023 0.383138
O O2 0.474258 0.737129 0.380075
O O3 0.539696 0.858702 0.446926
O O4 0.580036 0.889280 0.348727
O O5 0.451675 0.903349 0.500000
O O6 0.616626 0.000000 0.500000
O O7 0.569000 0.138000 0.198897
O O8 0.430430 0.123361 0.149661
O O9 0.433791 0.125891 0.250636
O O10 0.421596 0.000000 0.200550
O O11 0.307460 0.875981 0.949477
O O12 0.431056 0.862111 0.000000
O O13 0.421773 0.000000 0.000000
O O14 0.166057 0.332113 0.099767
O O15 0.303265 0.303265 0.099622
O O16 0.666875 0.833438 0.701243
O O17 0.704413 0.704413 0.709422
#
# Coordination Sequence:
#
# PCOD9587477 Si02
#       6
#    24  12  24  12  24  24
#     4  10  19  30  45  66  93 124 157 193 232 274
#     4   9  17  28  42  60  84 119 161 197 227 264
#     4   9  17  30  49  71  93 119 152 188 227 274
#     4   9  17  30  49  70  90 116 152 193 237 286
#     4  10  19  31  49  72  97 127 164 203 240 280
#     4  10  20  33  50  71  94 122 156 194 234 277
#
# _framework density 16.253412999999998
#
# number of rings (size 3 to 8) (size 9 to 14) (size 15 to 20)
#    0.000    2.400    0.000    3.200    0.000    4.400 
#    0.000    1.000    0.000   11.200    0.000    0.000 
#    0.000    7.200    0.000    0.000    0.000   21.600 
#
# Total GULP energy -668614.542403 kJ/mol
# GULP energy per Si atom -5571.787853 kJ/mol
# Density = 1.621642 g / cm^3
# Si number density = 16.253413 Si / 1000 Ang^3
#
#
#
# Elastic Constant Matrix: (Units=GPa)
#
#
# Indices 1 2 3 4 5 6 
#
# 1 81.2956 49.8273 30.6590 0.0000 0.0000 0.0000
# 2 49.8273 81.2956 30.6590 0.0000 0.0000 0.0000
# 3 30.6590 30.6590 120.3782 0.0000 0.0000 0.0000
# 4 0.0000 0.0000 0.0000 3.9077 0.0000 0.0000
# 5 0.0000 0.0000 0.0000 0.0000 3.9077 0.0000
# 6 0.0000 0.0000 0.0000 0.0000 0.0000 15.7342
#
#
#
# Elastic Compliance Matrix: (Units=1/GPa)
#
#
# Indices 1 2 3 4 5 6 
#
# 1 0.020218 -0.011560 -0.002205 0.000000 0.000000 0.000000
# 2 -0.011560 0.020218 -0.002205 0.000000 0.000000 0.000000
# 3 -0.002205 -0.002205 0.009430 0.000000 0.000000 0.000000
# 4 0.000000 0.000000 0.000000 0.255907 0.000000 0.000000
# 5 0.000000 0.000000 0.000000 0.000000 0.255907 0.000000
# 6 0.000000 0.000000 0.000000 0.000000 0.000000 0.063556
#
#
# Mechanical properties :
#
#
# Convention : Reuss Voigt Hill
#
# Bulk Modulus (GPa) = 55.78640 56.13999 55.96319
# Shear Modulus (GPa) = 7.53975 16.16485 11.85230
#
# Velocity S-wave (km/s) = 2.15614 3.15707 2.70334
# Velocity P-wave (km/s) = 6.37150 6.92134 6.65210
#
# Compressibility (1/GPa) = 0.01792552
#
# Stress axis : x y z
#
# Youngs Moduli (GPa) = 49.46141 49.46141 106.04097
#
# Poissons Ratio (x) = 0.57178 0.23382
# Poissons Ratio (y) = 0.57178 0.23382
# Poissons Ratio (z) = 0.10906 0.10906
#
# Static dielectric constant tensor:
#      x y z
#    x 1.544130 0.000000 0.000000 
#    y 0.000000 1.544130 0.000000 
#    z 0.000000 0.000000 1.556240 
# 
# From -- ./inp_files/8587.got.cif
#   From: 2010.05.17/outbox.cif.g08.bks.cpg/sg191_5_cif.got.tgz:8587.got - 2010.05.20 12:20:32.
