data_PCOD9588808
_publ_section_title
;
Structure prediction by ZEFSAII (Michael W. Deem and Ramdas Pophale) SiO2 
 PCOD9588808
Probable space group: P 6/M C C
;
_chemical_formula_sum "Si O2"
_cell_formula_units_Z 108
_cell_length_a 14.724542
_cell_length_b 14.724542
_cell_length_c 29.616452
_cell_angle_alpha 90.000000
_cell_angle_beta 90.000000
_cell_angle_gamma 120.000000
_cell_volume 5560.927737
_symmetry_space_group_name_H-M "P 6/M C C"
_symmetry_group_IT_number 192
_symmetry_cell_setting 'hexagonal'
loop_
_space_group_symop_operation_xyz
x,y,z
x-y,x,z
-y,x-y,z
-x,-y,z
-x+y,-x,z
y,-x+y,z
x-y,-y,1/2-z
-x,-x+y,1/2-z
y,x,1/2-z
-y,-x,1/2-z
-x+y,y,1/2-z
x,x-y,1/2-z
-x,-y,-z
-x+y,-x,-z
y,-x+y,-z
x,y,-z
x-y,x,-z
-y,x-y,-z
-x+y,y,1/2+z
x,x-y,1/2+z
-y,-x,1/2+z
y,x,1/2+z
x-y,-y,1/2+z
-x,-x+y,1/2+z
loop_
_atom_site_type_symbol
_atom_site_label
_atom_site_fract_x
_atom_site_fract_y
_atom_site_fract_z
Si Si1 0.432391 0.872778 0.049689
Si Si2 0.455987 0.121893 0.734524
Si Si3 0.194739 0.965507 0.500000
Si Si4 0.264217 0.371467 0.086740
Si Si5 0.689618 0.585431 0.370687
O O1 0.515719 0.837939 0.062545
O O2 0.361094 0.853668 0.092839
O O3 0.500000 0.000000 0.046438
O O4 0.384187 0.835012 0.000000
O O5 0.570014 0.140027 0.750000
O O6 0.438969 0.219485 0.750000
O O7 0.452292 0.124464 0.680245
O O8 0.371564 0.000000 0.750000
O O9 0.203558 0.076601 0.500000
O O10 0.245563 0.951869 0.454568
O O11 0.162375 0.351697 0.113810
O O12 0.343689 0.363348 0.121051
#
# Coordination Sequence:
#
# PCOD9588808 Si02
#       5
#    24  24  12  24  24
#     4   9  20  34  56  85 120 160 204 248 303 377
#     4  11  26  46  72  99 134 174 231 294 356 419
#     4  12  23  40  61  97 135 181 223 272 319 392
#     4  11  22  38  62  91 128 172 215 259 321 395
#     4  11  24  39  66  89 129 165 217 262 335 390
#
# _framework density 19.421220000000002
#
# number of rings (size 3 to 8) (size 9 to 14) (size 15 to 20)
#    0.000    1.333    3.333    1.667   15.556    0.000 
#    1.333    0.000    0.000    0.222    0.000    3.111 
#    0.000    0.000    0.000    0.000    0.000    0.000 
#
# Total GULP energy -602385.566063 kJ/mol
# GULP energy per Si atom -5577.644130 kJ/mol
# Density = 1.937702 g / cm^3
# Si number density = 19.421220 Si / 1000 Ang^3
#
#
#
# Elastic Constant Matrix: (Units=GPa)
#
#
# Indices 1 2 3 4 5 6 
#
# 1 80.8652 19.2326 42.8489 0.0000 0.0000 0.0000
# 2 19.2326 80.8652 42.8489 0.0000 0.0000 0.0000
# 3 42.8489 42.8489 193.2783 0.0000 0.0000 0.0000
# 4 0.0000 0.0000 0.0000 22.6003 0.0000 0.0000
# 5 0.0000 0.0000 0.0000 0.0000 22.6003 0.0000
# 6 0.0000 0.0000 0.0000 0.0000 0.0000 30.8163
#
#
#
# Elastic Compliance Matrix: (Units=1/GPa)
#
#
# Indices 1 2 3 4 5 6 
#
# 1 0.014278 -0.001947 -0.002734 0.000000 0.000000 0.000000
# 2 -0.001947 0.014278 -0.002734 0.000000 0.000000 0.000000
# 3 -0.002734 -0.002734 0.006386 0.000000 0.000000 0.000000
# 4 0.000000 0.000000 0.000000 0.044247 0.000000 0.000000
# 5 0.000000 0.000000 0.000000 0.000000 0.044247 0.000000
# 6 0.000000 0.000000 0.000000 0.000000 0.000000 0.032450
#
#
# Mechanical properties :
#
#
# Convention : Reuss Voigt Hill
#
# Bulk Modulus (GPa) = 49.72002 62.76326 56.24164
# Shear Modulus (GPa) = 28.18176 31.87528 30.02852
#
# Velocity S-wave (km/s) = 3.81344 4.05564 3.93640
# Velocity P-wave (km/s) = 6.71165 7.37007 7.04855
#
# Compressibility (1/GPa) = 0.02011262
#
# Stress axis : x y z
#
# Youngs Moduli (GPa) = 70.03833 70.03833 156.59372
#
# Poissons Ratio (x) = 0.13639 0.42807
# Poissons Ratio (y) = 0.13639 0.42807
# Poissons Ratio (z) = 0.19146 0.19146
#
# Static dielectric constant tensor:
#      x y z
#    x 1.729010 0.000000 0.000000 
#    y 0.000000 1.729010 0.000000 
#    z 0.000000 0.000000 1.658890 
# 
# From -- ./inp_files/6866.got.cif
#   From: 2010.05.17/outbox.cif.g08.bks.cpg/sg192_4_cif.got.tgz:6866.got - 2010.05.20 12:28:01.
