data_PCOD9588976
_publ_section_title
;
Structure prediction by ZEFSAII (Michael W. Deem and Ramdas Pophale) SiO2 
 PCOD9588976
Probable space group: P 63/M C M
;
_chemical_formula_sum "Si O2"
_cell_formula_units_Z 168
_cell_length_a 21.577935
_cell_length_b 21.577935
_cell_length_c 23.145850
_cell_angle_alpha 90.000000
_cell_angle_beta 90.000000
_cell_angle_gamma 120.000000
_cell_volume 9333.048593
_symmetry_space_group_name_H-M "P 63/M C M"
_symmetry_group_IT_number 193
_symmetry_cell_setting 'hexagonal'
loop_
_space_group_symop_operation_xyz
x,y,z
x-y,x,1/2+z
-y,x-y,z
-x,-y,1/2+z
-x+y,-x,z
y,-x+y,1/2+z
x-y,-y,1/2-z
-x,-x+y,1/2-z
y,x,1/2-z
-y,-x,-z
-x+y,y,-z
x,x-y,-z
-x,-y,-z
-x+y,-x,1/2-z
y,-x+y,-z
x,y,1/2-z
x-y,x,-z
-y,x-y,1/2-z
-x+y,y,1/2+z
x,x-y,1/2+z
-y,-x,1/2+z
y,x,z
x-y,-y,z
-x,-x+y,z
loop_
_atom_site_type_symbol
_atom_site_label
_atom_site_fract_x
_atom_site_fract_y
_atom_site_fract_z
Si Si1 0.676104 0.848571 0.431576
Si Si2 0.719267 0.178462 0.872325
Si Si3 0.186435 0.520178 0.005166
Si Si4 0.406373 0.079295 0.588482
Si Si5 0.918869 0.837966 0.070249
Si Si6 0.498220 0.827044 0.319167
Si Si7 0.506319 0.082878 0.318279
O O1 0.663368 0.831684 0.500000
O O2 0.616673 0.784558 0.393152
O O3 0.663570 0.915187 0.423563
O O4 0.755351 0.868864 0.414960
O O5 0.673478 0.164088 0.930569
O O6 0.756587 0.260633 0.847658
O O7 0.661357 0.119568 0.829700
O O8 0.264262 0.528523 0.000000
O O9 0.189339 0.594670 0.000000
O O10 0.134526 0.466082 0.956119
O O11 0.430477 0.107629 0.653295
O O12 0.391133 0.000000 0.580334
O O13 0.886255 0.886255 0.090457
O O14 0.000000 0.869787 0.090014
O O15 0.920140 0.840279 0.000000
O O16 0.497844 0.819848 0.250000
O O17 0.443628 0.855815 0.336473
O O18 0.513126 0.076573 0.250000
O O19 0.470521 0.000000 0.341464
#
# Coordination Sequence:
#
# PCOD9588976 Si02
#       7
#    24  24  24  24  24  24  24
#     4  10  18  35  50  74 111 146 186 224 277 339
#     4  11  21  37  59  83 114 146 198 240 286 357
#     4  12  23  40  56  80 112 151 186 227 289 347
#     4  11  21  36  57  82 113 144 188 240 285 350
#     4   9  17  28  46  72 104 143 184 223 265 317
#     4  10  21  39  60  81 111 149 191 244 299 349
#     4  10  22  40  59  82 112 147 192 244 299 354
#
# _framework density 18.000548999999999
#
# number of rings (size 3 to 8) (size 9 to 14) (size 15 to 20)
#    0.000    1.571    4.286    2.429    0.000    3.429 
#    0.857    0.000    0.000    0.000    0.000    0.000 
#    0.000    0.000    0.000    4.000    0.000   62.429 
#
# Total GULP energy -935309.990035 kJ/mol
# GULP energy per Si atom -5567.321369 kJ/mol
# Density = 1.795958 g / cm^3
# Si number density = 18.000549 Si / 1000 Ang^3
#
#
#
# Elastic Constant Matrix: (Units=GPa)
#
#
# Indices 1 2 3 4 5 6 
#
# 1 83.7293 36.2476 8.6572 0.0000 0.0000 0.0000
# 2 36.2476 83.7293 8.6572 0.0000 0.0000 0.0000
# 3 8.6572 8.6572 40.7943 0.0000 0.0000 0.0000
# 4 0.0000 0.0000 0.0000 10.5617 0.0000 0.0000
# 5 0.0000 0.0000 0.0000 0.0000 10.5617 0.0000
# 6 0.0000 0.0000 0.0000 0.0000 0.0000 23.7409
#
#
#
# Elastic Compliance Matrix: (Units=1/GPa)
#
#
# Indices 1 2 3 4 5 6 
#
# 1 0.014829 -0.006231 -0.001825 0.000000 0.000000 0.000000
# 2 -0.006231 0.014829 -0.001825 0.000000 0.000000 0.000000
# 3 -0.001825 -0.001825 0.025288 0.000000 0.000000 0.000000
# 4 0.000000 0.000000 0.000000 0.094682 0.000000 0.000000
# 5 0.000000 0.000000 0.000000 0.000000 0.094682 0.000000
# 6 0.000000 0.000000 0.000000 0.000000 0.000000 0.042121
#
#
# Mechanical properties :
#
#
# Convention : Reuss Voigt Hill
#
# Bulk Modulus (GPa) = 28.42084 35.04189 31.73137
# Shear Modulus (GPa) = 15.72717 19.28559 17.50638
#
# Velocity S-wave (km/s) = 2.95906 3.27676 3.12195
# Velocity P-wave (km/s) = 5.24384 5.81598 5.53730
#
# Compressibility (1/GPa) = 0.03518544
#
# Stress axis : x y z
#
# Youngs Moduli (GPa) = 67.43317 67.43317 39.54499
#
# Poissons Ratio (x) = 0.42019 0.07216
# Poissons Ratio (y) = 0.42019 0.07216
# Poissons Ratio (z) = 0.12304 0.12304
#
# Static dielectric constant tensor:
#      x y z
#    x 1.653660 0.000000 0.000000 
#    y 0.000000 1.653660 0.000000 
#    z 0.000000 0.000000 1.657110 
# 
# From -- ./inp_files/8496.got.cif
#   From: 2010.05.17/outbox.cif.g08.bks.cpg/sg193_5_cif.got.tgz:8496.got - 2010.05.20 12:33:02.
