data_PCOD9588755
_publ_section_title
;
Structure prediction by ZEFSAII (Michael W. Deem and Ramdas Pophale) SiO2 
 PCOD9588755
Probable space group: P 6/M C C
;
_chemical_formula_sum "Si O2"
_cell_formula_units_Z 128
_cell_length_a 19.115790
_cell_length_b 19.115790
_cell_length_c 22.513799
_cell_angle_alpha 90.000000
_cell_angle_beta 90.000000
_cell_angle_gamma 120.000000
_cell_volume 7124.656291
_symmetry_space_group_name_H-M "P 6/M C C"
_symmetry_group_IT_number 192
_symmetry_cell_setting 'hexagonal'
loop_
_space_group_symop_operation_xyz
x,y,z
x-y,x,z
-y,x-y,z
-x,-y,z
-x+y,-x,z
y,-x+y,z
x-y,-y,1/2-z
-x,-x+y,1/2-z
y,x,1/2-z
-y,-x,1/2-z
-x+y,y,1/2-z
x,x-y,1/2-z
-x,-y,-z
-x+y,-x,-z
y,-x+y,-z
x,y,-z
x-y,x,-z
-y,x-y,-z
-x+y,y,1/2+z
x,x-y,1/2+z
-y,-x,1/2+z
y,x,1/2+z
x-y,-y,1/2+z
-x,-x+y,1/2+z
loop_
_atom_site_type_symbol
_atom_site_label
_atom_site_fract_x
_atom_site_fract_y
_atom_site_fract_z
Si Si1 0.729608 0.219026 0.182865
Si Si2 0.146414 0.553170 0.000000
Si Si3 0.349992 0.192586 0.397668
Si Si4 0.413422 0.477007 0.622930
Si Si5 0.737446 0.216257 0.500000
Si Si6 0.289602 0.985129 0.928865
Si Si7 0.666667 0.333334 0.823612
O O1 0.752792 0.247209 0.250000
O O2 0.801237 0.205433 0.159760
O O3 0.645881 0.137394 0.166111
O O4 0.716016 0.289855 0.155280
O O5 0.096564 0.527148 0.938650
O O6 0.196985 0.507130 0.000000
O O7 0.201972 0.648611 0.000000
O O8 0.420669 0.245208 0.444566
O O9 0.290708 0.228352 0.400288
O O10 0.308362 0.099512 0.416712
O O11 0.500000 0.500000 0.649578
O O12 0.361983 0.384346 0.601409
O O13 0.301720 0.994903 0.000000
O O14 0.666668 0.333334 0.750000
#
# Coordination Sequence:
#
# PCOD9588755 Si02
#       7
#    24  12  24  24  12  24   8
#     4  10  23  41  59  80 113 160 210 247 287 344
#     4  12  22  34  52  88 125 152 201 246 310 362
#     4  11  22  37  61  84 115 150 192 242 304 363
#     4  11  22  35  57  87 117 154 197 254 311 352
#     4  12  21  34  50  84 117 158 190 243 293 367
#     4  11  19  37  57  85 118 149 189 233 303 375
#     4   9  21  39  57  67 101 157 201 246 280 323
#
# _framework density 17.965779000000001
#
# number of rings (size 3 to 8) (size 9 to 14) (size 15 to 20)
#    0.000    1.125    6.562    1.594    5.250    0.000 
#    0.000    3.750    0.000    0.375    0.000    1.312 
#    0.000    0.000    0.000    6.750    0.000    0.750 
#
# Total GULP energy -714252.716427 kJ/mol
# GULP energy per Si atom -5580.099347 kJ/mol
# Density = 1.792489 g / cm^3
# Si number density = 17.965779 Si / 1000 Ang^3
#
#
#
# Elastic Constant Matrix: (Units=GPa)
#
#
# Indices 1 2 3 4 5 6 
#
# 1 91.7048 32.6948 25.3783 0.0000 0.0000 -0.0001
# 2 32.6948 91.7048 25.3783 0.0000 0.0000 0.0000
# 3 25.3783 25.3783 58.4008 0.0001 0.0000 0.0000
# 4 0.0000 0.0000 0.0001 14.9406 0.0001 0.0000
# 5 0.0000 0.0000 0.0000 0.0001 14.9410 0.0000
# 6 -0.0001 0.0000 0.0000 0.0000 0.0000 29.5050
#
#
#
# Elastic Compliance Matrix: (Units=1/GPa)
#
#
# Indices 1 2 3 4 5 6 
#
# 1 0.013359 -0.003588 -0.004246 0.000000 0.000000 0.000000
# 2 -0.003588 0.013359 -0.004246 0.000000 0.000000 0.000000
# 3 -0.004246 -0.004246 0.020813 0.000000 0.000000 0.000000
# 4 0.000000 0.000000 0.000000 0.066932 0.000000 0.000000
# 5 0.000000 0.000000 0.000000 0.000000 0.066930 0.000000
# 6 0.000000 0.000000 0.000000 0.000000 0.000000 0.033893
#
#
# Mechanical properties :
#
#
# Convention : Reuss Voigt Hill
#
# Bulk Modulus (GPa) = 42.78762 45.41257 44.10010
# Shear Modulus (GPa) = 20.22368 22.43457 21.32912
#
# Velocity S-wave (km/s) = 3.35875 3.53758 3.44933
# Velocity P-wave (km/s) = 6.23775 6.48214 6.36112
#
# Compressibility (1/GPa) = 0.02337124
#
# Stress axis : x y z
#
# Youngs Moduli (GPa) = 74.85774 74.85772 48.04611
#
# Poissons Ratio (x) = 0.26856 0.20401
# Poissons Ratio (y) = 0.26856 0.20401
# Poissons Ratio (z) = 0.31785 0.31785
#
# Static dielectric constant tensor:
#      x y z
#    x 1.623130 0.000000 0.000000 
#    y 0.000000 1.623130 0.000000 
#    z 0.000000 0.000000 1.837870 
# 
# From -- ./inp_files/5059.got.cif
#   From: 2010.05.17/outbox.cif.g08.bks.cpg/sg192_3_cif.got.tgz:5059.got - 2010.05.20 12:28:01.
