data_PCOD9588612
_publ_section_title
;
Structure prediction by ZEFSAII (Michael W. Deem and Ramdas Pophale) SiO2 
 PCOD9588612
Probable space group: P 6/M C C
;
_chemical_formula_sum "Si O2"
_cell_formula_units_Z 56
_cell_length_a 15.328263
_cell_length_b 15.328263
_cell_length_c 13.949576
_cell_angle_alpha 90.000000
_cell_angle_beta 90.000000
_cell_angle_gamma 120.000000
_cell_volume 2838.425670
_symmetry_space_group_name_H-M "P 6/M C C"
_symmetry_group_IT_number 192
_symmetry_cell_setting 'hexagonal'
loop_
_space_group_symop_operation_xyz
x,y,z
x-y,x,z
-y,x-y,z
-x,-y,z
-x+y,-x,z
y,-x+y,z
x-y,-y,1/2-z
-x,-x+y,1/2-z
y,x,1/2-z
-y,-x,1/2-z
-x+y,y,1/2-z
x,x-y,1/2-z
-x,-y,-z
-x+y,-x,-z
y,-x+y,-z
x,y,-z
x-y,x,-z
-y,x-y,-z
-x+y,y,1/2+z
x,x-y,1/2+z
-y,-x,1/2+z
y,x,1/2+z
x-y,-y,1/2+z
-x,-x+y,1/2+z
loop_
_atom_site_type_symbol
_atom_site_label
_atom_site_fract_x
_atom_site_fract_y
_atom_site_fract_z
Si Si1 0.422668 0.845335 0.250000
Si Si2 0.333333 0.666666 0.885390
Si Si3 0.363200 0.268173 0.308881
Si Si4 0.168202 0.929070 0.500000
O O1 0.353927 0.770974 0.163547
O O2 0.372940 0.904005 0.300913
O O3 0.333334 0.666668 0.000000
O O4 0.282554 0.282554 0.250000
O O5 0.382947 0.191474 0.250000
O O6 0.312915 0.221178 0.409717
O O7 0.046709 0.851628 0.500000
#
# Coordination Sequence:
#
# PCOD9588612 Si02
#       4
#    12   8  24  12
#     4  10  23  42  64  98 134 182 228 284 343 424
#     4  10  20  37  64  92 133 175 227 280 340 401
#     4  12  24  45  69  99 143 182 235 293 355 424
#     4  12  27  46  75 107 139 189 239 300 368 427
#
# _framework density 19.729247000000001
#
# number of rings (size 3 to 8) (size 9 to 14) (size 15 to 20)
#    0.000    0.857    8.571    0.857    3.000    0.000 
#    3.857    2.143    0.000    0.000    0.000    0.000 
#    0.000    0.000    0.000    0.000    0.000    0.000 
#
# Total GULP energy -311970.462236 kJ/mol
# GULP energy per Si atom -5570.901111 kJ/mol
# Density = 1.968434 g / cm^3
# Si number density = 19.729247 Si / 1000 Ang^3
#
#
#
# Elastic Constant Matrix: (Units=GPa)
#
#
# Indices 1 2 3 4 5 6 
#
# 1 112.9092 52.1448 63.3127 0.0000 0.0000 0.0000
# 2 52.1448 112.9093 63.3127 0.0000 0.0000 0.0000
# 3 63.3127 63.3127 196.8936 0.0001 0.0000 0.0000
# 4 0.0000 0.0000 0.0001 29.3482 0.0000 0.0000
# 5 0.0000 0.0000 0.0000 0.0000 29.3483 0.0000
# 6 0.0000 0.0000 0.0000 0.0000 0.0000 30.3822
#
#
#
# Elastic Compliance Matrix: (Units=1/GPa)
#
#
# Indices 1 2 3 4 5 6 
#
# 1 0.012250 -0.004207 -0.002586 0.000000 0.000000 0.000000
# 2 -0.004207 0.012250 -0.002586 0.000000 0.000000 0.000000
# 3 -0.002586 -0.002586 0.006742 0.000000 0.000000 0.000000
# 4 0.000000 0.000000 0.000000 0.034074 0.000000 0.000000
# 5 0.000000 0.000000 0.000000 0.000000 0.034074 0.000000
# 6 0.000000 0.000000 0.000000 0.000000 0.000000 0.032914
#
#
# Mechanical properties :
#
#
# Convention : Reuss Voigt Hill
#
# Bulk Modulus (GPa) = 80.11078 86.69472 83.40275
# Shear Modulus (GPa) = 32.21173 34.07853 33.14513
#
# Velocity S-wave (km/s) = 4.04504 4.16060 4.10323
# Velocity P-wave (km/s) = 7.90631 8.19258 8.05072
#
# Compressibility (1/GPa) = 0.01248271
#
# Stress axis : x y z
#
# Youngs Moduli (GPa) = 81.63366 81.63370 148.32164
#
# Poissons Ratio (x) = 0.34345 0.38359
# Poissons Ratio (y) = 0.34345 0.38359
# Poissons Ratio (z) = 0.21112 0.21112
#
# Static dielectric constant tensor:
#      x y z
#    x 1.840750 0.000000 0.000000 
#    y 0.000000 1.840750 0.000000 
#    z 0.000000 0.000000 1.175500 
# 
# From -- ./inp_files/2269.got.cif
#   From: 2010.05.17/outbox.cif.g08.bks.cpg/sg192_2_cif.got.tgz:2269.got - 2010.05.20 12:28:01.
