data_PCOD9588540
_publ_section_title
;
Structure prediction by ZEFSAII (Michael W. Deem and Ramdas Pophale) SiO2 
 PCOD9588540
Probable space group: P 6/M C C
;
_chemical_formula_sum "Si O2"
_cell_formula_units_Z 144
_cell_length_a 31.940548
_cell_length_b 31.940548
_cell_length_c 8.700911
_cell_angle_alpha 90.000000
_cell_angle_beta 90.000000
_cell_angle_gamma 120.000000
_cell_volume 7687.410703
_symmetry_space_group_name_H-M "P 6/M C C"
_symmetry_group_IT_number 192
_symmetry_cell_setting 'hexagonal'
loop_
_space_group_symop_operation_xyz
x,y,z
x-y,x,z
-y,x-y,z
-x,-y,z
-x+y,-x,z
y,-x+y,z
x-y,-y,1/2-z
-x,-x+y,1/2-z
y,x,1/2-z
-y,-x,1/2-z
-x+y,y,1/2-z
x,x-y,1/2-z
-x,-y,-z
-x+y,-x,-z
y,-x+y,-z
x,y,-z
x-y,x,-z
-y,x-y,-z
-x+y,y,1/2+z
x,x-y,1/2+z
-y,-x,1/2+z
y,x,1/2+z
x-y,-y,1/2+z
-x,-x+y,1/2+z
loop_
_atom_site_type_symbol
_atom_site_label
_atom_site_fract_x
_atom_site_fract_y
_atom_site_fract_z
Si Si1 0.662980 0.146005 0.684422
Si Si2 0.294950 0.052131 0.316212
Si Si3 0.759312 0.426081 0.184195
Si Si4 0.853813 0.238951 0.816865
Si Si5 0.521158 0.948348 0.684527
Si Si6 0.802857 0.855165 0.184020
O O1 0.656961 0.145657 0.500000
O O2 0.658001 0.189220 0.757859
O O3 0.715829 0.153670 0.718156
O O4 0.622605 0.095426 0.754589
O O5 0.297175 0.051040 0.500000
O O6 0.343931 0.095722 0.251136
O O7 0.250025 0.060159 0.273386
O O8 0.281456 0.000000 0.250000
O O9 0.717447 0.434894 0.250000
O O10 0.751490 0.375745 0.250000
O O11 0.757673 0.424679 0.000000
O O12 0.809944 0.190057 0.750000
O O13 0.854899 0.234510 0.000000
O O14 0.470631 0.941262 0.750000
O O15 0.520520 0.949512 0.500000
O O16 0.561776 0.000000 0.750000
O O17 0.841283 0.841283 0.250000
O O18 0.808794 0.904397 0.250000
O O19 0.805997 0.857563 0.000000
#
# Coordination Sequence:
#
# PCOD9588540 Si02
#       6
#    24  24  24  24  24  24
#     4  11  24  42  62  88 120 157 199 243 291 348
#     4  10  21  37  59  85 116 151 192 239 289 342
#     4  12  25  43  66  93 123 156 194 240 292 349
#     4  11  24  40  60  84 116 155 196 239 287 343
#     4  11  22  39  63  90 120 155 195 243 295 349
#     4  10  20  34  54  81 111 146 186 233 283 336
#
# _framework density 18.731923999999999
#
# number of rings (size 3 to 8) (size 9 to 14) (size 15 to 20)
#    0.000    1.167    0.000    7.167    0.000    8.000 
#    0.000    0.000    0.000    0.167    0.000    1.167 
#    0.000    0.000    0.000    0.000    0.000    0.000 
#
# Total GULP energy -805680.647656 kJ/mol
# GULP energy per Si atom -5595.004498 kJ/mol
# Density = 1.868929 g / cm^3
# Si number density = 18.731924 Si / 1000 Ang^3
#
#
#
# Elastic Constant Matrix: (Units=GPa)
#
#
# Indices 1 2 3 4 5 6 
#
# 1 87.3207 29.4816 39.5074 0.0000 0.0000 0.0000
# 2 29.4816 87.3207 39.5074 0.0000 0.0000 0.0000
# 3 39.5074 39.5074 100.6649 0.0000 0.0000 0.0000
# 4 0.0000 0.0000 0.0000 29.0690 0.0000 0.0000
# 5 0.0000 0.0000 0.0000 0.0000 29.0690 0.0000
# 6 0.0000 0.0000 0.0000 0.0000 0.0000 28.9195
#
#
#
# Elastic Compliance Matrix: (Units=1/GPa)
#
#
# Indices 1 2 3 4 5 6 
#
# 1 0.014473 -0.002817 -0.004575 0.000000 0.000000 0.000000
# 2 -0.002817 0.014473 -0.004575 0.000000 0.000000 0.000000
# 3 -0.004575 -0.004575 0.013525 0.000000 0.000000 0.000000
# 4 0.000000 0.000000 0.000000 0.034401 0.000000 0.000000
# 5 0.000000 0.000000 0.000000 0.000000 0.034401 0.000000
# 6 0.000000 0.000000 0.000000 0.000000 0.000000 0.034579
#
#
# Mechanical properties :
#
#
# Convention : Reuss Voigt Hill
#
# Bulk Modulus (GPa) = 53.94184 54.69990 54.32087
# Shear Modulus (GPa) = 28.41524 28.53216 28.47370
#
# Velocity S-wave (km/s) = 3.89902 3.90703 3.90303
# Velocity P-wave (km/s) = 7.00921 7.04401 7.02663
#
# Compressibility (1/GPa) = 0.01853848
#
# Stress axis : x y z
#
# Youngs Moduli (GPa) = 69.09548 69.09548 73.93888
#
# Poissons Ratio (x) = 0.19462 0.33824
# Poissons Ratio (y) = 0.19462 0.33824
# Poissons Ratio (z) = 0.31608 0.31608
#
# Static dielectric constant tensor:
#      x y z
#    x 1.635890 0.000000 0.000000 
#    y 0.000000 1.635890 0.000000 
#    z 0.000000 0.000000 1.623420 
# 
# From -- ./inp_files/1157.got.cif
#   From: 2010.05.17/outbox.cif.g08.bks.cpg/sg192_1_cif.got.tgz:1157.got - 2010.05.20 12:28:01.
