data_PCOD9588530
_publ_section_title
;
Structure prediction by ZEFSAII (Michael W. Deem and Ramdas Pophale) SiO2 
 PCOD9588530
Probable space group: P 6/M C C
;
_chemical_formula_sum "Si O2"
_cell_formula_units_Z 144
_cell_length_a 19.934667
_cell_length_b 19.934667
_cell_length_c 22.785208
_cell_angle_alpha 90.000000
_cell_angle_beta 90.000000
_cell_angle_gamma 120.000000
_cell_volume 7841.544293
_symmetry_space_group_name_H-M "P 6/M C C"
_symmetry_group_IT_number 192
_symmetry_cell_setting 'hexagonal'
loop_
_space_group_symop_operation_xyz
x,y,z
x-y,x,z
-y,x-y,z
-x,-y,z
-x+y,-x,z
y,-x+y,z
x-y,-y,1/2-z
-x,-x+y,1/2-z
y,x,1/2-z
-y,-x,1/2-z
-x+y,y,1/2-z
x,x-y,1/2-z
-x,-y,-z
-x+y,-x,-z
y,-x+y,-z
x,y,-z
x-y,x,-z
-y,x-y,-z
-x+y,y,1/2+z
x,x-y,1/2+z
-y,-x,1/2+z
y,x,1/2+z
x-y,-y,1/2+z
-x,-x+y,1/2+z
loop_
_atom_site_type_symbol
_atom_site_label
_atom_site_fract_x
_atom_site_fract_y
_atom_site_fract_z
Si Si1 0.614155 0.497907 0.500000
Si Si2 0.088692 0.620456 0.733730
Si Si3 0.717813 0.036388 0.597681
Si Si4 0.296844 0.426033 0.613621
Si Si5 0.616298 0.847155 0.195726
Si Si6 0.165868 0.037227 0.930451
Si Si7 0.439333 0.067037 0.000000
O O1 0.668480 0.518241 0.557436
O O2 0.584454 0.560687 0.500000
O O3 0.533037 0.415844 0.500000
O O4 0.102058 0.551029 0.750000
O O5 0.099912 0.639486 0.665122
O O6 0.147001 0.695865 0.770403
O O7 0.000000 0.592566 0.750000
O O8 0.735118 0.071742 0.662566
O O9 0.800512 0.052621 0.575732
O O10 0.679959 0.075394 0.556910
O O11 0.656884 0.944748 0.596740
O O12 0.218308 0.411022 0.645407
O O13 0.657186 0.828593 0.250000
O O14 0.152052 0.104677 0.905752
O O15 0.152288 0.034952 0.000000
#
# Coordination Sequence:
#
# PCOD9588530 Si02
#       7
#    12  24  24  24  24  24  12
#     4   9  20  35  54  86 120 150 182 226 295 360
#     4  10  20  35  60  85 114 147 191 244 294 348
#     4  11  19  35  55  85 118 150 188 240 301 348
#     4  10  21  36  57  84 121 152 188 238 295 358
#     4  10  22  36  54  86 115 147 194 242 293 351
#     4  10  20  34  52  77 113 157 201 238 285 352
#     4   9  20  31  54  86 117 147 182 231 286 361
#
# _framework density 18.36373
#
# number of rings (size 3 to 8) (size 9 to 14) (size 15 to 20)
#    0.000    2.000    2.500    1.167    2.333    2.667 
#    0.000    0.000    0.000    9.000    0.000    0.000 
#    0.000    0.000    0.000    0.000    0.000    0.000 
#
# Total GULP energy -802203.747978 kJ/mol
# GULP energy per Si atom -5570.859361 kJ/mol
# Density = 1.832193 g / cm^3
# Si number density = 18.363730 Si / 1000 Ang^3
#
#
#
# Elastic Constant Matrix: (Units=GPa)
#
#
# Indices 1 2 3 4 5 6 
#
# 1 36.9830 30.2734 20.4654 0.0000 0.0000 0.0000
# 2 30.2734 36.9830 20.4654 0.0000 0.0000 0.0000
# 3 20.4654 20.4654 88.3574 0.0000 0.0000 0.0000
# 4 0.0000 0.0000 0.0000 21.2110 0.0000 0.0000
# 5 0.0000 0.0000 0.0000 0.0000 21.2110 0.0000
# 6 0.0000 0.0000 0.0000 0.0000 0.0000 3.3548
#
#
#
# Elastic Compliance Matrix: (Units=1/GPa)
#
#
# Indices 1 2 3 4 5 6 
#
# 1 0.083175 -0.065867 -0.004009 0.000000 0.000000 0.000000
# 2 -0.065867 0.083175 -0.004009 0.000000 0.000000 0.000000
# 3 -0.004009 -0.004009 0.013175 0.000000 0.000000 0.000000
# 4 0.000000 0.000000 0.000000 0.047145 0.000000 0.000000
# 5 0.000000 0.000000 0.000000 0.000000 0.047145 0.000000
# 6 0.000000 0.000000 0.000000 0.000000 0.000000 0.298083
#
#
# Mechanical properties :
#
#
# Convention : Reuss Voigt Hill
#
# Bulk Modulus (GPa) = 31.49065 33.85911 32.67488
# Shear Modulus (GPa) = 6.84695 15.22994 11.03844
#
# Velocity S-wave (km/s) = 1.93303 2.88297 2.45439
# Velocity P-wave (km/s) = 4.70825 5.43692 5.08565
#
# Compressibility (1/GPa) = 0.03175545
#
# Stress axis : x y z
#
# Youngs Moduli (GPa) = 12.02287 12.02287 75.90257
#
# Poissons Ratio (x) = 0.79191 0.30429
# Poissons Ratio (y) = 0.79191 0.30429
# Poissons Ratio (z) = 0.04820 0.04820
#
# Static dielectric constant tensor:
#      x y z
#    x 1.644890 0.000000 0.000000 
#    y 0.000000 1.644890 0.000000 
#    z 0.000000 0.000000 1.753600 
# 
# From -- ./inp_files/5172.got.cif
#   From: 2010.05.17/outbox.cif.g08.bks.cpg/sg192_3_cif.got.tgz:5172.got - 2010.05.20 12:28:01.
