data_PCOD9588680
_publ_section_title
;
Structure prediction by ZEFSAII (Michael W. Deem and Ramdas Pophale) SiO2 
 PCOD9588680
Probable space group: P 6/M C C
;
_chemical_formula_sum "Si O2"
_cell_formula_units_Z 72
_cell_length_a 16.741975
_cell_length_b 16.741975
_cell_length_c 15.313006
_cell_angle_alpha 90.000000
_cell_angle_beta 90.000000
_cell_angle_gamma 120.000000
_cell_volume 3717.101862
_symmetry_space_group_name_H-M "P 6/M C C"
_symmetry_group_IT_number 192
_symmetry_cell_setting 'hexagonal'
loop_
_space_group_symop_operation_xyz
x,y,z
x-y,x,z
-y,x-y,z
-x,-y,z
-x+y,-x,z
y,-x+y,z
x-y,-y,1/2-z
-x,-x+y,1/2-z
y,x,1/2-z
-y,-x,1/2-z
-x+y,y,1/2-z
x,x-y,1/2-z
-x,-y,-z
-x+y,-x,-z
y,-x+y,-z
x,y,-z
x-y,x,-z
-y,x-y,-z
-x+y,y,1/2+z
x,x-y,1/2+z
-y,-x,1/2+z
y,x,1/2+z
x-y,-y,1/2+z
-x,-x+y,1/2+z
loop_
_atom_site_type_symbol
_atom_site_label
_atom_site_fract_x
_atom_site_fract_y
_atom_site_fract_z
Si Si1 0.404122 0.500066 0.668158
Si Si2 0.695479 0.695479 0.750000
Si Si3 0.424035 0.780102 0.500000
Si Si4 0.791682 0.833563 0.599056
O O1 0.500000 0.500000 0.649095
O O2 0.430716 0.569285 0.750000
O O3 0.329257 0.398588 0.700009
O O4 0.370805 0.531056 0.585211
O O5 0.724597 0.773619 0.676647
O O6 0.314065 0.741957 0.500000
O O7 0.821120 0.940231 0.607312
O O8 0.754153 0.803504 0.500000
#
# Coordination Sequence:
#
# PCOD9588680 Si02
#       4
#    24  12  12  24
#     4   9  21  44  64  88 124 169 202 255 326 380
#     4  10  21  38  59  92 122 164 214 252 313 376
#     4  10  23  42  64 100 120 160 215 259 319 378
#     4  10  21  39  59  89 126 166 209 257 311 374
#
# _framework density 19.36993
#
# number of rings (size 3 to 8) (size 9 to 14) (size 15 to 20)
#    0.333    2.333    0.000    1.833    2.333    2.667 
#   27.000    1.667    0.000    0.000    0.000    0.000 
#    0.000    0.000    0.000    0.000    0.000    0.000 
#
# Total GULP energy -401841.682660 kJ/mol
# GULP energy per Si atom -5581.134481 kJ/mol
# Density = 1.932584 g / cm^3
# Si number density = 19.369930 Si / 1000 Ang^3
#
#
#
# Elastic Constant Matrix: (Units=GPa)
#
#
# Indices 1 2 3 4 5 6 
#
# 1 71.2021 43.9140 75.6829 0.0000 0.0000 0.0000
# 2 43.9140 71.2021 75.6829 0.0000 0.0000 0.0000
# 3 75.6829 75.6829 175.5451 0.0000 0.0000 0.0000
# 4 0.0000 0.0000 0.0000 113.2164 0.0000 0.0000
# 5 0.0000 0.0000 0.0000 0.0000 113.2164 0.0000
# 6 0.0000 0.0000 0.0000 0.0000 0.0000 13.6440
#
#
#
# Elastic Compliance Matrix: (Units=1/GPa)
#
#
# Indices 1 2 3 4 5 6 
#
# 1 0.028352 -0.008294 -0.008647 0.000000 0.000000 0.000000
# 2 -0.008294 0.028352 -0.008647 0.000000 0.000000 0.000000
# 3 -0.008647 -0.008647 0.013153 0.000000 0.000000 0.000000
# 4 0.000000 0.000000 0.000000 0.008833 0.000000 0.000000
# 5 0.000000 0.000000 0.000000 0.000000 0.008833 0.000000
# 6 0.000000 0.000000 0.000000 0.000000 0.000000 0.073292
#
#
# Mechanical properties :
#
#
# Convention : Reuss Voigt Hill
#
# Bulk Modulus (GPa) = 53.53898 78.72324 66.13111
# Shear Modulus (GPa) = 22.91296 56.19332 39.55314
#
# Velocity S-wave (km/s) = 3.44308 5.39199 4.52374
# Velocity P-wave (km/s) = 6.59596 8.91600 7.84225
#
# Compressibility (1/GPa) = 0.01867798
#
# Stress axis : x y z
#
# Youngs Moduli (GPa) = 35.27141 35.27141 76.02979
#
# Poissons Ratio (x) = 0.29256 0.65745
# Poissons Ratio (y) = 0.29256 0.65745
# Poissons Ratio (z) = 0.30500 0.30500
#
# Static dielectric constant tensor:
#      x y z
#    x 1.667880 0.000000 0.000000 
#    y 0.000000 1.667880 0.000000 
#    z 0.000000 0.000000 1.669670 
# 
# From -- ./inp_files/2426.got.cif
#   From: 2010.05.17/outbox.cif.g08.bks.cpg/sg192_2_cif.got.tgz:2426.got - 2010.05.20 12:28:01.
