data_PCOD9588845
_publ_section_title
;
Structure prediction by ZEFSAII (Michael W. Deem and Ramdas Pophale) SiO2 
 PCOD9588845
Probable space group: P 6/M C C
;
_chemical_formula_sum "Si O2"
_cell_formula_units_Z 72
_cell_length_a 21.228383
_cell_length_b 21.228383
_cell_length_c 8.976759
_cell_angle_alpha 90.000000
_cell_angle_beta 90.000000
_cell_angle_gamma 120.000000
_cell_volume 3503.354026
_symmetry_space_group_name_H-M "P 6/M C C"
_symmetry_group_IT_number 192
_symmetry_cell_setting 'hexagonal'
loop_
_space_group_symop_operation_xyz
x,y,z
x-y,x,z
-y,x-y,z
-x,-y,z
-x+y,-x,z
y,-x+y,z
x-y,-y,1/2-z
-x,-x+y,1/2-z
y,x,1/2-z
-y,-x,1/2-z
-x+y,y,1/2-z
x,x-y,1/2-z
-x,-y,-z
-x+y,-x,-z
y,-x+y,-z
x,y,-z
x-y,x,-z
-y,x-y,-z
-x+y,y,1/2+z
x,x-y,1/2+z
-y,-x,1/2+z
y,x,1/2+z
x-y,-y,1/2+z
-x,-x+y,1/2+z
loop_
_atom_site_type_symbol
_atom_site_label
_atom_site_fract_x
_atom_site_fract_y
_atom_site_fract_z
Si Si1 0.169340 0.052044 0.000000
Si Si2 0.078085 0.698397 0.671489
Si Si3 0.137850 0.862151 0.250000
Si Si4 0.666161 0.470968 0.820303
O O1 0.136475 0.105962 0.000000
O O2 0.222616 0.074188 0.139647
O O3 0.072619 0.674168 0.500000
O O4 0.112305 0.785461 0.672329
O O5 0.131235 0.680299 0.765672
O O6 0.000000 0.660973 0.750000
O O7 0.591349 0.408652 0.750000
O O8 0.730645 0.461290 0.750000
O O9 0.666293 0.466759 0.000000
#
# Coordination Sequence:
#
# PCOD9588845 Si02
#       4
#    12  24  12  24
#     4  12  25  44  66  98 136 190 244 310 370 438
#     4  12  26  45  72 104 140 182 236 295 357 426
#     4  12  26  42  67  98 138 180 242 292 365 428
#     4  12  26  47  74 107 146 189 236 287 349 421
#
# _framework density 20.551734
#
# number of rings (size 3 to 8) (size 9 to 14) (size 15 to 20)
#    0.000    0.000    3.333    7.500    4.667    0.667 
#    0.000    5.000    0.000    0.000    0.000    0.000 
#    0.000    0.000    0.000    0.000    0.000    0.000 
#
# Total GULP energy -403247.755012 kJ/mol
# GULP energy per Si atom -5600.663264 kJ/mol
# Density = 2.050496 g / cm^3
# Si number density = 20.551734 Si / 1000 Ang^3
#
#
#
# Elastic Constant Matrix: (Units=GPa)
#
#
# Indices 1 2 3 4 5 6 
#
# 1 116.5023 60.5125 46.9415 0.0000 0.0000 0.0000
# 2 60.5125 116.5023 46.9415 0.0000 0.0000 0.0000
# 3 46.9415 46.9415 198.3935 0.0000 0.0000 0.0000
# 4 0.0000 0.0000 0.0000 31.6867 0.0000 0.0000
# 5 0.0000 0.0000 0.0000 0.0000 31.6867 0.0000
# 6 0.0000 0.0000 0.0000 0.0000 0.0000 27.9949
#
#
#
# Elastic Compliance Matrix: (Units=1/GPa)
#
#
# Indices 1 2 3 4 5 6 
#
# 1 0.012160 -0.005700 -0.001528 0.000000 0.000000 0.000000
# 2 -0.005700 0.012160 -0.001528 0.000000 0.000000 0.000000
# 3 -0.001528 -0.001528 0.005764 0.000000 0.000000 0.000000
# 4 0.000000 0.000000 0.000000 0.031559 0.000000 0.000000
# 5 0.000000 0.000000 0.000000 0.000000 0.031559 0.000000
# 6 0.000000 0.000000 0.000000 0.000000 0.000000 0.035721
#
#
# Mechanical properties :
#
#
# Convention : Reuss Voigt Hill
#
# Bulk Modulus (GPa) = 79.55628 82.24323 80.89975
# Shear Modulus (GPa) = 33.19456 36.74050 34.96753
#
# Velocity S-wave (km/s) = 4.02328 4.23272 4.12933
# Velocity P-wave (km/s) = 7.77024 7.99952 7.88572
#
# Compressibility (1/GPa) = 0.01256972
#
# Stress axis : x y z
#
# Youngs Moduli (GPa) = 82.23589 82.23589 173.49723
#
# Poissons Ratio (x) = 0.46876 0.26518
# Poissons Ratio (y) = 0.46876 0.26518
# Poissons Ratio (z) = 0.12569 0.12569
#
# Static dielectric constant tensor:
#      x y z
#    x 1.696320 0.000000 0.000000 
#    y 0.000000 1.696320 0.000000 
#    z 0.000000 0.000000 1.728260 
# 
# From -- ./inp_files/535.got.cif
#   From: 2010.05.17/outbox.cif.g08.bks.cpg/sg192_1_cif.got.tgz:535.got - 2010.05.20 12:28:01.
