data_PCOD9588618
_publ_section_title
;
Structure prediction by ZEFSAII (Michael W. Deem and Ramdas Pophale) SiO2 
 PCOD9588618
Probable space group: P 6/M C C
;
_chemical_formula_sum "Si O2"
_cell_formula_units_Z 114
_cell_length_a 21.047223
_cell_length_b 21.047223
_cell_length_c 14.536290
_cell_angle_alpha 90.000000
_cell_angle_beta 90.000000
_cell_angle_gamma 120.000000
_cell_volume 5576.655484
_symmetry_space_group_name_H-M "P 6/M C C"
_symmetry_group_IT_number 192
_symmetry_cell_setting 'hexagonal'
loop_
_space_group_symop_operation_xyz
x,y,z
x-y,x,z
-y,x-y,z
-x,-y,z
-x+y,-x,z
y,-x+y,z
x-y,-y,1/2-z
-x,-x+y,1/2-z
y,x,1/2-z
-y,-x,1/2-z
-x+y,y,1/2-z
x,x-y,1/2-z
-x,-y,-z
-x+y,-x,-z
y,-x+y,-z
x,y,-z
x-y,x,-z
-y,x-y,-z
-x+y,y,1/2+z
x,x-y,1/2+z
-y,-x,1/2+z
y,x,1/2+z
x-y,-y,1/2+z
-x,-x+y,1/2+z
loop_
_atom_site_type_symbol
_atom_site_label
_atom_site_fract_x
_atom_site_fract_y
_atom_site_fract_z
Si Si1 0.570772 0.285386 0.250000
Si Si2 0.807567 0.554846 0.111445
Si Si3 0.119119 0.956344 0.387034
Si Si4 0.377843 0.972881 0.152582
Si Si5 0.500000 0.500000 0.000000
Si Si6 0.087472 0.323559 0.389359
O O1 0.627013 0.254026 0.250000
O O2 0.519124 0.266435 0.161446
O O3 0.888505 0.576223 0.146784
O O4 0.786796 0.616678 0.137157
O O5 0.806287 0.547906 0.000000
O O6 0.119999 0.956102 0.500000
O O7 0.178003 0.934600 0.354020
O O8 0.037644 0.897010 0.358413
O O9 0.416642 0.000000 0.250000
O O10 0.438109 0.985051 0.078552
O O11 0.344963 0.026735 0.135455
O O12 0.088447 0.320727 0.500000
#
# Coordination Sequence:
#
# PCOD9588618 Si02
#       6
#    12  24  24  24   6  24
#     4  10  26  48  66 100 131 174 229 286 356 442
#     4  11  23  44  71 100 139 186 236 295 360 443
#     4   9  16  27  50  88 135 187 236 288 336 399
#     4  12  25  44  70 103 139 182 233 295 359 436
#     4  12  26  48  64 106 132 176 224 284 372 426
#     4  10  20  38  64  95 137 182 233 290 354 419
#
# _framework density 20.442360999999998
#
# number of rings (size 3 to 8) (size 9 to 14) (size 15 to 20)
#    0.211    1.263    2.105    3.053    0.000    8.421 
#    0.000    0.000    0.000    0.000    0.000    0.000 
#    0.000    1.684    0.000    0.000    0.000    0.000 
#
# Total GULP energy -635650.026991 kJ/mol
# GULP energy per Si atom -5575.877430 kJ/mol
# Density = 2.039583 g / cm^3
# Si number density = 20.442361 Si / 1000 Ang^3
#
#
#
# Elastic Constant Matrix: (Units=GPa)
#
#
# Indices 1 2 3 4 5 6 
#
# 1 147.1605 116.5152 47.0276 0.0000 0.0000 0.0000
# 2 116.5152 147.1605 47.0276 0.0000 0.0000 0.0000
# 3 47.0276 47.0276 90.0528 0.0000 0.0000 0.0000
# 4 0.0000 0.0000 0.0000 -35.8487 0.0000 0.0000
# 5 0.0000 0.0000 0.0000 0.0000 -35.8487 0.0000
# 6 0.0000 0.0000 0.0000 0.0000 0.0000 15.3226
#
#
#
# Elastic Compliance Matrix: (Units=1/GPa)
#
#
# Indices 1 2 3 4 5 6 
#
# 1 0.018646 -0.013985 -0.002434 0.000000 0.000000 0.000000
# 2 -0.013985 0.018646 -0.002434 0.000000 0.000000 0.000000
# 3 -0.002434 -0.002434 0.013647 0.000000 0.000000 0.000000
# 4 0.000000 0.000000 0.000000 -0.027895 0.000000 0.000000
# 5 0.000000 0.000000 0.000000 0.000000 -0.027895 0.000000
# 6 0.000000 0.000000 0.000000 0.000000 0.000000 0.065263
#
#
# Mechanical properties :
#
#
# Convention : Reuss Voigt Hill
#
# Bulk Modulus (GPa) = 75.57193 89.50162 82.53678
# Shear Modulus (GPa) = 48.76659 0.31192 24.53925
#
# Velocity S-wave (km/s) = 4.88952 0.39104 3.46845
# Velocity P-wave (km/s) = 8.30212 6.63938 7.51686
#
# Compressibility (1/GPa) = 0.01323243
#
# Stress axis : x y z
#
# Youngs Moduli (GPa) = 53.63051 53.63051 73.27767
#
# Poissons Ratio (x) = 0.75004 0.17835
# Poissons Ratio (y) = 0.75004 0.17835
# Poissons Ratio (z) = 0.13053 0.13053
#
# Static dielectric constant tensor:
#      x y z
#    x 1.701400 0.000000 0.000000 
#    y 0.000000 1.701400 0.000000 
#    z 0.000000 0.000000 1.761750 
# 
# From -- ./inp_files/3006.got.cif
#   From: 2010.05.17/outbox.cif.g08.bks.cpg/sg192_2_cif.got.tgz:3006.got - 2010.05.20 12:28:01.
