data_PCOD9588886
_publ_section_title
;
Structure prediction by ZEFSAII (Michael W. Deem and Ramdas Pophale) SiO2 
 PCOD9588886
Probable space group: P 63/M C M
;
_chemical_formula_sum "Si O2"
_cell_formula_units_Z 84
_cell_length_a 17.498673
_cell_length_b 17.498673
_cell_length_c 17.488923
_cell_angle_alpha 90.000000
_cell_angle_beta 90.000000
_cell_angle_gamma 120.000000
_cell_volume 4637.713631
_symmetry_space_group_name_H-M "P 63/M C M"
_symmetry_group_IT_number 193
_symmetry_cell_setting 'hexagonal'
loop_
_space_group_symop_operation_xyz
x,y,z
x-y,x,1/2+z
-y,x-y,z
-x,-y,1/2+z
-x+y,-x,z
y,-x+y,1/2+z
x-y,-y,1/2-z
-x,-x+y,1/2-z
y,x,1/2-z
-y,-x,-z
-x+y,y,-z
x,x-y,-z
-x,-y,-z
-x+y,-x,1/2-z
y,-x+y,-z
x,y,1/2-z
x-y,x,-z
-y,x-y,1/2-z
-x+y,y,1/2+z
x,x-y,1/2+z
-y,-x,1/2+z
y,x,z
x-y,-y,z
-x,-x+y,z
loop_
_atom_site_type_symbol
_atom_site_label
_atom_site_fract_x
_atom_site_fract_y
_atom_site_fract_z
Si Si1 0.845135 0.512278 0.007551
Si Si2 0.904087 0.664361 0.883739
Si Si3 0.898912 0.284233 0.833623
Si Si4 0.097952 0.902049 0.500000
O O1 0.889943 0.585327 0.940715
O O2 0.742143 0.484286 0.000000
O O3 0.858719 0.429360 0.000000
O O4 0.880824 0.556579 0.090378
O O5 0.817073 0.637365 0.834983
O O6 0.000000 0.705107 0.845854
O O7 0.905931 0.739861 0.937695
O O8 0.894978 0.321521 0.750000
O O9 0.000000 0.303960 0.840561
O O10 0.000000 0.864688 0.468246
#
# Coordination Sequence:
#
# PCOD9588886 Si02
#       4
#    24  24  24  12
#     4  10  20  36  57  79 102 137 181 224 269 324
#     4  10  19  32  53  77 105 140 179 222 265 318
#     4  10  20  35  54  77 107 141 175 217 272 325
#     4  10  17  28  48  76 108 140 180 222 263 308
#
# _framework density 18.112373999999999
#
# number of rings (size 3 to 8) (size 9 to 14) (size 15 to 20)
#    0.000    2.000    4.286    2.143    0.000    2.857 
#    0.000    5.714    0.000    0.571    0.000    0.000 
#    0.000    0.000    0.000    0.000    0.000    0.000 
#
# Total GULP energy -467639.502452 kJ/mol
# GULP energy per Si atom -5567.136934 kJ/mol
# Density = 1.807115 g / cm^3
# Si number density = 18.112374 Si / 1000 Ang^3
#
#
#
# Elastic Constant Matrix: (Units=GPa)
#
#
# Indices 1 2 3 4 5 6 
#
# 1 1982.2312-1825.0813 37.9418 0.0000 0.0000 0.0000
# 2 -1825.0813 1982.2312 37.9418 0.0000 0.0000 0.0000
# 3 37.9418 37.9418 102.1498 0.0000 0.0000 0.0000
# 4 0.0000 0.0000 0.0000 4.4946 0.0000 0.0000
# 5 0.0000 0.0000 0.0000 0.0000 4.4946 0.0000
# 6 0.0000 0.0000 0.0000 0.0000 0.0000 1903.6562
#
#
#
# Elastic Compliance Matrix: (Units=1/GPa)
#
#
# Indices 1 2 3 4 5 6 
#
# 1 0.004008 0.003746 -0.002880 0.000000 0.000000 0.000000
# 2 0.003746 0.004008 -0.002880 0.000000 0.000000 0.000000
# 3 -0.002880 -0.002880 0.011929 0.000000 0.000000 0.000000
# 4 0.000000 0.000000 0.000000 0.222488 0.000000 0.000000
# 5 0.000000 0.000000 0.000000 0.000000 0.222488 0.000000
# 6 0.000000 0.000000 0.000000 0.000000 0.000000 0.000525
#
#
# Mechanical properties :
#
#
# Convention : Reuss Voigt Hill
#
# Bulk Modulus (GPa) = 62.82681 63.13519 62.98100
# Shear Modulus (GPa) = 10.53117 770.24976 390.39047
#
# Velocity S-wave (km/s) = 2.41391 20.64424 14.69714
# Velocity P-wave (km/s) = 6.52164 24.55972 17.96819
#
# Compressibility (1/GPa) = 0.01591677
#
# Stress axis : x y z
#
# Youngs Moduli (GPa) = 249.47800 249.47800 83.82875
#
# Poissons Ratio (x) = -0.93447 0.24144
# Poissons Ratio (y) = -0.93447 0.24144
# Poissons Ratio (z) = 0.71853 0.71853
#
# Static dielectric constant tensor:
#      x y z
#    x 1.637730 0.000000 0.000000 
#    y 0.000000 1.637730 0.000000 
#    z 0.000000 0.000000 1.624690 
# 
# From -- ./inp_files/3334.got.cif
#   From: 2010.05.17/outbox.cif.g08.bks.cpg/sg193_2_cif.got.tgz:3334.got - 2010.05.20 12:33:02.
