data_PCOD9588008
_publ_section_title
;
Structure prediction by ZEFSAII (Michael W. Deem and Ramdas Pophale) SiO2 
 PCOD9588008
Probable space group: P 6/M M M
;
_chemical_formula_sum "Si O2"
_cell_formula_units_Z 84
_cell_length_a 22.421780
_cell_length_b 22.421780
_cell_length_c 10.817099
_cell_angle_alpha 90.000000
_cell_angle_beta 90.000000
_cell_angle_gamma 120.000000
_cell_volume 4709.573837
_symmetry_space_group_name_H-M "P 6/M M M"
_symmetry_group_IT_number 191
_symmetry_cell_setting 'hexagonal'
loop_
_space_group_symop_operation_xyz
x,y,z
x-y,x,z
-y,x-y,z
-x,-y,z
-x+y,-x,z
y,-x+y,z
x-y,-y,-z
-x,-x+y,-z
y,x,-z
-y,-x,-z
-x+y,y,-z
x,x-y,-z
-x,-y,-z
-x+y,-x,-z
y,-x+y,-z
x,y,-z
x-y,x,-z
-y,x-y,-z
-x+y,y,z
x,x-y,z
-y,-x,z
y,x,z
x-y,-y,z
-x,-x+y,z
loop_
_atom_site_type_symbol
_atom_site_label
_atom_site_fract_x
_atom_site_fract_y
_atom_site_fract_z
Si Si1 0.214734 0.294502 0.360670
Si Si2 0.665501 0.196127 0.500000
Si Si3 0.190554 0.525677 0.225573
Si Si4 0.304443 0.920113 0.863820
O O1 0.236593 0.325236 0.500000
O O2 0.134212 0.268424 0.351436
O O3 0.236528 0.236528 0.349678
O O4 0.253053 0.347863 0.250329
O O5 0.742911 0.257090 0.500000
O O6 0.613089 0.226177 0.500000
O O7 0.654132 0.161499 0.367122
O O8 0.263768 0.527536 0.219961
O O9 0.200742 0.600371 0.196180
O O10 0.133976 0.464795 0.144055
O O11 0.363720 0.000000 0.851406
O O12 0.272281 0.913390 0.000000
#
# Coordination Sequence:
#
# PCOD9588008 Si02
#       4
#    24  12  24  24
#     4   9  18  33  55  81 108 139 175 215 256 301
#     4   8  15  28  47  71  97 127 160 197 243 299
#     4  10  20  34  53  76 103 134 170 213 262 316
#     4  10  22  38  54  74 103 139 176 215 261 311
#
# _framework density 17.836009000000001
#
# number of rings (size 3 to 8) (size 9 to 14) (size 15 to 20)
#    0.000    2.571    0.000    1.286    2.000    5.714 
#    0.000    1.429    0.000    4.571    0.000    2.000 
#    0.000    0.000    0.000    7.143    0.000    7.429 
#
# Total GULP energy -467715.003017 kJ/mol
# GULP energy per Si atom -5568.035750 kJ/mol
# Density = 1.779541 g / cm^3
# Si number density = 17.836009 Si / 1000 Ang^3
#
#
#
# Elastic Constant Matrix: (Units=GPa)
#
#
# Indices 1 2 3 4 5 6 
#
# 1 74.6182 46.3581 47.4447 0.0000 0.0000 0.0000
# 2 46.3581 74.6182 47.4447 0.0000 0.0000 0.0000
# 3 47.4447 47.4447 115.3729 0.0000 0.0000 0.0000
# 4 0.0000 0.0000 0.0000 15.6944 0.0000 0.0000
# 5 0.0000 0.0000 0.0000 0.0000 15.6944 0.0000
# 6 0.0000 0.0000 0.0000 0.0000 0.0000 14.1301
#
#
#
# Elastic Compliance Matrix: (Units=1/GPa)
#
#
# Indices 1 2 3 4 5 6 
#
# 1 0.023794 -0.011592 -0.005018 0.000000 0.000000 0.000000
# 2 -0.011592 0.023794 -0.005018 0.000000 0.000000 0.000000
# 3 -0.005018 -0.005018 0.012794 0.000000 0.000000 0.000000
# 4 0.000000 0.000000 0.000000 0.063717 0.000000 0.000000
# 5 0.000000 0.000000 0.000000 0.000000 0.063717 0.000000
# 6 0.000000 0.000000 0.000000 0.000000 0.000000 0.070771
#
#
# Mechanical properties :
#
#
# Convention : Reuss Voigt Hill
#
# Bulk Modulus (GPa) = 58.38703 60.78936 59.58820
# Shear Modulus (GPa) = 16.25747 17.32789 16.79268
#
# Velocity S-wave (km/s) = 3.02238 3.12029 3.07172
# Velocity P-wave (km/s) = 6.70718 6.86571 6.78691
#
# Compressibility (1/GPa) = 0.01712709
#
# Stress axis : x y z
#
# Youngs Moduli (GPa) = 42.02799 42.02799 78.15907
#
# Poissons Ratio (x) = 0.48718 0.39218
# Poissons Ratio (y) = 0.48718 0.39218
# Poissons Ratio (z) = 0.21089 0.21089
#
# Static dielectric constant tensor:
#      x y z
#    x 1.589550 0.000000 0.000000 
#    y 0.000000 1.589550 0.000000 
#    z 0.000000 0.000000 1.688580 
# 
# From -- ./inp_files/2414.got.cif
#   From: 2010.05.17/outbox.cif.g08.bks.cpg/sg191_2_cif.got.tgz:2414.got - 2010.05.20 12:20:32.
