data_PCOD9588942
_publ_section_title
;
Structure prediction by ZEFSAII (Michael W. Deem and Ramdas Pophale) SiO2 
 PCOD9588942
Probable space group: P 63/M C M
;
_chemical_formula_sum "Si O2"
_cell_formula_units_Z 104
_cell_length_a 16.620807
_cell_length_b 16.620807
_cell_length_c 28.486215
_cell_angle_alpha 90.000000
_cell_angle_beta 90.000000
_cell_angle_gamma 120.000000
_cell_volume 6815.058569
_symmetry_space_group_name_H-M "P 63/M C M"
_symmetry_group_IT_number 193
_symmetry_cell_setting 'hexagonal'
loop_
_space_group_symop_operation_xyz
x,y,z
x-y,x,1/2+z
-y,x-y,z
-x,-y,1/2+z
-x+y,-x,z
y,-x+y,1/2+z
x-y,-y,1/2-z
-x,-x+y,1/2-z
y,x,1/2-z
-y,-x,-z
-x+y,y,-z
x,x-y,-z
-x,-y,-z
-x+y,-x,1/2-z
y,-x+y,-z
x,y,1/2-z
x-y,x,-z
-y,x-y,1/2-z
-x+y,y,1/2+z
x,x-y,1/2+z
-y,-x,1/2+z
y,x,z
x-y,-y,z
-x,-x+y,z
loop_
_atom_site_type_symbol
_atom_site_label
_atom_site_fract_x
_atom_site_fract_y
_atom_site_fract_z
Si Si1 0.726806 0.726806 0.693643
Si Si2 0.846867 0.513024 0.806811
Si Si3 0.333333 0.666667 0.806734
Si Si4 0.218595 0.109655 0.947467
Si Si5 0.000000 0.541453 0.306582
Si Si6 0.707815 0.893384 0.650592
O O1 0.726016 0.726016 0.750000
O O2 0.633384 0.633384 0.676465
O O3 0.725504 0.817530 0.675800
O O4 0.852052 0.527259 0.750000
O O5 0.742317 0.437128 0.820415
O O6 0.879299 0.609968 0.831887
O O7 0.911297 0.468831 0.818964
O O8 0.333334 0.666668 0.750000
O O9 0.139730 0.139730 0.948261
O O10 0.286859 0.166341 0.905192
O O11 0.171282 0.000000 0.938067
O O12 0.259897 0.129949 0.000000
O O13 0.000000 0.547006 0.250000
O O14 0.785293 0.000000 0.661211
#
# Coordination Sequence:
#
# PCOD9588942 Si02
#       6
#    12  24   8  24  12  24
#     4  11  22  34  48  70 103 141 173 198 238 300
#     4  10  18  31  49  71  99 128 165 210 251 289
#     4   9  18  30  48  72  94 125 172 216 249 288
#     4   9  17  31  51  73  95 125 167 216 257 287
#     4   9  18  32  50  70  96 133 170 206 244 286
#     4  11  21  33  49  72 102 135 168 202 249 303
#
# _framework density 15.260323
#
# number of rings (size 3 to 8) (size 9 to 14) (size 15 to 20)
#    0.000    2.077    2.308    2.308    0.000    6.000 
#    0.692    0.000    0.000    0.000    0.000    8.077 
#    0.000    0.000    0.000    0.000    0.000    0.000 
#
# Total GULP energy -579538.655182 kJ/mol
# GULP energy per Si atom -5572.487069 kJ/mol
# Density = 1.522559 g / cm^3
# Si number density = 15.260323 Si / 1000 Ang^3
#
#
#
# Elastic Constant Matrix: (Units=GPa)
#
#
# Indices 1 2 3 4 5 6 
#
# 1 98.1326 57.4910 43.3025 0.0000 0.0000 -0.0001
# 2 57.4910 98.1321 43.3025 0.0000 0.0000 0.0000
# 3 43.3025 43.3025 75.2403 0.0000 0.0000 0.0000
# 4 0.0000 0.0000 0.0000 13.1324 0.0000 0.0000
# 5 0.0000 0.0000 0.0000 0.0000 13.1323 0.0000
# 6 -0.0001 0.0000 0.0000 0.0000 0.0000 20.3207
#
#
#
# Elastic Compliance Matrix: (Units=1/GPa)
#
#
# Indices 1 2 3 4 5 6 
#
# 1 0.017029 -0.007576 -0.005441 0.000000 0.000000 0.000000
# 2 -0.007576 0.017030 -0.005441 0.000000 0.000000 0.000000
# 3 -0.005441 -0.005441 0.019553 0.000000 0.000000 0.000000
# 4 0.000000 0.000000 0.000000 0.076147 0.000000 0.000000
# 5 0.000000 0.000000 0.000000 0.000000 0.076148 0.000000
# 6 0.000000 0.000000 0.000000 0.000000 0.000000 0.049211
#
#
# Mechanical properties :
#
#
# Convention : Reuss Voigt Hill
#
# Bulk Modulus (GPa) = 59.88935 62.18854 61.03894
# Shear Modulus (GPa) = 16.80112 17.81103 17.30607
#
# Velocity S-wave (km/s) = 3.32168 3.42006 3.37123
# Velocity P-wave (km/s) = 7.35131 7.51239 7.43229
#
# Compressibility (1/GPa) = 0.01669746
#
# Stress axis : x y z
#
# Youngs Moduli (GPa) = 58.72177 58.72136 51.14232
#
# Poissons Ratio (x) = 0.44487 0.27825
# Poissons Ratio (y) = 0.44487 0.27825
# Poissons Ratio (z) = 0.31949 0.31949
#
# Static dielectric constant tensor:
#      x y z
#    x 1.514710 0.000000 0.000000 
#    y 0.000000 1.514710 0.000000 
#    z 0.000000 0.000000 1.497950 
# 
# From -- ./inp_files/8889.got.cif
#   From: 2010.05.17/outbox.cif.g08.bks.cpg/sg193_5_cif.got.tgz:8889.got - 2010.05.20 12:33:02.
