data_PCOD9588986
_publ_section_title
;
Structure prediction by ZEFSAII (Michael W. Deem and Ramdas Pophale) SiO2 
 PCOD9588986
Probable space group: P 63/M C M
;
_chemical_formula_sum "Si O2"
_cell_formula_units_Z 96
_cell_length_a 28.566465
_cell_length_b 28.566465
_cell_length_c 8.115639
_cell_angle_alpha 90.000000
_cell_angle_beta 90.000000
_cell_angle_gamma 120.000000
_cell_volume 5735.434901
_symmetry_space_group_name_H-M "P 63/M C M"
_symmetry_group_IT_number 193
_symmetry_cell_setting 'hexagonal'
loop_
_space_group_symop_operation_xyz
x,y,z
x-y,x,1/2+z
-y,x-y,z
-x,-y,1/2+z
-x+y,-x,z
y,-x+y,1/2+z
x-y,-y,1/2-z
-x,-x+y,1/2-z
y,x,1/2-z
-y,-x,-z
-x+y,y,-z
x,x-y,-z
-x,-y,-z
-x+y,-x,1/2-z
y,-x+y,-z
x,y,1/2-z
x-y,x,-z
-y,x-y,1/2-z
-x+y,y,1/2+z
x,x-y,1/2+z
-y,-x,1/2+z
y,x,z
x-y,-y,z
-x,-x+y,z
loop_
_atom_site_type_symbol
_atom_site_label
_atom_site_fract_x
_atom_site_fract_y
_atom_site_fract_z
Si Si1 0.226951 0.060649 0.551729
Si Si2 0.439713 0.166593 0.550757
Si Si3 0.665439 0.726494 0.951242
Si Si4 0.666368 0.227664 0.053738
O O1 0.216414 0.108207 0.500000
O O2 0.227188 0.059451 0.750000
O O3 0.286147 0.071824 0.497452
O O4 0.183943 0.000000 0.494270
O O5 0.427187 0.213594 0.500000
O O6 0.440210 0.164932 0.750000
O O7 0.392376 0.108675 0.491448
O O8 0.500629 0.186377 0.490937
O O9 0.664836 0.726285 0.750000
O O10 0.683490 0.683490 0.002665
O O11 0.667106 0.226350 0.250000
O O12 0.712593 0.287408 0.000000
O O13 0.607869 0.215738 0.000000
#
# Coordination Sequence:
#
# PCOD9588986 Si02
#       4
#    24  24  24  24
#     4   9  17  28  43  64  88 113 140 171 208 248
#     4   9  17  28  44  65  86 111 141 172 208 248
#     4   8  14  26  44  65  88 112 139 171 205 245
#     4  10  19  30  44  63  86 111 140 173 210 250
#
# _framework density 16.738050000000001
#
# number of rings (size 3 to 8) (size 9 to 14) (size 15 to 20)
#    0.000    3.000    0.000    3.250    0.000    1.500 
#    0.000    0.000    0.000    3.250    0.000    0.000 
#    0.000    0.000    0.000    0.000    0.000    0.750 
#
# Total GULP energy -534866.929717 kJ/mol
# GULP energy per Si atom -5571.530518 kJ/mol
# Density = 1.669995 g / cm^3
# Si number density = 16.738050 Si / 1000 Ang^3
#
#
#
# Elastic Constant Matrix: (Units=GPa)
#
#
# Indices 1 2 3 4 5 6 
#
# 1 144.8974 98.1669 10.7920 0.0000 0.0000 0.0000
# 2 98.1669 144.8974 10.7920 0.0000 0.0000 0.0000
# 3 10.7920 10.7920 10.7423 0.0000 0.0000 0.0000
# 4 0.0000 0.0000 0.0000 10.9576 0.0000 0.0000
# 5 0.0000 0.0000 0.0000 0.0000 10.9576 0.0000
# 6 0.0000 0.0000 0.0000 0.0000 0.0000 23.3653
#
#
#
# Elastic Compliance Matrix: (Units=1/GPa)
#
#
# Indices 1 2 3 4 5 6 
#
# 1 0.012958 -0.008441 -0.004538 0.000000 0.000000 0.000000
# 2 -0.008441 0.012958 -0.004538 0.000000 0.000000 0.000000
# 3 -0.004538 -0.004538 0.102208 0.000000 0.000000 0.000000
# 4 0.000000 0.000000 0.000000 0.091261 0.000000 0.000000
# 5 0.000000 0.000000 0.000000 0.000000 0.091261 0.000000
# 6 0.000000 0.000000 0.000000 0.000000 0.000000 0.042799
#
#
# Mechanical properties :
#
#
# Convention : Reuss Voigt Hill
#
# Bulk Modulus (GPa) = 10.74224 60.00431 35.37327
# Shear Modulus (GPa) = 11.91870 21.10853 16.51361
#
# Velocity S-wave (km/s) = 2.67136 3.55506 3.14441
# Velocity P-wave (km/s) = 3.99333 7.26486 5.86195
#
# Compressibility (1/GPa) = 0.09309046
#
# Stress axis : x y z
#
# Youngs Moduli (GPa) = 77.17127 77.17127 9.78394
#
# Poissons Ratio (x) = 0.65141 0.04440
# Poissons Ratio (y) = 0.65141 0.04440
# Poissons Ratio (z) = 0.35020 0.35020
#
# Static dielectric constant tensor:
#      x y z
#    x 1.568900 0.000000 0.000000 
#    y 0.000000 1.568900 0.000000 
#    z 0.000000 0.000000 1.594140 
# 
# From -- ./inp_files/2264.got.cif
#   From: 2010.05.17/outbox.cif.g08.bks.cpg/sg193_2_cif.got.tgz:2264.got - 2010.05.20 12:33:02.
