data_PCOD9588415
_publ_section_title
;
Structure prediction by ZEFSAII (Michael W. Deem and Ramdas Pophale) SiO2 
 PCOD9588415
Probable space group: P 6/M C C
;
_chemical_formula_sum "Si O2"
_cell_formula_units_Z 144
_cell_length_a 32.827115
_cell_length_b 32.827115
_cell_length_c 8.516581
_cell_angle_alpha 90.000000
_cell_angle_beta 90.000000
_cell_angle_gamma 120.000000
_cell_volume 7948.063829
_symmetry_space_group_name_H-M "P 6/M C C"
_symmetry_group_IT_number 192
_symmetry_cell_setting 'hexagonal'
loop_
_space_group_symop_operation_xyz
x,y,z
x-y,x,z
-y,x-y,z
-x,-y,z
-x+y,-x,z
y,-x+y,z
x-y,-y,1/2-z
-x,-x+y,1/2-z
y,x,1/2-z
-y,-x,1/2-z
-x+y,y,1/2-z
x,x-y,1/2-z
-x,-y,-z
-x+y,-x,-z
y,-x+y,-z
x,y,-z
x-y,x,-z
-y,x-y,-z
-x+y,y,1/2+z
x,x-y,1/2+z
-y,-x,1/2+z
y,x,1/2+z
x-y,-y,1/2+z
-x,-x+y,1/2+z
loop_
_atom_site_type_symbol
_atom_site_label
_atom_site_fract_x
_atom_site_fract_y
_atom_site_fract_z
Si Si1 0.950326 0.521393 0.687641
Si Si2 0.424928 0.758279 0.812175
Si Si3 0.192449 0.142151 0.811948
Si Si4 0.397350 0.152546 0.310396
Si Si5 0.487384 0.341805 0.810698
Si Si6 0.101436 0.295539 0.810683
O O1 0.948118 0.474059 0.750000
O O2 0.950870 0.521616 0.500000
O O3 0.903714 0.519826 0.750189
O O4 0.000000 0.563791 0.750000
O O5 0.375150 0.750300 0.750000
O O6 0.433284 0.716642 0.750000
O O7 0.465976 0.809134 0.753907
O O8 0.424384 0.757387 0.000000
O O9 0.153694 0.153694 0.750000
O O10 0.186838 0.093419 0.750000
O O11 0.244446 0.184179 0.758955
O O12 0.191447 0.140678 0.000000
O O13 0.401392 0.200696 0.250000
O O14 0.397836 0.153909 0.500000
O O15 0.441920 0.148842 0.259206
O O16 0.346172 0.109341 0.260126
O O17 0.490052 0.343453 0.000000
O O18 0.148243 0.296486 0.750000
O O19 0.101127 0.295194 0.000000
#
# Coordination Sequence:
#
# PCOD9588415 Si02
#       6
#    24  24  24  24  24  24
#     4  11  22  39  61  83 106 135 172 218 270 326
#     4  12  25  42  61  84 114 150 192 239 291 345
#     4  10  19  32  52  77 107 140 180 224 270 318
#     4   9  18  32  52  76 107 143 180 221 266 316
#     4  11  22  37  57  84 115 148 185 227 274 330
#     4   8  15  29  48  71  98 132 170 210 253 301
#
# _framework density 18.117621
#
# number of rings (size 3 to 8) (size 9 to 14) (size 15 to 20)
#    0.000    1.833    0.000    5.667    0.000    3.333 
#    0.000    0.833    0.000    2.167    0.000    1.167 
#    0.000    0.000    0.000    0.000    0.000    0.000 
#
# Total GULP energy -803299.487516 kJ/mol
# GULP energy per Si atom -5578.468663 kJ/mol
# Density = 1.807638 g / cm^3
# Si number density = 18.117621 Si / 1000 Ang^3
#
#
#
# Elastic Constant Matrix: (Units=GPa)
#
#
# Indices 1 2 3 4 5 6 
#
# 1 123.4136 68.0596 39.7037 0.0000 0.0000 0.0000
# 2 68.0596 123.4136 39.7037 0.0000 0.0000 0.0000
# 3 39.7037 39.7037 91.3790 0.0000 0.0000 0.0000
# 4 0.0000 0.0000 0.0000 17.8387 0.0000 0.0000
# 5 0.0000 0.0000 0.0000 0.0000 17.8387 0.0000
# 6 0.0000 0.0000 0.0000 0.0000 0.0000 27.6770
#
#
#
# Elastic Compliance Matrix: (Units=1/GPa)
#
#
# Indices 1 2 3 4 5 6 
#
# 1 0.012218 -0.005847 -0.002768 0.000000 0.000000 0.000000
# 2 -0.005847 0.012218 -0.002768 0.000000 0.000000 0.000000
# 3 -0.002768 -0.002768 0.013349 0.000000 0.000000 0.000000
# 4 0.000000 0.000000 0.000000 0.056058 0.000000 0.000000
# 5 0.000000 0.000000 0.000000 0.000000 0.056058 0.000000
# 6 0.000000 0.000000 0.000000 0.000000 0.000000 0.036131
#
#
# Mechanical properties :
#
#
# Convention : Reuss Voigt Hill
#
# Bulk Modulus (GPa) = 66.58671 70.34894 68.46783
# Shear Modulus (GPa) = 23.38584 25.38683 24.38633
#
# Velocity S-wave (km/s) = 3.59664 3.74735 3.67277
# Velocity P-wave (km/s) = 7.35391 7.59189 7.47385
#
# Compressibility (1/GPa) = 0.01501801
#
# Stress axis : x y z
#
# Youngs Moduli (GPa) = 81.84600 81.84600 74.91317
#
# Poissons Ratio (x) = 0.47859 0.20736
# Poissons Ratio (y) = 0.47859 0.20736
# Poissons Ratio (z) = 0.22655 0.22655
#
# Static dielectric constant tensor:
#      x y z
#    x 1.622730 0.000000 0.000000 
#    y 0.000000 1.622730 0.000000 
#    z 0.000000 0.000000 1.620920 
# 
# From -- ./inp_files/1194.got.cif
#   From: 2010.05.17/outbox.cif.g08.bks.cpg/sg192_1_cif.got.tgz:1194.got - 2010.05.20 12:28:01.
