data_PCOD9588352
_publ_section_title
;
Structure prediction by ZEFSAII (Michael W. Deem and Ramdas Pophale) SiO2 
 PCOD9588352
Probable space group: P 6/M C C
;
_chemical_formula_sum "Si O2"
_cell_formula_units_Z 156
_cell_length_a 22.420518
_cell_length_b 22.420518
_cell_length_c 18.063726
_cell_angle_alpha 90.000000
_cell_angle_beta 90.000000
_cell_angle_gamma 120.000000
_cell_volume 7863.741943
_symmetry_space_group_name_H-M "P 6/M C C"
_symmetry_group_IT_number 192
_symmetry_cell_setting 'hexagonal'
loop_
_space_group_symop_operation_xyz
x,y,z
x-y,x,z
-y,x-y,z
-x,-y,z
-x+y,-x,z
y,-x+y,z
x-y,-y,1/2-z
-x,-x+y,1/2-z
y,x,1/2-z
-y,-x,1/2-z
-x+y,y,1/2-z
x,x-y,1/2-z
-x,-y,-z
-x+y,-x,-z
y,-x+y,-z
x,y,-z
x-y,x,-z
-y,x-y,-z
-x+y,y,1/2+z
x,x-y,1/2+z
-y,-x,1/2+z
y,x,1/2+z
x-y,-y,1/2+z
-x,-x+y,1/2+z
loop_
_atom_site_type_symbol
_atom_site_label
_atom_site_fract_x
_atom_site_fract_y
_atom_site_fract_z
Si Si1 0.583772 0.744031 0.418860
Si Si2 0.249956 0.327066 0.262482
Si Si3 0.566923 0.960237 0.912071
Si Si4 0.141690 0.276473 0.872675
Si Si5 0.716215 0.519055 0.309901
Si Si6 0.835938 0.909649 0.500000
Si Si7 0.403560 0.509019 0.589270
O O1 0.553510 0.720225 0.500000
O O2 0.591574 0.682466 0.383452
O O3 0.657553 0.811129 0.422362
O O4 0.538333 0.766012 0.373480
O O5 0.311515 0.311515 0.250000
O O6 0.194601 0.290189 0.195539
O O7 0.205153 0.287482 0.335675
O O8 0.270678 0.407338 0.275216
O O9 0.484558 0.921589 0.901930
O O10 0.602534 0.038773 0.886980
O O11 0.579750 0.968104 0.000000
O O12 0.115270 0.211006 0.925355
O O13 0.741886 0.483771 0.250000
O O14 0.643772 0.479985 0.352371
O O15 0.885620 0.877720 0.500000
O O16 0.387399 0.507661 0.500000
#
# Coordination Sequence:
#
# PCOD9588352 Si02
#       7
#    24  24  24  24  24  12  24
#     4  10  18  34  54  82 115 144 182 237 295 349
#     4  10  20  36  54  75 110 156 187 231 285 347
#     4   8  17  34  58  83 115 146 189 237 290 346
#     4  10  20  37  55  81 109 143 187 237 294 347
#     4  11  21  33  50  79 118 152 188 233 285 339
#     4  12  25  42  60  84 114 149 195 255 303 357
#     4   9  18  35  56  84 112 154 195 236 288 352
#
# _framework density 19.837883999999999
#
# number of rings (size 3 to 8) (size 9 to 14) (size 15 to 20)
#    0.000    2.154    3.846    2.385    2.154    0.000 
#    0.000    0.769    0.000    2.462    0.000    7.538 
#    0.000    0.000    0.000    0.000    0.000    0.000 
#
# Total GULP energy -868684.540411 kJ/mol
# GULP energy per Si atom -5568.490644 kJ/mol
# Density = 1.979273 g / cm^3
# Si number density = 19.837884 Si / 1000 Ang^3
#
#
#
# Elastic Constant Matrix: (Units=GPa)
#
#
# Indices 1 2 3 4 5 6 
#
# 1 27.0113 -3.0020 15.3676 0.0000 0.0000 0.0000
# 2 -3.0020 27.0113 15.3676 0.0000 0.0000 0.0000
# 3 15.3676 15.3676 87.1663 0.0000 0.0000 0.0000
# 4 0.0000 0.0000 0.0000 24.8677 0.0000 0.0000
# 5 0.0000 0.0000 0.0000 0.0000 24.8677 0.0000
# 6 0.0000 0.0000 0.0000 0.0000 0.0000 15.0066
#
#
#
# Elastic Compliance Matrix: (Units=1/GPa)
#
#
# Indices 1 2 3 4 5 6 
#
# 1 0.043554 0.010236 -0.009483 0.000000 0.000000 0.000000
# 2 0.010236 0.043554 -0.009483 0.000000 0.000000 0.000000
# 3 -0.009483 -0.009483 0.014816 0.000000 0.000000 0.000000
# 4 0.000000 0.000000 0.000000 0.040213 0.000000 0.000000
# 5 0.000000 0.000000 0.000000 0.000000 0.040213 0.000000
# 6 0.000000 0.000000 0.000000 0.000000 0.000000 0.066637
#
#
# Mechanical properties :
#
#
# Convention : Reuss Voigt Hill
#
# Bulk Modulus (GPa) = 11.83943 21.85060 16.84501
# Shear Modulus (GPa) = 16.97193 20.51212 18.74202
#
# Velocity S-wave (km/s) = 2.92812 3.21906 3.07703
# Velocity P-wave (km/s) = 4.17288 4.98547 4.59716
#
# Compressibility (1/GPa) = 0.08446356
#
# Stress axis : x y z
#
# Youngs Moduli (GPa) = 22.95975 22.95975 67.49373
#
# Poissons Ratio (x) = -0.23501 0.64007
# Poissons Ratio (y) = -0.23501 0.64007
# Poissons Ratio (z) = 0.21774 0.21774
#
# Static dielectric constant tensor:
#      x y z
#    x 1.712410 0.000000 0.000000 
#    y 0.000000 1.712410 0.000000 
#    z 0.000000 0.000000 1.667590 
# 
# From -- ./inp_files/5269.got.cif
#   From: 2010.05.17/outbox.cif.g08.bks.cpg/sg192_3_cif.got.tgz:5269.got - 2010.05.20 12:28:01.
