data_PCOD9588089
_publ_section_title
;
Structure prediction by ZEFSAII (Michael W. Deem and Ramdas Pophale) SiO2 
 PCOD9588089
Probable space group: P 6/M M M
;
_chemical_formula_sum "Si O2"
_cell_formula_units_Z 138
_cell_length_a 32.129618
_cell_length_b 32.129618
_cell_length_c 7.903438
_cell_angle_alpha 90.000000
_cell_angle_beta 90.000000
_cell_angle_gamma 120.000000
_cell_volume 7065.742507
_symmetry_space_group_name_H-M "P 6/M M M"
_symmetry_group_IT_number 191
_symmetry_cell_setting 'hexagonal'
loop_
_space_group_symop_operation_xyz
x,y,z
x-y,x,z
-y,x-y,z
-x,-y,z
-x+y,-x,z
y,-x+y,z
x-y,-y,-z
-x,-x+y,-z
y,x,-z
-y,-x,-z
-x+y,y,-z
x,x-y,-z
-x,-y,-z
-x+y,-x,-z
y,-x+y,-z
x,y,-z
x-y,x,-z
-y,x-y,-z
-x+y,y,z
x,x-y,z
-y,-x,z
y,x,z
x-y,-y,z
-x,-x+y,z
loop_
_atom_site_type_symbol
_atom_site_label
_atom_site_fract_x
_atom_site_fract_y
_atom_site_fract_z
Si Si1 0.000000 0.830346 0.709904
Si Si2 0.086152 0.272455 0.696592
Si Si3 0.521804 0.946470 0.704558
Si Si4 0.572049 0.333367 0.701844
Si Si5 0.899792 0.000000 0.000000
Si Si6 0.764884 0.140569 0.296841
Si Si7 0.672736 0.146200 0.804321
O O1 0.954292 0.778997 0.759958
O O2 0.000000 0.838091 0.500000
O O3 0.000000 0.870881 0.829665
O O4 0.072519 0.271853 0.500000
O O5 0.136909 0.273818 0.702942
O O6 0.098170 0.324138 0.769978
O O7 0.523137 0.944281 0.500000
O O8 0.470801 0.941602 0.750451
O O9 0.525714 0.902725 0.776848
O O10 0.562562 0.000000 0.756735
O O11 0.578558 0.333654 0.500000
O O12 0.572107 0.286054 0.769531
O O13 0.616892 0.383109 0.768883
O O14 0.520905 0.329970 0.727034
O O15 0.903581 0.951791 0.000000
O O16 0.769934 0.140199 0.500000
O O17 0.808614 0.191387 0.233731
O O18 0.715223 0.138345 0.263006
O O19 0.681943 0.157343 0.000000
#
# Coordination Sequence:
#
# PCOD9588089 Si02
#       7
#    12  24  24  24   6  24  24
#     4  10  20  39  67  97 126 162 213 269 317 371
#     4   8  15  31  57  86 113 144 187 239 293 346
#     4   9  19  38  62  82  99 129 179 232 278 330
#     4  10  21  38  60  83 108 143 192 248 299 350
#     4  12  27  44  64  96 136 180 224 266 315 372
#     4   9  18  35  57  78 106 148 194 237 283 336
#     4  12  24  35  51  81 117 151 184 225 283 355
#
# _framework density 19.530856
#
# number of rings (size 3 to 8) (size 9 to 14) (size 15 to 20)
#    0.000    2.261    0.000    4.913    0.000    7.652 
#    3.130    0.870    0.000    1.565    0.000    0.000 
#    0.000    0.000    0.000    0.000    0.000    0.000 
#
# Total GULP energy -769362.000968 kJ/mol
# GULP energy per Si atom -5575.086964 kJ/mol
# Density = 1.948640 g / cm^3
# Si number density = 19.530856 Si / 1000 Ang^3
#
#
#
# Elastic Constant Matrix: (Units=GPa)
#
#
# Indices 1 2 3 4 5 6 
#
# 1 128.0124 83.9541 19.6328 0.0000 0.0000 0.0000
# 2 83.9541 128.0124 19.6328 0.0000 0.0000 0.0000
# 3 19.6328 19.6328 39.0551 0.0000 0.0000 0.0000
# 4 0.0000 0.0000 0.0000 -137.0267 0.0000 0.0000
# 5 0.0000 0.0000 0.0000 0.0000 -137.0267 0.0000
# 6 0.0000 0.0000 0.0000 0.0000 0.0000 22.0291
#
#
#
# Elastic Compliance Matrix: (Units=1/GPa)
#
#
# Indices 1 2 3 4 5 6 
#
# 1 0.013950 -0.008748 -0.002615 0.000000 0.000000 0.000000
# 2 -0.008748 0.013950 -0.002615 0.000000 0.000000 0.000000
# 3 -0.002615 -0.002615 0.028234 0.000000 0.000000 0.000000
# 4 0.000000 0.000000 0.000000 -0.007298 0.000000 0.000000
# 5 0.000000 0.000000 0.000000 0.000000 -0.007298 0.000000
# 6 0.000000 0.000000 0.000000 0.000000 0.000000 0.045394
#
#
# Mechanical properties :
#
#
# Convention : Reuss Voigt Hill
#
# Bulk Modulus (GPa) = 35.48872 60.16883 47.82877
# Shear Modulus (GPa) = 40.23166 -38.94751 0.64208
#
# Velocity S-wave (km/s) = 4.54354 -4.47044 0.57399
# Velocity P-wave (km/s) = 6.76277 2.05609 4.99813
#
# Compressibility (1/GPa) = 0.02817797
#
# Stress axis : x y z
#
# Youngs Moduli (GPa) = 71.68623 71.68623 35.41824
#
# Poissons Ratio (x) = 0.62708 0.09262
# Poissons Ratio (y) = 0.62708 0.09262
# Poissons Ratio (z) = 0.18747 0.18747
#
# Static dielectric constant tensor:
#      x y z
#    x 1.722050 0.000000 0.000000 
#    y 0.000000 1.722050 0.000000 
#    z 0.000000 0.000000 1.710640 
# 
# From -- ./inp_files/2017.got.cif
#   From: 2010.05.17/outbox.cif.g08.bks.cpg/sg191_2_cif.got.tgz:2017.got - 2010.05.20 12:20:32.
