data_PCOD9588419
_publ_section_title
;
Structure prediction by ZEFSAII (Michael W. Deem and Ramdas Pophale) SiO2 
 PCOD9588419
Probable space group: P 6/M C C
;
_chemical_formula_sum "Si O2"
_cell_formula_units_Z 144
_cell_length_a 20.328774
_cell_length_b 20.328774
_cell_length_c 18.828908
_cell_angle_alpha 90.000000
_cell_angle_beta 90.000000
_cell_angle_gamma 120.000000
_cell_volume 6738.731314
_symmetry_space_group_name_H-M "P 6/M C C"
_symmetry_group_IT_number 192
_symmetry_cell_setting 'hexagonal'
loop_
_space_group_symop_operation_xyz
x,y,z
x-y,x,z
-y,x-y,z
-x,-y,z
-x+y,-x,z
y,-x+y,z
x-y,-y,1/2-z
-x,-x+y,1/2-z
y,x,1/2-z
-y,-x,1/2-z
-x+y,y,1/2-z
x,x-y,1/2-z
-x,-y,-z
-x+y,-x,-z
y,-x+y,-z
x,y,-z
x-y,x,-z
-y,x-y,-z
-x+y,y,1/2+z
x,x-y,1/2+z
-y,-x,1/2+z
y,x,1/2+z
x-y,-y,1/2+z
-x,-x+y,1/2+z
loop_
_atom_site_type_symbol
_atom_site_label
_atom_site_fract_x
_atom_site_fract_y
_atom_site_fract_z
Si Si1 0.153228 0.603171 0.500000
Si Si2 0.031562 0.713229 0.582431
Si Si3 0.297696 0.424527 0.129834
Si Si4 0.994663 0.848308 0.914387
Si Si5 0.088981 0.554742 0.351579
Si Si6 0.911829 0.315773 0.722531
Si Si7 0.732278 0.221934 0.500000
O O1 0.102537 0.588424 0.430714
O O2 0.222670 0.688148 0.500000
O O3 0.186592 0.545696 0.500000
O O4 0.057678 0.719725 0.500000
O O5 0.954052 0.632893 0.593638
O O6 0.009988 0.778301 0.596330
O O7 0.085827 0.720044 0.647400
O O8 0.375335 0.503003 0.146494
O O9 0.265655 0.395922 0.208597
O O10 0.250624 0.440203 0.071354
O O11 0.919797 0.847913 0.886947
O O12 0.995354 0.856796 0.000000
O O13 0.115248 0.624119 0.297701
O O14 0.000000 0.500000 0.338890
O O15 0.000000 0.363832 0.750000
#
# Coordination Sequence:
#
# PCOD9588419 Si02
#       7
#    12  24  24  24  24  24  12
#     4  10  24  36  62  85 112 165 206 261 304 346
#     4  10  19  32  52  87 126 164 192 242 317 371
#     4  10  20  35  59  83 123 167 198 250 302 368
#     4   9  18  35  59  87 116 156 207 255 300 358
#     4  11  19  33  58  92 119 149 207 257 303 367
#     4  10  20  32  57  86 123 163 194 244 312 371
#     4  10  21  44  58  83 124 159 216 254 299 365
#
# _framework density 21.369008000000001
#
# number of rings (size 3 to 8) (size 9 to 14) (size 15 to 20)
#    0.000    2.000    4.167    1.083    1.167    0.667 
#    3.000    0.833    3.667    3.000    0.000    2.333 
#    0.000   12.000    0.000    0.000    0.000    0.000 
#
# Total GULP energy -803716.941356 kJ/mol
# GULP energy per Si atom -5581.367648 kJ/mol
# Density = 2.132037 g / cm^3
# Si number density = 21.369008 Si / 1000 Ang^3
#
#
#
# Elastic Constant Matrix: (Units=GPa)
#
#
# Indices 1 2 3 4 5 6 
#
# 1 43.9780 16.9266 36.0291 0.0000 0.0000 0.0000
# 2 16.9266 43.9780 36.0291 0.0000 0.0000 0.0000
# 3 36.0291 36.0291 174.3068 0.0000 0.0000 0.0000
# 4 0.0000 0.0000 0.0000 11.0794 0.0000 0.0000
# 5 0.0000 0.0000 0.0000 0.0000 11.0794 0.0000
# 6 0.0000 0.0000 0.0000 0.0000 0.0000 13.5257
#
#
#
# Elastic Compliance Matrix: (Units=1/GPa)
#
#
# Indices 1 2 3 4 5 6 
#
# 1 0.029351 -0.007616 -0.004492 0.000000 0.000000 0.000000
# 2 -0.007616 0.029351 -0.004492 0.000000 0.000000 0.000000
# 3 -0.004492 -0.004492 0.007594 0.000000 0.000000 0.000000
# 4 0.000000 0.000000 0.000000 0.090258 0.000000 0.000000
# 5 0.000000 0.000000 0.000000 0.000000 0.090258 0.000000
# 6 0.000000 0.000000 0.000000 0.000000 0.000000 0.073933
#
#
# Mechanical properties :
#
#
# Convention : Reuss Voigt Hill
#
# Bulk Modulus (GPa) = 30.21794 48.91472 39.56633
# Shear Modulus (GPa) = 13.69948 18.68875 16.19411
#
# Velocity S-wave (km/s) = 2.53472 2.96053 2.75586
# Velocity P-wave (km/s) = 4.76845 5.88443 5.35559
#
# Compressibility (1/GPa) = 0.03309292
#
# Stress axis : x y z
#
# Youngs Moduli (GPa) = 34.07094 34.07094 131.67956
#
# Poissons Ratio (x) = 0.25949 0.59157
# Poissons Ratio (y) = 0.25949 0.59157
# Poissons Ratio (z) = 0.15306 0.15306
#
# Static dielectric constant tensor:
#      x y z
#    x 1.769210 0.000000 0.000000 
#    y 0.000000 1.769210 0.000000 
#    z 0.000000 0.000000 1.824750 
# 
# From -- ./inp_files/4387.got.cif
#   From: 2010.05.17/outbox.cif.g08.bks.cpg/sg192_3_cif.got.tgz:4387.got - 2010.05.20 12:28:01.
