data_PCOD9588900
_publ_section_title
;
Structure prediction by ZEFSAII (Michael W. Deem and Ramdas Pophale) SiO2 
 PCOD9588900
Probable space group: P 63/M C M
;
_chemical_formula_sum "Si O2"
_cell_formula_units_Z 152
_cell_length_a 25.503096
_cell_length_b 25.503096
_cell_length_c 16.088829
_cell_angle_alpha 90.000000
_cell_angle_beta 90.000000
_cell_angle_gamma 120.000000
_cell_volume 9062.350995
_symmetry_space_group_name_H-M "P 63/M C M"
_symmetry_group_IT_number 193
_symmetry_cell_setting 'hexagonal'
loop_
_space_group_symop_operation_xyz
x,y,z
x-y,x,1/2+z
-y,x-y,z
-x,-y,1/2+z
-x+y,-x,z
y,-x+y,1/2+z
x-y,-y,1/2-z
-x,-x+y,1/2-z
y,x,1/2-z
-y,-x,-z
-x+y,y,-z
x,x-y,-z
-x,-y,-z
-x+y,-x,1/2-z
y,-x+y,-z
x,y,1/2-z
x-y,x,-z
-y,x-y,1/2-z
-x+y,y,1/2+z
x,x-y,1/2+z
-y,-x,1/2+z
y,x,z
x-y,-y,z
-x,-x+y,z
loop_
_atom_site_type_symbol
_atom_site_label
_atom_site_fract_x
_atom_site_fract_y
_atom_site_fract_z
Si Si1 0.296891 0.824877 0.401124
Si Si2 0.340246 0.233619 0.658284
Si Si3 0.893373 0.233619 0.841716
Si Si4 0.597210 0.194418 0.150327
Si Si5 0.824879 0.296892 0.598875
Si Si6 0.191453 0.257538 1.000000
Si Si7 0.666668 0.333334 0.148729
O O1 0.283794 0.874156 0.359368
O O2 0.361662 0.832828 0.380092
O O3 0.242415 0.757583 0.374526
O O4 0.291008 0.828588 0.499999
O O5 0.320910 0.241943 0.750000
O O6 0.341308 0.170654 0.659048
O O7 0.297116 0.225269 0.581480
O O8 0.921033 0.241943 0.750000
O O9 0.874157 0.283794 0.859369
O O10 0.928154 0.225269 0.918520
O O11 0.596977 0.193952 0.250000
O O12 0.638337 0.167170 0.119906
O O13 0.632133 0.264260 0.120596
O O14 0.198673 0.198673 0.999999
O O15 0.123202 0.246404 0.000000
O O16 0.666667 0.333334 0.250000
#
# Coordination Sequence:
#
# PCOD9588900 Si02
#       7
#    24  24  24  24  24  24   8
#     4  10  18  28  41  60  89 127 173 222 273 327
#     4   9  17  31  51  74 102 136 173 215 259 300
#     4   9  17  31  51  74 102 136 173 215 259 300
#     4  11  19  27  37  55  85 128 176 222 277 339
#     4  10  18  28  41  60  89 127 173 222 273 327
#     4  10  20  36  58  86 117 143 169 199 235 281
#     4   9  18  27  31  47  85 123 172 224 274 337
#
# _framework density 16.772689
#
# number of rings (size 3 to 8) (size 9 to 14) (size 15 to 20)
#    0.000    2.211    3.158    1.421    0.000    1.895 
#    0.000    0.000    0.000    0.158    0.000    2.211 
#    0.000    3.789    0.000    7.895    0.000    0.000 
#
# Total GULP energy -847357.431804 kJ/mol
# GULP energy per Si atom -5574.719946 kJ/mol
# Density = 1.673451 g / cm^3
# Si number density = 16.772689 Si / 1000 Ang^3
#
#
#
# Elastic Constant Matrix: (Units=GPa)
#
#
# Indices 1 2 3 4 5 6 
#
# 1 63.0311 37.1666 27.2415 0.0000 0.0000 0.0000
# 2 37.1666 63.0310 27.2415 0.0000 0.0000 0.0000
# 3 27.2415 27.2415 107.3364 0.0000 0.0000 0.0000
# 4 0.0000 0.0000 0.0000 -1.7406 0.0000 0.0000
# 5 0.0000 0.0000 0.0000 0.0000 -1.7406 0.0000
# 6 0.0000 0.0000 0.0000 0.0000 0.0000 12.9322
#
#
#
# Elastic Compliance Matrix: (Units=1/GPa)
#
#
# Indices 1 2 3 4 5 6 
#
# 1 0.025121 -0.013543 -0.002938 0.000000 0.000000 0.000000
# 2 -0.013543 0.025121 -0.002938 0.000000 0.000000 0.000000
# 3 -0.002938 -0.002938 0.010808 0.000000 0.000000 0.000000
# 4 0.000000 0.000000 0.000000 -0.574503 -0.000003 0.000000
# 5 0.000000 0.000000 0.000000 -0.000003 -0.574529 0.000000
# 6 0.000000 0.000000 0.000000 0.000000 0.000000 0.077326
#
#
# Mechanical properties :
#
#
# Convention : Reuss Voigt Hill
#
# Bulk Modulus (GPa) = 45.02408 46.29976 45.66192
# Shear Modulus (GPa) = -5.18449 11.34013 3.07782
#
# Velocity S-wave (km/s) = -1.76004 2.60303 1.35610
# Velocity P-wave (km/s) = 4.77196 6.05793 5.45299
#
# Compressibility (1/GPa) = 0.02221034
#
# Stress axis : x y z
#
# Youngs Moduli (GPa) = 39.80802 39.80789 92.52367
#
# Poissons Ratio (x) = 0.53910 0.27188
# Poissons Ratio (y) = 0.53910 0.27188
# Poissons Ratio (z) = 0.11697 0.11697
#
# Static dielectric constant tensor:
#      x y z
#    x 1.551520 0.000000 0.000000 
#    y 0.000000 1.551520 0.000000 
#    z 0.000000 0.000000 1.597790 
# 
# From -- ./inp_files/4332.got.cif
#   From: 2010.05.17/outbox.cif.g08.bks.cpg/sg193_3_cif.got.tgz:4332.got - 2010.05.20 12:33:02.
