data_PCOD9588097
_publ_section_title
;
Structure prediction by ZEFSAII (Michael W. Deem and Ramdas Pophale) SiO2 
 PCOD9588097
Probable space group: P 6/M M M
;
_chemical_formula_sum "Si O2"
_cell_formula_units_Z 192
_cell_length_a 22.864273
_cell_length_b 22.864273
_cell_length_c 26.216851
_cell_angle_alpha 90.000000
_cell_angle_beta 90.000000
_cell_angle_gamma 120.000000
_cell_volume 11869.323082
_symmetry_space_group_name_H-M "P 6/M M M"
_symmetry_group_IT_number 191
_symmetry_cell_setting 'hexagonal'
loop_
_space_group_symop_operation_xyz
x,y,z
x-y,x,z
-y,x-y,z
-x,-y,z
-x+y,-x,z
y,-x+y,z
x-y,-y,-z
-x,-x+y,-z
y,x,-z
-y,-x,-z
-x+y,y,-z
x,x-y,-z
-x,-y,-z
-x+y,-x,-z
y,-x+y,-z
x,y,-z
x-y,x,-z
-y,x-y,-z
-x+y,y,z
x,x-y,z
-y,-x,z
y,x,z
x-y,-y,z
-x,-x+y,z
loop_
_atom_site_type_symbol
_atom_site_label
_atom_site_fract_x
_atom_site_fract_y
_atom_site_fract_z
Si Si1 0.921649 0.212248 0.816328
Si Si2 0.205969 0.281189 0.296811
Si Si3 0.531645 0.922287 0.646091
Si Si4 0.610136 0.078938 0.236826
Si Si5 0.707507 0.786104 0.410597
Si Si6 0.287277 0.437335 0.853435
Si Si7 0.848299 0.558580 0.443550
Si Si8 0.531071 0.922184 0.059834
O O1 0.867492 0.132509 0.820856
O O2 0.915250 0.232388 0.757379
O O3 0.895455 0.251334 0.851265
O O4 0.000000 0.236598 0.824770
O O5 0.127694 0.255387 0.297037
O O6 0.220432 0.220432 0.296667
O O7 0.232226 0.316717 0.351076
O O8 0.460810 0.921620 0.644871
O O9 0.540320 0.905490 0.704501
O O10 0.531743 0.873655 0.602699
O O11 0.589539 0.000000 0.636164
O O12 0.541501 0.083002 0.233303
O O13 0.663306 0.127146 0.195357
O O14 0.586533 0.000000 0.226844
O O15 0.731254 0.865627 0.417126
O O16 0.761894 0.761894 0.419899
O O17 0.639929 0.744200 0.442592
O O18 0.227376 0.454752 0.851191
O O19 0.332776 0.462510 0.903687
O O20 0.852940 0.533625 0.500000
O O21 0.772434 0.544868 0.435857
O O22 0.457957 0.915913 0.065734
O O23 0.585073 0.000000 0.073923
O O24 0.540074 0.912988 0.000000
#
# Coordination Sequence:
#
# PCOD9588097 Si02
#       8
#    24  24  24  24  24  24  24  24
#     4   9  17  27  40  62  92 123 155 192 237 283
#     4   8  14  24  37  54  77 108 143 178 218 265
#     4   9  19  34  52  75  98 121 151 191 243 293
#     4   9  18  33  52  72  96 126 160 199 239 281
#     4   9  17  28  43  62  86 117 151 187 227 272
#     4  11  21  29  45  74 104 133 161 193 239 289
#     4  10  21  34  48  68  94 123 153 187 230 284
#     4   9  18  34  56  77  96 125 167 210 246 280
#
# _framework density 16.176155000000001
#
# number of rings (size 3 to 8) (size 9 to 14) (size 15 to 20)
#    0.000    2.750    0.000    3.000    1.750    3.000 
#    0.000    0.625    0.000    2.625    0.000    3.500 
#    0.000    0.000    0.000    3.125    0.000    3.250 
#
# Total GULP energy -1069221.525914 kJ/mol
# GULP energy per Si atom -5568.862114 kJ/mol
# Density = 1.613934 g / cm^3
# Si number density = 16.176155 Si / 1000 Ang^3
#
#
#
# Elastic Constant Matrix: (Units=GPa)
#
#
# Indices 1 2 3 4 5 6 
#
# 1 67.6269 26.9997 47.9238 0.0000 0.0000 0.0000
# 2 26.9997 67.6269 47.9238 0.0000 0.0000 0.0000
# 3 47.9238 47.9238 94.4204 0.0000 0.0000 0.0000
# 4 0.0000 0.0000 0.0000 21.0302 0.0000 0.0000
# 5 0.0000 0.0000 0.0000 0.0000 21.0302 0.0000
# 6 0.0000 0.0000 0.0000 0.0000 0.0000 20.3136
#
#
#
# Elastic Compliance Matrix: (Units=1/GPa)
#
#
# Indices 1 2 3 4 5 6 
#
# 1 0.023182 -0.001432 -0.011039 0.000000 0.000000 0.000000
# 2 -0.001432 0.023182 -0.011039 0.000000 0.000000 0.000000
# 3 -0.011039 -0.011039 0.021797 0.000000 0.000000 0.000000
# 4 0.000000 0.000000 0.000000 0.047551 0.000000 0.000000
# 5 0.000000 0.000000 0.000000 0.000000 0.047551 0.000000
# 6 0.000000 0.000000 0.000000 0.000000 0.000000 0.049228
#
#
# Mechanical properties :
#
#
# Convention : Reuss Voigt Hill
#
# Bulk Modulus (GPa) = 47.30517 52.81875 50.06196
# Shear Modulus (GPa) = 18.75772 19.59660 19.17716
#
# Velocity S-wave (km/s) = 3.40897 3.48437 3.44687
# Velocity P-wave (km/s) = 6.69343 6.99363 6.84518
#
# Compressibility (1/GPa) = 0.02113934
#
# Stress axis : x y z
#
# Youngs Moduli (GPa) = 43.13747 43.13747 45.87827
#
# Poissons Ratio (x) = 0.06179 0.50645
# Poissons Ratio (y) = 0.06179 0.50645
# Poissons Ratio (z) = 0.47620 0.47620
#
# Static dielectric constant tensor:
#      x y z
#    x 1.539570 0.000000 0.000000 
#    y 0.000000 1.539570 0.000000 
#    z 0.000000 0.000000 1.581150 
# 
# From -- ./inp_files/9309.got.cif
#   From: 2010.05.17/outbox.cif.g08.bks.cpg/sg191_5_cif.got.tgz:9309.got - 2010.05.20 12:20:32.
