data_PCOD9588119
_publ_section_title
;
Structure prediction by ZEFSAII (Michael W. Deem and Ramdas Pophale) SiO2 
 PCOD9588119
Probable space group: P 6/M M M
;
_chemical_formula_sum "Si O2"
_cell_formula_units_Z 144
_cell_length_a 32.657343
_cell_length_b 32.657343
_cell_length_c 7.677816
_cell_angle_alpha 90.000000
_cell_angle_beta 90.000000
_cell_angle_gamma 120.000000
_cell_volume 7091.368061
_symmetry_space_group_name_H-M "P 6/M M M"
_symmetry_group_IT_number 191
_symmetry_cell_setting 'hexagonal'
loop_
_space_group_symop_operation_xyz
x,y,z
x-y,x,z
-y,x-y,z
-x,-y,z
-x+y,-x,z
y,-x+y,z
x-y,-y,-z
-x,-x+y,-z
y,x,-z
-y,-x,-z
-x+y,y,-z
x,x-y,-z
-x,-y,-z
-x+y,-x,-z
y,-x+y,-z
x,y,-z
x-y,x,-z
-y,x-y,-z
-x+y,y,z
x,x-y,z
-y,-x,z
y,x,z
x-y,-y,z
-x,-x+y,z
loop_
_atom_site_type_symbol
_atom_site_label
_atom_site_fract_x
_atom_site_fract_y
_atom_site_fract_z
Si Si1 0.573206 0.333346 0.709733
Si Si2 0.145248 0.946932 0.210415
Si Si3 0.706821 0.947411 0.291542
Si Si4 0.855319 0.332295 0.207168
Si Si5 0.478882 0.052846 0.212545
Si Si6 0.237545 0.854588 0.293043
O O1 0.576505 0.333049 0.500000
O O2 0.569120 0.284560 0.774074
O O3 0.620732 0.379269 0.774538
O O4 0.527061 0.336745 0.751317
O O5 0.095236 0.904765 0.274366
O O6 0.187695 0.937467 0.259004
O O7 0.161449 0.000000 0.272228
O O8 0.143327 0.947345 0.000000
O O9 0.702017 0.949600 0.500000
O O10 0.658287 0.904444 0.221016
O O11 0.723992 0.000000 0.221039
O O12 0.903671 0.376970 0.275860
O O13 0.848789 0.282908 0.270428
O O14 0.859666 0.332650 0.000000
O O15 0.529763 0.059525 0.263032
O O16 0.439429 0.000000 0.267521
O O17 0.478331 0.053207 0.000000
O O18 0.230192 0.855771 0.500000
O O19 0.190471 0.809530 0.220804
#
# Coordination Sequence:
#
# PCOD9588119 Si02
#       6
#    24  24  24  24  24  24
#     4  10  21  38  59  80 103 133 168 204 246 300
#     4   9  17  29  46  69  97 128 162 203 252 303
#     4   9  18  33  53  75  97 124 163 211 258 301
#     4  11  22  34  52  79 106 132 167 209 248 287
#     4   8  15  30  51  73  98 128 160 195 239 289
#     4  10  21  36  51  68  97 137 171 197 236 294
#
# _framework density 20.306380000000001
#
# number of rings (size 3 to 8) (size 9 to 14) (size 15 to 20)
#    0.000    2.500    0.000    2.667    0.000    6.667 
#    0.000    0.000    0.000    2.667    0.000    7.000 
#    0.000    0.000    0.000    4.167    0.000    4.333 
#
# Total GULP energy -803877.203272 kJ/mol
# GULP energy per Si atom -5582.480578 kJ/mol
# Density = 2.026016 g / cm^3
# Si number density = 20.306380 Si / 1000 Ang^3
#
#
#
# Elastic Constant Matrix: (Units=GPa)
#
#
# Indices 1 2 3 4 5 6 
#
# 1 152.9561 86.9562 -2.0546 0.0000 0.0000 0.0000
# 2 86.9562 152.9561 -2.0546 0.0000 0.0000 0.0000
# 3 -2.0546 -2.0546 35.1661 0.0000 0.0000 0.0000
# 4 0.0000 0.0000 0.0000 17.9545 0.0000 0.0000
# 5 0.0000 0.0000 0.0000 0.0000 17.9545 0.0000
# 6 0.0000 0.0000 0.0000 0.0000 0.0000 32.9999
#
#
#
# Elastic Compliance Matrix: (Units=1/GPa)
#
#
# Indices 1 2 3 4 5 6 
#
# 1 0.009662 -0.005490 0.000244 0.000000 0.000000 0.000000
# 2 -0.005490 0.009662 0.000244 0.000000 0.000000 0.000000
# 3 0.000244 0.000244 0.028465 0.000000 0.000000 0.000000
# 4 0.000000 0.000000 0.000000 0.055696 0.000000 0.000000
# 5 0.000000 0.000000 0.000000 0.000000 0.055696 0.000000
# 6 0.000000 0.000000 0.000000 0.000000 0.000000 0.030303
#
#
# Mechanical properties :
#
#
# Convention : Reuss Voigt Hill
#
# Bulk Modulus (GPa) = 26.46570 56.30804 41.38687
# Shear Modulus (GPa) = 23.57558 30.99718 27.28638
#
# Velocity S-wave (km/s) = 3.41103 3.91125 3.66968
# Velocity P-wave (km/s) = 5.34556 6.94166 6.19523
#
# Compressibility (1/GPa) = 0.03778476
#
# Stress axis : x y z
#
# Youngs Moduli (GPa) = 103.49865 103.49865 35.13093
#
# Poissons Ratio (x) = 0.56817 -0.00856
# Poissons Ratio (y) = 0.56817 -0.00856
# Poissons Ratio (z) = -0.02523 -0.02523
#
# Static dielectric constant tensor:
#      x y z
#    x 1.708160 0.000000 0.000000 
#    y 0.000000 1.708160 0.000000 
#    z 0.000000 0.000000 1.765900 
# 
# From -- ./inp_files/1986.got.cif
#   From: 2010.05.17/outbox.cif.g08.bks.cpg/sg191_1_cif.got.tgz:1986.got - 2010.05.20 12:20:32.
