data_PCOD9588894
_publ_section_title
;
Structure prediction by ZEFSAII (Michael W. Deem and Ramdas Pophale) SiO2 
 PCOD9588894
Probable space group: P 63/M C M
;
_chemical_formula_sum "Si O2"
_cell_formula_units_Z 168
_cell_length_a 29.138897
_cell_length_b 29.138897
_cell_length_c 15.963107
_cell_angle_alpha 90.000000
_cell_angle_beta 90.000000
_cell_angle_gamma 120.000000
_cell_volume 11738.004537
_symmetry_space_group_name_H-M "P 63/M C M"
_symmetry_group_IT_number 193
_symmetry_cell_setting 'hexagonal'
loop_
_space_group_symop_operation_xyz
x,y,z
x-y,x,1/2+z
-y,x-y,z
-x,-y,1/2+z
-x+y,-x,z
y,-x+y,1/2+z
x-y,-y,1/2-z
-x,-x+y,1/2-z
y,x,1/2-z
-y,-x,-z
-x+y,y,-z
x,x-y,-z
-x,-y,-z
-x+y,-x,1/2-z
y,-x+y,-z
x,y,1/2-z
x-y,x,-z
-y,x-y,1/2-z
-x+y,y,1/2+z
x,x-y,1/2+z
-y,-x,1/2+z
y,x,z
x-y,-y,z
-x,-x+y,z
loop_
_atom_site_type_symbol
_atom_site_label
_atom_site_fract_x
_atom_site_fract_y
_atom_site_fract_z
Si Si1 0.303847 0.204653 0.843116
Si Si2 0.207964 0.901522 0.844855
Si Si3 0.518896 0.579857 0.351198
Si Si4 0.938335 0.617411 0.408137
Si Si5 0.935773 0.418206 0.651447
Si Si6 0.059603 0.832228 0.499392
Si Si7 0.381633 0.319802 0.606364
O O1 0.280411 0.199318 0.750000
O O2 0.319189 0.158898 0.851516
O O3 0.263329 0.194879 0.918288
O O4 0.354287 0.262739 0.851876
O O5 0.207030 0.919952 0.750000
O O6 0.264952 0.907748 0.862385
O O7 0.195546 0.932286 0.917178
O O8 0.517760 0.577009 0.250000
O O9 0.551004 0.551004 0.382965
O O10 0.458239 0.542227 0.379369
O O11 0.556391 0.640597 0.375669
O O12 0.918482 0.555805 0.392006
O O13 0.937346 0.625592 0.507020
O O14 0.000000 0.650207 0.379965
O O15 0.923855 0.407990 0.750000
O O16 0.000000 0.452487 0.643600
O O17 0.106768 0.893233 0.500000
O O18 0.000000 0.820989 0.499680
O O19 0.349727 0.349727 0.634659
#
# Coordination Sequence:
#
# PCOD9588894 Si02
#       7
#    24  24  24  24  24  24  24
#     4  10  20  32  46  64  87 115 145 179 218 259
#     4  10  20  32  46  64  87 115 145 179 218 259
#     4   8  14  24  36  51  74 105 140 175 207 237
#     4  10  18  26  39  59  81 108 142 176 210 250
#     4   8  14  24  36  51  74 105 140 175 207 237
#     4  10  20  34  50  69  91 113 141 175 213 259
#     4  10  18  26  39  59  81 108 142 176 210 250
#
# _framework density 14.312484
#
# number of rings (size 3 to 8) (size 9 to 14) (size 15 to 20)
#    0.000    2.571    1.429    2.571    0.000    4.000 
#    0.000    2.857    0.000    0.143    0.000    0.000 
#    0.000    0.000    0.000    8.000    0.000   16.571 
#
# Total GULP energy -935382.736717 kJ/mol
# GULP energy per Si atom -5567.754385 kJ/mol
# Density = 1.427991 g / cm^3
# Si number density = 14.312484 Si / 1000 Ang^3
#
#
#
# Elastic Constant Matrix: (Units=GPa)
#
#
# Indices 1 2 3 4 5 6 
#
# 1 69.4431 31.3938 27.2781 0.0000 0.0000 0.0000
# 2 31.3938 69.4431 27.2781 0.0000 0.0000 0.0000
# 3 27.2781 27.2781 68.5540 0.0000 0.0000 0.0000
# 4 0.0000 0.0000 0.0000 11.2603 0.0000 0.0000
# 5 0.0000 0.0000 0.0000 0.0000 11.2603 0.0000
# 6 0.0000 0.0000 0.0000 0.0000 0.0000 19.0246
#
#
#
# Elastic Compliance Matrix: (Units=1/GPa)
#
#
# Indices 1 2 3 4 5 6 
#
# 1 0.019460 -0.006822 -0.005029 0.000000 0.000000 0.000000
# 2 -0.006822 0.019460 -0.005029 0.000000 0.000000 0.000000
# 3 -0.005029 -0.005029 0.018589 0.000000 0.000000 0.000000
# 4 0.000000 0.000000 0.000000 0.088807 0.000000 0.000000
# 5 0.000000 0.000000 0.000000 0.000000 0.088807 0.000000
# 6 0.000000 0.000000 0.000000 0.000000 0.000000 0.052563
#
#
# Mechanical properties :
#
#
# Convention : Reuss Voigt Hill
#
# Bulk Modulus (GPa) = 42.10569 42.14889 42.12729
# Shear Modulus (GPa) = 15.18089 16.40840 15.79465
#
# Velocity S-wave (km/s) = 3.26033 3.38959 3.32559
# Velocity P-wave (km/s) = 6.60725 6.69567 6.65161
#
# Compressibility (1/GPa) = 0.02374976
#
# Stress axis : x y z
#
# Youngs Moduli (GPa) = 51.38830 51.38830 53.79561
#
# Poissons Ratio (x) = 0.35057 0.27052
# Poissons Ratio (y) = 0.35057 0.27052
# Poissons Ratio (z) = 0.25841 0.25841
#
# Static dielectric constant tensor:
#      x y z
#    x 1.472510 0.000000 0.000000 
#    y 0.000000 1.472510 0.000000 
#    z 0.000000 0.000000 1.508790 
# 
# From -- ./inp_files/4446.got.cif
#   From: 2010.05.17/outbox.cif.g08.bks.cpg/sg193_3_cif.got.tgz:4446.got - 2010.05.20 12:33:02.
