data_PCOD9588533
_publ_section_title
;
Structure prediction by ZEFSAII (Michael W. Deem and Ramdas Pophale) SiO2 
 PCOD9588533
Probable space group: P 6/M C C
;
_chemical_formula_sum "Si O2"
_cell_formula_units_Z 144
_cell_length_a 22.410650
_cell_length_b 22.410650
_cell_length_c 17.315516
_cell_angle_alpha 90.000000
_cell_angle_beta 90.000000
_cell_angle_gamma 120.000000
_cell_volume 7531.387197
_symmetry_space_group_name_H-M "P 6/M C C"
_symmetry_group_IT_number 192
_symmetry_cell_setting 'hexagonal'
loop_
_space_group_symop_operation_xyz
x,y,z
x-y,x,z
-y,x-y,z
-x,-y,z
-x+y,-x,z
y,-x+y,z
x-y,-y,1/2-z
-x,-x+y,1/2-z
y,x,1/2-z
-y,-x,1/2-z
-x+y,y,1/2-z
x,x-y,1/2-z
-x,-y,-z
-x+y,-x,-z
y,-x+y,-z
x,y,-z
x-y,x,-z
-y,x-y,-z
-x+y,y,1/2+z
x,x-y,1/2+z
-y,-x,1/2+z
y,x,1/2+z
x-y,-y,1/2+z
-x,-x+y,1/2+z
loop_
_atom_site_type_symbol
_atom_site_label
_atom_site_fract_x
_atom_site_fract_y
_atom_site_fract_z
Si Si1 0.582509 0.581224 0.588698
Si Si2 0.385829 0.518941 0.680766
Si Si3 0.872931 0.568010 0.681895
Si Si4 0.712236 0.792839 0.244719
Si Si5 0.353032 0.256082 0.919009
Si Si6 0.500822 0.266567 0.087290
O O1 0.557285 0.569645 0.500000
O O2 0.574280 0.512165 0.630868
O O3 0.560898 0.628557 0.637173
O O4 0.665079 0.628551 0.583854
O O5 0.430498 0.569503 0.750000
O O6 0.328014 0.456102 0.730793
O O7 0.342128 0.543248 0.627870
O O8 0.892582 0.647513 0.694664
O O9 0.799843 0.517492 0.640418
O O10 0.759342 0.759342 0.250000
O O11 0.748595 0.874298 0.250000
O O12 0.683812 0.778676 0.158233
O O13 0.425885 0.259024 0.921695
O O14 0.316067 0.224391 0.000000
O O15 0.525534 0.264188 0.000000
#
# Coordination Sequence:
#
# PCOD9588533 Si02
#       6
#    24  24  24  24  24  24
#     4  10  20  34  52  82 121 154 184 231 294 356
#     4  11  22  37  57  80 113 158 199 236 284 353
#     4  12  19  34  59  87 114 147 194 239 302 361
#     4  12  20  34  53  83 119 156 200 250 292 350
#     4   9  17  30  50  79 115 152 181 226 290 346
#     4  10  20  36  57  84 115 149 187 242 301 354
#
# _framework density 19.119983999999999
#
# number of rings (size 3 to 8) (size 9 to 14) (size 15 to 20)
#    0.000    1.333    6.667    3.000    0.000    1.333 
#    0.000    5.000    0.000    2.833    0.000    0.000 
#    0.000    0.000    0.000    1.500    0.000    0.000 
#
# Total GULP energy -802269.570082 kJ/mol
# GULP energy per Si atom -5571.316459 kJ/mol
# Density = 1.907647 g / cm^3
# Si number density = 19.119984 Si / 1000 Ang^3
#
#
#
# Elastic Constant Matrix: (Units=GPa)
#
#
# Indices 1 2 3 4 5 6 
#
# 1 51.9578 24.7119 25.0198 0.0000 0.0000 0.0000
# 2 24.7119 51.9578 25.0198 0.0000 0.0000 0.0000
# 3 25.0198 25.0198 136.3221 0.0000 0.0000 0.0000
# 4 0.0000 0.0000 0.0000 21.2235 0.0000 0.0000
# 5 0.0000 0.0000 0.0000 0.0000 21.2235 0.0000
# 6 0.0000 0.0000 0.0000 0.0000 0.0000 13.6230
#
#
#
# Elastic Compliance Matrix: (Units=1/GPa)
#
#
# Indices 1 2 3 4 5 6 
#
# 1 0.025760 -0.010942 -0.002720 0.000000 0.000000 0.000000
# 2 -0.010942 0.025760 -0.002720 0.000000 0.000000 0.000000
# 3 -0.002720 -0.002720 0.008334 0.000000 0.000000 0.000000
# 4 0.000000 0.000000 0.000000 0.047118 0.000000 0.000000
# 5 0.000000 0.000000 0.000000 0.000000 0.047118 0.000000
# 6 0.000000 0.000000 0.000000 0.000000 0.000000 0.073405
#
#
# Mechanical properties :
#
#
# Convention : Reuss Voigt Hill
#
# Bulk Modulus (GPa) = 36.91219 43.30453 40.10836
# Shear Modulus (GPa) = 18.56743 22.24642 20.40693
#
# Velocity S-wave (km/s) = 3.11963 3.41474 3.27051
# Velocity P-wave (km/s) = 5.68538 6.18427 5.94007
#
# Compressibility (1/GPa) = 0.02709132
#
# Stress axis : x y z
#
# Youngs Moduli (GPa) = 38.81937 38.81937 119.99265
#
# Poissons Ratio (x) = 0.42478 0.32633
# Poissons Ratio (y) = 0.42478 0.32633
# Poissons Ratio (z) = 0.10557 0.10557
#
# Static dielectric constant tensor:
#      x y z
#    x 1.720200 0.000000 0.000000 
#    y 0.000000 1.720200 0.000000 
#    z 0.000000 0.000000 1.706570 
# 
# From -- ./inp_files/4317.got.cif
#   From: 2010.05.17/outbox.cif.g08.bks.cpg/sg192_3_cif.got.tgz:4317.got - 2010.05.20 12:28:01.
