data_PCOD9588503
_publ_section_title
;
Structure prediction by ZEFSAII (Michael W. Deem and Ramdas Pophale) SiO2 
 PCOD9588503
Probable space group: P 6/M C C
;
_chemical_formula_sum "Si O2"
_cell_formula_units_Z 144
_cell_length_a 32.491819
_cell_length_b 32.491819
_cell_length_c 9.015663
_cell_angle_alpha 90.000000
_cell_angle_beta 90.000000
_cell_angle_gamma 120.000000
_cell_volume 8242.830168
_symmetry_space_group_name_H-M "P 6/M C C"
_symmetry_group_IT_number 192
_symmetry_cell_setting 'hexagonal'
loop_
_space_group_symop_operation_xyz
x,y,z
x-y,x,z
-y,x-y,z
-x,-y,z
-x+y,-x,z
y,-x+y,z
x-y,-y,1/2-z
-x,-x+y,1/2-z
y,x,1/2-z
-y,-x,1/2-z
-x+y,y,1/2-z
x,x-y,1/2-z
-x,-y,-z
-x+y,-x,-z
y,-x+y,-z
x,y,-z
x-y,x,-z
-y,x-y,-z
-x+y,y,1/2+z
x,x-y,1/2+z
-y,-x,1/2+z
y,x,1/2+z
x-y,-y,1/2+z
-x,-x+y,1/2+z
loop_
_atom_site_type_symbol
_atom_site_label
_atom_site_fract_x
_atom_site_fract_y
_atom_site_fract_z
Si Si1 0.710754 0.620368 0.174609
Si Si2 0.381862 0.851552 0.177005
Si Si3 0.473596 0.192501 0.174702
Si Si4 0.697253 0.804644 0.175990
Si Si5 0.047932 0.609935 0.323544
Si Si6 0.810022 0.861259 0.176056
O O1 0.722669 0.577739 0.190845
O O2 0.753477 0.666385 0.249870
O O3 0.660268 0.601122 0.253932
O O4 0.706984 0.627889 0.000000
O O5 0.421216 0.842432 0.250000
O O6 0.330067 0.818983 0.247112
O O7 0.395013 0.905988 0.207745
O O8 0.380260 0.845370 0.000000
O O9 0.473034 0.236517 0.250000
O O10 0.483704 0.200872 0.000000
O O11 0.684977 0.842489 0.250000
O O12 0.753478 0.825973 0.199334
O O13 0.687981 0.801985 0.000000
O O14 0.042498 0.610653 0.500000
O O15 0.000000 0.569528 0.250000
O O16 0.839187 0.839187 0.250000
O O17 0.821741 0.910871 0.250000
O O18 0.818379 0.866985 0.000000
#
# Coordination Sequence:
#
# PCOD9588503 Si02
#       6
#    24  24  24  24  24  24
#     4  10  20  33  51  75 106 143 181 222 265 310
#     4  10  21  37  57  80 106 137 174 218 266 318
#     4  10  20  34  54  80 108 139 175 216 263 315
#     4  10  20  33  50  74 105 140 178 218 259 306
#     4  10  21  36  53  74 103 139 180 224 268 314
#     4  10  21  37  57  80 106 137 173 213 257 306
#
# _framework density 17.469728
#
# number of rings (size 3 to 8) (size 9 to 14) (size 15 to 20)
#    0.000    2.000    0.000    3.500    0.000    8.333 
#    0.000    3.333    0.000    0.500    0.000    3.500 
#    0.000    0.000    0.000    0.000    0.000    0.000 
#
# Total GULP energy -804485.638324 kJ/mol
# GULP energy per Si atom -5586.705822 kJ/mol
# Density = 1.742997 g / cm^3
# Si number density = 17.469728 Si / 1000 Ang^3
#
#
#
# Elastic Constant Matrix: (Units=GPa)
#
#
# Indices 1 2 3 4 5 6 
#
# 1 46.8820 27.7297 43.8334 0.0000 0.0000 0.0000
# 2 27.7297 46.8820 43.8334 0.0000 0.0000 0.0000
# 3 43.8334 43.8334 91.5545 0.0000 0.0000 0.0000
# 4 0.0000 0.0000 0.0000 32.3883 0.0000 0.0000
# 5 0.0000 0.0000 0.0000 0.0000 32.3883 0.0000
# 6 0.0000 0.0000 0.0000 0.0000 0.0000 9.5762
#
#
#
# Elastic Compliance Matrix: (Units=1/GPa)
#
#
# Indices 1 2 3 4 5 6 
#
# 1 0.041425 -0.010788 -0.014668 0.000000 0.000000 0.000000
# 2 -0.010788 0.041425 -0.014668 0.000000 0.000000 0.000000
# 3 -0.014668 -0.014668 0.024968 0.000000 0.000000 0.000000
# 4 0.000000 0.000000 0.000000 0.030875 0.000000 0.000000
# 5 0.000000 0.000000 0.000000 0.000000 0.030875 0.000000
# 6 0.000000 0.000000 0.000000 0.000000 0.000000 0.104426
#
#
# Mechanical properties :
#
#
# Convention : Reuss Voigt Hill
#
# Bulk Modulus (GPa) = 36.27146 46.23461 41.25303
# Shear Modulus (GPa) = 13.75765 19.53200 16.64482
#
# Velocity S-wave (km/s) = 2.80931 3.34735 3.09006
# Velocity P-wave (km/s) = 5.59737 6.43915 6.03296
#
# Compressibility (1/GPa) = 0.02756989
#
# Stress axis : x y z
#
# Youngs Moduli (GPa) = 24.13980 24.13980 40.05133
#
# Poissons Ratio (x) = 0.26041 0.58749
# Poissons Ratio (y) = 0.26041 0.58749
# Poissons Ratio (z) = 0.35409 0.35409
#
# Static dielectric constant tensor:
#      x y z
#    x 1.570290 0.000000 0.000000 
#    y 0.000000 1.570290 0.000000 
#    z 0.000000 0.000000 1.577200 
# 
# From -- ./inp_files/1127.got.cif
#   From: 2010.05.17/outbox.cif.g08.bks.cpg/sg192_1_cif.got.tgz:1127.got - 2010.05.20 12:28:01.
