data_PCOD9588025
_publ_section_title
;
Structure prediction by ZEFSAII (Michael W. Deem and Ramdas Pophale) SiO2 
 PCOD9588025
Probable space group: P 6/M M M
;
_chemical_formula_sum "Si O2"
_cell_formula_units_Z 108
_cell_length_a 29.826191
_cell_length_b 29.826191
_cell_length_c 7.837816
_cell_angle_alpha 90.000000
_cell_angle_beta 90.000000
_cell_angle_gamma 120.000000
_cell_volume 6038.391745
_symmetry_space_group_name_H-M "P 6/M M M"
_symmetry_group_IT_number 191
_symmetry_cell_setting 'hexagonal'
loop_
_space_group_symop_operation_xyz
x,y,z
x-y,x,z
-y,x-y,z
-x,-y,z
-x+y,-x,z
y,-x+y,z
x-y,-y,-z
-x,-x+y,-z
y,x,-z
-y,-x,-z
-x+y,y,-z
x,x-y,-z
-x,-y,-z
-x+y,-x,-z
y,-x+y,-z
x,y,-z
x-y,x,-z
-y,x-y,-z
-x+y,y,z
x,x-y,z
-y,-x,z
y,x,z
x-y,-y,z
-x,-x+y,z
loop_
_atom_site_type_symbol
_atom_site_label
_atom_site_fract_x
_atom_site_fract_y
_atom_site_fract_z
Si Si1 0.566174 0.233538 0.294195
Si Si2 0.937961 0.162948 0.000000
Si Si3 0.668614 0.057964 0.297026
Si Si4 0.231586 0.937175 0.303575
Si Si5 0.607194 0.115143 0.801290
O O1 0.560495 0.229170 0.500000
O O2 0.625851 0.251701 0.256035
O O3 0.552228 0.276114 0.234603
O O4 0.532740 0.176628 0.219742
O O5 0.926077 0.187496 0.166931
O O6 0.898535 0.101466 0.000000
O O7 0.000000 0.183856 0.000000
O O8 0.672606 0.053940 0.500000
O O9 0.728187 0.081125 0.240323
O O10 0.637845 0.088183 0.269422
O O11 0.634631 0.000000 0.224682
O O12 0.214271 0.919975 0.500000
O O13 0.266663 0.000000 0.308834
O O14 0.551087 0.102174 0.726462
O O15 0.598955 0.102068 0.000000
#
# Coordination Sequence:
#
# PCOD9588025 Si02
#       5
#    24  12  24  24  24
#     4   9  17  31  51  70  86 109 146 191 238 288
#     4  10  20  34  56  85 115 149 185 223 269 317
#     4   9  18  33  53  73  93 125 168 210 254 303
#     4   8  16  32  53  78 106 137 178 225 268 310
#     4  10  21  33  45  67  99 130 160 199 248 303
#
# _framework density 17.885558
#
# number of rings (size 3 to 8) (size 9 to 14) (size 15 to 20)
#    0.000    2.889    0.000    2.222    1.556    4.000 
#    0.000    3.333    0.000    2.778    0.000    0.000 
#    0.000    0.000    0.000    5.556    0.000    0.000 
#
# Total GULP energy -601261.035743 kJ/mol
# GULP energy per Si atom -5567.231812 kJ/mol
# Density = 1.784485 g / cm^3
# Si number density = 17.885558 Si / 1000 Ang^3
#
#
#
# Elastic Constant Matrix: (Units=GPa)
#
#
# Indices 1 2 3 4 5 6 
#
# 1 71.4623 45.8954 18.4943 0.0000 0.0000 0.0000
# 2 45.8954 71.4623 18.4943 0.0000 0.0000 0.0000
# 3 18.4943 18.4943 48.3199 0.0000 0.0000 0.0000
# 4 0.0000 0.0000 0.0000 7.3969 0.0000 0.0000
# 5 0.0000 0.0000 0.0000 0.0000 7.3969 0.0000
# 6 0.0000 0.0000 0.0000 0.0000 0.0000 12.7835
#
#
#
# Elastic Compliance Matrix: (Units=1/GPa)
#
#
# Indices 1 2 3 4 5 6 
#
# 1 0.024401 -0.014712 -0.003709 0.000000 0.000000 0.000000
# 2 -0.014712 0.024401 -0.003709 0.000000 0.000000 0.000000
# 3 -0.003709 -0.003709 0.023534 0.000000 0.000000 0.000000
# 4 0.000000 0.000000 0.000000 0.135192 0.000000 0.000000
# 5 0.000000 0.000000 0.000000 0.000000 0.135192 0.000000
# 6 0.000000 0.000000 0.000000 0.000000 0.000000 0.078226
#
#
# Mechanical properties :
#
#
# Convention : Reuss Voigt Hill
#
# Bulk Modulus (GPa) = 35.61363 39.66803 37.64083
# Shear Modulus (GPa) = 10.53597 12.73950 11.63773
#
# Velocity S-wave (km/s) = 2.42972 2.67175 2.55361
# Velocity P-wave (km/s) = 5.27509 5.63424 5.45762
#
# Compressibility (1/GPa) = 0.02807914
#
# Stress axis : x y z
#
# Youngs Moduli (GPa) = 40.98119 40.98119 42.49093
#
# Poissons Ratio (x) = 0.60290 0.15759
# Poissons Ratio (y) = 0.60290 0.15759
# Poissons Ratio (z) = 0.15199 0.15199
#
# Static dielectric constant tensor:
#      x y z
#    x 1.622630 0.000000 0.000000 
#    y 0.000000 1.622630 0.000000 
#    z 0.000000 0.000000 1.649450 
# 
# From -- ./inp_files/1690.got.cif
#   From: 2010.05.17/outbox.cif.g08.bks.cpg/sg191_1_cif.got.tgz:1690.got - 2010.05.20 12:20:32.
