data_PCOD9588928
_publ_section_title
;
Structure prediction by ZEFSAII (Michael W. Deem and Ramdas Pophale) SiO2 
 PCOD9588928
Probable space group: P 63/M C M
;
_chemical_formula_sum "Si O2"
_cell_formula_units_Z 72
_cell_length_a 14.191419
_cell_length_b 14.191419
_cell_length_c 16.706717
_cell_angle_alpha 90.000000
_cell_angle_beta 90.000000
_cell_angle_gamma 120.000000
_cell_volume 2913.891611
_symmetry_space_group_name_H-M "P 63/M C M"
_symmetry_group_IT_number 193
_symmetry_cell_setting 'hexagonal'
loop_
_space_group_symop_operation_xyz
x,y,z
x-y,x,1/2+z
-y,x-y,z
-x,-y,1/2+z
-x+y,-x,z
y,-x+y,1/2+z
x-y,-y,1/2-z
-x,-x+y,1/2-z
y,x,1/2-z
-y,-x,-z
-x+y,y,-z
x,x-y,-z
-x,-y,-z
-x+y,-x,1/2-z
y,-x+y,-z
x,y,1/2-z
x-y,x,-z
-y,x-y,1/2-z
-x+y,y,1/2+z
x,x-y,1/2+z
-y,-x,1/2+z
y,x,z
x-y,-y,z
-x,-x+y,z
loop_
_atom_site_type_symbol
_atom_site_label
_atom_site_fract_x
_atom_site_fract_y
_atom_site_fract_z
Si Si1 0.486578 0.620639 0.250000
Si Si2 0.749336 0.117892 0.250000
Si Si3 0.874888 0.468124 0.581933
Si Si4 0.182178 0.878806 0.091192
O O1 0.574433 0.574433 0.250000
O O2 0.547138 0.750732 0.250000
O O3 0.416762 0.580537 0.168879
O O4 0.800916 0.114627 0.336457
O O5 0.635692 0.000000 0.250000
O O6 0.820011 0.410006 0.500000
O O7 0.874551 0.580620 0.584244
O O8 0.000000 0.496171 0.578561
O O9 0.215495 0.000000 0.115872
O O10 0.139768 0.860233 0.000000
#
# Coordination Sequence:
#
# PCOD9588928 Si02
#       4
#    12  12  24  24
#     4   8  14  26  45  67  93 125 158 202 265 328
#     4  10  18  30  49  69  93 131 181 230 273 322
#     4   8  14  26  45  68  91 117 153 198 253 321
#     4  10  19  32  50  70  97 135 178 229 286 338
#
# _framework density 24.709225
#
# number of rings (size 3 to 8) (size 9 to 14) (size 15 to 20)
#    0.000    3.000    0.000    4.500    0.000    0.000 
#    0.000    1.667    0.000   25.000    0.000    0.000 
#    0.000    0.000    0.000    0.000    0.000    0.000 
#
# Total GULP energy -401175.966704 kJ/mol
# GULP energy per Si atom -5571.888426 kJ/mol
# Density = 2.465299 g / cm^3
# Si number density = 24.709225 Si / 1000 Ang^3
#
#
#
# Elastic Constant Matrix: (Units=GPa)
#
#
# Indices 1 2 3 4 5 6 
#
# 1 76.0776 40.7810 35.3483 0.0000 0.0000 0.0000
# 2 40.7810 76.0776 35.3483 0.0000 0.0000 0.0000
# 3 35.3483 35.3483 263.0192 0.0000 0.0000 0.0000
# 4 0.0000 0.0000 0.0000 10.7511 0.0000 0.0000
# 5 0.0000 0.0000 0.0000 0.0000 10.7511 0.0000
# 6 0.0000 0.0000 0.0000 0.0000 0.0000 17.6483
#
#
#
# Elastic Compliance Matrix: (Units=1/GPa)
#
#
# Indices 1 2 3 4 5 6 
#
# 1 0.018823 -0.009508 -0.001252 0.000000 0.000000 0.000000
# 2 -0.009508 0.018823 -0.001252 0.000000 0.000000 0.000000
# 3 -0.001252 -0.001252 0.004138 0.000000 0.000000 0.000000
# 4 0.000000 0.000000 0.000000 0.093014 0.000000 0.000000
# 5 0.000000 0.000000 0.000000 0.000000 0.093014 0.000000
# 6 0.000000 0.000000 0.000000 0.000000 0.000000 0.056663
#
#
# Mechanical properties :
#
#
# Convention : Reuss Voigt Hill
#
# Bulk Modulus (GPa) = 56.30477 70.90329 63.60403
# Shear Modulus (GPa) = 15.90234 28.07656 21.98945
#
# Velocity S-wave (km/s) = 2.53964 3.37453 2.98640
# Velocity P-wave (km/s) = 5.60679 6.62877 6.13908
#
# Compressibility (1/GPa) = 0.01776048
#
# Stress axis : x y z
#
# Youngs Moduli (GPa) = 53.12651 53.12651 241.63440
#
# Poissons Ratio (x) = 0.50514 0.30249
# Poissons Ratio (y) = 0.50514 0.30249
# Poissons Ratio (z) = 0.06651 0.06651
#
# Static dielectric constant tensor:
#      x y z
#    x 1.972800 0.000000 0.000000 
#    y 0.000000 1.972800 0.000000 
#    z 0.000000 0.000000 2.049370 
# 
# From -- ./inp_files/4820.got.cif
#   From: 2010.05.17/outbox.cif.g08.bks.cpg/sg193_3_cif.got.tgz:4820.got - 2010.05.20 12:33:02.
