data_PCOD9588335
_publ_section_title
;
Structure prediction by ZEFSAII (Michael W. Deem and Ramdas Pophale) SiO2 
 PCOD9588335
Probable space group: P 6/M C C
;
_chemical_formula_sum "Si O2"
_cell_formula_units_Z 152
_cell_length_a 19.638281
_cell_length_b 19.638281
_cell_length_c 26.038487
_cell_angle_alpha 90.000000
_cell_angle_beta 90.000000
_cell_angle_gamma 120.000000
_cell_volume 8696.676531
_symmetry_space_group_name_H-M "P 6/M C C"
_symmetry_group_IT_number 192
_symmetry_cell_setting 'hexagonal'
loop_
_space_group_symop_operation_xyz
x,y,z
x-y,x,z
-y,x-y,z
-x,-y,z
-x+y,-x,z
y,-x+y,z
x-y,-y,1/2-z
-x,-x+y,1/2-z
y,x,1/2-z
-y,-x,1/2-z
-x+y,y,1/2-z
x,x-y,1/2-z
-x,-y,-z
-x+y,-x,-z
y,-x+y,-z
x,y,-z
x-y,x,-z
-y,x-y,-z
-x+y,y,1/2+z
x,x-y,1/2+z
-y,-x,1/2+z
y,x,1/2+z
x-y,-y,1/2+z
-x,-x+y,1/2+z
loop_
_atom_site_type_symbol
_atom_site_label
_atom_site_fract_x
_atom_site_fract_y
_atom_site_fract_z
Si Si1 0.313622 0.504225 0.061190
Si Si2 0.076807 0.891551 0.938554
Si Si3 0.816055 0.167386 0.617351
Si Si4 0.666668 0.333334 0.937981
Si Si5 0.683837 0.594574 0.320075
Si Si6 0.097194 0.685827 0.203384
Si Si7 0.905476 0.445389 0.859123
O O1 0.240045 0.422010 0.078957
O O2 0.302259 0.577218 0.077709
O O3 0.394114 0.522204 0.089433
O O4 0.322104 0.504969 0.000000
O O5 0.112745 0.845613 0.908175
O O6 0.984727 0.857185 0.926954
O O7 0.083271 0.882484 0.000000
O O8 0.888511 0.247608 0.639006
O O9 0.760789 0.131265 0.666946
O O10 0.666667 0.333334 0.000000
O O11 0.708718 0.588280 0.262187
O O12 0.635556 0.639358 0.308594
O O13 0.628277 0.508172 0.343614
O O14 0.119952 0.621512 0.184473
O O15 0.000000 0.500000 0.862392
#
# Coordination Sequence:
#
# PCOD9588335 Si02
#       7
#    24  24  24   8  24  24  24
#     4  10  20  33  49  71 102 139 178 223 269 316
#     4  10  21  38  59  81 106 138 176 219 271 337
#     4  11  20  32  51  78 106 131 167 215 269 323
#     4   9  18  33  48  63  91 137 184 210 240 300
#     4  10  18  32  51  71  98 134 171 208 256 311
#     4   9  19  32  49  73 101 131 166 212 260 308
#     4   9  18  32  50  72  98 132 175 219 265 317
#
# _framework density 17.477941000000001
#
# number of rings (size 3 to 8) (size 9 to 14) (size 15 to 20)
#    0.000    2.211    0.000    3.474    0.000    2.842 
#    0.000    0.789    0.000    0.947    0.000    8.842 
#    0.000    7.579    0.000    0.000    0.000    0.000 
#
# Total GULP energy -846877.964656 kJ/mol
# GULP energy per Si atom -5571.565557 kJ/mol
# Density = 1.743816 g / cm^3
# Si number density = 17.477941 Si / 1000 Ang^3
#
#
#
# Elastic Constant Matrix: (Units=GPa)
#
#
# Indices 1 2 3 4 5 6 
#
# 1 77.6137 29.6652 19.9459 0.0000 0.0000 0.0000
# 2 29.6652 77.6137 19.9456 0.0000 0.0000 -0.0001
# 3 19.9459 19.9456 61.9336 0.0000 0.0000 0.0000
# 4 0.0000 0.0000 0.0000 16.0174 0.0000 0.0000
# 5 0.0000 0.0000 0.0000 0.0000 16.0174 0.0000
# 6 0.0000 -0.0001 0.0000 0.0000 0.0000 23.9741
#
#
#
# Elastic Compliance Matrix: (Units=1/GPa)
#
#
# Indices 1 2 3 4 5 6 
#
# 1 0.015723 -0.005133 -0.003410 0.000000 0.000000 0.000000
# 2 -0.005133 0.015723 -0.003410 0.000000 0.000000 0.000000
# 3 -0.003410 -0.003410 0.018343 0.000000 0.000000 0.000000
# 4 0.000000 0.000000 0.000000 0.062432 0.000000 0.000000
# 5 0.000000 0.000000 0.000000 0.000000 0.062432 0.000000
# 6 0.000000 0.000000 0.000000 0.000000 0.000000 0.041712
#
#
# Mechanical properties :
#
#
# Convention : Reuss Voigt Hill
#
# Bulk Modulus (GPa) = 38.63890 39.58605 39.11248
# Shear Modulus (GPa) = 20.08850 21.04208 20.56529
#
# Velocity S-wave (km/s) = 3.39390 3.47352 3.43394
# Velocity P-wave (km/s) = 6.12481 6.22780 6.17652
#
# Compressibility (1/GPa) = 0.02588065
#
# Stress axis : x y z
#
# Youngs Moduli (GPa) = 63.60236 63.60241 54.51685
#
# Poissons Ratio (x) = 0.32647 0.18593
# Poissons Ratio (y) = 0.32647 0.18592
# Poissons Ratio (z) = 0.21691 0.21691
#
# Static dielectric constant tensor:
#      x y z
#    x 1.610570 0.000000 0.000000 
#    y 0.000000 1.610570 0.000000 
#    z 0.000000 0.000000 1.582610 
# 
# From -- ./inp_files/7145.got.cif
#   From: 2010.05.17/outbox.cif.g08.bks.cpg/sg192_4_cif.got.tgz:7145.got - 2010.05.20 12:28:01.
