data_PCOD9588966
_publ_section_title
;
Structure prediction by ZEFSAII (Michael W. Deem and Ramdas Pophale) SiO2 
 PCOD9588966
Probable space group: P 63/M C M
;
_chemical_formula_sum "Si O2"
_cell_formula_units_Z 168
_cell_length_a 18.404323
_cell_length_b 18.404323
_cell_length_c 32.078624
_cell_angle_alpha 90.000000
_cell_angle_beta 90.000000
_cell_angle_gamma 120.000000
_cell_volume 9409.922705
_symmetry_space_group_name_H-M "P 63/M C M"
_symmetry_group_IT_number 193
_symmetry_cell_setting 'hexagonal'
loop_
_space_group_symop_operation_xyz
x,y,z
x-y,x,1/2+z
-y,x-y,z
-x,-y,1/2+z
-x+y,-x,z
y,-x+y,1/2+z
x-y,-y,1/2-z
-x,-x+y,1/2-z
y,x,1/2-z
-y,-x,-z
-x+y,y,-z
x,x-y,-z
-x,-y,-z
-x+y,-x,1/2-z
y,-x+y,-z
x,y,1/2-z
x-y,x,-z
-y,x-y,1/2-z
-x+y,y,1/2+z
x,x-y,1/2+z
-y,-x,1/2+z
y,x,z
x-y,-y,z
-x,-x+y,z
loop_
_atom_site_type_symbol
_atom_site_label
_atom_site_fract_x
_atom_site_fract_y
_atom_site_fract_z
Si Si1 0.444242 0.901267 0.577204
Si Si2 0.100694 0.333947 0.298682
Si Si3 0.898267 0.536833 0.204191
Si Si4 0.848260 0.259703 0.938935
Si Si5 0.673746 0.903141 0.147155
Si Si6 0.410522 0.315788 0.531094
Si Si7 0.898430 0.509840 0.665943
O O1 0.344231 0.846486 0.573626
O O2 0.498779 0.896492 0.539272
O O3 0.480055 0.878696 0.618181
O O4 0.470654 0.000000 0.581526
O O5 0.123734 0.335689 0.250000
O O6 0.142169 0.297341 0.329966
O O7 0.129001 0.427086 0.315876
O O8 0.000000 0.280741 0.300892
O O9 0.869847 0.545085 0.250000
O O10 0.877961 0.585204 0.169332
O O11 0.867986 0.441483 0.192943
O O12 0.000000 0.584233 0.204809
O O13 0.891166 0.236690 0.901743
O O14 0.760456 0.174816 0.946770
O O15 0.896968 0.288376 0.982947
O O16 0.736452 0.000000 0.156253
O O17 0.344335 0.344335 0.546418
O O18 0.000000 0.561895 0.668205
#
# Coordination Sequence:
#
# PCOD9588966 Si02
#       7
#    24  24  24  24  24  24  24
#     4  10  18  33  55  79 109 147 186 227 282 340
#     4  10  21  36  55  81 112 147 187 231 284 344
#     4   9  16  27  46  72  99 128 165 209 258 313
#     4  11  21  35  56  83 109 148 195 237 281 338
#     4  11  21  34  54  80 109 141 186 239 286 333
#     4  10  22  37  55  80 115 154 191 235 291 345
#     4   9  16  29  51  76 103 135 172 215 264 323
#
# _framework density 17.853494000000001
#
# number of rings (size 3 to 8) (size 9 to 14) (size 15 to 20)
#    0.000    2.000    1.429    3.429    0.000    5.429 
#    0.857    0.000    0.000    0.857    0.000    2.000 
#    0.000    0.000    0.000   16.571    0.000    0.000 
#
# Total GULP energy -936314.718915 kJ/mol
# GULP energy per Si atom -5573.301898 kJ/mol
# Density = 1.781286 g / cm^3
# Si number density = 17.853494 Si / 1000 Ang^3
#
#
#
# Elastic Constant Matrix: (Units=GPa)
#
#
# Indices 1 2 3 4 5 6 
#
# 1 77.3950 31.4057 32.9249 0.0000 0.0000 0.0000
# 2 31.4057 77.3950 32.9249 0.0000 0.0000 0.0000
# 3 32.9249 32.9249 89.9582 0.0000 0.0000 0.0000
# 4 0.0000 0.0000 0.0000 21.2017 0.0000 0.0000
# 5 0.0000 0.0000 0.0000 0.0000 21.2017 0.0000
# 6 0.0000 0.0000 0.0000 0.0000 0.0000 22.9946
#
#
#
# Elastic Compliance Matrix: (Units=1/GPa)
#
#
# Indices 1 2 3 4 5 6 
#
# 1 0.016775 -0.004969 -0.004321 0.000000 0.000000 0.000000
# 2 -0.004969 0.016775 -0.004321 0.000000 0.000000 0.000000
# 3 -0.004321 -0.004321 0.014279 0.000000 0.000000 0.000000
# 4 0.000000 0.000000 0.000000 0.047166 0.000000 0.000000
# 5 0.000000 0.000000 0.000000 0.000000 0.047166 0.000000
# 6 0.000000 0.000000 0.000000 0.000000 0.000000 0.043488
#
#
# Mechanical properties :
#
#
# Convention : Reuss Voigt Hill
#
# Bulk Modulus (GPa) = 48.52594 48.80660 48.66627
# Shear Modulus (GPa) = 22.75393 22.91245 22.83319
#
# Velocity S-wave (km/s) = 3.57386 3.58629 3.58008
# Velocity P-wave (km/s) = 6.65350 6.67422 6.66387
#
# Compressibility (1/GPa) = 0.02060754
#
# Stress axis : x y z
#
# Youngs Moduli (GPa) = 59.61141 59.61141 70.03099
#
# Poissons Ratio (x) = 0.29620 0.30262
# Poissons Ratio (y) = 0.29620 0.30262
# Poissons Ratio (z) = 0.25759 0.25759
#
# Static dielectric constant tensor:
#      x y z
#    x 1.609960 0.000000 0.000000 
#    y 0.000000 1.609960 0.000000 
#    z 0.000000 0.000000 1.664170 
# 
# From -- ./inp_files/9302.got.cif
#   From: 2010.05.17/outbox.cif.g08.bks.cpg/sg193_5_cif.got.tgz:9302.got - 2010.05.20 12:33:02.
