data_PCOD9588789
_publ_section_title
;
Structure prediction by ZEFSAII (Michael W. Deem and Ramdas Pophale) SiO2 
 PCOD9588789
Probable space group: P 6/M C C
;
_chemical_formula_sum "Si O2"
_cell_formula_units_Z 126
_cell_length_a 21.392845
_cell_length_b 21.392845
_cell_length_c 19.200607
_cell_angle_alpha 90.000000
_cell_angle_beta 90.000000
_cell_angle_gamma 120.000000
_cell_volume 7609.965349
_symmetry_space_group_name_H-M "P 6/M C C"
_symmetry_group_IT_number 192
_symmetry_cell_setting 'hexagonal'
loop_
_space_group_symop_operation_xyz
x,y,z
x-y,x,z
-y,x-y,z
-x,-y,z
-x+y,-x,z
y,-x+y,z
x-y,-y,1/2-z
-x,-x+y,1/2-z
y,x,1/2-z
-y,-x,1/2-z
-x+y,y,1/2-z
x,x-y,1/2-z
-x,-y,-z
-x+y,-x,-z
y,-x+y,-z
x,y,-z
x-y,x,-z
-y,x-y,-z
-x+y,y,1/2+z
x,x-y,1/2+z
-y,-x,1/2+z
y,x,1/2+z
x-y,-y,1/2+z
-x,-x+y,1/2+z
loop_
_atom_site_type_symbol
_atom_site_label
_atom_site_fract_x
_atom_site_fract_y
_atom_site_fract_z
Si Si1 0.512837 0.609949 0.000000
Si Si2 0.143321 0.288404 0.116455
Si Si3 0.082123 0.913331 0.000000
Si Si4 0.858486 0.358646 0.000000
Si Si5 0.807503 0.588816 0.000000
Si Si6 0.500000 0.500000 0.750000
Si Si7 0.572554 0.593772 0.615916
Si Si8 0.998351 0.280241 0.170488
O O1 0.558295 0.696044 0.000000
O O2 0.534486 0.579381 0.068050
O O3 0.427209 0.580794 0.000000
O O4 0.112879 0.220663 0.065582
O O5 0.177257 0.359983 0.067666
O O6 0.206394 0.283858 0.157831
O O7 0.072269 0.279583 0.154811
O O8 0.997874 0.878079 0.000000
O O9 0.908178 0.373041 0.932011
O O10 0.798490 0.275031 0.000000
O O11 0.532300 0.564268 0.690673
O O12 0.654505 0.657238 0.626019
O O13 0.000000 0.300341 0.250000
#
# Coordination Sequence:
#
# PCOD9588789 Si02
#       8
#    12  24  12  12  12   6  24  24
#     4  11  21  38  57  86 119 151 187 240 285 351
#     4  11  23  37  56  86 114 150 199 247 297 357
#     4  11  21  36  59  76 104 146 196 260 306 349
#     4  11  21  38  57  86 119 151 187 240 285 351
#     4  11  22  34  63  84 117 150 192 247 292 339
#     4  12  20  38  56  96 116 150 188 242 292 370
#     4  11  21  34  62  88 115 149 189 233 301 344
#     4  12  23  38  57  83 122 161 193 238 305 361
#
# _framework density 16.557236
#
# number of rings (size 3 to 8) (size 9 to 14) (size 15 to 20)
#    0.000    0.762    8.571    1.238    0.000    0.000 
#    0.571    0.000    0.000    0.000    0.000    2.667 
#    0.000    0.000    0.000    0.000    0.000    0.000 
#
# Total GULP energy -701622.268712 kJ/mol
# GULP energy per Si atom -5568.430704 kJ/mol
# Density = 1.651955 g / cm^3
# Si number density = 16.557236 Si / 1000 Ang^3
#
#
#
# Elastic Constant Matrix: (Units=GPa)
#
#
# Indices 1 2 3 4 5 6 
#
# 1 93.3165 24.4761 12.0192 0.0000 0.0000 0.0000
# 2 24.4761 93.3165 12.0192 0.0000 0.0000 0.0000
# 3 12.0192 12.0192 75.3385 0.0000 0.0000 0.0000
# 4 0.0000 0.0000 0.0000 35.6484 0.0000 0.0000
# 5 0.0000 0.0000 0.0000 0.0000 35.6484 0.0000
# 6 0.0000 0.0000 0.0000 0.0000 0.0000 34.4202
#
#
#
# Elastic Compliance Matrix: (Units=1/GPa)
#
#
# Indices 1 2 3 4 5 6 
#
# 1 0.011651 -0.002876 -0.001400 0.000000 0.000000 0.000000
# 2 -0.002876 0.011651 -0.001400 0.000000 0.000000 0.000000
# 3 -0.001400 -0.001400 0.013720 0.000000 0.000000 0.000000
# 4 0.000000 0.000000 0.000000 0.028052 0.000000 0.000000
# 5 0.000000 0.000000 0.000000 0.000000 0.028052 0.000000
# 6 0.000000 0.000000 0.000000 0.000000 0.000000 0.029053
#
#
# Mechanical properties :
#
#
# Convention : Reuss Voigt Hill
#
# Bulk Modulus (GPa) = 38.95498 39.88895 39.42197
# Shear Modulus (GPa) = 35.19001 35.37386 35.28194
#
# Velocity S-wave (km/s) = 4.61516 4.62720 4.62118
# Velocity P-wave (km/s) = 7.20959 7.25891 7.23429
#
# Compressibility (1/GPa) = 0.02567066
#
# Stress axis : x y z
#
# Youngs Moduli (GPa) = 85.83116 85.83116 72.88568
#
# Poissons Ratio (x) = 0.24681 0.10204
# Poissons Ratio (y) = 0.24681 0.10204
# Poissons Ratio (z) = 0.12016 0.12016
#
# Static dielectric constant tensor:
#      x y z
#    x 1.556790 0.000000 0.000000 
#    y 0.000000 1.556790 0.000000 
#    z 0.000000 0.000000 1.548530 
# 
# From -- ./inp_files/4245.got.cif
#   From: 2010.05.17/outbox.cif.g08.bks.cpg/sg192_3_cif.got.tgz:4245.got - 2010.05.20 12:28:01.
