data_PCOD9588412
_publ_section_title
;
Structure prediction by ZEFSAII (Michael W. Deem and Ramdas Pophale) SiO2 
 PCOD9588412
Probable space group: P 6/M C C
;
_chemical_formula_sum "Si O2"
_cell_formula_units_Z 144
_cell_length_a 32.243178
_cell_length_b 32.243178
_cell_length_c 8.700720
_cell_angle_alpha 90.000000
_cell_angle_beta 90.000000
_cell_angle_gamma 120.000000
_cell_volume 7833.602061
_symmetry_space_group_name_H-M "P 6/M C C"
_symmetry_group_IT_number 192
_symmetry_cell_setting 'hexagonal'
loop_
_space_group_symop_operation_xyz
x,y,z
x-y,x,z
-y,x-y,z
-x,-y,z
-x+y,-x,z
y,-x+y,z
x-y,-y,1/2-z
-x,-x+y,1/2-z
y,x,1/2-z
-y,-x,1/2-z
-x+y,y,1/2-z
x,x-y,1/2-z
-x,-y,-z
-x+y,-x,-z
y,-x+y,-z
x,y,-z
x-y,x,-z
-y,x-y,-z
-x+y,y,1/2+z
x,x-y,1/2+z
-y,-x,1/2+z
y,x,1/2+z
x-y,-y,1/2+z
-x,-x+y,1/2+z
loop_
_atom_site_type_symbol
_atom_site_label
_atom_site_fract_x
_atom_site_fract_y
_atom_site_fract_z
Si Si1 0.666776 0.241158 0.683497
Si Si2 0.334170 0.851219 0.185545
Si Si3 0.478812 0.428518 0.184051
Si Si4 0.708449 0.759767 0.815074
Si Si5 0.385819 0.238965 0.814354
Si Si6 0.804882 0.856623 0.815727
O O1 0.716280 0.283721 0.750000
O O2 0.623072 0.246144 0.750000
O O3 0.667137 0.244137 0.500000
O O4 0.660523 0.190589 0.736097
O O5 0.378288 0.903477 0.224718
O O6 0.284346 0.847890 0.230297
O O7 0.334405 0.845673 0.000000
O O8 0.437326 0.437326 0.250000
O O9 0.528345 0.471656 0.250000
O O10 0.479372 0.432563 0.000000
O O11 0.720835 0.720835 0.750000
O O12 0.658535 0.754578 0.763224
O O13 0.752681 0.811987 0.771023
O O14 0.707907 0.756929 0.000000
O O15 0.380882 0.190441 0.750000
O O16 0.384475 0.236558 0.000000
O O17 0.843174 0.843174 0.750000
O O18 0.810825 0.905413 0.750000
O O19 0.807509 0.858678 0.000000
#
# Coordination Sequence:
#
# PCOD9588412 Si02
#       6
#    24  24  24  24  24  24
#     4  12  25  42  64  89 117 147 183 227 277 333
#     4  10  22  39  58  83 115 150 189 232 276 326
#     4  10  20  35  56  81 110 143 182 229 277 327
#     4   9  19  34  53  78 108 142 181 227 274 320
#     4  10  21  37  55  78 110 146 184 225 269 320
#     4  10  19  32  51  76 105 138 178 223 272 323
#
# _framework density 18.382348
#
# number of rings (size 3 to 8) (size 9 to 14) (size 15 to 20)
#    0.000    1.833    0.000    4.667    0.000    6.667 
#    0.000    0.000    0.000    0.167    0.000    1.167 
#    0.000    0.000    0.000    0.000    0.000    0.000 
#
# Total GULP energy -804644.265234 kJ/mol
# GULP energy per Si atom -5587.807397 kJ/mol
# Density = 1.834051 g / cm^3
# Si number density = 18.382348 Si / 1000 Ang^3
#
#
#
# Elastic Constant Matrix: (Units=GPa)
#
#
# Indices 1 2 3 4 5 6 
#
# 1 119.0425 55.6207 42.1749 0.0000 0.0000 0.0000
# 2 55.6207 119.0425 42.1749 0.0000 0.0000 0.0000
# 3 42.1749 42.1749 55.2504 0.0000 0.0000 0.0000
# 4 0.0000 0.0000 0.0000 18.2558 0.0000 0.0000
# 5 0.0000 0.0000 0.0000 0.0000 18.2558 0.0000
# 6 0.0000 0.0000 0.0000 0.0000 0.0000 31.7109
#
#
#
# Elastic Compliance Matrix: (Units=1/GPa)
#
#
# Indices 1 2 3 4 5 6 
#
# 1 0.012418 -0.003350 -0.006922 0.000000 0.000000 0.000000
# 2 -0.003350 0.012418 -0.006922 0.000000 0.000000 0.000000
# 3 -0.006922 -0.006922 0.028667 0.000000 0.000000 0.000000
# 4 0.000000 0.000000 0.000000 0.054777 0.000000 0.000000
# 5 0.000000 0.000000 0.000000 0.000000 0.054777 0.000000
# 6 0.000000 0.000000 0.000000 0.000000 0.000000 0.031535
#
#
# Mechanical properties :
#
#
# Convention : Reuss Voigt Hill
#
# Bulk Modulus (GPa) = 52.31437 63.69735 58.00586
# Shear Modulus (GPa) = 21.24481 23.86883 22.55682
#
# Velocity S-wave (km/s) = 3.40327 3.60733 3.50679
# Velocity P-wave (km/s) = 6.63052 7.21644 6.92968
#
# Compressibility (1/GPa) = 0.01911521
#
# Stress axis : x y z
#
# Youngs Moduli (GPa) = 80.52947 80.52947 34.88294
#
# Poissons Ratio (x) = 0.26974 0.24146
# Poissons Ratio (y) = 0.26974 0.24146
# Poissons Ratio (z) = 0.55743 0.55743
#
# Static dielectric constant tensor:
#      x y z
#    x 1.609740 0.000000 0.000000 
#    y 0.000000 1.609740 0.000000 
#    z 0.000000 0.000000 1.624930 
# 
# From -- ./inp_files/1214.got.cif
#   From: 2010.05.17/outbox.cif.g08.bks.cpg/sg192_1_cif.got.tgz:1214.got - 2010.05.20 12:28:01.
