data_PCOD9588391
_publ_section_title
;
Structure prediction by ZEFSAII (Michael W. Deem and Ramdas Pophale) SiO2 
 PCOD9588391
Probable space group: P 6/M C C
;
_chemical_formula_sum "Si O2"
_cell_formula_units_Z 144
_cell_length_a 33.009965
_cell_length_b 33.009965
_cell_length_c 8.931952
_cell_angle_alpha 90.000000
_cell_angle_beta 90.000000
_cell_angle_gamma 120.000000
_cell_volume 8428.826996
_symmetry_space_group_name_H-M "P 6/M C C"
_symmetry_group_IT_number 192
_symmetry_cell_setting 'hexagonal'
loop_
_space_group_symop_operation_xyz
x,y,z
x-y,x,z
-y,x-y,z
-x,-y,z
-x+y,-x,z
y,-x+y,z
x-y,-y,1/2-z
-x,-x+y,1/2-z
y,x,1/2-z
-y,-x,1/2-z
-x+y,y,1/2-z
x,x-y,1/2-z
-x,-y,-z
-x+y,-x,-z
y,-x+y,-z
x,y,-z
x-y,x,-z
-y,x-y,-z
-x+y,y,1/2+z
x,x-y,1/2+z
-y,-x,1/2+z
y,x,1/2+z
x-y,-y,1/2+z
-x,-x+y,1/2+z
loop_
_atom_site_type_symbol
_atom_site_label
_atom_site_fract_x
_atom_site_fract_y
_atom_site_fract_z
Si Si1 0.563628 0.614573 0.322366
Si Si2 0.050173 0.767539 0.179764
Si Si3 0.719700 0.523609 0.321778
Si Si4 0.811390 0.861856 0.679644
Si Si5 0.863528 0.474771 0.179493
Si Si6 0.274817 0.887366 0.322153
O O1 0.587098 0.587098 0.250000
O O2 0.557282 0.605748 0.500000
O O3 0.514595 0.601592 0.245850
O O4 0.596611 0.670528 0.300294
O O5 0.060470 0.819487 0.216290
O O6 0.090016 0.756098 0.228447
O O7 0.000000 0.731890 0.250000
O O8 0.046174 0.762163 0.000000
O O9 0.754111 0.508221 0.250000
O O10 0.723719 0.524483 0.500000
O O11 0.665038 0.491146 0.281465
O O12 0.734127 0.575296 0.262820
O O13 0.846154 0.846154 0.750000
O O14 0.818701 0.909351 0.750000
O O15 0.816137 0.865184 0.500000
O O16 0.851171 0.425586 0.250000
O O17 0.866576 0.473633 0.000000
O O18 0.267748 0.877231 0.500000
#
# Coordination Sequence:
#
# PCOD9588391 Si02
#       6
#    24  24  24  24  24  24
#     4  10  19  31  49  73 104 141 179 218 256 296
#     4   9  18  31  48  72 103 139 178 216 253 293
#     4  10  21  36  55  78 103 132 166 205 251 304
#     4  10  20  35  54  76 102 132 167 207 252 301
#     4  10  21  37  56  78 102 130 166 207 254 306
#     4   9  18  32  49  72 104 141 179 217 254 292
#
# _framework density 17.084228
#
# number of rings (size 3 to 8) (size 9 to 14) (size 15 to 20)
#    0.000    2.333    0.000    2.500    0.000    5.000 
#    0.000    3.333    0.000    0.500    0.000    1.167 
#    0.000    0.000    0.000    0.000    0.000    0.000 
#
# Total GULP energy -803766.048031 kJ/mol
# GULP energy per Si atom -5581.708667 kJ/mol
# Density = 1.704534 g / cm^3
# Si number density = 17.084228 Si / 1000 Ang^3
#
#
#
# Elastic Constant Matrix: (Units=GPa)
#
#
# Indices 1 2 3 4 5 6 
#
# 1 93.1885 74.2359 51.4622 0.0000 0.0000 0.0000
# 2 74.2359 93.1885 51.4622 0.0000 0.0000 0.0000
# 3 51.4622 51.4622 58.2686 0.0000 0.0000 0.0000
# 4 0.0000 0.0000 0.0000 28.8715 0.0000 0.0000
# 5 0.0000 0.0000 0.0000 0.0000 28.8715 0.0000
# 6 0.0000 0.0000 0.0000 0.0000 0.0000 9.4763
#
#
#
# Elastic Compliance Matrix: (Units=1/GPa)
#
#
# Indices 1 2 3 4 5 6 
#
# 1 0.032916 -0.019848 -0.011542 0.000000 0.000000 0.000000
# 2 -0.019848 0.032916 -0.011542 0.000000 0.000000 0.000000
# 3 -0.011542 -0.011542 0.037549 0.000000 0.000000 0.000000
# 4 0.000000 0.000000 0.000000 0.034636 0.000000 0.000000
# 5 0.000000 0.000000 0.000000 0.000000 0.034636 0.000000
# 6 0.000000 0.000000 0.000000 0.000000 0.000000 0.105526
#
#
# Mechanical properties :
#
#
# Convention : Reuss Voigt Hill
#
# Bulk Modulus (GPa) = 57.08244 66.55180 61.81712
# Shear Modulus (GPa) = 13.51794 17.94291 15.73042
#
# Velocity S-wave (km/s) = 2.81597 3.24429 3.03769
# Velocity P-wave (km/s) = 6.63761 7.28516 6.96891
#
# Compressibility (1/GPa) = 0.01751852
#
# Stress axis : x y z
#
# Youngs Moduli (GPa) = 30.38078 30.38078 26.63212
#
# Poissons Ratio (x) = 0.60298 0.30738
# Poissons Ratio (y) = 0.60298 0.30738
# Poissons Ratio (z) = 0.35064 0.35064
#
# Static dielectric constant tensor:
#      x y z
#    x 1.562710 0.000000 0.000000 
#    y 0.000000 1.562710 0.000000 
#    z 0.000000 0.000000 1.564770 
# 
# From -- ./inp_files/1178.got.cif
#   From: 2010.05.17/outbox.cif.g08.bks.cpg/sg192_1_cif.got.tgz:1178.got - 2010.05.20 12:28:01.
