data_PCOD9588563
_publ_section_title
;
Structure prediction by ZEFSAII (Michael W. Deem and Ramdas Pophale) SiO2 
 PCOD9588563
Probable space group: P 6/M C C
;
_chemical_formula_sum "Si O2"
_cell_formula_units_Z 168
_cell_length_a 17.174636
_cell_length_b 17.174636
_cell_length_c 33.324121
_cell_angle_alpha 90.000000
_cell_angle_beta 90.000000
_cell_angle_gamma 120.000000
_cell_volume 8512.642935
_symmetry_space_group_name_H-M "P 6/M C C"
_symmetry_group_IT_number 192
_symmetry_cell_setting 'hexagonal'
loop_
_space_group_symop_operation_xyz
x,y,z
x-y,x,z
-y,x-y,z
-x,-y,z
-x+y,-x,z
y,-x+y,z
x-y,-y,1/2-z
-x,-x+y,1/2-z
y,x,1/2-z
-y,-x,1/2-z
-x+y,y,1/2-z
x,x-y,1/2-z
-x,-y,-z
-x+y,-x,-z
y,-x+y,-z
x,y,-z
x-y,x,-z
-y,x-y,-z
-x+y,y,1/2+z
x,x-y,1/2+z
-y,-x,1/2+z
y,x,1/2+z
x-y,-y,1/2+z
-x,-x+y,1/2+z
loop_
_atom_site_type_symbol
_atom_site_label
_atom_site_fract_x
_atom_site_fract_y
_atom_site_fract_z
Si Si1 0.515197 0.849034 0.455878
Si Si2 0.150966 0.666163 0.044122
Si Si3 0.346568 0.346568 0.686534
Si Si4 0.668155 0.145286 0.250000
Si Si5 0.408412 1.000000 0.600133
Si Si6 0.812212 0.812213 0.136396
Si Si7 1.000000 0.186760 0.544216
O O1 0.542148 0.891985 0.500000
O O2 0.413975 0.827950 0.449086
O O3 0.516759 0.758379 0.456427
O O4 0.578882 0.912150 0.421512
O O5 0.087850 0.666732 0.078488
O O6 0.108015 0.650163 0.000000
O O7 0.413954 0.326410 0.712567
O O8 0.326411 0.413954 0.712567
O O9 0.398121 0.398120 0.646823
O O10 0.258450 0.258450 0.668784
O O11 0.753411 0.246590 0.250000
O O12 0.572018 0.144035 0.250000
O O13 0.500000 0.000000 0.589524
O O14 0.909622 0.819245 0.141128
O O15 0.780307 0.780307 0.090050
O O16 1.000000 0.229515 0.500000
O O17 0.089301 0.178601 0.543400
#
# Coordination Sequence:
#
# PCOD9588563 Si02
#       7
#    24  24  24  24  24  24  24
#     4   9  17  30  50  77 110 150 196 244 289 332
#     4   9  17  30  50  77 110 150 196 244 289 332
#     4  11  23  41  63  90 123 157 187 230 295 361
#     4  11  24  45  72  98 122 149 186 231 284 350
#     4  10  20  35  55  79 111 149 188 229 282 349
#     4  10  20  35  57  86 121 162 208 254 298 347
#     4   8  13  23  42  70 106 150 200 251 297 338
#
# _framework density 19.735351000000001
#
# number of rings (size 3 to 8) (size 9 to 14) (size 15 to 20)
#    0.000    2.286    0.000    3.714    0.000    6.857 
#    0.000    1.429    0.000    6.857    0.000    5.000 
#    0.000    0.000    0.000    0.000    0.000    5.714 
#
# Total GULP energy -936419.714076 kJ/mol
# GULP energy per Si atom -5573.926870 kJ/mol
# Density = 1.969043 g / cm^3
# Si number density = 19.735351 Si / 1000 Ang^3
#
#
#
# Elastic Constant Matrix: (Units=GPa)
#
#
# Indices 1 2 3 4 5 6 
#
# 1 120.6750 65.1453 54.8152 0.0000 0.0000 0.0000
# 2 65.1453 120.6750 54.8152 0.0000 0.0000 0.0000
# 3 54.8152 54.8152 148.8551 0.0000 0.0000 0.0000
# 4 0.0000 0.0000 0.0000 10.1330 0.0000 0.0000
# 5 0.0000 0.0000 0.0000 0.0000 10.1330 0.0000
# 6 0.0000 0.0000 0.0000 0.0000 0.0000 27.7649
#
#
#
# Elastic Compliance Matrix: (Units=1/GPa)
#
#
# Indices 1 2 3 4 5 6 
#
# 1 0.012442 -0.005567 -0.002532 0.000000 0.000000 0.000000
# 2 -0.005567 0.012442 -0.002532 0.000000 0.000000 0.000000
# 3 -0.002532 -0.002532 0.008583 0.000000 0.000000 0.000000
# 4 0.000000 0.000000 0.000000 0.098687 0.000000 0.000000
# 5 0.000000 0.000000 0.000000 0.000000 0.098687 0.000000
# 6 0.000000 0.000000 0.000000 0.000000 0.000000 0.036017
#
#
# Mechanical properties :
#
#
# Convention : Reuss Voigt Hill
#
# Bulk Modulus (GPa) = 81.92726 82.19518 82.06122
# Shear Modulus (GPa) = 17.11235 23.96813 20.54024
#
# Velocity S-wave (km/s) = 2.94784 3.48872 3.22962
# Velocity P-wave (km/s) = 7.29311 7.61363 7.45509
#
# Compressibility (1/GPa) = 0.01220595
#
# Stress axis : x y z
#
# Youngs Moduli (GPa) = 80.37415 80.37415 116.51512
#
# Poissons Ratio (x) = 0.44741 0.29499
# Poissons Ratio (y) = 0.44741 0.29499
# Poissons Ratio (z) = 0.20349 0.20349
#
# Static dielectric constant tensor:
#      x y z
#    x 1.704120 0.000000 0.000000 
#    y 0.000000 1.704120 0.000000 
#    z 0.000000 0.000000 1.697920 
# 
# From -- ./inp_files/7177.got.cif
#   From: 2010.05.17/outbox.cif.g08.bks.cpg/sg192_4_cif.got.tgz:7177.got - 2010.05.20 12:28:01.
