data_PCOD9588425
_publ_section_title
;
Structure prediction by ZEFSAII (Michael W. Deem and Ramdas Pophale) SiO2 
 PCOD9588425
Probable space group: P 6/M C C
;
_chemical_formula_sum "Si O2"
_cell_formula_units_Z 120
_cell_length_a 24.855981
_cell_length_b 24.855981
_cell_length_c 14.677848
_cell_angle_alpha 90.000000
_cell_angle_beta 90.000000
_cell_angle_gamma 120.000000
_cell_volume 7853.347850
_symmetry_space_group_name_H-M "P 6/M C C"
_symmetry_group_IT_number 192
_symmetry_cell_setting 'hexagonal'
loop_
_space_group_symop_operation_xyz
x,y,z
x-y,x,z
-y,x-y,z
-x,-y,z
-x+y,-x,z
y,-x+y,z
x-y,-y,1/2-z
-x,-x+y,1/2-z
y,x,1/2-z
-y,-x,1/2-z
-x+y,y,1/2-z
x,x-y,1/2-z
-x,-y,-z
-x+y,-x,-z
y,-x+y,-z
x,y,-z
x-y,x,-z
-y,x-y,-z
-x+y,y,1/2+z
x,x-y,1/2+z
-y,-x,1/2+z
y,x,1/2+z
x-y,-y,1/2+z
-x,-x+y,1/2+z
loop_
_atom_site_type_symbol
_atom_site_label
_atom_site_fract_x
_atom_site_fract_y
_atom_site_fract_z
Si Si1 0.749090 0.074896 0.250000
Si Si2 0.375281 0.924683 0.250000
Si Si3 0.071862 0.928139 0.860546
Si Si4 0.537847 0.075693 0.603780
Si Si5 0.855719 0.711437 0.604143
O O1 0.695938 0.093791 0.250000
O O2 0.793073 0.103279 0.338034
O O3 0.793073 0.103279 0.161966
O O4 0.716194 0.000000 0.250000
O O5 0.400177 0.905285 0.338273
O O6 0.400177 0.905285 0.161727
O O7 0.413087 0.000000 0.250000
O O8 0.073580 0.926421 0.750000
O O9 0.106879 0.893122 0.894964
O O10 0.000000 0.893117 0.888017
O O11 0.548697 0.097395 0.500000
O O12 0.500000 0.000000 0.602353
O O13 0.844716 0.689432 0.500000
#
# Coordination Sequence:
#
# PCOD9588425 Si02
#       5
#    24  24  24  24  24
#     4  10  20  35  50  64  87 120 160 199 237 288
#     4   8  15  26  42  64  88 117 149 177 208 251
#     4  10  19  33  51  68  84 104 138 194 268 342
#     4   8  13  23  40  65  95 118 137 167 202 232
#     4  11  23  35  48  66  89 118 155 203 253 303
#
# _framework density 15.280108
#
# number of rings (size 3 to 8) (size 9 to 14) (size 15 to 20)
#    0.000    2.600    2.000    2.600    0.000    5.600 
#    0.000    4.000    0.000    1.200    0.000    0.000 
#    0.000    0.000    0.000   38.400    0.000   89.600 
#
# Total GULP energy -668797.728626 kJ/mol
# GULP energy per Si atom -5573.314405 kJ/mol
# Density = 1.524533 g / cm^3
# Si number density = 15.280108 Si / 1000 Ang^3
#
#
#
# Elastic Constant Matrix: (Units=GPa)
#
#
# Indices 1 2 3 4 5 6 
#
# 1 94.7510 51.0650 52.5608 0.0000 0.0000 0.0000
# 2 51.0650 94.7510 52.5608 0.0000 0.0000 0.0000
# 3 52.5608 52.5608 152.1071 0.0000 0.0000 0.0000
# 4 0.0000 0.0000 0.0000 -5.9078 0.0000 0.0000
# 5 0.0000 0.0000 0.0000 0.0000 -5.9078 0.0000
# 6 0.0000 0.0000 0.0000 0.0000 0.0000 21.8430
#
#
#
# Elastic Compliance Matrix: (Units=1/GPa)
#
#
# Indices 1 2 3 4 5 6 
#
# 1 0.016012 -0.006879 -0.003156 0.000000 0.000000 0.000000
# 2 -0.006879 0.016012 -0.003156 0.000000 0.000000 0.000000
# 3 -0.003156 -0.003156 0.008755 0.000000 0.000000 0.000000
# 4 0.000000 0.000000 0.000000 -0.169269 0.000000 0.000000
# 5 0.000000 0.000000 0.000000 0.000000 -0.169269 0.000000
# 6 0.000000 0.000000 0.000000 0.000000 0.000000 0.045781
#
#
# Mechanical properties :
#
#
# Convention : Reuss Voigt Hill
#
# Bulk Modulus (GPa) = 69.45486 72.66471 71.05978
# Shear Modulus (GPa) = -22.64525 14.36700 -4.13912
#
# Velocity S-wave (km/s) = -3.85386 3.06966 -1.64764
# Velocity P-wave (km/s) = 5.07446 7.76029 6.55638
#
# Compressibility (1/GPa) = 0.01439784
#
# Stress axis : x y z
#
# Youngs Moduli (GPa) = 62.45359 62.45359 114.21498
#
# Poissons Ratio (x) = 0.42960 0.36046
# Poissons Ratio (y) = 0.42960 0.36046
# Poissons Ratio (z) = 0.19710 0.19710
#
# Static dielectric constant tensor:
#      x y z
#    x 1.489770 0.000000 0.000000 
#    y 0.000000 1.489770 0.000000 
#    z 0.000000 0.000000 1.540220 
# 
# From -- ./inp_files/3156.got.cif
#   From: 2010.05.17/outbox.cif.g08.bks.cpg/sg192_2_cif.got.tgz:3156.got - 2010.05.20 12:28:01.
