data_PCOD9588349
_publ_section_title
;
Structure prediction by ZEFSAII (Michael W. Deem and Ramdas Pophale) SiO2 
 PCOD9588349
Probable space group: P 6/M C C
;
_chemical_formula_sum "Si O2"
_cell_formula_units_Z 84
_cell_length_a 14.441591
_cell_length_b 14.441591
_cell_length_c 23.084131
_cell_angle_alpha 90.000000
_cell_angle_beta 90.000000
_cell_angle_gamma 120.000000
_cell_volume 4169.406550
_symmetry_space_group_name_H-M "P 6/M C C"
_symmetry_group_IT_number 192
_symmetry_cell_setting 'hexagonal'
loop_
_space_group_symop_operation_xyz
x,y,z
x-y,x,z
-y,x-y,z
-x,-y,z
-x+y,-x,z
y,-x+y,z
x-y,-y,1/2-z
-x,-x+y,1/2-z
y,x,1/2-z
-y,-x,1/2-z
-x+y,y,1/2-z
x,x-y,1/2-z
-x,-y,-z
-x+y,-x,-z
y,-x+y,-z
x,y,-z
x-y,x,-z
-y,x-y,-z
-x+y,y,1/2+z
x,x-y,1/2+z
-y,-x,1/2+z
y,x,1/2+z
x-y,-y,1/2+z
-x,-x+y,1/2+z
loop_
_atom_site_type_symbol
_atom_site_label
_atom_site_fract_x
_atom_site_fract_y
_atom_site_fract_z
Si Si1 0.125380 0.583747 0.683795
Si Si2 0.244079 0.183193 0.432882
Si Si3 0.760102 0.550905 0.122230
Si Si4 0.760327 0.290902 0.500000
O O1 0.155938 0.577969 0.750000
O O2 0.187253 0.543286 0.641702
O O3 0.158178 0.704120 0.667187
O O4 0.000000 0.500000 0.677683
O O5 0.146620 0.204697 0.425492
O O6 0.281095 0.213803 0.500000
O O7 0.340452 0.242394 0.387545
O O8 0.797382 0.532372 0.059371
O O9 0.780281 0.410773 0.500000
#
# Coordination Sequence:
#
# PCOD9588349 Si02
#       4
#    24  24  24  12
#     4  11  24  39  58  84 113 151 194 234 285 340
#     4  10  21  36  56  83 116 153 193 237 287 338
#     4  12  20  38  58  84 117 152 190 233 280 347
#     4  10  18  34  52  84 114 152 186 218 278 346
#
# _framework density 20.146751999999999
#
# number of rings (size 3 to 8) (size 9 to 14) (size 15 to 20)
#    0.286    0.857    4.286    3.429    0.000    1.143 
#    0.000    1.429    0.000    0.000    0.000    0.000 
#    0.000   13.714    0.000    0.000    0.000    0.000 
#
# Total GULP energy -468894.330181 kJ/mol
# GULP energy per Si atom -5582.075359 kJ/mol
# Density = 2.010090 g / cm^3
# Si number density = 20.146752 Si / 1000 Ang^3
#
#
#
# Elastic Constant Matrix: (Units=GPa)
#
#
# Indices 1 2 3 4 5 6 
#
# 1 50.4825 -8.2679 10.1687 0.0000 0.0000 0.0000
# 2 -8.2679 50.4825 10.1687 0.0000 0.0000 0.0000
# 3 10.1687 10.1687 94.2053 0.0000 0.0000 0.0000
# 4 0.0000 0.0000 0.0000 21.8563 0.0000 0.0000
# 5 0.0000 0.0000 0.0000 0.0000 21.8563 0.0000
# 6 0.0000 0.0000 0.0000 0.0000 0.0000 29.3752
#
#
#
# Elastic Compliance Matrix: (Units=1/GPa)
#
#
# Indices 1 2 3 4 5 6 
#
# 1 0.021005 0.003983 -0.002697 0.000000 0.000000 0.000000
# 2 0.003983 0.021005 -0.002697 0.000000 0.000000 0.000000
# 3 -0.002697 -0.002697 0.011197 0.000000 0.000000 0.000000
# 4 0.000000 0.000000 0.000000 0.045753 0.000000 0.000000
# 5 0.000000 0.000000 0.000000 0.000000 0.045753 0.000000
# 6 0.000000 0.000000 0.000000 0.000000 0.000000 0.034042
#
#
# Mechanical properties :
#
#
# Convention : Reuss Voigt Hill
#
# Bulk Modulus (GPa) = 19.84750 24.36772 22.10761
# Shear Modulus (GPa) = 25.20510 26.82428 26.01469
#
# Velocity S-wave (km/s) = 3.54089 3.65285 3.59731
# Velocity P-wave (km/s) = 5.15656 5.46923 5.31519
#
# Compressibility (1/GPa) = 0.05038418
#
# Stress axis : x y z
#
# Youngs Moduli (GPa) = 47.60880 47.60880 89.30642
#
# Poissons Ratio (x) = -0.18964 0.24088
# Poissons Ratio (y) = -0.18964 0.24088
# Poissons Ratio (z) = 0.12841 0.12841
#
# Static dielectric constant tensor:
#      x y z
#    x 1.724130 0.000000 0.000000 
#    y 0.000000 1.724130 0.000000 
#    z 0.000000 0.000000 1.695490 
# 
# From -- ./inp_files/5571.got.cif
#   From: 2010.05.17/outbox.cif.g08.bks.cpg/sg192_3_cif.got.tgz:5571.got - 2010.05.20 12:28:01.
