data_PCOD9588804
_publ_section_title
;
Structure prediction by ZEFSAII (Michael W. Deem and Ramdas Pophale) SiO2 
 PCOD9588804
Probable space group: P 6/M C C
;
_chemical_formula_sum "Si O2"
_cell_formula_units_Z 126
_cell_length_a 31.378749
_cell_length_b 31.378749
_cell_length_c 9.147337
_cell_angle_alpha 90.000000
_cell_angle_beta 90.000000
_cell_angle_gamma 120.000000
_cell_volume 7800.035182
_symmetry_space_group_name_H-M "P 6/M C C"
_symmetry_group_IT_number 192
_symmetry_cell_setting 'hexagonal'
loop_
_space_group_symop_operation_xyz
x,y,z
x-y,x,z
-y,x-y,z
-x,-y,z
-x+y,-x,z
y,-x+y,z
x-y,-y,1/2-z
-x,-x+y,1/2-z
y,x,1/2-z
-y,-x,1/2-z
-x+y,y,1/2-z
x,x-y,1/2-z
-x,-y,-z
-x+y,-x,-z
y,-x+y,-z
x,y,-z
x-y,x,-z
-y,x-y,-z
-x+y,y,1/2+z
x,x-y,1/2+z
-y,-x,1/2+z
y,x,1/2+z
x-y,-y,1/2+z
-x,-x+y,1/2+z
loop_
_atom_site_type_symbol
_atom_site_label
_atom_site_fract_x
_atom_site_fract_y
_atom_site_fract_z
Si Si1 0.392080 0.241390 0.171243
Si Si2 0.312549 0.361865 0.177984
Si Si3 0.537058 0.610151 0.828567
Si Si4 0.000000 0.500000 0.250000
Si Si5 0.554935 0.243273 0.000000
Si Si6 0.769957 0.352125 0.500000
Si Si7 0.822410 0.497659 0.760833
O O1 0.384667 0.192334 0.250000
O O2 0.365363 0.265975 0.261368
O O3 0.450383 0.282210 0.178187
O O4 0.377811 0.233488 0.000000
O O5 0.317628 0.317628 0.250000
O O6 0.358925 0.410557 0.248700
O O7 0.314650 0.362381 0.000000
O O8 0.514857 0.551742 0.827957
O O9 0.505575 0.628793 0.736151
O O10 0.540793 0.625490 0.000000
O O11 0.597526 0.229653 0.000000
O O12 0.584018 0.301954 0.000000
O O13 0.518500 0.216892 0.866881
O O14 0.798110 0.346856 0.635400
#
# Coordination Sequence:
#
# PCOD9588804 Si02
#       7
#    24  24  24   6  12  12  24
#     4  11  22  38  61  87 113 140 178 222 262 314
#     4  11  22  38  58  80 111 146 178 212 262 313
#     4  11  24  41  56  79 105 134 164 204 245 303
#     4  12  26  36  64  78 110 132 170 200 250 312
#     4  12  27  38  64  76  98 126 162 202 253 310
#     4  12  23  46  54  80  96 126 154 210 247 306
#     4  11  24  40  61  77 104 128 164 202 254 301
#
# _framework density 16.153773999999999
#
# number of rings (size 3 to 8) (size 9 to 14) (size 15 to 20)
#    0.000    0.762    2.857    6.190    9.333    0.762 
#    0.000    1.905    0.000    0.000    0.000    0.000 
#    0.000    0.000    0.000    0.000    0.000    0.000 
#
# Total GULP energy -702655.233717 kJ/mol
# GULP energy per Si atom -5576.628839 kJ/mol
# Density = 1.611701 g / cm^3
# Si number density = 16.153774 Si / 1000 Ang^3
#
#
#
# Elastic Constant Matrix: (Units=GPa)
#
#
# Indices 1 2 3 4 5 6 
#
# 1 80.8299 29.3906 27.7528 0.0000 0.0000 0.0000
# 2 29.3906 80.8299 27.7528 0.0000 0.0000 0.0000
# 3 27.7528 27.7528 72.9201 0.0000 0.0000 0.0000
# 4 0.0000 0.0000 0.0000 16.1865 0.0000 0.0000
# 5 0.0000 0.0000 0.0000 0.0000 16.1865 0.0000
# 6 0.0000 0.0000 0.0000 0.0000 0.0000 25.7196
#
#
#
# Elastic Compliance Matrix: (Units=1/GPa)
#
#
# Indices 1 2 3 4 5 6 
#
# 1 0.015332 -0.004108 -0.004272 0.000000 0.000000 0.000000
# 2 -0.004108 0.015332 -0.004272 0.000000 0.000000 0.000000
# 3 -0.004272 -0.004272 0.016965 0.000000 0.000000 0.000000
# 4 0.000000 0.000000 0.000000 0.061780 0.000000 0.000000
# 5 0.000000 0.000000 0.000000 0.000000 0.061780 0.000000
# 6 0.000000 0.000000 0.000000 0.000000 0.000000 0.038881
#
#
# Mechanical properties :
#
#
# Convention : Reuss Voigt Hill
#
# Bulk Modulus (GPa) = 44.79059 44.93025 44.86042
# Shear Modulus (GPa) = 20.59174 21.59742 21.09458
#
# Velocity S-wave (km/s) = 3.57421 3.66045 3.61759
# Velocity P-wave (km/s) = 6.69486 6.76311 6.72907
#
# Compressibility (1/GPa) = 0.02232612
#
# Stress axis : x y z
#
# Youngs Moduli (GPa) = 65.22240 65.22240 58.94412
#
# Poissons Ratio (x) = 0.26795 0.25179
# Poissons Ratio (y) = 0.26795 0.25179
# Poissons Ratio (z) = 0.27861 0.27861
#
# Static dielectric constant tensor:
#      x y z
#    x 1.581510 0.000000 0.000000 
#    y 0.000000 1.581510 0.000000 
#    z 0.000000 0.000000 1.554890 
# 
# From -- ./inp_files/1121.got.cif
#   From: 2010.05.17/outbox.cif.g08.bks.cpg/sg192_1_cif.got.tgz:1121.got - 2010.05.20 12:28:01.
