data_PCOD9588045
_publ_section_title
;
Structure prediction by ZEFSAII (Michael W. Deem and Ramdas Pophale) SiO2 
 PCOD9588045
Probable space group: P 6/M M M
;
_chemical_formula_sum "Si O2"
_cell_formula_units_Z 120
_cell_length_a 17.866239
_cell_length_b 17.866239
_cell_length_c 25.614219
_cell_angle_alpha 90.000000
_cell_angle_beta 90.000000
_cell_angle_gamma 120.000000
_cell_volume 7080.729909
_symmetry_space_group_name_H-M "P 6/M M M"
_symmetry_group_IT_number 191
_symmetry_cell_setting 'hexagonal'
loop_
_space_group_symop_operation_xyz
x,y,z
x-y,x,z
-y,x-y,z
-x,-y,z
-x+y,-x,z
y,-x+y,z
x-y,-y,-z
-x,-x+y,-z
y,x,-z
-y,-x,-z
-x+y,y,-z
x,x-y,-z
-x,-y,-z
-x+y,-x,-z
y,-x+y,-z
x,y,-z
x-y,x,-z
-y,x-y,-z
-x+y,y,z
x,x-y,z
-y,-x,z
y,x,z
x-y,-y,z
-x,-x+y,z
loop_
_atom_site_type_symbol
_atom_site_label
_atom_site_fract_x
_atom_site_fract_y
_atom_site_fract_z
Si Si1 0.160213 0.491483 0.556313
Si Si2 0.652532 0.652532 0.937612
Si Si3 0.897087 0.533460 0.331265
Si Si4 0.370493 0.101739 0.229729
Si Si5 0.173342 0.173342 0.063647
Si Si6 0.488674 0.332842 0.127794
O O1 0.126196 0.445539 0.500000
O O2 0.261587 0.523174 0.556701
O O3 0.144474 0.572237 0.556515
O O4 0.124661 0.445605 0.611443
O O5 0.739875 0.739875 0.920243
O O6 0.655580 0.570554 0.914929
O O7 0.650498 0.650498 0.000000
O O8 0.860313 0.430157 0.326401
O O9 0.873528 0.573841 0.283005
O O10 0.000000 0.578217 0.328886
O O11 0.333391 0.166696 0.223399
O O12 0.436580 0.120914 0.182108
O O13 0.301124 0.000000 0.230475
O O14 0.173795 0.086898 0.080488
O O15 0.172698 0.172698 0.000000
O O16 0.496622 0.248311 0.117015
O O17 0.581552 0.418449 0.131000
#
# Coordination Sequence:
#
# PCOD9588045 Si02
#       6
#    24  12  24  24  12  24
#     4   9  16  25  37  55  83 121 163 204 245 290
#     4  11  23  39  59  81 109 145 182 215 257 317
#     4   9  17  28  44  67  94 125 163 206 251 300
#     4  10  20  35  56  79 103 132 168 210 257 308
#     4   9  17  31  53  81 111 141 175 216 259 303
#     4  11  23  39  59  83 110 141 177 220 265 310
#
# _framework density 16.947405
#
# number of rings (size 3 to 8) (size 9 to 14) (size 15 to 20)
#    0.000    2.200    1.000    2.600    0.000    4.400 
#    0.000    2.000    0.000    7.800    0.000    0.000 
#    0.000    0.000    0.000    0.000    0.000    0.000 
#
# Total GULP energy -668688.087110 kJ/mol
# GULP energy per Si atom -5572.400726 kJ/mol
# Density = 1.690883 g / cm^3
# Si number density = 16.947405 Si / 1000 Ang^3
#
#
#
# Elastic Constant Matrix: (Units=GPa)
#
#
# Indices 1 2 3 4 5 6 
#
# 1 95.3018 58.3919 39.6443 0.0000 0.0000 0.0000
# 2 58.3919 95.3018 39.6443 0.0000 0.0000 0.0000
# 3 39.6443 39.6443 109.1167 0.0000 0.0000 0.0000
# 4 0.0000 0.0000 0.0000 209.5943 0.0000 0.0000
# 5 0.0000 0.0000 0.0000 0.0000 209.5943 0.0000
# 6 0.0000 0.0000 0.0000 0.0000 0.0000 18.4549
#
#
#
# Elastic Compliance Matrix: (Units=1/GPa)
#
#
# Indices 1 2 3 4 5 6 
#
# 1 0.017550 -0.009543 -0.002909 0.000000 0.000000 0.000000
# 2 -0.009543 0.017550 -0.002909 0.000000 0.000000 0.000000
# 3 -0.002909 -0.002909 0.011278 0.000000 0.000000 0.000000
# 4 0.000000 0.000000 0.000000 0.004771 0.000000 0.000000
# 5 0.000000 0.000000 0.000000 0.000000 0.004771 0.000000
# 6 0.000000 0.000000 0.000000 0.000000 0.000000 0.054186
#
#
# Mechanical properties :
#
#
# Convention : Reuss Voigt Hill
#
# Bulk Modulus (GPa) = 63.87256 63.89791 63.88523
# Shear Modulus (GPa) = 34.23526 98.33135 66.28330
#
# Velocity S-wave (km/s) = 4.49942 7.62545 6.26068
# Velocity P-wave (km/s) = 8.04758 10.73850 9.48891
#
# Compressibility (1/GPa) = 0.01565617
#
# Stress axis : x y z
#
# Youngs Moduli (GPa) = 56.97960 56.97960 88.66470
#
# Poissons Ratio (x) = 0.54375 0.25794
# Poissons Ratio (y) = 0.54375 0.25794
# Poissons Ratio (z) = 0.16577 0.16577
#
# Static dielectric constant tensor:
#      x y z
#    x 1.567640 0.000000 0.000000 
#    y 0.000000 1.567640 0.000000 
#    z 0.000000 0.000000 1.611640 
# 
# From -- ./inp_files/8541.got.cif
#   From: 2010.05.17/outbox.cif.g08.bks.cpg/sg191_5_cif.got.tgz:8541.got - 2010.05.20 12:20:32.
