data_PCOD9588933
_publ_section_title
;
Structure prediction by ZEFSAII (Michael W. Deem and Ramdas Pophale) SiO2 
 PCOD9588933
Probable space group: P 63/M C M
;
_chemical_formula_sum "Si O2"
_cell_formula_units_Z 120
_cell_length_a 25.176276
_cell_length_b 25.176276
_cell_length_c 13.870088
_cell_angle_alpha 90.000000
_cell_angle_beta 90.000000
_cell_angle_gamma 120.000000
_cell_volume 7613.648628
_symmetry_space_group_name_H-M "P 63/M C M"
_symmetry_group_IT_number 193
_symmetry_cell_setting 'hexagonal'
loop_
_space_group_symop_operation_xyz
x,y,z
x-y,x,1/2+z
-y,x-y,z
-x,-y,1/2+z
-x+y,-x,z
y,-x+y,1/2+z
x-y,-y,1/2-z
-x,-x+y,1/2-z
y,x,1/2-z
-y,-x,-z
-x+y,y,-z
x,x-y,-z
-x,-y,-z
-x+y,-x,1/2-z
y,-x+y,-z
x,y,1/2-z
x-y,x,-z
-y,x-y,1/2-z
-x+y,y,1/2+z
x,x-y,1/2+z
-y,-x,1/2+z
y,x,z
x-y,-y,z
-x,-x+y,z
loop_
_atom_site_type_symbol
_atom_site_label
_atom_site_fract_x
_atom_site_fract_y
_atom_site_fract_z
Si Si1 0.071039 0.755295 0.951908
Si Si2 0.070932 0.636787 0.863433
Si Si3 0.851104 0.190056 0.860335
Si Si4 0.224907 0.484424 0.861199
Si Si5 0.181979 0.531668 0.472796
O O1 0.075764 0.697295 0.912417
O O2 0.118530 0.813673 0.889046
O O3 0.000000 0.735508 0.945092
O O4 0.096773 0.772517 0.060753
O O5 0.087326 0.649509 0.750000
O O6 0.117161 0.621300 0.918647
O O7 0.000000 0.584565 0.869800
O O8 0.872365 0.199529 0.750000
O O9 0.801405 0.213009 0.869643
O O10 0.224229 0.499507 0.750000
O O11 0.293324 0.521642 0.904571
O O12 0.182042 0.499024 0.927712
O O13 0.200666 0.600333 0.500000
#
# Coordination Sequence:
#
# PCOD9588933 Si02
#       5
#    24  24  24  24  24
#     4  10  18  30  50  77 104 131 168 209 244 287
#     4  10  19  32  52  76 100 126 159 199 242 293
#     4  10  18  32  54  75 100 136 170 203 245 293
#     4  10  20  37  54  71  93 122 160 201 249 305
#     4  11  21  35  54  71  93 122 158 200 250 299
#
# _framework density 15.761169000000001
#
# number of rings (size 3 to 8) (size 9 to 14) (size 15 to 20)
#    0.000    1.800    4.000    2.400    0.000    3.600 
#    4.800    0.000    0.000    0.600    0.000    0.000 
#    0.000    0.000    0.000   19.200    0.000   41.600 
#
# Total GULP energy -669060.044391 kJ/mol
# GULP energy per Si atom -5575.500370 kJ/mol
# Density = 1.572530 g / cm^3
# Si number density = 15.761169 Si / 1000 Ang^3
#
#
#
# Elastic Constant Matrix: (Units=GPa)
#
#
# Indices 1 2 3 4 5 6 
#
# 1 50.3014 18.3483 32.1186 0.0000 0.0000 0.0000
# 2 18.3483 50.3014 32.1186 0.0000 0.0000 0.0000
# 3 32.1186 32.1186 134.3346 0.0000 0.0000 0.0000
# 4 0.0000 0.0000 0.0000 13.1486 0.0000 0.0000
# 5 0.0000 0.0000 0.0000 0.0000 13.1486 0.0000
# 6 0.0000 0.0000 0.0000 0.0000 0.0000 15.9766
#
#
#
# Elastic Compliance Matrix: (Units=1/GPa)
#
#
# Indices 1 2 3 4 5 6 
#
# 1 0.025030 -0.006265 -0.004487 0.000000 0.000000 0.000000
# 2 -0.006265 0.025030 -0.004487 0.000000 0.000000 0.000000
# 3 -0.004487 -0.004487 0.009590 0.000000 0.000000 0.000000
# 4 0.000000 0.000000 0.000000 0.076054 0.000000 0.000000
# 5 0.000000 0.000000 0.000000 0.000000 0.076054 0.000000
# 6 0.000000 0.000000 0.000000 0.000000 0.000000 0.062592
#
#
# Mechanical properties :
#
#
# Convention : Reuss Voigt Hill
#
# Bulk Modulus (GPa) = 34.27824 44.45650 39.36737
# Shear Modulus (GPa) = 15.89567 18.61155 17.25361
#
# Velocity S-wave (km/s) = 3.17919 3.44008 3.31220
# Velocity P-wave (km/s) = 5.93903 6.63675 6.29756
#
# Compressibility (1/GPa) = 0.02917303
#
# Stress axis : x y z
#
# Youngs Moduli (GPa) = 39.95149 39.95149 104.28043
#
# Poissons Ratio (x) = 0.25031 0.46786
# Poissons Ratio (y) = 0.25031 0.46786
# Poissons Ratio (z) = 0.17925 0.17925
#
# Static dielectric constant tensor:
#      x y z
#    x 1.524680 0.000000 0.000000 
#    y 0.000000 1.524680 0.000000 
#    z 0.000000 0.000000 1.540060 
# 
# From -- ./inp_files/3993.got.cif
#   From: 2010.05.17/outbox.cif.g08.bks.cpg/sg193_2_cif.got.tgz:3993.got - 2010.05.20 12:33:02.
