data_PCOD9588879
_publ_section_title
;
Structure prediction by ZEFSAII (Michael W. Deem and Ramdas Pophale) SiO2 
 PCOD9588879
Probable space group: P 63/M C M
;
_chemical_formula_sum "Si O2"
_cell_formula_units_Z 92
_cell_length_a 18.272631
_cell_length_b 18.272631
_cell_length_c 22.967390
_cell_angle_alpha 90.000000
_cell_angle_beta 90.000000
_cell_angle_gamma 120.000000
_cell_volume 6641.167669
_symmetry_space_group_name_H-M "P 63/M C M"
_symmetry_group_IT_number 193
_symmetry_cell_setting 'hexagonal'
loop_
_space_group_symop_operation_xyz
x,y,z
x-y,x,1/2+z
-y,x-y,z
-x,-y,1/2+z
-x+y,-x,z
y,-x+y,1/2+z
x-y,-y,1/2-z
-x,-x+y,1/2-z
y,x,1/2-z
-y,-x,-z
-x+y,y,-z
x,x-y,-z
-x,-y,-z
-x+y,-x,1/2-z
y,-x+y,-z
x,y,1/2-z
x-y,x,-z
-y,x-y,1/2-z
-x+y,y,1/2+z
x,x-y,1/2+z
-y,-x,1/2+z
y,x,z
x-y,-y,z
-x,-x+y,z
loop_
_atom_site_type_symbol
_atom_site_label
_atom_site_fract_x
_atom_site_fract_y
_atom_site_fract_z
Si Si1 0.571417 0.475515 0.106596
Si Si2 0.906448 0.328488 0.819505
Si Si3 0.525426 0.800750 0.679974
Si Si4 0.388979 0.777958 0.500000
Si Si5 0.666668 0.333334 0.680482
O O1 0.528891 0.528891 0.084485
O O2 0.504048 0.404145 0.150087
O O3 0.656361 0.535214 0.142933
O O4 0.588850 0.426704 0.055543
O O5 0.901620 0.337786 0.750000
O O6 0.823628 0.239857 0.834578
O O7 0.000000 0.344802 0.833164
O O8 0.528449 0.815416 0.750000
O O9 0.429746 0.727665 0.663539
O O10 0.287920 0.712081 0.500000
O O11 0.666667 0.333334 0.750000
#
# Coordination Sequence:
#
# PCOD9588879 Si02
#       5
#    24  24  24  12   8
#     4  11  20  30  42  59  83 104 134 177 220 252
#     4   9  17  27  41  61  83 107 136 170 202 236
#     4  10  17  26  42  61  83 109 138 171 205 243
#     4  10  23  34  46  56  70 106 150 184 207 250
#     4   9  15  21  36  58  80 106 138 168 193 233
#
# _framework density 13.852986
#
# number of rings (size 3 to 8) (size 9 to 14) (size 15 to 20)
#    0.261    1.826    2.609    2.739    0.000    1.565 
#    0.000    0.000    0.000    0.000    0.000    0.000 
#    0.000    0.000    0.000    0.783    0.000   12.000 
#
# Total GULP energy -512318.798669 kJ/mol
# GULP energy per Si atom -5568.682594 kJ/mol
# Density = 1.382146 g / cm^3
# Si number density = 13.852986 Si / 1000 Ang^3
#
#
#
# Elastic Constant Matrix: (Units=GPa)
#
#
# Indices 1 2 3 4 5 6 
#
# 1 62.8425 25.2099 25.8783 0.0000 0.0000 0.0001
# 2 25.2099 62.8432 25.8783 0.0000 0.0000 0.0001
# 3 25.8783 25.8783 39.7067 0.0000 0.0000 0.0000
# 4 0.0000 0.0000 0.0000 17.0667 0.0000 0.0000
# 5 0.0000 0.0000 0.0000 0.0000 17.0666 0.0000
# 6 0.0001 0.0001 0.0000 0.0000 0.0000 18.8164
#
#
#
# Elastic Compliance Matrix: (Units=1/GPa)
#
#
# Indices 1 2 3 4 5 6 
#
# 1 0.022491 -0.004082 -0.011998 0.000000 0.000000 0.000000
# 2 -0.004082 0.022491 -0.011998 0.000000 0.000000 0.000000
# 3 -0.011998 -0.011998 0.040823 0.000000 0.000000 0.000000
# 4 0.000000 0.000000 0.000000 0.058594 0.000000 0.000000
# 5 0.000000 0.000000 0.000000 0.000000 0.058594 0.000000
# 6 0.000000 0.000000 0.000000 0.000000 0.000000 0.053145
#
#
# Mechanical properties :
#
#
# Convention : Reuss Voigt Hill
#
# Bulk Modulus (GPa) = 33.72655 35.48062 34.60359
# Shear Modulus (GPa) = 15.51947 16.48500 16.00224
#
# Velocity S-wave (km/s) = 3.35072 3.45337 3.40243
# Velocity P-wave (km/s) = 6.27444 6.44740 6.36151
#
# Compressibility (1/GPa) = 0.02965023
#
# Stress axis : x y z
#
# Youngs Moduli (GPa) = 44.46238 44.46308 24.49572
#
# Poissons Ratio (x) = 0.18149 0.29390
# Poissons Ratio (y) = 0.18148 0.29389
# Poissons Ratio (z) = 0.53346 0.53345
#
# Static dielectric constant tensor:
#      x y z
#    x 1.467940 0.000000 0.000000 
#    y 0.000000 1.467940 0.000000 
#    z 0.000000 0.000000 1.475720 
# 
# From -- ./inp_files/6202.got.cif
#   From: 2010.05.17/outbox.cif.g08.bks.cpg/sg193_4_cif.got.tgz:6202.got - 2010.05.20 12:33:02.
