data_PCOD9588309
_publ_section_title
;
Structure prediction by ZEFSAII (Michael W. Deem and Ramdas Pophale) SiO2 
 PCOD9588309
Probable space group: P 6/M C C
;
_chemical_formula_sum "Si O2"
_cell_formula_units_Z 108
_cell_length_a 21.156261
_cell_length_b 21.156261
_cell_length_c 18.171376
_cell_angle_alpha 90.000000
_cell_angle_beta 90.000000
_cell_angle_gamma 120.000000
_cell_volume 7043.625854
_symmetry_space_group_name_H-M "P 6/M C C"
_symmetry_group_IT_number 192
_symmetry_cell_setting 'hexagonal'
loop_
_space_group_symop_operation_xyz
x,y,z
x-y,x,z
-y,x-y,z
-x,-y,z
-x+y,-x,z
y,-x+y,z
x-y,-y,1/2-z
-x,-x+y,1/2-z
y,x,1/2-z
-y,-x,1/2-z
-x+y,y,1/2-z
x,x-y,1/2-z
-x,-y,-z
-x+y,-x,-z
y,-x+y,-z
x,y,-z
x-y,x,-z
-y,x-y,-z
-x+y,y,1/2+z
x,x-y,1/2+z
-y,-x,1/2+z
y,x,1/2+z
x-y,-y,1/2+z
-x,-x+y,1/2+z
loop_
_atom_site_type_symbol
_atom_site_label
_atom_site_fract_x
_atom_site_fract_y
_atom_site_fract_z
Si Si1 0.698060 0.500220 0.307246
Si Si2 0.404055 0.342988 0.297514
Si Si3 0.500000 0.000000 0.127089
Si Si4 0.828389 0.565857 0.414972
Si Si5 0.838272 0.419370 0.421201
O O1 0.736649 0.473297 0.250000
O O2 0.670245 0.544351 0.257902
O O3 0.758606 0.552427 0.367348
O O4 0.633169 0.437082 0.352731
O O5 0.338002 0.338002 0.250000
O O6 0.448596 0.426291 0.327508
O O7 0.387000 0.288017 0.365715
O O8 0.450150 0.925395 0.083114
O O9 0.830571 0.588561 0.500000
O O10 0.825029 0.487407 0.417014
O O11 0.809988 0.381531 0.500000
#
# Coordination Sequence:
#
# PCOD9588309 Si02
#       5
#    24  24  12  24  24
#     4  10  20  31  46  61  81 112 139 166 213 265
#     4  10  18  29  47  66  84 101 129 174 219 261
#     4  10  18  28  48  68  89  95 130 180 236 266
#     4   9  20  34  45  60  86 111 137 170 214 268
#     4  10  19  31  48  66  85 108 137 179 223 270
#
# _framework density 15.333012999999999
#
# number of rings (size 3 to 8) (size 9 to 14) (size 15 to 20)
#    0.000    2.222    2.222    1.333    3.111    3.556 
#    1.333    0.000    4.889    0.000    0.000    0.000 
#    0.000    0.000    0.000    0.000    0.000    0.000 
#
# Total GULP energy -601839.960027 kJ/mol
# GULP energy per Si atom -5572.592222 kJ/mol
# Density = 1.529811 g / cm^3
# Si number density = 15.333013 Si / 1000 Ang^3
#
#
#
# Elastic Constant Matrix: (Units=GPa)
#
#
# Indices 1 2 3 4 5 6 
#
# 1 29.9372 6.6953 14.0409 0.0000 0.0000 0.0000
# 2 6.6953 29.9372 14.0409 0.0000 0.0000 0.0000
# 3 14.0409 14.0409 110.8744 0.0000 0.0000 0.0000
# 4 0.0000 0.0000 0.0000 28.4258 0.0000 0.0000
# 5 0.0000 0.0000 0.0000 0.0000 28.4258 0.0000
# 6 0.0000 0.0000 0.0000 0.0000 0.0000 11.6209
#
#
#
# Elastic Compliance Matrix: (Units=1/GPa)
#
#
# Indices 1 2 3 4 5 6 
#
# 1 0.036629 -0.006396 -0.003829 0.000000 0.000000 0.000000
# 2 -0.006396 0.036629 -0.003829 0.000000 0.000000 0.000000
# 3 -0.003829 -0.003829 0.009989 0.000000 0.000000 0.000000
# 4 0.000000 0.000000 0.000000 0.035179 0.000000 0.000000
# 5 0.000000 0.000000 0.000000 0.000000 0.035179 0.000000
# 6 0.000000 0.000000 0.000000 0.000000 0.000000 0.086052
#
#
# Mechanical properties :
#
#
# Convention : Reuss Voigt Hill
#
# Bulk Modulus (GPa) = 18.13549 26.70035 22.41792
# Shear Modulus (GPa) = 17.47364 22.75930 20.11647
#
# Velocity S-wave (km/s) = 3.37947 3.85688 3.62604
# Velocity P-wave (km/s) = 5.20396 6.10619 5.67304
#
# Compressibility (1/GPa) = 0.05514050
#
# Stress axis : x y z
#
# Youngs Moduli (GPa) = 27.30045 27.30045 100.11085
#
# Poissons Ratio (x) = 0.17462 0.38329
# Poissons Ratio (y) = 0.17462 0.38329
# Poissons Ratio (z) = 0.10452 0.10452
#
# Static dielectric constant tensor:
#      x y z
#    x 1.511220 0.000000 0.000000 
#    y 0.000000 1.511220 0.000000 
#    z 0.000000 0.000000 1.589920 
# 
# From -- ./inp_files/4139.got.cif
#   From: 2010.05.17/outbox.cif.g08.bks.cpg/sg192_3_cif.got.tgz:4139.got - 2010.05.20 12:28:01.
