data_PCOD9588491
_publ_section_title
;
Structure prediction by ZEFSAII (Michael W. Deem and Ramdas Pophale) SiO2 
 PCOD9588491
Probable space group: P 6/M C C
;
_chemical_formula_sum "Si O2"
_cell_formula_units_Z 168
_cell_length_a 26.493140
_cell_length_b 26.493140
_cell_length_c 18.792154
_cell_angle_alpha 90.000000
_cell_angle_beta 90.000000
_cell_angle_gamma 120.000000
_cell_volume 11422.839205
_symmetry_space_group_name_H-M "P 6/M C C"
_symmetry_group_IT_number 192
_symmetry_cell_setting 'hexagonal'
loop_
_space_group_symop_operation_xyz
x,y,z
x-y,x,z
-y,x-y,z
-x,-y,z
-x+y,-x,z
y,-x+y,z
x-y,-y,1/2-z
-x,-x+y,1/2-z
y,x,1/2-z
-y,-x,1/2-z
-x+y,y,1/2-z
x,x-y,1/2-z
-x,-y,-z
-x+y,-x,-z
y,-x+y,-z
x,y,-z
x-y,x,-z
-y,x-y,-z
-x+y,y,1/2+z
x,x-y,1/2+z
-y,-x,1/2+z
y,x,1/2+z
x-y,-y,1/2+z
-x,-x+y,1/2+z
loop_
_atom_site_type_symbol
_atom_site_label
_atom_site_fract_x
_atom_site_fract_y
_atom_site_fract_z
Si Si1 0.130148 0.260296 0.164529
Si Si2 0.862963 0.931481 0.414542
Si Si3 0.928937 0.464468 0.167846
Si Si4 0.733950 0.664201 0.833599
Si Si5 0.928986 0.365011 0.582019
Si Si6 0.266049 0.335799 0.333598
Si Si7 0.928986 0.563975 0.582019
O O1 0.125202 0.250404 0.250000
O O2 0.099418 0.198837 0.124767
O O3 0.198483 0.298214 0.146726
O O4 0.099731 0.298214 0.146727
O O5 0.899497 0.899498 0.396393
O O6 0.854106 0.927053 0.500000
O O7 0.910383 0.455192 0.250000
O O8 0.910349 0.505594 0.126468
O O9 0.910349 0.404755 0.126469
O O10 0.000000 0.500000 0.167863
O O11 0.729661 0.648313 0.750000
O O12 0.704681 0.704682 0.841519
O O13 0.695975 0.606897 0.880268
O O14 0.910500 0.358472 0.500000
O O15 0.910922 0.304025 0.619733
O O16 1.000000 0.400732 0.582631
O O17 0.910500 0.552028 0.500000
#
# Coordination Sequence:
#
# PCOD9588491 Si02
#       7
#    24  24  24  24  24  24  24
#     4  10  20  33  49  67  86 110 143 183 226 276
#     4  10  21  36  52  68  86 108 136 177 235 302
#     4   9  15  23  37  57  81 109 138 165 194 227
#     4   9  17  29  43  59  81 109 140 175 217 264
#     4   9  16  25  38  57  81 108 138 170 200 233
#     4   9  17  29  43  59  81 109 140 175 217 264
#     4   9  16  25  38  57  81 108 138 170 200 233
#
# _framework density 14.707376999999999
#
# number of rings (size 3 to 8) (size 9 to 14) (size 15 to 20)
#    0.000    2.714    0.000    2.286    0.000    8.571 
#    0.000    2.857    0.000    0.857    0.000    0.000 
#    0.000    0.000    0.000    0.857    0.000   14.143 
#
# Total GULP energy -936248.265299 kJ/mol
# GULP energy per Si atom -5572.906341 kJ/mol
# Density = 1.467390 g / cm^3
# Si number density = 14.707377 Si / 1000 Ang^3
#
#
#
# Elastic Constant Matrix: (Units=GPa)
#
#
# Indices 1 2 3 4 5 6 
#
# 1 95.0876 61.8095 67.8744 0.0000 0.0000 0.0000
# 2 61.8095 95.0876 67.8744 0.0000 0.0000 0.0000
# 3 67.8744 67.8744 101.9709 0.0000 0.0000 0.0000
# 4 0.0000 0.0000 0.0000 21.5704 0.0000 0.0000
# 5 0.0000 0.0000 0.0000 0.0000 21.5704 0.0000
# 6 0.0000 0.0000 0.0000 0.0000 0.0000 16.6391
#
#
#
# Elastic Compliance Matrix: (Units=1/GPa)
#
#
# Indices 1 2 3 4 5 6 
#
# 1 0.022539 -0.007511 -0.010004 0.000000 0.000000 0.000000
# 2 -0.007511 0.022539 -0.010004 0.000000 0.000000 0.000000
# 3 -0.010004 -0.010004 0.023124 0.000000 0.000000 0.000000
# 4 0.000000 0.000000 0.000000 0.046360 0.000000 0.000000
# 5 0.000000 0.000000 0.000000 0.000000 0.046360 0.000000
# 6 0.000000 0.000000 0.000000 0.000000 0.000000 0.060100
#
#
# Mechanical properties :
#
#
# Convention : Reuss Voigt Hill
#
# Bulk Modulus (GPa) = 75.94550 76.36252 76.15401
# Shear Modulus (GPa) = 17.82877 18.26185 18.04531
#
# Velocity S-wave (km/s) = 3.48549 3.52757 3.50659
# Velocity P-wave (km/s) = 8.24306 8.28406 8.26358
#
# Compressibility (1/GPa) = 0.01316734
#
# Stress axis : x y z
#
# Youngs Moduli (GPa) = 44.36706 44.36706 43.24529
#
# Poissons Ratio (x) = 0.33322 0.43260
# Poissons Ratio (y) = 0.33322 0.43260
# Poissons Ratio (z) = 0.44383 0.44383
#
# Static dielectric constant tensor:
#      x y z
#    x 1.462960 0.000000 0.000000 
#    y 0.000000 1.462960 0.000000 
#    z 0.000000 0.000000 1.495050 
# 
# From -- ./inp_files/5343.got.cif
#   From: 2010.05.17/outbox.cif.g08.bks.cpg/sg192_3_cif.got.tgz:5343.got - 2010.05.20 12:28:01.
