data_PCOD9588505
_publ_section_title
;
Structure prediction by ZEFSAII (Michael W. Deem and Ramdas Pophale) SiO2 
 PCOD9588505
Probable space group: P 6/M C C
;
_chemical_formula_sum "Si O2"
_cell_formula_units_Z 144
_cell_length_a 33.056717
_cell_length_b 33.056717
_cell_length_c 8.688367
_cell_angle_alpha 90.000000
_cell_angle_beta 90.000000
_cell_angle_gamma 120.000000
_cell_volume 8222.203638
_symmetry_space_group_name_H-M "P 6/M C C"
_symmetry_group_IT_number 192
_symmetry_cell_setting 'hexagonal'
loop_
_space_group_symop_operation_xyz
x,y,z
x-y,x,z
-y,x-y,z
-x,-y,z
-x+y,-x,z
y,-x+y,z
x-y,-y,1/2-z
-x,-x+y,1/2-z
y,x,1/2-z
-y,-x,1/2-z
-x+y,y,1/2-z
x,x-y,1/2-z
-x,-y,-z
-x+y,-x,-z
y,-x+y,-z
x,y,-z
x-y,x,-z
-y,x-y,-z
-x+y,y,1/2+z
x,x-y,1/2+z
-y,-x,1/2+z
y,x,1/2+z
x-y,-y,1/2+z
-x,-x+y,1/2+z
loop_
_atom_site_type_symbol
_atom_site_label
_atom_site_fract_x
_atom_site_fract_y
_atom_site_fract_z
Si Si1 0.228375 0.948520 0.815839
Si Si2 0.193144 0.718031 0.816149
Si Si3 0.380866 0.099032 0.815662
Si Si4 0.191338 0.051630 0.184599
Si Si5 0.434134 0.049698 0.684398
Si Si6 0.616193 0.143797 0.183841
O O1 0.246083 0.913697 0.763259
O O2 0.178585 0.935984 0.744702
O O3 0.264386 0.000000 0.750000
O O4 0.226459 0.950687 0.000000
O O5 0.241079 0.758922 0.750000
O O6 0.150571 0.727316 0.775996
O O7 0.178758 0.667378 0.749491
O O8 0.195357 0.716703 0.000000
O O9 0.397925 0.063773 0.756444
O O10 0.375235 0.095224 0.000000
O O11 0.179892 0.089946 0.250000
O O12 0.156773 0.000000 0.250000
O O13 0.190697 0.050913 0.000000
O O14 0.429375 0.047664 0.500000
O O15 0.485689 0.091682 0.725089
O O16 0.422421 0.000000 0.750000
O O17 0.576003 0.152005 0.250000
O O18 0.617235 0.147194 0.000000
#
# Coordination Sequence:
#
# PCOD9588505 Si02
#       6
#    24  24  24  24  24  24
#     4  11  21  34  52  76 108 147 188 230 271 315
#     4  10  21  37  58  81 107 138 174 216 265 318
#     4  10  20  34  51  74 106 145 186 227 268 314
#     4  11  22  39  60  84 111 142 179 221 269 322
#     4  10  20  33  50  74 105 143 184 226 267 311
#     4  10  21  37  57  80 107 138 175 216 263 316
#
# _framework density 17.513553000000002
#
# number of rings (size 3 to 8) (size 9 to 14) (size 15 to 20)
#    0.000    1.667    0.000    6.500    0.000    5.000 
#    0.000    3.333    0.000    0.500    0.000    3.500 
#    0.000    0.000    0.000    0.000    0.000    0.000 
#
# Total GULP energy -804723.738395 kJ/mol
# GULP energy per Si atom -5588.359294 kJ/mol
# Density = 1.747369 g / cm^3
# Si number density = 17.513553 Si / 1000 Ang^3
#
#
#
# Elastic Constant Matrix: (Units=GPa)
#
#
# Indices 1 2 3 4 5 6 
#
# 1 113.8813 97.5616 60.6543 0.0000 0.0000 0.0000
# 2 97.5616 113.8813 60.6543 0.0000 0.0000 0.0000
# 3 60.6543 60.6543 117.8616 0.0000 0.0000 0.0000
# 4 0.0000 0.0000 0.0000 29.6115 0.0000 0.0000
# 5 0.0000 0.0000 0.0000 0.0000 29.6115 0.0000
# 6 0.0000 0.0000 0.0000 0.0000 0.0000 8.1599
#
#
#
# Elastic Compliance Matrix: (Units=1/GPa)
#
#
# Indices 1 2 3 4 5 6 
#
# 1 0.033993 -0.027282 -0.003454 0.000000 0.000000 0.000000
# 2 -0.027282 0.033993 -0.003454 0.000000 0.000000 0.000000
# 3 -0.003454 -0.003454 0.012039 0.000000 0.000000 0.000000
# 4 0.000000 0.000000 0.000000 0.033771 0.000000 0.000000
# 5 0.000000 0.000000 0.000000 0.000000 0.033771 0.000000
# 6 0.000000 0.000000 0.000000 0.000000 0.000000 0.122551
#
#
# Mechanical properties :
#
#
# Convention : Reuss Voigt Hill
#
# Bulk Modulus (GPa) = 85.86267 87.04053 86.45160
# Shear Modulus (GPa) = 14.60370 21.92684 18.26527
#
# Velocity S-wave (km/s) = 2.89078 3.54219 3.23293
# Velocity P-wave (km/s) = 7.76370 8.15698 7.96277
#
# Compressibility (1/GPa) = 0.01164650
#
# Stress axis : x y z
#
# Youngs Moduli (GPa) = 29.41767 29.41767 83.06317
#
# Poissons Ratio (x) = 0.80259 0.28686
# Poissons Ratio (y) = 0.80259 0.28686
# Poissons Ratio (z) = 0.10159 0.10159
#
# Static dielectric constant tensor:
#      x y z
#    x 1.578530 0.000000 0.000000 
#    y 0.000000 1.578530 0.000000 
#    z 0.000000 0.000000 1.581040 
# 
# From -- ./inp_files/1147.got.cif
#   From: 2010.05.17/outbox.cif.g08.bks.cpg/sg192_1_cif.got.tgz:1147.got - 2010.05.20 12:28:01.
