data_PCOD9588616
_publ_section_title
;
Structure prediction by ZEFSAII (Michael W. Deem and Ramdas Pophale) SiO2 
 PCOD9588616
Probable space group: P 6/M C C
;
_chemical_formula_sum "Si O2"
_cell_formula_units_Z 168
_cell_length_a 18.592539
_cell_length_b 18.592539
_cell_length_c 28.361042
_cell_angle_alpha 90.000000
_cell_angle_beta 90.000000
_cell_angle_gamma 120.000000
_cell_volume 8490.440386
_symmetry_space_group_name_H-M "P 6/M C C"
_symmetry_group_IT_number 192
_symmetry_cell_setting 'hexagonal'
loop_
_space_group_symop_operation_xyz
x,y,z
x-y,x,z
-y,x-y,z
-x,-y,z
-x+y,-x,z
y,-x+y,z
x-y,-y,1/2-z
-x,-x+y,1/2-z
y,x,1/2-z
-y,-x,1/2-z
-x+y,y,1/2-z
x,x-y,1/2-z
-x,-y,-z
-x+y,-x,-z
y,-x+y,-z
x,y,-z
x-y,x,-z
-y,x-y,-z
-x+y,y,1/2+z
x,x-y,1/2+z
-y,-x,1/2+z
y,x,1/2+z
x-y,-y,1/2+z
-x,-x+y,1/2+z
loop_
_atom_site_type_symbol
_atom_site_label
_atom_site_fract_x
_atom_site_fract_y
_atom_site_fract_z
Si Si1 0.228485 0.408495 0.052745
Si Si2 0.551756 0.390338 0.352390
Si Si3 0.851699 0.479600 0.946014
Si Si4 0.332232 0.226540 0.137491
Si Si5 0.398200 0.375222 0.602206
Si Si6 0.897201 0.805139 0.700128
Si Si7 0.277502 0.494142 0.696433
O O1 0.214230 0.487726 0.052325
O O2 0.158463 0.354143 0.090137
O O3 0.314174 0.414581 0.069108
O O4 0.210450 0.374472 0.000000
O O5 0.591507 0.412367 0.404622
O O6 0.471672 0.402857 0.358948
O O7 0.624614 0.447718 0.315526
O O8 0.522279 0.297279 0.336474
O O9 0.943972 0.551139 0.926376
O O10 0.860406 0.456807 0.000000
O O11 0.325288 0.307690 0.126327
O O12 0.255324 0.146475 0.157982
O O13 0.404845 0.255010 0.176283
O O14 0.859019 0.864476 0.699026
O O15 0.878680 0.757359 0.750000
O O16 0.247995 0.495990 0.750000
#
# Coordination Sequence:
#
# PCOD9588616 Si02
#       7
#    24  24  24  24  24  24  24
#     4  10  20  38  62  92 129 170 213 255 317 398
#     4  12  23  44  65  95 124 168 225 276 322 398
#     4  10  22  39  65  99 135 174 214 264 337 398
#     4  11  22  42  63  96 132 171 212 270 328 393
#     4  11  21  38  68  95 135 167 217 271 331 384
#     4  10  21  38  64  95 129 166 209 258 321 391
#     4  12  26  45  67  87 123 175 227 276 336 388
#
# _framework density 19.786960000000001
#
# number of rings (size 3 to 8) (size 9 to 14) (size 15 to 20)
#    0.000    1.143    4.286    3.000    0.000    2.857 
#    0.000    0.714    3.143    0.000    0.000    0.000 
#    0.000    2.286    0.000    0.000    0.000    0.000 
#
# Total GULP energy -936603.477631 kJ/mol
# GULP energy per Si atom -5575.020700 kJ/mol
# Density = 1.974192 g / cm^3
# Si number density = 19.786960 Si / 1000 Ang^3
#
#
#
# Elastic Constant Matrix: (Units=GPa)
#
#
# Indices 1 2 3 4 5 6 
#
# 1 60.4384 9.1752 44.7669 0.0000 0.0000 0.0000
# 2 9.1752 60.4384 44.7669 0.0000 0.0000 0.0000
# 3 44.7669 44.7669 142.6373 0.0000 0.0000 0.0000
# 4 0.0000 0.0000 0.0000 12.4869 0.0000 0.0000
# 5 0.0000 0.0000 0.0000 0.0000 12.4869 0.0000
# 6 0.0000 0.0000 0.0000 0.0000 0.0000 25.6316
#
#
#
# Elastic Compliance Matrix: (Units=1/GPa)
#
#
# Indices 1 2 3 4 5 6 
#
# 1 0.021798 0.002291 -0.007560 0.000000 0.000000 0.000000
# 2 0.002291 0.021798 -0.007560 0.000000 0.000000 0.000000
# 3 -0.007560 -0.007560 0.011756 0.000000 0.000000 0.000000
# 4 0.000000 0.000000 0.000000 0.080084 0.000000 0.000000
# 5 0.000000 0.000000 0.000000 0.000000 0.080084 0.000000
# 6 0.000000 0.000000 0.000000 0.000000 0.000000 0.039014
#
#
# Mechanical properties :
#
#
# Convention : Reuss Voigt Hill
#
# Bulk Modulus (GPa) = 33.67836 51.21470 42.44653
# Shear Modulus (GPa) = 17.23595 21.10810 19.17202
#
# Velocity S-wave (km/s) = 2.95460 3.26969 3.11613
# Velocity P-wave (km/s) = 5.35696 6.33985 5.86902
#
# Compressibility (1/GPa) = 0.02969265
#
# Stress axis : x y z
#
# Youngs Moduli (GPa) = 45.87598 45.87598 85.06023
#
# Poissons Ratio (x) = -0.10509 0.64308
# Poissons Ratio (y) = -0.10509 0.64308
# Poissons Ratio (z) = 0.34683 0.34683
#
# Static dielectric constant tensor:
#      x y z
#    x 1.716030 0.000000 0.000000 
#    y 0.000000 1.716030 0.000000 
#    z 0.000000 0.000000 1.754180 
# 
# From -- ./inp_files/7207.got.cif
#   From: 2010.05.17/outbox.cif.g08.bks.cpg/sg192_4_cif.got.tgz:7207.got - 2010.05.20 12:28:01.
