data_PCOD9588010
_publ_section_title
;
Structure prediction by ZEFSAII (Michael W. Deem and Ramdas Pophale) SiO2 
 PCOD9588010
Probable space group: P 6/M M M
;
_chemical_formula_sum "Si O2"
_cell_formula_units_Z 144
_cell_length_a 20.474132
_cell_length_b 20.474132
_cell_length_c 20.413814
_cell_angle_alpha 90.000000
_cell_angle_beta 90.000000
_cell_angle_gamma 120.000000
_cell_volume 7410.811776
_symmetry_space_group_name_H-M "P 6/M M M"
_symmetry_group_IT_number 191
_symmetry_cell_setting 'hexagonal'
loop_
_space_group_symop_operation_xyz
x,y,z
x-y,x,z
-y,x-y,z
-x,-y,z
-x+y,-x,z
y,-x+y,z
x-y,-y,-z
-x,-x+y,-z
y,x,-z
-y,-x,-z
-x+y,y,-z
x,x-y,-z
-x,-y,-z
-x+y,-x,-z
y,-x+y,-z
x,y,-z
x-y,x,-z
-y,x-y,-z
-x+y,y,z
x,x-y,z
-y,-x,z
y,x,z
x-y,-y,z
-x,-x+y,z
loop_
_atom_site_type_symbol
_atom_site_label
_atom_site_fract_x
_atom_site_fract_y
_atom_site_fract_z
Si Si1 0.632308 0.545075 0.572676
Si Si2 0.667183 0.181880 0.920971
Si Si3 0.090557 0.755374 0.103343
Si Si4 0.335850 0.813801 0.700589
Si Si5 0.777723 0.080583 0.392784
Si Si6 0.083201 0.721320 0.750507
O O1 0.624441 0.513137 0.500000
O O2 0.569215 0.569215 0.582950
O O3 0.639045 0.499339 0.632643
O O4 0.710080 0.623512 0.575333
O O5 0.584030 0.168060 0.899383
O O6 0.736422 0.263579 0.897537
O O7 0.695344 0.120793 0.907290
O O8 0.666083 0.185531 0.000000
O O9 0.160961 0.839040 0.079922
O O10 0.088238 0.761797 0.181966
O O11 0.000000 0.717443 0.081884
O O12 0.407189 0.814377 0.731046
O O13 0.269840 0.730161 0.686360
O O14 0.302906 0.854327 0.745533
O O15 0.854563 0.145438 0.417396
O O16 0.767247 0.088949 0.314900
O O17 0.766496 0.000000 0.405105
O O18 0.000000 0.648087 0.747189
#
# Coordination Sequence:
#
# PCOD9588010 Si02
#       6
#    24  24  24  24  24  24
#     4   9  18  32  50  69  84 103 139 190 241 277
#     4   9  18  33  53  77 106 141 179 217 258 304
#     4  10  20  34  53  77 105 136 171 212 257 305
#     4  11  22  34  47  64  91 125 156 185 220 270
#     4   9  16  27  45  67  89 112 140 177 221 268
#     4   9  18  33  53  73  90 114 152 197 242 280
#
# _framework density 19.431069999999998
#
# number of rings (size 3 to 8) (size 9 to 14) (size 15 to 20)
#    0.000    2.500    0.000    4.833    0.000    5.000 
#    0.000    3.333    0.000    3.333    0.000    0.000 
#    0.000    4.000    0.000    8.333    0.000    0.000 
#
# Total GULP energy -801825.714285 kJ/mol
# GULP energy per Si atom -5568.234127 kJ/mol
# Density = 1.938684 g / cm^3
# Si number density = 19.431070 Si / 1000 Ang^3
#
#
#
# Elastic Constant Matrix: (Units=GPa)
#
#
# Indices 1 2 3 4 5 6 
#
# 1 160.2277 30.6580 0.6225 0.0000 0.0000 0.0000
# 2 30.6580 160.2277 0.6225 0.0000 0.0000 0.0000
# 3 0.6225 0.6225 57.5557 0.0000 0.0000 0.0000
# 4 0.0000 0.0000 0.0000 37.5877 0.0000 0.0000
# 5 0.0000 0.0000 0.0000 0.0000 37.5877 0.0000
# 6 0.0000 0.0000 0.0000 0.0000 0.0000 64.7848
#
#
#
# Elastic Compliance Matrix: (Units=1/GPa)
#
#
# Indices 1 2 3 4 5 6 
#
# 1 0.006478 -0.001239 -0.000057 0.000000 0.000000 0.000000
# 2 -0.001239 0.006478 -0.000057 0.000000 0.000000 0.000000
# 3 -0.000057 -0.000057 0.017376 0.000000 0.000000 0.000000
# 4 0.000000 0.000000 0.000000 0.026604 0.000000 0.000000
# 5 0.000000 0.000000 0.000000 0.000000 0.026604 0.000000
# 6 0.000000 0.000000 0.000000 0.000000 0.000000 0.015436
#
#
# Mechanical properties :
#
#
# Convention : Reuss Voigt Hill
#
# Bulk Modulus (GPa) = 36.19612 49.09077 42.64344
# Shear Modulus (GPa) = 45.08901 51.06592 48.07746
#
# Velocity S-wave (km/s) = 4.82234 5.13202 4.97959
# Velocity P-wave (km/s) = 7.04805 7.77404 7.41993
#
# Compressibility (1/GPa) = 0.02762727
#
# Stress axis : x y z
#
# Youngs Moduli (GPa) = 154.35715 154.35715 57.55160
#
# Poissons Ratio (x) = 0.19131 0.00326
# Poissons Ratio (y) = 0.19131 0.00326
# Poissons Ratio (z) = 0.00875 0.00875
#
# Static dielectric constant tensor:
#      x y z
#    x 1.706040 0.000000 0.000000 
#    y 0.000000 1.706040 0.000000 
#    z 0.000000 0.000000 1.709510 
# 
# From -- ./inp_files/7602.got.cif
#   From: 2010.05.17/outbox.cif.g08.bks.cpg/sg191_4_cif.got.tgz:7602.got - 2010.05.20 12:20:32.
