data_PCOD9588991
_publ_section_title
;
Structure prediction by ZEFSAII (Michael W. Deem and Ramdas Pophale) SiO2 
 PCOD9588991
Probable space group: P 63/M C M
;
_chemical_formula_sum "Si O2"
_cell_formula_units_Z 120
_cell_length_a 22.693632
_cell_length_b 22.693632
_cell_length_c 13.405432
_cell_angle_alpha 90.000000
_cell_angle_beta 90.000000
_cell_angle_gamma 120.000000
_cell_volume 5978.874836
_symmetry_space_group_name_H-M "P 63/M C M"
_symmetry_group_IT_number 193
_symmetry_cell_setting 'hexagonal'
loop_
_space_group_symop_operation_xyz
x,y,z
x-y,x,1/2+z
-y,x-y,z
-x,-y,1/2+z
-x+y,-x,z
y,-x+y,1/2+z
x-y,-y,1/2-z
-x,-x+y,1/2-z
y,x,1/2-z
-y,-x,-z
-x+y,y,-z
x,x-y,-z
-x,-y,-z
-x+y,-x,1/2-z
y,-x+y,-z
x,y,1/2-z
x-y,x,-z
-y,x-y,1/2-z
-x+y,y,1/2+z
x,x-y,1/2+z
-y,-x,1/2+z
y,x,z
x-y,-y,z
-x,-x+y,z
loop_
_atom_site_type_symbol
_atom_site_label
_atom_site_fract_x
_atom_site_fract_y
_atom_site_fract_z
Si Si1 0.520187 0.123536 0.859247
Si Si2 0.925062 0.247139 0.419444
Si Si3 0.526244 0.646991 0.431173
Si Si4 0.259411 0.756908 0.637922
Si Si5 0.872135 0.656522 0.360674
O O1 0.487996 0.101317 0.750000
O O2 0.582017 0.109248 0.869924
O O3 0.546065 0.204784 0.867472
O O4 0.474303 0.094309 0.957316
O O5 0.910764 0.308370 0.392248
O O6 0.865214 0.178367 0.373160
O O7 0.917264 0.240164 0.540190
O O8 0.000000 0.267085 0.388701
O O9 0.495985 0.698876 0.431643
O O10 0.240295 0.727809 0.750000
O O11 0.245020 0.820110 0.632170
O O12 0.903311 0.671659 0.250000
#
# Coordination Sequence:
#
# PCOD9588991 Si02
#       5
#    24  24  24  24  24
#     4  10  19  30  46  65  91 125 163 210 268 323
#     4  10  20  34  55  80 103 134 176 214 254 305
#     4  10  19  32  48  67  94 124 162 215 267 315
#     4   9  16  30  51  68  87 122 165 206 259 321
#     4   9  18  34  55  77 104 134 166 208 254 302
#
# _framework density 20.070665999999999
#
# number of rings (size 3 to 8) (size 9 to 14) (size 15 to 20)
#    0.000    2.400    2.000    1.200    0.000    1.600 
#    1.200    2.000    0.000    1.200    0.000    0.000 
#    0.000    0.000    0.000   19.200    0.000   41.600 
#
# Total GULP energy -668869.555024 kJ/mol
# GULP energy per Si atom -5573.912959 kJ/mol
# Density = 2.002498 g / cm^3
# Si number density = 20.070666 Si / 1000 Ang^3
#
#
#
# Elastic Constant Matrix: (Units=GPa)
#
#
# Indices 1 2 3 4 5 6 
#
# 1 37.2277 21.7252 -6.4999 0.0000 0.0000 0.0000
# 2 21.7252 37.2277 -6.4999 0.0000 0.0000 0.0000
# 3 -6.4999 -6.4999 92.4068 0.0000 0.0000 0.0000
# 4 0.0000 0.0000 0.0000 3.9540 0.0000 0.0000
# 5 0.0000 0.0000 0.0000 0.0000 3.9540 0.0000
# 6 0.0000 0.0000 0.0000 0.0000 0.0000 7.7513
#
#
#
# Elastic Compliance Matrix: (Units=1/GPa)
#
#
# Indices 1 2 3 4 5 6 
#
# 1 0.040868 -0.023638 0.001212 0.000000 0.000000 0.000000
# 2 -0.023638 0.040868 0.001212 0.000000 0.000000 0.000000
# 3 0.001212 0.001212 0.010992 0.000000 0.000000 0.000000
# 4 0.000000 0.000000 0.000000 0.252906 0.000000 0.000000
# 5 0.000000 0.000000 0.000000 0.000000 0.252906 0.000000
# 6 0.000000 0.000000 0.000000 0.000000 0.000000 0.129011
#
#
# Mechanical properties :
#
#
# Convention : Reuss Voigt Hill
#
# Bulk Modulus (GPa) = 19.88077 20.47925 20.18001
# Shear Modulus (GPa) = 6.35529 13.67431 10.01480
#
# Velocity S-wave (km/s) = 1.78139 2.61302 2.23620
# Velocity P-wave (km/s) = 3.76271 4.39654 4.09192
#
# Compressibility (1/GPa) = 0.05029987
#
# Stress axis : x y z
#
# Youngs Moduli (GPa) = 24.46913 24.46913 90.97350
#
# Poissons Ratio (x) = 0.57840 -0.11025
# Poissons Ratio (y) = 0.57840 -0.11025
# Poissons Ratio (z) = -0.02966 -0.02966
#
# Static dielectric constant tensor:
#      x y z
#    x 1.715030 0.000000 0.000000 
#    y 0.000000 1.715030 0.000000 
#    z 0.000000 0.000000 1.818310 
# 
# From -- ./inp_files/3998.got.cif
#   From: 2010.05.17/outbox.cif.g08.bks.cpg/sg193_2_cif.got.tgz:3998.got - 2010.05.20 12:33:02.
