data_PCOD9588639
_publ_section_title
;
Structure prediction by ZEFSAII (Michael W. Deem and Ramdas Pophale) SiO2 
 PCOD9588639
Probable space group: P 6/M C C
;
_chemical_formula_sum "Si O2"
_cell_formula_units_Z 120
_cell_length_a 14.904895
_cell_length_b 14.904895
_cell_length_c 29.804080
_cell_angle_alpha 90.000000
_cell_angle_beta 90.000000
_cell_angle_gamma 120.000000
_cell_volume 5734.085891
_symmetry_space_group_name_H-M "P 6/M C C"
_symmetry_group_IT_number 192
_symmetry_cell_setting 'hexagonal'
loop_
_space_group_symop_operation_xyz
x,y,z
x-y,x,z
-y,x-y,z
-x,-y,z
-x+y,-x,z
y,-x+y,z
x-y,-y,1/2-z
-x,-x+y,1/2-z
y,x,1/2-z
-y,-x,1/2-z
-x+y,y,1/2-z
x,x-y,1/2-z
-x,-y,-z
-x+y,-x,-z
y,-x+y,-z
x,y,-z
x-y,x,-z
-y,x-y,-z
-x+y,y,1/2+z
x,x-y,1/2+z
-y,-x,1/2+z
y,x,1/2+z
x-y,-y,1/2+z
-x,-x+y,1/2+z
loop_
_atom_site_type_symbol
_atom_site_label
_atom_site_fract_x
_atom_site_fract_y
_atom_site_fract_z
Si Si1 0.106209 0.608680 0.951181
Si Si2 0.790690 0.784220 0.198260
Si Si3 0.758524 0.925309 0.448302
Si Si4 0.335096 0.975560 0.120055
Si Si5 0.791699 0.425078 0.123295
O O1 0.190758 0.584369 0.929971
O O2 0.000000 0.500000 0.956152
O O3 0.069831 0.658188 0.912245
O O4 0.133218 0.660013 0.000000
O O5 0.902888 0.796900 0.191224
O O6 0.756499 0.756499 0.250000
O O7 0.713051 0.702586 0.162870
O O8 0.804912 0.849494 0.442164
O O9 0.721786 0.915314 0.500000
O O10 0.671555 0.908084 0.412457
O O11 0.379526 0.901322 0.136022
O O12 0.695495 0.440123 0.137287
#
# Coordination Sequence:
#
# PCOD9588639 Si02
#       5
#    24  24  24  24  24
#     4   9  19  36  54  79 116 157 201 248 299 354
#     4  10  22  39  63  94 124 155 195 250 313 384
#     4  10  21  34  50  75 111 153 192 233 288 360
#     4  11  21  36  60  87 115 155 199 252 306 362
#     4   9  22  37  56  84 117 160 200 253 296 352
#
# _framework density 20.927485000000001
#
# number of rings (size 3 to 8) (size 9 to 14) (size 15 to 20)
#    0.400    1.800    0.000    2.200    5.600    3.200 
#    0.000    2.000    0.000    5.400    0.000    2.800 
#    0.000    0.000    0.000    0.000    0.000    0.000 
#
# Total GULP energy -668442.031414 kJ/mol
# GULP energy per Si atom -5570.350262 kJ/mol
# Density = 2.087985 g / cm^3
# Si number density = 20.927485 Si / 1000 Ang^3
#
#
#
# Elastic Constant Matrix: (Units=GPa)
#
#
# Indices 1 2 3 4 5 6 
#
# 1 74.7302 24.9028 45.1548 0.0000 0.0000 0.0000
# 2 24.9028 74.7302 45.1548 0.0000 0.0000 0.0000
# 3 45.1548 45.1548 104.3670 0.0000 0.0000 0.0000
# 4 0.0000 0.0000 0.0000 17.5518 0.0000 0.0000
# 5 0.0000 0.0000 0.0000 0.0000 17.5518 0.0000
# 6 0.0000 0.0000 0.0000 0.0000 0.0000 24.9137
#
#
#
# Elastic Compliance Matrix: (Units=1/GPa)
#
#
# Indices 1 2 3 4 5 6 
#
# 1 0.018291 -0.001778 -0.007144 0.000000 0.000000 0.000000
# 2 -0.001778 0.018291 -0.007144 0.000000 0.000000 0.000000
# 3 -0.007144 -0.007144 0.015763 0.000000 0.000000 0.000000
# 4 0.000000 0.000000 0.000000 0.056974 0.000000 0.000000
# 5 0.000000 0.000000 0.000000 0.000000 0.056974 0.000000
# 6 0.000000 0.000000 0.000000 0.000000 0.000000 0.040139
#
#
# Mechanical properties :
#
#
# Convention : Reuss Voigt Hill
#
# Bulk Modulus (GPa) = 49.47630 53.80580 51.64105
# Shear Modulus (GPa) = 20.38296 21.24447 20.81371
#
# Velocity S-wave (km/s) = 3.12425 3.18959 3.15709
# Velocity P-wave (km/s) = 6.05869 6.27145 6.16599
#
# Compressibility (1/GPa) = 0.02021170
#
# Stress axis : x y z
#
# Youngs Moduli (GPa) = 54.67208 54.67208 63.43773
#
# Poissons Ratio (x) = 0.09723 0.45321
# Poissons Ratio (y) = 0.09723 0.45321
# Poissons Ratio (z) = 0.39059 0.39059
#
# Static dielectric constant tensor:
#      x y z
#    x 1.820820 0.000000 0.000000 
#    y 0.000000 1.820820 0.000000 
#    z 0.000000 0.000000 1.730690 
# 
# From -- ./inp_files/6938.got.cif
#   From: 2010.05.17/outbox.cif.g08.bks.cpg/sg192_4_cif.got.tgz:6938.got - 2010.05.20 12:28:01.
