data_PCOD9588713
_publ_section_title
;
Structure prediction by ZEFSAII (Michael W. Deem and Ramdas Pophale) SiO2 
 PCOD9588713
Probable space group: P 6/M C C
;
_chemical_formula_sum "Si O2"
_cell_formula_units_Z 168
_cell_length_a 17.764113
_cell_length_b 17.764113
_cell_length_c 28.744044
_cell_angle_alpha 90.000000
_cell_angle_beta 90.000000
_cell_angle_gamma 120.000000
_cell_volume 7855.350269
_symmetry_space_group_name_H-M "P 6/M C C"
_symmetry_group_IT_number 192
_symmetry_cell_setting 'hexagonal'
loop_
_space_group_symop_operation_xyz
x,y,z
x-y,x,z
-y,x-y,z
-x,-y,z
-x+y,-x,z
y,-x+y,z
x-y,-y,1/2-z
-x,-x+y,1/2-z
y,x,1/2-z
-y,-x,1/2-z
-x+y,y,1/2-z
x,x-y,1/2-z
-x,-y,-z
-x+y,-x,-z
y,-x+y,-z
x,y,-z
x-y,x,-z
-y,x-y,-z
-x+y,y,1/2+z
x,x-y,1/2+z
-y,-x,1/2+z
y,x,1/2+z
x-y,-y,1/2+z
-x,-x+y,1/2+z
loop_
_atom_site_type_symbol
_atom_site_label
_atom_site_fract_x
_atom_site_fract_y
_atom_site_fract_z
Si Si1 0.200393 0.145997 0.117437
Si Si2 0.291407 0.213630 0.784134
Si Si3 0.512688 0.829221 0.278159
Si Si4 0.556185 0.643110 0.591024
Si Si5 0.093072 0.507320 0.686995
Si Si6 0.104424 0.612521 0.555330
Si Si7 0.363625 0.196010 0.054917
O O1 0.122819 0.166542 0.110300
O O2 0.234639 0.180520 0.169590
O O3 0.284028 0.191987 0.083516
O O4 0.276920 0.276920 0.750000
O O5 0.268199 0.134100 0.750000
O O6 0.392363 0.255345 0.798560
O O7 0.480440 0.740220 0.250000
O O8 0.447036 0.836573 0.313262
O O9 0.525077 0.895568 0.236638
O O10 0.547666 0.650186 0.646153
O O11 0.456886 0.588061 0.572329
O O12 0.591224 0.577424 0.579362
O O13 0.616087 0.736541 0.568982
O O14 0.000000 0.500000 0.681301
O O15 0.089158 0.600261 0.500000
O O16 0.166967 0.713950 0.564422
O O17 0.345235 0.191971 0.000000
#
# Coordination Sequence:
#
# PCOD9588713 Si02
#       7
#    24  24  24  24  24  24  24
#     4  12  27  45  70  99 137 182 236 295 365 431
#     4  11  22  39  65  95 131 172 221 281 338 403
#     4  10  24  39  60  89 132 172 222 271 329 388
#     4  11  22  39  70  98 130 170 223 274 334 405
#     4  11  22  41  63  91 126 176 218 266 321 395
#     4  10  21  41  66  94 132 172 213 269 339 406
#     4  11  26  45  70 103 137 176 227 289 351 421
#
# _framework density 21.386696000000001
#
# number of rings (size 3 to 8) (size 9 to 14) (size 15 to 20)
#    0.000    1.143    2.857    4.429    6.000    4.000 
#    4.286    0.000    0.000    0.857    0.000    0.000 
#    0.000    0.000    0.000    0.000    0.000    0.000 
#
# Total GULP energy -938642.654687 kJ/mol
# GULP energy per Si atom -5587.158659 kJ/mol
# Density = 2.133802 g / cm^3
# Si number density = 21.386696 Si / 1000 Ang^3
#
#
#
# Elastic Constant Matrix: (Units=GPa)
#
#
# Indices 1 2 3 4 5 6 
#
# 1 69.4560 9.1815 9.3128 0.0000 0.0000 0.0000
# 2 9.1815 69.4560 9.3128 0.0000 0.0000 0.0000
# 3 9.3128 9.3128 71.1036 0.0000 0.0000 0.0000
# 4 0.0000 0.0000 0.0000 14.4867 0.0000 0.0000
# 5 0.0000 0.0000 0.0000 0.0000 14.4867 0.0000
# 6 0.0000 0.0000 0.0000 0.0000 0.0000 30.1373
#
#
#
# Elastic Compliance Matrix: (Units=1/GPa)
#
#
# Indices 1 2 3 4 5 6 
#
# 1 0.014857 -0.001734 -0.001719 0.000000 0.000000 0.000000
# 2 -0.001734 0.014857 -0.001719 0.000000 0.000000 0.000000
# 3 -0.001719 -0.001719 0.014514 0.000000 0.000000 0.000000
# 4 0.000000 0.000000 0.000000 0.069029 0.000000 0.000000
# 5 0.000000 0.000000 0.000000 0.000000 0.069029 0.000000
# 6 0.000000 0.000000 0.000000 0.000000 0.000000 0.033181
#
#
# Mechanical properties :
#
#
# Convention : Reuss Voigt Hill
#
# Bulk Modulus (GPa) = 29.51061 29.51444 29.51252
# Shear Modulus (GPa) = 21.08763 23.96937 22.52850
#
# Velocity S-wave (km/s) = 3.14350 3.35141 3.24912
# Velocity P-wave (km/s) = 5.19653 5.36715 5.28253
#
# Compressibility (1/GPa) = 0.03388612
#
# Stress axis : x y z
#
# Youngs Moduli (GPa) = 67.30732 67.30732 68.89783
#
# Poissons Ratio (x) = 0.11668 0.11843
# Poissons Ratio (y) = 0.11668 0.11843
# Poissons Ratio (z) = 0.11569 0.11569
#
# Static dielectric constant tensor:
#      x y z
#    x 1.818240 0.000000 0.000000 
#    y 0.000000 1.818240 0.000000 
#    z 0.000000 0.000000 1.768070 
# 
# From -- ./inp_files/7210.got.cif
#   From: 2010.05.17/outbox.cif.g08.bks.cpg/sg192_4_cif.got.tgz:7210.got - 2010.05.20 12:28:01.
