data_PCOD9588359
_publ_section_title
;
Structure prediction by ZEFSAII (Michael W. Deem and Ramdas Pophale) SiO2 
 PCOD9588359
Probable space group: P 6/M C C
;
_chemical_formula_sum "Si O2"
_cell_formula_units_Z 132
_cell_length_a 23.416612
_cell_length_b 23.416612
_cell_length_c 14.686758
_cell_angle_alpha 90.000000
_cell_angle_beta 90.000000
_cell_angle_gamma 120.000000
_cell_volume 6974.365294
_symmetry_space_group_name_H-M "P 6/M C C"
_symmetry_group_IT_number 192
_symmetry_cell_setting 'hexagonal'
loop_
_space_group_symop_operation_xyz
x,y,z
x-y,x,z
-y,x-y,z
-x,-y,z
-x+y,-x,z
y,-x+y,z
x-y,-y,1/2-z
-x,-x+y,1/2-z
y,x,1/2-z
-y,-x,1/2-z
-x+y,y,1/2-z
x,x-y,1/2-z
-x,-y,-z
-x+y,-x,-z
y,-x+y,-z
x,y,-z
x-y,x,-z
-y,x-y,-z
-x+y,y,1/2+z
x,x-y,1/2+z
-y,-x,1/2+z
y,x,1/2+z
x-y,-y,1/2+z
-x,-x+y,1/2+z
loop_
_atom_site_type_symbol
_atom_site_label
_atom_site_fract_x
_atom_site_fract_y
_atom_site_fract_z
Si Si1 0.985120 0.292860 0.000000
Si Si2 0.787842 0.064118 0.313488
Si Si3 0.909054 0.063813 0.390258
Si Si4 0.753676 0.620836 0.500000
Si Si5 0.067504 0.476926 0.198948
Si Si6 0.046674 0.443187 0.000000
Si Si7 0.154581 0.407447 0.801407
O O1 0.953933 0.253332 0.907994
O O2 0.062258 0.312022 0.000000
O O3 0.990657 0.365066 0.000000
O O4 0.774824 0.862659 0.343742
O O5 0.770488 0.111172 0.255468
O O6 0.762930 0.000000 0.250000
O O7 0.986364 0.107006 0.366974
O O8 0.903810 0.067371 0.500000
O O9 0.676378 0.564942 0.500000
O O10 0.777802 0.612076 0.597170
O O11 0.091841 0.545921 0.250000
O O12 0.115779 0.447293 0.199485
O O13 0.000000 0.426309 0.250000
O O14 0.049554 0.478405 0.093481
O O15 0.223287 0.446574 0.750000
#
# Coordination Sequence:
#
# PCOD9588359 Si02
#       7
#    12  24  24  12  24  12  24
#     4  10  18  35  58  78 122 150 195 232 298 370
#     4  12  22  35  57  85 110 147 195 246 300 375
#     4  10  23  42  60  78 104 146 204 260 315 372
#     4   8  18  37  55  79 118 163 187 227 300 355
#     4  10  20  37  60  86 118 155 201 235 277 348
#     4   8  16  33  55  81 113 162 178 228 296 326
#     4  11  23  38  60  90 122 158 196 242 303 358
#
# _framework density 18.926452999999999
#
# number of rings (size 3 to 8) (size 9 to 14) (size 15 to 20)
#    0.545    1.273    2.727    1.818    2.545    2.909 
#    0.000    2.727    0.000    1.455    0.000    0.000 
#    0.000    0.000    0.000    0.000    0.000    0.000 
#
# Total GULP energy -736539.382681 kJ/mol
# GULP energy per Si atom -5579.843808 kJ/mol
# Density = 1.888338 g / cm^3
# Si number density = 18.926453 Si / 1000 Ang^3
#
#
#
# Elastic Constant Matrix: (Units=GPa)
#
#
# Indices 1 2 3 4 5 6 
#
# 1 71.5480 41.7935 42.8905 0.0000 0.0000 0.0000
# 2 41.7935 71.5480 42.8905 0.0000 0.0000 0.0000
# 3 42.8905 42.8905 178.8524 0.0000 0.0000 0.0000
# 4 0.0000 0.0000 0.0000 10.7287 0.0000 0.0000
# 5 0.0000 0.0000 0.0000 0.0000 10.7287 0.0000
# 6 0.0000 0.0000 0.0000 0.0000 0.0000 14.8773
#
#
#
# Elastic Compliance Matrix: (Units=1/GPa)
#
#
# Indices 1 2 3 4 5 6 
#
# 1 0.022194 -0.011415 -0.002585 0.000000 0.000000 0.000000
# 2 -0.011415 0.022194 -0.002585 0.000000 0.000000 0.000000
# 3 -0.002585 -0.002585 0.006831 0.000000 0.000000 0.000000
# 4 0.000000 0.000000 0.000000 0.093208 0.000000 0.000000
# 5 0.000000 0.000000 0.000000 0.000000 0.093208 0.000000
# 6 0.000000 0.000000 0.000000 0.000000 0.000000 0.067217
#
#
# Mechanical properties :
#
#
# Convention : Reuss Voigt Hill
#
# Bulk Modulus (GPa) = 55.40260 64.12192 59.76226
# Shear Modulus (GPa) = 14.53332 20.22520 17.37926
#
# Velocity S-wave (km/s) = 2.77408 3.27252 3.03356
# Velocity P-wave (km/s) = 6.29260 6.94495 6.62680
#
# Compressibility (1/GPa) = 0.01804969
#
# Stress axis : x y z
#
# Youngs Moduli (GPa) = 45.05763 45.05763 146.39141
#
# Poissons Ratio (x) = 0.51431 0.37842
# Poissons Ratio (y) = 0.51431 0.37842
# Poissons Ratio (z) = 0.11647 0.11647
#
# Static dielectric constant tensor:
#      x y z
#    x 1.676860 0.000000 0.000000 
#    y 0.000000 1.676860 0.000000 
#    z 0.000000 0.000000 1.745300 
# 
# From -- ./inp_files/3294.got.cif
#   From: 2010.05.17/outbox.cif.g08.bks.cpg/sg192_2_cif.got.tgz:3294.got - 2010.05.20 12:28:01.
