data_PCOD9588483
_publ_section_title
;
Structure prediction by ZEFSAII (Michael W. Deem and Ramdas Pophale) SiO2 
 PCOD9588483
Probable space group: P 6/M C C
;
_chemical_formula_sum "Si O2"
_cell_formula_units_Z 144
_cell_length_a 30.440510
_cell_length_b 30.440510
_cell_length_c 9.210211
_cell_angle_alpha 90.000000
_cell_angle_beta 90.000000
_cell_angle_gamma 120.000000
_cell_volume 7391.014598
_symmetry_space_group_name_H-M "P 6/M C C"
_symmetry_group_IT_number 192
_symmetry_cell_setting 'hexagonal'
loop_
_space_group_symop_operation_xyz
x,y,z
x-y,x,z
-y,x-y,z
-x,-y,z
-x+y,-x,z
y,-x+y,z
x-y,-y,1/2-z
-x,-x+y,1/2-z
y,x,1/2-z
-y,-x,1/2-z
-x+y,y,1/2-z
x,x-y,1/2-z
-x,-y,-z
-x+y,-x,-z
y,-x+y,-z
x,y,-z
x-y,x,-z
-y,x-y,-z
-x+y,y,1/2+z
x,x-y,1/2+z
-y,-x,1/2+z
y,x,1/2+z
x-y,-y,1/2+z
-x,-x+y,1/2+z
loop_
_atom_site_type_symbol
_atom_site_label
_atom_site_fract_x
_atom_site_fract_y
_atom_site_fract_z
Si Si1 0.749959 0.053680 0.172673
Si Si2 0.490928 0.419271 0.167126
Si Si3 0.149549 0.205612 0.324699
Si Si4 0.640786 0.195327 0.835293
Si Si5 0.921915 0.327575 0.164745
Si Si6 0.801477 0.271856 0.161203
O O1 0.810200 0.076468 0.196184
O O2 0.715079 0.073314 0.245718
O O3 0.727960 0.000000 0.250000
O O4 0.741662 0.050216 0.000000
O O5 0.528390 0.471611 0.250000
O O6 0.522811 0.389355 0.162345
O O7 0.439385 0.381028 0.252647
O O8 0.481357 0.427755 0.000000
O O9 0.173566 0.173566 0.250000
O O10 0.096748 0.193496 0.250000
O O11 0.144852 0.196719 0.500000
O O12 0.605528 0.211056 0.750000
O O13 0.692228 0.212695 0.750651
O O14 0.648901 0.212847 0.000000
O O15 0.861644 0.303146 0.151962
O O16 0.943075 0.334647 0.000000
O O17 0.779929 0.220072 0.250000
O O18 0.780346 0.260932 0.000000
#
# Coordination Sequence:
#
# PCOD9588483 Si02
#       6
#    24  24  24  24  24  24
#     4  10  21  37  57  81 111 149 192 236 282 334
#     4   9  16  27  45  69  96 126 165 214 267 323
#     4  10  21  38  62  92 126 164 207 253 300 351
#     4   9  16  27  44  64  86 114 150 192 238 291
#     4  10  20  33  50  73 102 137 178 225 278 336
#     4  10  20  32  46  67  96 128 162 203 253 309
#
# _framework density 19.483117
#
# number of rings (size 3 to 8) (size 9 to 14) (size 15 to 20)
#    0.000    2.333    0.000    3.000    0.000    8.667 
#    0.000    3.333    0.000    1.000    0.000    7.000 
#    0.000    0.000    0.000    0.000    0.000    0.000 
#
# Total GULP energy -802527.502170 kJ/mol
# GULP energy per Si atom -5573.107654 kJ/mol
# Density = 1.943877 g / cm^3
# Si number density = 19.483117 Si / 1000 Ang^3
#
#
#
# Elastic Constant Matrix: (Units=GPa)
#
#
# Indices 1 2 3 4 5 6 
#
# 1 51.2614 76.1364 59.9600 0.0000 0.0000 0.0000
# 2 76.1364 51.2614 59.9600 0.0000 0.0000 0.0000
# 3 59.9600 59.9600 183.3270 0.0000 0.0000 0.0000
# 4 0.0000 0.0000 0.0000 29.0553 0.0000 0.0000
# 5 0.0000 0.0000 0.0000 0.0000 29.0553 0.0000
# 6 0.0000 0.0000 0.0000 0.0000 0.0000 -12.4375
#
#
#
# Elastic Compliance Matrix: (Units=1/GPa)
#
#
# Indices 1 2 3 4 5 6 
#
# 1 -0.014430 0.025771 -0.003709 0.000000 0.000000 0.000000
# 2 0.025771 -0.014430 -0.003709 0.000000 0.000000 0.000000
# 3 -0.003709 -0.003709 0.007881 0.000000 0.000000 0.000000
# 4 0.000000 0.000000 0.000000 0.034417 0.000000 0.000000
# 5 0.000000 0.000000 0.000000 0.000000 0.034417 0.000000
# 6 0.000000 0.000000 0.000000 0.000000 0.000000 -0.080402
#
#
# Mechanical properties :
#
#
# Convention : Reuss Voigt Hill
#
# Bulk Modulus (GPa) = 63.58888 75.32915 69.45901
# Shear Modulus (GPa) = -78.11317 15.12083 -31.49617
#
# Velocity S-wave (km/s) = -6.33875 2.78888 -4.02504
# Velocity P-wave (km/s) = 4.56774 7.00844 3.75859
#
# Compressibility (1/GPa) = 0.01572602
#
# Stress axis : x y z
#
# Youngs Moduli (GPa) = -69.29991 -69.29991 126.88646
#
# Poissons Ratio (x) = 1.78593 0.47065
# Poissons Ratio (y) = 1.78593 0.47065
# Poissons Ratio (z) = -0.25705 -0.25705
#
# Static dielectric constant tensor:
#      x y z
#    x 1.731060 0.000000 0.000000 
#    y 0.000000 1.731060 0.000000 
#    z 0.000000 0.000000 1.675430 
# 
# From -- ./inp_files/1154.got.cif
#   From: 2010.05.17/outbox.cif.g08.bks.cpg/sg192_1_cif.got.tgz:1154.got - 2010.05.20 12:28:01.
