data_PCOD9588571
_publ_section_title
;
Structure prediction by ZEFSAII (Michael W. Deem and Ramdas Pophale) SiO2 
 PCOD9588571
Probable space group: P 6/M C C
;
_chemical_formula_sum "Si O2"
_cell_formula_units_Z 144
_cell_length_a 21.847113
_cell_length_b 21.847113
_cell_length_c 18.804780
_cell_angle_alpha 90.000000
_cell_angle_beta 90.000000
_cell_angle_gamma 120.000000
_cell_volume 7772.970126
_symmetry_space_group_name_H-M "P 6/M C C"
_symmetry_group_IT_number 192
_symmetry_cell_setting 'hexagonal'
loop_
_space_group_symop_operation_xyz
x,y,z
x-y,x,z
-y,x-y,z
-x,-y,z
-x+y,-x,z
y,-x+y,z
x-y,-y,1/2-z
-x,-x+y,1/2-z
y,x,1/2-z
-y,-x,1/2-z
-x+y,y,1/2-z
x,x-y,1/2-z
-x,-y,-z
-x+y,-x,-z
y,-x+y,-z
x,y,-z
x-y,x,-z
-y,x-y,-z
-x+y,y,1/2+z
x,x-y,1/2+z
-y,-x,1/2+z
y,x,1/2+z
x-y,-y,1/2+z
-x,-x+y,1/2+z
loop_
_atom_site_type_symbol
_atom_site_label
_atom_site_fract_x
_atom_site_fract_y
_atom_site_fract_z
Si Si1 0.350401 0.953135 0.319536
Si Si2 0.671316 0.473133 0.829959
Si Si3 0.163152 0.049184 0.916381
Si Si4 0.952806 0.415717 0.415653
Si Si5 0.198858 0.663853 0.341494
Si Si6 0.267867 0.196268 0.706792
O O1 0.353415 0.883446 0.341442
O O2 0.269497 0.929117 0.303792
O O3 0.394892 0.000000 0.250000
O O4 0.383360 0.004105 0.386626
O O5 0.670032 0.471734 0.743930
O O6 0.616423 0.394089 0.855403
O O7 0.746434 0.490800 0.862369
O O8 0.133557 0.102294 0.901866
O O9 0.229611 0.068604 0.866764
O O10 0.180718 0.054485 0.000000
O O11 0.942765 0.411246 0.500000
O O12 0.878186 0.373441 0.375756
O O13 0.000000 0.500000 0.396943
O O14 0.216591 0.216591 0.750000
O O15 0.279743 0.139872 0.750000
#
# Coordination Sequence:
#
# PCOD9588571 Si02
#       6
#    24  24  24  24  24  24
#     4  11  23  38  63  89 121 163 209 258 305 369
#     4  10  20  35  63  92 125 152 205 257 321 365
#     4  10  20  37  60  86 118 157 199 245 305 375
#     4  11  23  41  64  91 124 166 217 257 305 379
#     4  10  20  36  60  94 125 159 199 263 313 376
#     4  11  23  37  59  87 120 156 201 256 310 364
#
# _framework density 18.525736999999999
#
# number of rings (size 3 to 8) (size 9 to 14) (size 15 to 20)
#    0.000    1.500    5.000    0.500    2.333    3.000 
#    0.000    1.667    0.000    0.000    0.000    0.000 
#    0.000    0.000    0.000    0.000    0.000    0.000 
#
# Total GULP energy -802435.337434 kJ/mol
# GULP energy per Si atom -5572.467621 kJ/mol
# Density = 1.848357 g / cm^3
# Si number density = 18.525737 Si / 1000 Ang^3
#
#
#
# Elastic Constant Matrix: (Units=GPa)
#
#
# Indices 1 2 3 4 5 6 
#
# 1 92.3976 46.4928 33.5481 0.0000 0.0000 0.0000
# 2 46.4928 92.3976 33.5481 0.0000 0.0000 0.0000
# 3 33.5481 33.5481 39.7370 0.0000 0.0000 0.0000
# 4 0.0000 0.0000 0.0000 18.7205 0.0000 0.0000
# 5 0.0000 0.0000 0.0000 0.0000 18.7205 0.0000
# 6 0.0000 0.0000 0.0000 0.0000 0.0000 22.9524
#
#
#
# Elastic Compliance Matrix: (Units=1/GPa)
#
#
# Indices 1 2 3 4 5 6 
#
# 1 0.016972 -0.004813 -0.010265 0.000000 0.000000 0.000000
# 2 -0.004813 0.016972 -0.010265 0.000000 0.000000 0.000000
# 3 -0.010265 -0.010265 0.042498 0.000000 0.000000 0.000000
# 4 0.000000 0.000000 0.000000 0.053417 0.000000 0.000000
# 5 0.000000 0.000000 0.000000 0.000000 0.053417 0.000000
# 6 0.000000 0.000000 0.000000 0.000000 0.000000 0.043568
#
#
# Mechanical properties :
#
#
# Convention : Reuss Voigt Hill
#
# Bulk Modulus (GPa) = 38.82686 50.19000 44.50843
# Shear Modulus (GPa) = 17.47543 19.47490 18.47517
#
# Velocity S-wave (km/s) = 3.07466 3.24579 3.16138
# Velocity P-wave (km/s) = 5.79729 6.41855 6.11581
#
# Compressibility (1/GPa) = 0.02575537
#
# Stress axis : x y z
#
# Youngs Moduli (GPa) = 58.92212 58.92212 23.53030
#
# Poissons Ratio (x) = 0.28357 0.24154
# Poissons Ratio (y) = 0.28357 0.24154
# Poissons Ratio (z) = 0.60485 0.60485
#
# Static dielectric constant tensor:
#      x y z
#    x 1.680180 0.000000 0.000000 
#    y 0.000000 1.680180 0.000000 
#    z 0.000000 0.000000 1.624850 
# 
# From -- ./inp_files/5108.got.cif
#   From: 2010.05.17/outbox.cif.g08.bks.cpg/sg192_3_cif.got.tgz:5108.got - 2010.05.20 12:28:01.
