data_PCOD9588041
_publ_section_title
;
Structure prediction by ZEFSAII (Michael W. Deem and Ramdas Pophale) SiO2 
 PCOD9588041
Probable space group: P 6/M M M
;
_chemical_formula_sum "Si O2"
_cell_formula_units_Z 102
_cell_length_a 26.712879
_cell_length_b 26.712879
_cell_length_c 7.616995
_cell_angle_alpha 90.000000
_cell_angle_beta 90.000000
_cell_angle_gamma 120.000000
_cell_volume 4707.124618
_symmetry_space_group_name_H-M "P 6/M M M"
_symmetry_group_IT_number 191
_symmetry_cell_setting 'hexagonal'
loop_
_space_group_symop_operation_xyz
x,y,z
x-y,x,z
-y,x-y,z
-x,-y,z
-x+y,-x,z
y,-x+y,z
x-y,-y,-z
-x,-x+y,-z
y,x,-z
-y,-x,-z
-x+y,y,-z
x,x-y,-z
-x,-y,-z
-x+y,-x,-z
y,-x+y,-z
x,y,-z
x-y,x,-z
-y,x-y,-z
-x+y,y,z
x,x-y,z
-y,-x,z
y,x,z
x-y,-y,z
-x,-x+y,z
loop_
_atom_site_type_symbol
_atom_site_label
_atom_site_fract_x
_atom_site_fract_y
_atom_site_fract_z
Si Si1 0.629050 0.536094 0.693109
Si Si2 0.777738 0.444733 0.211738
Si Si3 0.176305 0.934884 0.287233
Si Si4 0.435565 0.000000 0.000000
Si Si5 0.624396 0.755747 0.205714
O O1 0.604787 0.532925 0.500000
O O2 0.641557 0.483641 0.718642
O O3 0.590937 0.540497 0.846351
O O4 0.693726 0.591704 0.705690
O O5 0.730933 0.461866 0.273310
O O6 0.756841 0.378421 0.254137
O O7 0.781113 0.450479 0.000000
O O8 0.178039 0.934982 0.500000
O O9 0.111342 0.888659 0.232476
O O10 0.216532 0.909624 0.223617
O O11 0.200742 0.000000 0.226718
O O12 0.610904 0.805452 0.271547
O O13 0.608433 0.746381 0.000000
#
# Coordination Sequence:
#
# PCOD9588041 Si02
#       5
#    24  24  24   6  24
#     4  12  25  42  67  96 131 177 223 272 330 389
#     4  10  21  42  73 108 143 178 219 273 339 408
#     4   9  18  31  48  72 102 140 189 246 308 374
#     4  12  26  48  63  92 130 174 232 284 321 382
#     4  10  20  35  55  83 121 163 204 252 314 384
#
# _framework density 21.669281000000002
#
# number of rings (size 3 to 8) (size 9 to 14) (size 15 to 20)
#    0.000    1.647    2.353    2.000    1.647    6.588 
#    0.000    1.176    0.000    3.059    0.000    1.647 
#    0.000    0.000    0.000    5.882    0.000    6.118 
#
# Total GULP energy -568894.131148 kJ/mol
# GULP energy per Si atom -5577.393443 kJ/mol
# Density = 2.161996 g / cm^3
# Si number density = 21.669281 Si / 1000 Ang^3
#
#
#
# Elastic Constant Matrix: (Units=GPa)
#
#
# Indices 1 2 3 4 5 6 
#
# 1 50.8035 93.6641 27.9094 0.0000 0.0000 0.0000
# 2 93.6641 50.8035 27.9094 0.0000 0.0000 0.0000
# 3 27.9094 27.9094 136.6482 0.0000 0.0000 0.0000
# 4 0.0000 0.0000 0.0000 8.2408 0.0000 0.0000
# 5 0.0000 0.0000 0.0000 0.0000 8.2408 0.0000
# 6 0.0000 0.0000 0.0000 0.0000 0.0000 -21.4303
#
#
#
# Elastic Compliance Matrix: (Units=1/GPa)
#
#
# Indices 1 2 3 4 5 6 
#
# 1 -0.007908 0.015423 -0.001535 0.000000 0.000000 0.000000
# 2 0.015423 -0.007908 -0.001535 0.000000 0.000000 0.000000
# 3 -0.001535 -0.001535 0.007945 0.000000 0.000000 0.000000
# 4 0.000000 0.000000 0.000000 0.121348 0.000000 0.000000
# 5 0.000000 0.000000 0.000000 0.000000 0.121348 0.000000
# 6 0.000000 0.000000 0.000000 0.000000 0.000000 -0.046663
#
#
# Mechanical properties :
#
#
# Convention : Reuss Voigt Hill
#
# Bulk Modulus (GPa) = 59.39823 59.69122 59.54472
# Shear Modulus (GPa) = 29.57428 4.92841 17.25134
#
# Velocity S-wave (km/s) = 3.69833 1.50974 2.82462
# Velocity P-wave (km/s) = 6.76074 5.53582 6.17871
#
# Compressibility (1/GPa) = 0.01683552
#
# Stress axis : x y z
#
# Youngs Moduli (GPa) = -126.45066 -126.45066 125.86465
#
# Poissons Ratio (x) = 1.95028 0.19319
# Poissons Ratio (y) = 1.95028 0.19319
# Poissons Ratio (z) = -0.19409 -0.19409
#
# Static dielectric constant tensor:
#      x y z
#    x 1.774060 0.000000 0.000000 
#    y 0.000000 1.774060 0.000000 
#    z 0.000000 0.000000 1.803940 
# 
# From -- ./inp_files/1403.got.cif
#   From: 2010.05.17/outbox.cif.g08.bks.cpg/sg191_1_cif.got.tgz:1403.got - 2010.05.20 12:20:32.
