data_PCOD9588492
_publ_section_title
;
Structure prediction by ZEFSAII (Michael W. Deem and Ramdas Pophale) SiO2 
 PCOD9588492
Probable space group: P 6/M C C
;
_chemical_formula_sum "Si O2"
_cell_formula_units_Z 144
_cell_length_a 34.533711
_cell_length_b 34.533711
_cell_length_c 8.947863
_cell_angle_alpha 90.000000
_cell_angle_beta 90.000000
_cell_angle_gamma 120.000000
_cell_volume 9241.372119
_symmetry_space_group_name_H-M "P 6/M C C"
_symmetry_group_IT_number 192
_symmetry_cell_setting 'hexagonal'
loop_
_space_group_symop_operation_xyz
x,y,z
x-y,x,z
-y,x-y,z
-x,-y,z
-x+y,-x,z
y,-x+y,z
x-y,-y,1/2-z
-x,-x+y,1/2-z
y,x,1/2-z
-y,-x,1/2-z
-x+y,y,1/2-z
x,x-y,1/2-z
-x,-y,-z
-x+y,-x,-z
y,-x+y,-z
x,y,-z
x-y,x,-z
-y,x-y,-z
-x+y,y,1/2+z
x,x-y,1/2+z
-y,-x,1/2+z
y,x,1/2+z
x-y,-y,1/2+z
-x,-x+y,1/2+z
loop_
_atom_site_type_symbol
_atom_site_label
_atom_site_fract_x
_atom_site_fract_y
_atom_site_fract_z
Si Si1 0.709999 0.048192 0.320479
Si Si2 0.614479 0.469132 0.322530
Si Si3 0.127468 0.332044 0.168665
Si Si4 0.581242 0.248563 0.680037
Si Si5 0.898339 0.338935 0.176242
Si Si6 0.742490 0.182027 0.830215
O O1 0.711220 0.047021 0.500000
O O2 0.758610 0.084675 0.258864
O O3 0.675035 0.065199 0.277841
O O4 0.692950 0.000000 0.250000
O O5 0.570079 0.429921 0.250000
O O6 0.610648 0.468038 0.500000
O O7 0.653031 0.456188 0.286494
O O8 0.623496 0.516666 0.262095
O O9 0.157296 0.314592 0.250000
O O10 0.159785 0.385822 0.156396
O O11 0.115154 0.314553 0.000000
O O12 0.627452 0.254905 0.750000
O O13 0.571998 0.285999 0.750000
O O14 0.585468 0.253615 0.500000
O O15 0.851442 0.295837 0.220557
O O16 0.902015 0.347044 0.000000
O O17 0.770782 0.229219 0.750000
O O18 0.727522 0.184150 0.000000
#
# Coordination Sequence:
#
# PCOD9588492 Si02
#       6
#    24  24  24  24  24  24
#     4  10  20  33  50  73  99 127 158 193 234 278
#     4  10  21  36  52  68  86 110 140 173 213 261
#     4   9  16  27  44  66  94 127 160 192 226 267
#     4  10  20  33  49  68  90 116 145 177 213 257
#     4  10  20  33  49  68  90 115 143 177 220 269
#     4   9  16  26  41  62  88 116 144 173 207 250
#
# _framework density 15.582101
#
# number of rings (size 3 to 8) (size 9 to 14) (size 15 to 20)
#    0.000    2.333    0.000    3.167    0.000    8.667 
#    0.000    1.667    0.000    0.500    0.000    3.500 
#    0.000    0.000    0.000    0.000    0.000    0.000 
#
# Total GULP energy -802758.873384 kJ/mol
# GULP energy per Si atom -5574.714398 kJ/mol
# Density = 1.554664 g / cm^3
# Si number density = 15.582101 Si / 1000 Ang^3
#
#
#
# Elastic Constant Matrix: (Units=GPa)
#
#
# Indices 1 2 3 4 5 6 
#
# 1 65.8409 43.3244 37.4402 0.0000 0.0000 0.0000
# 2 43.3244 65.8409 37.4402 0.0000 0.0000 0.0000
# 3 37.4402 37.4402 75.5660 0.0000 0.0000 0.0000
# 4 0.0000 0.0000 0.0000 14.1431 0.0000 0.0000
# 5 0.0000 0.0000 0.0000 0.0000 14.1431 0.0000
# 6 0.0000 0.0000 0.0000 0.0000 0.0000 11.2582
#
#
#
# Elastic Compliance Matrix: (Units=1/GPa)
#
#
# Indices 1 2 3 4 5 6 
#
# 1 0.029144 -0.015268 -0.006875 0.000000 0.000000 0.000000
# 2 -0.015268 0.029144 -0.006875 0.000000 0.000000 0.000000
# 3 -0.006875 -0.006875 0.020046 0.000000 0.000000 0.000000
# 4 0.000000 0.000000 0.000000 0.070706 0.000000 0.000000
# 5 0.000000 0.000000 0.000000 0.000000 0.070706 0.000000
# 6 0.000000 0.000000 0.000000 0.000000 0.000000 0.088824
#
#
# Mechanical properties :
#
#
# Convention : Reuss Voigt Hill
#
# Bulk Modulus (GPa) = 49.26563 49.29528 49.28045
# Shear Modulus (GPa) = 13.39144 13.84508 13.61826
#
# Velocity S-wave (km/s) = 2.93475 2.98405 2.95950
# Velocity P-wave (km/s) = 6.57032 6.60131 6.58583
#
# Compressibility (1/GPa) = 0.02029813
#
# Stress axis : x y z
#
# Youngs Moduli (GPa) = 34.31221 34.31221 49.88444
#
# Poissons Ratio (x) = 0.52387 0.34297
# Poissons Ratio (y) = 0.52387 0.34297
# Poissons Ratio (z) = 0.23591 0.23591
#
# Static dielectric constant tensor:
#      x y z
#    x 1.570400 0.000000 0.000000 
#    y 0.000000 1.570400 0.000000 
#    z 0.000000 0.000000 1.527140 
# 
# From -- ./inp_files/1151.got.cif
#   From: 2010.05.17/outbox.cif.g08.bks.cpg/sg192_1_cif.got.tgz:1151.got - 2010.05.20 12:28:01.
