data_PCOD9588151
_publ_section_title
;
Structure prediction by ZEFSAII (Michael W. Deem and Ramdas Pophale) SiO2 
 PCOD9588151
Probable space group: P 6/M M M
;
_chemical_formula_sum "Si O2"
_cell_formula_units_Z 168
_cell_length_a 21.396640
_cell_length_b 21.396640
_cell_length_c 25.452269
_cell_angle_alpha 90.000000
_cell_angle_beta 90.000000
_cell_angle_gamma 120.000000
_cell_volume 10091.327380
_symmetry_space_group_name_H-M "P 6/M M M"
_symmetry_group_IT_number 191
_symmetry_cell_setting 'hexagonal'
loop_
_space_group_symop_operation_xyz
x,y,z
x-y,x,z
-y,x-y,z
-x,-y,z
-x+y,-x,z
y,-x+y,z
x-y,-y,-z
-x,-x+y,-z
y,x,-z
-y,-x,-z
-x+y,y,-z
x,x-y,-z
-x,-y,-z
-x+y,-x,-z
y,-x+y,-z
x,y,-z
x-y,x,-z
-y,x-y,-z
-x+y,y,z
x,x-y,z
-y,-x,z
y,x,z
x-y,-y,z
-x,-x+y,z
loop_
_atom_site_type_symbol
_atom_site_label
_atom_site_fract_x
_atom_site_fract_y
_atom_site_fract_z
Si Si1 0.299608 0.079058 0.214170
Si Si2 0.358982 0.443211 0.751661
Si Si3 0.464963 0.383222 0.439576
Si Si4 0.666214 0.480431 0.346697
Si Si5 0.336163 0.525816 0.847435
Si Si6 0.920318 0.221732 0.911981
Si Si7 0.082212 0.636470 0.940059
O O1 0.286978 0.143489 0.229390
O O2 0.368310 0.084605 0.243186
O O3 0.314692 0.084524 0.151230
O O4 0.232870 0.000000 0.223666
O O5 0.421132 0.421132 0.752319
O O6 0.357434 0.485378 0.700354
O O7 0.358066 0.488802 0.801465
O O8 0.452786 0.357855 0.500000
O O9 0.540659 0.459342 0.438499
O O10 0.404254 0.404254 0.424639
O O11 0.476408 0.333191 0.398909
O O12 0.742708 0.485416 0.336644
O O13 0.602869 0.397132 0.352318
O O14 0.252796 0.505592 0.844530
O O15 0.388698 0.611303 0.842877
O O16 0.354914 0.498898 0.901017
O O17 0.855347 0.144654 0.927629
O O18 0.914268 0.286439 0.937812
O O19 0.000000 0.235995 0.923226
O O20 0.000000 0.578378 0.923160
O O21 0.091973 0.620785 0.000000
#
# Coordination Sequence:
#
# PCOD9588151 Si02
#       7
#    24  24  24  24  24  24  24
#     4   9  16  28  47  70  95 122 153 190 234 283
#     4  11  22  36  55  76  96 123 164 213 258 296
#     4   8  15  30  51  72  95 127 169 214 254 291
#     4  11  22  34  49  71 102 136 169 206 252 308
#     4  12  25  40  56  74 100 131 160 191 236 299
#     4   9  16  28  47  70  95 121 151 188 232 280
#     4  10  21  37  57  79  98 119 154 202 249 285
#
# _framework density 16.647959
#
# number of rings (size 3 to 8) (size 9 to 14) (size 15 to 20)
#    0.000    2.000    1.429    3.714    0.000    4.286 
#    0.000    2.143    0.000    2.000    0.000    2.000 
#    0.000    0.000    0.000    3.571    0.000    3.714 
#
# Total GULP energy -937349.927878 kJ/mol
# GULP energy per Si atom -5579.463856 kJ/mol
# Density = 1.661007 g / cm^3
# Si number density = 16.647959 Si / 1000 Ang^3
#
#
#
# Elastic Constant Matrix: (Units=GPa)
#
#
# Indices 1 2 3 4 5 6 
#
# 1 86.2265 51.3635 30.0526 0.0000 0.0000 0.0000
# 2 51.3635 86.2265 30.0526 0.0000 0.0000 0.0000
# 3 30.0526 30.0526 61.1110 0.0000 0.0000 0.0000
# 4 0.0000 0.0000 0.0000 66.9713 0.0000 0.0000
# 5 0.0000 0.0000 0.0000 0.0000 66.9713 0.0000
# 6 0.0000 0.0000 0.0000 0.0000 0.0000 17.4315
#
#
#
# Elastic Compliance Matrix: (Units=1/GPa)
#
#
# Indices 1 2 3 4 5 6 
#
# 1 0.018970 -0.009714 -0.004552 0.000000 0.000000 0.000000
# 2 -0.009714 0.018970 -0.004552 0.000000 0.000000 0.000000
# 3 -0.004552 -0.004552 0.020841 0.000000 0.000000 0.000000
# 4 0.000000 0.000000 0.000000 0.014932 0.000000 0.000000
# 5 0.000000 0.000000 0.000000 0.000000 0.014932 0.000000
# 6 0.000000 0.000000 0.000000 0.000000 0.000000 0.057367
#
#
# Mechanical properties :
#
#
# Convention : Reuss Voigt Hill
#
# Bulk Modulus (GPa) = 47.29134 50.72238 49.00686
# Shear Modulus (GPa) = 26.21975 38.41452 32.31713
#
# Velocity S-wave (km/s) = 3.97287 4.80882 4.41069
# Velocity P-wave (km/s) = 7.03657 7.83369 7.44581
#
# Compressibility (1/GPa) = 0.02114552
#
# Stress axis : x y z
#
# Youngs Moduli (GPa) = 52.71453 52.71453 47.98274
#
# Poissons Ratio (x) = 0.51205 0.21842
# Poissons Ratio (y) = 0.51205 0.21842
# Poissons Ratio (z) = 0.23996 0.23996
#
# Static dielectric constant tensor:
#      x y z
#    x 1.562000 0.000000 0.000000 
#    y 0.000000 1.562000 0.000000 
#    z 0.000000 0.000000 1.576320 
# 
# From -- ./inp_files/8987.got.cif
#   From: 2010.05.17/outbox.cif.g08.bks.cpg/sg191_5_cif.got.tgz:8987.got - 2010.05.20 12:20:32.
