data_PCOD9588458
_publ_section_title
;
Structure prediction by ZEFSAII (Michael W. Deem and Ramdas Pophale) SiO2 
 PCOD9588458
Probable space group: P 6/M C C
;
_chemical_formula_sum "Si O2"
_cell_formula_units_Z 104
_cell_length_a 18.638589
_cell_length_b 18.638589
_cell_length_c 16.523240
_cell_angle_alpha 90.000000
_cell_angle_beta 90.000000
_cell_angle_gamma 120.000000
_cell_volume 4971.093209
_symmetry_space_group_name_H-M "P 6/M C C"
_symmetry_group_IT_number 192
_symmetry_cell_setting 'hexagonal'
loop_
_space_group_symop_operation_xyz
x,y,z
x-y,x,z
-y,x-y,z
-x,-y,z
-x+y,-x,z
y,-x+y,z
x-y,-y,1/2-z
-x,-x+y,1/2-z
y,x,1/2-z
-y,-x,1/2-z
-x+y,y,1/2-z
x,x-y,1/2-z
-x,-y,-z
-x+y,-x,-z
y,-x+y,-z
x,y,-z
x-y,x,-z
-y,x-y,-z
-x+y,y,1/2+z
x,x-y,1/2+z
-y,-x,1/2+z
y,x,1/2+z
x-y,-y,1/2+z
-x,-x+y,1/2+z
loop_
_atom_site_type_symbol
_atom_site_label
_atom_site_fract_x
_atom_site_fract_y
_atom_site_fract_z
Si Si1 0.328699 0.803240 0.304113
Si Si2 0.314058 0.354452 0.500000
Si Si3 0.666668 0.333334 0.593509
Si Si4 0.983298 0.406332 0.157493
Si Si5 0.827968 0.698667 0.000000
Si Si6 0.903747 0.802779 0.337916
O O1 0.246404 0.753597 0.250000
O O2 0.410280 0.820559 0.250000
O O3 0.320743 0.738520 0.370627
O O4 0.344250 0.885357 0.347883
O O5 0.362490 0.394512 0.416029
O O6 0.230084 0.360512 0.500000
O O7 0.310236 0.264013 0.500000
O O8 0.666667 0.333334 0.500000
O O9 0.000000 0.500000 0.153908
O O10 0.000000 0.390160 0.250000
O O11 0.867252 0.746939 0.083449
O O12 0.860612 0.858313 0.340692
O O13 0.879282 0.758563 0.250000
#
# Coordination Sequence:
#
# PCOD9588458 Si02
#       6
#    24  12   8  24  12  24
#     4   9  18  38  67  98 131 172 221 277 337 407
#     4  12  29  44  68 103 134 186 234 282 336 431
#     4   9  19  32  61 108 142 161 214 291 343 389
#     4  11  24  47  72  96 135 181 228 280 349 416
#     4  12  24  46  61  92 142 180 224 278 344 391
#     4  10  19  34  64  93 122 169 228 286 336 385
#
# _framework density 20.920953000000001
#
# number of rings (size 3 to 8) (size 9 to 14) (size 15 to 20)
#    0.000    1.615    4.615    1.500    1.615    4.615 
#    0.000    1.154    0.000    0.000    0.000    0.000 
#    0.000    0.000    0.000    0.000    0.000    0.000 
#
# Total GULP energy -579822.633645 kJ/mol
# GULP energy per Si atom -5575.217631 kJ/mol
# Density = 2.087334 g / cm^3
# Si number density = 20.920953 Si / 1000 Ang^3
#
#
#
# Elastic Constant Matrix: (Units=GPa)
#
#
# Indices 1 2 3 4 5 6 
#
# 1 -181.3017 213.8149 7.0757 0.0295 0.0113 -0.0168
# 2 213.8149 -181.3083 7.0797 -0.0297 -0.0120 0.0156
# 3 7.0757 7.0797 149.0777 0.0023 0.0026 -0.0005
# 4 0.0295 -0.0297 0.0023 -126.8967 0.0277 0.0116
# 5 0.0113 -0.0120 0.0026 0.0277 -126.9341 -0.0296
# 6 -0.0168 0.0156 -0.0005 0.0116 -0.0296 -197.4824
#
#
#
# Elastic Compliance Matrix: (Units=1/GPa)
#
#
# Indices 1 2 3 4 5 6 
#
# 1 0.014439 0.016970 -0.001491 -0.000001 0.000000 0.000000
# 2 0.016970 0.014439 -0.001491 0.000001 0.000000 0.000000
# 3 -0.001491 -0.001491 0.006850 0.000000 0.000000 0.000000
# 4 -0.000001 0.000001 0.000000 -0.007880 -0.000002 0.000000
# 5 0.000000 0.000000 0.000000 -0.000002 -0.007878 0.000001
# 6 0.000000 0.000000 0.000000 0.000000 0.000001 -0.005064
#
#
# Mechanical properties :
#
#
# Convention : Reuss Voigt Hill
#
# Bulk Modulus (GPa) = 15.69783 26.93426 21.31604
# Shear Modulus (GPa) = 612.39591 -119.69616 246.34988
#
# Velocity S-wave (km/s) = 17.12759 -7.57217 10.86316
# Velocity P-wave (km/s) = 19.96644 7.97170 12.94432
#
# Compressibility (1/GPa) = 0.06370307
#
# Stress axis : x y z
#
# Youngs Moduli (GPa) = 69.25479 69.25745 145.99594
#
# Poissons Ratio (x) = -1.17530 0.21772
# Poissons Ratio (y) = -1.17526 0.21770
# Poissons Ratio (z) = 0.10328 0.10327
#
# Static dielectric constant tensor:
#      x y z
#    x 1.766800 0.000000 0.000000 
#    y 0.000000 1.766790 0.000000 
#    z 0.000000 0.000000 1.773850 
# 
# From -- ./inp_files/2946.got.cif
#   From: 2010.05.17/outbox.cif.g08.bks.cpg/sg192_2_cif.got.tgz:2946.got - 2010.05.20 12:28:01.
