data_PCOD9588486
_publ_section_title
;
Structure prediction by ZEFSAII (Michael W. Deem and Ramdas Pophale) SiO2 
 PCOD9588486
Probable space group: P 6/M C C
;
_chemical_formula_sum "Si O2"
_cell_formula_units_Z 144
_cell_length_a 33.254092
_cell_length_b 33.254092
_cell_length_c 8.736378
_cell_angle_alpha 90.000000
_cell_angle_beta 90.000000
_cell_angle_gamma 120.000000
_cell_volume 8366.662224
_symmetry_space_group_name_H-M "P 6/M C C"
_symmetry_group_IT_number 192
_symmetry_cell_setting 'hexagonal'
loop_
_space_group_symop_operation_xyz
x,y,z
x-y,x,z
-y,x-y,z
-x,-y,z
-x+y,-x,z
y,-x+y,z
x-y,-y,1/2-z
-x,-x+y,1/2-z
y,x,1/2-z
-y,-x,1/2-z
-x+y,y,1/2-z
x,x-y,1/2-z
-x,-y,-z
-x+y,-x,-z
y,-x+y,-z
x,y,-z
x-y,x,-z
-y,x-y,-z
-x+y,y,1/2+z
x,x-y,1/2+z
-y,-x,1/2+z
y,x,1/2+z
x-y,-y,1/2+z
-x,-x+y,1/2+z
loop_
_atom_site_type_symbol
_atom_site_label
_atom_site_fract_x
_atom_site_fract_y
_atom_site_fract_z
Si Si1 0.522895 0.717421 0.316382
Si Si2 0.050852 0.281295 0.315644
Si Si3 0.101089 0.715495 0.184596
Si Si4 0.949031 0.810577 0.316202
Si Si5 0.384121 0.527963 0.316470
Si Si6 0.386045 0.435788 0.682867
O O1 0.514681 0.757341 0.250000
O O2 0.520106 0.716729 0.500000
O O3 0.574425 0.727163 0.271689
O O4 0.487803 0.666512 0.251168
O O5 0.048139 0.280654 0.500000
O O6 0.086770 0.333675 0.266917
O O7 0.062638 0.241517 0.270179
O O8 0.000000 0.265365 0.250000
O O9 0.065551 0.665283 0.253762
O O10 0.097977 0.711607 0.000000
O O11 0.910142 0.820284 0.250000
O O12 0.950078 0.813289 0.500000
O O13 0.000000 0.844780 0.250000
O O14 0.423860 0.576141 0.250000
O O15 0.382645 0.529897 0.500000
O O16 0.395104 0.486843 0.274631
O O17 0.422447 0.422447 0.750000
O O18 0.385717 0.432575 0.500000
#
# Coordination Sequence:
#
# PCOD9588486 Si02
#       6
#    24  24  24  24  24  24
#     4  10  20  35  55  78 105 136 170 210 256 306
#     4   9  18  31  47  70 101 137 176 215 253 293
#     4   9  18  32  49  71 102 140 180 219 256 295
#     4  10  20  35  54  76 102 132 167 207 253 303
#     4  10  21  37  56  78 103 133 170 211 258 310
#     4  10  20  32  48  72 103 139 178 218 258 301
#
# _framework density 17.211165000000001
#
# number of rings (size 3 to 8) (size 9 to 14) (size 15 to 20)
#    0.000    2.333    0.000    2.500    0.000    6.333 
#    0.000    1.667    0.000    0.500    0.000    3.500 
#    0.000    0.000    0.000    0.000    0.000    0.000 
#
# Total GULP energy -803621.443080 kJ/mol
# GULP energy per Si atom -5580.704466 kJ/mol
# Density = 1.717199 g / cm^3
# Si number density = 17.211165 Si / 1000 Ang^3
#
#
#
# Elastic Constant Matrix: (Units=GPa)
#
#
# Indices 1 2 3 4 5 6 
#
# 1 124.5921 105.1700 45.7164 0.0000 0.0000 0.0000
# 2 105.1700 124.5921 45.7164 0.0000 0.0000 0.0000
# 3 45.7164 45.7164 43.5028 0.0000 0.0000 0.0000
# 4 0.0000 0.0000 0.0000 26.3705 0.0000 0.0000
# 5 0.0000 0.0000 0.0000 0.0000 26.3705 0.0000
# 6 0.0000 0.0000 0.0000 0.0000 0.0000 9.7110
#
#
#
# Elastic Compliance Matrix: (Units=1/GPa)
#
#
# Indices 1 2 3 4 5 6 
#
# 1 0.029484 -0.022004 -0.007861 0.000000 0.000000 0.000000
# 2 -0.022004 0.029484 -0.007861 0.000000 0.000000 0.000000
# 3 -0.007861 -0.007861 0.039510 0.000000 0.000000 0.000000
# 4 0.000000 0.000000 0.000000 0.037921 0.000000 0.000000
# 5 0.000000 0.000000 0.000000 0.000000 0.037921 0.000000
# 6 0.000000 0.000000 0.000000 0.000000 0.000000 0.102976
#
#
# Mechanical properties :
#
#
# Convention : Reuss Voigt Hill
#
# Bulk Modulus (GPa) = 43.42961 76.21029 59.81995
# Shear Modulus (GPa) = 13.87253 18.89602 16.38427
#
# Velocity S-wave (km/s) = 2.84213 3.31704 3.08873
# Velocity P-wave (km/s) = 6.00487 7.68414 6.89581
#
# Compressibility (1/GPa) = 0.02302577
#
# Stress axis : x y z
#
# Youngs Moduli (GPa) = 33.91634 33.91634 25.31016
#
# Poissons Ratio (x) = 0.74628 0.19897
# Poissons Ratio (y) = 0.74628 0.19897
# Poissons Ratio (z) = 0.26663 0.26663
#
# Static dielectric constant tensor:
#      x y z
#    x 1.566890 0.000000 0.000000 
#    y 0.000000 1.566890 0.000000 
#    z 0.000000 0.000000 1.571200 
# 
# From -- ./inp_files/1138.got.cif
#   From: 2010.05.17/outbox.cif.g08.bks.cpg/sg192_1_cif.got.tgz:1138.got - 2010.05.20 12:28:01.
