data_PCOD9588569
_publ_section_title
;
Structure prediction by ZEFSAII (Michael W. Deem and Ramdas Pophale) SiO2 
 PCOD9588569
Probable space group: P 6/M C C
;
_chemical_formula_sum "Si O2"
_cell_formula_units_Z 104
_cell_length_a 20.004960
_cell_length_b 20.004960
_cell_length_c 16.411500
_cell_angle_alpha 90.000000
_cell_angle_beta 90.000000
_cell_angle_gamma 120.000000
_cell_volume 5687.930530
_symmetry_space_group_name_H-M "P 6/M C C"
_symmetry_group_IT_number 192
_symmetry_cell_setting 'hexagonal'
loop_
_space_group_symop_operation_xyz
x,y,z
x-y,x,z
-y,x-y,z
-x,-y,z
-x+y,-x,z
y,-x+y,z
x-y,-y,1/2-z
-x,-x+y,1/2-z
y,x,1/2-z
-y,-x,1/2-z
-x+y,y,1/2-z
x,x-y,1/2-z
-x,-y,-z
-x+y,-x,-z
y,-x+y,-z
x,y,-z
x-y,x,-z
-y,x-y,-z
-x+y,y,1/2+z
x,x-y,1/2+z
-y,-x,1/2+z
y,x,1/2+z
x-y,-y,1/2+z
-x,-x+y,1/2+z
loop_
_atom_site_type_symbol
_atom_site_label
_atom_site_fract_x
_atom_site_fract_y
_atom_site_fract_z
Si Si1 0.197921 0.697357 0.401836
Si Si2 0.711725 0.715684 0.347060
Si Si3 0.030468 0.583545 0.656321
Si Si4 0.836735 0.169669 0.596628
Si Si5 0.666668 0.333334 0.347707
O O1 0.185357 0.686872 0.500000
O O2 0.122697 0.632061 0.354392
O O3 0.200740 0.777465 0.378599
O O4 0.273219 0.692688 0.379005
O O5 0.709990 0.709990 0.250000
O O6 0.637154 0.637919 0.380641
O O7 0.705261 0.789172 0.369895
O O8 0.785335 0.711139 0.376969
O O9 0.000000 0.500000 0.617923
O O10 0.000000 0.568151 0.750000
O O11 0.833496 0.165548 0.500000
O O12 0.666668 0.333334 0.250000
#
# Coordination Sequence:
#
# PCOD9588569 Si02
#       5
#    24  24  24  24   8
#     4  10  23  41  58  85 117 153 200 247 298 361
#     4  10  20  35  58  87 117 153 191 244 289 348
#     4   9  20  35  59  83 114 148 194 243 294 351
#     4  10  21  38  60  85 118 153 195 239 296 353
#     4  12  28  38  61  81 115 161 205 252 307 356
#
# _framework density 18.284330000000001
#
# number of rings (size 3 to 8) (size 9 to 14) (size 15 to 20)
#    0.000    2.077    0.000    2.077    6.462    5.077 
#    0.000    0.000    0.000    0.462    0.000    3.231 
#    0.000    0.000    0.000    0.000    0.000    0.000 
#
# Total GULP energy -580218.662992 kJ/mol
# GULP energy per Si atom -5579.025606 kJ/mol
# Density = 1.824271 g / cm^3
# Si number density = 18.284330 Si / 1000 Ang^3
#
#
#
# Elastic Constant Matrix: (Units=GPa)
#
#
# Indices 1 2 3 4 5 6 
#
# 1 138.8442 111.2019 32.3314 0.0009 0.0000 0.0000
# 2 111.2019 138.8447 32.3312 0.0008 -0.0017 0.0002
# 3 32.3314 32.3312 57.9245 -0.0001 0.0012 -0.0001
# 4 0.0009 0.0008 -0.0001 33.0309 -0.0088 0.0009
# 5 0.0000 -0.0017 0.0012 -0.0088 33.0509 -0.0001
# 6 0.0000 0.0002 -0.0001 0.0009 -0.0001 13.8213
#
#
#
# Elastic Compliance Matrix: (Units=1/GPa)
#
#
# Indices 1 2 3 4 5 6 
#
# 1 0.020425 -0.015751 -0.002609 0.000000 -0.000001 0.000000
# 2 -0.015751 0.020425 -0.002609 0.000000 0.000001 0.000000
# 3 -0.002609 -0.002609 0.020176 0.000000 -0.000001 0.000000
# 4 0.000000 0.000000 0.000000 0.030275 0.000008 -0.000002
# 5 -0.000001 0.000001 -0.000001 0.000008 0.030256 0.000000
# 6 0.000000 0.000000 0.000000 -0.000002 0.000000 0.072352
#
#
# Mechanical properties :
#
#
# Convention : Reuss Voigt Hill
#
# Bulk Modulus (GPa) = 52.38692 76.37137 64.37915
# Shear Modulus (GPa) = 20.64326 26.63053 23.63689
#
# Velocity S-wave (km/s) = 3.36373 3.82051 3.59937
# Velocity P-wave (km/s) = 6.61813 7.83078 7.24986
#
# Compressibility (1/GPa) = 0.01908873
#
# Stress axis : x y z
#
# Youngs Moduli (GPa) = 48.95939 48.95970 49.56356
#
# Poissons Ratio (x) = 0.77117 0.12931
# Poissons Ratio (y) = 0.77117 0.12930
# Poissons Ratio (z) = 0.12773 0.12772
#
# Static dielectric constant tensor:
#      x y z
#    x 1.610570 0.000000 0.000000 
#    y 0.000000 1.610570 0.000000 
#    z 0.000000 0.000000 1.640320 
# 
# From -- ./inp_files/2859.got.cif
#   From: 2010.05.17/outbox.cif.g08.bks.cpg/sg192_2_cif.got.tgz:2859.got - 2010.05.20 12:28:01.
