data_PCOD9588224
_publ_section_title
;
Structure prediction by ZEFSAII (Michael W. Deem and Ramdas Pophale) SiO2 
 PCOD9588224
Probable space group: P 6/M M M
;
_chemical_formula_sum "Si O2"
_cell_formula_units_Z 96
_cell_length_a 21.402814
_cell_length_b 21.402814
_cell_length_c 13.321392
_cell_angle_alpha 90.000000
_cell_angle_beta 90.000000
_cell_angle_gamma 120.000000
_cell_volume 5284.720151
_symmetry_space_group_name_H-M "P 6/M M M"
_symmetry_group_IT_number 191
_symmetry_cell_setting 'hexagonal'
loop_
_space_group_symop_operation_xyz
x,y,z
x-y,x,z
-y,x-y,z
-x,-y,z
-x+y,-x,z
y,-x+y,z
x-y,-y,-z
-x,-x+y,-z
y,x,-z
-y,-x,-z
-x+y,y,-z
x,x-y,-z
-x,-y,-z
-x+y,-x,-z
y,-x+y,-z
x,y,-z
x-y,x,-z
-y,x-y,-z
-x+y,y,z
x,x-y,z
-y,-x,z
y,x,z
x-y,-y,z
-x,-x+y,z
loop_
_atom_site_type_symbol
_atom_site_label
_atom_site_fract_x
_atom_site_fract_y
_atom_site_fract_z
Si Si1 0.522425 0.186868 0.796688
Si Si2 0.082995 0.371229 0.111741
Si Si3 0.778233 0.080965 0.320747
Si Si4 0.083255 0.637549 0.385656
O O1 0.597477 0.194953 0.831981
O O2 0.528065 0.264033 0.782231
O O3 0.454859 0.139041 0.869165
O O4 0.499300 0.140957 0.693292
O O5 0.090686 0.326799 0.203288
O O6 0.000000 0.353117 0.119124
O O7 0.092939 0.350088 0.000000
O O8 0.856048 0.143953 0.351006
O O9 0.715032 0.087460 0.376894
O O10 0.761580 0.000000 0.335595
O O11 0.096722 0.625266 0.500000
O O12 0.000000 0.579159 0.359607
#
# Coordination Sequence:
#
# PCOD9588224 Si02
#       4
#    24  24  24  24
#     4  11  23  36  49  67  95 131 165 192 222 270
#     4   9  18  33  54  77  95 114 148 198 251 290
#     4   9  17  29  47  72 100 127 155 190 233 280
#     4   9  18  33  54  77  95 114 148 198 251 290
#
# _framework density 18.165578
#
# number of rings (size 3 to 8) (size 9 to 14) (size 15 to 20)
#    0.000    2.500    0.000    5.500    0.000    7.000 
#    0.000    2.500    0.000    3.250    0.000    0.000 
#    0.000    0.000    0.000   12.500    0.000    0.000 
#
# Total GULP energy -535561.034631 kJ/mol
# GULP energy per Si atom -5578.760777 kJ/mol
# Density = 1.812423 g / cm^3
# Si number density = 18.165578 Si / 1000 Ang^3
#
#
#
# Elastic Constant Matrix: (Units=GPa)
#
#
# Indices 1 2 3 4 5 6 
#
# 1 67.1327 71.5574 -15.7620 0.0000 0.0000 0.0000
# 2 71.5574 67.1327 -15.7620 0.0000 0.0000 0.0000
# 3 -15.7620 -15.7620 41.9244 0.0000 0.0000 0.0000
# 4 0.0000 0.0000 0.0000 -11.5293 0.0000 0.0000
# 5 0.0000 0.0000 0.0000 0.0000 -11.5293 0.0000
# 6 0.0000 0.0000 0.0000 0.0000 0.0000 -2.2123
#
#
#
# Elastic Compliance Matrix: (Units=1/GPa)
#
#
# Indices 1 2 3 4 5 6 
#
# 1 -0.109060 0.116944 0.002964 0.000000 0.000000 0.000000
# 2 0.116944 -0.109060 0.002964 0.000000 0.000000 0.000000
# 3 0.002964 0.002964 0.026081 0.000000 0.000000 0.000000
# 4 0.000000 0.000000 0.000000 -0.086736 0.000000 0.000000
# 5 0.000000 0.000000 0.000000 0.000000 -0.086736 0.000000
# 6 0.000000 0.000000 0.000000 0.000000 0.000000 -0.452010
#
#
# Mechanical properties :
#
#
# Convention : Reuss Voigt Hill
#
# Bulk Modulus (GPa) = 18.61997 28.47294 23.54646
# Shear Modulus (GPa) = -4.78302 4.02292 -0.38005
#
# Velocity S-wave (km/s) = -1.62442 1.48976 -0.45790
# Velocity P-wave (km/s) = 2.59886 4.32057 3.56521
#
# Compressibility (1/GPa) = 0.05370578
#
# Stress axis : x y z
#
# Youngs Moduli (GPa) = -9.16923 -9.16923 38.34176
#
# Poissons Ratio (x) = 1.07229 -0.11365
# Poissons Ratio (y) = 1.07229 -0.11365
# Poissons Ratio (z) = 0.02718 0.02718
#
# Static dielectric constant tensor:
#      x y z
#    x 1.620740 0.000000 0.000000 
#    y 0.000000 1.620740 0.000000 
#    z 0.000000 0.000000 1.640880 
# 
# From -- ./inp_files/4171.got.cif
#   From: 2010.05.17/outbox.cif.g08.bks.cpg/sg191_3_cif.got.tgz:4171.got - 2010.05.20 12:20:32.
