data_PCOD9588625
_publ_section_title
;
Structure prediction by ZEFSAII (Michael W. Deem and Ramdas Pophale) SiO2 
 PCOD9588625
Probable space group: P 6/M C C
;
_chemical_formula_sum "Si O2"
_cell_formula_units_Z 144
_cell_length_a 21.476617
_cell_length_b 21.476617
_cell_length_c 17.827231
_cell_angle_alpha 90.000000
_cell_angle_beta 90.000000
_cell_angle_gamma 120.000000
_cell_volume 7121.086616
_symmetry_space_group_name_H-M "P 6/M C C"
_symmetry_group_IT_number 192
_symmetry_cell_setting 'hexagonal'
loop_
_space_group_symop_operation_xyz
x,y,z
x-y,x,z
-y,x-y,z
-x,-y,z
-x+y,-x,z
y,-x+y,z
x-y,-y,1/2-z
-x,-x+y,1/2-z
y,x,1/2-z
-y,-x,1/2-z
-x+y,y,1/2-z
x,x-y,1/2-z
-x,-y,-z
-x+y,-x,-z
y,-x+y,-z
x,y,-z
x-y,x,-z
-y,x-y,-z
-x+y,y,1/2+z
x,x-y,1/2+z
-y,-x,1/2+z
y,x,1/2+z
x-y,-y,1/2+z
-x,-x+y,1/2+z
loop_
_atom_site_type_symbol
_atom_site_label
_atom_site_fract_x
_atom_site_fract_y
_atom_site_fract_z
Si Si1 0.827851 0.123737 0.827437
Si Si2 0.277410 0.909216 0.411005
Si Si3 0.343336 0.525910 0.336771
Si Si4 0.035056 0.158010 0.910002
Si Si5 0.336773 0.952672 0.176375
Si Si6 0.196215 0.675602 0.155489
O O1 0.868325 0.131676 0.750000
O O2 0.869973 0.198449 0.872543
O O3 0.824976 0.059550 0.874880
O O4 0.747132 0.102303 0.805044
O O5 0.268155 0.906272 0.500000
O O6 0.317117 0.866580 0.383207
O O7 0.329228 0.989947 0.382539
O O8 0.361915 0.463405 0.354786
O O9 0.333314 0.519590 0.245913
O O10 0.406445 0.602934 0.364149
O O11 0.268608 0.518749 0.363574
O O12 0.095744 0.138808 0.887324
O O13 0.035195 0.162736 0.000000
O O14 0.377864 0.000000 0.250000
#
# Coordination Sequence:
#
# PCOD9588625 Si02
#       6
#    24  24  24  24  24  24
#     4  12  23  40  66  93 125 170 223 275 330 399
#     4  12  26  43  64  96 139 175 217 276 338 400
#     4  10  20  39  71  99 131 170 226 273 321 385
#     4  10  22  39  59  86 124 169 219 274 338 402
#     4  12  23  41  67  98 133 175 221 275 335 393
#     4  10  20  40  66 101 130 170 221 274 322 386
#
# _framework density 20.221633000000001
#
# number of rings (size 3 to 8) (size 9 to 14) (size 15 to 20)
#    0.000    1.000    5.000    2.000    0.000    5.333 
#    0.000    2.500    0.000    1.000    0.000    0.000 
#    0.000    0.000    0.000    0.000    0.000    0.000 
#
# Total GULP energy -804278.332720 kJ/mol
# GULP energy per Si atom -5585.266199 kJ/mol
# Density = 2.017561 g / cm^3
# Si number density = 20.221633 Si / 1000 Ang^3
#
#
#
# Elastic Constant Matrix: (Units=GPa)
#
#
# Indices 1 2 3 4 5 6 
#
# 1 119.4007 44.9654 25.8191 0.0000 0.0000 0.0000
# 2 44.9654 119.4007 25.8191 0.0000 0.0000 0.0000
# 3 25.8191 25.8191 60.9958 0.0000 0.0000 0.0000
# 4 0.0000 0.0000 0.0000 20.8803 0.0000 0.0000
# 5 0.0000 0.0000 0.0000 0.0000 20.8803 0.0000
# 6 0.0000 0.0000 0.0000 0.0000 0.0000 37.2176
#
#
#
# Elastic Compliance Matrix: (Units=1/GPa)
#
#
# Indices 1 2 3 4 5 6 
#
# 1 0.010226 -0.003209 -0.002970 0.000000 0.000000 0.000000
# 2 -0.003209 0.010226 -0.002970 0.000000 0.000000 0.000000
# 3 -0.002970 -0.002970 0.018909 0.000000 0.000000 0.000000
# 4 0.000000 0.000000 0.000000 0.047892 0.000000 0.000000
# 5 0.000000 0.000000 0.000000 0.000000 0.047892 0.000000
# 6 0.000000 0.000000 0.000000 0.000000 0.000000 0.026869
#
#
# Mechanical properties :
#
#
# Convention : Reuss Voigt Hill
#
# Bulk Modulus (GPa) = 47.47828 54.77826 51.12827
# Shear Modulus (GPa) = 26.69041 29.34189 28.01615
#
# Velocity S-wave (km/s) = 3.63698 3.81335 3.72621
# Velocity P-wave (km/s) = 6.41613 6.82177 6.62206
#
# Compressibility (1/GPa) = 0.02106226
#
# Stress axis : x y z
#
# Youngs Moduli (GPa) = 97.79170 97.79170 52.88430
#
# Poissons Ratio (x) = 0.31378 0.15708
# Poissons Ratio (y) = 0.31378 0.15708
# Poissons Ratio (z) = 0.29047 0.29047
#
# Static dielectric constant tensor:
#      x y z
#    x 1.729600 0.000000 0.000000 
#    y 0.000000 1.729600 0.000000 
#    z 0.000000 0.000000 1.698830 
# 
# From -- ./inp_files/5127.got.cif
#   From: 2010.05.17/outbox.cif.g08.bks.cpg/sg192_3_cif.got.tgz:5127.got - 2010.05.20 12:28:01.
