data_PCOD9588188
_publ_section_title
;
Structure prediction by ZEFSAII (Michael W. Deem and Ramdas Pophale) SiO2 
 PCOD9588188
Probable space group: P 6/M M M
;
_chemical_formula_sum "Si O2"
_cell_formula_units_Z 96
_cell_length_a 25.460005
_cell_length_b 25.460005
_cell_length_c 11.220876
_cell_angle_alpha 90.000000
_cell_angle_beta 90.000000
_cell_angle_gamma 120.000000
_cell_volume 6299.039968
_symmetry_space_group_name_H-M "P 6/M M M"
_symmetry_group_IT_number 191
_symmetry_cell_setting 'hexagonal'
loop_
_space_group_symop_operation_xyz
x,y,z
x-y,x,z
-y,x-y,z
-x,-y,z
-x+y,-x,z
y,-x+y,z
x-y,-y,-z
-x,-x+y,-z
y,x,-z
-y,-x,-z
-x+y,y,-z
x,x-y,-z
-x,-y,-z
-x+y,-x,-z
y,-x+y,-z
x,y,-z
x-y,x,-z
-y,x-y,-z
-x+y,y,z
x,x-y,z
-y,-x,z
y,x,z
x-y,-y,z
-x,-x+y,z
loop_
_atom_site_type_symbol
_atom_site_label
_atom_site_fract_x
_atom_site_fract_y
_atom_site_fract_z
Si Si1 0.000000 0.339748 0.365006
Si Si2 0.214736 0.214736 0.364767
Si Si3 0.135295 0.864706 0.645866
Si Si4 0.114547 0.451153 0.252247
Si Si5 0.534833 0.069666 0.640613
Si Si6 0.207922 0.792079 0.645919
Si Si7 0.600463 0.526921 0.000000
O O1 0.000000 0.277579 0.373661
O O2 0.058378 0.388094 0.296031
O O3 0.000000 0.361887 0.500000
O O4 0.192772 0.192772 0.500000
O O5 0.234549 0.168911 0.311147
O O6 0.134831 0.865170 0.500000
O O7 0.171407 0.828594 0.673758
O O8 0.105551 0.501618 0.319408
O O9 0.172186 0.446694 0.295199
O O10 0.104085 0.461509 0.115079
O O11 0.531961 0.063922 0.500000
O O12 0.500000 0.000000 0.692028
O O13 0.210635 0.789366 0.500000
O O14 0.571884 0.571884 0.000000
O O15 0.541299 0.458702 0.000000
#
# Coordination Sequence:
#
# PCOD9588188 Si02
#       7
#    12  12  12  24  12  12  12
#     4  11  18  28  50  81 111 139 175 224 281 332
#     4   9  16  26  42  67 103 141 173 208 259 320
#     4   9  16  26  43  68 102 139 172 211 262 318
#     4  12  22  35  54  79 112 146 181 223 272 330
#     4  11  20  31  53  84 109 135 175 229 291 335
#     4  11  22  35  53  82 113 140 177 228 285 338
#     4  11  22  39  56  80 114 150 187 221 265 330
#
# _framework density 15.240418
#
# number of rings (size 3 to 8) (size 9 to 14) (size 15 to 20)
#    0.000    1.250    6.250    2.250    0.000    0.500 
#    0.000    0.000    0.000    0.750    0.000    3.500 
#    0.000    0.000    0.000    0.000    0.000    0.000 
#
# Total GULP energy -534871.081818 kJ/mol
# GULP energy per Si atom -5571.573769 kJ/mol
# Density = 1.520573 g / cm^3
# Si number density = 15.240418 Si / 1000 Ang^3
#
#
#
# Elastic Constant Matrix: (Units=GPa)
#
#
# Indices 1 2 3 4 5 6 
#
# 1 126.7977 68.0680 41.9565 0.0000 0.0000 0.0000
# 2 68.0680 126.7977 41.9565 0.0000 0.0000 0.0000
# 3 41.9565 41.9565 102.4562 0.0000 0.0000 0.0000
# 4 0.0000 0.0000 0.0000 17.2033 0.0000 0.0000
# 5 0.0000 0.0000 0.0000 0.0000 17.2033 0.0000
# 6 0.0000 0.0000 0.0000 0.0000 0.0000 29.3648
#
#
#
# Elastic Compliance Matrix: (Units=1/GPa)
#
#
# Indices 1 2 3 4 5 6 
#
# 1 0.011629 -0.005398 -0.002551 0.000000 0.000000 0.000000
# 2 -0.005398 0.011629 -0.002551 0.000000 0.000000 0.000000
# 3 -0.002551 -0.002551 0.011850 0.000000 0.000000 0.000000
# 4 0.000000 0.000000 0.000000 0.058128 0.000000 0.000000
# 5 0.000000 0.000000 0.000000 0.000000 0.058128 0.000000
# 6 0.000000 0.000000 0.000000 0.000000 0.000000 0.034054
#
#
# Mechanical properties :
#
#
# Convention : Reuss Voigt Hill
#
# Bulk Modulus (GPa) = 70.89612 73.33484 72.11548
# Shear Modulus (GPa) = 23.68293 26.35899 25.02096
#
# Velocity S-wave (km/s) = 3.94630 4.16329 4.05625
# Velocity P-wave (km/s) = 8.20877 8.44593 8.32819
#
# Compressibility (1/GPa) = 0.01410514
#
# Stress axis : x y z
#
# Youngs Moduli (GPa) = 85.99340 85.99340 84.38889
#
# Poissons Ratio (x) = 0.46422 0.21531
# Poissons Ratio (y) = 0.46422 0.21531
# Poissons Ratio (z) = 0.21940 0.21940
#
# Static dielectric constant tensor:
#      x y z
#    x 1.664670 0.000000 0.000000 
#    y 0.000000 1.664670 0.000000 
#    z 0.000000 0.000000 1.522890 
# 
# From -- ./inp_files/2898.got.cif
#   From: 2010.05.17/outbox.cif.g08.bks.cpg/sg191_2_cif.got.tgz:2898.got - 2010.05.20 12:20:32.
