data_PCOD9588345
_publ_section_title
;
Structure prediction by ZEFSAII (Michael W. Deem and Ramdas Pophale) SiO2 
 PCOD9588345
Probable space group: P 6/M C C
;
_chemical_formula_sum "Si O2"
_cell_formula_units_Z 144
_cell_length_a 20.717554
_cell_length_b 20.717554
_cell_length_c 21.869583
_cell_angle_alpha 90.000000
_cell_angle_beta 90.000000
_cell_angle_gamma 120.000000
_cell_volume 8129.205323
_symmetry_space_group_name_H-M "P 6/M C C"
_symmetry_group_IT_number 192
_symmetry_cell_setting 'hexagonal'
loop_
_space_group_symop_operation_xyz
x,y,z
x-y,x,z
-y,x-y,z
-x,-y,z
-x+y,-x,z
y,-x+y,z
x-y,-y,1/2-z
-x,-x+y,1/2-z
y,x,1/2-z
-y,-x,1/2-z
-x+y,y,1/2-z
x,x-y,1/2-z
-x,-y,-z
-x+y,-x,-z
y,-x+y,-z
x,y,-z
x-y,x,-z
-y,x-y,-z
-x+y,y,1/2+z
x,x-y,1/2+z
-y,-x,1/2+z
y,x,1/2+z
x-y,-y,1/2+z
-x,-x+y,1/2+z
loop_
_atom_site_type_symbol
_atom_site_label
_atom_site_fract_x
_atom_site_fract_y
_atom_site_fract_z
Si Si1 0.712696 0.580749 0.617433
Si Si2 0.581188 0.713483 0.250000
Si Si3 0.750602 1.000000 0.114710
Si Si4 1.000000 0.153779 0.500000
Si Si5 0.712697 0.131947 0.382567
Si Si6 0.821784 0.486962 0.000000
Si Si7 0.334822 0.513038 0.000000
Si Si8 0.248605 0.000000 0.750000
O O1 0.674819 0.553744 0.684241
O O2 0.738070 0.667389 0.609947
O O3 0.788269 0.576538 0.618410
O O4 0.666279 0.532035 0.560306
O O5 0.570335 0.785168 0.250000
O O6 0.553744 0.674819 0.315759
O O7 0.669372 0.742229 0.250000
O O8 0.667390 0.929318 0.109947
O O9 0.783051 1.000000 0.182693
O O10 0.801125 0.000000 0.060102
O O11 0.073794 0.147588 0.500000
O O12 0.666280 0.134244 0.439694
O O13 0.810316 0.405158 0.000000
O O14 0.741760 0.483520 0.000000
#
# Coordination Sequence:
#
# PCOD9588345 Si02
#       8
#    24  24  24  12  24  12  12  12
#     4   9  17  30  49  73  98 123 156 198 244 291
#     4   8  14  26  45  69  96 121 146 189 245 292
#     4  10  18  33  56  80 100 125 159 204 253 300
#     4  12  25  38  50  68 101 142 180 212 246 286
#     4   9  17  30  49  73  98 123 156 198 244 291
#     4  10  20  34  50  68  93 127 165 200 234 277
#     4  10  20  34  50  68  93 127 165 200 234 277
#     4   8  16  28  50  78 100 118 152 198 248 302
#
# _framework density 17.713908
#
# number of rings (size 3 to 8) (size 9 to 14) (size 15 to 20)
#    0.000    2.667    0.000    2.250    0.000    2.667 
#    0.000    2.500    0.000    0.000    0.000   10.500 
#    0.000    0.000    0.000    0.000    0.000    0.000 
#
# Total GULP energy -801689.886528 kJ/mol
# GULP energy per Si atom -5567.290879 kJ/mol
# Density = 1.767359 g / cm^3
# Si number density = 17.713908 Si / 1000 Ang^3
#
#
#
# Elastic Constant Matrix: (Units=GPa)
#
#
# Indices 1 2 3 4 5 6 
#
# 1 47.2257 8.4603 55.6218 0.0000 0.0000 0.0000
# 2 8.4603 47.2257 55.6218 0.0000 0.0000 0.0000
# 3 55.6218 55.6218 230.2120 0.0000 0.0000 0.0000
# 4 0.0000 0.0000 0.0000 -6.6181 0.0000 0.0000
# 5 0.0000 0.0000 0.0000 0.0000 -6.6181 0.0000
# 6 0.0000 0.0000 0.0000 0.0000 0.0000 19.3827
#
#
#
# Elastic Compliance Matrix: (Units=1/GPa)
#
#
# Indices 1 2 3 4 5 6 
#
# 1 0.030254 0.004458 -0.008387 0.000000 0.000000 0.000000
# 2 0.004458 0.030254 -0.008387 0.000000 0.000000 0.000000
# 3 -0.008387 -0.008387 0.008397 0.000000 0.000000 0.000000
# 4 0.000000 0.000000 0.000000 -0.151100 0.000000 0.000000
# 5 0.000000 0.000000 0.000000 0.000000 -0.151100 0.000000
# 6 0.000000 0.000000 0.000000 0.000000 0.000000 0.051592
#
#
# Mechanical properties :
#
#
# Convention : Reuss Voigt Hill
#
# Bulk Modulus (GPa) = 22.58684 62.67456 42.63070
# Shear Modulus (GPa) = -35.13390 14.89324 -10.12033
#
# Velocity S-wave (km/s) = -4.45838 2.90274 -2.39283
# Velocity P-wave (km/s) = 3.70463 6.83322 4.06009
#
# Compressibility (1/GPa) = 0.04427357
#
# Stress axis : x y z
#
# Youngs Moduli (GPa) = 33.05324 33.05324 119.09664
#
# Poissons Ratio (x) = -0.14735 0.99885
# Poissons Ratio (y) = -0.14735 0.99885
# Poissons Ratio (z) = 0.27721 0.27721
#
# Static dielectric constant tensor:
#      x y z
#    x 1.566680 0.000000 0.000000 
#    y 0.000000 1.566680 0.000000 
#    z 0.000000 0.000000 1.683930 
# 
# From -- ./inp_files/5203.got.cif
#   From: 2010.05.17/outbox.cif.g08.bks.cpg/sg192_3_cif.got.tgz:5203.got - 2010.05.20 12:28:01.
