data_PCOD9588932
_publ_section_title
;
Structure prediction by ZEFSAII (Michael W. Deem and Ramdas Pophale) SiO2 
 PCOD9588932
Probable space group: P 63/M C M
;
_chemical_formula_sum "Si O2"
_cell_formula_units_Z 168
_cell_length_a 18.032621
_cell_length_b 18.032621
_cell_length_c 33.305162
_cell_angle_alpha 90.000000
_cell_angle_beta 90.000000
_cell_angle_gamma 120.000000
_cell_volume 9379.072483
_symmetry_space_group_name_H-M "P 63/M C M"
_symmetry_group_IT_number 193
_symmetry_cell_setting 'hexagonal'
loop_
_space_group_symop_operation_xyz
x,y,z
x-y,x,1/2+z
-y,x-y,z
-x,-y,1/2+z
-x+y,-x,z
y,-x+y,1/2+z
x-y,-y,1/2-z
-x,-x+y,1/2-z
y,x,1/2-z
-y,-x,-z
-x+y,y,-z
x,x-y,-z
-x,-y,-z
-x+y,-x,1/2-z
y,-x+y,-z
x,y,1/2-z
x-y,x,-z
-y,x-y,1/2-z
-x+y,y,1/2+z
x,x-y,1/2+z
-y,-x,1/2+z
y,x,z
x-y,-y,z
-x,-x+y,z
loop_
_atom_site_type_symbol
_atom_site_label
_atom_site_fract_x
_atom_site_fract_y
_atom_site_fract_z
Si Si1 0.649511 0.897434 0.643710
Si Si2 0.463785 0.102158 0.678931
Si Si3 0.842135 0.359018 0.589670
Si Si4 0.904763 0.363093 0.995618
Si Si5 0.102956 0.300945 0.795420
Si Si6 0.895888 0.375732 0.205879
Si Si7 0.698693 0.515827 0.075760
O O1 0.704061 0.863373 0.668190
O O2 0.568195 0.873239 0.672541
O O3 0.602553 0.855161 0.601883
O O4 0.704391 0.000000 0.639463
O O5 0.472292 0.127566 0.632427
O O6 0.398954 0.123032 0.701805
O O7 0.558210 0.136984 0.696498
O O8 0.418798 0.000000 0.680865
O O9 0.887595 0.343618 0.551430
O O10 0.855358 0.454452 0.588140
O O11 0.744924 0.284054 0.583445
O O12 0.000000 0.385055 0.006367
O O13 0.901686 0.450843 0.000000
O O14 0.839667 0.301506 0.029041
O O15 0.124195 0.285058 0.750000
O O16 0.000000 0.240354 0.801062
O O17 0.867661 0.337882 0.250000
O O18 0.000000 0.430268 0.206137
#
# Coordination Sequence:
#
# PCOD9588932 Si02
#       7
#    24  24  24  24  24  24  24
#     4  11  21  34  55  79 105 135 173 223 270 317
#     4  10  18  30  50  73  99 135 175 211 251 304
#     4  11  20  33  50  70 104 141 180 218 262 318
#     4   9  19  33  51  72  96 131 179 230 271 309
#     4  10  21  37  55  76 105 139 175 218 269 324
#     4   9  17  29  47  72  99 128 165 209 253 297
#     4  11  21  34  50  75 107 144 180 220 268 315
#
# _framework density 17.912217999999999
#
# number of rings (size 3 to 8) (size 9 to 14) (size 15 to 20)
#    0.000    1.857    2.857    2.429    0.000    3.714 
#    0.000    1.429    0.000    0.286    0.000    4.000 
#    0.000    0.000    0.000    0.000    0.000    5.286 
#
# Total GULP energy -936135.070048 kJ/mol
# GULP energy per Si atom -5572.232560 kJ/mol
# Density = 1.787145 g / cm^3
# Si number density = 17.912218 Si / 1000 Ang^3
#
#
#
# Elastic Constant Matrix: (Units=GPa)
#
#
# Indices 1 2 3 4 5 6 
#
# 1 32.8889 20.2706 8.5205 0.0000 0.0000 0.0000
# 2 20.2706 32.8889 8.5205 0.0000 0.0000 0.0000
# 3 8.5205 8.5205 86.2808 0.0000 0.0000 0.0000
# 4 0.0000 0.0000 0.0000 13.8184 0.0000 0.0000
# 5 0.0000 0.0000 0.0000 0.0000 13.8184 0.0000
# 6 0.0000 0.0000 0.0000 0.0000 0.0000 6.3092
#
#
#
# Elastic Compliance Matrix: (Units=1/GPa)
#
#
# Indices 1 2 3 4 5 6 
#
# 1 0.049338 -0.029912 -0.001918 0.000000 0.000000 0.000000
# 2 -0.029912 0.049338 -0.001918 0.000000 0.000000 0.000000
# 3 -0.001918 -0.001918 0.011969 0.000000 0.000000 0.000000
# 4 0.000000 0.000000 0.000000 0.072367 0.000000 0.000000
# 5 0.000000 0.000000 0.000000 0.000000 0.072367 0.000000
# 6 0.000000 0.000000 0.000000 0.000000 0.000000 0.158500
#
#
# Mechanical properties :
#
#
# Convention : Reuss Voigt Hill
#
# Bulk Modulus (GPa) = 23.17608 25.18686 24.18147
# Shear Modulus (GPa) = 10.08554 14.43900 12.26227
#
# Velocity S-wave (km/s) = 2.37545 2.84227 2.61928
# Velocity P-wave (km/s) = 4.52664 4.98629 4.76202
#
# Compressibility (1/GPa) = 0.04314793
#
# Stress axis : x y z
#
# Youngs Moduli (GPa) = 20.26830 20.26830 83.54941
#
# Poissons Ratio (x) = 0.60626 0.16028
# Poissons Ratio (y) = 0.60626 0.16028
# Poissons Ratio (z) = 0.03888 0.03888
#
# Static dielectric constant tensor:
#      x y z
#    x 1.633660 0.000000 0.000000 
#    y 0.000000 1.633660 0.000000 
#    z 0.000000 0.000000 1.639710 
# 
# From -- ./inp_files/9288.got.cif
#   From: 2010.05.17/outbox.cif.g08.bks.cpg/sg193_5_cif.got.tgz:9288.got - 2010.05.20 12:33:02.
