data_PCOD9588429
_publ_section_title
;
Structure prediction by ZEFSAII (Michael W. Deem and Ramdas Pophale) SiO2 
 PCOD9588429
Probable space group: P 6/M C C
;
_chemical_formula_sum "Si O2"
_cell_formula_units_Z 144
_cell_length_a 33.261024
_cell_length_b 33.261024
_cell_length_c 8.668116
_cell_angle_alpha 90.000000
_cell_angle_beta 90.000000
_cell_angle_gamma 120.000000
_cell_volume 8304.750272
_symmetry_space_group_name_H-M "P 6/M C C"
_symmetry_group_IT_number 192
_symmetry_cell_setting 'hexagonal'
loop_
_space_group_symop_operation_xyz
x,y,z
x-y,x,z
-y,x-y,z
-x,-y,z
-x+y,-x,z
y,-x+y,z
x-y,-y,1/2-z
-x,-x+y,1/2-z
y,x,1/2-z
-y,-x,1/2-z
-x+y,y,1/2-z
x,x-y,1/2-z
-x,-y,-z
-x+y,-x,-z
y,-x+y,-z
x,y,-z
x-y,x,-z
-y,x-y,-z
-x+y,y,1/2+z
x,x-y,1/2+z
-y,-x,1/2+z
y,x,1/2+z
x-y,-y,1/2+z
-x,-x+y,1/2+z
loop_
_atom_site_type_symbol
_atom_site_label
_atom_site_fract_x
_atom_site_fract_y
_atom_site_fract_z
Si Si1 0.384196 0.433741 0.814375
Si Si2 0.473276 0.616820 0.313672
Si Si3 0.242885 0.667097 0.685610
Si Si4 0.807595 0.702189 0.315809
Si Si5 0.291238 0.950833 0.315704
Si Si6 0.948848 0.139089 0.315124
O O1 0.424138 0.424138 0.750000
O O2 0.383494 0.480016 0.767873
O O3 0.335092 0.389414 0.767212
O O4 0.387279 0.434066 0.000000
O O5 0.430438 0.569563 0.250000
O O6 0.471499 0.618467 0.500000
O O7 0.464403 0.656779 0.244571
O O8 0.285056 0.714945 0.750000
O O9 0.248366 0.624183 0.750000
O O10 0.243778 0.666509 0.500000
O O11 0.845162 0.690323 0.250000
O O12 0.806829 0.700053 0.500000
O O13 0.757193 0.668881 0.248910
O O14 0.825898 0.755896 0.270169
O O15 0.290030 0.951588 0.500000
O O16 0.301207 0.000000 0.250000
O O17 0.910947 0.089054 0.250000
O O18 0.949370 0.137102 0.500000
O O19 0.000000 0.158121 0.250000
#
# Coordination Sequence:
#
# PCOD9588429 Si02
#       6
#    24  24  24  24  24  24
#     4   9  20  36  55  77 104 136 174 217 261 310
#     4  10  20  36  55  79 108 139 175 218 265 313
#     4  11  21  35  55  81 110 142 177 216 259 309
#     4  10  20  33  50  74 102 133 166 205 249 298
#     4  10  19  33  52  74  99 131 168 208 251 299
#     4  10  20  33  50  72  99 128 161 199 244 292
#
# _framework density 17.339473999999999
#
# number of rings (size 3 to 8) (size 9 to 14) (size 15 to 20)
#    0.000    2.000    0.000    5.167    0.000    5.667 
#    0.000    2.500    0.000    0.167    0.000    1.167 
#    0.000    0.000    0.000    0.000    0.000    0.000 
#
# Total GULP energy -803714.557320 kJ/mol
# GULP energy per Si atom -5581.351092 kJ/mol
# Density = 1.730001 g / cm^3
# Si number density = 17.339474 Si / 1000 Ang^3
#
#
#
# Elastic Constant Matrix: (Units=GPa)
#
#
# Indices 1 2 3 4 5 6 
#
# 1 116.4076 66.5645 38.1227 0.0000 0.0000 0.0000
# 2 66.5645 116.4076 38.1227 0.0000 0.0000 0.0000
# 3 38.1227 38.1227 72.8180 0.0000 0.0000 0.0000
# 4 0.0000 0.0000 0.0000 28.1272 0.0000 0.0000
# 5 0.0000 0.0000 0.0000 0.0000 28.1272 0.0000
# 6 0.0000 0.0000 0.0000 0.0000 0.0000 24.9216
#
#
#
# Elastic Compliance Matrix: (Units=1/GPa)
#
#
# Indices 1 2 3 4 5 6 
#
# 1 0.013527 -0.006536 -0.003660 0.000000 0.000000 0.000000
# 2 -0.006536 0.013527 -0.003660 0.000000 0.000000 0.000000
# 3 -0.003660 -0.003660 0.017565 0.000000 0.000000 0.000000
# 4 0.000000 0.000000 0.000000 0.035553 0.000000 0.000000
# 5 0.000000 0.000000 0.000000 0.000000 0.035553 0.000000
# 6 0.000000 0.000000 0.000000 0.000000 0.000000 0.040126
#
#
# Mechanical properties :
#
#
# Convention : Reuss Voigt Hill
#
# Bulk Modulus (GPa) = 59.14796 65.69477 62.42136
# Shear Modulus (GPa) = 26.42755 27.09006 26.75880
#
# Velocity S-wave (km/s) = 3.90824 3.95693 3.93266
# Velocity P-wave (km/s) = 7.38591 7.67111 7.52986
#
# Compressibility (1/GPa) = 0.01690675
#
# Stress axis : x y z
#
# Youngs Moduli (GPa) = 73.92822 73.92822 56.93208
#
# Poissons Ratio (x) = 0.48322 0.20835
# Poissons Ratio (y) = 0.48322 0.20835
# Poissons Ratio (z) = 0.27055 0.27055
#
# Static dielectric constant tensor:
#      x y z
#    x 1.577950 0.000000 0.000000 
#    y 0.000000 1.577950 0.000000 
#    z 0.000000 0.000000 1.578740 
# 
# From -- ./inp_files/1185.got.cif
#   From: 2010.05.17/outbox.cif.g08.bks.cpg/sg192_1_cif.got.tgz:1185.got - 2010.05.20 12:28:01.
