data_PCOD9588649
_publ_section_title
;
Structure prediction by ZEFSAII (Michael W. Deem and Ramdas Pophale) SiO2 
 PCOD9588649
Probable space group: P 6/M C C
;
_chemical_formula_sum "Si O2"
_cell_formula_units_Z 168
_cell_length_a 29.761414
_cell_length_b 29.761414
_cell_length_c 15.110459
_cell_angle_alpha 90.000000
_cell_angle_beta 90.000000
_cell_angle_gamma 120.000000
_cell_volume 11590.853346
_symmetry_space_group_name_H-M "P 6/M C C"
_symmetry_group_IT_number 192
_symmetry_cell_setting 'hexagonal'
loop_
_space_group_symop_operation_xyz
x,y,z
x-y,x,z
-y,x-y,z
-x,-y,z
-x+y,-x,z
y,-x+y,z
x-y,-y,1/2-z
-x,-x+y,1/2-z
y,x,1/2-z
-y,-x,1/2-z
-x+y,y,1/2-z
x,x-y,1/2-z
-x,-y,-z
-x+y,-x,-z
y,-x+y,-z
x,y,-z
x-y,x,-z
-y,x-y,-z
-x+y,y,1/2+z
x,x-y,1/2+z
-y,-x,1/2+z
y,x,1/2+z
x-y,-y,1/2+z
-x,-x+y,1/2+z
loop_
_atom_site_type_symbol
_atom_site_label
_atom_site_fract_x
_atom_site_fract_y
_atom_site_fract_z
Si Si1 0.998039 0.101678 0.392677
Si Si2 0.897743 0.208404 0.398766
Si Si3 0.690990 0.897812 0.898546
Si Si4 0.601965 0.539092 0.249532
Si Si5 0.531252 0.063164 0.397761
Si Si6 0.706451 0.063345 0.749216
Si Si7 0.000402 0.206500 0.147295
O O1 0.049688 0.102278 0.363590
O O2 0.997983 0.102630 0.500000
O O3 0.997472 0.151910 0.360196
O O4 0.890860 0.219877 0.500000
O O5 0.845787 0.154988 0.371991
O O6 0.912677 0.256308 0.333926
O O7 0.947833 0.200900 0.394505
O O8 0.658225 0.913527 0.834523
O O9 0.749115 0.947097 0.893708
O O10 0.673125 0.891621 0.000000
O O11 0.569501 0.569501 0.250000
O O12 0.582777 0.503868 0.337978
O O13 0.582095 0.503094 0.162087
O O14 0.661461 0.583353 0.248156
O O15 0.540042 0.080856 0.500000
O O16 0.500000 0.000000 0.400367
O O17 0.677504 0.000000 0.750000
O O18 0.000000 0.219721 0.250000
#
# Coordination Sequence:
#
# PCOD9588649 Si02
#       7
#    24  24  24  24  24  24  24
#     4  10  21  36  52  68  84 101 123 158 213 291
#     4  11  22  35  50  65  86 115 147 191 245 299
#     4  11  22  35  50  65  86 115 147 191 245 299
#     4   8  16  26  41  64  92 117 147 181 213 245
#     4   8  13  25  42  63  91 124 151 173 202 237
#     4  11  20  33  48  69  91 115 146 191 235 281
#     4  12  22  35  51  68  83 104 135 180 236 294
#
# _framework density 14.494187
#
# number of rings (size 3 to 8) (size 9 to 14) (size 15 to 20)
#    0.000    1.857    2.857    3.571    0.000    5.714 
#    0.000    2.857    0.000    0.857    0.000    0.000 
#    0.000    0.000    0.000    0.000    0.000    0.000 
#
# Total GULP energy -936830.686005 kJ/mol
# GULP energy per Si atom -5576.373131 kJ/mol
# Density = 1.446120 g / cm^3
# Si number density = 14.494187 Si / 1000 Ang^3
#
#
#
# Elastic Constant Matrix: (Units=GPa)
#
#
# Indices 1 2 3 4 5 6 
#
# 1 22.6015 34.3490 14.7776 0.0000 0.0000 0.0000
# 2 34.3490 22.6015 14.7776 0.0000 0.0000 0.0000
# 3 14.7776 14.7776 91.2759 0.0000 0.0000 0.0000
# 4 0.0000 0.0000 0.0000 -12.1124 0.0000 0.0000
# 5 0.0000 0.0000 0.0000 0.0000 -12.1124 0.0000
# 6 0.0000 0.0000 0.0000 0.0000 0.0000 -5.8737
#
#
#
# Elastic Compliance Matrix: (Units=1/GPa)
#
#
# Indices 1 2 3 4 5 6 
#
# 1 -0.032977 0.052147 -0.003104 0.000000 0.000000 0.000000
# 2 0.052147 -0.032977 -0.003104 0.000000 0.000000 0.000000
# 3 -0.003104 -0.003104 0.011961 0.000000 0.000000 0.000000
# 4 0.000000 0.000000 0.000000 -0.082560 0.000000 0.000000
# 5 0.000000 0.000000 0.000000 0.000000 -0.082560 0.000000
# 6 0.000000 0.000000 0.000000 0.000000 0.000000 -0.170249
#
#
# Mechanical properties :
#
#
# Convention : Reuss Voigt Hill
#
# Bulk Modulus (GPa) = 26.39504 29.36525 27.88015
# Shear Modulus (GPa) = -10.66975 -1.18139 -5.92557
#
# Velocity S-wave (km/s) = -2.71613 -0.90380 -2.02413
# Velocity P-wave (km/s) = 2.90066 4.38348 3.71676
#
# Compressibility (1/GPa) = 0.03788590
#
# Stress axis : x y z
#
# Youngs Moduli (GPa) = -30.32380 -30.32380 83.60694
#
# Poissons Ratio (x) = 1.58130 0.25948
# Poissons Ratio (y) = 1.58130 0.25948
# Poissons Ratio (z) = -0.09411 -0.09411
#
# Static dielectric constant tensor:
#      x y z
#    x 1.459470 0.000000 0.000000 
#    y 0.000000 1.459470 0.000000 
#    z 0.000000 0.000000 1.520050 
# 
# From -- ./inp_files/3496.got.cif
#   From: 2010.05.17/outbox.cif.g08.bks.cpg/sg192_2_cif.got.tgz:3496.got - 2010.05.20 12:28:01.
