data_PCOD9588556
_publ_section_title
;
Structure prediction by ZEFSAII (Michael W. Deem and Ramdas Pophale) SiO2 
 PCOD9588556
Probable space group: P 6/M C C
;
_chemical_formula_sum "Si O2"
_cell_formula_units_Z 144
_cell_length_a 33.102718
_cell_length_b 33.102718
_cell_length_c 8.622065
_cell_angle_alpha 90.000000
_cell_angle_beta 90.000000
_cell_angle_gamma 120.000000
_cell_volume 8182.183836
_symmetry_space_group_name_H-M "P 6/M C C"
_symmetry_group_IT_number 192
_symmetry_cell_setting 'hexagonal'
loop_
_space_group_symop_operation_xyz
x,y,z
x-y,x,z
-y,x-y,z
-x,-y,z
-x+y,-x,z
y,-x+y,z
x-y,-y,1/2-z
-x,-x+y,1/2-z
y,x,1/2-z
-y,-x,1/2-z
-x+y,y,1/2-z
x,x-y,1/2-z
-x,-y,-z
-x+y,-x,-z
y,-x+y,-z
x,y,-z
x-y,x,-z
-y,x-y,-z
-x+y,y,1/2+z
x,x-y,1/2+z
-y,-x,1/2+z
y,x,1/2+z
x-y,-y,1/2+z
-x,-x+y,1/2+z
loop_
_atom_site_type_symbol
_atom_site_label
_atom_site_fract_x
_atom_site_fract_y
_atom_site_fract_z
Si Si1 0.473603 0.280796 0.814635
Si Si2 0.144234 0.616291 0.813360
Si Si3 0.104374 0.721213 0.186712
Si Si4 0.948419 0.808350 0.685772
Si Si5 0.562857 0.949303 0.814246
Si Si6 0.719161 0.770737 0.185661
O O1 0.485179 0.242590 0.750000
O O2 0.509939 0.332395 0.753923
O O3 0.423105 0.269039 0.748922
O O4 0.472373 0.280171 0.000000
O O5 0.154857 0.577429 0.750000
O O6 0.091697 0.603490 0.765678
O O7 0.146587 0.618301 0.000000
O O8 0.068159 0.667226 0.230879
O O9 0.087132 0.754390 0.258002
O O10 0.105797 0.724500 0.000000
O O11 0.909624 0.819247 0.750000
O O12 0.949036 0.808647 0.500000
O O13 0.936750 0.757391 0.746434
O O14 0.000000 0.843536 0.750000
O O15 0.578989 0.000000 0.750000
O O16 0.563113 0.951383 0.000000
O O17 0.734519 0.734519 0.250000
O O18 0.721973 0.771983 0.000000
#
# Coordination Sequence:
#
# PCOD9588556 Si02
#       6
#    24  24  24  24  24  24
#     4  11  22  38  59  83 109 141 177 220 271 327
#     4  10  21  38  57  81 109 141 179 222 269 322
#     4  10  20  35  52  76 109 147 189 233 273 318
#     4  11  22  39  60  84 111 143 180 223 272 326
#     4   9  19  32  49  73 106 144 185 226 266 309
#     4  11  21  34  52  78 110 149 191 232 274 320
#
# _framework density 17.599212999999999
#
# number of rings (size 3 to 8) (size 9 to 14) (size 15 to 20)
#    0.000    1.667    0.000    8.000    0.000    6.333 
#    0.000    5.000    0.000    0.500    0.000    3.500 
#    0.000    0.000    0.000    0.000    0.000    0.000 
#
# Total GULP energy -804646.939326 kJ/mol
# GULP energy per Si atom -5587.825968 kJ/mol
# Density = 1.755916 g / cm^3
# Si number density = 17.599213 Si / 1000 Ang^3
#
#
#
# Elastic Constant Matrix: (Units=GPa)
#
#
# Indices 1 2 3 4 5 6 
#
# 1 115.5440 101.4616 58.4766 0.0000 0.0000 0.0000
# 2 101.4616 115.5440 58.4766 0.0000 0.0000 0.0000
# 3 58.4766 58.4766 143.1911 0.0000 0.0000 0.0000
# 4 0.0000 0.0000 0.0000 31.1114 0.0000 0.0000
# 5 0.0000 0.0000 0.0000 0.0000 31.1114 0.0000
# 6 0.0000 0.0000 0.0000 0.0000 0.0000 7.0412
#
#
#
# Elastic Compliance Matrix: (Units=1/GPa)
#
#
# Indices 1 2 3 4 5 6 
#
# 1 0.038460 -0.032551 -0.002413 0.000000 0.000000 0.000000
# 2 -0.032551 0.038460 -0.002413 0.000000 0.000000 0.000000
# 3 -0.002413 -0.002413 0.008955 0.000000 0.000000 0.000000
# 4 0.000000 0.000000 0.000000 0.032143 0.000000 0.000000
# 5 0.000000 0.000000 0.000000 0.000000 0.032143 0.000000
# 6 0.000000 0.000000 0.000000 0.000000 0.000000 0.142021
#
#
# Mechanical properties :
#
#
# Convention : Reuss Voigt Hill
#
# Bulk Modulus (GPa) = 89.92920 90.12319 90.02619
# Shear Modulus (GPa) = 13.49014 24.24374 18.86694
#
# Velocity S-wave (km/s) = 2.77161 3.71556 3.27774
# Velocity P-wave (km/s) = 7.83912 8.35027 8.09873
#
# Compressibility (1/GPa) = 0.01111986
#
# Stress axis : x y z
#
# Youngs Moduli (GPa) = 26.00125 26.00125 111.67561
#
# Poissons Ratio (x) = 0.84637 0.26947
# Poissons Ratio (y) = 0.84637 0.26947
# Poissons Ratio (z) = 0.06274 0.06274
#
# Static dielectric constant tensor:
#      x y z
#    x 1.586280 0.000000 0.000000 
#    y 0.000000 1.586280 0.000000 
#    z 0.000000 0.000000 1.585780 
# 
# From -- ./inp_files/1211.got.cif
#   From: 2010.05.17/outbox.cif.g08.bks.cpg/sg192_1_cif.got.tgz:1211.got - 2010.05.20 12:28:01.
