data_PCOD9588837
_publ_section_title
;
Structure prediction by ZEFSAII (Michael W. Deem and Ramdas Pophale) SiO2 
 PCOD9588837
Probable space group: P 6/M C C
;
_chemical_formula_sum "Si O2"
_cell_formula_units_Z 84
_cell_length_a 15.519557
_cell_length_b 15.519557
_cell_length_c 20.581317
_cell_angle_alpha 90.000000
_cell_angle_beta 90.000000
_cell_angle_gamma 120.000000
_cell_volume 4293.015279
_symmetry_space_group_name_H-M "P 6/M C C"
_symmetry_group_IT_number 192
_symmetry_cell_setting 'hexagonal'
loop_
_space_group_symop_operation_xyz
x,y,z
x-y,x,z
-y,x-y,z
-x,-y,z
-x+y,-x,z
y,-x+y,z
x-y,-y,1/2-z
-x,-x+y,1/2-z
y,x,1/2-z
-y,-x,1/2-z
-x+y,y,1/2-z
x,x-y,1/2-z
-x,-y,-z
-x+y,-x,-z
y,-x+y,-z
x,y,-z
x-y,x,-z
-y,x-y,-z
-x+y,y,1/2+z
x,x-y,1/2+z
-y,-x,1/2+z
y,x,1/2+z
x-y,-y,1/2+z
-x,-x+y,1/2+z
loop_
_atom_site_type_symbol
_atom_site_label
_atom_site_fract_x
_atom_site_fract_y
_atom_site_fract_z
Si Si1 0.598039 0.670216 0.000000
Si Si2 0.855033 0.488812 0.639685
Si Si3 0.222620 0.777380 0.250000
Si Si4 0.481356 0.847667 0.000000
Si Si5 0.399505 0.072220 0.642027
O O1 0.631240 0.722175 0.070181
O O2 0.624163 0.580920 0.000000
O O3 0.478268 0.610610 0.000000
O O4 0.792304 0.484545 0.700447
O O5 0.803482 0.480692 0.570095
O O6 0.887343 0.405781 0.641340
O O7 0.953996 0.597815 0.647026
O O8 0.127211 0.744097 0.297244
#
# Coordination Sequence:
#
# PCOD9588837 Si02
#       5
#    12  24  12  12  24
#     4   7  12  27  50  62  71 104 150 183 212 257
#     4   9  18  33  47  61  83 113 146 181 221 261
#     4  12  20  24  40  66  84 112 134 170 214 266
#     4   7  12  27  50  62  71 104 150 183 212 257
#     4   9  18  33  47  61  83 113 146 181 221 261
#
# _framework density 19.566666000000001
#
# number of rings (size 3 to 8) (size 9 to 14) (size 15 to 20)
#    0.000    3.143    0.000    5.143    0.000    3.429 
#    6.857    0.000    0.000    0.000    0.000    0.000 
#    0.000    0.000    0.000   27.429    0.000    0.000 
#
# Total GULP energy -467954.076419 kJ/mol
# GULP energy per Si atom -5570.881862 kJ/mol
# Density = 1.952213 g / cm^3
# Si number density = 19.566666 Si / 1000 Ang^3
#
#
#
# Elastic Constant Matrix: (Units=GPa)
#
#
# Indices 1 2 3 4 5 6 
#
# 1 27.3048 3.1610 29.0881 0.0000 0.0000 0.0000
# 2 3.1610 27.3048 29.0881 0.0000 0.0000 0.0000
# 3 29.0881 29.0881 226.4369 0.0000 0.0000 0.0000
# 4 0.0000 0.0000 0.0000 8.7715 0.0000 0.0000
# 5 0.0000 0.0000 0.0000 0.0000 8.7715 0.0000
# 6 0.0000 0.0000 0.0000 0.0000 0.0000 12.0719
#
#
#
# Elastic Compliance Matrix: (Units=1/GPa)
#
#
# Indices 1 2 3 4 5 6 
#
# 1 0.042455 0.001037 -0.005587 0.000000 0.000000 0.000000
# 2 0.001037 0.042455 -0.005587 0.000000 0.000000 0.000000
# 3 -0.005587 -0.005587 0.005852 0.000000 0.000000 0.000000
# 4 0.000000 0.000000 0.000000 0.114005 0.000000 0.000000
# 5 0.000000 0.000000 0.000000 0.000000 0.114005 0.000000
# 6 0.000000 0.000000 0.000000 0.000000 0.000000 0.082837
#
#
# Mechanical properties :
#
#
# Convention : Reuss Voigt Hill
#
# Bulk Modulus (GPa) = 14.18674 44.85789 29.52232
# Shear Modulus (GPa) = 11.22636 20.57027 15.89832
#
# Velocity S-wave (km/s) = 2.39791 3.24588 2.85357
# Velocity P-wave (km/s) = 3.86430 6.08466 5.09686
#
# Compressibility (1/GPa) = 0.07048834
#
# Stress axis : x y z
#
# Youngs Moduli (GPa) = 23.55408 23.55408 170.89144
#
# Poissons Ratio (x) = -0.02442 0.95478
# Poissons Ratio (y) = -0.02442 0.95478
# Poissons Ratio (z) = 0.13160 0.13160
#
# Static dielectric constant tensor:
#      x y z
#    x 1.723970 0.000000 0.000000 
#    y 0.000000 1.723970 0.000000 
#    z 0.000000 0.000000 1.785130 
# 
# From -- ./inp_files/4681.got.cif
#   From: 2010.05.17/outbox.cif.g08.bks.cpg/sg192_3_cif.got.tgz:4681.got - 2010.05.20 12:28:01.
