data_PCOD9588417
_publ_section_title
;
Structure prediction by ZEFSAII (Michael W. Deem and Ramdas Pophale) SiO2 
 PCOD9588417
Probable space group: P 6/M C C
;
_chemical_formula_sum "Si O2"
_cell_formula_units_Z 144
_cell_length_a 30.428485
_cell_length_b 30.428485
_cell_length_c 9.030597
_cell_angle_alpha 90.000000
_cell_angle_beta 90.000000
_cell_angle_gamma 120.000000
_cell_volume 7241.153490
_symmetry_space_group_name_H-M "P 6/M C C"
_symmetry_group_IT_number 192
_symmetry_cell_setting 'hexagonal'
loop_
_space_group_symop_operation_xyz
x,y,z
x-y,x,z
-y,x-y,z
-x,-y,z
-x+y,-x,z
y,-x+y,z
x-y,-y,1/2-z
-x,-x+y,1/2-z
y,x,1/2-z
-y,-x,1/2-z
-x+y,y,1/2-z
x,x-y,1/2-z
-x,-y,-z
-x+y,-x,-z
y,-x+y,-z
x,y,-z
x-y,x,-z
-y,x-y,-z
-x+y,y,1/2+z
x,x-y,1/2+z
-y,-x,1/2+z
y,x,1/2+z
x-y,-y,1/2+z
-x,-x+y,1/2+z
loop_
_atom_site_type_symbol
_atom_site_label
_atom_site_fract_x
_atom_site_fract_y
_atom_site_fract_z
Si Si1 0.642525 0.944210 0.322838
Si Si2 0.814161 0.864793 0.334886
Si Si3 0.430642 0.666783 0.680899
Si Si4 0.538452 0.677629 0.670031
Si Si5 0.802858 0.109869 0.669175
Si Si6 0.477339 0.431470 0.667387
O O1 0.640779 0.948729 0.500000
O O2 0.589449 0.895048 0.265822
O O3 0.681868 0.927016 0.267744
O O4 0.662220 0.000000 0.250000
O O5 0.828302 0.828302 0.250000
O O6 0.834218 0.917109 0.250000
O O7 0.834373 0.873145 0.500000
O O8 0.753382 0.838100 0.341320
O O9 0.387296 0.612705 0.750000
O O10 0.422090 0.711045 0.750000
O O11 0.426298 0.664792 0.500000
O O12 0.489224 0.681546 0.717476
O O13 0.551803 0.697194 0.500000
O O14 0.518404 0.617945 0.666630
O O15 0.836033 0.163968 0.750000
O O16 0.788471 0.114813 0.500000
O O17 0.430034 0.430034 0.750000
O O18 0.525834 0.474167 0.750000
O O19 0.474105 0.444817 0.500000
#
# Coordination Sequence:
#
# PCOD9588417 Si02
#       6
#    24  24  24  24  24  24
#     4  12  25  40  61  88 124 171 219 267 319 378
#     4  10  20  34  55  82 112 147 188 237 291 347
#     4  11  24  44  70  98 128 161 201 252 313 383
#     4  10  23  41  60  85 118 155 197 246 299 360
#     4  10  21  38  60  86 118 156 203 258 314 371
#     4  10  19  32  52  78 108 143 181 224 273 326
#
# _framework density 19.886334000000002
#
# number of rings (size 3 to 8) (size 9 to 14) (size 15 to 20)
#    0.000    1.500    0.000    5.667    0.000    8.000 
#    0.000    1.667    0.000    0.167    0.000    1.167 
#    0.000    0.000    0.000    0.000    0.000    0.000 
#
# Total GULP energy -802476.879201 kJ/mol
# GULP energy per Si atom -5572.756106 kJ/mol
# Density = 1.984107 g / cm^3
# Si number density = 19.886334 Si / 1000 Ang^3
#
#
#
# Elastic Constant Matrix: (Units=GPa)
#
#
# Indices 1 2 3 4 5 6 
#
# 1 81.3060 7.6673 37.8032 0.0000 0.0000 0.0000
# 2 7.6673 81.3060 37.8032 0.0000 0.0000 0.0000
# 3 37.8032 37.8032 158.7035 0.0000 0.0000 0.0000
# 4 0.0000 0.0000 0.0000 21.7573 0.0000 0.0000
# 5 0.0000 0.0000 0.0000 0.0000 21.7573 0.0000
# 6 0.0000 0.0000 0.0000 0.0000 0.0000 36.8194
#
#
#
# Elastic Compliance Matrix: (Units=1/GPa)
#
#
# Indices 1 2 3 4 5 6 
#
# 1 0.013836 0.000256 -0.003357 0.000000 0.000000 0.000000
# 2 0.000256 0.013836 -0.003357 0.000000 0.000000 0.000000
# 3 -0.003357 -0.003357 0.007900 0.000000 0.000000 0.000000
# 4 0.000000 0.000000 0.000000 0.045962 0.000000 0.000000
# 5 0.000000 0.000000 0.000000 0.000000 0.045962 0.000000
# 6 0.000000 0.000000 0.000000 0.000000 0.000000 0.027160
#
#
# Mechanical properties :
#
#
# Convention : Reuss Voigt Hill
#
# Bulk Modulus (GPa) = 44.13656 54.20701 49.17179
# Shear Modulus (GPa) = 28.55163 31.93626 30.24395
#
# Velocity S-wave (km/s) = 3.79323 4.01177 3.90403
# Velocity P-wave (km/s) = 6.43641 6.98403 6.71580
#
# Compressibility (1/GPa) = 0.02265695
#
# Stress axis : x y z
#
# Youngs Moduli (GPa) = 72.27656 72.27656 126.57967
#
# Poissons Ratio (x) = -0.01850 0.42488
# Poissons Ratio (y) = -0.01850 0.42488
# Poissons Ratio (z) = 0.24261 0.24261
#
# Static dielectric constant tensor:
#      x y z
#    x 1.725480 0.000000 0.000000 
#    y 0.000000 1.725480 0.000000 
#    z 0.000000 0.000000 3.041130 
# 
# From -- ./inp_files/1202.got.cif
#   From: 2010.05.17/outbox.cif.g08.bks.cpg/sg192_1_cif.got.tgz:1202.got - 2010.05.20 12:28:01.
