data_PCOD9588506
_publ_section_title
;
Structure prediction by ZEFSAII (Michael W. Deem and Ramdas Pophale) SiO2 
 PCOD9588506
Probable space group: P 6/M C C
;
_chemical_formula_sum "Si O2"
_cell_formula_units_Z 144
_cell_length_a 33.050834
_cell_length_b 33.050834
_cell_length_c 8.748515
_cell_angle_alpha 90.000000
_cell_angle_beta 90.000000
_cell_angle_gamma 120.000000
_cell_volume 8276.177916
_symmetry_space_group_name_H-M "P 6/M C C"
_symmetry_group_IT_number 192
_symmetry_cell_setting 'hexagonal'
loop_
_space_group_symop_operation_xyz
x,y,z
x-y,x,z
-y,x-y,z
-x,-y,z
-x+y,-x,z
y,-x+y,z
x-y,-y,1/2-z
-x,-x+y,1/2-z
y,x,1/2-z
-y,-x,1/2-z
-x+y,y,1/2-z
x,x-y,1/2-z
-x,-y,-z
-x+y,-x,-z
y,-x+y,-z
x,y,-z
x-y,x,-z
-y,x-y,-z
-x+y,y,1/2+z
x,x-y,1/2+z
-y,-x,1/2+z
y,x,1/2+z
x-y,-y,1/2+z
-x,-x+y,1/2+z
loop_
_atom_site_type_symbol
_atom_site_label
_atom_site_fract_x
_atom_site_fract_y
_atom_site_fract_z
Si Si1 0.437501 0.049970 0.682809
Si Si2 0.473657 0.859854 0.815977
Si Si3 0.190220 0.138946 0.817440
Si Si4 0.381305 0.286052 0.683625
Si Si5 0.894420 0.194003 0.316872
Si Si6 0.280162 0.472287 0.817269
O O1 0.438889 0.049900 0.500000
O O2 0.486246 0.090795 0.749477
O O3 0.398156 0.062056 0.740410
O O4 0.424495 0.000000 0.750000
O O5 0.424199 0.848397 0.750000
O O6 0.489716 0.822599 0.771421
O O7 0.474066 0.862802 0.000000
O O8 0.159129 0.159129 0.750000
O O9 0.177822 0.088911 0.750000
O O10 0.245021 0.173810 0.779746
O O11 0.186055 0.135839 0.000000
O O12 0.380709 0.290436 0.500000
O O13 0.332810 0.244335 0.744302
O O14 0.421778 0.273679 0.724435
O O15 0.843917 0.156084 0.250000
O O16 0.891122 0.196137 0.500000
O O17 0.239719 0.479437 0.750000
O O18 0.277758 0.473231 0.000000
#
# Coordination Sequence:
#
# PCOD9588506 Si02
#       6
#    24  24  24  24  24  24
#     4  11  22  37  55  76 104 140 180 224 270 317
#     4  10  21  38  57  81 108 137 175 220 267 319
#     4  10  21  37  57  80 107 138 175 216 261 311
#     4  10  20  34  51  75 108 144 182 225 265 311
#     4  10  20  33  50  75 106 142 181 221 263 310
#     4   9  19  33  52  78 107 136 171 213 260 313
#
# _framework density 17.399336000000002
#
# number of rings (size 3 to 8) (size 9 to 14) (size 15 to 20)
#    0.000    2.000    0.000    5.000    0.000    8.333 
#    0.000    3.333    0.000    0.500    0.000    1.167 
#    0.000    0.000    0.000    0.000    0.000    0.000 
#
# Total GULP energy -804269.560105 kJ/mol
# GULP energy per Si atom -5585.205279 kJ/mol
# Density = 1.735973 g / cm^3
# Si number density = 17.399336 Si / 1000 Ang^3
#
#
#
# Elastic Constant Matrix: (Units=GPa)
#
#
# Indices 1 2 3 4 5 6 
#
# 1 80.7787 56.6670 36.5292 0.0000 0.0000 0.0000
# 2 56.6670 80.7787 36.5292 0.0000 0.0000 0.0000
# 3 36.5292 36.5292 76.0916 0.0000 0.0000 0.0000
# 4 0.0000 0.0000 0.0000 34.6679 0.0000 0.0000
# 5 0.0000 0.0000 0.0000 0.0000 34.6679 0.0000
# 6 0.0000 0.0000 0.0000 0.0000 0.0000 12.0558
#
#
#
# Elastic Compliance Matrix: (Units=1/GPa)
#
#
# Indices 1 2 3 4 5 6 
#
# 1 0.025621 -0.015853 -0.004689 0.000000 0.000000 0.000000
# 2 -0.015853 0.025621 -0.004689 0.000000 0.000000 0.000000
# 3 -0.004689 -0.004689 0.017645 0.000000 0.000000 0.000000
# 4 0.000000 0.000000 0.000000 0.028845 0.000000 0.000000
# 5 0.000000 0.000000 0.000000 0.000000 0.028845 0.000000
# 6 0.000000 0.000000 0.000000 0.000000 0.000000 0.082948
#
#
# Mechanical properties :
#
#
# Convention : Reuss Voigt Hill
#
# Bulk Modulus (GPa) = 54.27902 55.23329 54.75615
# Shear Modulus (GPa) = 18.78791 23.47324 21.13058
#
# Velocity S-wave (km/s) = 3.28961 3.67698 3.48867
# Velocity P-wave (km/s) = 6.75962 7.05977 6.91132
#
# Compressibility (1/GPa) = 0.01842333
#
# Stress axis : x y z
#
# Youngs Moduli (GPa) = 39.03050 39.03050 56.67480
#
# Poissons Ratio (x) = 0.61874 0.26577
# Poissons Ratio (y) = 0.61874 0.26577
# Poissons Ratio (z) = 0.18303 0.18303
#
# Static dielectric constant tensor:
#      x y z
#    x 1.578390 0.000000 0.000000 
#    y 0.000000 1.578390 0.000000 
#    z 0.000000 0.000000 1.625440 
# 
# From -- ./inp_files/1133.got.cif
#   From: 2010.05.17/outbox.cif.g08.bks.cpg/sg192_1_cif.got.tgz:1133.got - 2010.05.20 12:28:01.
