data_PCOD9588085
_publ_section_title
;
Structure prediction by ZEFSAII (Michael W. Deem and Ramdas Pophale) SiO2 
 PCOD9588085
Probable space group: P 6/M M M
;
_chemical_formula_sum "Si O2"
_cell_formula_units_Z 102
_cell_length_a 28.760350
_cell_length_b 28.760350
_cell_length_c 7.278103
_cell_angle_alpha 90.000000
_cell_angle_beta 90.000000
_cell_angle_gamma 120.000000
_cell_volume 5213.593457
_symmetry_space_group_name_H-M "P 6/M M M"
_symmetry_group_IT_number 191
_symmetry_cell_setting 'hexagonal'
loop_
_space_group_symop_operation_xyz
x,y,z
x-y,x,z
-y,x-y,z
-x,-y,z
-x+y,-x,z
y,-x+y,z
x-y,-y,-z
-x,-x+y,-z
y,x,-z
-y,-x,-z
-x+y,y,-z
x,x-y,-z
-x,-y,-z
-x+y,-x,-z
y,-x+y,-z
x,y,-z
x-y,x,-z
-y,x-y,-z
-x+y,y,z
x,x-y,z
-y,-x,z
y,x,z
x-y,-y,z
-x,-x+y,z
loop_
_atom_site_type_symbol
_atom_site_label
_atom_site_fract_x
_atom_site_fract_y
_atom_site_fract_z
Si Si1 0.061631 0.389777 0.723595
Si Si2 0.487196 0.618202 0.719541
Si Si3 0.804741 0.804741 0.278745
Si Si4 0.897955 0.207992 0.723239
Si Si5 0.333855 0.774495 0.000000
Si Si6 0.888520 0.888520 0.000000
O O1 0.061394 0.389070 0.500000
O O2 0.090968 0.451894 0.777412
O O3 0.091024 0.357232 0.783315
O O4 0.000000 0.357722 0.783003
O O5 0.486439 0.624603 0.500000
O O6 0.443997 0.556003 0.762327
O O7 0.466038 0.652843 0.824795
O O8 0.810961 0.810961 0.500000
O O9 0.748296 0.800754 0.227673
O O10 0.853490 0.853490 0.174008
O O11 0.897153 0.208341 0.500000
O O12 0.841846 0.158155 0.784999
O O13 0.274577 0.725424 0.000000
O O14 0.377553 0.755106 0.000000
O O15 0.892989 0.946495 0.000000
#
# Coordination Sequence:
#
# PCOD9588085 Si02
#       6
#    24  24  12  24  12   6
#     4   9  16  29  51  80 113 149 189 228 273 330
#     4   9  19  35  55  81 113 148 187 232 279 330
#     4  10  20  39  63  85 111 146 186 228 275 331
#     4   9  16  28  51  82 112 144 184 228 275 328
#     4  10  21  38  58  80 108 144 187 234 284 336
#     4  12  27  44  62  86 114 144 181 228 280 332
#
# _framework density 19.564242
#
# number of rings (size 3 to 8) (size 9 to 14) (size 15 to 20)
#    0.000    2.588    1.176    0.882    0.000    3.294 
#    0.000    6.471    0.000    5.647    0.000    0.000 
#    0.000    0.000    0.000    0.000    0.000    0.000 
#
# Total GULP energy -569577.542785 kJ/mol
# GULP energy per Si atom -5584.093557 kJ/mol
# Density = 1.951971 g / cm^3
# Si number density = 19.564242 Si / 1000 Ang^3
#
#
#
# Elastic Constant Matrix: (Units=GPa)
#
#
# Indices 1 2 3 4 5 6 
#
# 1 177.0703 151.2098 31.4610 0.0000 0.0000 0.0000
# 2 151.2098 177.0703 31.4610 0.0000 0.0000 0.0000
# 3 31.4610 31.4610 84.5672 0.0000 0.0000 0.0000
# 4 0.0000 0.0000 0.0000 24.4597 0.0000 0.0000
# 5 0.0000 0.0000 0.0000 0.0000 24.4597 0.0000
# 6 0.0000 0.0000 0.0000 0.0000 0.0000 12.9302
#
#
#
# Elastic Compliance Matrix: (Units=1/GPa)
#
#
# Indices 1 2 3 4 5 6 
#
# 1 0.020975 -0.017694 -0.001220 0.000000 0.000000 0.000000
# 2 -0.017694 0.020975 -0.001220 0.000000 0.000000 0.000000
# 3 -0.001220 -0.001220 0.012733 0.000000 0.000000 0.000000
# 4 0.000000 0.000000 0.000000 0.040884 0.000000 0.000000
# 5 0.000000 0.000000 0.000000 0.000000 0.040884 0.000000
# 6 0.000000 0.000000 0.000000 0.000000 0.000000 0.077338
#
#
# Mechanical properties :
#
#
# Convention : Reuss Voigt Hill
#
# Bulk Modulus (GPa) = 69.38694 96.33015 82.85854
# Shear Modulus (GPa) = 19.31536 27.34165 23.32851
#
# Velocity S-wave (km/s) = 3.14551 3.74241 3.45687
# Velocity P-wave (km/s) = 6.98108 8.24736 7.64050
#
# Compressibility (1/GPa) = 0.01441193
#
# Stress axis : x y z
#
# Youngs Moduli (GPa) = 47.67681 47.67681 78.53704
#
# Poissons Ratio (x) = 0.84362 0.09584
# Poissons Ratio (y) = 0.84362 0.09584
# Poissons Ratio (z) = 0.05818 0.05818
#
# Static dielectric constant tensor:
#      x y z
#    x 1.649240 0.000000 0.000000 
#    y 0.000000 1.649240 0.000000 
#    z 0.000000 0.000000 1.771530 
# 
# From -- ./inp_files/1458.got.cif
#   From: 2010.05.17/outbox.cif.g08.bks.cpg/sg191_1_cif.got.tgz:1458.got - 2010.05.20 12:20:32.
