data_PCOD9588593
_publ_section_title
;
Structure prediction by ZEFSAII (Michael W. Deem and Ramdas Pophale) SiO2 
 PCOD9588593
Probable space group: P 6/M C C
;
_chemical_formula_sum "Si O2"
_cell_formula_units_Z 120
_cell_length_a 14.200840
_cell_length_b 14.200840
_cell_length_c 29.444694
_cell_angle_alpha 90.000000
_cell_angle_beta 90.000000
_cell_angle_gamma 120.000000
_cell_volume 5142.398704
_symmetry_space_group_name_H-M "P 6/M C C"
_symmetry_group_IT_number 192
_symmetry_cell_setting 'hexagonal'
loop_
_space_group_symop_operation_xyz
x,y,z
x-y,x,z
-y,x-y,z
-x,-y,z
-x+y,-x,z
y,-x+y,z
x-y,-y,1/2-z
-x,-x+y,1/2-z
y,x,1/2-z
-y,-x,1/2-z
-x+y,y,1/2-z
x,x-y,1/2-z
-x,-y,-z
-x+y,-x,-z
y,-x+y,-z
x,y,-z
x-y,x,-z
-y,x-y,-z
-x+y,y,1/2+z
x,x-y,1/2+z
-y,-x,1/2+z
y,x,1/2+z
x-y,-y,1/2+z
-x,-x+y,1/2+z
loop_
_atom_site_type_symbol
_atom_site_label
_atom_site_fract_x
_atom_site_fract_y
_atom_site_fract_z
Si Si1 0.982781 0.208554 0.421212
Si Si2 0.600063 0.476450 0.855272
Si Si3 0.552358 0.628441 0.548964
Si Si4 0.738916 0.209368 0.200414
Si Si5 0.762560 0.808414 0.811789
O O1 0.965619 0.206005 0.366725
O O2 0.094912 0.214317 0.435380
O O3 0.997358 0.320437 0.439980
O O4 0.500000 0.500000 0.854169
O O5 0.644229 0.495293 0.906808
O O6 0.551804 0.359066 0.831885
O O7 0.704838 0.554221 0.825156
O O8 0.500000 0.500000 0.545588
O O9 0.540588 0.671414 0.500000
O O10 0.743463 0.256538 0.250000
O O11 0.734435 0.094489 0.205571
O O12 0.860793 0.790432 0.798399
#
# Coordination Sequence:
#
# PCOD9588593 Si02
#       5
#    24  24  24  24  24
#     4  10  20  38  66 103 146 192 237 288 354 430
#     4  11  24  45  68  94 131 171 218 280 351 421
#     4  10  22  41  66  95 131 179 235 294 355 421
#     4  12  25  41  65  96 128 169 223 281 345 416
#     4  10  20  36  59  90 130 174 219 265 319 388
#
# _framework density 23.335414
#
# number of rings (size 3 to 8) (size 9 to 14) (size 15 to 20)
#    0.000    1.400    0.000    7.400    0.000    6.400 
#    0.000    3.000    0.000    3.200    0.000    0.000 
#    0.000    0.000    0.000    0.000    0.000    0.000 
#
# Total GULP energy -670730.646498 kJ/mol
# GULP energy per Si atom -5589.422054 kJ/mol
# Density = 2.328230 g / cm^3
# Si number density = 23.335414 Si / 1000 Ang^3
#
#
#
# Elastic Constant Matrix: (Units=GPa)
#
#
# Indices 1 2 3 4 5 6 
#
# 1 124.8561 45.8710 42.1702 0.0000 0.0000 0.0000
# 2 45.8710 124.8561 42.1702 0.0000 0.0000 0.0000
# 3 42.1702 42.1702 178.7174 0.0000 0.0000 0.0000
# 4 0.0000 0.0000 0.0000 -24.6136 0.0000 0.0000
# 5 0.0000 0.0000 0.0000 0.0000 -24.6136 0.0000
# 6 0.0000 0.0000 0.0000 0.0000 0.0000 39.4926
#
#
#
# Elastic Compliance Matrix: (Units=1/GPa)
#
#
# Indices 1 2 3 4 5 6 
#
# 1 0.009645 -0.003015 -0.001564 0.000000 0.000000 0.000000
# 2 -0.003015 0.009645 -0.001564 0.000000 0.000000 0.000000
# 3 -0.001564 -0.001564 0.006334 0.000000 0.000000 0.000000
# 4 0.000000 0.000000 0.000000 -0.040628 0.000000 0.000000
# 5 0.000000 0.000000 0.000000 0.000000 -0.040628 0.000000
# 6 0.000000 0.000000 0.000000 0.000000 0.000000 0.025321
#
#
# Mechanical properties :
#
#
# Convention : Reuss Voigt Hill
#
# Bulk Modulus (GPa) = 74.98381 76.53919 75.76150
# Shear Modulus (GPa) = -368.27871 17.93431 -175.17220
#
# Velocity S-wave (km/s) = -12.57626 2.77527 -8.67353
# Velocity P-wave (km/s) = 13.36713 6.56813 8.23225
#
# Compressibility (1/GPa) = 0.01333621
#
# Stress axis : x y z
#
# Youngs Moduli (GPa) = 103.67659 103.67659 157.88499
#
# Poissons Ratio (x) = 0.31261 0.24700
# Poissons Ratio (y) = 0.31261 0.24700
# Poissons Ratio (z) = 0.16220 0.16220
#
# Static dielectric constant tensor:
#      x y z
#    x 1.881710 0.000000 0.000000 
#    y 0.000000 1.881710 0.000000 
#    z 0.000000 0.000000 1.932030 
# 
# From -- ./inp_files/6932.got.cif
#   From: 2010.05.17/outbox.cif.g08.bks.cpg/sg192_4_cif.got.tgz:6932.got - 2010.05.20 12:28:01.
