data_PCOD9588772
_publ_section_title
;
Structure prediction by ZEFSAII (Michael W. Deem and Ramdas Pophale) SiO2 
 PCOD9588772
Probable space group: P 6/M C C
;
_chemical_formula_sum "Si O2"
_cell_formula_units_Z 72
_cell_length_a 17.281245
_cell_length_b 17.281245
_cell_length_c 14.694010
_cell_angle_alpha 90.000000
_cell_angle_beta 90.000000
_cell_angle_gamma 120.000000
_cell_volume 3800.327440
_symmetry_space_group_name_H-M "P 6/M C C"
_symmetry_group_IT_number 192
_symmetry_cell_setting 'hexagonal'
loop_
_space_group_symop_operation_xyz
x,y,z
x-y,x,z
-y,x-y,z
-x,-y,z
-x+y,-x,z
y,-x+y,z
x-y,-y,1/2-z
-x,-x+y,1/2-z
y,x,1/2-z
-y,-x,1/2-z
-x+y,y,1/2-z
x,x-y,1/2-z
-x,-y,-z
-x+y,-x,-z
y,-x+y,-z
x,y,-z
x-y,x,-z
-y,x-y,-z
-x+y,y,1/2+z
x,x-y,1/2+z
-y,-x,1/2+z
y,x,1/2+z
x-y,-y,1/2+z
-x,-x+y,1/2+z
loop_
_atom_site_type_symbol
_atom_site_label
_atom_site_fract_x
_atom_site_fract_y
_atom_site_fract_z
Si Si1 0.856529 0.067947 0.000000
Si Si2 0.639474 0.223321 0.000000
Si Si3 0.410838 0.914244 0.842551
Si Si4 0.230108 0.312777 0.311163
O O1 0.814859 0.085602 0.908395
O O2 0.963611 0.133938 0.000000
O O3 0.736869 0.310070 0.000000
O O4 0.623998 0.165933 0.911713
O O5 0.446826 0.893652 0.750000
O O6 0.328825 0.931427 0.826346
O O7 0.500000 0.000000 0.880525
O O8 0.241666 0.241666 0.250000
O O9 0.170141 0.340282 0.250000
#
# Coordination Sequence:
#
# PCOD9588772 Si02
#       4
#    12  12  24  24
#     4  12  26  45  69 101 138 178 228 283 346 409
#     4  10  26  41  62  99 128 172 227 276 333 396
#     4  11  24  45  68  95 136 177 225 278 341 404
#     4  12  25  45  72 103 135 178 231 284 338 411
#
# _framework density 18.945734999999999
#
# number of rings (size 3 to 8) (size 9 to 14) (size 15 to 20)
#    0.333    0.333    6.667    1.667    4.667    0.000 
#    6.000    0.000    0.000    0.000    0.000    0.000 
#    0.000    0.000    0.000    0.000    0.000    0.000 
#
# Total GULP energy -401987.728490 kJ/mol
# GULP energy per Si atom -5583.162896 kJ/mol
# Density = 1.890261 g / cm^3
# Si number density = 18.945735 Si / 1000 Ang^3
#
#
#
# Elastic Constant Matrix: (Units=GPa)
#
#
# Indices 1 2 3 4 5 6 
#
# 1 112.3687 34.1501 43.5926 0.0000 0.0000 0.0000
# 2 34.1501 112.3687 43.5926 0.0000 0.0000 0.0000
# 3 43.5926 43.5926 125.9301 0.0000 0.0000 0.0000
# 4 0.0000 0.0000 0.0000 35.9339 0.0000 0.0000
# 5 0.0000 0.0000 0.0000 0.0000 35.9339 0.0000
# 6 0.0000 0.0000 0.0000 0.0000 0.0000 39.1093
#
#
#
# Elastic Compliance Matrix: (Units=1/GPa)
#
#
# Indices 1 2 3 4 5 6 
#
# 1 0.010690 -0.002095 -0.002976 0.000000 0.000000 0.000000
# 2 -0.002095 0.010690 -0.002976 0.000000 0.000000 0.000000
# 3 -0.002976 -0.002976 0.010001 0.000000 0.000000 0.000000
# 4 0.000000 0.000000 0.000000 0.027829 0.000000 0.000000
# 5 0.000000 0.000000 0.000000 0.000000 0.027829 0.000000
# 6 0.000000 0.000000 0.000000 0.000000 0.000000 0.025569
#
#
# Mechanical properties :
#
#
# Convention : Reuss Voigt Hill
#
# Bulk Modulus (GPa) = 65.40150 65.92646 65.66398
# Shear Modulus (GPa) = 37.37030 37.48425 37.42727
#
# Velocity S-wave (km/s) = 4.44609 4.45287 4.44948
# Velocity P-wave (km/s) = 7.80720 7.83010 7.81866
#
# Compressibility (1/GPa) = 0.01529017
#
# Stress axis : x y z
#
# Youngs Moduli (GPa) = 93.54408 93.54408 99.99056
#
# Poissons Ratio (x) = 0.19593 0.29752
# Poissons Ratio (y) = 0.19593 0.29752
# Poissons Ratio (z) = 0.27834 0.27834
#
# Static dielectric constant tensor:
#      x y z
#    x 1.652120 0.000000 0.000000 
#    y 0.000000 1.652120 0.000000 
#    z 0.000000 0.000000 1.639880 
# 
# From -- ./inp_files/3823.got.cif
#   From: 2010.05.17/outbox.cif.g08.bks.cpg/sg192_2_cif.got.tgz:3823.got - 2010.05.20 12:28:01.
