data_PCOD9588523
_publ_section_title
;
Structure prediction by ZEFSAII (Michael W. Deem and Ramdas Pophale) SiO2 
 PCOD9588523
Probable space group: P 6/M C C
;
_chemical_formula_sum "Si O2"
_cell_formula_units_Z 192
_cell_length_a 30.609726
_cell_length_b 30.609726
_cell_length_c 15.786048
_cell_angle_alpha 90.000000
_cell_angle_beta 90.000000
_cell_angle_gamma 120.000000
_cell_volume 12809.227376
_symmetry_space_group_name_H-M "P 6/M C C"
_symmetry_group_IT_number 192
_symmetry_cell_setting 'hexagonal'
loop_
_space_group_symop_operation_xyz
x,y,z
x-y,x,z
-y,x-y,z
-x,-y,z
-x+y,-x,z
y,-x+y,z
x-y,-y,1/2-z
-x,-x+y,1/2-z
y,x,1/2-z
-y,-x,1/2-z
-x+y,y,1/2-z
x,x-y,1/2-z
-x,-y,-z
-x+y,-x,-z
y,-x+y,-z
x,y,-z
x-y,x,-z
-y,x-y,-z
-x+y,y,1/2+z
x,x-y,1/2+z
-y,-x,1/2+z
y,x,1/2+z
x-y,-y,1/2+z
-x,-x+y,1/2+z
loop_
_atom_site_type_symbol
_atom_site_label
_atom_site_fract_x
_atom_site_fract_y
_atom_site_fract_z
Si Si1 0.099201 0.302984 0.904300
Si Si2 0.797611 0.797611 0.350354
Si Si3 0.240329 0.374326 0.250000
Si Si4 0.808235 0.510449 0.250000
Si Si5 0.770668 0.437156 0.401968
Si Si6 0.562844 0.333512 0.901968
Si Si7 0.899086 0.000000 0.897296
Si Si8 0.099201 0.302984 0.404300
O O1 0.105208 0.343032 0.833264
O O2 0.147919 0.295837 0.895820
O O3 0.049551 0.249630 0.888642
O O4 0.099113 0.320480 0.000000
O O5 0.790218 0.790218 0.250000
O O6 0.849238 0.849237 0.367597
O O7 0.750370 0.799921 0.388642
O O8 0.187853 0.375706 0.250000
O O9 0.284741 0.431959 0.250000
O O10 0.237825 0.343032 0.166735
O O11 0.756222 0.512444 0.250000
O O12 0.805037 0.479135 0.333793
O O13 0.805037 0.479135 0.166207
O O14 0.785478 0.452581 0.500000
O O15 0.770345 0.385172 0.387076
O O16 0.714012 0.428023 0.391993
O O17 0.547419 0.332897 0.000000
O O18 0.949622 0.050379 0.869396
O O19 0.898835 0.000000 0.000000
O O20 0.099112 0.320479 0.500000
#
# Coordination Sequence:
#
# PCOD9588523 Si02
#       8
#    24  24  24  24  24  24  24  24
#     4  10  20  34  51  69  91 118 147 182 224 269
#     4  12  22  33  51  72  95 118 145 187 228 267
#     4   9  18  32  46  64  87 113 151 191 228 274
#     4   9  17  27  40  58  83 115 154 198 236 272
#     4   9  16  25  38  58  86 122 163 202 235 264
#     4   9  16  25  38  58  86 122 163 202 235 264
#     4  10  21  36  52  70  94 125 159 192 226 265
#     4  10  20  34  51  69  91 118 147 182 224 269
#
# _framework density 14.989195
#
# number of rings (size 3 to 8) (size 9 to 14) (size 15 to 20)
#    0.000    2.250    1.250    2.625    0.000    6.000 
#    0.000    6.250    0.000    0.750    0.000    0.000 
#    0.000    0.000    0.000    9.000    0.000   34.000 
#
# Total GULP energy -1070675.441799 kJ/mol
# GULP energy per Si atom -5576.434593 kJ/mol
# Density = 1.495508 g / cm^3
# Si number density = 14.989195 Si / 1000 Ang^3
#
#
#
# Elastic Constant Matrix: (Units=GPa)
#
#
# Indices 1 2 3 4 5 6 
#
# 1 72.0703 54.4223 59.7289 0.0000 0.0000 0.0000
# 2 54.4223 72.0703 59.7289 0.0000 0.0000 0.0000
# 3 59.7289 59.7289 124.4712 0.0000 0.0000 0.0000
# 4 0.0000 0.0000 0.0000 14.8101 0.0000 0.0000
# 5 0.0000 0.0000 0.0000 0.0000 14.8101 0.0000
# 6 0.0000 0.0000 0.0000 0.0000 0.0000 8.8240
#
#
#
# Elastic Compliance Matrix: (Units=1/GPa)
#
#
# Indices 1 2 3 4 5 6 
#
# 1 0.035560 -0.021103 -0.006937 0.000000 0.000000 0.000000
# 2 -0.021103 0.035560 -0.006937 0.000000 0.000000 0.000000
# 3 -0.006937 -0.006937 0.014692 0.000000 0.000000 0.000000
# 4 0.000000 0.000000 0.000000 0.067522 0.000000 0.000000
# 5 0.000000 0.000000 0.000000 0.000000 0.067522 0.000000
# 6 0.000000 0.000000 0.000000 0.000000 0.000000 0.113327
#
#
# Mechanical properties :
#
#
# Convention : Reuss Voigt Hill
#
# Bulk Modulus (GPa) = 63.06510 68.48582 65.77546
# Shear Modulus (GPa) = 12.21225 14.00428 13.10826
#
# Velocity S-wave (km/s) = 2.85746 3.05993 2.96043
# Velocity P-wave (km/s) = 7.28367 7.63371 7.46074
#
# Compressibility (1/GPa) = 0.01585663
#
# Stress axis : x y z
#
# Youngs Moduli (GPa) = 28.12113 28.12113 68.06403
#
# Poissons Ratio (x) = 0.59345 0.47219
# Poissons Ratio (y) = 0.59345 0.47219
# Poissons Ratio (z) = 0.19509 0.19509
#
# Static dielectric constant tensor:
#      x y z
#    x 1.469200 0.000000 0.000000 
#    y 0.000000 1.469200 0.000000 
#    z 0.000000 0.000000 1.527860 
# 
# From -- ./inp_files/3558.got.cif
#   From: 2010.05.17/outbox.cif.g08.bks.cpg/sg192_2_cif.got.tgz:3558.got - 2010.05.20 12:28:01.
