data_PCOD9588823
_publ_section_title
;
Structure prediction by ZEFSAII (Michael W. Deem and Ramdas Pophale) SiO2 
 PCOD9588823
Probable space group: P 6/M C C
;
_chemical_formula_sum "Si O2"
_cell_formula_units_Z 80
_cell_length_a 18.333774
_cell_length_b 18.333774
_cell_length_c 14.749599
_cell_angle_alpha 90.000000
_cell_angle_beta 90.000000
_cell_angle_gamma 120.000000
_cell_volume 4293.530891
_symmetry_space_group_name_H-M "P 6/M C C"
_symmetry_group_IT_number 192
_symmetry_cell_setting 'hexagonal'
loop_
_space_group_symop_operation_xyz
x,y,z
x-y,x,z
-y,x-y,z
-x,-y,z
-x+y,-x,z
y,-x+y,z
x-y,-y,1/2-z
-x,-x+y,1/2-z
y,x,1/2-z
-y,-x,1/2-z
-x+y,y,1/2-z
x,x-y,1/2-z
-x,-y,-z
-x+y,-x,-z
y,-x+y,-z
x,y,-z
x-y,x,-z
-y,x-y,-z
-x+y,y,1/2+z
x,x-y,1/2+z
-y,-x,1/2+z
y,x,1/2+z
x-y,-y,1/2+z
-x,-x+y,1/2+z
loop_
_atom_site_type_symbol
_atom_site_label
_atom_site_fract_x
_atom_site_fract_y
_atom_site_fract_z
Si Si1 0.630237 0.872233 0.000000
Si Si2 0.837556 0.495644 0.344359
Si Si3 0.710121 0.649441 0.500000
Si Si4 0.666667 0.333334 0.607729
Si Si5 0.385844 0.924992 0.174444
O O1 0.570219 0.858472 0.913623
O O2 0.658224 0.801979 0.000000
O O3 0.703482 0.969658 0.000000
O O4 0.745585 0.419253 0.361115
O O5 0.899256 0.454809 0.358219
O O6 0.848871 0.523933 0.240186
O O7 0.659676 0.596276 0.411149
O O8 0.666667 0.333334 0.500000
O O9 0.418000 0.000000 0.250000
#
# Coordination Sequence:
#
# PCOD9588823 Si02
#       5
#    12  24  12   8  24
#     4  12  25  43  69  92 133 167 221 280 334 425
#     4  11  23  40  60  92 132 183 226 274 325 374
#     4  12  27  45  67  98 123 175 222 281 355 408
#     4  12  24  37  59  95 137 187 237 286 323 380
#     4  11  24  42  64  94 131 179 231 279 329 393
#
# _framework density 18.632683
#
# number of rings (size 3 to 8) (size 9 to 14) (size 15 to 20)
#    0.000    0.600    4.500    4.500    0.000   12.000 
#    0.000    0.000    0.000    0.300    0.000    0.000 
#    0.000    0.000    1.800    0.000    0.000    0.000 
#
# Total GULP energy -446890.290221 kJ/mol
# GULP energy per Si atom -5586.128628 kJ/mol
# Density = 1.859027 g / cm^3
# Si number density = 18.632683 Si / 1000 Ang^3
#
#
#
# Elastic Constant Matrix: (Units=GPa)
#
#
# Indices 1 2 3 4 5 6 
#
# 1 125.6431 69.8432 52.8481 0.0000 0.0000 0.0000
# 2 69.8432 125.6436 52.8482 0.0000 0.0000 0.0003
# 3 52.8481 52.8482 125.8478 0.0000 0.0000 0.0001
# 4 0.0000 0.0000 0.0000 25.7913 0.0000 0.0000
# 5 0.0000 0.0000 0.0000 0.0000 25.7912 0.0000
# 6 0.0000 0.0003 0.0001 0.0000 0.0000 27.9003
#
#
#
# Elastic Compliance Matrix: (Units=1/GPa)
#
#
# Indices 1 2 3 4 5 6 
#
# 1 0.012270 -0.005652 -0.002779 0.000000 0.000000 0.000000
# 2 -0.005652 0.012270 -0.002779 0.000000 0.000000 0.000000
# 3 -0.002779 -0.002779 0.010280 0.000000 0.000000 0.000000
# 4 0.000000 0.000000 0.000000 0.038773 0.000000 0.000000
# 5 0.000000 0.000000 0.000000 0.000000 0.038773 0.000000
# 6 0.000000 0.000000 0.000000 0.000000 0.000000 0.035842
#
#
# Mechanical properties :
#
#
# Convention : Reuss Voigt Hill
#
# Bulk Modulus (GPa) = 80.64693 80.91263 80.77978
# Shear Modulus (GPa) = 28.61068 29.33624 28.97346
#
# Velocity S-wave (km/s) = 3.92281 3.97224 3.94760
# Velocity P-wave (km/s) = 7.99340 8.03478 8.01411
#
# Compressibility (1/GPa) = 0.01239973
#
# Stress axis : x y z
#
# Youngs Moduli (GPa) = 81.50206 81.50239 97.27365
#
# Poissons Ratio (x) = 0.46061 0.27034
# Poissons Ratio (y) = 0.46061 0.27034
# Poissons Ratio (z) = 0.22651 0.22651
#
# Static dielectric constant tensor:
#      x y z
#    x 1.720960 0.000000 0.000000 
#    y 0.000000 1.720960 0.000000 
#    z 0.000000 0.000000 1.667780 
# 
# From -- ./inp_files/3967.got.cif
#   From: 2010.05.17/outbox.cif.g08.bks.cpg/sg192_2_cif.got.tgz:3967.got - 2010.05.20 12:28:01.
