data_PCOD9588670
_publ_section_title
;
Structure prediction by ZEFSAII (Michael W. Deem and Ramdas Pophale) SiO2 
 PCOD9588670
Probable space group: P 6/M C C
;
_chemical_formula_sum "Si O2"
_cell_formula_units_Z 120
_cell_length_a 14.978331
_cell_length_b 14.978331
_cell_length_c 28.011446
_cell_angle_alpha 90.000000
_cell_angle_beta 90.000000
_cell_angle_gamma 120.000000
_cell_volume 5442.431949
_symmetry_space_group_name_H-M "P 6/M C C"
_symmetry_group_IT_number 192
_symmetry_cell_setting 'hexagonal'
loop_
_space_group_symop_operation_xyz
x,y,z
x-y,x,z
-y,x-y,z
-x,-y,z
-x+y,-x,z
y,-x+y,z
x-y,-y,1/2-z
-x,-x+y,1/2-z
y,x,1/2-z
-y,-x,1/2-z
-x+y,y,1/2-z
x,x-y,1/2-z
-x,-y,-z
-x+y,-x,-z
y,-x+y,-z
x,y,-z
x-y,x,-z
-y,x-y,-z
-x+y,y,1/2+z
x,x-y,1/2+z
-y,-x,1/2+z
y,x,1/2+z
x-y,-y,1/2+z
-x,-x+y,1/2+z
loop_
_atom_site_type_symbol
_atom_site_label
_atom_site_fract_x
_atom_site_fract_y
_atom_site_fract_z
Si Si1 0.542209 0.122927 0.197611
Si Si2 0.810838 0.564695 0.443798
Si Si3 0.466029 0.877956 0.594757
Si Si4 0.057547 0.231740 0.612974
Si Si5 0.912949 0.245422 0.213333
O O1 0.583528 0.167056 0.250000
O O2 0.610137 0.156980 0.150330
O O3 0.444725 0.138170 0.190247
O O4 0.500000 0.000000 0.199246
O O5 0.824762 0.583255 0.500000
O O6 0.819467 0.464656 0.430298
O O7 0.697539 0.543243 0.428616
O O8 0.900447 0.661741 0.415493
O O9 0.500000 0.000000 0.592929
O O10 0.141301 0.197698 0.601821
O O11 0.053991 0.255081 0.669356
O O12 0.841106 0.158895 0.250000
O O13 0.000000 0.322845 0.250000
#
# Coordination Sequence:
#
# PCOD9588670 Si02
#       5
#    24  24  24  24  24
#     4  10  21  37  65 100 141 180 218 271 349 432
#     4  12  27  47  74 105 139 184 243 303 371 439
#     4  11  25  45  72 104 142 181 227 289 360 435
#     4  12  27  46  69 103 143 193 251 309 366 429
#     4  12  23  39  67 104 139 189 239 289 355 439
#
# _framework density 22.048967000000001
#
# number of rings (size 3 to 8) (size 9 to 14) (size 15 to 20)
#    0.000    0.600    6.000    2.400    5.600    4.000 
#    0.000    0.000    0.000    1.600    0.000    0.000 
#    0.000    0.000    0.000    0.000    0.000    0.000 
#
# Total GULP energy -670817.008872 kJ/mol
# GULP energy per Si atom -5590.141741 kJ/mol
# Density = 2.199878 g / cm^3
# Si number density = 22.048967 Si / 1000 Ang^3
#
#
#
# Elastic Constant Matrix: (Units=GPa)
#
#
# Indices 1 2 3 4 5 6 
#
# 1 58.1353 0.5558 22.1769 0.0000 0.0000 0.0000
# 2 0.5558 58.1353 22.1769 0.0000 0.0000 0.0000
# 3 22.1769 22.1769 145.5989 0.0000 0.0000 0.0000
# 4 0.0000 0.0000 0.0000 17.4379 0.0000 0.0000
# 5 0.0000 0.0000 0.0000 0.0000 17.4379 0.0000
# 6 0.0000 0.0000 0.0000 0.0000 0.0000 28.7898
#
#
#
# Elastic Compliance Matrix: (Units=1/GPa)
#
#
# Indices 1 2 3 4 5 6 
#
# 1 0.018311 0.000944 -0.002933 0.000000 0.000000 0.000000
# 2 0.000944 0.018311 -0.002933 0.000000 0.000000 0.000000
# 3 -0.002933 -0.002933 0.007762 0.000000 0.000000 0.000000
# 4 0.000000 0.000000 0.000000 0.057346 0.000000 0.000000
# 5 0.000000 0.000000 0.000000 0.000000 0.057346 0.000000
# 6 0.000000 0.000000 0.000000 0.000000 0.000000 0.034735
#
#
# Mechanical properties :
#
#
# Convention : Reuss Voigt Hill
#
# Bulk Modulus (GPa) = 28.95204 39.07654 34.01429
# Shear Modulus (GPa) = 23.23767 27.19711 25.21739
#
# Velocity S-wave (km/s) = 3.24992 3.51591 3.38553
# Velocity P-wave (km/s) = 5.21938 5.85178 5.54460
#
# Compressibility (1/GPa) = 0.03453988
#
# Stress axis : x y z
#
# Youngs Moduli (GPa) = 54.61200 54.61200 128.83944
#
# Poissons Ratio (x) = -0.05154 0.37786
# Poissons Ratio (y) = -0.05154 0.37786
# Poissons Ratio (z) = 0.16017 0.16017
#
# Static dielectric constant tensor:
#      x y z
#    x 1.734090 0.000000 0.000000 
#    y 0.000000 1.734090 0.000000 
#    z 0.000000 0.000000 1.790290 
# 
# From -- ./inp_files/6946.got.cif
#   From: 2010.05.17/outbox.cif.g08.bks.cpg/sg192_4_cif.got.tgz:6946.got - 2010.05.20 12:28:01.
