data_PCOD9588997
_publ_section_title
;
Structure prediction by ZEFSAII (Michael W. Deem and Ramdas Pophale) SiO2 
 PCOD9588997
Probable space group: P 63/M C M
;
_chemical_formula_sum "Si O2"
_cell_formula_units_Z 92
_cell_length_a 14.027409
_cell_length_b 14.027409
_cell_length_c 29.048359
_cell_angle_alpha 90.000000
_cell_angle_beta 90.000000
_cell_angle_gamma 120.000000
_cell_volume 4950.022294
_symmetry_space_group_name_H-M "P 63/M C M"
_symmetry_group_IT_number 193
_symmetry_cell_setting 'hexagonal'
loop_
_space_group_symop_operation_xyz
x,y,z
x-y,x,1/2+z
-y,x-y,z
-x,-y,1/2+z
-x+y,-x,z
y,-x+y,1/2+z
x-y,-y,1/2-z
-x,-x+y,1/2-z
y,x,1/2-z
-y,-x,-z
-x+y,y,-z
x,x-y,-z
-x,-y,-z
-x+y,-x,1/2-z
y,-x+y,-z
x,y,1/2-z
x-y,x,-z
-y,x-y,1/2-z
-x+y,y,1/2+z
x,x-y,1/2+z
-y,-x,1/2+z
y,x,z
x-y,-y,z
-x,-x+y,z
loop_
_atom_site_type_symbol
_atom_site_label
_atom_site_fract_x
_atom_site_fract_y
_atom_site_fract_z
Si Si1 0.777190 0.126810 0.407570
Si Si2 0.127509 0.872492 0.500000
Si Si3 0.666668 0.333334 0.804828
Si Si4 0.133945 0.666391 0.857255
Si Si5 0.874461 0.439106 0.050856
O O1 0.854752 0.173750 0.452489
O O2 0.830883 0.205913 0.363868
O O3 0.666660 0.120835 0.426975
O O4 0.741704 0.000000 0.397412
O O5 0.000000 0.817427 0.491784
O O6 0.666667 0.333334 0.750000
O O7 0.652176 0.216589 0.823098
O O8 0.170297 0.645702 0.907717
O O9 0.000000 0.587006 0.850742
O O10 0.000000 0.466639 0.044044
O O11 0.823155 0.411578 0.000000
#
# Coordination Sequence:
#
# PCOD9588997 Si02
#       5
#    24  12   8  24  24
#     4  10  19  32  52  81 118 159 202 246 290 342
#     4  10  19  30  46  74 116 166 211 248 284 336
#     4  12  27  45  64  89 115 147 198 258 313 371
#     4  11  22  40  62  87 119 157 197 245 306 365
#     4   9  17  29  49  80 118 156 196 237 282 340
#
# _framework density 18.585774000000001
#
# number of rings (size 3 to 8) (size 9 to 14) (size 15 to 20)
#    0.000    1.826    2.609    2.478    0.000    4.696 
#    0.000    0.000    0.000    0.522    0.000    0.000 
#    0.000    0.000    0.000    0.000    0.000    0.000 
#
# Total GULP energy -512196.619200 kJ/mol
# GULP energy per Si atom -5567.354557 kJ/mol
# Density = 1.854347 g / cm^3
# Si number density = 18.585774 Si / 1000 Ang^3
#
#
#
# Elastic Constant Matrix: (Units=GPa)
#
#
# Indices 1 2 3 4 5 6 
#
# 1 88.4038 35.7682 41.5282 0.0001 0.0000 0.0000
# 2 35.7682 88.4039 41.5282 0.0001 0.0000 0.0001
# 3 41.5282 41.5282 106.0068 0.0001 0.0000 0.0001
# 4 0.0001 0.0001 0.0001 18.3740 0.0001 0.0000
# 5 0.0000 0.0000 0.0000 0.0001 18.3739 0.0000
# 6 0.0000 0.0001 0.0001 0.0000 0.0000 26.3179
#
#
#
# Elastic Compliance Matrix: (Units=1/GPa)
#
#
# Indices 1 2 3 4 5 6 
#
# 1 0.014956 -0.004043 -0.004275 0.000000 0.000000 0.000000
# 2 -0.004043 0.014956 -0.004275 0.000000 0.000000 0.000000
# 3 -0.004275 -0.004275 0.012783 0.000000 0.000000 0.000000
# 4 0.000000 0.000000 0.000000 0.054425 0.000000 0.000000
# 5 0.000000 0.000000 0.000000 0.000000 0.054425 0.000000
# 6 0.000000 0.000000 0.000000 0.000000 0.000000 0.037997
#
#
# Mechanical properties :
#
#
# Convention : Reuss Voigt Hill
#
# Bulk Modulus (GPa) = 57.11610 57.82929 57.47269
# Shear Modulus (GPa) = 22.66923 23.54582 23.10752
#
# Velocity S-wave (km/s) = 3.49622 3.56318 3.52986
# Velocity P-wave (km/s) = 6.86264 6.93619 6.89951
#
# Compressibility (1/GPa) = 0.01750820
#
# Stress axis : x y z
#
# Youngs Moduli (GPa) = 66.86406 66.86414 78.22934
#
# Poissons Ratio (x) = 0.27032 0.33444
# Poissons Ratio (y) = 0.27032 0.33444
# Poissons Ratio (z) = 0.28585 0.28585
#
# Static dielectric constant tensor:
#      x y z
#    x 1.808550 0.000000 0.000000 
#    y 0.000000 1.808550 0.000000 
#    z 0.000000 0.000000 1.600470 
# 
# From -- ./inp_files/8135.got.cif
#   From: 2010.05.17/outbox.cif.g08.bks.cpg/sg193_5_cif.got.tgz:8135.got - 2010.05.20 12:33:02.
