data_PCOD9588375
_publ_section_title
;
Structure prediction by ZEFSAII (Michael W. Deem and Ramdas Pophale) SiO2 
 PCOD9588375
Probable space group: P 6/M C C
;
_chemical_formula_sum "Si O2"
_cell_formula_units_Z 192
_cell_length_a 22.885694
_cell_length_b 22.885694
_cell_length_c 22.556572
_cell_angle_alpha 90.000000
_cell_angle_beta 90.000000
_cell_angle_gamma 120.000000
_cell_volume 10231.325566
_symmetry_space_group_name_H-M "P 6/M C C"
_symmetry_group_IT_number 192
_symmetry_cell_setting 'hexagonal'
loop_
_space_group_symop_operation_xyz
x,y,z
x-y,x,z
-y,x-y,z
-x,-y,z
-x+y,-x,z
y,-x+y,z
x-y,-y,1/2-z
-x,-x+y,1/2-z
y,x,1/2-z
-y,-x,1/2-z
-x+y,y,1/2-z
x,x-y,1/2-z
-x,-y,-z
-x+y,-x,-z
y,-x+y,-z
x,y,-z
x-y,x,-z
-y,x-y,-z
-x+y,y,1/2+z
x,x-y,1/2+z
-y,-x,1/2+z
y,x,1/2+z
x-y,-y,1/2+z
-x,-x+y,1/2+z
loop_
_atom_site_type_symbol
_atom_site_label
_atom_site_fract_x
_atom_site_fract_y
_atom_site_fract_z
Si Si1 0.330687 0.411999 0.751352
Si Si2 0.473424 0.390742 0.128152
Si Si3 0.147783 0.109875 0.929119
Si Si4 0.527406 0.608118 0.626855
Si Si5 0.380382 0.122926 0.066257
Si Si6 0.917038 0.211376 0.814750
Si Si7 0.385531 0.122571 0.566078
Si Si8 0.199429 0.265967 0.347736
O O1 0.371824 0.371824 0.750000
O O2 0.351627 0.455405 0.691447
O O3 0.357400 0.459680 0.808585
O O4 0.254429 0.353203 0.766586
O O5 0.428262 0.427270 0.123886
O O6 0.549912 0.450359 0.122186
O O7 0.450261 0.334864 0.077617
O O8 0.092395 0.128185 0.908353
O O9 0.218925 0.162724 0.903910
O O10 0.148151 0.109915 0.000000
O O11 0.557565 0.668552 0.579719
O O12 0.327838 0.088464 0.120030
O O13 0.399629 0.200888 0.069150
O O14 0.352769 0.098037 0.000000
O O15 0.860832 0.132391 0.815711
O O16 0.995533 0.231485 0.813352
O O17 0.357544 0.096637 0.500000
O O18 0.335984 0.083618 0.621208
#
# Coordination Sequence:
#
# PCOD9588375 Si02
#       8
#    24  24  24  24  24  24  24  24
#     4   9  17  34  53  76 104 132 165 209 259 316
#     4  10  19  33  55  81 109 136 168 213 267 313
#     4  10  19  30  45  68  98 136 186 242 293 336
#     4   9  18  32  54  82 107 137 172 212 261 317
#     4   9  19  35  52  73 108 147 181 215 257 312
#     4  10  21  33  51  74 102 140 187 230 278 331
#     4  10  21  34  49  74 108 145 180 216 258 317
#     4  11  19  33  48  70 102 141 183 228 279 334
#
# _framework density 18.765896000000001
#
# number of rings (size 3 to 8) (size 9 to 14) (size 15 to 20)
#    0.000    2.250    1.250    3.125    0.000    5.500 
#    0.000   12.500    0.000    0.500    0.000    0.000 
#    0.000    0.000    0.000    9.000    0.000    0.125 
#
# Total GULP energy -1071290.173356 kJ/mol
# GULP energy per Si atom -5579.636320 kJ/mol
# Density = 1.872318 g / cm^3
# Si number density = 18.765896 Si / 1000 Ang^3
#
#
#
# Elastic Constant Matrix: (Units=GPa)
#
#
# Indices 1 2 3 4 5 6 
#
# 1 78.9534 44.4060 20.9323 0.0000 0.0000 0.0000
# 2 44.4060 78.9534 20.9323 0.0000 0.0000 0.0000
# 3 20.9323 20.9323 80.5421 0.0000 0.0000 0.0000
# 4 0.0000 0.0000 0.0000 21.0798 0.0000 0.0000
# 5 0.0000 0.0000 0.0000 0.0000 21.0798 0.0000
# 6 0.0000 0.0000 0.0000 0.0000 0.0000 17.2737
#
#
#
# Elastic Compliance Matrix: (Units=1/GPa)
#
#
# Indices 1 2 3 4 5 6 
#
# 1 0.018918 -0.010028 -0.002311 0.000000 0.000000 0.000000
# 2 -0.010028 0.018918 -0.002311 0.000000 0.000000 0.000000
# 3 -0.002311 -0.002311 0.013617 0.000000 0.000000 0.000000
# 4 0.000000 0.000000 0.000000 0.047439 0.000000 0.000000
# 5 0.000000 0.000000 0.000000 0.000000 0.047439 0.000000
# 6 0.000000 0.000000 0.000000 0.000000 0.000000 0.057891
#
#
# Mechanical properties :
#
#
# Convention : Reuss Voigt Hill
#
# Bulk Modulus (GPa) = 45.13529 45.66557 45.40043
# Shear Modulus (GPa) = 20.75506 22.03187 21.39346
#
# Velocity S-wave (km/s) = 3.32926 3.43014 3.38008
# Velocity P-wave (km/s) = 6.23559 6.33048 6.28322
#
# Compressibility (1/GPa) = 0.02215561
#
# Stress axis : x y z
#
# Youngs Moduli (GPa) = 52.85932 52.85932 73.43826
#
# Poissons Ratio (x) = 0.53005 0.16969
# Poissons Ratio (y) = 0.53005 0.16969
# Poissons Ratio (z) = 0.12214 0.12214
#
# Static dielectric constant tensor:
#      x y z
#    x 1.649980 0.000000 0.000000 
#    y 0.000000 1.649980 0.000000 
#    z 0.000000 0.000000 1.695920 
# 
# From -- ./inp_files/5447.got.cif
#   From: 2010.05.17/outbox.cif.g08.bks.cpg/sg192_3_cif.got.tgz:5447.got - 2010.05.20 12:28:01.
