data_PCOD9588240
_publ_section_title
;
Structure prediction by ZEFSAII (Michael W. Deem and Ramdas Pophale) SiO2 
 PCOD9588240
Probable space group: P 6/M M M
;
_chemical_formula_sum "Si O2"
_cell_formula_units_Z 96
_cell_length_a 29.670771
_cell_length_b 29.670771
_cell_length_c 7.456844
_cell_angle_alpha 90.000000
_cell_angle_beta 90.000000
_cell_angle_gamma 120.000000
_cell_volume 5685.168651
_symmetry_space_group_name_H-M "P 6/M M M"
_symmetry_group_IT_number 191
_symmetry_cell_setting 'hexagonal'
loop_
_space_group_symop_operation_xyz
x,y,z
x-y,x,z
-y,x-y,z
-x,-y,z
-x+y,-x,z
y,-x+y,z
x-y,-y,-z
-x,-x+y,-z
y,x,-z
-y,-x,-z
-x+y,y,-z
x,x-y,-z
-x,-y,-z
-x+y,-x,-z
y,-x+y,-z
x,y,-z
x-y,x,-z
-y,x-y,-z
-x+y,y,z
x,x-y,z
-y,-x,z
y,x,z
x-y,-y,z
-x,-x+y,z
loop_
_atom_site_type_symbol
_atom_site_label
_atom_site_fract_x
_atom_site_fract_y
_atom_site_fract_z
Si Si1 0.939644 0.518258 0.784723
Si Si2 0.895787 0.688144 0.719288
Si Si3 0.896506 0.896506 0.719160
Si Si4 0.206942 0.206942 0.718496
Si Si5 0.059665 0.382441 0.712475
O O1 0.917386 0.458693 0.723229
O O2 0.917659 0.556077 0.736943
O O3 0.000000 0.549529 0.722427
O O4 0.940396 0.517398 0.000000
O O5 0.894369 0.688153 0.500000
O O6 0.842540 0.685080 0.779909
O O7 0.947276 0.741572 0.773836
O O8 0.905761 0.641732 0.779055
O O9 0.948268 0.896536 0.776581
O O10 0.896424 0.896424 0.500000
O O11 0.844762 0.844762 0.776529
O O12 0.207510 0.207510 0.500000
O O13 0.054880 0.373224 0.500000
O O14 0.000000 0.351044 0.785470
#
# Coordination Sequence:
#
# PCOD9588240 Si02
#       5
#    24  24  12  12  24
#     4   8  14  24  37  53  73  97 122 144 169 205
#     4   9  15  22  32  46  66  92 122 159 201 238
#     4   9  15  20  25  34  50  74 106 147 196 247
#     4   9  14  21  30  41  56  80 117 158 196 237
#     4   9  15  23  35  52  73  95 123 157 189 220
#
# _framework density 16.886043000000001
#
# number of rings (size 3 to 8) (size 9 to 14) (size 15 to 20)
#    0.000    3.250    1.250    1.625    0.000    4.000 
#    0.000    2.500    0.000    0.750    0.000    0.000 
#    0.000    0.000    0.000    0.750    0.000   11.500 
#
# Total GULP energy -534668.952705 kJ/mol
# GULP energy per Si atom -5569.468257 kJ/mol
# Density = 1.684761 g / cm^3
# Si number density = 16.886043 Si / 1000 Ang^3
#
#
#
# Elastic Constant Matrix: (Units=GPa)
#
#
# Indices 1 2 3 4 5 6 
#
# 1 134.4425 100.1157 3.1597 0.0000 0.0000 0.0000
# 2 100.1157 134.4425 3.1597 0.0000 0.0000 0.0000
# 3 3.1597 3.1597 47.0018 0.0000 0.0000 0.0000
# 4 0.0000 0.0000 0.0000 384.6909 0.0000 0.0000
# 5 0.0000 0.0000 0.0000 0.0000 384.6909 0.0000
# 6 0.0000 0.0000 0.0000 0.0000 0.0000 17.1634
#
#
#
# Elastic Compliance Matrix: (Units=1/GPa)
#
#
# Indices 1 2 3 4 5 6 
#
# 1 0.016701 -0.012430 -0.000287 0.000000 0.000000 0.000000
# 2 -0.012430 0.016701 -0.000287 0.000000 0.000000 0.000000
# 3 -0.000287 -0.000287 0.021314 0.000000 0.000000 0.000000
# 4 0.000000 0.000000 0.000000 0.002599 0.000000 0.000000
# 5 0.000000 0.000000 0.000000 0.000000 0.002599 0.000000
# 6 0.000000 0.000000 0.000000 0.000000 0.000000 0.058264
#
#
# Mechanical properties :
#
#
# Convention : Reuss Voigt Hill
#
# Bulk Modulus (GPa) = 34.83347 58.75077 46.79212
# Shear Modulus (GPa) = 32.51854 171.27248 101.89551
#
# Velocity S-wave (km/s) = 4.39311 10.08209 7.77651
# Velocity P-wave (km/s) = 6.81219 13.05372 10.41166
#
# Compressibility (1/GPa) = 0.02870802
#
# Stress axis : x y z
#
# Youngs Moduli (GPa) = 59.87506 59.87506 46.91672
#
# Poissons Ratio (x) = 0.74427 0.01347
# Poissons Ratio (y) = 0.74427 0.01347
# Poissons Ratio (z) = 0.01719 0.01719
#
# Static dielectric constant tensor:
#      x y z
#    x 1.576570 0.000000 0.000000 
#    y 0.000000 1.576570 0.000000 
#    z 0.000000 0.000000 1.660650 
# 
# From -- ./inp_files/1605.got.cif
#   From: 2010.05.17/outbox.cif.g08.bks.cpg/sg191_1_cif.got.tgz:1605.got - 2010.05.20 12:20:32.
