data_PCOD9588673
_publ_section_title
;
Structure prediction by ZEFSAII (Michael W. Deem and Ramdas Pophale) SiO2 
 PCOD9588673
Probable space group: P 6/M C C
;
_chemical_formula_sum "Si O2"
_cell_formula_units_Z 80
_cell_length_a 18.910595
_cell_length_b 18.910595
_cell_length_c 15.506475
_cell_angle_alpha 90.000000
_cell_angle_beta 90.000000
_cell_angle_gamma 120.000000
_cell_volume 4802.353246
_symmetry_space_group_name_H-M "P 6/M C C"
_symmetry_group_IT_number 192
_symmetry_cell_setting 'hexagonal'
loop_
_space_group_symop_operation_xyz
x,y,z
x-y,x,z
-y,x-y,z
-x,-y,z
-x+y,-x,z
y,-x+y,z
x-y,-y,1/2-z
-x,-x+y,1/2-z
y,x,1/2-z
-y,-x,1/2-z
-x+y,y,1/2-z
x,x-y,1/2-z
-x,-y,-z
-x+y,-x,-z
y,-x+y,-z
x,y,-z
x-y,x,-z
-y,x-y,-z
-x+y,y,1/2+z
x,x-y,1/2+z
-y,-x,1/2+z
y,x,1/2+z
x-y,-y,1/2+z
-x,-x+y,1/2+z
loop_
_atom_site_type_symbol
_atom_site_label
_atom_site_fract_x
_atom_site_fract_y
_atom_site_fract_z
Si Si1 0.313135 0.998370 0.000000
Si Si2 0.666668 0.333334 0.103372
Si Si3 0.594052 0.030731 0.653421
Si Si4 0.214903 0.483111 0.655916
Si Si5 0.818514 0.638368 0.500000
O O1 0.226246 0.917026 0.000000
O O2 0.364980 0.999618 0.916523
O O3 0.312741 0.083261 0.000000
O O4 0.574005 0.287028 0.136247
O O5 0.666667 0.333334 0.000000
O O6 0.647353 0.128879 0.652756
O O7 0.500000 0.000000 0.631663
O O8 0.595004 0.000000 0.750000
O O9 0.229019 0.458037 0.750000
O O10 0.209984 0.420799 0.583126
#
# Coordination Sequence:
#
# PCOD9588673 Si02
#       5
#    12   8  24  24  12
#     4  10  21  38  56  79 104 138 170 222 268 323
#     4  12  25  35  52  76 113 145 190 221 271 298
#     4  10  22  34  54  77 103 141 181 221 268 309
#     4  11  23  37  53  78 105 148 182 226 268 307
#     4  10  22  38  60  79 108 136 179 218 270 328
#
# _framework density 16.658501000000001
#
# number of rings (size 3 to 8) (size 9 to 14) (size 15 to 20)
#    0.000    1.500    1.500    3.150   12.600    0.000 
#    0.000    0.000    0.000    0.300    0.000    0.000 
#    0.000    0.000    0.000    9.600    0.000    0.000 
#
# Total GULP energy -447080.296790 kJ/mol
# GULP energy per Si atom -5588.503710 kJ/mol
# Density = 1.662059 g / cm^3
# Si number density = 16.658501 Si / 1000 Ang^3
#
#
#
# Elastic Constant Matrix: (Units=GPa)
#
#
# Indices 1 2 3 4 5 6 
#
# 1 90.4076 64.9847 37.9213 0.0000 0.0000 0.0001
# 2 64.9847 90.4080 37.9206 0.0002 -0.0001 0.0004
# 3 37.9213 37.9206 116.3407 0.0000 -0.0001 -0.0003
# 4 0.0000 0.0002 0.0000 11.4114 0.0000 0.0001
# 5 0.0000 -0.0001 -0.0001 0.0000 11.4112 0.0001
# 6 0.0001 0.0004 -0.0003 0.0001 0.0001 12.7104
#
#
#
# Elastic Compliance Matrix: (Units=1/GPa)
#
#
# Indices 1 2 3 4 5 6 
#
# 1 0.023494 -0.015841 -0.002495 0.000000 0.000000 0.000000
# 2 -0.015841 0.023493 -0.002494 0.000000 0.000000 -0.000001
# 3 -0.002495 -0.002494 0.010222 0.000000 0.000000 0.000000
# 4 0.000000 0.000000 0.000000 0.087631 0.000000 0.000000
# 5 0.000000 0.000000 0.000000 0.000000 0.087633 -0.000001
# 6 0.000000 -0.000001 0.000000 0.000000 -0.000001 0.078676
#
#
# Mechanical properties :
#
#
# Convention : Reuss Voigt Hill
#
# Bulk Modulus (GPa) = 64.31095 64.31215 64.31155
# Shear Modulus (GPa) = 13.96682 17.52858 15.74770
#
# Velocity S-wave (km/s) = 2.89869 3.24733 3.07795
# Velocity P-wave (km/s) = 7.06346 7.26293 7.16389
#
# Compressibility (1/GPa) = 0.01554945
#
# Stress axis : x y z
#
# Youngs Moduli (GPa) = 42.56467 42.56512 97.83272
#
# Poissons Ratio (x) = 0.67426 0.24405
# Poissons Ratio (y) = 0.67426 0.24402
# Poissons Ratio (z) = 0.10618 0.10617
#
# Static dielectric constant tensor:
#      x y z
#    x 1.543570 0.000000 0.000000 
#    y 0.000000 1.543570 0.000000 
#    z 0.000000 0.000000 1.567830 
# 
# From -- ./inp_files/3960.got.cif
#   From: 2010.05.17/outbox.cif.g08.bks.cpg/sg192_2_cif.got.tgz:3960.got - 2010.05.20 12:28:01.
