data_PCOD9588020
_publ_section_title
;
Structure prediction by ZEFSAII (Michael W. Deem and Ramdas Pophale) SiO2 
 PCOD9588020
Probable space group: P 6/M M M
;
_chemical_formula_sum "Si O2"
_cell_formula_units_Z 108
_cell_length_a 17.120744
_cell_length_b 17.120744
_cell_length_c 24.389537
_cell_angle_alpha 90.000000
_cell_angle_beta 90.000000
_cell_angle_gamma 120.000000
_cell_volume 6191.265875
_symmetry_space_group_name_H-M "P 6/M M M"
_symmetry_group_IT_number 191
_symmetry_cell_setting 'hexagonal'
loop_
_space_group_symop_operation_xyz
x,y,z
x-y,x,z
-y,x-y,z
-x,-y,z
-x+y,-x,z
y,-x+y,z
x-y,-y,-z
-x,-x+y,-z
y,x,-z
-y,-x,-z
-x+y,y,-z
x,x-y,-z
-x,-y,-z
-x+y,-x,-z
y,-x+y,-z
x,y,-z
x-y,x,-z
-y,x-y,-z
-x+y,y,z
x,x-y,z
-y,-x,z
y,x,z
x-y,-y,z
-x,-x+y,z
loop_
_atom_site_type_symbol
_atom_site_label
_atom_site_fract_x
_atom_site_fract_y
_atom_site_fract_z
Si Si1 0.895611 0.610723 0.378681
Si Si2 0.821030 0.821030 0.066518
Si Si3 0.637177 0.000000 0.065297
Si Si4 0.890779 0.445390 0.562720
Si Si5 0.665876 0.512287 0.856056
Si Si6 0.150327 0.666727 0.734175
O O1 0.818600 0.637200 0.390081
O O2 0.866165 0.514301 0.407680
O O3 0.892488 0.588676 0.313963
O O4 0.000000 0.681204 0.394153
O O5 0.909656 0.819311 0.085970
O O6 0.729521 0.729521 0.079209
O O7 0.825977 0.825977 0.000000
O O8 0.556564 0.915141 0.094811
O O9 0.627980 0.000000 0.000000
O O10 0.858814 0.429407 0.500000
O O11 0.000000 0.500000 0.562711
O O12 0.764281 0.528561 0.865243
O O13 0.593081 0.406920 0.852952
O O14 0.662893 0.549128 0.795475
O O15 0.138987 0.569494 0.721546
O O16 0.256145 0.743856 0.736119
#
# Coordination Sequence:
#
# PCOD9588020 Si02
#       6
#    24  12  12  12  24  24
#     4  10  20  34  54  80 111 151 193 235 278 327
#     4   9  17  31  53  77  99 125 159 199 243 297
#     4  11  23  37  51  73 103 133 163 205 261 319
#     4   9  18  34  54  80 116 154 186 224 270 324
#     4  10  21  36  54  75  99 132 171 215 261 314
#     4   9  17  30  51  77 105 133 171 218 267 313
#
# _framework density 17.443928
#
# number of rings (size 3 to 8) (size 9 to 14) (size 15 to 20)
#    0.000    2.333    1.111    1.556    1.556    4.889 
#    0.667    0.000    0.000    1.556    0.000    0.000 
#    0.000    0.000    0.000    5.556    0.000    0.000 
#
# Total GULP energy -601993.304727 kJ/mol
# GULP energy per Si atom -5574.012081 kJ/mol
# Density = 1.740423 g / cm^3
# Si number density = 17.443928 Si / 1000 Ang^3
#
#
#
# Elastic Constant Matrix: (Units=GPa)
#
#
# Indices 1 2 3 4 5 6 
#
# 1 72.4308 28.8751 19.7495 0.0000 0.0000 0.0000
# 2 28.8751 72.4308 19.7495 0.0000 0.0000 0.0000
# 3 19.7495 19.7495 79.1901 0.0000 0.0000 0.0000
# 4 0.0000 0.0000 0.0000 14.7114 0.0000 0.0000
# 5 0.0000 0.0000 0.0000 0.0000 14.7114 0.0000
# 6 0.0000 0.0000 0.0000 0.0000 0.0000 21.7778
#
#
#
# Elastic Compliance Matrix: (Units=1/GPa)
#
#
# Indices 1 2 3 4 5 6 
#
# 1 0.016947 -0.006012 -0.002727 0.000000 0.000000 0.000000
# 2 -0.006012 0.016947 -0.002727 0.000000 0.000000 0.000000
# 3 -0.002727 -0.002727 0.013988 0.000000 0.000000 0.000000
# 4 0.000000 0.000000 0.000000 0.067975 0.000000 0.000000
# 5 0.000000 0.000000 0.000000 0.000000 0.067975 0.000000
# 6 0.000000 0.000000 0.000000 0.000000 0.000000 0.045918
#
#
# Mechanical properties :
#
#
# Convention : Reuss Voigt Hill
#
# Bulk Modulus (GPa) = 40.08199 40.08888 40.08544
# Shear Modulus (GPa) = 19.15726 20.61863 19.88794
#
# Velocity S-wave (km/s) = 3.31753 3.44174 3.38021
# Velocity P-wave (km/s) = 6.14021 6.23102 6.18578
#
# Compressibility (1/GPa) = 0.02494886
#
# Stress axis : x y z
#
# Youngs Moduli (GPa) = 59.00844 59.00844 71.48981
#
# Poissons Ratio (x) = 0.35478 0.19495
# Poissons Ratio (y) = 0.35478 0.19495
# Poissons Ratio (z) = 0.16091 0.16091
#
# Static dielectric constant tensor:
#      x y z
#    x 1.600400 0.000000 0.000000 
#    y 0.000000 1.600400 0.000000 
#    z 0.000000 0.000000 1.610860 
# 
# From -- ./inp_files/8466.got.cif
#   From: 2010.05.17/outbox.cif.g08.bks.cpg/sg191_5_cif.got.tgz:8466.got - 2010.05.20 12:20:32.
