data_PCOD9588149
_publ_section_title
;
Structure prediction by ZEFSAII (Michael W. Deem and Ramdas Pophale) SiO2 
 PCOD9588149
Probable space group: P 6/M M M
;
_chemical_formula_sum "Si O2"
_cell_formula_units_Z 72
_cell_length_a 18.278134
_cell_length_b 18.278134
_cell_length_c 14.476774
_cell_angle_alpha 90.000000
_cell_angle_beta 90.000000
_cell_angle_gamma 120.000000
_cell_volume 4188.573494
_symmetry_space_group_name_H-M "P 6/M M M"
_symmetry_group_IT_number 191
_symmetry_cell_setting 'hexagonal'
loop_
_space_group_symop_operation_xyz
x,y,z
x-y,x,z
-y,x-y,z
-x,-y,z
-x+y,-x,z
y,-x+y,z
x-y,-y,-z
-x,-x+y,-z
y,x,-z
-y,-x,-z
-x+y,y,-z
x,x-y,-z
-x,-y,-z
-x+y,-x,-z
y,-x+y,-z
x,y,-z
x-y,x,-z
-y,x-y,-z
-x+y,y,z
x,x-y,z
-y,-x,z
y,x,z
x-y,-y,z
-x,-x+y,z
loop_
_atom_site_type_symbol
_atom_site_label
_atom_site_fract_x
_atom_site_fract_y
_atom_site_fract_z
Si Si1 0.903890 0.640686 0.891960
Si Si2 0.902126 0.097874 0.612632
Si Si3 0.196529 0.803472 0.610346
Si Si4 0.534014 0.634383 0.723634
O O1 0.833216 0.666431 0.874255
O O2 0.886990 0.564558 0.824043
O O3 0.000000 0.714020 0.874578
O O4 0.898097 0.616984 0.000000
O O5 0.902875 0.097126 0.500000
O O6 0.852918 0.147083 0.639613
O O7 0.000000 0.147367 0.642736
O O8 0.198004 0.801997 0.500000
O O9 0.290216 0.851842 0.651755
O O10 0.436026 0.563975 0.721407
O O11 0.586425 0.586425 0.704671
#
# Coordination Sequence:
#
# PCOD9588149 Si02
#       4
#    24  12  12  24
#     4   9  17  32  57  86 113 141 174 213 262 325
#     4   9  17  30  51  79 109 139 174 220 272 324
#     4  11  22  37  55  76 103 145 192 230 272 325
#     4  10  21  37  56  79 106 137 177 227 278 325
#
# _framework density 17.189623000000001
#
# number of rings (size 3 to 8) (size 9 to 14) (size 15 to 20)
#    0.000    2.333    1.667    1.167    0.000    4.000 
#    1.000    5.000    0.000    0.333    0.000    2.333 
#    0.000    0.000    0.000    0.000    0.000    0.000 
#
# Total GULP energy -401508.761469 kJ/mol
# GULP energy per Si atom -5576.510576 kJ/mol
# Density = 1.715050 g / cm^3
# Si number density = 17.189623 Si / 1000 Ang^3
#
#
#
# Elastic Constant Matrix: (Units=GPa)
#
#
# Indices 1 2 3 4 5 6 
#
# 1 135.2272 96.5951 58.5437 0.0000 0.0000 0.0000
# 2 96.5951 135.2272 58.5437 0.0000 0.0000 0.0000
# 3 58.5437 58.5437 80.4574 0.0000 0.0000 0.0000
# 4 0.0000 0.0000 0.0000 23.2132 0.0000 0.0000
# 5 0.0000 0.0000 0.0000 0.0000 23.2132 0.0000
# 6 0.0000 0.0000 0.0000 0.0000 0.0000 19.3161
#
#
#
# Elastic Compliance Matrix: (Units=1/GPa)
#
#
# Indices 1 2 3 4 5 6 
#
# 1 0.016353 -0.009533 -0.004963 0.000000 0.000000 0.000000
# 2 -0.009533 0.016353 -0.004963 0.000000 0.000000 0.000000
# 3 -0.004963 -0.004963 0.019651 0.000000 0.000000 0.000000
# 4 0.000000 0.000000 0.000000 0.043079 0.000000 0.000000
# 5 0.000000 0.000000 0.000000 0.000000 0.043079 0.000000
# 6 0.000000 0.000000 0.000000 0.000000 0.000000 0.051770
#
#
# Mechanical properties :
#
#
# Convention : Reuss Voigt Hill
#
# Bulk Modulus (GPa) = 74.40036 86.47519 80.43777
# Shear Modulus (GPa) = 21.39680 22.29713 21.84696
#
# Velocity S-wave (km/s) = 3.53193 3.60547 3.56889
# Velocity P-wave (km/s) = 7.74654 8.23094 7.99241
#
# Compressibility (1/GPa) = 0.01344080
#
# Stress axis : x y z
#
# Youngs Moduli (GPa) = 61.15221 61.15221 50.88857
#
# Poissons Ratio (x) = 0.58294 0.25254
# Poissons Ratio (y) = 0.58294 0.25254
# Poissons Ratio (z) = 0.30347 0.30347
#
# Static dielectric constant tensor:
#      x y z
#    x 1.567080 0.000000 0.000000 
#    y 0.000000 1.567080 0.000000 
#    z 0.000000 0.000000 1.593350 
# 
# From -- ./inp_files/3915.got.cif
#   From: 2010.05.17/outbox.cif.g08.bks.cpg/sg191_2_cif.got.tgz:3915.got - 2010.05.20 12:20:32.
