data_PCOD9588481
_publ_section_title
;
Structure prediction by ZEFSAII (Michael W. Deem and Ramdas Pophale) SiO2 
 PCOD9588481
Probable space group: P 6/M C C
;
_chemical_formula_sum "Si O2"
_cell_formula_units_Z 96
_cell_length_a 15.017182
_cell_length_b 15.017182
_cell_length_c 23.667254
_cell_angle_alpha 90.000000
_cell_angle_beta 90.000000
_cell_angle_gamma 120.000000
_cell_volume 4622.270868
_symmetry_space_group_name_H-M "P 6/M C C"
_symmetry_group_IT_number 192
_symmetry_cell_setting 'hexagonal'
loop_
_space_group_symop_operation_xyz
x,y,z
x-y,x,z
-y,x-y,z
-x,-y,z
-x+y,-x,z
y,-x+y,z
x-y,-y,1/2-z
-x,-x+y,1/2-z
y,x,1/2-z
-y,-x,1/2-z
-x+y,y,1/2-z
x,x-y,1/2-z
-x,-y,-z
-x+y,-x,-z
y,-x+y,-z
x,y,-z
x-y,x,-z
-y,x-y,-z
-x+y,y,1/2+z
x,x-y,1/2+z
-y,-x,1/2+z
y,x,1/2+z
x-y,-y,1/2+z
-x,-x+y,1/2+z
loop_
_atom_site_type_symbol
_atom_site_label
_atom_site_fract_x
_atom_site_fract_y
_atom_site_fract_z
Si Si1 0.198658 0.592737 0.000000
Si Si2 0.144004 0.237962 0.567818
Si Si3 0.124471 0.248942 0.250000
Si Si4 0.801870 0.218113 0.650294
Si Si5 0.436562 0.555251 0.125842
O O1 0.283043 0.555820 0.000000
O O2 0.138868 0.562325 0.058570
O O3 0.188488 0.163988 0.585212
O O4 0.148013 0.243778 0.500000
O O5 0.208359 0.350016 0.594571
O O6 0.178794 0.178794 0.250000
O O7 0.167778 0.327662 0.302731
O O8 0.831193 0.335908 0.657547
O O9 0.679890 0.159006 0.643461
O O10 0.500000 0.500000 0.137527
#
# Coordination Sequence:
#
# PCOD9588481 Si02
#       5
#    12  24  12  24  24
#     4  10  19  40  62  92 136 174 218 280 327 396
#     4  10  21  38  62  94 134 176 223 282 352 424
#     4  12  27  50  78 106 138 174 223 284 350 418
#     4  12  26  46  65 100 135 176 230 287 330 408
#     4  12  24  41  66  94 132 181 223 273 342 394
#
# _framework density 20.769013000000001
#
# number of rings (size 3 to 8) (size 9 to 14) (size 15 to 20)
#    0.250    0.500    2.500    5.750    3.500    2.000 
#    0.000    5.000    0.000    0.000    0.000    0.000 
#    0.000    0.000    0.000    0.000    0.000    0.000 
#
# Total GULP energy -536734.516132 kJ/mol
# GULP energy per Si atom -5590.984543 kJ/mol
# Density = 2.072174 g / cm^3
# Si number density = 20.769013 Si / 1000 Ang^3
#
#
#
# Elastic Constant Matrix: (Units=GPa)
#
#
# Indices 1 2 3 4 5 6 
#
# 1 85.7186 -2.3789 34.5923 0.0000 0.0000 0.0000
# 2 -2.3789 85.7186 34.5923 0.0000 0.0000 0.0000
# 3 34.5923 34.5923 56.8484 0.0000 0.0000 0.0000
# 4 0.0000 0.0000 0.0000 1.2034 0.0000 0.0000
# 5 0.0000 0.0000 0.0000 0.0000 1.2034 0.0000
# 6 0.0000 0.0000 0.0000 0.0000 0.0000 44.0487
#
#
#
# Elastic Compliance Matrix: (Units=1/GPa)
#
#
# Indices 1 2 3 4 5 6 
#
# 1 0.017799 0.006448 -0.014755 0.000000 0.000000 0.000000
# 2 0.006448 0.017799 -0.014755 0.000000 0.000000 0.000000
# 3 -0.014755 -0.014755 0.035547 0.000000 0.000000 0.000000
# 4 0.000000 0.000000 0.000000 0.830984 0.000000 0.000000
# 5 0.000000 0.000000 0.000000 0.000000 0.830984 0.000000
# 6 0.000000 0.000000 0.000000 0.000000 0.000000 0.022702
#
#
# Mechanical properties :
#
#
# Convention : Reuss Voigt Hill
#
# Bulk Modulus (GPa) = 39.96220 40.21078 40.08649
# Shear Modulus (GPa) = 2.76200 20.05642 11.40921
#
# Velocity S-wave (km/s) = 1.15445 3.11093 2.34634
# Velocity P-wave (km/s) = 4.58912 5.68391 5.16560
#
# Compressibility (1/GPa) = 0.02502365
#
# Stress axis : x y z
#
# Youngs Moduli (GPa) = 56.18144 56.18144 28.13149
#
# Poissons Ratio (x) = -0.36228 0.41508
# Poissons Ratio (y) = -0.36228 0.41508
# Poissons Ratio (z) = 0.82895 0.82895
#
# Static dielectric constant tensor:
#      x y z
#    x 1.687200 0.000000 0.000000 
#    y 0.000000 1.687200 0.000000 
#    z 0.000000 0.000000 1.865120 
# 
# From -- ./inp_files/6390.got.cif
#   From: 2010.05.17/outbox.cif.g08.bks.cpg/sg192_4_cif.got.tgz:6390.got - 2010.05.20 12:28:01.
