data_PCOD9588225
_publ_section_title
;
Structure prediction by ZEFSAII (Michael W. Deem and Ramdas Pophale) SiO2 
 PCOD9588225
Probable space group: P 6/M M M
;
_chemical_formula_sum "Si O2"
_cell_formula_units_Z 168
_cell_length_a 31.172424
_cell_length_b 31.172424
_cell_length_c 14.505947
_cell_angle_alpha 90.000000
_cell_angle_beta 90.000000
_cell_angle_gamma 120.000000
_cell_volume 12207.250808
_symmetry_space_group_name_H-M "P 6/M M M"
_symmetry_group_IT_number 191
_symmetry_cell_setting 'hexagonal'
loop_
_space_group_symop_operation_xyz
x,y,z
x-y,x,z
-y,x-y,z
-x,-y,z
-x+y,-x,z
y,-x+y,z
x-y,-y,-z
-x,-x+y,-z
y,x,-z
-y,-x,-z
-x+y,y,-z
x,x-y,-z
-x,-y,-z
-x+y,-x,-z
y,-x+y,-z
x,y,-z
x-y,x,-z
-y,x-y,-z
-x+y,y,z
x,x-y,z
-y,-x,z
y,x,z
x-y,-y,z
-x,-x+y,z
loop_
_atom_site_type_symbol
_atom_site_label
_atom_site_fract_x
_atom_site_fract_y
_atom_site_fract_z
Si Si1 0.489334 0.651412 0.108135
Si Si2 0.942863 0.352383 0.607192
Si Si3 0.520422 0.381101 0.389794
Si Si4 0.453269 0.053620 0.888829
Si Si5 0.638984 0.945143 0.789432
Si Si6 0.251195 0.402477 0.890879
Si Si7 0.567171 0.232924 0.731492
O O1 0.500036 0.607001 0.134740
O O2 0.541857 0.702323 0.122870
O O3 0.449323 0.654560 0.170471
O O4 0.477226 0.647209 0.000000
O O5 0.934520 0.336294 0.500000
O O6 0.905194 0.371334 0.632925
O O7 0.937068 0.311814 0.681427
O O8 0.000000 0.395772 0.614986
O O9 0.522556 0.376958 0.500000
O O10 0.564214 0.435787 0.362944
O O11 0.532701 0.342660 0.340404
O O12 0.406744 0.052754 0.839117
O O13 0.447356 0.000000 0.868550
O O14 0.447818 0.055628 0.000000
O O15 0.636024 0.897137 0.834708
O O16 0.685935 0.000000 0.802797
O O17 0.200676 0.401351 0.865792
O O18 0.250376 0.392465 0.000000
O O19 0.623530 0.247060 0.712398
O O20 0.560788 0.280394 0.728220
#
# Coordination Sequence:
#
# PCOD9588225 Si02
#       7
#    24  24  24  24  24  24  24
#     4   9  17  29  45  63  82 103 124 146 175 215
#     4   9  17  28  42  62  87 110 128 144 166 206
#     4   9  18  32  49  67  82  95 115 145 182 223
#     4   8  13  22  39  63  85 102 121 143 169 208
#     4   9  15  23  37  55  77 107 136 158 182 215
#     4   9  16  25  39  60  82 102 126 158 197 235
#     4  11  23  37  50  61  74  94 122 157 194 228
#
# _framework density 13.762312
#
# number of rings (size 3 to 8) (size 9 to 14) (size 15 to 20)
#    0.000    2.857    0.000    3.571    0.000    2.571 
#    0.000    1.429    0.000    4.286    0.000    2.000 
#    0.000    0.000    0.000    3.143    0.000    0.143 
#
# Total GULP energy -935696.595145 kJ/mol
# GULP energy per Si atom -5569.622590 kJ/mol
# Density = 1.373099 g / cm^3
# Si number density = 13.762312 Si / 1000 Ang^3
#
#
#
# Elastic Constant Matrix: (Units=GPa)
#
#
# Indices 1 2 3 4 5 6 
#
# 1 44.2787 57.7288 24.3363 0.0000 0.0000 0.0000
# 2 57.7288 44.2787 24.3363 0.0000 0.0000 0.0000
# 3 24.3363 24.3363 34.9094 0.0000 0.0000 0.0000
# 4 0.0000 0.0000 0.0000 15.0618 0.0000 0.0000
# 5 0.0000 0.0000 0.0000 0.0000 15.0618 0.0000
# 6 0.0000 0.0000 0.0000 0.0000 0.0000 -6.7250
#
#
#
# Elastic Compliance Matrix: (Units=1/GPa)
#
#
# Indices 1 2 3 4 5 6 
#
# 1 -0.029830 0.044519 -0.010240 0.000000 0.000000 0.000000
# 2 0.044519 -0.029830 -0.010240 0.000000 0.000000 0.000000
# 3 -0.010240 -0.010240 0.042923 0.000000 0.000000 0.000000
# 4 0.000000 0.000000 0.000000 0.066393 0.000000 0.000000
# 5 0.000000 0.000000 0.000000 0.000000 0.066393 0.000000
# 6 0.000000 0.000000 0.000000 0.000000 0.000000 -0.148699
#
#
# Mechanical properties :
#
#
# Convention : Reuss Voigt Hill
#
# Bulk Modulus (GPa) = 31.90752 37.36328 34.63540
# Shear Modulus (GPa) = -71.14492 5.81740 -32.66376
#
# Velocity S-wave (km/s) = -7.19776 2.05821 -4.87706
# Velocity P-wave (km/s) = 6.77066 5.73204 2.54810
#
# Compressibility (1/GPa) = 0.03134057
#
# Stress axis : x y z
#
# Youngs Moduli (GPa) = -33.52331 -33.52331 23.29737
#
# Poissons Ratio (x) = 1.49244 0.23857
# Poissons Ratio (y) = 1.49244 0.23857
# Poissons Ratio (z) = -0.34329 -0.34329
#
# Static dielectric constant tensor:
#      x y z
#    x 1.456820 0.000000 0.000000 
#    y 0.000000 1.456820 0.000000 
#    z 0.000000 0.000000 1.487870 
# 
# From -- ./inp_files/5385.got.cif
#   From: 2010.05.17/outbox.cif.g08.bks.cpg/sg191_3_cif.got.tgz:5385.got - 2010.05.20 12:20:32.
