data_PCOD9588468
_publ_section_title
;
Structure prediction by ZEFSAII (Michael W. Deem and Ramdas Pophale) SiO2 
 PCOD9588468
Probable space group: P 6/M C C
;
_chemical_formula_sum "Si O2"
_cell_formula_units_Z 120
_cell_length_a 14.269216
_cell_length_b 14.269216
_cell_length_c 29.175164
_cell_angle_alpha 90.000000
_cell_angle_beta 90.000000
_cell_angle_gamma 120.000000
_cell_volume 5144.511732
_symmetry_space_group_name_H-M "P 6/M C C"
_symmetry_group_IT_number 192
_symmetry_cell_setting 'hexagonal'
loop_
_space_group_symop_operation_xyz
x,y,z
x-y,x,z
-y,x-y,z
-x,-y,z
-x+y,-x,z
y,-x+y,z
x-y,-y,1/2-z
-x,-x+y,1/2-z
y,x,1/2-z
-y,-x,1/2-z
-x+y,y,1/2-z
x,x-y,1/2-z
-x,-y,-z
-x+y,-x,-z
y,-x+y,-z
x,y,-z
x-y,x,-z
-y,x-y,-z
-x+y,y,1/2+z
x,x-y,1/2+z
-y,-x,1/2+z
y,x,1/2+z
x-y,-y,1/2+z
-x,-x+y,1/2+z
loop_
_atom_site_type_symbol
_atom_site_label
_atom_site_fract_x
_atom_site_fract_y
_atom_site_fract_z
Si Si1 0.468719 0.874240 0.352469
Si Si2 0.193327 0.959238 0.944412
Si Si3 0.972064 0.194667 0.804751
Si Si4 0.479399 0.101014 0.550899
Si Si5 0.198433 0.745235 0.803052
O O1 0.450879 0.835433 0.405195
O O2 0.554563 0.845536 0.331045
O O3 0.363336 0.809571 0.321296
O O4 0.500000 0.000000 0.352008
O O5 0.293226 0.938525 0.935623
O O6 0.077504 0.860146 0.928645
O O7 0.187149 0.960731 0.000000
O O8 0.919692 0.269549 0.811063
O O9 0.081902 0.207408 0.823076
O O10 0.000000 0.202891 0.750000
O O11 0.499914 0.152126 0.500000
O O12 0.500000 0.000000 0.547047
O O13 0.228868 0.771133 0.750000
#
# Coordination Sequence:
#
# PCOD9588468 Si02
#       5
#    24  24  24  24  24
#     4  11  26  43  68  96 129 174 222 281 345 413
#     4   9  17  32  62 102 143 181 220 271 339 416
#     4  10  19  35  62  95 131 175 218 264 318 398
#     4   9  20  41  65  94 133 181 232 286 341 404
#     4  12  24  42  64  96 133 169 220 280 340 407
#
# _framework density 23.32583
#
# number of rings (size 3 to 8) (size 9 to 14) (size 15 to 20)
#    0.000    1.800    2.000    2.600    0.000    5.600 
#    0.000    3.000    0.000    0.800    0.000    8.400 
#    0.000    0.000    0.000    0.000    0.000    0.600 
#
# Total GULP energy -669583.644939 kJ/mol
# GULP energy per Si atom -5579.863708 kJ/mol
# Density = 2.327274 g / cm^3
# Si number density = 23.325830 Si / 1000 Ang^3
#
#
#
# Elastic Constant Matrix: (Units=GPa)
#
#
# Indices 1 2 3 4 5 6 
#
# 1 101.3462 26.3730 9.7873 0.0000 0.0000 0.0000
# 2 26.3730 101.3462 9.7873 0.0000 0.0000 0.0000
# 3 9.7873 9.7873 112.8238 0.0000 0.0000 0.0000
# 4 0.0000 0.0000 0.0000 -9.7563 0.0000 0.0000
# 5 0.0000 0.0000 0.0000 0.0000 -9.7563 0.0000
# 6 0.0000 0.0000 0.0000 0.0000 0.0000 37.4866
#
#
#
# Elastic Compliance Matrix: (Units=1/GPa)
#
#
# Indices 1 2 3 4 5 6 
#
# 1 0.010637 -0.002701 -0.000688 0.000000 0.000000 0.000000
# 2 -0.002701 0.010637 -0.000688 0.000000 0.000000 0.000000
# 3 -0.000688 -0.000688 0.008983 0.000000 0.000000 0.000000
# 4 0.000000 0.000000 0.000000 -0.102498 0.000000 0.000000
# 5 0.000000 0.000000 0.000000 0.000000 -0.102498 0.000000
# 6 0.000000 0.000000 0.000000 0.000000 0.000000 0.026676
#
#
# Mechanical properties :
#
#
# Convention : Reuss Voigt Hill
#
# Bulk Modulus (GPa) = 45.24946 45.26792 45.25869
# Shear Modulus (GPa) = -37.72424 21.56604 -8.07910
#
# Velocity S-wave (km/s) = -4.02590 3.04395 -1.86309
# Velocity P-wave (km/s) = 1.47291 5.63942 3.84926
#
# Compressibility (1/GPa) = 0.02209971
#
# Stress axis : x y z
#
# Youngs Moduli (GPa) = 94.01465 94.01465 111.32373
#
# Poissons Ratio (x) = 0.25398 0.07663
# Poissons Ratio (y) = 0.25398 0.07663
# Poissons Ratio (z) = 0.06472 0.06472
#
# Static dielectric constant tensor:
#      x y z
#    x 1.828310 0.000000 0.000000 
#    y 0.000000 1.828310 0.000000 
#    z 0.000000 0.000000 1.930800 
# 
# From -- ./inp_files/6959.got.cif
#   From: 2010.05.17/outbox.cif.g08.bks.cpg/sg192_4_cif.got.tgz:6959.got - 2010.05.20 12:28:01.
