data_PCOD9588208
_publ_section_title
;
Structure prediction by ZEFSAII (Michael W. Deem and Ramdas Pophale) SiO2 
 PCOD9588208
Probable space group: P 6/M M M
;
_chemical_formula_sum "Si O2"
_cell_formula_units_Z 168
_cell_length_a 22.434931
_cell_length_b 22.434931
_cell_length_c 23.846865
_cell_angle_alpha 90.000000
_cell_angle_beta 90.000000
_cell_angle_gamma 120.000000
_cell_volume 10394.686631
_symmetry_space_group_name_H-M "P 6/M M M"
_symmetry_group_IT_number 191
_symmetry_cell_setting 'hexagonal'
loop_
_space_group_symop_operation_xyz
x,y,z
x-y,x,z
-y,x-y,z
-x,-y,z
-x+y,-x,z
y,-x+y,z
x-y,-y,-z
-x,-x+y,-z
y,x,-z
-y,-x,-z
-x+y,y,-z
x,x-y,-z
-x,-y,-z
-x+y,-x,-z
y,-x+y,-z
x,y,-z
x-y,x,-z
-y,x-y,-z
-x+y,y,z
x,x-y,z
-y,-x,z
y,x,z
x-y,-y,z
-x,-x+y,z
loop_
_atom_site_type_symbol
_atom_site_label
_atom_site_fract_x
_atom_site_fract_y
_atom_site_fract_z
Si Si1 0.209138 0.286498 0.067992
Si Si2 0.705230 0.922473 0.662940
Si Si3 0.607703 0.527585 0.160436
Si Si4 0.550705 0.706324 0.934006
Si Si5 0.192236 0.525235 0.638768
Si Si6 0.127190 0.728282 0.563260
Si Si7 0.720014 0.576650 0.255670
O O1 0.133104 0.266208 0.088428
O O2 0.241563 0.241563 0.089607
O O3 0.258312 0.367481 0.078788
O O4 0.205405 0.280362 0.000000
O O5 0.724815 0.862408 0.660374
O O6 0.662346 0.916833 0.606483
O O7 0.649362 0.901328 0.712865
O O8 0.766271 0.000000 0.669644
O O9 0.544021 0.455980 0.181439
O O10 0.576530 0.576530 0.145783
O O11 0.641775 0.514261 0.106310
O O12 0.666217 0.562682 0.207198
O O13 0.531513 0.765757 0.923968
O O14 0.541142 0.689275 0.000000
O O15 0.270460 0.540919 0.630298
O O16 0.188719 0.594360 0.639830
O O17 0.144972 0.471467 0.590775
O O18 0.166384 0.481996 0.696531
O O19 0.100484 0.711247 0.500000
O O20 0.200780 0.799221 0.561904
O O21 0.787007 0.574013 0.234475
#
# Coordination Sequence:
#
# PCOD9588208 Si02
#       7
#    24  24  24  24  24  24  24
#     4   8  13  22  38  59  81 106 137 172 208 247
#     4   9  17  30  50  73  95 121 153 190 228 266
#     4  11  22  32  46  70  97 122 146 179 227 278
#     4   9  18  33  51  67  85 114 150 186 224 266
#     4   9  16  26  42  63  87 117 155 200 245 285
#     4   8  15  27  41  60  88 122 158 193 231 274
#     4   9  18  33  50  66  88 121 159 194 226 262
#
# _framework density 16.162103999999999
#
# number of rings (size 3 to 8) (size 9 to 14) (size 15 to 20)
#    0.000    3.000    0.000    4.429    0.000    1.714 
#    0.000    0.714    0.000    8.143    0.000    5.000 
#    0.000    0.000    0.000    3.571    0.000   29.714 
#
# Total GULP energy -935817.654470 kJ/mol
# GULP energy per Si atom -5570.343181 kJ/mol
# Density = 1.612532 g / cm^3
# Si number density = 16.162104 Si / 1000 Ang^3
#
#
#
# Elastic Constant Matrix: (Units=GPa)
#
#
# Indices 1 2 3 4 5 6 
#
# 1 74.2507 36.8125 22.6846 0.0000 0.0000 0.0000
# 2 36.8125 74.2507 22.6846 0.0000 0.0000 0.0000
# 3 22.6846 22.6846 54.3730 0.0000 0.0000 0.0000
# 4 0.0000 0.0000 0.0000 10.5122 0.0000 0.0000
# 5 0.0000 0.0000 0.0000 0.0000 10.5122 0.0000
# 6 0.0000 0.0000 0.0000 0.0000 0.0000 18.7191
#
#
#
# Elastic Compliance Matrix: (Units=1/GPa)
#
#
# Indices 1 2 3 4 5 6 
#
# 1 0.018782 -0.007929 -0.004528 0.000000 0.000000 0.000000
# 2 -0.007929 0.018782 -0.004528 0.000000 0.000000 0.000000
# 3 -0.004528 -0.004528 0.022170 0.000000 0.000000 0.000000
# 4 0.000000 0.000000 0.000000 0.095128 0.000000 0.000000
# 5 0.000000 0.000000 0.000000 0.000000 0.095128 0.000000
# 6 0.000000 0.000000 0.000000 0.000000 0.000000 0.053421
#
#
# Mechanical properties :
#
#
# Convention : Reuss Voigt Hill
#
# Bulk Modulus (GPa) = 38.81328 40.80423 39.80876
# Shear Modulus (GPa) = 14.45218 15.99488 15.22353
#
# Velocity S-wave (km/s) = 2.99356 3.14929 3.07241
# Velocity P-wave (km/s) = 6.00131 6.20691 6.10497
#
# Compressibility (1/GPa) = 0.02576438
#
# Stress axis : x y z
#
# Youngs Moduli (GPa) = 53.24206 53.24206 45.10637
#
# Poissons Ratio (x) = 0.42213 0.20425
# Poissons Ratio (y) = 0.42213 0.20425
# Poissons Ratio (z) = 0.24109 0.24109
#
# Static dielectric constant tensor:
#      x y z
#    x 1.534400 0.000000 0.000000 
#    y 0.000000 1.534400 0.000000 
#    z 0.000000 0.000000 1.555860 
# 
# From -- ./inp_files/8968.got.cif
#   From: 2010.05.17/outbox.cif.g08.bks.cpg/sg191_5_cif.got.tgz:8968.got - 2010.05.20 12:20:32.
