data_PCOD9588333
_publ_section_title
;
Structure prediction by ZEFSAII (Michael W. Deem and Ramdas Pophale) SiO2 
 PCOD9588333
Probable space group: P 6/M C C
;
_chemical_formula_sum "Si O2"
_cell_formula_units_Z 168
_cell_length_a 18.667706
_cell_length_b 18.667706
_cell_length_c 28.729231
_cell_angle_alpha 90.000000
_cell_angle_beta 90.000000
_cell_angle_gamma 120.000000
_cell_volume 8670.348180
_symmetry_space_group_name_H-M "P 6/M C C"
_symmetry_group_IT_number 192
_symmetry_cell_setting 'hexagonal'
loop_
_space_group_symop_operation_xyz
x,y,z
x-y,x,z
-y,x-y,z
-x,-y,z
-x+y,-x,z
y,-x+y,z
x-y,-y,1/2-z
-x,-x+y,1/2-z
y,x,1/2-z
-y,-x,1/2-z
-x+y,y,1/2-z
x,x-y,1/2-z
-x,-y,-z
-x+y,-x,-z
y,-x+y,-z
x,y,-z
x-y,x,-z
-y,x-y,-z
-x+y,y,1/2+z
x,x-y,1/2+z
-y,-x,1/2+z
y,x,1/2+z
x-y,-y,1/2+z
-x,-x+y,1/2+z
loop_
_atom_site_type_symbol
_atom_site_label
_atom_site_fract_x
_atom_site_fract_y
_atom_site_fract_z
Si Si1 0.004498 0.731831 0.084137
Si Si2 0.436679 0.900627 0.055720
Si Si3 0.993347 0.582933 0.195302
Si Si4 0.147628 0.963235 0.343469
Si Si5 0.426658 0.137910 0.625080
Si Si6 0.818818 0.842999 0.000000
Si Si7 0.441157 0.126306 0.885770
Si Si8 0.828751 0.000000 0.750000
O O1 0.925180 0.668300 0.112951
O O2 0.973073 0.763338 0.042550
O O3 0.057521 0.810925 0.115689
O O4 0.067184 0.698035 0.077216
O O5 0.350722 0.875092 0.082030
O O6 0.476871 0.857910 0.087115
O O7 0.500000 0.000000 0.060420
O O8 0.427482 0.881980 0.000000
O O9 0.067067 0.646034 0.160003
O O10 0.000000 0.500000 0.194408
O O11 0.000000 0.608625 0.250000
O O12 0.905523 0.561011 0.171157
O O13 0.201527 0.977557 0.296480
O O14 0.052163 0.896839 0.345722
O O15 0.442515 0.231076 0.626696
O O16 0.902788 0.839258 0.000000
O O17 0.920522 0.079479 0.750000
#
# Coordination Sequence:
#
# PCOD9588333 Si02
#       8
#    24  24  24  24  24  12  24  12
#     4  11  24  39  56  84 115 155 206 250 299 366
#     4  11  22  42  68  98 128 168 218 262 324 402
#     4  10  20  41  68  92 127 171 216 261 319 385
#     4  10  18  32  49  72 103 141 187 241 298 356
#     4  11  22  41  66  94 128 163 206 262 321 383
#     4  12  25  40  56  81 116 160 208 258 314 365
#     4  11  22  41  66  94 128 163 206 262 321 383
#     4   8  15  26  46  68  96 135 178 226 286 346
#
# _framework density 19.376384000000002
#
# number of rings (size 3 to 8) (size 9 to 14) (size 15 to 20)
#    0.000    1.429    4.286    2.857    2.000    2.286 
#    6.000    1.429    0.000    0.000    0.000    0.000 
#    0.000    0.000    0.000    0.000    0.000    0.000 
#
# Total GULP energy -935214.969476 kJ/mol
# GULP energy per Si atom -5566.755771 kJ/mol
# Density = 1.933228 g / cm^3
# Si number density = 19.376384 Si / 1000 Ang^3
#
#
#
# Elastic Constant Matrix: (Units=GPa)
#
#
# Indices 1 2 3 4 5 6 
#
# 1 74.8015 31.0801 27.3064 0.0000 0.0000 0.0000
# 2 31.0801 74.8015 27.3064 0.0000 0.0000 0.0000
# 3 27.3064 27.3064 101.2030 0.0000 0.0000 0.0000
# 4 0.0000 0.0000 0.0000 -9.3616 0.0000 0.0000
# 5 0.0000 0.0000 0.0000 0.0000 -9.3616 0.0000
# 6 0.0000 0.0000 0.0000 0.0000 0.0000 21.8607
#
#
#
# Elastic Compliance Matrix: (Units=1/GPa)
#
#
# Indices 1 2 3 4 5 6 
#
# 1 0.016922 -0.005950 -0.002960 0.000000 0.000000 0.000000
# 2 -0.005950 0.016922 -0.002960 0.000000 0.000000 0.000000
# 3 -0.002960 -0.002960 0.011479 0.000000 0.000000 0.000000
# 4 0.000000 0.000000 0.000000 -0.106819 0.000000 0.000000
# 5 0.000000 0.000000 0.000000 0.000000 -0.106819 0.000000
# 6 0.000000 0.000000 0.000000 0.000000 0.000000 0.045744
#
#
# Mechanical properties :
#
#
# Convention : Reuss Voigt Hill
#
# Bulk Modulus (GPa) = 46.33862 46.91021 46.62441
# Shear Modulus (GPa) = -54.56309 11.63504 -21.46402
#
# Velocity S-wave (km/s) = -5.31232 2.45312 -3.33189
# Velocity P-wave (km/s) = 3.69604 5.68210 3.05169
#
# Compressibility (1/GPa) = 0.02158027
#
# Stress axis : x y z
#
# Youngs Moduli (GPa) = 59.09559 59.09559 87.11861
#
# Poissons Ratio (x) = 0.35164 0.25790
# Poissons Ratio (y) = 0.35164 0.25790
# Poissons Ratio (z) = 0.17494 0.17494
#
# Static dielectric constant tensor:
#      x y z
#    x 1.592330 0.000000 0.000000 
#    y 0.000000 1.592330 0.000000 
#    z 0.000000 0.000000 1.795990 
# 
# From -- ./inp_files/7229.got.cif
#   From: 2010.05.17/outbox.cif.g08.bks.cpg/sg192_4_cif.got.tgz:7229.got - 2010.05.20 12:28:01.
