data_PCOD9588294
_publ_section_title
;
Structure prediction by ZEFSAII (Michael W. Deem and Ramdas Pophale) SiO2 
 PCOD9588294
Probable space group: P 6/M C C
;
_chemical_formula_sum "Si O2"
_cell_formula_units_Z 192
_cell_length_a 23.065568
_cell_length_b 23.065568
_cell_length_c 23.888083
_cell_angle_alpha 90.000000
_cell_angle_beta 90.000000
_cell_angle_gamma 120.000000
_cell_volume 11006.271929
_symmetry_space_group_name_H-M "P 6/M C C"
_symmetry_group_IT_number 192
_symmetry_cell_setting 'hexagonal'
loop_
_space_group_symop_operation_xyz
x,y,z
x-y,x,z
-y,x-y,z
-x,-y,z
-x+y,-x,z
y,-x+y,z
x-y,-y,1/2-z
-x,-x+y,1/2-z
y,x,1/2-z
-y,-x,1/2-z
-x+y,y,1/2-z
x,x-y,1/2-z
-x,-y,-z
-x+y,-x,-z
y,-x+y,-z
x,y,-z
x-y,x,-z
-y,x-y,-z
-x+y,y,1/2+z
x,x-y,1/2+z
-y,-x,1/2+z
y,x,1/2+z
x-y,-y,1/2+z
-x,-x+y,1/2+z
loop_
_atom_site_type_symbol
_atom_site_label
_atom_site_fract_x
_atom_site_fract_y
_atom_site_fract_z
Si Si1 0.591821 0.069777 0.281273
Si Si2 0.294880 0.336957 0.934768
Si Si3 0.175184 0.872838 0.363788
Si Si4 0.259849 0.387546 0.238670
Si Si5 0.282024 0.905856 0.865302
Si Si6 0.936594 0.408802 0.911238
Si Si7 0.079594 0.921727 0.817184
Si Si8 0.390859 0.907069 0.938360
O O1 0.548053 0.096105 0.250000
O O2 0.670403 0.118745 0.280664
O O3 0.574123 0.054404 0.345827
O O4 0.571201 0.000000 0.250000
O O5 0.218944 0.302080 0.915036
O O6 0.330326 0.306287 0.896287
O O7 0.331862 0.417039 0.922225
O O8 0.302401 0.327166 0.000000
O O9 0.224953 0.893414 0.309509
O O10 0.146406 0.795092 0.378298
O O11 0.115405 0.885850 0.347124
O O12 0.204049 0.408097 0.250000
O O13 0.278730 0.367313 0.297983
O O14 0.335588 0.885513 0.889266
O O15 0.892064 0.440138 0.932271
O O16 0.011572 0.444797 0.936600
O O17 0.084705 0.915296 0.750000
O O18 0.000521 0.884440 0.830583
O O19 0.359423 0.885989 0.000000
#
# Coordination Sequence:
#
# PCOD9588294 Si02
#       8
#    24  24  24  24  24  24  24  24
#     4  11  19  30  51  81 111 143 175 219 272 321
#     4  11  22  35  52  75 107 146 184 230 278 329
#     4  11  22  36  53  79 110 149 184 229 286 354
#     4  10  21  35  51  77 110 148 180 223 275 336
#     4  10  20  34  51  74 106 142 183 219 274 336
#     4  10  17  30  47  73 104 137 178 214 260 310
#     4  10  20  36  57  83 110 142 185 237 293 354
#     4  10  18  30  49  73 104 141 177 215 259 316
#
# _framework density 17.444599
#
# number of rings (size 3 to 8) (size 9 to 14) (size 15 to 20)
#    0.000    1.625    1.250    8.375    0.000    2.500 
#    0.000    0.000    0.000    0.250    0.000    0.000 
#    1.250    2.000    0.750    0.000    0.000    0.000 
#
# Total GULP energy -1069942.271443 kJ/mol
# GULP energy per Si atom -5572.615997 kJ/mol
# Density = 1.740489 g / cm^3
# Si number density = 17.444599 Si / 1000 Ang^3
#
#
#
# Elastic Constant Matrix: (Units=GPa)
#
#
# Indices 1 2 3 4 5 6 
#
# 1 71.0085 26.3336 32.3352 0.0000 0.0000 0.0000
# 2 26.3336 71.0085 32.3352 0.0000 0.0000 0.0000
# 3 32.3352 32.3352 97.5183 0.0000 0.0000 0.0000
# 4 0.0000 0.0000 0.0000 14.1115 0.0000 0.0000
# 5 0.0000 0.0000 0.0000 0.0000 14.1115 0.0000
# 6 0.0000 0.0000 0.0000 0.0000 0.0000 22.3375
#
#
#
# Elastic Compliance Matrix: (Units=1/GPa)
#
#
# Indices 1 2 3 4 5 6 
#
# 1 0.017780 -0.004604 -0.004369 0.000000 0.000000 0.000000
# 2 -0.004604 0.017780 -0.004369 0.000000 0.000000 0.000000
# 3 -0.004369 -0.004369 0.013152 0.000000 0.000000 0.000000
# 4 0.000000 0.000000 0.000000 0.070864 0.000000 0.000000
# 5 0.000000 0.000000 0.000000 0.000000 0.070864 0.000000
# 6 0.000000 0.000000 0.000000 0.000000 0.000000 0.044768
#
#
# Mechanical properties :
#
#
# Convention : Reuss Voigt Hill
#
# Bulk Modulus (GPa) = 45.39748 46.83816 46.11782
# Shear Modulus (GPa) = 18.57125 20.01418 19.29272
#
# Velocity S-wave (km/s) = 3.26634 3.39086 3.32918
# Velocity P-wave (km/s) = 6.34867 6.49911 6.42433
#
# Compressibility (1/GPa) = 0.02202766
#
# Stress axis : x y z
#
# Youngs Moduli (GPa) = 56.24394 56.24394 76.03599
#
# Poissons Ratio (x) = 0.25896 0.33218
# Poissons Ratio (y) = 0.25896 0.33218
# Poissons Ratio (z) = 0.24571 0.24571
#
# Static dielectric constant tensor:
#      x y z
#    x 1.616280 0.000000 0.000000 
#    y 0.000000 1.616280 0.000000 
#    z 0.000000 0.000000 1.637960 
# 
# From -- ./inp_files/5442.got.cif
#   From: 2010.05.17/outbox.cif.g08.bks.cpg/sg192_3_cif.got.tgz:5442.got - 2010.05.20 12:28:01.
