data_PCOD9588274
_publ_section_title
;
Structure prediction by ZEFSAII (Michael W. Deem and Ramdas Pophale) SiO2 
 PCOD9588274
Probable space group: P 6/M M M
;
_chemical_formula_sum "Si O2"
_cell_formula_units_Z 168
_cell_length_a 27.000000
_cell_length_b 27.000000
_cell_length_c 15.000000
_cell_angle_alpha 90.000000
_cell_angle_beta 90.000000
_cell_angle_gamma 120.000000
_cell_volume 9469.987790
_symmetry_space_group_name_H-M "P 6/M M M"
_symmetry_group_IT_number 191
_symmetry_cell_setting 'hexagonal'
loop_
_space_group_symop_operation_xyz
x,y,z
x-y,x,z
-y,x-y,z
-x,-y,z
-x+y,-x,z
y,-x+y,z
x-y,-y,-z
-x,-x+y,-z
y,x,-z
-y,-x,-z
-x+y,y,-z
x,x-y,-z
-x,-y,-z
-x+y,-x,-z
y,-x+y,-z
x,y,-z
x-y,x,-z
-y,x-y,-z
-x+y,y,z
x,x-y,z
-y,-x,z
y,x,z
x-y,-y,z
-x,-x+y,z
loop_
_atom_site_type_symbol
_atom_site_label
_atom_site_fract_x
_atom_site_fract_y
_atom_site_fract_z
Si Si1 0.331248 0.551313 0.500000
Si Si2 0.370590 0.066439 0.895432
Si Si3 0.466230 0.932459 0.608656
Si Si4 0.666381 0.447949 0.840416
Si Si5 0.362106 0.122338 0.279034
Si Si6 0.515202 0.851978 0.333821
Si Si7 0.752150 0.933722 0.393951
Si Si8 0.600617 0.506539 0.100302
O O1 0.395450 0.604551 0.500000
O O2 0.287019 0.574037 0.500000
O O3 0.320685 0.511032 0.416434
O O4 0.356705 0.101183 0.823123
O O5 0.430513 0.071490 0.863068
O O6 0.323228 0.000000 0.893412
O O7 0.377752 0.085583 0.000000
O O8 0.462692 0.925384 0.500000
O O9 0.402251 0.900949 0.649044
O O10 0.500000 0.000000 0.627107
O O11 0.727922 0.455844 0.863067
O O12 0.618905 0.381096 0.833077
O O13 0.668519 0.480671 0.749635
O O14 0.639533 0.476570 0.903534
O O15 0.372811 0.186406 0.280661
O O16 0.417662 0.123576 0.320873
O O17 0.304547 0.083939 0.335600
O O18 0.738680 0.929882 0.500000
O O19 0.769338 0.884669 0.376289
O O20 0.799410 0.000000 0.375738
O O21 0.540616 0.459385 0.143700
O O22 0.587197 0.515958 0.000000
#
# Coordination Sequence:
#
# PCOD9588274 Si02
#       8
#    12  24  12  24  24  24  24  24
#     4  12  23  38  58  76 104 140 183 232 285 343
#     4  10  21  37  57  80 106 137 179 232 284 337
#     4  11  24  44  62  76 101 139 177 223 286 344
#     4  11  21  35  53  74 101 131 169 214 268 328
#     4  11  23  37  56  83 113 151 191 230 281 333
#     4  12  22  39  53  78 105 135 176 227 276 332
#     4   9  19  36  59  88 122 157 193 230 268 316
#     4   9  19  35  52  71  97 129 167 215 272 335
#
# _framework density 17.740255000000001
#
# number of rings (size 3 to 8) (size 9 to 14) (size 15 to 20)
#    0.000    1.500    3.571    1.929    1.000    2.000 
#    0.000    5.714    0.000    1.000    0.000    1.000 
#    0.000    0.000    0.000    0.000    0.000    0.000 
#
# Total GULP energy -937186.239749 kJ/mol
# GULP energy per Si atom -5578.489522 kJ/mol
# Density = 1.769988 g / cm^3
# Si number density = 17.740255 Si / 1000 Ang^3
#
#
#
# Elastic Constant Matrix: (Units=GPa)
#
#
# Indices 1 2 3 4 5 6 
#
# 1 93.1187 55.1168 28.7632 0.0000 0.0000 0.0000
# 2 55.1168 93.1187 28.7632 0.0000 0.0000 0.0000
# 3 28.7632 28.7632 80.5082 0.0000 0.0000 0.0000
# 4 0.0000 0.0000 0.0000 28.8019 0.0000 0.0000
# 5 0.0000 0.0000 0.0000 0.0000 28.8019 0.0000
# 6 0.0000 0.0000 0.0000 0.0000 0.0000 19.0009
#
#
#
# Elastic Compliance Matrix: (Units=1/GPa)
#
#
# Indices 1 2 3 4 5 6 
#
# 1 0.017073 -0.009241 -0.002798 0.000000 0.000000 0.000000
# 2 -0.009241 0.017073 -0.002798 0.000000 0.000000 0.000000
# 3 -0.002798 -0.002798 0.014420 0.000000 0.000000 0.000000
# 4 0.000000 0.000000 0.000000 0.034720 0.000000 0.000000
# 5 0.000000 0.000000 0.000000 0.000000 0.034720 0.000000
# 6 0.000000 0.000000 0.000000 0.000000 0.000000 0.052629
#
#
# Mechanical properties :
#
#
# Convention : Reuss Voigt Hill
#
# Bulk Modulus (GPa) = 52.93296 54.67024 53.80160
# Shear Modulus (GPa) = 24.20043 25.59446 24.89745
#
# Velocity S-wave (km/s) = 3.69745 3.80245 3.75032
# Velocity P-wave (km/s) = 6.93763 7.08252 7.01045
#
# Compressibility (1/GPa) = 0.01889182
#
# Stress axis : x y z
#
# Youngs Moduli (GPa) = 58.57135 58.57135 69.34596
#
# Poissons Ratio (x) = 0.54128 0.19404
# Poissons Ratio (y) = 0.54128 0.19404
# Poissons Ratio (z) = 0.16389 0.16389
#
# Static dielectric constant tensor:
#      x y z
#    x 1.601850 0.000000 0.000000 
#    y 0.000000 1.601850 0.000000 
#    z 0.000000 0.000000 1.594270 
# 
# From -- ./inp_files/5351.got.cif
#   From: 2010.05.17/outbox.ucp.g08.bks.cvg/sg191_3_cif.got.tgz:5351.got - 2010.06.11 15:22:43.
