data_PCOD9588923
_publ_section_title
;
Structure prediction by ZEFSAII (Michael W. Deem and Ramdas Pophale) SiO2 
 PCOD9588923
Probable space group: P 63/M C M
;
_chemical_formula_sum "Si O2"
_cell_formula_units_Z 120
_cell_length_a 23.718465
_cell_length_b 23.718465
_cell_length_c 14.133222
_cell_angle_alpha 90.000000
_cell_angle_beta 90.000000
_cell_angle_gamma 120.000000
_cell_volume 6885.650431
_symmetry_space_group_name_H-M "P 63/M C M"
_symmetry_group_IT_number 193
_symmetry_cell_setting 'hexagonal'
loop_
_space_group_symop_operation_xyz
x,y,z
x-y,x,1/2+z
-y,x-y,z
-x,-y,1/2+z
-x+y,-x,z
y,-x+y,1/2+z
x-y,-y,1/2-z
-x,-x+y,1/2-z
y,x,1/2-z
-y,-x,-z
-x+y,y,-z
x,x-y,-z
-x,-y,-z
-x+y,-x,1/2-z
y,-x+y,-z
x,y,1/2-z
x-y,x,-z
-y,x-y,1/2-z
-x+y,y,1/2+z
x,x-y,1/2+z
-y,-x,1/2+z
y,x,z
x-y,-y,z
-x,-x+y,z
loop_
_atom_site_type_symbol
_atom_site_label
_atom_site_fract_x
_atom_site_fract_y
_atom_site_fract_z
Si Si1 0.187507 0.374716 0.863003
Si Si2 0.763647 0.476187 0.364903
Si Si3 0.928816 0.402618 0.451092
Si Si4 0.725822 0.649480 0.507775
Si Si5 0.802978 0.378228 0.137768
O O1 0.189434 0.369054 0.750000
O O2 0.213284 0.450170 0.890644
O O3 0.114406 0.340384 0.905159
O O4 0.233456 0.353077 0.917169
O O5 0.766051 0.477337 0.250000
O O6 0.803727 0.442337 0.400609
O O7 0.689092 0.431492 0.395169
O O8 0.929859 0.464930 0.500000
O O9 0.921114 0.341778 0.512907
O O10 0.868031 0.376495 0.382293
O O11 0.000000 0.431983 0.404357
O O12 0.702458 0.702458 0.501803
O O13 0.795824 0.379483 0.250000
#
# Coordination Sequence:
#
# PCOD9588923 Si02
#       5
#    24  24  24  24  24
#     4  10  20  36  56  78 106 139 178 222 269 322
#     4   9  17  29  46  68  94 128 167 217 276 330
#     4  10  20  33  47  66  96 129 166 215 266 321
#     4  10  21  36  55  78 107 140 177 222 270 321
#     4  10  18  30  47  67  92 123 164 213 270 330
#
# _framework density 17.427548000000002
#
# number of rings (size 3 to 8) (size 9 to 14) (size 15 to 20)
#    0.000    2.200    2.000    1.600    0.000    2.800 
#    0.000    2.000    0.000    7.200    0.000    0.000 
#    0.000    0.000    0.000   19.200    0.000   41.600 
#
# Total GULP energy -668847.684700 kJ/mol
# GULP energy per Si atom -5573.730706 kJ/mol
# Density = 1.738788 g / cm^3
# Si number density = 17.427548 Si / 1000 Ang^3
#
#
#
# Elastic Constant Matrix: (Units=GPa)
#
#
# Indices 1 2 3 4 5 6 
#
# 1 88.9390 43.7472 18.8392 0.0000 0.0000 0.0000
# 2 43.7472 88.9390 18.8392 0.0000 0.0000 0.0000
# 3 18.8392 18.8392 71.4108 0.0000 0.0000 0.0000
# 4 0.0000 0.0000 0.0000 15.9769 0.0000 0.0000
# 5 0.0000 0.0000 0.0000 0.0000 15.9769 0.0000
# 6 0.0000 0.0000 0.0000 0.0000 0.0000 22.5959
#
#
#
# Elastic Compliance Matrix: (Units=1/GPa)
#
#
# Indices 1 2 3 4 5 6 
#
# 1 0.015137 -0.006991 -0.002149 0.000000 0.000000 0.000000
# 2 -0.006991 0.015137 -0.002149 0.000000 0.000000 0.000000
# 3 -0.002149 -0.002149 0.015138 0.000000 0.000000 0.000000
# 4 0.000000 0.000000 0.000000 0.062590 0.000000 0.000000
# 5 0.000000 0.000000 0.000000 0.000000 0.062590 0.000000
# 6 0.000000 0.000000 0.000000 0.000000 0.000000 0.044256
#
#
# Mechanical properties :
#
#
# Convention : Reuss Voigt Hill
#
# Bulk Modulus (GPa) = 43.79390 45.79332 44.79361
# Shear Modulus (GPa) = 20.40497 22.10082 21.25290
#
# Velocity S-wave (km/s) = 3.42547 3.56498 3.49592
# Velocity P-wave (km/s) = 6.38975 6.57867 6.48489
#
# Compressibility (1/GPa) = 0.02283423
#
# Stress axis : x y z
#
# Youngs Moduli (GPa) = 66.06147 66.06147 66.06110
#
# Poissons Ratio (x) = 0.46180 0.14198
# Poissons Ratio (y) = 0.46180 0.14198
# Poissons Ratio (z) = 0.14198 0.14198
#
# Static dielectric constant tensor:
#      x y z
#    x 1.605090 0.000000 0.000000 
#    y 0.000000 1.605090 0.000000 
#    z 0.000000 0.000000 1.631650 
# 
# From -- ./inp_files/4000.got.cif
#   From: 2010.05.17/outbox.cif.g08.bks.cpg/sg193_2_cif.got.tgz:4000.got - 2010.05.20 12:33:02.
