data_PCOD9588096
_publ_section_title
;
Structure prediction by ZEFSAII (Michael W. Deem and Ramdas Pophale) SiO2 
 PCOD9588096
Probable space group: P 6/M M M
;
_chemical_formula_sum "Si O2"
_cell_formula_units_Z 108
_cell_length_a 18.394893
_cell_length_b 18.394893
_cell_length_c 24.768879
_cell_angle_alpha 90.000000
_cell_angle_beta 90.000000
_cell_angle_gamma 120.000000
_cell_volume 7258.243188
_symmetry_space_group_name_H-M "P 6/M M M"
_symmetry_group_IT_number 191
_symmetry_cell_setting 'hexagonal'
loop_
_space_group_symop_operation_xyz
x,y,z
x-y,x,z
-y,x-y,z
-x,-y,z
-x+y,-x,z
y,-x+y,z
x-y,-y,-z
-x,-x+y,-z
y,x,-z
-y,-x,-z
-x+y,y,-z
x,x-y,-z
-x,-y,-z
-x+y,-x,-z
y,-x+y,-z
x,y,-z
x-y,x,-z
-y,x-y,-z
-x+y,y,z
x,x-y,z
-y,-x,z
y,x,z
x-y,-y,z
-x,-x+y,z
loop_
_atom_site_type_symbol
_atom_site_label
_atom_site_fract_x
_atom_site_fract_y
_atom_site_fract_z
Si Si1 0.736172 0.094445 0.652771
Si Si2 0.836383 0.333905 0.436575
Si Si3 0.161925 0.667095 0.130376
Si Si4 0.588368 0.000000 0.062021
Si Si5 0.163555 0.666206 0.257133
O O1 0.833235 0.166766 0.652588
O O2 0.692592 0.110427 0.600999
O O3 0.692852 0.111551 0.704233
O O4 0.716874 0.000000 0.653185
O O5 0.856703 0.335851 0.500000
O O6 0.846840 0.423420 0.421766
O O7 0.739386 0.260615 0.429548
O O8 0.177591 0.588796 0.121314
O O9 0.245968 0.754033 0.118899
O O10 0.141544 0.664734 0.194069
O O11 0.083737 0.651879 0.094039
O O12 0.500000 0.000000 0.062078
O O13 0.612701 0.000000 0.000000
O O14 0.152769 0.576385 0.271433
O O15 0.260961 0.739040 0.263114
#
# Coordination Sequence:
#
# PCOD9588096 Si02
#       5
#    24  24  24  12  24
#     4  10  21  34  47  65  88 115 147 185 230 275
#     4   9  17  29  45  66  94 128 161 188 214 250
#     4   9  17  29  45  64  87 118 153 187 220 259
#     4   9  18  30  42  60  86 114 146 186 228 260
#     4   9  17  28  44  66  92 120 149 179 211 251
#
# _framework density 14.879633999999999
#
# number of rings (size 3 to 8) (size 9 to 14) (size 15 to 20)
#    0.000    2.778    0.000    1.333    1.556    5.333 
#    0.000    3.333    0.000    1.556    0.000    0.000 
#    0.000    0.000    0.000    5.889    0.000    1.444 
#
# Total GULP energy -602149.712938 kJ/mol
# GULP energy per Si atom -5575.460305 kJ/mol
# Density = 1.484577 g / cm^3
# Si number density = 14.879634 Si / 1000 Ang^3
#
#
#
# Elastic Constant Matrix: (Units=GPa)
#
#
# Indices 1 2 3 4 5 6 
#
# 1 79.5654 59.9471 47.5063 0.0000 0.0000 0.0000
# 2 59.9471 79.5654 47.5063 0.0000 0.0000 0.0000
# 3 47.5063 47.5063 64.0893 0.0000 0.0000 0.0000
# 4 0.0000 0.0000 0.0000 16.7767 0.0000 0.0000
# 5 0.0000 0.0000 0.0000 0.0000 16.7767 0.0000
# 6 0.0000 0.0000 0.0000 0.0000 0.0000 9.8092
#
#
#
# Elastic Compliance Matrix: (Units=1/GPa)
#
#
# Indices 1 2 3 4 5 6 
#
# 1 0.032724 -0.018249 -0.010730 0.000000 0.000000 0.000000
# 2 -0.018249 0.032724 -0.010730 0.000000 0.000000 0.000000
# 3 -0.010730 -0.010730 0.031510 0.000000 0.000000 0.000000
# 4 0.000000 0.000000 0.000000 0.059606 0.000000 0.000000
# 5 0.000000 0.000000 0.000000 0.000000 0.059606 0.000000
# 6 0.000000 0.000000 0.000000 0.000000 0.000000 0.101946
#
#
# Mechanical properties :
#
#
# Convention : Reuss Voigt Hill
#
# Bulk Modulus (GPa) = 57.00778 59.23772 58.12275
# Shear Modulus (GPa) = 12.39527 13.22322 12.80924
#
# Velocity S-wave (km/s) = 2.88937 2.98431 2.93722
# Velocity P-wave (km/s) = 7.03755 7.19531 7.11686
#
# Compressibility (1/GPa) = 0.01754147
#
# Stress axis : x y z
#
# Youngs Moduli (GPa) = 30.55868 30.55868 31.73596
#
# Poissons Ratio (x) = 0.55766 0.34052
# Poissons Ratio (y) = 0.55766 0.34052
# Poissons Ratio (z) = 0.32788 0.32788
#
# Static dielectric constant tensor:
#      x y z
#    x 1.473510 0.000000 0.000000 
#    y 0.000000 1.473510 0.000000 
#    z 0.000000 0.000000 1.509530 
# 
# From -- ./inp_files/8336.got.cif
#   From: 2010.05.17/outbox.cif.g08.bks.cpg/sg191_5_cif.got.tgz:8336.got - 2010.05.20 12:20:32.
