data_PCOD9588586
_publ_section_title
;
Structure prediction by ZEFSAII (Michael W. Deem and Ramdas Pophale) SiO2 
 PCOD9588586
Probable space group: P 6/M C C
;
_chemical_formula_sum "Si O2"
_cell_formula_units_Z 144
_cell_length_a 32.116486
_cell_length_b 32.116486
_cell_length_c 8.650656
_cell_angle_alpha 90.000000
_cell_angle_beta 90.000000
_cell_angle_gamma 120.000000
_cell_volume 7727.441331
_symmetry_space_group_name_H-M "P 6/M C C"
_symmetry_group_IT_number 192
_symmetry_cell_setting 'hexagonal'
loop_
_space_group_symop_operation_xyz
x,y,z
x-y,x,z
-y,x-y,z
-x,-y,z
-x+y,-x,z
y,-x+y,z
x-y,-y,1/2-z
-x,-x+y,1/2-z
y,x,1/2-z
-y,-x,1/2-z
-x+y,y,1/2-z
x,x-y,1/2-z
-x,-y,-z
-x+y,-x,-z
y,-x+y,-z
x,y,-z
x-y,x,-z
-y,x-y,-z
-x+y,y,1/2+z
x,x-y,1/2+z
-y,-x,1/2+z
y,x,1/2+z
x-y,-y,1/2+z
-x,-x+y,1/2+z
loop_
_atom_site_type_symbol
_atom_site_label
_atom_site_fract_x
_atom_site_fract_y
_atom_site_fract_z
Si Si1 0.666732 0.240378 0.683897
Si Si2 0.332175 0.851575 0.185915
Si Si3 0.478969 0.427809 0.185297
Si Si4 0.710655 0.762539 0.685067
Si Si5 0.381122 0.237118 0.814417
Si Si6 0.803619 0.855836 0.814547
O O1 0.715442 0.284559 0.750000
O O2 0.621306 0.242612 0.750000
O O3 0.666974 0.243744 0.500000
O O4 0.663331 0.190702 0.734369
O O5 0.376725 0.903630 0.228737
O O6 0.281840 0.848392 0.223956
O O7 0.333932 0.846391 0.000000
O O8 0.438155 0.438155 0.250000
O O9 0.529302 0.470699 0.250000
O O10 0.479600 0.431327 0.000000
O O11 0.722982 0.722982 0.750000
O O12 0.713762 0.763938 0.500000
O O13 0.659959 0.754580 0.741649
O O14 0.752370 0.813277 0.752870
O O15 0.376345 0.188172 0.750000
O O16 0.375814 0.234118 0.000000
O O17 0.842270 0.842270 0.750000
O O18 0.811873 0.905937 0.750000
O O19 0.803460 0.855402 0.000000
#
# Coordination Sequence:
#
# PCOD9588586 Si02
#       6
#    24  24  24  24  24  24
#     4  12  25  42  65  91 121 153 191 237 289 346
#     4  10  23  41  61  87 119 154 195 239 287 342
#     4  10  20  36  58  85 115 149 189 236 285 338
#     4  11  22  38  59  85 115 150 192 240 291 343
#     4  11  23  40  59  83 116 154 194 237 284 342
#     4  11  21  36  57  84 115 150 191 238 290 344
#
# _framework density 18.634886999999999
#
# number of rings (size 3 to 8) (size 9 to 14) (size 15 to 20)
#    0.000    1.167    0.000    8.667    0.000    6.000 
#    0.000    1.667    0.000    0.167    0.000    1.167 
#    0.000    0.000    0.000    0.000    0.000    0.000 
#
# Total GULP energy -805572.700953 kJ/mol
# GULP energy per Si atom -5594.254868 kJ/mol
# Density = 1.859247 g / cm^3
# Si number density = 18.634887 Si / 1000 Ang^3
#
#
#
# Elastic Constant Matrix: (Units=GPa)
#
#
# Indices 1 2 3 4 5 6 
#
# 1 127.5519 71.6552 61.5959 0.0000 0.0000 0.0000
# 2 71.6552 127.5519 61.5959 0.0000 0.0000 0.0000
# 3 61.5959 61.5959 128.7347 0.0000 0.0000 0.0000
# 4 0.0000 0.0000 0.0000 36.1614 0.0000 0.0000
# 5 0.0000 0.0000 0.0000 0.0000 36.1614 0.0000
# 6 0.0000 0.0000 0.0000 0.0000 0.0000 27.9483
#
#
#
# Elastic Compliance Matrix: (Units=1/GPa)
#
#
# Indices 1 2 3 4 5 6 
#
# 1 0.012510 -0.005380 -0.003411 0.000000 0.000000 0.000000
# 2 -0.005380 0.012510 -0.003411 0.000000 0.000000 0.000000
# 3 -0.003411 -0.003411 0.011032 0.000000 0.000000 0.000000
# 4 0.000000 0.000000 0.000000 0.027654 0.000000 0.000000
# 5 0.000000 0.000000 0.000000 0.000000 0.027654 0.000000
# 6 0.000000 0.000000 0.000000 0.000000 0.000000 0.035780
#
#
# Mechanical properties :
#
#
# Convention : Reuss Voigt Hill
#
# Bulk Modulus (GPa) = 85.86479 85.94806 85.90643
# Shear Modulus (GPa) = 32.16935 32.65368 32.41151
#
# Velocity S-wave (km/s) = 4.15938 4.19057 4.17501
# Velocity P-wave (km/s) = 8.32134 8.34487 8.33311
#
# Compressibility (1/GPa) = 0.01164622
#
# Stress axis : x y z
#
# Youngs Moduli (GPa) = 79.93735 79.93735 90.64317
#
# Poissons Ratio (x) = 0.43009 0.30921
# Poissons Ratio (y) = 0.43009 0.30921
# Poissons Ratio (z) = 0.27269 0.27269
#
# Static dielectric constant tensor:
#      x y z
#    x 1.618920 0.000000 0.000000 
#    y 0.000000 1.618920 0.000000 
#    z 0.000000 0.000000 1.625670 
# 
# From -- ./inp_files/1216.got.cif
#   From: 2010.05.17/outbox.cif.g08.bks.cpg/sg192_1_cif.got.tgz:1216.got - 2010.05.20 12:28:01.
