data_PCOD9588678
_publ_section_title
;
Structure prediction by ZEFSAII (Michael W. Deem and Ramdas Pophale) SiO2 
 PCOD9588678
Probable space group: P 6/M C C
;
_chemical_formula_sum "Si O2"
_cell_formula_units_Z 96
_cell_length_a 16.812292
_cell_length_b 16.812292
_cell_length_c 19.846581
_cell_angle_alpha 90.000000
_cell_angle_beta 90.000000
_cell_angle_gamma 120.000000
_cell_volume 4858.141738
_symmetry_space_group_name_H-M "P 6/M C C"
_symmetry_group_IT_number 192
_symmetry_cell_setting 'hexagonal'
loop_
_space_group_symop_operation_xyz
x,y,z
x-y,x,z
-y,x-y,z
-x,-y,z
-x+y,-x,z
y,-x+y,z
x-y,-y,1/2-z
-x,-x+y,1/2-z
y,x,1/2-z
-y,-x,1/2-z
-x+y,y,1/2-z
x,x-y,1/2-z
-x,-y,-z
-x+y,-x,-z
y,-x+y,-z
x,y,-z
x-y,x,-z
-y,x-y,-z
-x+y,y,1/2+z
x,x-y,1/2+z
-y,-x,1/2+z
y,x,1/2+z
x-y,-y,1/2+z
-x,-x+y,1/2+z
loop_
_atom_site_type_symbol
_atom_site_label
_atom_site_fract_x
_atom_site_fract_y
_atom_site_fract_z
Si Si1 0.485872 0.151929 0.500000
Si Si2 0.402424 0.992382 0.116560
Si Si3 0.668697 0.139572 0.500000
Si Si4 0.129646 0.217318 0.573355
Si Si5 0.082606 0.770454 0.706648
O O1 0.440787 0.092043 0.434068
O O2 0.586832 0.163178 0.500000
O O3 0.476720 0.240608 0.500000
O O4 0.334843 0.967071 0.179776
O O5 0.500000 0.000000 0.133467
O O6 0.423657 0.079076 0.067776
O O7 0.165516 0.145213 0.575711
O O8 0.157985 0.265070 0.500000
O O9 0.171616 0.279195 0.638122
O O10 0.176898 0.823103 0.750000
O O11 0.000000 0.769576 0.750000
#
# Coordination Sequence:
#
# PCOD9588678 Si02
#       5
#    12  24  12  24  24
#     4   9  18  35  64  95 127 157 212 265 334 391
#     4   9  22  41  59  90 126 168 214 268 336 394
#     4   9  18  35  64  97 129 165 212 275 326 403
#     4  10  21  38  59  86 123 168 212 255 305 368
#     4  12  25  40  60  91 128 166 218 265 326 395
#
# _framework density 19.760642000000001
#
# number of rings (size 3 to 8) (size 9 to 14) (size 15 to 20)
#    0.000    2.000    2.500    2.000    7.000    1.500 
#    0.000    0.000    0.000    0.000    0.000    0.000 
#    0.000    0.000    0.000    0.000    0.000    0.000 
#
# Total GULP energy -535484.987781 kJ/mol
# GULP energy per Si atom -5577.968623 kJ/mol
# Density = 1.971567 g / cm^3
# Si number density = 19.760642 Si / 1000 Ang^3
#
#
#
# Elastic Constant Matrix: (Units=GPa)
#
#
# Indices 1 2 3 4 5 6 
#
# 1 41.0402 101.7100 60.3488 0.0000 0.0000 0.0000
# 2 101.7100 41.0402 60.3488 0.0000 0.0000 0.0000
# 3 60.3488 60.3488 152.9754 0.0000 0.0000 0.0000
# 4 0.0000 0.0000 0.0000 28.3758 0.0000 0.0000
# 5 0.0000 0.0000 0.0000 0.0000 28.3758 0.0000
# 6 0.0000 0.0000 0.0000 0.0000 0.0000 -30.3349
#
#
#
# Elastic Compliance Matrix: (Units=1/GPa)
#
#
# Indices 1 2 3 4 5 6 
#
# 1 -0.002986 0.013497 -0.004147 0.000000 0.000000 0.000000
# 2 0.013497 -0.002986 -0.004147 0.000000 0.000000 0.000000
# 3 -0.004147 -0.004147 0.009809 0.000000 0.000000 0.000000
# 4 0.000000 0.000000 0.000000 0.035241 0.000000 0.000000
# 5 0.000000 0.000000 0.000000 0.000000 0.035241 0.000000
# 6 0.000000 0.000000 0.000000 0.000000 0.000000 -0.032965
#
#
# Mechanical properties :
#
#
# Convention : Reuss Voigt Hill
#
# Bulk Modulus (GPa) = 70.20216 75.54124 72.87170
# Shear Modulus (GPa) = 140.07225 6.12655 73.09940
#
# Velocity S-wave (km/s) = 8.42842 1.76270 6.08874
# Velocity P-wave (km/s) = 11.41583 6.51567 9.29449
#
# Compressibility (1/GPa) = 0.01424457
#
# Stress axis : x y z
#
# Youngs Moduli (GPa) = -334.93593 -334.93593 101.94946
#
# Poissons Ratio (x) = 4.52064 0.42276
# Poissons Ratio (y) = 4.52064 0.42276
# Poissons Ratio (z) = -1.38889 -1.38889
#
# Static dielectric constant tensor:
#      x y z
#    x 1.723350 0.000000 0.000000 
#    y 0.000000 1.723350 0.000000 
#    z 0.000000 0.000000 1.738370 
# 
# From -- ./inp_files/4785.got.cif
#   From: 2010.05.17/outbox.cif.g08.bks.cpg/sg192_3_cif.got.tgz:4785.got - 2010.05.20 12:28:01.
