data_PCOD9588774
_publ_section_title
;
Structure prediction by ZEFSAII (Michael W. Deem and Ramdas Pophale) SiO2 
 PCOD9588774
Probable space group: P 6/M C C
;
_chemical_formula_sum "Si O2"
_cell_formula_units_Z 114
_cell_length_a 20.632426
_cell_length_b 20.632426
_cell_length_c 15.233599
_cell_angle_alpha 90.000000
_cell_angle_beta 90.000000
_cell_angle_gamma 120.000000
_cell_volume 5616.085919
_symmetry_space_group_name_H-M "P 6/M C C"
_symmetry_group_IT_number 192
_symmetry_cell_setting 'hexagonal'
loop_
_space_group_symop_operation_xyz
x,y,z
x-y,x,z
-y,x-y,z
-x,-y,z
-x+y,-x,z
y,-x+y,z
x-y,-y,1/2-z
-x,-x+y,1/2-z
y,x,1/2-z
-y,-x,1/2-z
-x+y,y,1/2-z
x,x-y,1/2-z
-x,-y,-z
-x+y,-x,-z
y,-x+y,-z
x,y,-z
x-y,x,-z
-y,x-y,-z
-x+y,y,1/2+z
x,x-y,1/2+z
-y,-x,1/2+z
y,x,1/2+z
x-y,-y,1/2+z
-x,-x+y,1/2+z
loop_
_atom_site_type_symbol
_atom_site_label
_atom_site_fract_x
_atom_site_fract_y
_atom_site_fract_z
Si Si1 0.000000 0.500000 0.500000
Si Si2 0.428921 0.697394 0.000000
Si Si3 0.668201 0.909746 0.894274
Si Si4 0.045474 0.879430 0.107592
Si Si5 0.589035 0.617046 0.157181
Si Si6 0.201100 0.743419 0.340481
O O1 0.022200 0.564155 0.422622
O O2 0.387261 0.746348 0.000000
O O3 0.480264 0.715042 0.084252
O O4 0.750939 0.931819 0.864000
O O5 0.609327 0.826221 0.863899
O O6 0.647598 0.971037 0.862341
O O7 0.666868 0.909864 0.000000
O O8 0.962444 0.856672 0.136169
O O9 0.045498 0.879432 0.000000
O O10 0.575257 0.575257 0.250000
O O11 0.572063 0.685037 0.166262
O O12 0.245102 0.754899 0.250000
#
# Coordination Sequence:
#
# PCOD9588774 Si02
#       6
#     6  12  24  24  24  24
#     4  12  28  48  68 100 138 186 226 308 346 454
#     4  10  27  52  72 105 132 181 230 282 361 439
#     4  11  22  40  69 100 141 186 239 296 354 423
#     4   9  17  30  54  92 135 184 236 292 350 407
#     4  12  26  47  70 109 143 187 240 289 371 430
#     4  12  25  45  75 105 146 186 236 300 354 440
#
# _framework density 20.298836000000001
#
# number of rings (size 3 to 8) (size 9 to 14) (size 15 to 20)
#    0.211    0.842    4.211    2.421    0.000    6.737 
#    3.789    0.000    0.000    0.000    0.000    0.000 
#    0.000    0.000    0.000    0.000    0.000    0.000 
#
# Total GULP energy -635924.867727 kJ/mol
# GULP energy per Si atom -5578.288313 kJ/mol
# Density = 2.025263 g / cm^3
# Si number density = 20.298836 Si / 1000 Ang^3
#
#
#
# Elastic Constant Matrix: (Units=GPa)
#
#
# Indices 1 2 3 4 5 6 
#
# 1 124.8936 83.9332 56.0027 0.0000 0.0000 0.0000
# 2 83.9332 124.8936 56.0027 0.0000 0.0000 0.0000
# 3 56.0027 56.0027 151.4309 0.0000 0.0000 0.0000
# 4 0.0000 0.0000 0.0000 5.8882 0.0000 0.0000
# 5 0.0000 0.0000 0.0000 0.0000 5.8882 0.0000
# 6 0.0000 0.0000 0.0000 0.0000 0.0000 20.4802
#
#
#
# Elastic Compliance Matrix: (Units=1/GPa)
#
#
# Indices 1 2 3 4 5 6 
#
# 1 0.015194 -0.009220 -0.002209 0.000000 0.000000 0.000000
# 2 -0.009220 0.015194 -0.002209 0.000000 0.000000 0.000000
# 3 -0.002209 -0.002209 0.008238 0.000000 0.000000 0.000000
# 4 0.000000 0.000000 0.000000 0.169832 0.000000 0.000000
# 5 0.000000 0.000000 0.000000 0.000000 0.169832 0.000000
# 6 0.000000 0.000000 0.000000 0.000000 0.000000 0.048828
#
#
# Mechanical properties :
#
#
# Convention : Reuss Voigt Hill
#
# Bulk Modulus (GPa) = 88.12022 88.12172 88.12097
# Shear Modulus (GPa) = 10.91286 20.13662 15.52474
#
# Velocity S-wave (km/s) = 2.32116 3.15303 2.76852
# Velocity P-wave (km/s) = 7.11965 7.53405 7.32978
#
# Compressibility (1/GPa) = 0.01134813
#
# Stress axis : x y z
#
# Youngs Moduli (GPa) = 65.81688 65.81688 121.39355
#
# Poissons Ratio (x) = 0.60684 0.26818
# Poissons Ratio (y) = 0.60684 0.26818
# Poissons Ratio (z) = 0.14540 0.14540
#
# Static dielectric constant tensor:
#      x y z
#    x 1.682930 0.000000 0.000000 
#    y 0.000000 1.682930 0.000000 
#    z 0.000000 0.000000 1.738770 
# 
# From -- ./inp_files/2992.got.cif
#   From: 2010.05.17/outbox.cif.g08.bks.cpg/sg192_2_cif.got.tgz:2992.got - 2010.05.20 12:28:01.
