data_PCOD9588826
_publ_section_title
;
Structure prediction by ZEFSAII (Michael W. Deem and Ramdas Pophale) SiO2 
 PCOD9588826
Probable space group: P 6/M C C
;
_chemical_formula_sum "Si O2"
_cell_formula_units_Z 96
_cell_length_a 14.080598
_cell_length_b 14.080598
_cell_length_c 24.240846
_cell_angle_alpha 90.000000
_cell_angle_beta 90.000000
_cell_angle_gamma 120.000000
_cell_volume 4162.177560
_symmetry_space_group_name_H-M "P 6/M C C"
_symmetry_group_IT_number 192
_symmetry_cell_setting 'hexagonal'
loop_
_space_group_symop_operation_xyz
x,y,z
x-y,x,z
-y,x-y,z
-x,-y,z
-x+y,-x,z
y,-x+y,z
x-y,-y,1/2-z
-x,-x+y,1/2-z
y,x,1/2-z
-y,-x,1/2-z
-x+y,y,1/2-z
x,x-y,1/2-z
-x,-y,-z
-x+y,-x,-z
y,-x+y,-z
x,y,-z
x-y,x,-z
-y,x-y,-z
-x+y,y,1/2+z
x,x-y,1/2+z
-y,-x,1/2+z
y,x,1/2+z
x-y,-y,1/2+z
-x,-x+y,1/2+z
loop_
_atom_site_type_symbol
_atom_site_label
_atom_site_fract_x
_atom_site_fract_y
_atom_site_fract_z
Si Si1 0.422665 0.550520 0.877248
Si Si2 0.815102 0.748941 0.624686
Si Si3 0.787631 0.234097 0.438106
Si Si4 0.315758 0.884032 0.218133
O O1 0.500000 0.500000 0.884939
O O2 0.456964 0.645331 0.922449
O O3 0.299816 0.459741 0.891288
O O4 0.457519 0.607946 0.817349
O O5 0.792971 0.848882 0.626284
O O6 0.770460 0.668621 0.571774
O O7 0.750879 0.666702 0.674675
O O8 0.747645 0.201838 0.500000
O O9 0.221595 0.778406 0.250000
O O10 0.390165 0.000000 0.250000
#
# Coordination Sequence:
#
# PCOD9588826 Si02
#       4
#    24  24  24  24
#     4  11  26  45  70 104 140 183 247 299 355 439
#     4  11  23  41  67 103 143 186 239 289 348 436
#     4  11  24  45  72 101 141 188 238 302 366 424
#     4  11  23  44  74 102 143 190 235 292 361 431
#
# _framework density 23.064851999999998
#
# number of rings (size 3 to 8) (size 9 to 14) (size 15 to 20)
#    0.000    1.000    2.500    4.500    3.500    5.500 
#    0.000    0.000    0.000    1.500    0.000    0.000 
#    0.000    0.000    0.000    0.000    0.000    0.000 
#
# Total GULP energy -537128.656124 kJ/mol
# GULP energy per Si atom -5595.090168 kJ/mol
# Density = 2.301236 g / cm^3
# Si number density = 23.064852 Si / 1000 Ang^3
#
#
#
# Elastic Constant Matrix: (Units=GPa)
#
#
# Indices 1 2 3 4 5 6 
#
# 1 106.9966 23.7571 44.4288 0.0000 0.0000 0.0000
# 2 23.7571 106.9966 44.4288 0.0000 0.0000 0.0000
# 3 44.4288 44.4288 127.2129 0.0000 0.0000 0.0000
# 4 0.0000 0.0000 0.0000 22.2236 0.0000 0.0000
# 5 0.0000 0.0000 0.0000 0.0000 22.2236 0.0000
# 6 0.0000 0.0000 0.0000 0.0000 0.0000 41.6197
#
#
#
# Elastic Compliance Matrix: (Units=1/GPa)
#
#
# Indices 1 2 3 4 5 6 
#
# 1 0.011021 -0.000993 -0.003502 0.000000 0.000000 0.000000
# 2 -0.000993 0.011021 -0.003502 0.000000 0.000000 0.000000
# 3 -0.003502 -0.003502 0.010307 0.000000 0.000000 0.000000
# 4 0.000000 0.000000 0.000000 0.044997 0.000000 0.000000
# 5 0.000000 0.000000 0.000000 0.000000 0.044997 0.000000
# 6 0.000000 0.000000 0.000000 0.000000 0.000000 0.024027
#
#
# Mechanical properties :
#
#
# Convention : Reuss Voigt Hill
#
# Bulk Modulus (GPa) = 61.14656 62.93731 62.04194
# Shear Modulus (GPa) = 29.79451 32.45282 31.12366
#
# Velocity S-wave (km/s) = 3.59802 3.75510 3.67740
# Velocity P-wave (km/s) = 6.62037 6.79319 6.70733
#
# Compressibility (1/GPa) = 0.01635415
#
# Stress axis : x y z
#
# Youngs Moduli (GPa) = 90.73767 90.73767 97.01998
#
# Poissons Ratio (x) = 0.09008 0.33979
# Poissons Ratio (y) = 0.09008 0.33979
# Poissons Ratio (z) = 0.31779 0.31779
#
# Static dielectric constant tensor:
#      x y z
#    x 1.882550 0.000000 0.000000 
#    y 0.000000 1.882550 0.000000 
#    z 0.000000 0.000000 1.866080 
# 
# From -- ./inp_files/6347.got.cif
#   From: 2010.05.17/outbox.cif.g08.bks.cpg/sg192_4_cif.got.tgz:6347.got - 2010.05.20 12:28:01.
