data_PCOD9588035
_publ_section_title
;
Structure prediction by ZEFSAII (Michael W. Deem and Ramdas Pophale) SiO2 
 PCOD9588035
Probable space group: P 6/M M M
;
_chemical_formula_sum "Si O2"
_cell_formula_units_Z 72
_cell_length_a 23.461678
_cell_length_b 23.461678
_cell_length_c 7.675547
_cell_angle_alpha 90.000000
_cell_angle_beta 90.000000
_cell_angle_gamma 120.000000
_cell_volume 3658.963752
_symmetry_space_group_name_H-M "P 6/M M M"
_symmetry_group_IT_number 191
_symmetry_cell_setting 'hexagonal'
loop_
_space_group_symop_operation_xyz
x,y,z
x-y,x,z
-y,x-y,z
-x,-y,z
-x+y,-x,z
y,-x+y,z
x-y,-y,-z
-x,-x+y,-z
y,x,-z
-y,-x,-z
-x+y,y,-z
x,x-y,-z
-x,-y,-z
-x+y,-x,-z
y,-x+y,-z
x,y,-z
x-y,x,-z
-y,x-y,-z
-x+y,y,z
x,x-y,z
-y,-x,z
y,x,z
x-y,-y,z
-x,-x+y,z
loop_
_atom_site_type_symbol
_atom_site_label
_atom_site_fract_x
_atom_site_fract_y
_atom_site_fract_z
Si Si1 0.542441 0.208885 0.792566
Si Si2 0.434795 0.000000 0.789985
Si Si3 0.709733 0.110173 0.305698
Si Si4 0.919637 0.214887 0.000000
O O1 0.593393 0.186785 0.726354
O O2 0.573445 0.286723 0.771180
O O3 0.469884 0.175954 0.715820
O O4 0.533635 0.194221 0.000000
O O5 0.367059 0.940034 0.726055
O O6 0.500000 0.000000 0.730136
O O7 0.435344 0.000000 0.000000
O O8 0.730144 0.104101 0.500000
O O9 0.752461 0.096812 0.165526
O O10 0.864081 0.135920 0.000000
O O11 0.000000 0.242254 0.000000
#
# Coordination Sequence:
#
# PCOD9588035 Si02
#       4
#    24  12  24  12
#     4  10  20  35  54  78 113 162 220 279 333 381
#     4  11  21  37  61  90 131 179 224 272 325 379
#     4  12  23  39  63  93 127 166 215 265 320 377
#     4  12  26  48  72 101 134 164 200 248 310 385
#
# _framework density 19.677702
#
# number of rings (size 3 to 8) (size 9 to 14) (size 15 to 20)
#    0.000    0.833    5.000    2.833    0.000   10.000 
#    0.000    0.000    0.000    2.167    0.000    0.000 
#    0.000    0.000    0.000    3.000    0.000    0.000 
#
# Total GULP energy -401758.749154 kJ/mol
# GULP energy per Si atom -5579.982627 kJ/mol
# Density = 1.963291 g / cm^3
# Si number density = 19.677702 Si / 1000 Ang^3
#
#
#
# Elastic Constant Matrix: (Units=GPa)
#
#
# Indices 1 2 3 4 5 6 
#
# 1 109.6859 63.9360 27.7444 0.0000 0.0000 0.0000
# 2 63.9360 109.6859 27.7444 0.0000 0.0000 0.0000
# 3 27.7444 27.7444 123.0316 0.0000 0.0000 0.0000
# 4 0.0000 0.0000 0.0000 1.4260 0.0000 0.0000
# 5 0.0000 0.0000 0.0000 0.0000 1.4260 0.0000
# 6 0.0000 0.0000 0.0000 0.0000 0.0000 22.8749
#
#
#
# Elastic Compliance Matrix: (Units=1/GPa)
#
#
# Indices 1 2 3 4 5 6 
#
# 1 0.014032 -0.007826 -0.001400 0.000000 0.000000 0.000000
# 2 -0.007826 0.014032 -0.001400 0.000000 0.000000 0.000000
# 3 -0.001400 -0.001400 0.008759 0.000000 0.000000 0.000000
# 4 0.000000 0.000000 0.000000 0.701272 0.000000 0.000000
# 5 0.000000 0.000000 0.000000 0.000000 0.701272 0.000000
# 6 0.000000 0.000000 0.000000 0.000000 0.000000 0.043716
#
#
# Mechanical properties :
#
#
# Convention : Reuss Voigt Hill
#
# Bulk Modulus (GPa) = 64.20796 64.58367 64.39581
# Shear Modulus (GPa) = 3.31230 20.01061 11.66145
#
# Velocity S-wave (km/s) = 1.29882 3.19237 2.43703
# Velocity P-wave (km/s) = 5.91184 6.81765 6.38084
#
# Compressibility (1/GPa) = 0.01557439
#
# Stress axis : x y z
#
# Youngs Moduli (GPa) = 71.26316 71.26316 114.16462
#
# Poissons Ratio (x) = 0.55767 0.15980
# Poissons Ratio (y) = 0.55767 0.15980
# Poissons Ratio (z) = 0.09975 0.09975
#
# Static dielectric constant tensor:
#      x y z
#    x 1.917310 0.000000 0.000000 
#    y 0.000000 1.917310 0.000000 
#    z 0.000000 0.000000 1.727900 
# 
# From -- ./inp_files/956.got.cif
#   From: 2010.05.17/outbox.cif.g08.bks.cpg/sg191_1_cif.got.tgz:956.got - 2010.05.20 12:20:32.
