data_PCOD9588853
_publ_section_title
;
Structure prediction by ZEFSAII (Michael W. Deem and Ramdas Pophale) SiO2 
 PCOD9588853
Probable space group: P 6/M C C
;
_chemical_formula_sum "Si O2"
_cell_formula_units_Z 168
_cell_length_a 24.536686
_cell_length_b 24.536686
_cell_length_c 14.256797
_cell_angle_alpha 90.000000
_cell_angle_beta 90.000000
_cell_angle_gamma 120.000000
_cell_volume 7433.347019
_symmetry_space_group_name_H-M "P 6/M C C"
_symmetry_group_IT_number 192
_symmetry_cell_setting 'hexagonal'
loop_
_space_group_symop_operation_xyz
x,y,z
x-y,x,z
-y,x-y,z
-x,-y,z
-x+y,-x,z
y,-x+y,z
x-y,-y,1/2-z
-x,-x+y,1/2-z
y,x,1/2-z
-y,-x,1/2-z
-x+y,y,1/2-z
x,x-y,1/2-z
-x,-y,-z
-x+y,-x,-z
y,-x+y,-z
x,y,-z
x-y,x,-z
-y,x-y,-z
-x+y,y,1/2+z
x,x-y,1/2+z
-y,-x,1/2+z
y,x,1/2+z
x-y,-y,1/2+z
-x,-x+y,1/2+z
loop_
_atom_site_type_symbol
_atom_site_label
_atom_site_fract_x
_atom_site_fract_y
_atom_site_fract_z
Si Si1 0.367353 0.339821 0.613211
Si Si2 0.736120 0.917147 0.634832
Si Si3 0.942411 0.740984 0.356615
Si Si4 0.439080 0.936806 0.613879
Si Si5 0.522427 0.279109 0.114733
Si Si6 0.417094 0.617162 0.613962
Si Si7 0.113813 0.709954 0.608816
O O1 0.365047 0.342355 0.500000
O O2 0.325934 0.266212 0.635646
O O3 0.439512 0.375478 0.641305
O O4 0.337481 0.381904 0.650243
O O5 0.750880 0.863644 0.603183
O O6 0.744941 0.931153 0.746079
O O7 0.662706 0.888319 0.611295
O O8 0.778072 0.989054 0.601953
O O9 0.441936 0.938546 0.500000
O O10 0.431904 0.871139 0.642639
O O11 0.500000 0.000000 0.646002
O O12 0.584995 0.344360 0.139499
O O13 0.536314 0.224509 0.146601
O O14 0.460093 0.280592 0.147311
O O15 0.517720 0.274942 0.000000
O O16 0.419123 0.619921 0.500000
O O17 0.111594 0.689822 0.500000
#
# Coordination Sequence:
#
# PCOD9588853 Si02
#       7
#    24  24  24  24  24  24  24
#     4   9  17  28  44  68  96 124 154 192 234 279
#     4   9  18  32  49  69  94 124 156 190 232 282
#     4   9  18  32  49  69  95 124 157 189 231 280
#     4   9  16  25  38  58  87 119 149 182 226 278
#     4   9  16  25  37  56  86 119 153 188 228 275
#     4   9  16  24  35  53  79 116 150 183 225 268
#     4   9  17  28  44  67  94 122 151 191 236 275
#
# _framework density 22.600854999999999
#
# number of rings (size 3 to 8) (size 9 to 14) (size 15 to 20)
#    0.000    3.000    0.000    1.143    2.000    5.143 
#    0.000    0.000    0.000    0.286    0.000   19.000 
#    0.000    0.000    0.000    7.143    0.000    7.429 
#
# Total GULP energy -937117.672284 kJ/mol
# GULP energy per Si atom -5578.081383 kJ/mol
# Density = 2.254941 g / cm^3
# Si number density = 22.600855 Si / 1000 Ang^3
#
#
#
# Elastic Constant Matrix: (Units=GPa)
#
#
# Indices 1 2 3 4 5 6 
#
# 1 104.6565 56.8601 1.0021 0.0000 0.0000 0.0000
# 2 56.8601 104.6565 1.0021 0.0000 0.0000 0.0000
# 3 1.0021 1.0021 85.6641 0.0000 0.0000 0.0000
# 4 0.0000 0.0000 0.0000 12.7736 0.0000 0.0000
# 5 0.0000 0.0000 0.0000 0.0000 12.7736 0.0000
# 6 0.0000 0.0000 0.0000 0.0000 0.0000 23.8982
#
#
#
# Elastic Compliance Matrix: (Units=1/GPa)
#
#
# Indices 1 2 3 4 5 6 
#
# 1 0.013557 -0.007365 -0.000072 0.000000 0.000000 0.000000
# 2 -0.007365 0.013557 -0.000072 0.000000 0.000000 0.000000
# 3 -0.000072 -0.000072 0.011675 0.000000 0.000000 0.000000
# 4 0.000000 0.000000 0.000000 0.078286 0.000000 0.000000
# 5 0.000000 0.000000 0.000000 0.000000 0.078286 0.000000
# 6 0.000000 0.000000 0.000000 0.000000 0.000000 0.041844
#
#
# Mechanical properties :
#
#
# Convention : Reuss Voigt Hill
#
# Bulk Modulus (GPa) = 42.07004 45.85617 43.96311
# Shear Modulus (GPa) = 19.21972 25.62994 22.42483
#
# Velocity S-wave (km/s) = 2.91932 3.37118 3.15336
# Velocity P-wave (km/s) = 5.47887 5.95708 5.72297
#
# Compressibility (1/GPa) = 0.02376988
#
# Stress axis : x y z
#
# Youngs Moduli (GPa) = 73.76185 73.76185 85.65168
#
# Poissons Ratio (x) = 0.54325 0.00620
# Poissons Ratio (y) = 0.54325 0.00620
# Poissons Ratio (z) = 0.00534 0.00534
#
# Static dielectric constant tensor:
#      x y z
#    x 1.871600 0.000000 0.000000 
#    y 0.000000 1.871600 0.000000 
#    z 0.000000 0.000000 1.939230 
# 
# From -- ./inp_files/5366.got.cif
#   From: 2010.05.17/outbox.cif.g08.bks.cpg/sg192_3_cif.got.tgz:5366.got - 2010.05.20 12:28:01.
