data_PCOD9588056
_publ_section_title
;
Structure prediction by ZEFSAII (Michael W. Deem and Ramdas Pophale) SiO2 
 PCOD9588056
Probable space group: P 6/M M M
;
_chemical_formula_sum "Si O2"
_cell_formula_units_Z 84
_cell_length_a 17.723714
_cell_length_b 17.723714
_cell_length_c 17.303268
_cell_angle_alpha 90.000000
_cell_angle_beta 90.000000
_cell_angle_gamma 120.000000
_cell_volume 4707.260500
_symmetry_space_group_name_H-M "P 6/M M M"
_symmetry_group_IT_number 191
_symmetry_cell_setting 'hexagonal'
loop_
_space_group_symop_operation_xyz
x,y,z
x-y,x,z
-y,x-y,z
-x,-y,z
-x+y,-x,z
y,-x+y,z
x-y,-y,-z
-x,-x+y,-z
y,x,-z
-y,-x,-z
-x+y,y,-z
x,x-y,-z
-x,-y,-z
-x+y,-x,-z
y,-x+y,-z
x,y,-z
x-y,x,-z
-y,x-y,-z
-x+y,y,z
x,x-y,z
-y,-x,z
y,x,z
x-y,-y,z
-x,-x+y,z
loop_
_atom_site_type_symbol
_atom_site_label
_atom_site_fract_x
_atom_site_fract_y
_atom_site_fract_z
Si Si1 0.270867 0.372694 0.653875
Si Si2 0.667036 0.154978 0.192578
Si Si3 0.532672 0.894926 0.500000
Si Si4 0.825779 0.000000 0.094169
Si Si5 0.000000 0.650171 0.907658
O O1 0.167909 0.335817 0.659856
O O2 0.301464 0.301464 0.650087
O O3 0.315338 0.433989 0.727911
O O4 0.305853 0.432373 0.577335
O O5 0.581556 0.163112 0.199610
O O6 0.752157 0.247844 0.176774
O O7 0.653714 0.085282 0.127180
O O8 0.429586 0.859172 0.500000
O O9 0.579468 0.000000 0.500000
O O10 0.825164 0.912582 0.119571
O O11 0.738326 0.000000 0.117350
O O12 0.826999 0.000000 0.000000
O O13 0.000000 0.647199 0.000000
#
# Coordination Sequence:
#
# PCOD9588056 Si02
#       5
#    24  24  12  12  12
#     4  10  20  35  57  85 116 152 191 232 278 333
#     4  11  23  39  59  83 112 146 186 233 284 337
#     4   9  17  30  53  84 116 148 186 229 275 328
#     4   9  17  31  53  81 110 137 169 214 270 330
#     4  11  23  39  59  80 107 145 189 233 281 342
#
# _framework density 17.844773
#
# number of rings (size 3 to 8) (size 9 to 14) (size 15 to 20)
#    0.000    1.857    1.429    3.000    0.000    4.571 
#    0.000    0.000    0.000    6.000    0.000    0.000 
#    0.000    3.429    0.000    0.000    0.000    0.000 
#
# Total GULP energy -469000.268242 kJ/mol
# GULP energy per Si atom -5583.336527 kJ/mol
# Density = 1.780416 g / cm^3
# Si number density = 17.844773 Si / 1000 Ang^3
#
#
#
# Elastic Constant Matrix: (Units=GPa)
#
#
# Indices 1 2 3 4 5 6 
#
# 1 130.6133 82.6915 41.6179 0.0000 0.0000 0.0000
# 2 82.6915 130.6133 41.6179 0.0000 0.0000 0.0000
# 3 41.6179 41.6179 96.1086 0.0000 0.0000 0.0000
# 4 0.0000 0.0000 0.0000 18.7244 0.0000 0.0000
# 5 0.0000 0.0000 0.0000 0.0000 18.7244 0.0000
# 6 0.0000 0.0000 0.0000 0.0000 0.0000 23.9609
#
#
#
# Elastic Compliance Matrix: (Units=1/GPa)
#
#
# Indices 1 2 3 4 5 6 
#
# 1 0.013254 -0.007613 -0.002443 0.000000 0.000000 0.000000
# 2 -0.007613 0.013254 -0.002443 0.000000 0.000000 0.000000
# 3 -0.002443 -0.002443 0.012521 0.000000 0.000000 0.000000
# 4 0.000000 0.000000 0.000000 0.053406 0.000000 0.000000
# 5 0.000000 0.000000 0.000000 0.000000 0.053406 0.000000
# 6 0.000000 0.000000 0.000000 0.000000 0.000000 0.041735
#
#
# Mechanical properties :
#
#
# Convention : Reuss Voigt Hill
#
# Bulk Modulus (GPa) = 71.26668 76.57665 73.92167
# Shear Modulus (GPa) = 23.01486 25.04249 24.02868
#
# Velocity S-wave (km/s) = 3.59517 3.75020 3.67350
# Velocity P-wave (km/s) = 7.56686 7.85861 7.71412
#
# Compressibility (1/GPa) = 0.01403180
#
# Stress axis : x y z
#
# Youngs Moduli (GPa) = 75.44694 75.44694 79.86844
#
# Poissons Ratio (x) = 0.57437 0.19511
# Poissons Ratio (y) = 0.57437 0.19511
# Poissons Ratio (z) = 0.18431 0.18431
#
# Static dielectric constant tensor:
#      x y z
#    x 1.596780 0.000000 0.000000 
#    y 0.000000 1.596780 0.000000 
#    z 0.000000 0.000000 1.605470 
# 
# From -- ./inp_files/3997.got.cif
#   From: 2010.05.17/outbox.cif.g08.bks.cpg/sg191_2_cif.got.tgz:3997.got - 2010.05.20 12:20:32.
