data_PCOD9588314
_publ_section_title
;
Structure prediction by ZEFSAII (Michael W. Deem and Ramdas Pophale) SiO2 
 PCOD9588314
Probable space group: P 6/M C C
;
_chemical_formula_sum "Si O2"
_cell_formula_units_Z 168
_cell_length_a 25.914575
_cell_length_b 25.914575
_cell_length_c 18.869277
_cell_angle_alpha 90.000000
_cell_angle_beta 90.000000
_cell_angle_gamma 120.000000
_cell_volume 10974.230385
_symmetry_space_group_name_H-M "P 6/M C C"
_symmetry_group_IT_number 192
_symmetry_cell_setting 'hexagonal'
loop_
_space_group_symop_operation_xyz
x,y,z
x-y,x,z
-y,x-y,z
-x,-y,z
-x+y,-x,z
y,-x+y,z
x-y,-y,1/2-z
-x,-x+y,1/2-z
y,x,1/2-z
-y,-x,1/2-z
-x+y,y,1/2-z
x,x-y,1/2-z
-x,-y,-z
-x+y,-x,-z
y,-x+y,-z
x,y,-z
x-y,x,-z
-y,x-y,-z
-x+y,y,1/2+z
x,x-y,1/2+z
-y,-x,1/2+z
y,x,1/2+z
x-y,-y,1/2+z
-x,-x+y,1/2+z
loop_
_atom_site_type_symbol
_atom_site_label
_atom_site_fract_x
_atom_site_fract_y
_atom_site_fract_z
Si Si1 0.483621 0.710046 0.582297
Si Si2 0.888339 0.251780 0.586099
Si Si3 0.164013 0.663445 0.583456
Si Si4 0.568944 0.025379 0.671151
Si Si5 0.157418 0.560808 0.327468
Si Si6 0.669066 0.653267 0.086135
Si Si7 0.625960 0.855861 0.915286
O O1 0.471237 0.691026 0.500000
O O2 0.472679 0.765179 0.592775
O O3 0.447876 0.654785 0.633073
O O4 0.554422 0.736727 0.593861
O O5 0.885836 0.248624 0.500000
O O6 0.866555 0.298399 0.606025
O O7 0.957501 0.284156 0.605963
O O8 0.837627 0.186611 0.612207
O O9 0.152324 0.650533 0.500000
O O10 0.143263 0.604554 0.627308
O O11 0.598516 0.096535 0.677044
O O12 0.500000 0.000000 0.648031
O O13 0.565694 0.000000 0.750000
O O14 0.609700 0.011164 0.620025
O O15 0.176104 0.588052 0.250000
O O16 0.726517 0.649150 0.110843
O O17 0.664545 0.647439 0.000000
O O18 0.636549 0.861501 0.000000
#
# Coordination Sequence:
#
# PCOD9588314 Si02
#       7
#    24  24  24  24  24  24  24
#     4   9  18  35  54  70  86 111 150 195 241 284
#     4   8  15  27  45  70  94 112 142 190 232 269
#     4   9  19  35  53  70  88 112 149 198 243 282
#     4  11  22  35  45  65 101 128 147 186 240 279
#     4  12  22  33  51  69  94 127 152 188 239 293
#     4  10  18  29  51  73  88 119 160 191 227 281
#     4   8  14  27  46  69  94 113 141 188 231 271
#
# _framework density 15.308591
#
# number of rings (size 3 to 8) (size 9 to 14) (size 15 to 20)
#    0.000    2.429    2.857    3.000    0.000    1.429 
#    0.857    0.000    0.000    0.857    0.000    0.000 
#    0.000    0.000    0.000    0.429    0.000   13.714 
#
# Total GULP energy -935948.553544 kJ/mol
# GULP energy per Si atom -5571.122343 kJ/mol
# Density = 1.527375 g / cm^3
# Si number density = 15.308591 Si / 1000 Ang^3
#
#
#
# Elastic Constant Matrix: (Units=GPa)
#
#
# Indices 1 2 3 4 5 6 
#
# 1 71.9701 32.5172 25.0431 0.0000 0.0000 0.0000
# 2 32.5172 71.9701 25.0431 0.0000 0.0000 0.0000
# 3 25.0431 25.0431 25.3177 0.0000 0.0000 0.0000
# 4 0.0000 0.0000 0.0000 -82.7882 0.0000 0.0000
# 5 0.0000 0.0000 0.0000 0.0000 -82.7882 0.0000
# 6 0.0000 0.0000 0.0000 0.0000 0.0000 19.7265
#
#
#
# Elastic Compliance Matrix: (Units=1/GPa)
#
#
# Indices 1 2 3 4 5 6 
#
# 1 0.021773 -0.003573 -0.018003 0.000000 0.000000 0.000000
# 2 -0.003573 0.021773 -0.018003 0.000000 0.000000 0.000000
# 3 -0.018003 -0.018003 0.075113 0.000000 0.000000 0.000000
# 4 0.000000 0.000000 0.000000 -0.012079 0.000000 0.000000
# 5 0.000000 0.000000 0.000000 0.000000 -0.012079 0.000000
# 6 0.000000 0.000000 0.000000 0.000000 0.000000 0.050693
#
#
# Mechanical properties :
#
#
# Convention : Reuss Voigt Hill
#
# Bulk Modulus (GPa) = 25.31500 37.16277 31.23889
# Shear Modulus (GPa) = 21.05079 -23.39303 -1.17112
#
# Velocity S-wave (km/s) = 3.71225 -3.91333 -0.87560
# Velocity P-wave (km/s) = 5.91158 1.97727 4.40774
#
# Compressibility (1/GPa) = 0.03950227
#
# Stress axis : x y z
#
# Youngs Moduli (GPa) = 45.92745 45.92745 13.31324
#
# Poissons Ratio (x) = 0.16411 0.23968
# Poissons Ratio (y) = 0.16411 0.23968
# Poissons Ratio (z) = 0.82683 0.82683
#
# Static dielectric constant tensor:
#      x y z
#    x 1.519660 0.000000 0.000000 
#    y 0.000000 1.519660 0.000000 
#    z 0.000000 0.000000 1.505800 
# 
# From -- ./inp_files/5341.got.cif
#   From: 2010.05.17/outbox.cif.g08.bks.cpg/sg192_3_cif.got.tgz:5341.got - 2010.05.20 12:28:01.
