data_PCOD9588295
_publ_section_title
;
Structure prediction by ZEFSAII (Michael W. Deem and Ramdas Pophale) SiO2 
 PCOD9588295
Probable space group: P 6/M C C
;
_chemical_formula_sum "Si O2"
_cell_formula_units_Z 80
_cell_length_a 16.969833
_cell_length_b 16.969833
_cell_length_c 14.055244
_cell_angle_alpha 90.000000
_cell_angle_beta 90.000000
_cell_angle_gamma 120.000000
_cell_volume 3505.291647
_symmetry_space_group_name_H-M "P 6/M C C"
_symmetry_group_IT_number 192
_symmetry_cell_setting 'hexagonal'
loop_
_space_group_symop_operation_xyz
x,y,z
x-y,x,z
-y,x-y,z
-x,-y,z
-x+y,-x,z
y,-x+y,z
x-y,-y,1/2-z
-x,-x+y,1/2-z
y,x,1/2-z
-y,-x,1/2-z
-x+y,y,1/2-z
x,x-y,1/2-z
-x,-y,-z
-x+y,-x,-z
y,-x+y,-z
x,y,-z
x-y,x,-z
-y,x-y,-z
-x+y,y,1/2+z
x,x-y,1/2+z
-y,-x,1/2+z
y,x,1/2+z
x-y,-y,1/2+z
-x,-x+y,1/2+z
loop_
_atom_site_type_symbol
_atom_site_label
_atom_site_fract_x
_atom_site_fract_y
_atom_site_fract_z
Si Si1 0.065100 0.370454 0.615939
Si Si2 0.135499 0.389200 0.883843
Si Si3 0.131925 0.567011 0.392112
Si Si4 0.333334 0.666668 0.637490
O O1 0.068014 0.374336 0.500000
O O2 0.155464 0.370323 0.648346
O O3 0.071763 0.465649 0.646993
O O4 0.968402 0.284655 0.641647
O O5 0.143810 0.484063 0.848999
O O6 0.141832 0.393156 0.000000
O O7 0.100856 0.565208 0.500000
O O8 0.235566 0.587273 0.395631
O O9 0.333334 0.666667 0.750000
#
# Coordination Sequence:
#
# PCOD9588295 Si02
#       4
#    24  24  24   8
#     4   9  16  25  42  68  92 113 147 193 231 264
#     4   9  16  25  42  68  92 113 147 193 231 264
#     4  10  17  30  48  66  88 122 160 189 219 261
#     4  12  22  29  43  69 100 128 151 183 232 272
#
# _framework density 22.822638000000001
#
# number of rings (size 3 to 8) (size 9 to 14) (size 15 to 20)
#    0.000    2.400    3.000    1.800    0.000    3.600 
#    0.000    0.000    0.000    4.200    0.000    4.200 
#    0.000    0.000    0.000    0.000    0.000    3.000 
#
# Total GULP energy -447102.620951 kJ/mol
# GULP energy per Si atom -5588.782762 kJ/mol
# Density = 2.277069 g / cm^3
# Si number density = 22.822638 Si / 1000 Ang^3
#
#
#
# Elastic Constant Matrix: (Units=GPa)
#
#
# Indices 1 2 3 4 5 6 
#
# 1 164.1891 84.7067 -2.9863 -0.0001 0.0000 -0.0001
# 2 84.7067 164.1883 -2.9864 0.0000 -0.0002 -0.0002
# 3 -2.9863 -2.9864 84.2866 -0.0003 0.0002 -0.0001
# 4 -0.0001 0.0000 -0.0003 -5.8975 0.0000 0.0001
# 5 0.0000 -0.0002 0.0002 0.0000 -5.8969 0.0000
# 6 -0.0001 -0.0002 -0.0001 0.0001 0.0000 39.7407
#
#
#
# Elastic Compliance Matrix: (Units=1/GPa)
#
#
# Indices 1 2 3 4 5 6 
#
# 1 0.008301 -0.004280 0.000142 0.000000 0.000000 0.000000
# 2 -0.004280 0.008301 0.000142 0.000000 0.000000 0.000000
# 3 0.000142 0.000142 0.011874 -0.000001 0.000000 0.000000
# 4 0.000000 0.000000 -0.000001 -0.169563 0.000000 0.000000
# 5 0.000000 0.000000 0.000000 0.000000 -0.169580 0.000000
# 6 0.000000 0.000000 0.000000 0.000000 0.000000 0.025163
#
#
# Mechanical properties :
#
#
# Convention : Reuss Voigt Hill
#
# Bulk Modulus (GPa) = 48.81235 63.34801 56.08018
# Shear Modulus (GPa) = -18.47175 27.85125 4.68975
#
# Velocity S-wave (km/s) = -2.84801 3.49712 1.43504
# Velocity P-wave (km/s) = 3.25871 6.64254 5.23176
#
# Compressibility (1/GPa) = 0.02048662
#
# Stress axis : x y z
#
# Youngs Moduli (GPa) = 120.46312 120.46253 84.21489
#
# Poissons Ratio (x) = 0.51560 -0.01200
# Poissons Ratio (y) = 0.51560 -0.01200
# Poissons Ratio (z) = -0.01716 -0.01716
#
# Static dielectric constant tensor:
#      x y z
#    x 1.860290 0.000000 0.000000 
#    y 0.000000 1.860290 0.000000 
#    z 0.000000 0.000000 1.896970 
# 
# From -- ./inp_files/3924.got.cif
#   From: 2010.05.17/outbox.cif.g08.bks.cpg/sg192_2_cif.got.tgz:3924.got - 2010.05.20 12:28:01.
