data_PCOD9588776
_publ_section_title
;
Structure prediction by ZEFSAII (Michael W. Deem and Ramdas Pophale) SiO2 
 PCOD9588776
Probable space group: P 6/M C C
;
_chemical_formula_sum "Si O2"
_cell_formula_units_Z 192
_cell_length_a 23.576444
_cell_length_b 23.576444
_cell_length_c 24.094136
_cell_angle_alpha 90.000000
_cell_angle_beta 90.000000
_cell_angle_gamma 120.000000
_cell_volume 11598.413623
_symmetry_space_group_name_H-M "P 6/M C C"
_symmetry_group_IT_number 192
_symmetry_cell_setting 'hexagonal'
loop_
_space_group_symop_operation_xyz
x,y,z
x-y,x,z
-y,x-y,z
-x,-y,z
-x+y,-x,z
y,-x+y,z
x-y,-y,1/2-z
-x,-x+y,1/2-z
y,x,1/2-z
-y,-x,1/2-z
-x+y,y,1/2-z
x,x-y,1/2-z
-x,-y,-z
-x+y,-x,-z
y,-x+y,-z
x,y,-z
x-y,x,-z
-y,x-y,-z
-x+y,y,1/2+z
x,x-y,1/2+z
-y,-x,1/2+z
y,x,1/2+z
x-y,-y,1/2+z
-x,-x+y,1/2+z
loop_
_atom_site_type_symbol
_atom_site_label
_atom_site_fract_x
_atom_site_fract_y
_atom_site_fract_z
Si Si1 0.534035 0.078944 0.338393
Si Si2 0.114881 0.683034 0.155887
Si Si3 0.357969 0.883989 0.062554
Si Si4 0.714837 0.900299 0.565117
Si Si5 0.316928 0.973590 0.880878
Si Si6 0.221489 0.790356 0.564444
Si Si7 0.346990 0.422161 0.728778
Si Si8 0.850291 0.928008 0.067445
O O1 0.610732 0.105496 0.337604
O O2 0.517810 0.104756 0.394183
O O3 0.495472 0.095525 0.291214
O O4 0.500000 0.000000 0.338866
O O5 0.172159 0.726636 0.113001
O O6 0.117418 0.700638 0.221343
O O7 0.048323 0.678051 0.131559
O O8 0.343565 0.943623 0.072428
O O9 0.288314 0.818107 0.071695
O O10 0.378966 0.884359 0.000000
O O11 0.724309 0.919464 0.500000
O O12 0.711175 0.956733 0.599469
O O13 0.645234 0.834383 0.569806
O O14 0.774422 0.890157 0.582763
O O15 0.311953 0.931353 0.826079
O O16 0.245960 0.804786 0.500000
O O17 0.390006 0.390006 0.750000
O O18 0.885907 0.888437 0.086505
O O19 0.852987 0.931179 0.000000
#
# Coordination Sequence:
#
# PCOD9588776 Si02
#       8
#    24  24  24  24  24  24  24  24
#     4  11  18  31  51  79 101 130 167 212 260 312
#     4  11  20  29  51  79 100 134 172 210 245 310
#     4   9  18  34  47  63 101 139 163 208 264 298
#     4   9  18  32  47  64  98 142 171 202 258 315
#     4   9  17  29  46  70  97 134 167 205 248 307
#     4   9  20  35  47  66 103 142 172 205 251 308
#     4   9  17  30  49  72 108 135 160 201 260 307
#     4   9  17  28  44  66  92 127 174 222 261 297
#
# _framework density 16.553989000000001
#
# number of rings (size 3 to 8) (size 9 to 14) (size 15 to 20)
#    0.000    2.500    3.750    1.625    1.750    2.250 
#    0.000    5.625    0.000    0.500    0.000    0.000 
#    0.000    0.000    0.000    0.000    0.000    0.000 
#
# Total GULP energy -1068928.528621 kJ/mol
# GULP energy per Si atom -5567.336087 kJ/mol
# Density = 1.651631 g / cm^3
# Si number density = 16.553989 Si / 1000 Ang^3
#
#
#
# Elastic Constant Matrix: (Units=GPa)
#
#
# Indices 1 2 3 4 5 6 
#
# 1 31.5987 4.8904 20.0474 0.0000 0.0000 0.0000
# 2 4.8904 31.5987 20.0474 0.0000 0.0000 0.0000
# 3 20.0474 20.0474 85.0405 0.0000 0.0000 0.0000
# 4 0.0000 0.0000 0.0000 22.1646 0.0000 0.0000
# 5 0.0000 0.0000 0.0000 0.0000 22.1646 0.0000
# 6 0.0000 0.0000 0.0000 0.0000 0.0000 13.3542
#
#
#
# Elastic Compliance Matrix: (Units=1/GPa)
#
#
# Indices 1 2 3 4 5 6 
#
# 1 0.037214 -0.000228 -0.008719 0.000000 0.000000 0.000000
# 2 -0.000228 0.037214 -0.008719 0.000000 0.000000 0.000000
# 3 -0.008719 -0.008719 0.015870 0.000000 0.000000 0.000000
# 4 0.000000 0.000000 0.000000 0.045117 0.000000 0.000000
# 5 0.000000 0.000000 0.000000 0.000000 0.045117 0.000000
# 6 0.000000 0.000000 0.000000 0.000000 0.000000 0.074883
#
#
# Mechanical properties :
#
#
# Convention : Reuss Voigt Hill
#
# Bulk Modulus (GPa) = 18.19312 26.46761 22.33037
# Shear Modulus (GPa) = 16.17765 18.42019 17.29892
#
# Velocity S-wave (km/s) = 3.12952 3.33939 3.23615
# Velocity P-wave (km/s) = 4.90638 5.55806 5.24236
#
# Compressibility (1/GPa) = 0.05496582
#
# Stress axis : x y z
#
# Youngs Moduli (GPa) = 26.87174 26.87174 63.01202
#
# Poissons Ratio (x) = 0.00612 0.54941
# Poissons Ratio (y) = 0.00612 0.54941
# Poissons Ratio (z) = 0.23430 0.23430
#
# Static dielectric constant tensor:
#      x y z
#    x 1.557490 0.000000 0.000000 
#    y 0.000000 1.557490 0.000000 
#    z 0.000000 0.000000 1.587050 
# 
# From -- ./inp_files/6185.got.cif
#   From: 2010.05.17/outbox.cif.g08.bks.cpg/sg192_4_cif.got.tgz:6185.got - 2010.05.20 12:28:01.
