data_PCOD9588100
_publ_section_title
;
Structure prediction by ZEFSAII (Michael W. Deem and Ramdas Pophale) SiO2 
 PCOD9588100
Probable space group: P 6/M M M
;
_chemical_formula_sum "Si O2"
_cell_formula_units_Z 132
_cell_length_a 18.140758
_cell_length_b 18.140758
_cell_length_c 29.203474
_cell_angle_alpha 90.000000
_cell_angle_beta 90.000000
_cell_angle_gamma 120.000000
_cell_volume 8322.925532
_symmetry_space_group_name_H-M "P 6/M M M"
_symmetry_group_IT_number 191
_symmetry_cell_setting 'hexagonal'
loop_
_space_group_symop_operation_xyz
x,y,z
x-y,x,z
-y,x-y,z
-x,-y,z
-x+y,-x,z
y,-x+y,z
x-y,-y,-z
-x,-x+y,-z
y,x,-z
-y,-x,-z
-x+y,y,-z
x,x-y,-z
-x,-y,-z
-x+y,-x,-z
y,-x+y,-z
x,y,-z
x-y,x,-z
-y,x-y,-z
-x+y,y,z
x,x-y,z
-y,-x,z
y,x,z
x-y,-y,z
-x,-x+y,z
loop_
_atom_site_type_symbol
_atom_site_label
_atom_site_fract_x
_atom_site_fract_y
_atom_site_fract_z
Si Si1 0.665905 0.158958 0.183946
Si Si2 0.361035 0.266421 0.633126
Si Si3 0.363018 0.095319 0.000000
Si Si4 0.160499 0.494169 0.553172
Si Si5 0.334150 0.842870 0.284479
Si Si6 0.508748 0.665916 0.083384
O O1 0.591591 0.183181 0.183958
O O2 0.756807 0.243194 0.183967
O O3 0.658326 0.117767 0.233604
O O4 0.658332 0.117851 0.134267
O O5 0.337559 0.168780 0.634054
O O6 0.283089 0.283089 0.634075
O O7 0.417733 0.308873 0.587938
O O8 0.422399 0.312579 0.676361
O O9 0.422070 0.110258 0.955711
O O10 0.339235 0.169618 0.000000
O O11 0.285513 0.000000 0.000000
O O12 0.136207 0.471059 0.500000
O O13 0.259068 0.518135 0.557633
O O14 0.151563 0.575782 0.564216
O O15 0.421369 0.842737 0.293839
O O16 0.254390 0.745611 0.283796
O O17 0.490640 0.745320 0.084152
O O18 0.421590 0.578411 0.073874
#
# Coordination Sequence:
#
# PCOD9588100 Si02
#       6
#    24  24  12  24  24  24
#     4   8  13  22  37  59  88 123 160 190 210 230
#     4  10  21  35  49  65  86 113 145 184 231 278
#     4  10  21  35  49  64  83 109 140 178 225 273
#     4   9  17  29  46  69  98 131 162 186 206 234
#     4   9  16  26  42  65  94 127 159 186 210 240
#     4   9  16  26  42  65  94 127 159 185 206 233
#
# _framework density 15.859807999999999
#
# number of rings (size 3 to 8) (size 9 to 14) (size 15 to 20)
#    0.000    2.909    0.000    1.545    0.000    6.182 
#    0.000    4.545    0.000    3.545    0.000    0.000 
#    0.000    0.000    0.000    4.545    0.000   21.455 
#
# Total GULP energy -735148.700923 kJ/mol
# GULP energy per Si atom -5569.308340 kJ/mol
# Density = 1.582371 g / cm^3
# Si number density = 15.859808 Si / 1000 Ang^3
#
#
#
# Elastic Constant Matrix: (Units=GPa)
#
#
# Indices 1 2 3 4 5 6 
#
# 1 54.6514 50.5047 42.8945 0.0000 0.0000 0.0000
# 2 50.5047 54.6514 42.8945 0.0000 0.0000 0.0000
# 3 42.8945 42.8945 89.1000 0.0000 0.0000 0.0000
# 4 0.0000 0.0000 0.0000 3.0667 0.0000 0.0000
# 5 0.0000 0.0000 0.0000 0.0000 3.0667 0.0000
# 6 0.0000 0.0000 0.0000 0.0000 0.0000 2.0734
#
#
#
# Elastic Compliance Matrix: (Units=1/GPa)
#
#
# Indices 1 2 3 4 5 6 
#
# 1 0.128407 -0.112747 -0.007539 0.000000 0.000000 0.000000
# 2 -0.112747 0.128407 -0.007539 0.000000 0.000000 0.000000
# 3 -0.007539 -0.007539 0.018482 0.000000 0.000000 0.000000
# 4 0.000000 0.000000 0.000000 0.326088 0.000000 0.000000
# 5 0.000000 0.000000 0.000000 0.000000 0.326088 0.000000
# 6 0.000000 0.000000 0.000000 0.000000 0.000000 0.482309
#
#
# Mechanical properties :
#
#
# Convention : Reuss Voigt Hill
#
# Bulk Modulus (GPa) = 50.90023 52.33225 51.61624
# Shear Modulus (GPa) = 2.99046 5.78194 4.38620
#
# Velocity S-wave (km/s) = 1.37465 1.91143 1.66482
# Velocity P-wave (km/s) = 5.88923 6.15953 6.02590
#
# Compressibility (1/GPa) = 0.01964628
#
# Stress axis : x y z
#
# Youngs Moduli (GPa) = 7.78771 7.78771 54.10552
#
# Poissons Ratio (x) = 0.87804 0.40791
# Poissons Ratio (y) = 0.87804 0.40791
# Poissons Ratio (z) = 0.05871 0.05871
#
# Static dielectric constant tensor:
#      x y z
#    x 1.503570 0.000000 0.000000 
#    y 0.000000 1.503570 0.000000 
#    z 0.000000 0.000000 1.587250 
# 
# From -- ./inp_files/10354.got.cif
#   From: 2010.05.17/outbox.cif.g08.bks.cpg/sg191_6_cif.got.tgz:10354.got - 2010.05.20 12:20:32.
