data_PCOD9588257
_publ_section_title
;
Structure prediction by ZEFSAII (Michael W. Deem and Ramdas Pophale) SiO2 
 PCOD9588257
Probable space group: P 6/M M M
;
_chemical_formula_sum "Si O2"
_cell_formula_units_Z 72
_cell_length_a 21.000000
_cell_length_b 21.000000
_cell_length_c 12.000000
_cell_angle_alpha 90.000000
_cell_angle_beta 90.000000
_cell_angle_gamma 120.000000
_cell_volume 4583.006437
_symmetry_space_group_name_H-M "P 6/M M M"
_symmetry_group_IT_number 191
_symmetry_cell_setting 'hexagonal'
loop_
_space_group_symop_operation_xyz
x,y,z
x-y,x,z
-y,x-y,z
-x,-y,z
-x+y,-x,z
y,-x+y,z
x-y,-y,-z
-x,-x+y,-z
y,x,-z
-y,-x,-z
-x+y,y,-z
x,x-y,-z
-x,-y,-z
-x+y,-x,-z
y,-x+y,-z
x,y,-z
x-y,x,-z
-y,x-y,-z
-x+y,y,z
x,x-y,z
-y,-x,z
y,x,z
x-y,-y,z
-x,-x+y,z
loop_
_atom_site_type_symbol
_atom_site_label
_atom_site_fract_x
_atom_site_fract_y
_atom_site_fract_z
Si Si1 0.916868 0.226390 0.133713
Si Si2 0.767576 0.682117 0.500000
Si Si3 0.912569 0.456285 0.365874
Si Si4 0.143466 0.709011 0.299524
O O1 0.856174 0.143827 0.169461
O O2 0.888982 0.278615 0.185466
O O3 0.000000 0.254118 0.170706
O O4 0.916381 0.228891 0.000000
O O5 0.743481 0.743481 0.500000
O O6 0.854288 0.708576 0.500000
O O7 0.731858 0.628149 0.394270
O O8 0.904725 0.452363 0.500000
O O9 0.875740 0.373704 0.319326
O O10 0.000000 0.500000 0.341097
O O11 0.229861 0.770139 0.305731
#
# Coordination Sequence:
#
# PCOD9588257 Si02
#       4
#    24  12  12  24
#     4   9  17  30  49  71  96 126 160 198 237 278
#     4  10  18  29  47  68  93 121 153 191 231 279
#     4  11  20  30  49  71  95 123 154 193 241 285
#     4  10  20  33  48  69  95 124 156 192 237 286
#
# _framework density 15.710210999999999
#
# number of rings (size 3 to 8) (size 9 to 14) (size 15 to 20)
#    0.000    2.167    1.667    3.000    0.000    0.000 
#    1.000    0.833    0.000    3.500    0.000    2.333 
#    0.000    8.000    0.000    0.333    0.000    0.667 
#
# Total GULP energy -401369.454490 kJ/mol
# GULP energy per Si atom -5574.575757 kJ/mol
# Density = 1.567445 g / cm^3
# Si number density = 15.710211 Si / 1000 Ang^3
#
#
#
# Elastic Constant Matrix: (Units=GPa)
#
#
# Indices 1 2 3 4 5 6 
#
# 1 146.9147 101.1656 24.9199 0.0000 0.0000 0.0000
# 2 101.1656 146.9147 24.9199 0.0000 0.0000 0.0000
# 3 24.9199 24.9199 22.1271 0.0000 0.0000 0.0000
# 4 0.0000 0.0000 0.0000 19.6633 0.0000 0.0000
# 5 0.0000 0.0000 0.0000 0.0000 19.6633 0.0000
# 6 0.0000 0.0000 0.0000 0.0000 0.0000 22.8746
#
#
#
# Elastic Compliance Matrix: (Units=1/GPa)
#
#
# Indices 1 2 3 4 5 6 
#
# 1 0.013534 -0.008324 -0.005867 0.000000 0.000000 0.000000
# 2 -0.008324 0.013534 -0.005867 0.000000 0.000000 0.000000
# 3 -0.005867 -0.005867 0.058409 0.000000 0.000000 0.000000
# 4 0.000000 0.000000 0.000000 0.050856 0.000000 0.000000
# 5 0.000000 0.000000 0.000000 0.000000 0.050856 0.000000
# 6 0.000000 0.000000 0.000000 0.000000 0.000000 0.043717
#
#
# Mechanical properties :
#
#
# Convention : Reuss Voigt Hill
#
# Bulk Modulus (GPa) = 22.04612 68.66303 45.35457
# Shear Modulus (GPa) = 17.47376 23.43700 20.45538
#
# Velocity S-wave (km/s) = 3.33867 3.86661 3.61230
# Velocity P-wave (km/s) = 5.37826 7.98343 6.80665
#
# Compressibility (1/GPa) = 0.04535946
#
# Stress axis : x y z
#
# Youngs Moduli (GPa) = 73.88794 73.88794 17.12064
#
# Poissons Ratio (x) = 0.61507 0.10045
# Poissons Ratio (y) = 0.61507 0.10045
# Poissons Ratio (z) = 0.43352 0.43352
#
# Static dielectric constant tensor:
#      x y z
#    x 1.514380 0.000000 0.000000 
#    y 0.000000 1.514380 0.000000 
#    z 0.000000 0.000000 1.573050 
# 
# From -- ./inp_files/2314.got.cif
#   From: 2010.05.17/outbox.ucp.g08.bks.cvg/sg191_2_cif.got.tgz:2314.got - 2010.06.11 15:22:43.
