data_PCOD9588418
_publ_section_title
;
Structure prediction by ZEFSAII (Michael W. Deem and Ramdas Pophale) SiO2 
 PCOD9588418
Probable space group: P 6/M C C
;
_chemical_formula_sum "Si O2"
_cell_formula_units_Z 108
_cell_length_a 17.517130
_cell_length_b 17.517130
_cell_length_c 21.235766
_cell_angle_alpha 90.000000
_cell_angle_beta 90.000000
_cell_angle_gamma 120.000000
_cell_volume 5643.187351
_symmetry_space_group_name_H-M "P 6/M C C"
_symmetry_group_IT_number 192
_symmetry_cell_setting 'hexagonal'
loop_
_space_group_symop_operation_xyz
x,y,z
x-y,x,z
-y,x-y,z
-x,-y,z
-x+y,-x,z
y,-x+y,z
x-y,-y,1/2-z
-x,-x+y,1/2-z
y,x,1/2-z
-y,-x,1/2-z
-x+y,y,1/2-z
x,x-y,1/2-z
-x,-y,-z
-x+y,-x,-z
y,-x+y,-z
x,y,-z
x-y,x,-z
-y,x-y,-z
-x+y,y,1/2+z
x,x-y,1/2+z
-y,-x,1/2+z
y,x,1/2+z
x-y,-y,1/2+z
-x,-x+y,1/2+z
loop_
_atom_site_type_symbol
_atom_site_label
_atom_site_fract_x
_atom_site_fract_y
_atom_site_fract_z
Si Si1 0.572669 0.627771 0.072177
Si Si2 0.123569 0.515960 0.376128
Si Si3 0.216583 0.608292 0.250000
Si Si4 0.801553 0.939542 0.076669
Si Si5 0.183961 0.392641 0.424517
O O1 0.596081 0.570101 0.118351
O O2 0.466700 0.582763 0.075761
O O3 0.612630 0.728903 0.089716
O O4 0.598681 0.621329 0.000000
O O5 0.155755 0.567502 0.310828
O O6 0.185892 0.477212 0.395093
O O7 0.286008 0.572016 0.250000
O O8 0.832200 0.870473 0.096966
O O9 0.699910 0.900407 0.095170
O O10 0.802303 0.940541 0.000000
O O11 0.181578 0.400093 0.500000
#
# Coordination Sequence:
#
# PCOD9588418 Si02
#       5
#    24  24  12  24  24
#     4  10  21  34  55  87 113 144 190 233 292 367
#     4  11  20  37  56  74 109 147 184 241 291 334
#     4  10  24  41  58  80 104 140 198 244 281 342
#     4   9  16  26  43  71 110 154 192 224 265 326
#     4  10  19  32  52  80 113 149 187 237 293 349
#
# _framework density 19.138121000000002
#
# number of rings (size 3 to 8) (size 9 to 14) (size 15 to 20)
#    0.222    1.778    0.000    5.556    0.000    6.222 
#    1.333    0.000    0.000    0.000    0.000    0.000 
#    0.000    0.000    0.000    0.000    0.000   58.667 
#
# Total GULP energy -602042.092686 kJ/mol
# GULP energy per Si atom -5574.463821 kJ/mol
# Density = 1.909456 g / cm^3
# Si number density = 19.138121 Si / 1000 Ang^3
#
#
#
# Elastic Constant Matrix: (Units=GPa)
#
#
# Indices 1 2 3 4 5 6 
#
# 1 83.8257 15.0957 28.1024 0.0000 0.0000 0.0000
# 2 15.0957 83.8257 28.1024 0.0000 0.0000 0.0000
# 3 28.1024 28.1024 56.8471 0.0000 0.0000 0.0000
# 4 0.0000 0.0000 0.0000 21.8684 0.0000 0.0000
# 5 0.0000 0.0000 0.0000 0.0000 21.8684 0.0000
# 6 0.0000 0.0000 0.0000 0.0000 0.0000 34.3650
#
#
#
# Elastic Compliance Matrix: (Units=1/GPa)
#
#
# Indices 1 2 3 4 5 6 
#
# 1 0.014304 -0.000246 -0.006949 0.000000 0.000000 0.000000
# 2 -0.000246 0.014304 -0.006949 0.000000 0.000000 0.000000
# 3 -0.006949 -0.006949 0.024462 0.000000 0.000000 0.000000
# 4 0.000000 0.000000 0.000000 0.045728 0.000000 0.000000
# 5 0.000000 0.000000 0.000000 0.000000 0.045728 0.000000
# 6 0.000000 0.000000 0.000000 0.000000 0.000000 0.029099
#
#
# Mechanical properties :
#
#
# Convention : Reuss Voigt Hill
#
# Bulk Modulus (GPa) = 40.35593 40.78884 40.57239
# Shear Modulus (GPa) = 23.78981 25.83354 24.81167
#
# Velocity S-wave (km/s) = 3.52953 3.67801 3.60454
# Velocity P-wave (km/s) = 6.14350 6.27664 6.21042
#
# Compressibility (1/GPa) = 0.02477950
#
# Stress axis : x y z
#
# Youngs Moduli (GPa) = 69.91249 69.91249 40.87997
#
# Poissons Ratio (x) = 0.01721 0.28409
# Poissons Ratio (y) = 0.01721 0.28409
# Poissons Ratio (z) = 0.48585 0.48585
#
# Static dielectric constant tensor:
#      x y z
#    x 1.715940 0.000000 0.000000 
#    y 0.000000 1.715940 0.000000 
#    z 0.000000 0.000000 1.633860 
# 
# From -- ./inp_files/5675.got.cif
#   From: 2010.05.17/outbox.cif.g08.bks.cpg/sg192_3_cif.got.tgz:5675.got - 2010.05.20 12:28:01.
