data_PCOD9588661
_publ_section_title
;
Structure prediction by ZEFSAII (Michael W. Deem and Ramdas Pophale) SiO2 
 PCOD9588661
Probable space group: P 6/M C C
;
_chemical_formula_sum "Si O2"
_cell_formula_units_Z 104
_cell_length_a 20.908076
_cell_length_b 20.908076
_cell_length_c 15.824454
_cell_angle_alpha 90.000000
_cell_angle_beta 90.000000
_cell_angle_gamma 120.000000
_cell_volume 5990.837037
_symmetry_space_group_name_H-M "P 6/M C C"
_symmetry_group_IT_number 192
_symmetry_cell_setting 'hexagonal'
loop_
_space_group_symop_operation_xyz
x,y,z
x-y,x,z
-y,x-y,z
-x,-y,z
-x+y,-x,z
y,-x+y,z
x-y,-y,1/2-z
-x,-x+y,1/2-z
y,x,1/2-z
-y,-x,1/2-z
-x+y,y,1/2-z
x,x-y,1/2-z
-x,-y,-z
-x+y,-x,-z
y,-x+y,-z
x,y,-z
x-y,x,-z
-y,x-y,-z
-x+y,y,1/2+z
x,x-y,1/2+z
-y,-x,1/2+z
y,x,1/2+z
x-y,-y,1/2+z
-x,-x+y,1/2+z
loop_
_atom_site_type_symbol
_atom_site_label
_atom_site_fract_x
_atom_site_fract_y
_atom_site_fract_z
Si Si1 0.681713 0.769295 0.500000
Si Si2 0.586806 0.674726 0.844685
Si Si3 0.333334 0.666668 0.351581
Si Si4 0.681714 0.769295 0.000000
Si Si5 0.162974 0.581487 0.099636
Si Si6 0.413195 0.325273 0.655315
O O1 0.740926 0.740927 0.500000
O O2 0.713155 0.856578 0.500000
O O3 0.629703 0.733814 0.582132
O O4 0.629704 0.733813 0.917868
O O5 0.499759 0.628663 0.861374
O O6 0.601087 0.706770 0.750001
O O7 0.618419 0.618418 0.848899
O O8 0.333334 0.666667 0.250000
O O9 0.374992 0.749980 0.384484
O O10 0.128907 0.628665 0.138628
O O11 0.146755 0.573379 0.000000
#
# Coordination Sequence:
#
# PCOD9588661 Si02
#       6
#    12  24   8  12  24  24
#     4  10  22  39  61  88 115 145 179 223 275 331
#     4  10  21  37  58  83 110 145 189 235 284 334
#     4  12  28  41  49  72 106 152 202 241 287 337
#     4  10  22  39  61  88 115 145 179 223 275 331
#     4  12  23  37  54  74 108 149 195 244 289 337
#     4  10  21  37  58  83 110 145 189 235 284 334
#
# _framework density 17.359843999999999
#
# number of rings (size 3 to 8) (size 9 to 14) (size 15 to 20)
#    0.000    1.385    2.308    3.462    3.231    3.692 
#    0.000    0.000    0.000    0.231    0.000    0.000 
#    0.000    0.000    0.000   11.538    0.000    0.000 
#
# Total GULP energy -581157.370479 kJ/mol
# GULP energy per Si atom -5588.051639 kJ/mol
# Density = 1.732033 g / cm^3
# Si number density = 17.359844 Si / 1000 Ang^3
#
#
#
# Elastic Constant Matrix: (Units=GPa)
#
#
# Indices 1 2 3 4 5 6 
#
# 1 69.0856 63.3561 35.5739 -0.0007 0.0002 0.0014
# 2 63.3561 69.0814 35.5759 0.0008 -0.0002 -0.0019
# 3 35.5739 35.5759 145.7284 0.0000 0.0000 0.0001
# 4 -0.0007 0.0008 0.0000 15.0203 -0.0001 0.0002
# 5 0.0002 -0.0002 0.0000 -0.0001 15.0202 0.0008
# 6 0.0014 -0.0019 0.0001 0.0002 0.0008 2.9047
#
#
#
# Elastic Compliance Matrix: (Units=1/GPa)
#
#
# Indices 1 2 3 4 5 6 
#
# 1 0.091641 -0.082955 -0.002119 0.000009 -0.000002 -0.000099
# 2 -0.082955 0.091649 -0.002124 -0.000009 0.000002 0.000101
# 3 -0.002119 -0.002124 0.007898 0.000000 0.000000 -0.000001
# 4 0.000009 -0.000009 0.000000 0.066577 0.000000 -0.000004
# 5 -0.000002 0.000002 0.000000 0.000000 0.066577 -0.000018
# 6 -0.000099 0.000101 -0.000001 -0.000004 -0.000018 0.344273
#
#
# Mechanical properties :
#
#
# Convention : Reuss Voigt Hill
#
# Bulk Modulus (GPa) = 59.54990 61.43412 60.49201
# Shear Modulus (GPa) = 5.89201 16.54833 11.22017
#
# Velocity S-wave (km/s) = 1.84429 3.09083 2.54506
# Velocity P-wave (km/s) = 6.23802 6.94285 6.59985
#
# Compressibility (1/GPa) = 0.01679264
#
# Stress axis : x y z
#
# Youngs Moduli (GPa) = 10.91215 10.91120 126.61670
#
# Poissons Ratio (x) = 0.90513 0.26833
# Poissons Ratio (y) = 0.90521 0.26889
# Poissons Ratio (z) = 0.02313 0.02317
#
# Static dielectric constant tensor:
#      x y z
#    x 1.558250 0.000000 0.000000 
#    y 0.000000 1.558250 0.000000 
#    z 0.000000 0.000000 1.621510 
# 
# From -- ./inp_files/2913.got.cif
#   From: 2010.05.17/outbox.cif.g08.bks.cpg/sg192_2_cif.got.tgz:2913.got - 2010.05.20 12:28:01.
