data_PCOD9588829
_publ_section_title
;
Structure prediction by ZEFSAII (Michael W. Deem and Ramdas Pophale) SiO2 
 PCOD9588829
Probable space group: P 6/M C C
;
_chemical_formula_sum "Si O2"
_cell_formula_units_Z 96
_cell_length_a 14.398187
_cell_length_b 14.398187
_cell_length_c 24.371938
_cell_angle_alpha 90.000000
_cell_angle_beta 90.000000
_cell_angle_gamma 120.000000
_cell_volume 4375.586925
_symmetry_space_group_name_H-M "P 6/M C C"
_symmetry_group_IT_number 192
_symmetry_cell_setting 'hexagonal'
loop_
_space_group_symop_operation_xyz
x,y,z
x-y,x,z
-y,x-y,z
-x,-y,z
-x+y,-x,z
y,-x+y,z
x-y,-y,1/2-z
-x,-x+y,1/2-z
y,x,1/2-z
-y,-x,1/2-z
-x+y,y,1/2-z
x,x-y,1/2-z
-x,-y,-z
-x+y,-x,-z
y,-x+y,-z
x,y,-z
x-y,x,-z
-y,x-y,-z
-x+y,y,1/2+z
x,x-y,1/2+z
-y,-x,1/2+z
y,x,1/2+z
x-y,-y,1/2+z
-x,-x+y,1/2+z
loop_
_atom_site_type_symbol
_atom_site_label
_atom_site_fract_x
_atom_site_fract_y
_atom_site_fract_z
Si Si1 0.819010 0.050504 0.066819
Si Si2 0.720522 0.186462 0.937268
Si Si3 0.879727 0.546488 0.730100
Si Si4 0.113135 0.507211 0.605646
O O1 0.735898 0.088585 0.081842
O O2 0.935490 0.141356 0.086030
O O3 0.821015 0.050386 0.000000
O O4 0.835887 0.293650 0.935191
O O5 0.635398 0.192688 0.898369
O O6 0.681005 0.169760 0.000000
O O7 0.781515 0.563030 0.750000
O O8 0.861156 0.430578 0.750000
O O9 0.885965 0.540166 0.664503
O O10 0.000000 0.634402 0.750000
O O11 0.000000 0.500000 0.592612
#
# Coordination Sequence:
#
# PCOD9588829 Si02
#       4
#    24  24  24  24
#     4   9  17  32  54  80 112 157 212 268 318 367
#     4  11  24  39  58  90 135 181 219 265 326 403
#     4  11  23  45  73 106 136 173 226 301 372 423
#     4  12  24  41  66  95 131 175 229 274 339 415
#
# _framework density 21.939914999999999
#
# number of rings (size 3 to 8) (size 9 to 14) (size 15 to 20)
#    0.000    1.250    2.500    4.750    0.000    5.000 
#    0.000    0.000    0.000    0.250    0.000    0.000 
#    0.000    0.000    0.000    0.000    0.000    0.000 
#
# Total GULP energy -536401.226304 kJ/mol
# GULP energy per Si atom -5587.512774 kJ/mol
# Density = 2.188998 g / cm^3
# Si number density = 21.939915 Si / 1000 Ang^3
#
#
#
# Elastic Constant Matrix: (Units=GPa)
#
#
# Indices 1 2 3 4 5 6 
#
# 1 127.1252 51.0507 19.9708 0.0000 0.0000 0.0000
# 2 51.0507 127.1252 19.9708 0.0000 0.0000 0.0000
# 3 19.9708 19.9708 75.6286 0.0000 0.0000 0.0000
# 4 0.0000 0.0000 0.0000 17.8759 0.0000 0.0000
# 5 0.0000 0.0000 0.0000 0.0000 17.8759 0.0000
# 6 0.0000 0.0000 0.0000 0.0000 0.0000 38.0373
#
#
#
# Elastic Compliance Matrix: (Units=1/GPa)
#
#
# Indices 1 2 3 4 5 6 
#
# 1 0.009555 -0.003590 -0.001575 0.000000 0.000000 0.000000
# 2 -0.003590 0.009555 -0.001575 0.000000 0.000000 0.000000
# 3 -0.001575 -0.001575 0.014054 0.000000 0.000000 0.000000
# 4 0.000000 0.000000 0.000000 0.055941 0.000000 0.000000
# 5 0.000000 0.000000 0.000000 0.000000 0.055941 0.000000
# 6 0.000000 0.000000 0.000000 0.000000 0.000000 0.026290
#
#
# Mechanical properties :
#
#
# Convention : Reuss Voigt Hill
#
# Bulk Modulus (GPa) = 50.80162 56.87378 53.83770
# Shear Modulus (GPa) = 26.12609 30.68359 28.40484
#
# Velocity S-wave (km/s) = 3.45454 3.74375 3.60205
# Velocity P-wave (km/s) = 6.25436 6.68329 6.47238
#
# Compressibility (1/GPa) = 0.01968441
#
# Stress axis : x y z
#
# Youngs Moduli (GPa) = 104.65413 104.65413 71.15177
#
# Poissons Ratio (x) = 0.37568 0.11208
# Poissons Ratio (y) = 0.37568 0.11208
# Poissons Ratio (z) = 0.16486 0.16486
#
# Static dielectric constant tensor:
#      x y z
#    x 1.878150 0.000000 0.000000 
#    y 0.000000 1.878150 0.000000 
#    z 0.000000 0.000000 1.790660 
# 
# From -- ./inp_files/6328.got.cif
#   From: 2010.05.17/outbox.cif.g08.bks.cpg/sg192_4_cif.got.tgz:6328.got - 2010.05.20 12:28:01.
