data_PCOD9588647
_publ_section_title
;
Structure prediction by ZEFSAII (Michael W. Deem and Ramdas Pophale) SiO2 
 PCOD9588647
Probable space group: P 6/M C C
;
_chemical_formula_sum "Si O2"
_cell_formula_units_Z 120
_cell_length_a 24.716285
_cell_length_b 24.716285
_cell_length_c 14.448583
_cell_angle_alpha 90.000000
_cell_angle_beta 90.000000
_cell_angle_gamma 120.000000
_cell_volume 7644.028146
_symmetry_space_group_name_H-M "P 6/M C C"
_symmetry_group_IT_number 192
_symmetry_cell_setting 'hexagonal'
loop_
_space_group_symop_operation_xyz
x,y,z
x-y,x,z
-y,x-y,z
-x,-y,z
-x+y,-x,z
y,-x+y,z
x-y,-y,1/2-z
-x,-x+y,1/2-z
y,x,1/2-z
-y,-x,1/2-z
-x+y,y,1/2-z
x,x-y,1/2-z
-x,-y,-z
-x+y,-x,-z
y,-x+y,-z
x,y,-z
x-y,x,-z
-y,x-y,-z
-x+y,y,1/2+z
x,x-y,1/2+z
-y,-x,1/2+z
y,x,1/2+z
x-y,-y,1/2+z
-x,-x+y,1/2+z
loop_
_atom_site_type_symbol
_atom_site_label
_atom_site_fract_x
_atom_site_fract_y
_atom_site_fract_z
Si Si1 0.660110 0.764888 0.750000
Si Si2 0.553080 0.629066 0.250000
Si Si3 0.877144 0.000001 0.111954
Si Si4 0.537797 0.462203 0.604051
Si Si5 0.249625 0.249626 0.388985
O O1 0.661006 0.830503 0.750000
O O2 0.592319 0.703291 0.749999
O O3 0.696146 0.757573 0.661102
O O4 0.696145 0.757573 0.838898
O O5 0.600749 0.600749 0.250000
O O6 0.507654 0.599419 0.337992
O O7 0.507655 0.599420 0.162008
O O8 0.875801 0.937901 0.144785
O O9 0.814142 0.000001 0.133061
O O10 0.880710 0.000001 0.000000
O O11 0.500000 0.500000 0.601096
O O12 0.549888 0.450112 0.500000
O O13 0.257660 0.257660 0.500000
#
# Coordination Sequence:
#
# PCOD9588647 Si02
#       5
#    24  24  24  24  24
#     4  11  22  35  51  73 102 138 175 219 260 306
#     4   9  16  31  46  72 104 129 163 201 236 289
#     4   9  16  27  44  63  80 102 145 210 274 324
#     4   8  15  27  50  75  99 128 155 187 236 291
#     4  10  21  36  50  65  92 134 177 214 265 329
#
# _framework density 15.698529000000001
#
# number of rings (size 3 to 8) (size 9 to 14) (size 15 to 20)
#    0.000    2.600    2.000    2.600    0.000    4.800 
#    0.000    0.000    0.000    0.000    0.000    7.000 
#    8.000    0.000    0.000    0.000    0.000    0.000 
#
# Total GULP energy -668832.815970 kJ/mol
# GULP energy per Si atom -5573.606800 kJ/mol
# Density = 1.566280 g / cm^3
# Si number density = 15.698529 Si / 1000 Ang^3
#
#
#
# Elastic Constant Matrix: (Units=GPa)
#
#
# Indices 1 2 3 4 5 6 
#
# 1 85.0623 72.9495 47.4697 0.0000 0.0000 0.0000
# 2 72.9495 85.0623 47.4697 0.0000 0.0000 0.0000
# 3 47.4697 47.4697 134.6600 0.0000 0.0000 0.0000
# 4 0.0000 0.0000 0.0000 6.7289 0.0000 0.0000
# 5 0.0000 0.0000 0.0000 0.0000 6.7289 0.0000
# 6 0.0000 0.0000 0.0000 0.0000 0.0000 6.0564
#
#
#
# Elastic Compliance Matrix: (Units=1/GPa)
#
#
# Indices 1 2 3 4 5 6 
#
# 1 0.045293 -0.037264 -0.002830 0.000000 0.000000 0.000000
# 2 -0.037264 0.045293 -0.002830 0.000000 0.000000 0.000000
# 3 -0.002830 -0.002830 0.009422 0.000000 0.000000 0.000000
# 4 0.000000 0.000000 0.000000 0.148614 0.000000 0.000000
# 5 0.000000 0.000000 0.000000 0.000000 0.148614 0.000000
# 6 0.000000 0.000000 0.000000 0.000000 0.000000 0.165115
#
#
# Mechanical properties :
#
#
# Convention : Reuss Voigt Hill
#
# Bulk Modulus (GPa) = 70.62924 71.17361 70.90142
# Shear Modulus (GPa) = 7.65790 13.02919 10.34355
#
# Velocity S-wave (km/s) = 2.21104 2.88403 2.56966
# Velocity P-wave (km/s) = 7.18380 7.51840 7.35300
#
# Compressibility (1/GPa) = 0.01415844
#
# Stress axis : x y z
#
# Youngs Moduli (GPa) = 22.07825 22.07825 106.13844
#
# Poissons Ratio (x) = 0.82273 0.30042
# Poissons Ratio (y) = 0.82273 0.30042
# Poissons Ratio (z) = 0.06249 0.06249
#
# Static dielectric constant tensor:
#      x y z
#    x 1.507320 0.000000 0.000000 
#    y 0.000000 1.507320 0.000000 
#    z 0.000000 0.000000 1.562900 
# 
# From -- ./inp_files/3134.got.cif
#   From: 2010.05.17/outbox.cif.g08.bks.cpg/sg192_2_cif.got.tgz:3134.got - 2010.05.20 12:28:01.
