data_PCOD9588504
_publ_section_title
;
Structure prediction by ZEFSAII (Michael W. Deem and Ramdas Pophale) SiO2 
 PCOD9588504
Probable space group: P 6/M C C
;
_chemical_formula_sum "Si O2"
_cell_formula_units_Z 144
_cell_length_a 32.761209
_cell_length_b 32.761209
_cell_length_c 8.995185
_cell_angle_alpha 90.000000
_cell_angle_beta 90.000000
_cell_angle_gamma 120.000000
_cell_volume 8361.045216
_symmetry_space_group_name_H-M "P 6/M C C"
_symmetry_group_IT_number 192
_symmetry_cell_setting 'hexagonal'
loop_
_space_group_symop_operation_xyz
x,y,z
x-y,x,z
-y,x-y,z
-x,-y,z
-x+y,-x,z
y,-x+y,z
x-y,-y,1/2-z
-x,-x+y,1/2-z
y,x,1/2-z
-y,-x,1/2-z
-x+y,y,1/2-z
x,x-y,1/2-z
-x,-y,-z
-x+y,-x,-z
y,-x+y,-z
x,y,-z
x-y,x,-z
-y,x-y,-z
-x+y,y,1/2+z
x,x-y,1/2+z
-y,-x,1/2+z
y,x,1/2+z
x-y,-y,1/2+z
-x,-x+y,1/2+z
loop_
_atom_site_type_symbol
_atom_site_label
_atom_site_fract_x
_atom_site_fract_y
_atom_site_fract_z
Si Si1 0.615743 0.727227 0.324415
Si Si2 0.136121 0.525219 0.822665
Si Si3 0.949082 0.384822 0.175753
Si Si4 0.285506 0.234909 0.823278
Si Si5 0.810985 0.861430 0.823108
Si Si6 0.474547 0.195512 0.322948
O O1 0.617761 0.736926 0.500000
O O2 0.597933 0.671564 0.305108
O O3 0.666558 0.756662 0.249996
O O4 0.576143 0.734983 0.246868
O O5 0.149289 0.574645 0.750000
O O6 0.087115 0.484947 0.752746
O O7 0.173920 0.508375 0.791440
O O8 0.131340 0.526738 0.000000
O O9 0.000000 0.412077 0.250000
O O10 0.952014 0.394577 0.000000
O O11 0.270055 0.270055 0.750000
O O12 0.241919 0.182381 0.797527
O O13 0.291521 0.243280 0.000000
O O14 0.845682 0.845682 0.750000
O O15 0.816231 0.908116 0.750000
O O16 0.818490 0.867059 0.000000
O O17 0.491652 0.245826 0.250000
O O18 0.470190 0.197579 0.500000
#
# Coordination Sequence:
#
# PCOD9588504 Si02
#       6
#    24  24  24  24  24  24
#     4  10  20  33  51  75 106 144 183 223 264 306
#     4  10  21  37  57  80 105 134 169 211 259 312
#     4  10  20  33  50  74 105 142 182 222 261 303
#     4  10  20  33  50  74 106 144 185 226 265 307
#     4  10  21  37  57  80 106 137 173 214 261 312
#     4  10  21  37  57  80 106 136 171 212 259 312
#
# _framework density 17.222728
#
# number of rings (size 3 to 8) (size 9 to 14) (size 15 to 20)
#    0.000    2.000    0.000    3.500    0.000    8.333 
#    0.000    3.333    0.000    0.500    0.000    1.167 
#    0.000    0.000    0.000    0.000    0.000    0.000 
#
# Total GULP energy -804422.320953 kJ/mol
# GULP energy per Si atom -5586.266118 kJ/mol
# Density = 1.718353 g / cm^3
# Si number density = 17.222728 Si / 1000 Ang^3
#
#
#
# Elastic Constant Matrix: (Units=GPa)
#
#
# Indices 1 2 3 4 5 6 
#
# 1 83.7647 68.8206 72.7076 0.0000 0.0000 0.0000
# 2 68.8206 83.7647 72.7076 0.0000 0.0000 0.0000
# 3 72.7076 72.7076 108.7791 0.0000 0.0000 0.0000
# 4 0.0000 0.0000 0.0000 32.5869 0.0000 0.0000
# 5 0.0000 0.0000 0.0000 0.0000 32.5869 0.0000
# 6 0.0000 0.0000 0.0000 0.0000 0.0000 7.4720
#
#
#
# Elastic Compliance Matrix: (Units=1/GPa)
#
#
# Indices 1 2 3 4 5 6 
#
# 1 0.042485 -0.024431 -0.012067 0.000000 0.000000 0.000000
# 2 -0.024431 0.042485 -0.012067 0.000000 0.000000 0.000000
# 3 -0.012067 -0.012067 0.025324 0.000000 0.000000 0.000000
# 4 0.000000 0.000000 0.000000 0.030687 0.000000 0.000000
# 5 0.000000 0.000000 0.000000 0.000000 0.030687 0.000000
# 6 0.000000 0.000000 0.000000 0.000000 0.000000 0.133833
#
#
# Mechanical properties :
#
#
# Convention : Reuss Voigt Hill
#
# Bulk Modulus (GPa) = 75.96856 78.30892 77.13874
# Shear Modulus (GPa) = 12.28440 18.66734 15.47587
#
# Velocity S-wave (km/s) = 2.67360 3.29580 3.00087
# Velocity P-wave (km/s) = 7.33049 7.74920 7.54275
#
# Compressibility (1/GPa) = 0.01316334
#
# Stress axis : x y z
#
# Youngs Moduli (GPa) = 23.53767 23.53767 39.48804
#
# Poissons Ratio (x) = 0.57506 0.47650
# Poissons Ratio (y) = 0.57506 0.47650
# Poissons Ratio (z) = 0.28403 0.28403
#
# Static dielectric constant tensor:
#      x y z
#    x 1.563660 0.000000 0.000000 
#    y 0.000000 1.563660 0.000000 
#    z 0.000000 0.000000 1.568440 
# 
# From -- ./inp_files/1159.got.cif
#   From: 2010.05.17/outbox.cif.g08.bks.cpg/sg192_1_cif.got.tgz:1159.got - 2010.05.20 12:28:01.
