data_PCOD9588421
_publ_section_title
;
Structure prediction by ZEFSAII (Michael W. Deem and Ramdas Pophale) SiO2 
 PCOD9588421
Probable space group: P 6/M C C
;
_chemical_formula_sum "Si O2"
_cell_formula_units_Z 132
_cell_length_a 24.519318
_cell_length_b 24.519318
_cell_length_c 14.688514
_cell_angle_alpha 90.000000
_cell_angle_beta 90.000000
_cell_angle_gamma 120.000000
_cell_volume 7647.601780
_symmetry_space_group_name_H-M "P 6/M C C"
_symmetry_group_IT_number 192
_symmetry_cell_setting 'hexagonal'
loop_
_space_group_symop_operation_xyz
x,y,z
x-y,x,z
-y,x-y,z
-x,-y,z
-x+y,-x,z
y,-x+y,z
x-y,-y,1/2-z
-x,-x+y,1/2-z
y,x,1/2-z
-y,-x,1/2-z
-x+y,y,1/2-z
x,x-y,1/2-z
-x,-y,-z
-x+y,-x,-z
y,-x+y,-z
x,y,-z
x-y,x,-z
-y,x-y,-z
-x+y,y,1/2+z
x,x-y,1/2+z
-y,-x,1/2+z
y,x,1/2+z
x-y,-y,1/2+z
-x,-x+y,1/2+z
loop_
_atom_site_type_symbol
_atom_site_label
_atom_site_fract_x
_atom_site_fract_y
_atom_site_fract_z
Si Si1 0.226854 0.166607 0.313756
Si Si2 0.107397 0.148548 0.000000
Si Si3 0.881949 0.635987 0.266375
Si Si4 0.928421 0.454898 0.358067
Si Si5 0.341741 0.944759 0.105598
Si Si6 0.560797 0.653449 0.398737
O O1 0.190625 0.190625 0.250000
O O2 0.229564 0.114782 0.250000
O O3 0.191140 0.138348 0.409126
O O4 0.298993 0.223103 0.321932
O O5 0.122663 0.090899 0.000000
O O6 0.816209 0.632418 0.250000
O O7 0.917030 0.633606 0.174646
O O8 0.870594 0.576705 0.325354
O O9 0.928697 0.464349 0.250000
O O10 0.911583 0.384441 0.380932
O O11 0.892545 0.489267 0.396160
O O12 0.000000 0.500000 0.392098
O O13 0.391552 0.018552 0.125374
O O14 0.322718 0.939399 0.000000
O O15 0.576755 0.679413 0.500000
#
# Coordination Sequence:
#
# PCOD9588421 Si02
#       6
#    24  12  24  24  24  24
#     4  11  23  42  60  82 115 145 182 229 287 359
#     4  12  25  44  72  94 108 136 183 249 327 377
#     4  11  24  38  50  72 109 154 191 226 264 326
#     4   9  15  27  52  80 113 140 164 218 268 313
#     4  10  19  34  55  80 108 143 188 226 277 328
#     4  10  19  32  53  81 108 138 180 221 271 320
#
# _framework density 17.260313
#
# number of rings (size 3 to 8) (size 9 to 14) (size 15 to 20)
#    0.000    1.636    3.636    2.273    1.273    2.909 
#    6.545    0.000    0.000    0.000    0.000    0.000 
#    7.273    0.000    2.182    0.000    0.000    0.000 
#
# Total GULP energy -735702.744420 kJ/mol
# GULP energy per Si atom -5573.505640 kJ/mol
# Density = 1.722103 g / cm^3
# Si number density = 17.260313 Si / 1000 Ang^3
#
#
#
# Elastic Constant Matrix: (Units=GPa)
#
#
# Indices 1 2 3 4 5 6 
#
# 1 69.8226 28.0143 29.6442 0.0000 0.0000 0.0000
# 2 28.0143 69.8226 29.6442 0.0000 0.0000 0.0000
# 3 29.6442 29.6442 99.7614 0.0000 0.0000 0.0000
# 4 0.0000 0.0000 0.0000 13.9789 0.0000 0.0000
# 5 0.0000 0.0000 0.0000 0.0000 13.9789 0.0000
# 6 0.0000 0.0000 0.0000 0.0000 0.0000 20.9041
#
#
#
# Elastic Compliance Matrix: (Units=1/GPa)
#
#
# Indices 1 2 3 4 5 6 
#
# 1 0.018192 -0.005726 -0.003704 0.000000 0.000000 0.000000
# 2 -0.005726 0.018192 -0.003704 0.000000 0.000000 0.000000
# 3 -0.003704 -0.003704 0.012225 0.000000 0.000000 0.000000
# 4 0.000000 0.000000 0.000000 0.071536 0.000000 0.000000
# 5 0.000000 0.000000 0.000000 0.000000 0.071536 0.000000
# 6 0.000000 0.000000 0.000000 0.000000 0.000000 0.047837
#
#
# Mechanical properties :
#
#
# Convention : Reuss Voigt Hill
#
# Bulk Modulus (GPa) = 44.76260 46.00132 45.38196
# Shear Modulus (GPa) = 18.29918 19.91265 19.10592
#
# Velocity S-wave (km/s) = 3.25959 3.40025 3.33066
# Velocity P-wave (km/s) = 6.33693 6.49038 6.41411
#
# Compressibility (1/GPa) = 0.02234008
#
# Stress axis : x y z
#
# Youngs Moduli (GPa) = 54.96836 54.96836 81.79729
#
# Poissons Ratio (x) = 0.31477 0.30300
# Poissons Ratio (y) = 0.31477 0.30300
# Poissons Ratio (z) = 0.20362 0.20362
#
# Static dielectric constant tensor:
#      x y z
#    x 1.628060 0.000000 0.000000 
#    y 0.000000 1.628060 0.000000 
#    z 0.000000 0.000000 1.603310 
# 
# From -- ./inp_files/3244.got.cif
#   From: 2010.05.17/outbox.cif.g08.bks.cpg/sg192_2_cif.got.tgz:3244.got - 2010.05.20 12:28:01.
