data_PCOD9588599
_publ_section_title
;
Structure prediction by ZEFSAII (Michael W. Deem and Ramdas Pophale) SiO2 
 PCOD9588599
Probable space group: P 6/M C C
;
_chemical_formula_sum "Si O2"
_cell_formula_units_Z 168
_cell_length_a 17.380788
_cell_length_b 17.380788
_cell_length_c 33.634648
_cell_angle_alpha 90.000000
_cell_angle_beta 90.000000
_cell_angle_gamma 120.000000
_cell_volume 8799.468549
_symmetry_space_group_name_H-M "P 6/M C C"
_symmetry_group_IT_number 192
_symmetry_cell_setting 'hexagonal'
loop_
_space_group_symop_operation_xyz
x,y,z
x-y,x,z
-y,x-y,z
-x,-y,z
-x+y,-x,z
y,-x+y,z
x-y,-y,1/2-z
-x,-x+y,1/2-z
y,x,1/2-z
-y,-x,1/2-z
-x+y,y,1/2-z
x,x-y,1/2-z
-x,-y,-z
-x+y,-x,-z
y,-x+y,-z
x,y,-z
x-y,x,-z
-y,x-y,-z
-x+y,y,1/2+z
x,x-y,1/2+z
-y,-x,1/2+z
y,x,1/2+z
x-y,-y,1/2+z
-x,-x+y,1/2+z
loop_
_atom_site_type_symbol
_atom_site_label
_atom_site_fract_x
_atom_site_fract_y
_atom_site_fract_z
Si Si1 0.844687 0.503822 0.880891
Si Si2 0.843563 0.325724 0.125452
Si Si3 0.068851 0.209228 0.859572
Si Si4 0.300992 0.221584 0.776247
Si Si5 0.588632 0.584739 0.315113
Si Si6 0.757877 0.096444 0.933182
Si Si7 0.094986 0.376798 0.457406
O O1 0.819519 0.402386 0.882663
O O2 0.764527 0.517277 0.866270
O O3 0.877018 0.561164 0.920951
O O4 0.926992 0.546165 0.851247
O O5 0.910663 0.349855 0.162737
O O6 0.886938 0.317307 0.084156
O O7 0.133727 0.168322 0.863061
O O8 0.087381 0.258770 0.817275
O O9 0.087863 0.282186 0.893445
O O10 0.225342 0.225342 0.750000
O O11 0.337491 0.168746 0.750000
O O12 0.368450 0.324512 0.787593
O O13 0.500000 0.500000 0.297803
O O14 0.833328 0.178073 0.956773
O O15 0.707399 0.002534 0.954076
O O16 0.103110 0.423296 0.500000
#
# Coordination Sequence:
#
# PCOD9588599 Si02
#       7
#    24  24  24  24  24  24  24
#     4  10  20  36  63  88 117 156 208 255 298 365
#     4  10  21  38  61  90 124 157 209 254 310 373
#     4  12  23  40  62  90 122 170 208 258 308 380
#     4  12  25  38  61  91 129 163 203 251 324 378
#     4  10  22  40  64  92 119 161 214 260 300 366
#     4  11  21  37  62  84 119 159 214 252 304 373
#     4  11  22  37  57  87 122 160 202 260 318 368
#
# _framework density 19.092061999999999
#
# number of rings (size 3 to 8) (size 9 to 14) (size 15 to 20)
#    0.000    1.143    5.714    0.857    4.000    0.286 
#    0.000    4.286    0.000    0.000    0.000    2.000 
#    0.000    0.000    0.000    0.000    0.000    0.000 
#
# Total GULP energy -937472.135175 kJ/mol
# GULP energy per Si atom -5580.191281 kJ/mol
# Density = 1.904861 g / cm^3
# Si number density = 19.092062 Si / 1000 Ang^3
#
#
#
# Elastic Constant Matrix: (Units=GPa)
#
#
# Indices 1 2 3 4 5 6 
#
# 1 95.6625 35.9950 17.0322 0.0000 0.0000 0.0000
# 2 35.9950 95.6625 17.0322 0.0000 0.0000 0.0000
# 3 17.0322 17.0322 71.0584 0.0000 0.0000 0.0000
# 4 0.0000 0.0000 0.0000 -6.9175 0.0000 0.0000
# 5 0.0000 0.0000 0.0000 0.0000 -6.9175 0.0000
# 6 0.0000 0.0000 0.0000 0.0000 0.0000 29.8338
#
#
#
# Elastic Compliance Matrix: (Units=1/GPa)
#
#
# Indices 1 2 3 4 5 6 
#
# 1 0.012429 -0.004331 -0.001941 0.000000 0.000000 0.000000
# 2 -0.004331 0.012429 -0.001941 0.000000 0.000000 0.000000
# 3 -0.001941 -0.001941 0.015003 0.000000 0.000000 0.000000
# 4 0.000000 0.000000 0.000000 -0.144561 0.000000 0.000000
# 5 0.000000 0.000000 0.000000 0.000000 -0.144561 0.000000
# 6 0.000000 0.000000 0.000000 0.000000 0.000000 0.033519
#
#
# Mechanical properties :
#
#
# Convention : Reuss Voigt Hill
#
# Bulk Modulus (GPa) = 42.67142 44.72249 43.69695
# Shear Modulus (GPa) = -26.10891 16.02136 -5.04378
#
# Velocity S-wave (km/s) = -3.70202 2.89997 -1.62713
# Velocity P-wave (km/s) = 2.03115 5.88971 4.40535
#
# Compressibility (1/GPa) = 0.02343489
#
# Stress axis : x y z
#
# Youngs Moduli (GPa) = 80.45959 80.45959 66.65157
#
# Poissons Ratio (x) = 0.34847 0.12937
# Poissons Ratio (y) = 0.34847 0.12937
# Poissons Ratio (z) = 0.15617 0.15617
#
# Static dielectric constant tensor:
#      x y z
#    x 1.677790 0.000000 0.000000 
#    y 0.000000 1.677790 0.000000 
#    z 0.000000 0.000000 1.695860 
# 
# From -- ./inp_files/7214.got.cif
#   From: 2010.05.17/outbox.cif.g08.bks.cpg/sg192_4_cif.got.tgz:7214.got - 2010.05.20 12:28:01.
