data_PCOD9588559
_publ_section_title
;
Structure prediction by ZEFSAII (Michael W. Deem and Ramdas Pophale) SiO2 
 PCOD9588559
Probable space group: P 6/M C C
;
_chemical_formula_sum "Si O2"
_cell_formula_units_Z 144
_cell_length_a 33.146194
_cell_length_b 33.146194
_cell_length_c 8.610351
_cell_angle_alpha 90.000000
_cell_angle_beta 90.000000
_cell_angle_gamma 120.000000
_cell_volume 8192.544768
_symmetry_space_group_name_H-M "P 6/M C C"
_symmetry_group_IT_number 192
_symmetry_cell_setting 'hexagonal'
loop_
_space_group_symop_operation_xyz
x,y,z
x-y,x,z
-y,x-y,z
-x,-y,z
-x+y,-x,z
y,-x+y,z
x-y,-y,1/2-z
-x,-x+y,1/2-z
y,x,1/2-z
-y,-x,1/2-z
-x+y,y,1/2-z
x,x-y,1/2-z
-x,-y,-z
-x+y,-x,-z
y,-x+y,-z
x,y,-z
x-y,x,-z
-y,x-y,-z
-x+y,y,1/2+z
x,x-y,1/2+z
-y,-x,1/2+z
y,x,1/2+z
x-y,-y,1/2+z
-x,-x+y,1/2+z
loop_
_atom_site_type_symbol
_atom_site_label
_atom_site_fract_x
_atom_site_fract_y
_atom_site_fract_z
Si Si1 0.381191 0.099161 0.185615
Si Si2 0.472682 0.615145 0.186180
Si Si3 0.948748 0.140044 0.186078
Si Si4 0.050030 0.615334 0.313392
Si Si5 0.191871 0.294804 0.686033
Si Si6 0.190661 0.469713 0.813046
O O1 0.397863 0.064030 0.247141
O O2 0.332692 0.089910 0.256360
O O3 0.421384 0.150014 0.242730
O O4 0.378789 0.097811 0.000000
O O5 0.423488 0.576513 0.250000
O O6 0.514169 0.605419 0.235006
O O7 0.490841 0.668588 0.231533
O O8 0.470738 0.613196 0.000000
O O9 0.910380 0.089621 0.250000
O O10 0.931641 0.175159 0.247555
O O11 0.000000 0.157111 0.250000
O O12 0.948172 0.139747 0.000000
O O13 0.049629 0.617273 0.500000
O O14 0.000000 0.577978 0.250000
O O15 0.154011 0.308021 0.750000
O O16 0.189745 0.293161 0.500000
O O17 0.239849 0.479697 0.750000
O O18 0.188784 0.465542 0.000000
#
# Coordination Sequence:
#
# PCOD9588559 Si02
#       6
#    24  24  24  24  24  24
#     4  11  21  34  52  76 106 144 182 222 266 312
#     4   9  20  36  55  78 106 135 172 216 263 316
#     4  11  22  39  60  85 112 143 180 221 265 315
#     4  10  21  37  53  75 104 138 179 224 267 314
#     4  11  21  35  53  77 108 143 180 221 262 310
#     4  10  20  35  54  80 108 138 174 217 264 318
#
# _framework density 17.576955999999999
#
# number of rings (size 3 to 8) (size 9 to 14) (size 15 to 20)
#    0.000    1.667    0.000    8.000    0.000    5.000 
#    0.000    5.000    0.000    0.500    0.000    1.167 
#    0.000    0.000    0.000    0.000    0.000    0.000 
#
# Total GULP energy -804592.835244 kJ/mol
# GULP energy per Si atom -5587.450245 kJ/mol
# Density = 1.753695 g / cm^3
# Si number density = 17.576956 Si / 1000 Ang^3
#
#
#
# Elastic Constant Matrix: (Units=GPa)
#
#
# Indices 1 2 3 4 5 6 
#
# 1 81.6817 61.3534 33.6757 0.0000 0.0000 0.0000
# 2 61.3534 81.6817 33.6757 0.0000 0.0000 0.0000
# 3 33.6757 33.6757 128.6191 0.0000 0.0000 0.0000
# 4 0.0000 0.0000 0.0000 31.6202 0.0000 0.0000
# 5 0.0000 0.0000 0.0000 0.0000 31.6202 0.0000
# 6 0.0000 0.0000 0.0000 0.0000 0.0000 10.1642
#
#
#
# Elastic Compliance Matrix: (Units=1/GPa)
#
#
# Indices 1 2 3 4 5 6 
#
# 1 0.028583 -0.020609 -0.002088 0.000000 0.000000 0.000000
# 2 -0.020609 0.028583 -0.002088 0.000000 0.000000 0.000000
# 3 -0.002088 -0.002088 0.008868 0.000000 0.000000 0.000000
# 4 0.000000 0.000000 0.000000 0.031625 0.000000 0.000000
# 5 0.000000 0.000000 0.000000 0.000000 0.031625 0.000000
# 6 0.000000 0.000000 0.000000 0.000000 0.000000 0.098385
#
#
# Mechanical properties :
#
#
# Convention : Reuss Voigt Hill
#
# Bulk Modulus (GPa) = 60.73317 61.04355 60.88836
# Shear Modulus (GPa) = 17.68480 25.56612 21.62546
#
# Velocity S-wave (km/s) = 3.17541 3.81796 3.51141
# Velocity P-wave (km/s) = 6.93340 7.36481 7.15236
#
# Compressibility (1/GPa) = 0.01646547
#
# Stress axis : x y z
#
# Youngs Moduli (GPa) = 34.98531 34.98531 112.76217
#
# Poissons Ratio (x) = 0.72101 0.23544
# Poissons Ratio (y) = 0.72101 0.23544
# Poissons Ratio (z) = 0.07305 0.07305
#
# Static dielectric constant tensor:
#      x y z
#    x 1.585770 0.000000 0.000000 
#    y 0.000000 1.585770 0.000000 
#    z 0.000000 0.000000 1.587050 
# 
# From -- ./inp_files/1174.got.cif
#   From: 2010.05.17/outbox.cif.g08.bks.cpg/sg192_1_cif.got.tgz:1174.got - 2010.05.20 12:28:01.
