data_PCOD9588817
_publ_section_title
;
Structure prediction by ZEFSAII (Michael W. Deem and Ramdas Pophale) SiO2 
 PCOD9588817
Probable space group: P 6/M C C
;
_chemical_formula_sum "Si O2"
_cell_formula_units_Z 50
_cell_length_a 14.149060
_cell_length_b 14.149060
_cell_length_c 14.614880
_cell_angle_alpha 90.000000
_cell_angle_beta 90.000000
_cell_angle_gamma 120.000000
_cell_volume 2533.850935
_symmetry_space_group_name_H-M "P 6/M C C"
_symmetry_group_IT_number 192
_symmetry_cell_setting 'hexagonal'
loop_
_space_group_symop_operation_xyz
x,y,z
x-y,x,z
-y,x-y,z
-x,-y,z
-x+y,-x,z
y,-x+y,z
x-y,-y,1/2-z
-x,-x+y,1/2-z
y,x,1/2-z
-y,-x,1/2-z
-x+y,y,1/2-z
x,x-y,1/2-z
-x,-y,-z
-x+y,-x,-z
y,-x+y,-z
x,y,-z
x-y,x,-z
-y,x-y,-z
-x+y,y,1/2+z
x,x-y,1/2+z
-y,-x,1/2+z
y,x,1/2+z
x-y,-y,1/2+z
-x,-x+y,1/2+z
loop_
_atom_site_type_symbol
_atom_site_label
_atom_site_fract_x
_atom_site_fract_y
_atom_site_fract_z
Si Si1 0.272554 0.432437 0.656961
Si Si2 0.500000 0.000000 0.750000
Si Si3 0.745142 0.918583 0.500000
Si Si4 0.333335 0.666668 0.361724
O O1 0.202464 0.404927 0.750000
O O2 0.395436 0.470420 0.688014
O O3 0.224616 0.332621 0.588055
O O4 0.278261 0.540194 0.612904
O O5 0.794828 0.838753 0.500000
O O6 0.333334 0.666667 0.250000
#
# Coordination Sequence:
#
# PCOD9588817 Si02
#       4
#    24   6  12   8
#     4  11  22  43  69 103 140 178 214 284 351 421
#     4  12  20  38  72  96 142 174 220 274 350 420
#     4  12  29  47  67  95 135 188 249 291 333 391
#     4   9  18  40  62  97 145 161 196 268 347 412
#
# _framework density 19.732809
#
# number of rings (size 3 to 8) (size 9 to 14) (size 15 to 20)
#    0.000    0.960    7.200    3.120    0.000    2.880 
#    0.000    0.000    0.000    2.880    0.000    0.000 
#    0.000    0.000    0.000    0.000    0.000    0.000 
#
# Total GULP energy -279670.902103 kJ/mol
# GULP energy per Si atom -5593.418042 kJ/mol
# Density = 1.968790 g / cm^3
# Si number density = 19.732809 Si / 1000 Ang^3
#
#
#
# Elastic Constant Matrix: (Units=GPa)
#
#
# Indices 1 2 3 4 5 6 
#
# 1 163.4198 81.3535 76.7489 -0.0001 -0.0001 0.0000
# 2 81.3535 163.4182 76.7490 -0.0001 0.0000 0.0001
# 3 76.7489 76.7490 119.8445 0.0000 0.0001 0.0000
# 4 -0.0001 -0.0001 0.0000 -13.0735 -0.0002 -0.0001
# 5 -0.0001 0.0000 0.0001 -0.0002 -13.0755 0.0000
# 6 0.0000 0.0001 0.0000 -0.0001 0.0000 41.0334
#
#
#
# Elastic Compliance Matrix: (Units=1/GPa)
#
#
# Indices 1 2 3 4 5 6 
#
# 1 0.009506 -0.002679 -0.004372 0.000000 0.000000 0.000000
# 2 -0.002679 0.009506 -0.004372 0.000000 0.000000 0.000000
# 3 -0.004372 -0.004372 0.013944 0.000000 0.000000 0.000000
# 4 0.000000 0.000000 0.000000 -0.076490 0.000001 0.000000
# 5 0.000000 0.000000 0.000000 0.000001 -0.076479 0.000000
# 6 0.000000 0.000000 0.000000 0.000000 0.000000 0.024370
#
#
# Mechanical properties :
#
#
# Convention : Reuss Voigt Hill
#
# Bulk Modulus (GPa) = 98.91395 101.82058 100.36726
# Shear Modulus (GPa) = -72.02009 17.09893 -27.46058
#
# Velocity S-wave (km/s) = -6.04788 2.94687 -3.73449
# Velocity P-wave (km/s) = 1.21091 7.95553 5.69020
#
# Compressibility (1/GPa) = 0.01010980
#
# Stress axis : x y z
#
# Youngs Moduli (GPa) = 105.19397 105.19239 71.71493
#
# Poissons Ratio (x) = 0.28182 0.31355
# Poissons Ratio (y) = 0.28182 0.31356
# Poissons Ratio (z) = 0.45992 0.45993
#
# Static dielectric constant tensor:
#      x y z
#    x 1.693720 0.000000 0.000000 
#    y 0.000000 1.693720 0.000000 
#    z 0.000000 0.000000 1.694940 
# 
# From -- ./inp_files/2171.got.cif
#   From: 2010.05.17/outbox.cif.g08.bks.cpg/sg192_2_cif.got.tgz:2171.got - 2010.05.20 12:28:01.
