data_PCOD9588724
_publ_section_title
;
Structure prediction by ZEFSAII (Michael W. Deem and Ramdas Pophale) SiO2 
 PCOD9588724
Probable space group: P 6/M C C
;
_chemical_formula_sum "Si O2"
_cell_formula_units_Z 168
_cell_length_a 18.158478
_cell_length_b 18.158478
_cell_length_c 30.915440
_cell_angle_alpha 90.000000
_cell_angle_beta 90.000000
_cell_angle_gamma 120.000000
_cell_volume 8828.053410
_symmetry_space_group_name_H-M "P 6/M C C"
_symmetry_group_IT_number 192
_symmetry_cell_setting 'hexagonal'
loop_
_space_group_symop_operation_xyz
x,y,z
x-y,x,z
-y,x-y,z
-x,-y,z
-x+y,-x,z
y,-x+y,z
x-y,-y,1/2-z
-x,-x+y,1/2-z
y,x,1/2-z
-y,-x,1/2-z
-x+y,y,1/2-z
x,x-y,1/2-z
-x,-y,-z
-x+y,-x,-z
y,-x+y,-z
x,y,-z
x-y,x,-z
-y,x-y,-z
-x+y,y,1/2+z
x,x-y,1/2+z
-y,-x,1/2+z
y,x,1/2+z
x-y,-y,1/2+z
-x,-x+y,1/2+z
loop_
_atom_site_type_symbol
_atom_site_label
_atom_site_fract_x
_atom_site_fract_y
_atom_site_fract_z
Si Si1 0.839733 0.332586 0.251305
Si Si2 0.888657 0.632326 0.671247
Si Si3 0.717631 0.631812 0.332346
Si Si4 0.734283 0.111820 0.577211
Si Si5 0.041982 0.443643 0.084637
Si Si6 0.941065 0.804975 0.448653
Si Si7 0.605103 0.145813 0.000000
Si Si8 0.211543 0.732812 0.000000
O O1 0.740125 0.259875 0.250000
O O2 0.850661 0.425331 0.250000
O O3 0.875830 0.307101 0.209919
O O4 0.886988 0.322968 0.293320
O O5 0.817721 0.661385 0.672061
O O6 0.867005 0.584595 0.625090
O O7 0.989391 0.699963 0.671239
O O8 0.668053 0.583422 0.376767
O O9 0.805222 0.084197 0.578312
O O10 0.764256 0.185859 0.542678
O O11 0.645225 0.030854 0.564744
O O12 0.100070 0.493873 0.044098
O O13 0.000000 0.500000 0.100870
O O14 0.876977 0.839561 0.440343
O O15 0.934932 0.782892 0.500000
O O16 0.524282 0.156715 0.000000
O O17 0.690328 0.235805 0.000000
#
# Coordination Sequence:
#
# PCOD9588724 Si02
#       8
#    24  24  24  24  24  24  12  12
#     4  10  22  40  65  95 128 163 203 254 320 382
#     4  10  23  40  58  94 122 161 201 258 313 370
#     4  10  23  40  64  90 125 159 206 254 314 381
#     4  11  23  37  59  86 119 157 212 255 304 369
#     4  11  23  40  61  88 118 159 209 262 309 360
#     4  10  22  37  59  90 125 165 208 259 319 375
#     4  12  25  39  60  81 121 161 208 260 308 361
#     4  12  24  40  55  80 115 163 207 255 309 366
#
# _framework density 19.030242000000001
#
# number of rings (size 3 to 8) (size 9 to 14) (size 15 to 20)
#    0.000    1.429    2.143    2.357   10.000    1.143 
#    0.000    0.000    0.000    3.714    0.000    0.000 
#    0.000    3.429    0.000    0.000    0.000    0.000 
#
# Total GULP energy -937194.845776 kJ/mol
# GULP energy per Si atom -5578.540749 kJ/mol
# Density = 1.898693 g / cm^3
# Si number density = 19.030242 Si / 1000 Ang^3
#
#
#
# Elastic Constant Matrix: (Units=GPa)
#
#
# Indices 1 2 3 4 5 6 
#
# 1 95.2094 56.5361 46.3635 0.0000 0.0000 0.0000
# 2 56.5361 95.2094 46.3635 0.0000 0.0000 0.0000
# 3 46.3635 46.3635 103.5949 0.0000 0.0000 0.0000
# 4 0.0000 0.0000 0.0000 19.4689 0.0000 0.0000
# 5 0.0000 0.0000 0.0000 0.0000 19.4689 0.0000
# 6 0.0000 0.0000 0.0000 0.0000 0.0000 19.3366
#
#
#
# Elastic Compliance Matrix: (Units=1/GPa)
#
#
# Indices 1 2 3 4 5 6 
#
# 1 0.017464 -0.008394 -0.004060 0.000000 0.000000 0.000000
# 2 -0.008394 0.017464 -0.004060 0.000000 0.000000 0.000000
# 3 -0.004060 -0.004060 0.013287 0.000000 0.000000 0.000000
# 4 0.000000 0.000000 0.000000 0.051364 0.000000 0.000000
# 5 0.000000 0.000000 0.000000 0.000000 0.051364 0.000000
# 6 0.000000 0.000000 0.000000 0.000000 0.000000 0.051715
#
#
# Mechanical properties :
#
#
# Convention : Reuss Voigt Hill
#
# Bulk Modulus (GPa) = 65.83368 65.83777 65.83573
# Shear Modulus (GPa) = 20.76871 21.30491 21.03681
#
# Velocity S-wave (km/s) = 3.30715 3.34957 3.32842
# Velocity P-wave (km/s) = 7.01800 7.04492 7.03147
#
# Compressibility (1/GPa) = 0.01518979
#
# Stress axis : x y z
#
# Youngs Moduli (GPa) = 57.26018 57.26018 75.26360
#
# Poissons Ratio (x) = 0.48061 0.30553
# Poissons Ratio (y) = 0.48061 0.30553
# Poissons Ratio (z) = 0.23245 0.23245
#
# Static dielectric constant tensor:
#      x y z
#    x 1.659390 0.000000 0.000000 
#    y 0.000000 1.659390 0.000000 
#    z 0.000000 0.000000 1.699390 
# 
# From -- ./inp_files/7236.got.cif
#   From: 2010.05.17/outbox.cif.g08.bks.cpg/sg192_4_cif.got.tgz:7236.got - 2010.05.20 12:28:01.
