data_PCOD9588502
_publ_section_title
;
Structure prediction by ZEFSAII (Michael W. Deem and Ramdas Pophale) SiO2 
 PCOD9588502
Probable space group: P 6/M C C
;
_chemical_formula_sum "Si O2"
_cell_formula_units_Z 192
_cell_length_a 27.642023
_cell_length_b 27.642023
_cell_length_c 16.875851
_cell_angle_alpha 90.000000
_cell_angle_beta 90.000000
_cell_angle_gamma 120.000000
_cell_volume 11166.985750
_symmetry_space_group_name_H-M "P 6/M C C"
_symmetry_group_IT_number 192
_symmetry_cell_setting 'hexagonal'
loop_
_space_group_symop_operation_xyz
x,y,z
x-y,x,z
-y,x-y,z
-x,-y,z
-x+y,-x,z
y,-x+y,z
x-y,-y,1/2-z
-x,-x+y,1/2-z
y,x,1/2-z
-y,-x,1/2-z
-x+y,y,1/2-z
x,x-y,1/2-z
-x,-y,-z
-x+y,-x,-z
y,-x+y,-z
x,y,-z
x-y,x,-z
-y,x-y,-z
-x+y,y,1/2+z
x,x-y,1/2+z
-y,-x,1/2+z
y,x,1/2+z
x-y,-y,1/2+z
-x,-x+y,1/2+z
loop_
_atom_site_type_symbol
_atom_site_label
_atom_site_fract_x
_atom_site_fract_y
_atom_site_fract_z
Si Si1 0.256405 0.935864 0.404336
Si Si2 0.128664 0.064332 0.654159
Si Si3 0.160867 0.433512 0.344698
Si Si4 0.872477 0.127523 0.095735
Si Si5 0.778095 0.444152 0.404268
Si Si6 0.566488 0.839133 0.344698
Si Si7 0.935864 0.256405 0.595664
Si Si8 0.555848 0.221905 0.595732
O O1 0.255877 0.936598 0.500000
O O2 0.280817 0.896854 0.377265
O O3 0.191835 0.905397 0.376849
O O4 0.290920 0.000000 0.376753
O O5 0.096172 0.096172 0.627873
O O6 0.129370 0.064685 0.750000
O O7 0.191569 0.095785 0.623688
O O8 0.176971 0.495179 0.372703
O O9 0.212321 0.424642 0.372642
O O10 0.159994 0.431697 0.250000
O O11 0.808165 0.094603 0.123151
O O12 0.871967 0.128033 0.000000
O O13 0.779860 0.445553 0.500000
O O14 0.717175 0.434349 0.380402
O O15 0.785781 0.392891 0.377451
O O16 0.616037 0.896854 0.377265
O O17 0.504821 0.823028 0.372703
O O18 0.936598 0.255877 0.500000
O O19 0.554447 0.220140 0.500000
#
# Coordination Sequence:
#
# PCOD9588502 Si02
#       8
#    24  24  24  24  24  24  24  24
#     4  10  20  34  54  77 100 130 167 209 258 309
#     4  10  21  36  52  70  96 132 170 206 250 310
#     4  10  20  33  50  74 105 139 173 209 252 301
#     4  10  20  35  55  77 102 126 160 212 266 314
#     4   9  17  30  51  78 108 141 176 212 250 294
#     4  10  20  33  50  74 105 139 173 209 252 301
#     4  10  20  34  54  77 100 130 167 209 258 309
#     4   9  17  30  51  78 108 141 176 212 250 294
#
# _framework density 17.193539000000001
#
# number of rings (size 3 to 8) (size 9 to 14) (size 15 to 20)
#    0.000    2.250    1.250    1.875    0.000    6.000 
#    0.000    0.000    0.000    3.000    0.000    5.250 
#    0.000    0.000    0.000    0.000    0.000    0.000 
#
# Total GULP energy -1071501.428841 kJ/mol
# GULP energy per Si atom -5580.736609 kJ/mol
# Density = 1.715441 g / cm^3
# Si number density = 17.193539 Si / 1000 Ang^3
#
#
#
# Elastic Constant Matrix: (Units=GPa)
#
#
# Indices 1 2 3 4 5 6 
#
# 1 160.5383 99.5510 20.7079 0.0000 0.0000 0.0000
# 2 99.5510 160.5383 20.7079 0.0000 0.0000 0.0000
# 3 20.7079 20.7079 6.3392 0.0000 0.0000 0.0000
# 4 0.0000 0.0000 0.0000 17.6453 0.0000 0.0000
# 5 0.0000 0.0000 0.0000 0.0000 17.6453 0.0000
# 6 0.0000 0.0000 0.0000 0.0000 0.0000 30.4936
#
#
#
# Elastic Compliance Matrix: (Units=1/GPa)
#
#
# Indices 1 2 3 4 5 6 
#
# 1 0.012205 -0.004192 -0.026175 0.000000 0.000000 0.000000
# 2 -0.004192 0.012205 -0.026175 0.000000 0.000000 0.000000
# 3 -0.026175 -0.026175 0.328757 0.000000 0.000000 0.000000
# 4 0.000000 0.000000 0.000000 0.056672 0.000000 0.000000
# 5 0.000000 0.000000 0.000000 0.000000 0.056672 0.000000
# 6 0.000000 0.000000 0.000000 0.000000 0.000000 0.032794
#
#
# Mechanical properties :
#
#
# Convention : Reuss Voigt Hill
#
# Bulk Modulus (GPa) = 4.16524 67.70551 35.93538
# Shear Modulus (GPa) = 7.22108 25.58675 16.40391
#
# Velocity S-wave (km/s) = 2.05158 3.86185 3.09216
# Velocity P-wave (km/s) = 2.83546 7.70384 5.80470
#
# Compressibility (1/GPa) = 0.24008231
#
# Stress axis : x y z
#
# Youngs Moduli (GPa) = 81.93442 81.93442 3.04176
#
# Poissons Ratio (x) = 0.34347 0.07962
# Poissons Ratio (y) = 0.34347 0.07962
# Poissons Ratio (z) = 2.14465 2.14465
#
# Static dielectric constant tensor:
#      x y z
#    x 1.568000 0.000000 0.000000 
#    y 0.000000 1.568000 0.000000 
#    z 0.000000 0.000000 1.588270 
# 
# From -- ./inp_files/5424.got.cif
#   From: 2010.05.17/outbox.cif.g08.bks.cpg/sg192_3_cif.got.tgz:5424.got - 2010.05.20 12:28:01.
