data_PCOD9588152
_publ_section_title
;
Structure prediction by ZEFSAII (Michael W. Deem and Ramdas Pophale) SiO2 
 PCOD9588152
Probable space group: P 6/M M M
;
_chemical_formula_sum "Si O2"
_cell_formula_units_Z 156
_cell_length_a 21.247862
_cell_length_b 21.247862
_cell_length_c 22.993142
_cell_angle_alpha 90.000000
_cell_angle_beta 90.000000
_cell_angle_gamma 120.000000
_cell_volume 8989.994525
_symmetry_space_group_name_H-M "P 6/M M M"
_symmetry_group_IT_number 191
_symmetry_cell_setting 'hexagonal'
loop_
_space_group_symop_operation_xyz
x,y,z
x-y,x,z
-y,x-y,z
-x,-y,z
-x+y,-x,z
y,-x+y,z
x-y,-y,-z
-x,-x+y,-z
y,x,-z
-y,-x,-z
-x+y,y,-z
x,x-y,-z
-x,-y,-z
-x+y,-x,-z
y,-x+y,-z
x,y,-z
x-y,x,-z
-y,x-y,-z
-x+y,y,z
x,x-y,z
-y,-x,z
y,x,z
x-y,-y,z
-x,-x+y,z
loop_
_atom_site_type_symbol
_atom_site_label
_atom_site_fract_x
_atom_site_fract_y
_atom_site_fract_z
Si Si1 0.920061 0.697430 0.098397
Si Si2 0.444379 0.359473 0.277389
Si Si3 0.084357 0.618477 0.500000
Si Si4 0.221386 0.920736 0.237603
Si Si5 0.336272 0.525401 0.829665
Si Si6 0.082856 0.635552 0.066223
Si Si7 0.334654 0.816934 0.610262
O O1 0.854991 0.709982 0.081345
O O2 0.914741 0.682524 0.168193
O O3 0.914299 0.627071 0.068588
O O4 0.000000 0.763859 0.086781
O O5 0.422374 0.422374 0.279226
O O6 0.368612 0.284218 0.271275
O O7 0.488498 0.359579 0.220660
O O8 0.487572 0.355236 0.332759
O O9 0.080595 0.540298 0.500000
O O10 0.131621 0.659853 0.443509
O O11 0.000000 0.598545 0.500000
O O12 0.143788 0.856213 0.254175
O O13 0.232847 0.000000 0.247139
O O14 0.252103 0.504205 0.825788
O O15 0.388456 0.611545 0.824181
O O16 0.355121 0.499607 0.889634
O O17 0.000000 0.576658 0.084310
O O18 0.093761 0.620298 0.000000
O O19 0.398338 0.796675 0.602134
O O20 0.256187 0.743814 0.614813
#
# Coordination Sequence:
#
# PCOD9588152 Si02
#       7
#    24  24  12  24  24  24  24
#     4   9  16  28  47  70  96 124 157 198 245 297
#     4  11  22  36  56  80 104 134 175 224 273 315
#     4   9  19  36  56  78 106 141 182 226 266 306
#     4   9  16  28  47  71  98 127 161 202 250 302
#     4  12  25  40  56  75 103 136 170 208 256 317
#     4  10  21  37  57  79  99 123 161 212 266 312
#     4  11  22  36  55  79 110 145 182 222 268 324
#
# _framework density 17.352625
#
# number of rings (size 3 to 8) (size 9 to 14) (size 15 to 20)
#    0.000    1.769    1.538    3.769    0.000    4.308 
#    0.000    3.077    0.000    1.231    0.000    2.154 
#    0.000    0.000    0.000    3.846    0.000    4.000 
#
# Total GULP energy -870658.100795 kJ/mol
# GULP energy per Si atom -5581.141672 kJ/mol
# Density = 1.731313 g / cm^3
# Si number density = 17.352625 Si / 1000 Ang^3
#
#
#
# Elastic Constant Matrix: (Units=GPa)
#
#
# Indices 1 2 3 4 5 6 
#
# 1 101.5588 63.6055 35.1306 0.0000 0.0000 0.0000
# 2 63.6055 101.5588 35.1306 0.0000 0.0000 0.0000
# 3 35.1306 35.1306 78.8687 0.0000 0.0000 0.0000
# 4 0.0000 0.0000 0.0000 42.3794 0.0000 0.0000
# 5 0.0000 0.0000 0.0000 0.0000 42.3794 0.0000
# 6 0.0000 0.0000 0.0000 0.0000 0.0000 18.9766
#
#
#
# Elastic Compliance Matrix: (Units=1/GPa)
#
#
# Indices 1 2 3 4 5 6 
#
# 1 0.016909 -0.009439 -0.003327 0.000000 0.000000 0.000000
# 2 -0.009439 0.016909 -0.003327 0.000000 0.000000 0.000000
# 3 -0.003327 -0.003327 0.015644 0.000000 0.000000 0.000000
# 4 0.000000 0.000000 0.000000 0.023596 0.000000 0.000000
# 5 0.000000 0.000000 0.000000 0.000000 0.023596 0.000000
# 6 0.000000 0.000000 0.000000 0.000000 0.000000 0.052696
#
#
# Mechanical properties :
#
#
# Convention : Reuss Voigt Hill
#
# Bulk Modulus (GPa) = 57.89020 61.07996 59.48508
# Shear Modulus (GPa) = 26.69561 30.62172 28.65867
#
# Velocity S-wave (km/s) = 3.92652 4.20536 4.06833
# Velocity P-wave (km/s) = 7.34781 7.67175 7.51152
#
# Compressibility (1/GPa) = 0.01727408
#
# Stress axis : x y z
#
# Youngs Moduli (GPa) = 59.13965 59.13965 63.92412
#
# Poissons Ratio (x) = 0.55822 0.21270
# Poissons Ratio (y) = 0.55822 0.21270
# Poissons Ratio (z) = 0.19678 0.19678
#
# Static dielectric constant tensor:
#      x y z
#    x 1.589790 0.000000 0.000000 
#    y 0.000000 1.589790 0.000000 
#    z 0.000000 0.000000 1.603010 
# 
# From -- ./inp_files/7724.got.cif
#   From: 2010.05.17/outbox.cif.g08.bks.cpg/sg191_4_cif.got.tgz:7724.got - 2010.05.20 12:20:32.
