data_PCOD9588756
_publ_section_title
;
Structure prediction by ZEFSAII (Michael W. Deem and Ramdas Pophale) SiO2 
 PCOD9588756
Probable space group: P 6/M C C
;
_chemical_formula_sum "Si O2"
_cell_formula_units_Z 168
_cell_length_a 17.306586
_cell_length_b 17.306586
_cell_length_c 28.194931
_cell_angle_alpha 90.000000
_cell_angle_beta 90.000000
_cell_angle_gamma 120.000000
_cell_volume 7313.486725
_symmetry_space_group_name_H-M "P 6/M C C"
_symmetry_group_IT_number 192
_symmetry_cell_setting 'hexagonal'
loop_
_space_group_symop_operation_xyz
x,y,z
x-y,x,z
-y,x-y,z
-x,-y,z
-x+y,-x,z
y,-x+y,z
x-y,-y,1/2-z
-x,-x+y,1/2-z
y,x,1/2-z
-y,-x,1/2-z
-x+y,y,1/2-z
x,x-y,1/2-z
-x,-y,-z
-x+y,-x,-z
y,-x+y,-z
x,y,-z
x-y,x,-z
-y,x-y,-z
-x+y,y,1/2+z
x,x-y,1/2+z
-y,-x,1/2+z
y,x,1/2+z
x-y,-y,1/2+z
-x,-x+y,1/2+z
loop_
_atom_site_type_symbol
_atom_site_label
_atom_site_fract_x
_atom_site_fract_y
_atom_site_fract_z
Si Si1 0.412074 0.010067 0.945903
Si Si2 0.675247 0.514840 0.127429
Si Si3 0.671718 0.500061 0.237150
Si Si4 0.182100 0.991163 0.157497
Si Si5 0.141490 0.657333 0.614870
Si Si6 0.190561 0.013361 0.550709
Si Si7 0.371098 0.045733 0.702077
O O1 0.420464 0.085287 0.909683
O O2 0.500000 0.000000 0.939463
O O3 0.338456 0.910075 0.931737
O O4 0.410519 0.035106 0.000000
O O5 0.672374 0.532034 0.183457
O O6 0.587950 0.418688 0.116887
O O7 0.768874 0.519234 0.120756
O O8 0.569397 0.430604 0.250000
O O9 0.723971 0.447942 0.250000
O O10 0.722760 0.579164 0.275309
O O11 0.211378 0.985437 0.103312
O O12 0.256802 0.987527 0.189559
O O13 0.083257 0.903608 0.164182
O O14 0.066047 0.633674 0.655722
O O15 0.174290 0.096580 0.550209
O O16 0.235970 0.016570 0.500000
O O17 0.380463 0.000000 0.750000
#
# Coordination Sequence:
#
# PCOD9588756 Si02
#       7
#    24  24  24  24  24  24  24
#     4   9  21  41  65  96 139 186 233 288 348 419
#     4  11  21  41  69 103 141 184 232 292 363 435
#     4  12  23  41  67 101 138 175 217 281 356 433
#     4  10  23  41  64  90 126 175 234 297 351 410
#     4  11  23  42  69 103 140 178 230 289 358 436
#     4   8  13  26  52  86 118 151 199 265 338 399
#     4  12  27  40  62  91 132 177 226 277 345 425
#
# _framework density 22.971260000000001
#
# number of rings (size 3 to 8) (size 9 to 14) (size 15 to 20)
#    0.000    1.571    2.857    1.571    2.000    3.714 
#    0.000    0.714    0.000    6.000    0.000    0.000 
#    0.000    0.000    0.000    0.000    0.000    1.714 
#
# Total GULP energy -936292.240256 kJ/mol
# GULP energy per Si atom -5573.168097 kJ/mol
# Density = 2.291898 g / cm^3
# Si number density = 22.971260 Si / 1000 Ang^3
#
#
#
# Elastic Constant Matrix: (Units=GPa)
#
#
# Indices 1 2 3 4 5 6 
#
# 1 98.7442 27.8914 31.9306 0.0000 0.0000 0.0000
# 2 27.8914 98.7442 31.9306 0.0000 0.0000 0.0000
# 3 31.9306 31.9306 141.3471 0.0000 0.0000 0.0000
# 4 0.0000 0.0000 0.0000 22.0848 0.0000 0.0000
# 5 0.0000 0.0000 0.0000 0.0000 22.0848 0.0000
# 6 0.0000 0.0000 0.0000 0.0000 0.0000 35.4264
#
#
#
# Elastic Compliance Matrix: (Units=1/GPa)
#
#
# Indices 1 2 3 4 5 6 
#
# 1 0.011513 -0.002601 -0.002013 0.000000 0.000000 0.000000
# 2 -0.002601 0.011513 -0.002013 0.000000 0.000000 0.000000
# 3 -0.002013 -0.002013 0.007984 0.000000 0.000000 0.000000
# 4 0.000000 0.000000 0.000000 0.045280 0.000000 0.000000
# 5 0.000000 0.000000 0.000000 0.000000 0.045280 0.000000
# 6 0.000000 0.000000 0.000000 0.000000 0.000000 0.028228
#
#
# Mechanical properties :
#
#
# Convention : Reuss Voigt Hill
#
# Bulk Modulus (GPa) = 56.32115 58.03787 57.17951
# Shear Modulus (GPa) = 29.59093 32.39141 30.99117
#
# Velocity S-wave (km/s) = 3.59301 3.75918 3.67703
# Velocity P-wave (km/s) = 6.46407 6.64547 6.55540
#
# Compressibility (1/GPa) = 0.01775532
#
# Stress axis : x y z
#
# Youngs Moduli (GPa) = 86.85953 86.85953 125.24475
#
# Poissons Ratio (x) = 0.22591 0.25215
# Poissons Ratio (y) = 0.22591 0.25215
# Poissons Ratio (z) = 0.17487 0.17487
#
# Static dielectric constant tensor:
#      x y z
#    x 1.243460 0.000000 0.000000 
#    y 0.000000 1.243460 0.000000 
#    z 0.000000 0.000000 1.934160 
# 
# From -- ./inp_files/7184.got.cif
#   From: 2010.05.17/outbox.cif.g08.bks.cpg/sg192_4_cif.got.tgz:7184.got - 2010.05.20 12:28:01.
