data_PCOD9588818
_publ_section_title
;
Structure prediction by ZEFSAII (Michael W. Deem and Ramdas Pophale) SiO2 
 PCOD9588818
Probable space group: P 6/M C C
;
_chemical_formula_sum "Si O2"
_cell_formula_units_Z 96
_cell_length_a 28.069902
_cell_length_b 28.069902
_cell_length_c 9.443813
_cell_angle_alpha 90.000000
_cell_angle_beta 90.000000
_cell_angle_gamma 120.000000
_cell_volume 6444.063382
_symmetry_space_group_name_H-M "P 6/M C C"
_symmetry_group_IT_number 192
_symmetry_cell_setting 'hexagonal'
loop_
_space_group_symop_operation_xyz
x,y,z
x-y,x,z
-y,x-y,z
-x,-y,z
-x+y,-x,z
y,-x+y,z
x-y,-y,1/2-z
-x,-x+y,1/2-z
y,x,1/2-z
-y,-x,1/2-z
-x+y,y,1/2-z
x,x-y,1/2-z
-x,-y,-z
-x+y,-x,-z
y,-x+y,-z
x,y,-z
x-y,x,-z
-y,x-y,-z
-x+y,y,1/2+z
x,x-y,1/2+z
-y,-x,1/2+z
y,x,1/2+z
x-y,-y,1/2+z
-x,-x+y,1/2+z
loop_
_atom_site_type_symbol
_atom_site_label
_atom_site_fract_x
_atom_site_fract_y
_atom_site_fract_z
Si Si1 0.057622 0.378615 0.831285
Si Si2 0.940595 0.515195 0.829437
Si Si3 0.182763 0.182763 0.250000
Si Si4 0.898650 0.875681 0.000000
Si Si5 0.700793 0.802050 0.835034
O O1 0.083774 0.444032 0.808038
O O2 0.091074 0.348588 0.788721
O O3 0.000000 0.347903 0.750000
O O4 0.046987 0.369707 0.000000
O O5 0.912974 0.456487 0.750000
O O6 0.000000 0.548048 0.750000
O O7 0.946059 0.510042 0.000000
O O8 0.134403 0.160944 0.134341
O O9 0.240247 0.193801 0.185912
O O10 0.892036 0.929830 0.000000
O O11 0.700648 0.850324 0.750000
O O12 0.693748 0.808677 0.000000
#
# Coordination Sequence:
#
# PCOD9588818 Si02
#       5
#    24  24  12  12  24
#     4   9  18  31  45  67  92 119 152 188 225 267
#     4   9  15  24  40  61  90 121 150 179 208 241
#     4  12  24  38  55  74  91 110 148 186 232 298
#     4  12  25  42  58  74  90 110 133 180 244 314
#     4  11  23  37  53  71  92 119 153 194 241 288
#
# _framework density 14.897432999999999
#
# number of rings (size 3 to 8) (size 9 to 14) (size 15 to 20)
#    0.000    1.750    2.500    3.875    1.750    2.000 
#    0.000    1.250    0.000    0.000    0.000    0.000 
#    0.000    0.000    0.000    0.750    0.000    9.000 
#
# Total GULP energy -534938.402192 kJ/mol
# GULP energy per Si atom -5572.275023 kJ/mol
# Density = 1.486353 g / cm^3
# Si number density = 14.897433 Si / 1000 Ang^3
#
#
#
# Elastic Constant Matrix: (Units=GPa)
#
#
# Indices 1 2 3 4 5 6 
#
# 1 71.3240 38.7372 16.6267 0.0000 0.0000 0.0000
# 2 38.7372 71.3240 16.6267 0.0000 0.0000 0.0000
# 3 16.6267 16.6267 49.7980 0.0000 0.0000 0.0000
# 4 0.0000 0.0000 0.0000 18.0861 0.0000 0.0000
# 5 0.0000 0.0000 0.0000 0.0000 18.0861 0.0000
# 6 0.0000 0.0000 0.0000 0.0000 0.0000 16.2934
#
#
#
# Elastic Compliance Matrix: (Units=1/GPa)
#
#
# Indices 1 2 3 4 5 6 
#
# 1 0.020396 -0.010291 -0.003374 0.000000 0.000000 0.000000
# 2 -0.010291 0.020396 -0.003374 0.000000 0.000000 0.000000
# 3 -0.003374 -0.003374 0.022334 0.000000 0.000000 0.000000
# 4 0.000000 0.000000 0.000000 0.055291 0.000000 0.000000
# 5 0.000000 0.000000 0.000000 0.000000 0.055291 0.000000
# 6 0.000000 0.000000 0.000000 0.000000 0.000000 0.061374
#
#
# Mechanical properties :
#
#
# Convention : Reuss Voigt Hill
#
# Bulk Modulus (GPa) = 34.42485 37.38078 35.90281
# Shear Modulus (GPa) = 17.93119 18.52351 18.22735
#
# Velocity S-wave (km/s) = 3.47312 3.53002 3.50168
# Velocity P-wave (km/s) = 6.26430 6.46229 6.36407
#
# Compressibility (1/GPa) = 0.02904879
#
# Stress axis : x y z
#
# Youngs Moduli (GPa) = 49.02864 49.02864 44.77453
#
# Poissons Ratio (x) = 0.50455 0.15107
# Poissons Ratio (y) = 0.50455 0.15107
# Poissons Ratio (z) = 0.16542 0.16542
#
# Static dielectric constant tensor:
#      x y z
#    x 1.505420 0.000000 0.000000 
#    y 0.000000 1.505420 0.000000 
#    z 0.000000 0.000000 1.469470 
# 
# From -- ./inp_files/931.got.cif
#   From: 2010.05.17/outbox.cif.g08.bks.cpg/sg192_1_cif.got.tgz:931.got - 2010.05.20 12:28:01.
