data_PCOD9588428
_publ_section_title
;
Structure prediction by ZEFSAII (Michael W. Deem and Ramdas Pophale) SiO2 
 PCOD9588428
Probable space group: P 6/M C C
;
_chemical_formula_sum "Si O2"
_cell_formula_units_Z 192
_cell_length_a 30.071282
_cell_length_b 30.071282
_cell_length_c 14.419198
_cell_angle_alpha 90.000000
_cell_angle_beta 90.000000
_cell_angle_gamma 120.000000
_cell_volume 11292.123619
_symmetry_space_group_name_H-M "P 6/M C C"
_symmetry_group_IT_number 192
_symmetry_cell_setting 'hexagonal'
loop_
_space_group_symop_operation_xyz
x,y,z
x-y,x,z
-y,x-y,z
-x,-y,z
-x+y,-x,z
y,-x+y,z
x-y,-y,1/2-z
-x,-x+y,1/2-z
y,x,1/2-z
-y,-x,1/2-z
-x+y,y,1/2-z
x,x-y,1/2-z
-x,-y,-z
-x+y,-x,-z
y,-x+y,-z
x,y,-z
x-y,x,-z
-y,x-y,-z
-x+y,y,1/2+z
x,x-y,1/2+z
-y,-x,1/2+z
y,x,1/2+z
x-y,-y,1/2+z
-x,-x+y,1/2+z
loop_
_atom_site_type_symbol
_atom_site_label
_atom_site_fract_x
_atom_site_fract_y
_atom_site_fract_z
Si Si1 0.614064 0.674762 0.250000
Si Si2 0.460422 0.138744 0.611328
Si Si3 0.143884 0.287767 0.389133
Si Si4 0.768331 0.333602 0.887309
Si Si5 0.321678 0.460422 0.111328
Si Si6 0.768331 0.333602 0.387309
Si Si7 0.408625 0.204312 0.889151
Si Si8 0.061503 0.782685 0.750000
O O1 0.640196 0.640196 0.250000
O O2 0.576107 0.662128 0.162774
O O3 0.576107 0.662128 0.337226
O O4 0.662391 0.733873 0.250000
O O5 0.457232 0.132069 0.500000
O O6 0.519891 0.174841 0.638065
O O7 0.435902 0.173511 0.641398
O O8 0.139613 0.279225 0.500000
O O9 0.174395 0.348791 0.369325
O O10 0.179885 0.269587 0.337901
O O11 0.089702 0.269587 0.337901
O O12 0.825159 0.345050 0.861935
O O13 0.758784 0.379392 0.858457
O O14 0.721948 0.278052 0.857329
O O15 0.767351 0.332017 0.000000
O O16 0.262391 0.435902 0.141398
O O17 0.325163 0.457232 0.000000
O O18 0.767351 0.332017 0.500000
O O19 0.414128 0.207064 0.000000
O O20 0.000000 0.757861 0.750000
#
# Coordination Sequence:
#
# PCOD9588428 Si02
#       8
#    24  24  24  24  24  24  24  24
#     4  11  23  35  50  74  99 128 169 217 267 305
#     4  10  19  33  52  73 101 133 167 206 248 301
#     4  10  19  33  52  73 105 144 175 217 268 310
#     4   9  16  28  49  78 108 133 158 194 247 313
#     4  10  19  33  52  73 101 133 167 206 248 301
#     4   9  16  28  49  78 108 133 158 194 247 313
#     4   9  15  27  47  72  97 129 170 205 239 290
#     4  10  21  33  48  76 107 136 179 224 263 313
#
# _framework density 17.003003
#
# number of rings (size 3 to 8) (size 9 to 14) (size 15 to 20)
#    0.000    2.250    3.750    0.250    0.000    2.500 
#    0.000    3.125    0.000    1.500    0.000    5.250 
#    0.000    0.000    0.000   12.000    0.000   26.000 
#
# Total GULP energy -1070061.559711 kJ/mol
# GULP energy per Si atom -5573.237290 kJ/mol
# Density = 1.696430 g / cm^3
# Si number density = 17.003003 Si / 1000 Ang^3
#
#
#
# Elastic Constant Matrix: (Units=GPa)
#
#
# Indices 1 2 3 4 5 6 
#
# 1 99.2594 43.4031 35.4597 0.0000 0.0000 0.0000
# 2 43.4031 99.2594 35.4597 0.0000 0.0000 0.0000
# 3 35.4597 35.4597 107.4661 0.0000 0.0000 0.0000
# 4 0.0000 0.0000 0.0000 7.6294 0.0000 0.0000
# 5 0.0000 0.0000 0.0000 0.0000 7.6294 0.0000
# 6 0.0000 0.0000 0.0000 0.0000 0.0000 27.9281
#
#
#
# Elastic Compliance Matrix: (Units=1/GPa)
#
#
# Indices 1 2 3 4 5 6 
#
# 1 0.013144 -0.004759 -0.002767 0.000000 0.000000 0.000000
# 2 -0.004759 0.013144 -0.002767 0.000000 0.000000 0.000000
# 3 -0.002767 -0.002767 0.011131 0.000000 0.000000 0.000000
# 4 0.000000 0.000000 0.000000 0.131072 0.000000 0.000000
# 5 0.000000 0.000000 0.000000 0.000000 0.131072 0.000000
# 6 0.000000 0.000000 0.000000 0.000000 0.000000 0.035806
#
#
# Mechanical properties :
#
#
# Convention : Reuss Voigt Hill
#
# Bulk Modulus (GPa) = 59.40324 59.40331 59.40327
# Shear Modulus (GPa) = 13.82877 21.41489 17.62183
#
# Velocity S-wave (km/s) = 2.85496 3.55276 3.22280
# Velocity P-wave (km/s) = 6.77351 7.20016 6.99009
#
# Compressibility (1/GPa) = 0.01683410
#
# Stress axis : x y z
#
# Youngs Moduli (GPa) = 76.08035 76.08035 89.83863
#
# Poissons Ratio (x) = 0.36207 0.24856
# Poissons Ratio (y) = 0.36207 0.24856
# Poissons Ratio (z) = 0.21049 0.21049
#
# Static dielectric constant tensor:
#      x y z
#    x 1.568120 0.000000 0.000000 
#    y 0.000000 1.568120 0.000000 
#    z 0.000000 0.000000 1.650880 
# 
# From -- ./inp_files/3583.got.cif
#   From: 2010.05.17/outbox.cif.g08.bks.cpg/sg192_2_cif.got.tgz:3583.got - 2010.05.20 12:28:01.
