data_PCOD9588636
_publ_section_title
;
Structure prediction by ZEFSAII (Michael W. Deem and Ramdas Pophale) SiO2 
 PCOD9588636
Probable space group: P 6/M C C
;
_chemical_formula_sum "Si O2"
_cell_formula_units_Z 72
_cell_length_a 14.455471
_cell_length_b 14.455471
_cell_length_c 14.242359
_cell_angle_alpha 90.000000
_cell_angle_beta 90.000000
_cell_angle_gamma 120.000000
_cell_volume 2577.371690
_symmetry_space_group_name_H-M "P 6/M C C"
_symmetry_group_IT_number 192
_symmetry_cell_setting 'hexagonal'
loop_
_space_group_symop_operation_xyz
x,y,z
x-y,x,z
-y,x-y,z
-x,-y,z
-x+y,-x,z
y,-x+y,z
x-y,-y,1/2-z
-x,-x+y,1/2-z
y,x,1/2-z
-y,-x,1/2-z
-x+y,y,1/2-z
x,x-y,1/2-z
-x,-y,-z
-x+y,-x,-z
y,-x+y,-z
x,y,-z
x-y,x,-z
-y,x-y,-z
-x+y,y,1/2+z
x,x-y,1/2+z
-y,-x,1/2+z
y,x,1/2+z
x-y,-y,1/2+z
-x,-x+y,1/2+z
loop_
_atom_site_type_symbol
_atom_site_label
_atom_site_fract_x
_atom_site_fract_y
_atom_site_fract_z
Si Si1 0.945458 0.764935 0.384873
Si Si2 0.991461 0.393654 0.391138
Si Si3 0.243584 0.708028 0.360189
O O1 0.943187 0.761483 0.500000
O O2 0.937849 0.654617 0.350855
O O3 0.857863 0.794987 0.355867
O O4 0.020202 0.414879 0.500000
O O5 0.866394 0.300181 0.388359
O O6 0.000000 0.500000 0.348524
O O7 0.222800 0.589495 0.392206
O O8 0.265303 0.734698 0.250000
#
# Coordination Sequence:
#
# PCOD9588636 Si02
#       3
#    24  24  24
#     4   9  18  32  52  78 115 156 196 237 288 364
#     4  10  21  33  54  89 121 148 192 252 316 368
#     4   8  18  36  56  73 111 153 198 236 282 364
#
# _framework density 27.935434000000001
#
# number of rings (size 3 to 8) (size 9 to 14) (size 15 to 20)
#    0.667    2.333    0.000    0.333    4.667    2.667 
#    0.000    3.333    0.000    0.000    0.000    0.000 
#    0.000    2.667    0.000    0.000    0.000    0.000 
#
# Total GULP energy -401998.199972 kJ/mol
# GULP energy per Si atom -5583.308333 kJ/mol
# Density = 2.787185 g / cm^3
# Si number density = 27.935434 Si / 1000 Ang^3
#
#
#
# Elastic Constant Matrix: (Units=GPa)
#
#
# Indices 1 2 3 4 5 6 
#
# 1 159.2009 61.0437 8.5795 0.0000 0.0000 0.0000
# 2 61.0437 159.2009 8.5795 0.0000 0.0000 0.0000
# 3 8.5795 8.5795 128.2780 0.0000 0.0000 0.0000
# 4 0.0000 0.0000 0.0000 38.2862 0.0000 0.0000
# 5 0.0000 0.0000 0.0000 0.0000 38.2862 0.0000
# 6 0.0000 0.0000 0.0000 0.0000 0.0000 49.0786
#
#
#
# Elastic Compliance Matrix: (Units=1/GPa)
#
#
# Indices 1 2 3 4 5 6 
#
# 1 0.007376 -0.002812 -0.000305 0.000000 0.000000 0.000000
# 2 -0.002812 0.007376 -0.000305 0.000000 0.000000 0.000000
# 3 -0.000305 -0.000305 0.007836 0.000000 0.000000 0.000000
# 4 0.000000 0.000000 0.000000 0.026119 0.000000 0.000000
# 5 0.000000 0.000000 0.000000 0.000000 0.026119 0.000000
# 6 0.000000 0.000000 0.000000 0.000000 0.000000 0.020375
#
#
# Mechanical properties :
#
#
# Convention : Reuss Voigt Hill
#
# Bulk Modulus (GPa) = 63.51735 67.00947 65.26341
# Shear Modulus (GPa) = 46.60075 49.69535 48.14805
#
# Velocity S-wave (km/s) = 4.08874 4.22232 4.15607
# Velocity P-wave (km/s) = 6.71394 6.91448 6.81494
#
# Compressibility (1/GPa) = 0.01574373
#
# Stress axis : x y z
#
# Youngs Moduli (GPa) = 135.57551 135.57551 127.60955
#
# Poissons Ratio (x) = 0.38121 0.03895
# Poissons Ratio (y) = 0.38121 0.03895
# Poissons Ratio (z) = 0.04139 0.04139
#
# Static dielectric constant tensor:
#      x y z
#    x 2.207540 0.000000 0.000000 
#    y 0.000000 2.207540 0.000000 
#    z 0.000000 0.000000 2.058050 
# 
# From -- ./inp_files/3787.got.cif
#   From: 2010.05.17/outbox.cif.g08.bks.cpg/sg192_2_cif.got.tgz:3787.got - 2010.05.20 12:28:01.
