data_PCOD9588839
_publ_section_title
;
Structure prediction by ZEFSAII (Michael W. Deem and Ramdas Pophale) SiO2 
 PCOD9588839
Probable space group: P 6/M C C
;
_chemical_formula_sum "Si O2"
_cell_formula_units_Z 132
_cell_length_a 17.375713
_cell_length_b 17.375713
_cell_length_c 22.899283
_cell_angle_alpha 90.000000
_cell_angle_beta 90.000000
_cell_angle_gamma 120.000000
_cell_volume 5987.393275
_symmetry_space_group_name_H-M "P 6/M C C"
_symmetry_group_IT_number 192
_symmetry_cell_setting 'hexagonal'
loop_
_space_group_symop_operation_xyz
x,y,z
x-y,x,z
-y,x-y,z
-x,-y,z
-x+y,-x,z
y,-x+y,z
x-y,-y,1/2-z
-x,-x+y,1/2-z
y,x,1/2-z
-y,-x,1/2-z
-x+y,y,1/2-z
x,x-y,1/2-z
-x,-y,-z
-x+y,-x,-z
y,-x+y,-z
x,y,-z
x-y,x,-z
-y,x-y,-z
-x+y,y,1/2+z
x,x-y,1/2+z
-y,-x,1/2+z
y,x,1/2+z
x-y,-y,1/2+z
-x,-x+y,1/2+z
loop_
_atom_site_type_symbol
_atom_site_label
_atom_site_fract_x
_atom_site_fract_y
_atom_site_fract_z
Si Si1 0.834394 0.107720 0.500000
Si Si2 0.000700 0.669132 0.180851
Si Si3 0.625550 0.137166 0.628965
Si Si4 0.472253 0.178811 0.370915
Si Si5 0.197783 0.150315 0.372791
Si Si6 0.882460 0.299280 0.500000
Si Si7 0.081648 0.637209 0.000000
O O1 0.845856 0.063789 0.441927
O O2 0.898998 0.215085 0.500000
O O3 0.738523 0.101416 0.500000
O O4 0.049451 0.616981 0.158100
O O5 0.054050 0.768686 0.155396
O O6 0.000000 0.671580 0.250000
O O7 0.900879 0.618397 0.155496
O O8 0.551039 0.160603 0.646572
O O9 0.723073 0.217348 0.644941
O O10 0.621132 0.120223 0.559166
O O11 0.461248 0.169120 0.440942
O O12 0.119958 0.170638 0.356221
O O13 0.974605 0.391959 0.500000
#
# Coordination Sequence:
#
# PCOD9588839 Si02
#       7
#    12  24  24  24  24  12  12
#     4  12  20  40  67 103 142 181 222 268 332 406
#     4  12  27  48  72  95 127 180 243 293 341 417
#     4  12  25  43  69 102 141 175 222 281 346 417
#     4  12  25  44  69 103 139 179 221 281 351 413
#     4  12  25  43  70 104 142 181 226 286 350 415
#     4  12  21  38  68 103 138 180 225 267 326 406
#     4  12  21  36  66 102 134 171 218 267 318 397
#
# _framework density 22.046322
#
# number of rings (size 3 to 8) (size 9 to 14) (size 15 to 20)
#    0.000    0.000    5.455    5.455    0.000    5.091 
#    0.000    2.727    0.000    3.273    0.000    0.000 
#    0.000    0.000    0.000    0.000    0.000    0.000 
#
# Total GULP energy -739645.232325 kJ/mol
# GULP energy per Si atom -5603.372972 kJ/mol
# Density = 2.199614 g / cm^3
# Si number density = 22.046322 Si / 1000 Ang^3
#
#
#
# Elastic Constant Matrix: (Units=GPa)
#
#
# Indices 1 2 3 4 5 6 
#
# 1 115.2804 24.2645 3.7090 0.0000 0.0000 0.0000
# 2 24.2645 115.2804 3.7090 0.0000 0.0000 0.0000
# 3 3.7090 3.7090 88.9073 0.0000 0.0000 0.0000
# 4 0.0000 0.0000 0.0000 -12.7709 0.0000 0.0000
# 5 0.0000 0.0000 0.0000 0.0000 -12.7709 0.0000
# 6 0.0000 0.0000 0.0000 0.0000 0.0000 45.5079
#
#
#
# Elastic Compliance Matrix: (Units=1/GPa)
#
#
# Indices 1 2 3 4 5 6 
#
# 1 0.009085 -0.001903 -0.000300 0.000000 0.000000 0.000000
# 2 -0.001903 0.009085 -0.000300 0.000000 0.000000 0.000000
# 3 -0.000300 -0.000300 0.011273 0.000000 0.000000 0.000000
# 4 0.000000 0.000000 0.000000 -0.078303 0.000000 0.000000
# 5 0.000000 0.000000 0.000000 0.000000 -0.078303 0.000000
# 6 0.000000 0.000000 0.000000 0.000000 0.000000 0.021974
#
#
# Mechanical properties :
#
#
# Convention : Reuss Voigt Hill
#
# Bulk Modulus (GPa) = 40.91929 42.53701 41.72815
# Shear Modulus (GPa) = -54.32382 23.17894 -15.57244
#
# Velocity S-wave (km/s) = -4.96933 3.24601 -2.66061
# Velocity P-wave (km/s) = 3.78481 5.77798 3.08709
#
# Compressibility (1/GPa) = 0.02443835
#
# Stress axis : x y z
#
# Youngs Moduli (GPa) = 110.07652 110.07652 88.71019
#
# Poissons Ratio (x) = 0.20942 0.02658
# Poissons Ratio (y) = 0.20942 0.02658
# Poissons Ratio (z) = 0.03298 0.03298
#
# Static dielectric constant tensor:
#      x y z
#    x 1.818270 0.000000 0.000000 
#    y 0.000000 1.818270 0.000000 
#    z 0.000000 0.000000 1.768090 
# 
# From -- ./inp_files/5861.got.cif
#   From: 2010.05.17/outbox.cif.g08.bks.cpg/sg192_3_cif.got.tgz:5861.got - 2010.05.20 12:28:01.
