data_PCOD9588638
_publ_section_title
;
Structure prediction by ZEFSAII (Michael W. Deem and Ramdas Pophale) SiO2 
 PCOD9588638
Probable space group: P 6/M C C
;
_chemical_formula_sum "Si O2"
_cell_formula_units_Z 132
_cell_length_a 16.481134
_cell_length_b 16.481134
_cell_length_c 30.453044
_cell_angle_alpha 90.000000
_cell_angle_beta 90.000000
_cell_angle_gamma 120.000000
_cell_volume 7163.669192
_symmetry_space_group_name_H-M "P 6/M C C"
_symmetry_group_IT_number 192
_symmetry_cell_setting 'hexagonal'
loop_
_space_group_symop_operation_xyz
x,y,z
x-y,x,z
-y,x-y,z
-x,-y,z
-x+y,-x,z
y,-x+y,z
x-y,-y,1/2-z
-x,-x+y,1/2-z
y,x,1/2-z
-y,-x,1/2-z
-x+y,y,1/2-z
x,x-y,1/2-z
-x,-y,-z
-x+y,-x,-z
y,-x+y,-z
x,y,-z
x-y,x,-z
-y,x-y,-z
-x+y,y,1/2+z
x,x-y,1/2+z
-y,-x,1/2+z
y,x,1/2+z
x-y,-y,1/2+z
-x,-x+y,1/2+z
loop_
_atom_site_type_symbol
_atom_site_label
_atom_site_fract_x
_atom_site_fract_y
_atom_site_fract_z
Si Si1 0.426195 0.342518 0.950845
Si Si2 0.544384 0.266678 0.699321
Si Si3 0.590097 0.797311 0.880733
Si Si4 0.364872 0.865218 0.548964
Si Si5 0.783887 0.935230 0.000000
Si Si6 0.067832 0.219050 0.403214
O O1 0.388556 0.271383 0.910520
O O2 0.539219 0.401461 0.947681
O O3 0.394726 0.420137 0.948724
O O4 0.397980 0.298877 0.000000
O O5 0.620670 0.232514 0.693028
O O6 0.513634 0.256817 0.750000
O O7 0.463198 0.218361 0.664288
O O8 0.521500 0.814685 0.912130
O O9 0.689326 0.891313 0.873212
O O10 0.325125 0.830680 0.500000
O O11 0.827118 0.867913 0.000000
O O12 0.737676 0.921798 0.952689
O O13 0.136751 0.175849 0.398540
#
# Coordination Sequence:
#
# PCOD9588638 Si02
#       6
#    24  24  24  24  12  24
#     4   9  19  33  45  65 105 147 173 206 262 316
#     4   8  18  37  58  81 109 138 163 211 284 334
#     4  12  19  29  54  83  97 130 188 232 256 315
#     4   9  19  33  45  65 105 147 173 206 262 316
#     4   8  15  28  44  64  94 136 182 224 264 304
#     4  10  21  34  50  74 107 146 186 230 275 312
#
# _framework density 18.426311999999999
#
# number of rings (size 3 to 8) (size 9 to 14) (size 15 to 20)
#    0.364    2.182    0.000    4.091    2.545    1.455 
#    1.091    0.000    0.000    4.364    0.000   12.727 
#    0.000    1.455    0.000    0.000    0.000    0.000 
#
# Total GULP energy -736064.715897 kJ/mol
# GULP energy per Si atom -5576.247848 kJ/mol
# Density = 1.838437 g / cm^3
# Si number density = 18.426312 Si / 1000 Ang^3
#
#
#
# Elastic Constant Matrix: (Units=GPa)
#
#
# Indices 1 2 3 4 5 6 
#
# 1 51.2558 18.9189 29.0178 0.0000 0.0000 0.0000
# 2 18.9189 51.2558 29.0178 0.0000 0.0000 0.0000
# 3 29.0178 29.0178 88.9662 0.0000 0.0000 0.0000
# 4 0.0000 0.0000 0.0000 20.1439 0.0000 0.0000
# 5 0.0000 0.0000 0.0000 0.0000 20.1439 0.0000
# 6 0.0000 0.0000 0.0000 0.0000 0.0000 16.1685
#
#
#
# Elastic Compliance Matrix: (Units=1/GPa)
#
#
# Indices 1 2 3 4 5 6 
#
# 1 0.025219 -0.005705 -0.006365 0.000000 0.000000 0.000000
# 2 -0.005705 0.025219 -0.006365 0.000000 0.000000 0.000000
# 3 -0.006365 -0.006365 0.015392 0.000000 0.000000 0.000000
# 4 0.000000 0.000000 0.000000 0.049643 0.000000 0.000000
# 5 0.000000 0.000000 0.000000 0.000000 0.049643 0.000000
# 6 0.000000 0.000000 0.000000 0.000000 0.000000 0.061849
#
#
# Mechanical properties :
#
#
# Convention : Reuss Voigt Hill
#
# Bulk Modulus (GPa) = 34.52933 38.37633 36.45283
# Shear Modulus (GPa) = 18.28232 18.92613 18.60422
#
# Velocity S-wave (km/s) = 3.15331 3.20836 3.18095
# Velocity P-wave (km/s) = 5.66018 5.88191 5.77211
#
# Compressibility (1/GPa) = 0.02896088
#
# Stress axis : x y z
#
# Youngs Moduli (GPa) = 39.65240 39.65240 64.96795
#
# Poissons Ratio (x) = 0.22622 0.41351
# Poissons Ratio (y) = 0.22622 0.41351
# Poissons Ratio (z) = 0.25238 0.25238
#
# Static dielectric constant tensor:
#      x y z
#    x 1.675400 0.000000 0.000000 
#    y 0.000000 1.675400 0.000000 
#    z 0.000000 0.000000 1.616330 
# 
# From -- ./inp_files/6533.got.cif
#   From: 2010.05.17/outbox.cif.g08.bks.cpg/sg192_4_cif.got.tgz:6533.got - 2010.05.20 12:28:01.
