data_PCOD9588922
_publ_section_title
;
Structure prediction by ZEFSAII (Michael W. Deem and Ramdas Pophale) SiO2 
 PCOD9588922
Probable space group: P 63/M C M
;
_chemical_formula_sum "Si O2"
_cell_formula_units_Z 168
_cell_length_a 21.128397
_cell_length_b 21.128397
_cell_length_c 29.067535
_cell_angle_alpha 90.000000
_cell_angle_beta 90.000000
_cell_angle_gamma 120.000000
_cell_volume 11237.557657
_symmetry_space_group_name_H-M "P 63/M C M"
_symmetry_group_IT_number 193
_symmetry_cell_setting 'hexagonal'
loop_
_space_group_symop_operation_xyz
x,y,z
x-y,x,1/2+z
-y,x-y,z
-x,-y,1/2+z
-x+y,-x,z
y,-x+y,1/2+z
x-y,-y,1/2-z
-x,-x+y,1/2-z
y,x,1/2-z
-y,-x,-z
-x+y,y,-z
x,x-y,-z
-x,-y,-z
-x+y,-x,1/2-z
y,-x+y,-z
x,y,1/2-z
x-y,x,-z
-y,x-y,1/2-z
-x+y,y,1/2+z
x,x-y,1/2+z
-y,-x,1/2+z
y,x,z
x-y,-y,z
-x,-x+y,z
loop_
_atom_site_type_symbol
_atom_site_label
_atom_site_fract_x
_atom_site_fract_y
_atom_site_fract_z
Si Si1 0.326305 0.414758 0.896459
Si Si2 0.830456 0.169545 0.555611
Si Si3 0.617832 0.088811 0.698311
Si Si4 0.088555 0.544279 0.947717
Si Si5 0.414760 0.088453 0.603541
Si Si6 0.382169 0.911189 0.698311
Si Si7 0.916258 0.832517 0.555804
O O1 0.363692 0.363692 0.898714
O O2 0.249597 0.375784 0.922134
O O3 0.325570 0.436342 0.843237
O O4 0.381467 0.490568 0.921711
O O5 0.826507 0.173494 0.500000
O O6 0.873813 0.249599 0.577865
O O7 0.873555 0.126447 0.566984
O O8 0.647036 0.112571 0.750000
O O9 0.555159 0.110318 0.689492
O O10 0.573182 0.000000 0.698157
O O11 0.109101 0.490570 0.921711
O O12 0.000000 0.500001 0.948586
O O13 0.115180 0.557590 0.000000
O O14 0.436344 0.110773 0.656763
O O15 0.363694 0.000000 0.601286
O O16 0.352965 0.887429 0.750000
O O17 0.426819 0.000000 0.698157
O O18 0.918331 0.836661 0.500000
O O19 0.873427 0.873427 0.571988
O O20 0.000000 0.873425 0.571988
#
# Coordination Sequence:
#
# PCOD9588922 Si02
#       7
#    24  24  24  24  24  24  24
#     4  10  18  30  46  66  91 120 154 191 231 280
#     4  11  22  31  41  63  97 131 160 198 247 287
#     4   8  13  24  45  71  93 112 141 184 230 274
#     4   9  16  26  43  64  84 111 149 187 216 251
#     4  10  18  30  46  66  91 120 154 191 231 280
#     4   8  13  24  45  71  93 112 141 184 230 274
#     4   9  17  30  47  65  86 119 164 209 252 300
#
# _framework density 14.949868
#
# number of rings (size 3 to 8) (size 9 to 14) (size 15 to 20)
#    0.000    2.714    1.429    2.714    0.000    3.429 
#    0.000    0.714    0.000    0.571    0.000    2.000 
#    0.000    0.000    0.000    0.857    0.000   26.429 
#
# Total GULP energy -935331.632175 kJ/mol
# GULP energy per Si atom -5567.450192 kJ/mol
# Density = 1.491584 g / cm^3
# Si number density = 14.949868 Si / 1000 Ang^3
#
#
#
# Elastic Constant Matrix: (Units=GPa)
#
#
# Indices 1 2 3 4 5 6 
#
# 1 87.5617 57.1345 52.1859 0.0000 0.0000 0.0000
# 2 57.1345 87.5617 52.1859 0.0000 0.0000 0.0000
# 3 52.1859 52.1859 120.7724 0.0000 0.0000 0.0000
# 4 0.0000 0.0000 0.0000 17.6927 0.0000 0.0000
# 5 0.0000 0.0000 0.0000 0.0000 17.6927 0.0000
# 6 0.0000 0.0000 0.0000 0.0000 0.0000 15.2136
#
#
#
# Elastic Compliance Matrix: (Units=1/GPa)
#
#
# Indices 1 2 3 4 5 6 
#
# 1 0.021453 -0.011412 -0.004338 0.000000 0.000000 0.000000
# 2 -0.011412 0.021453 -0.004338 0.000000 0.000000 0.000000
# 3 -0.004338 -0.004338 0.012029 0.000000 0.000000 0.000000
# 4 0.000000 0.000000 0.000000 0.056520 0.000000 0.000000
# 5 0.000000 0.000000 0.000000 0.000000 0.056520 0.000000
# 6 0.000000 0.000000 0.000000 0.000000 0.000000 0.065731
#
#
# Mechanical properties :
#
#
# Convention : Reuss Voigt Hill
#
# Bulk Modulus (GPa) = 67.76760 68.76760 68.26760
# Shear Modulus (GPa) = 17.93373 19.07911 18.50642
#
# Velocity S-wave (km/s) = 3.46727 3.57628 3.52220
# Velocity P-wave (km/s) = 7.83949 7.94680 7.89333
#
# Compressibility (1/GPa) = 0.01475632
#
# Stress axis : x y z
#
# Youngs Moduli (GPa) = 46.61376 46.61376 83.12982
#
# Poissons Ratio (x) = 0.53198 0.36066
# Poissons Ratio (y) = 0.53198 0.36066
# Poissons Ratio (z) = 0.20223 0.20223
#
# Static dielectric constant tensor:
#      x y z
#    x 1.480940 0.000000 0.000000 
#    y 0.000000 1.480940 0.000000 
#    z 0.000000 0.000000 1.518710 
# 
# From -- ./inp_files/8527.got.cif
#   From: 2010.05.17/outbox.cif.g08.bks.cpg/sg193_5_cif.got.tgz:8527.got - 2010.05.20 12:33:02.
