data_PCOD9588798
_publ_section_title
;
Structure prediction by ZEFSAII (Michael W. Deem and Ramdas Pophale) SiO2 
 PCOD9588798
Probable space group: P 6/M C C
;
_chemical_formula_sum "Si O2"
_cell_formula_units_Z 144
_cell_length_a 20.308314
_cell_length_b 20.308314
_cell_length_c 23.120481
_cell_angle_alpha 90.000000
_cell_angle_beta 90.000000
_cell_angle_gamma 120.000000
_cell_volume 8258.006797
_symmetry_space_group_name_H-M "P 6/M C C"
_symmetry_group_IT_number 192
_symmetry_cell_setting 'hexagonal'
loop_
_space_group_symop_operation_xyz
x,y,z
x-y,x,z
-y,x-y,z
-x,-y,z
-x+y,-x,z
y,-x+y,z
x-y,-y,1/2-z
-x,-x+y,1/2-z
y,x,1/2-z
-y,-x,1/2-z
-x+y,y,1/2-z
x,x-y,1/2-z
-x,-y,-z
-x+y,-x,-z
y,-x+y,-z
x,y,-z
x-y,x,-z
-y,x-y,-z
-x+y,y,1/2+z
x,x-y,1/2+z
-y,-x,1/2+z
y,x,1/2+z
x-y,-y,1/2+z
-x,-x+y,1/2+z
loop_
_atom_site_type_symbol
_atom_site_label
_atom_site_fract_x
_atom_site_fract_y
_atom_site_fract_z
Si Si1 0.817784 0.163211 0.069832
Si Si2 0.414897 0.323183 0.371194
Si Si3 0.175731 0.667939 0.244410
Si Si4 0.091382 0.542602 0.562467
Si Si5 0.908940 0.572162 0.140958
Si Si6 0.169808 0.106749 0.930103
O O1 0.878223 0.240016 0.102501
O O2 0.736666 0.131727 0.100102
O O3 0.841332 0.099689 0.080825
O O4 0.816880 0.173840 0.000000
O O5 0.462293 0.324606 0.314828
O O6 0.478369 0.368136 0.420050
O O7 0.371364 0.370840 0.359576
O O8 0.262276 0.737725 0.250000
O O9 0.172145 0.586073 0.250000
O O10 0.126331 0.676788 0.295514
O O11 0.123180 0.577267 0.500000
O O12 0.110816 0.602964 0.612302
O O13 0.000000 0.500000 0.558946
O O14 0.118353 0.140320 0.908038
O O15 0.162045 0.102239 0.000000
#
# Coordination Sequence:
#
# PCOD9588798 Si02
#       6
#    24  24  24  24  24  24
#     4  11  22  36  55  84 126 165 195 237 299 360
#     4  11  22  37  60  86 115 153 198 245 293 349
#     4  12  24  43  65  86 113 149 194 246 301 353
#     4   9  18  33  55  83 112 143 182 229 280 340
#     4  11  22  37  60  86 115 153 198 245 293 349
#     4   9  17  30  50  77 111 153 199 243 288 344
#
# _framework density 17.437622000000001
#
# number of rings (size 3 to 8) (size 9 to 14) (size 15 to 20)
#    0.000    1.500    3.333    2.833    0.000    4.667 
#    0.000    0.000    0.000    0.000    0.000    4.667 
#    0.000    0.000    0.000    7.167    0.000    3.167 
#
# Total GULP energy -802791.768915 kJ/mol
# GULP energy per Si atom -5574.942840 kJ/mol
# Density = 1.739793 g / cm^3
# Si number density = 17.437622 Si / 1000 Ang^3
#
#
#
# Elastic Constant Matrix: (Units=GPa)
#
#
# Indices 1 2 3 4 5 6 
#
# 1 61.4584 0.8119 7.0107 0.0000 0.0000 0.0000
# 2 0.8119 61.4584 7.0107 0.0000 0.0000 0.0000
# 3 7.0107 7.0107 80.4576 0.0000 0.0000 0.0000
# 4 0.0000 0.0000 0.0000 14.7327 0.0000 0.0000
# 5 0.0000 0.0000 0.0000 0.0000 14.7327 0.0000
# 6 0.0000 0.0000 0.0000 0.0000 0.0000 30.3232
#
#
#
# Elastic Compliance Matrix: (Units=1/GPa)
#
#
# Indices 1 2 3 4 5 6 
#
# 1 0.016435 -0.000054 -0.001427 0.000000 0.000000 0.000000
# 2 -0.000054 0.016435 -0.001427 0.000000 0.000000 0.000000
# 3 -0.001427 -0.001427 0.012678 0.000000 0.000000 0.000000
# 4 0.000000 0.000000 0.000000 0.067876 0.000000 0.000000
# 5 0.000000 0.000000 0.000000 0.000000 0.067876 0.000000
# 6 0.000000 0.000000 0.000000 0.000000 0.000000 0.032978
#
#
# Mechanical properties :
#
#
# Convention : Reuss Voigt Hill
#
# Bulk Modulus (GPa) = 25.17042 25.89347 25.53194
# Shear Modulus (GPa) = 21.42806 24.52710 22.97758
#
# Velocity S-wave (km/s) = 3.50929 3.75449 3.63395
# Velocity P-wave (km/s) = 5.55752 5.80313 5.68165
#
# Compressibility (1/GPa) = 0.03972918
#
# Stress axis : x y z
#
# Youngs Moduli (GPa) = 60.84683 60.84683 78.87899
#
# Poissons Ratio (x) = 0.00330 0.11259
# Poissons Ratio (y) = 0.00330 0.11259
# Poissons Ratio (z) = 0.08685 0.08685
#
# Static dielectric constant tensor:
#      x y z
#    x 1.585280 0.000000 0.000000 
#    y 0.000000 1.585280 0.000000 
#    z 0.000000 0.000000 1.587330 
# 
# From -- ./inp_files/5120.got.cif
#   From: 2010.05.17/outbox.cif.g08.bks.cpg/sg192_3_cif.got.tgz:5120.got - 2010.05.20 12:28:01.
