data_PCOD9588080
_publ_section_title
;
Structure prediction by ZEFSAII (Michael W. Deem and Ramdas Pophale) SiO2 
 PCOD9588080
Probable space group: P 6/M M M
;
_chemical_formula_sum "Si O2"
_cell_formula_units_Z 90
_cell_length_a 25.891427
_cell_length_b 25.891427
_cell_length_c 8.110153
_cell_angle_alpha 90.000000
_cell_angle_beta 90.000000
_cell_angle_gamma 120.000000
_cell_volume 4708.381594
_symmetry_space_group_name_H-M "P 6/M M M"
_symmetry_group_IT_number 191
_symmetry_cell_setting 'hexagonal'
loop_
_space_group_symop_operation_xyz
x,y,z
x-y,x,z
-y,x-y,z
-x,-y,z
-x+y,-x,z
y,-x+y,z
x-y,-y,-z
-x,-x+y,-z
y,x,-z
-y,-x,-z
-x+y,y,-z
x,x-y,-z
-x,-y,-z
-x+y,-x,-z
y,-x+y,-z
x,y,-z
x-y,x,-z
-y,x-y,-z
-x+y,y,z
x,x-y,z
-y,-x,z
y,x,z
x-y,-y,z
-x,-x+y,z
loop_
_atom_site_type_symbol
_atom_site_label
_atom_site_fract_x
_atom_site_fract_y
_atom_site_fract_z
Si Si1 0.931211 0.545223 0.191978
Si Si2 0.582005 0.417996 0.687445
Si Si3 0.342229 0.069682 0.308170
Si Si4 0.745808 0.372904 0.000000
Si Si5 0.068374 0.136747 0.301293
Si Si6 0.137076 0.274152 0.804573
O O1 0.880974 0.488636 0.287167
O O2 0.918655 0.599757 0.208399
O O3 0.000000 0.570926 0.249994
O O4 0.928886 0.528834 0.000000
O O5 0.594171 0.405830 0.500000
O O6 0.606458 0.393543 0.835424
O O7 0.359441 0.080718 0.500000
O O8 0.310492 0.105718 0.255442
O O9 0.294997 0.000000 0.288083
O O10 0.698876 0.397751 0.000000
O O11 0.103750 0.103750 0.240662
O O12 0.066065 0.132129 0.500000
O O13 0.103225 0.206450 0.259499
O O14 0.135795 0.271589 0.000000
#
# Coordination Sequence:
#
# PCOD9588080 Si02
#       6
#    24  12  24   6  12  12
#     4  10  20  37  63  97 136 169 200 250 314 373
#     4  12  23  41  71 102 129 167 218 259 317 386
#     4  10  21  38  58  83 117 155 198 247 300 359
#     4  10  26  52  71  90 128 172 214 282 322 368
#     4  10  21  38  60  83 107 140 188 248 307 363
#     4  12  24  37  54  80 112 157 201 241 293 363
#
# _framework density 19.114847999999999
#
# number of rings (size 3 to 8) (size 9 to 14) (size 15 to 20)
#    0.133    1.333    1.333    4.133    0.000    9.600 
#    2.400    0.000    0.000    0.800    0.000    0.000 
#    0.000    0.000    0.000    0.000    0.000    0.000 
#
# Total GULP energy -502668.376300 kJ/mol
# GULP energy per Si atom -5585.204181 kJ/mol
# Density = 1.907134 g / cm^3
# Si number density = 19.114848 Si / 1000 Ang^3
#
#
#
# Elastic Constant Matrix: (Units=GPa)
#
#
# Indices 1 2 3 4 5 6 
#
# 1 139.9508 23.1384 44.8662 0.0000 0.0000 0.0000
# 2 23.1384 139.9508 44.8662 0.0000 0.0000 0.0000
# 3 44.8662 44.8662 85.1080 0.0000 0.0000 0.0000
# 4 0.0000 0.0000 0.0000 -9.0605 0.0000 0.0000
# 5 0.0000 0.0000 0.0000 0.0000 -9.0605 0.0000
# 6 0.0000 0.0000 0.0000 0.0000 0.0000 58.4062
#
#
#
# Elastic Compliance Matrix: (Units=1/GPa)
#
#
# Indices 1 2 3 4 5 6 
#
# 1 0.008599 0.000038 -0.004553 0.000000 0.000000 0.000000
# 2 0.000038 0.008599 -0.004553 0.000000 0.000000 0.000000
# 3 -0.004553 -0.004553 0.016550 0.000000 0.000000 0.000000
# 4 0.000000 0.000000 0.000000 -0.110369 0.000000 0.000000
# 5 0.000000 0.000000 0.000000 0.000000 -0.110369 0.000000
# 6 0.000000 0.000000 0.000000 0.000000 0.000000 0.017121
#
#
# Mechanical properties :
#
#
# Convention : Reuss Voigt Hill
#
# Bulk Modulus (GPa) = 64.05499 65.63903 64.84701
# Shear Modulus (GPa) = -34.12289 24.86628 -4.62831
#
# Velocity S-wave (km/s) = -4.22969 3.61070 -1.55775
# Velocity P-wave (km/s) = 3.11924 7.19699 5.54646
#
# Compressibility (1/GPa) = 0.01561159
#
# Stress axis : x y z
#
# Youngs Moduli (GPa) = 116.29646 116.29646 60.42237
#
# Poissons Ratio (x) = -0.00442 0.27510
# Poissons Ratio (y) = -0.00442 0.27510
# Poissons Ratio (z) = 0.52950 0.52950
#
# Static dielectric constant tensor:
#      x y z
#    x 1.670750 0.000000 0.000000 
#    y 0.000000 1.670750 0.000000 
#    z 0.000000 0.000000 1.685010 
# 
# From -- ./inp_files/1332.got.cif
#   From: 2010.05.17/outbox.cif.g08.bks.cpg/sg191_1_cif.got.tgz:1332.got - 2010.05.20 12:20:32.
