data_PCOD9588551
_publ_section_title
;
Structure prediction by ZEFSAII (Michael W. Deem and Ramdas Pophale) SiO2 
 PCOD9588551
Probable space group: P 6/M C C
;
_chemical_formula_sum "Si O2"
_cell_formula_units_Z 156
_cell_length_a 20.759865
_cell_length_b 20.759865
_cell_length_c 21.718719
_cell_angle_alpha 90.000000
_cell_angle_beta 90.000000
_cell_angle_gamma 120.000000
_cell_volume 8106.136042
_symmetry_space_group_name_H-M "P 6/M C C"
_symmetry_group_IT_number 192
_symmetry_cell_setting 'hexagonal'
loop_
_space_group_symop_operation_xyz
x,y,z
x-y,x,z
-y,x-y,z
-x,-y,z
-x+y,-x,z
y,-x+y,z
x-y,-y,1/2-z
-x,-x+y,1/2-z
y,x,1/2-z
-y,-x,1/2-z
-x+y,y,1/2-z
x,x-y,1/2-z
-x,-y,-z
-x+y,-x,-z
y,-x+y,-z
x,y,-z
x-y,x,-z
-y,x-y,-z
-x+y,y,1/2+z
x,x-y,1/2+z
-y,-x,1/2+z
y,x,1/2+z
x-y,-y,1/2+z
-x,-x+y,1/2+z
loop_
_atom_site_type_symbol
_atom_site_label
_atom_site_fract_x
_atom_site_fract_y
_atom_site_fract_z
Si Si1 0.839686 0.160315 0.678770
Si Si2 0.856567 0.713137 0.500000
Si Si3 0.089443 0.416903 0.363828
Si Si4 0.583095 0.910557 0.363828
Si Si5 0.176065 0.088035 0.115544
Si Si6 0.088852 0.406342 0.000000
Si Si7 0.317487 0.406337 0.000000
Si Si8 0.335251 0.516224 0.250000
O O1 0.828818 0.171183 0.750000
O O2 0.758845 0.113796 0.647677
O O3 0.886202 0.241156 0.647676
O O4 0.883863 0.116144 0.672636
O O5 0.883601 0.767209 0.441740
O O6 0.768118 0.659119 0.500000
O O7 0.891006 0.659126 0.500000
O O8 0.113576 0.446386 0.433805
O O9 0.131604 0.476521 0.310495
O O10 1.000000 0.378262 0.358382
O O11 0.553610 0.886424 0.433804
O O12 0.523478 0.868397 0.310495
O O13 0.126352 0.126354 0.113858
O O14 0.000001 0.367451 0.000000
O O15 0.398537 0.601464 0.250000
O O16 0.254325 0.508650 0.250000
#
# Coordination Sequence:
#
# PCOD9588551 Si02
#       8
#    24  12  24  24  24  12  12  24
#     4  12  22  37  59  91 124 159 217 274 328 383
#     4  12  20  32  57  84 114 160 216 278 336 384
#     4  11  21  38  66  98 131 164 207 261 316 374
#     4  11  21  38  66  98 131 164 207 261 316 374
#     4  12  25  38  52  76 120 178 234 287 340 393
#     4  10  20  34  58  96 129 155 196 261 328 378
#     4  10  20  34  58  96 129 155 196 261 328 378
#     4  12  26  47  69  96 129 169 210 248 303 377
#
# _framework density 19.244679999999999
#
# number of rings (size 3 to 8) (size 9 to 14) (size 15 to 20)
#    0.000    0.615    6.154    3.077    0.000    3.077 
#    0.000    1.538    0.000    3.692    0.000    2.154 
#    0.000    0.000    0.000    0.000    0.000    0.000 
#
# Total GULP energy -871491.627697 kJ/mol
# GULP energy per Si atom -5586.484793 kJ/mol
# Density = 1.920088 g / cm^3
# Si number density = 19.244680 Si / 1000 Ang^3
#
#
#
# Elastic Constant Matrix: (Units=GPa)
#
#
# Indices 1 2 3 4 5 6 
#
# 1 83.6458 9.4872 41.7304 0.0000 0.0000 0.0000
# 2 9.4872 83.6458 41.7304 0.0000 0.0000 0.0000
# 3 41.7304 41.7304 186.1892 0.0000 0.0000 0.0000
# 4 0.0000 0.0000 0.0000 12.0382 0.0000 0.0000
# 5 0.0000 0.0000 0.0000 0.0000 12.0382 0.0000
# 6 0.0000 0.0000 0.0000 0.0000 0.0000 37.0793
#
#
#
# Elastic Compliance Matrix: (Units=1/GPa)
#
#
# Indices 1 2 3 4 5 6 
#
# 1 0.013460 -0.000024 -0.003011 0.000000 0.000000 0.000000
# 2 -0.000024 0.013460 -0.003011 0.000000 0.000000 0.000000
# 3 -0.003011 -0.003011 0.006721 0.000000 0.000000 0.000000
# 4 0.000000 0.000000 0.000000 0.083069 0.000000 0.000000
# 5 0.000000 0.000000 0.000000 0.000000 0.083069 0.000000
# 6 0.000000 0.000000 0.000000 0.000000 0.000000 0.026969
#
#
# Mechanical properties :
#
#
# Convention : Reuss Voigt Hill
#
# Bulk Modulus (GPa) = 46.40981 59.93073 53.17027
# Shear Modulus (GPa) = 20.32315 29.60000 24.96158
#
# Velocity S-wave (km/s) = 3.25320 3.92610 3.60538
# Velocity P-wave (km/s) = 6.18701 7.19454 6.70971
#
# Compressibility (1/GPa) = 0.02154717
#
# Stress axis : x y z
#
# Youngs Moduli (GPa) = 74.29254 74.29254 148.79262
#
# Poissons Ratio (x) = 0.00181 0.44807
# Poissons Ratio (y) = 0.00181 0.44807
# Poissons Ratio (z) = 0.22372 0.22372
#
# Static dielectric constant tensor:
#      x y z
#    x 1.635150 0.000000 0.000000 
#    y 0.000000 1.635150 0.000000 
#    z 0.000000 0.000000 1.741610 
# 
# From -- ./inp_files/5284.got.cif
#   From: 2010.05.17/outbox.cif.g08.bks.cpg/sg192_3_cif.got.tgz:5284.got - 2010.05.20 12:28:01.
