data_PCOD9588881
_publ_section_title
;
Structure prediction by ZEFSAII (Michael W. Deem and Ramdas Pophale) SiO2 
 PCOD9588881
Probable space group: P 63/M C M
;
_chemical_formula_sum "Si O2"
_cell_formula_units_Z 192
_cell_length_a 29.363320
_cell_length_b 29.363320
_cell_length_c 14.526973
_cell_angle_alpha 90.000000
_cell_angle_beta 90.000000
_cell_angle_gamma 120.000000
_cell_volume 10847.160773
_symmetry_space_group_name_H-M "P 63/M C M"
_symmetry_group_IT_number 193
_symmetry_cell_setting 'hexagonal'
loop_
_space_group_symop_operation_xyz
x,y,z
x-y,x,1/2+z
-y,x-y,z
-x,-y,1/2+z
-x+y,-x,z
y,-x+y,1/2+z
x-y,-y,1/2-z
-x,-x+y,1/2-z
y,x,1/2-z
-y,-x,-z
-x+y,y,-z
x,x-y,-z
-x,-y,-z
-x+y,-x,1/2-z
y,-x+y,-z
x,y,1/2-z
x-y,x,-z
-y,x-y,1/2-z
-x+y,y,1/2+z
x,x-y,1/2+z
-y,-x,1/2+z
y,x,z
x-y,-y,z
-x,-x+y,z
loop_
_atom_site_type_symbol
_atom_site_label
_atom_site_fract_x
_atom_site_fract_y
_atom_site_fract_z
Si Si1 0.846738 0.388373 0.862022
Si Si2 0.081538 0.747983 0.849384
Si Si3 0.273516 0.939604 0.941353
Si Si4 0.534072 0.193019 0.142930
Si Si5 0.729327 0.229071 0.140242
Si Si6 0.384768 0.942227 0.950706
Si Si7 0.799254 0.174894 0.106518
Si Si8 0.440169 0.360264 0.651145
O O1 0.850707 0.390859 0.750000
O O2 0.827646 0.428379 0.894056
O O3 0.804345 0.329820 0.892943
O O4 0.900679 0.396363 0.902605
O O5 0.061125 0.756212 0.750000
O O6 0.144060 0.789440 0.847636
O O7 0.068572 0.687593 0.847084
O O8 0.063397 0.749352 0.954489
O O9 0.324279 0.930594 0.944458
O O10 0.230349 0.888691 0.884435
O O11 0.296703 0.000000 0.908281
O O12 0.550637 0.206856 0.250000
O O13 0.527200 0.239260 0.100821
O O14 0.475992 0.142666 0.143265
O O15 0.726395 0.234619 0.250000
O O16 0.760428 0.197297 0.128503
O O17 0.420682 0.000000 0.911557
O O18 0.393781 0.942382 0.060181
O O19 0.812821 0.187180 0.000000
O O20 0.452662 0.388216 0.750000
#
# Coordination Sequence:
#
# PCOD9588881 Si02
#       8
#    24  24  24  24  24  24  24  24
#     4  10  21  35  50  71  98 127 155 188 233 289
#     4   9  16  27  47  70  90 119 160 203 241 282
#     4   9  18  30  44  68 101 129 156 196 245 296
#     4   9  18  33  50  69  91 114 146 189 236 282
#     4  10  18  31  51  69  88 117 151 190 235 284
#     4  10  20  34  51  71  96 128 163 191 226 292
#     4  10  17  27  47  72  94 118 156 199 238 284
#     4   9  17  31  51  72  92 115 149 196 243 277
#
# _framework density 17.700483999999999
#
# number of rings (size 3 to 8) (size 9 to 14) (size 15 to 20)
#    0.000    2.500    2.500    0.375    0.000    1.250 
#    0.750    3.750    0.000    3.750    0.000    0.000 
#    0.000    0.000    0.000    0.000    0.000    0.000 
#
# Total GULP energy -1069323.378636 kJ/mol
# GULP energy per Si atom -5569.392597 kJ/mol
# Density = 1.766020 g / cm^3
# Si number density = 17.700484 Si / 1000 Ang^3
#
#
#
# Elastic Constant Matrix: (Units=GPa)
#
#
# Indices 1 2 3 4 5 6 
#
# 1 65.8795 43.4922 9.9863 0.0000 0.0000 0.0000
# 2 43.4922 65.8795 9.9863 0.0000 0.0000 0.0000
# 3 9.9863 9.9863 41.2038 0.0000 0.0000 0.0000
# 4 0.0000 0.0000 0.0000 -43.8389 0.0000 0.0000
# 5 0.0000 0.0000 0.0000 0.0000 -43.8389 0.0000
# 6 0.0000 0.0000 0.0000 0.0000 0.0000 11.1937
#
#
#
# Elastic Compliance Matrix: (Units=1/GPa)
#
#
# Indices 1 2 3 4 5 6 
#
# 1 0.027117 -0.017551 -0.002319 0.000000 0.000000 0.000000
# 2 -0.017551 0.027117 -0.002319 0.000000 0.000000 0.000000
# 3 -0.002319 -0.002319 0.025394 0.000000 0.000000 0.000000
# 4 0.000000 0.000000 0.000000 -0.022811 0.000000 0.000000
# 5 0.000000 0.000000 0.000000 0.000000 -0.022811 0.000000
# 6 0.000000 0.000000 0.000000 0.000000 0.000000 0.089336
#
#
# Mechanical properties :
#
#
# Convention : Reuss Voigt Hill
#
# Bulk Modulus (GPa) = 28.36700 33.32138 30.84419
# Shear Modulus (GPa) = 27.85987 -7.99697 9.93145
#
# Velocity S-wave (km/s) = 3.97162 -2.12785 2.37129
# Velocity P-wave (km/s) = 6.09037 3.58176 4.99608
#
# Compressibility (1/GPa) = 0.03525223
#
# Stress axis : x y z
#
# Youngs Moduli (GPa) = 36.87677 36.87677 39.38013
#
# Poissons Ratio (x) = 0.64722 0.09131
# Poissons Ratio (y) = 0.64722 0.09131
# Poissons Ratio (z) = 0.08550 0.08550
#
# Static dielectric constant tensor:
#      x y z
#    x 1.621120 0.000000 0.000000 
#    y 0.000000 1.621120 0.000000 
#    z 0.000000 0.000000 1.700310 
# 
# From -- ./inp_files/4497.got.cif
#   From: 2010.05.17/outbox.cif.g08.bks.cpg/sg193_3_cif.got.tgz:4497.got - 2010.05.20 12:33:02.
