data_PCOD9588537
_publ_section_title
;
Structure prediction by ZEFSAII (Michael W. Deem and Ramdas Pophale) SiO2 
 PCOD9588537
Probable space group: P 6/M C C
;
_chemical_formula_sum "Si O2"
_cell_formula_units_Z 168
_cell_length_a 17.628871
_cell_length_b 17.628871
_cell_length_c 29.890143
_cell_angle_alpha 90.000000
_cell_angle_beta 90.000000
_cell_angle_gamma 120.000000
_cell_volume 8044.658710
_symmetry_space_group_name_H-M "P 6/M C C"
_symmetry_group_IT_number 192
_symmetry_cell_setting 'hexagonal'
loop_
_space_group_symop_operation_xyz
x,y,z
x-y,x,z
-y,x-y,z
-x,-y,z
-x+y,-x,z
y,-x+y,z
x-y,-y,1/2-z
-x,-x+y,1/2-z
y,x,1/2-z
-y,-x,1/2-z
-x+y,y,1/2-z
x,x-y,1/2-z
-x,-y,-z
-x+y,-x,-z
y,-x+y,-z
x,y,-z
x-y,x,-z
-y,x-y,-z
-x+y,y,1/2+z
x,x-y,1/2+z
-y,-x,1/2+z
y,x,1/2+z
x-y,-y,1/2+z
-x,-x+y,1/2+z
loop_
_atom_site_type_symbol
_atom_site_label
_atom_site_fract_x
_atom_site_fract_y
_atom_site_fract_z
Si Si1 0.999298 0.590384 0.950658
Si Si2 0.895805 0.466340 0.200007
Si Si3 0.381116 0.144894 0.409615
Si Si4 0.696583 0.037916 0.176126
Si Si5 0.903799 0.105916 0.946140
Si Si6 0.127475 0.675523 0.134199
Si Si7 0.825024 0.852709 0.199893
O O1 0.903728 0.578999 0.939401
O O2 0.000000 0.500000 0.953558
O O3 0.065195 0.636215 0.909338
O O4 0.026131 0.633885 0.000000
O O5 0.862635 0.431318 0.250000
O O6 0.901449 0.558583 0.191038
O O7 0.854693 0.394896 0.160225
O O8 0.000000 0.500000 0.199078
O O9 0.332778 0.072914 0.371547
O O10 0.304416 0.153892 0.433386
O O11 0.445045 0.235738 0.384239
O O12 0.775741 0.048923 0.205137
O O13 0.623255 0.935925 0.169836
O O14 0.004573 0.155275 0.930840
O O15 0.906238 0.104063 0.000000
O O16 0.892172 0.828028 0.176710
O O17 0.860970 0.860970 0.250000
#
# Coordination Sequence:
#
# PCOD9588537 Si02
#       7
#    24  24  24  24  24  24  24
#     4  10  21  38  60  87 121 161 208 259 319 392
#     4   9  19  36  61  88 118 154 204 265 340 403
#     4  11  21  34  55  87 120 158 206 260 323 390
#     4  10  20  35  56  84 115 152 208 262 320 382
#     4  10  20  34  53  81 122 173 226 276 321 373
#     4  10  20  35  58  87 125 157 200 264 331 394
#     4  10  21  35  52  78 120 169 213 256 308 375
#
# _framework density 20.883420999999998
#
# number of rings (size 3 to 8) (size 9 to 14) (size 15 to 20)
#    0.000    2.000    0.000    5.429    4.000    3.429 
#    0.000    0.000    0.000    6.286    0.000    0.000 
#    0.000    0.000    0.000    0.000    0.000    0.000 
#
# Total GULP energy -935336.711530 kJ/mol
# GULP energy per Si atom -5567.480426 kJ/mol
# Density = 2.083589 g / cm^3
# Si number density = 20.883421 Si / 1000 Ang^3
#
#
#
# Elastic Constant Matrix: (Units=GPa)
#
#
# Indices 1 2 3 4 5 6 
#
# 1 84.5185 61.5871 26.0238 0.0000 0.0000 0.0000
# 2 61.5871 84.5185 26.0238 0.0000 0.0000 0.0000
# 3 26.0238 26.0238 80.6932 0.0000 0.0000 0.0000
# 4 0.0000 0.0000 0.0000 14.2135 0.0000 0.0000
# 5 0.0000 0.0000 0.0000 0.0000 14.2135 0.0000
# 6 0.0000 0.0000 0.0000 0.0000 0.0000 11.4657
#
#
#
# Elastic Compliance Matrix: (Units=1/GPa)
#
#
# Indices 1 2 3 4 5 6 
#
# 1 0.025671 -0.017938 -0.002494 0.000000 0.000000 0.000000
# 2 -0.017938 0.025671 -0.002494 0.000000 0.000000 0.000000
# 3 -0.002494 -0.002494 0.014001 0.000000 0.000000 0.000000
# 4 0.000000 0.000000 0.000000 0.070356 0.000000 0.000000
# 5 0.000000 0.000000 0.000000 0.000000 0.070356 0.000000
# 6 0.000000 0.000000 0.000000 0.000000 0.000000 0.087217
#
#
# Mechanical properties :
#
#
# Convention : Reuss Voigt Hill
#
# Bulk Modulus (GPa) = 51.30488 52.99994 52.15241
# Shear Modulus (GPa) = 14.46679 17.05154 15.75917
#
# Velocity S-wave (km/s) = 2.63485 2.86057 2.75003
# Velocity P-wave (km/s) = 5.82041 6.02864 5.92544
#
# Compressibility (1/GPa) = 0.01949132
#
# Stress axis : x y z
#
# Youngs Moduli (GPa) = 38.95506 38.95506 71.42266
#
# Poissons Ratio (x) = 0.69877 0.17812
# Poissons Ratio (y) = 0.69877 0.17812
# Poissons Ratio (z) = 0.09715 0.09715
#
# Static dielectric constant tensor:
#      x y z
#    x 1.878580 0.000000 0.000000 
#    y 0.000000 1.878580 0.000000 
#    z 0.000000 0.000000 1.758730 
# 
# From -- ./inp_files/7205.got.cif
#   From: 2010.05.17/outbox.cif.g08.bks.cpg/sg192_4_cif.got.tgz:7205.got - 2010.05.20 12:28:01.
