data_PCOD9588484
_publ_section_title
;
Structure prediction by ZEFSAII (Michael W. Deem and Ramdas Pophale) SiO2 
 PCOD9588484
Probable space group: P 6/M C C
;
_chemical_formula_sum "Si O2"
_cell_formula_units_Z 144
_cell_length_a 33.001816
_cell_length_b 33.001816
_cell_length_c 9.074688
_cell_angle_alpha 90.000000
_cell_angle_beta 90.000000
_cell_angle_gamma 120.000000
_cell_volume 8559.295323
_symmetry_space_group_name_H-M "P 6/M C C"
_symmetry_group_IT_number 192
_symmetry_cell_setting 'hexagonal'
loop_
_space_group_symop_operation_xyz
x,y,z
x-y,x,z
-y,x-y,z
-x,-y,z
-x+y,-x,z
y,-x+y,z
x-y,-y,1/2-z
-x,-x+y,1/2-z
y,x,1/2-z
-y,-x,1/2-z
-x+y,y,1/2-z
x,x-y,1/2-z
-x,-y,-z
-x+y,-x,-z
y,-x+y,-z
x,y,-z
x-y,x,-z
-y,x-y,-z
-x+y,y,1/2+z
x,x-y,1/2+z
-y,-x,1/2+z
y,x,1/2+z
x-y,-y,1/2+z
-x,-x+y,1/2+z
loop_
_atom_site_type_symbol
_atom_site_label
_atom_site_fract_x
_atom_site_fract_y
_atom_site_fract_z
Si Si1 0.862753 0.812306 0.823888
Si Si2 0.856379 0.385472 0.322514
Si Si3 0.192785 0.471555 0.823275
Si Si4 0.807714 0.701894 0.174898
Si Si5 0.622050 0.903057 0.323081
Si Si6 0.563006 0.951538 0.323049
O O1 0.842231 0.842231 0.750000
O O2 0.911396 0.822792 0.750000
O O3 0.826964 0.756868 0.798370
O O4 0.868131 0.819799 0.000000
O O5 0.845660 0.422830 0.250000
O O6 0.855231 0.388222 0.500000
O O7 0.821837 0.331578 0.279578
O O8 0.908337 0.395800 0.280770
O O9 0.239439 0.478878 0.750000
O O10 0.149002 0.420399 0.786608
O O11 0.197199 0.473141 0.000000
O O12 0.845338 0.690676 0.250000
O O13 0.756932 0.668476 0.242691
O O14 0.807216 0.694552 0.000000
O O15 0.628773 0.905546 0.500000
O O16 0.602045 0.937259 0.282509
O O17 0.563659 0.955229 0.500000
O O18 0.575548 0.000000 0.250000
#
# Coordination Sequence:
#
# PCOD9588484 Si02
#       6
#    24  24  24  24  24  24
#     4  10  21  37  56  78 104 134 168 206 248 293
#     4   9  19  35  52  72  98 126 159 201 247 294
#     4   9  18  32  50  73  99 126 158 198 245 295
#     4  10  20  32  48  72 101 133 169 206 243 287
#     4   9  18  32  48  68  99 135 168 206 247 286
#     4   9  19  34  49  68  97 131 167 208 250 290
#
# _framework density 16.823815
#
# number of rings (size 3 to 8) (size 9 to 14) (size 15 to 20)
#    0.000    2.667    0.000    3.500    0.000    7.000 
#    0.000    8.333    0.000    0.500    0.000    1.167 
#    0.000    0.000    0.000    0.000    0.000    0.000 
#
# Total GULP energy -803294.177357 kJ/mol
# GULP energy per Si atom -5578.431787 kJ/mol
# Density = 1.678552 g / cm^3
# Si number density = 16.823815 Si / 1000 Ang^3
#
#
#
# Elastic Constant Matrix: (Units=GPa)
#
#
# Indices 1 2 3 4 5 6 
#
# 1 74.4143 53.6317 37.1987 0.0000 0.0000 0.0000
# 2 53.6317 74.4143 37.1987 0.0000 0.0000 0.0000
# 3 37.1987 37.1987 38.8124 0.0000 0.0000 0.0000
# 4 0.0000 0.0000 0.0000 168.9973 0.0000 0.0000
# 5 0.0000 0.0000 0.0000 0.0000 168.9972 0.0000
# 6 0.0000 0.0000 0.0000 0.0000 0.0000 10.3913
#
#
#
# Elastic Compliance Matrix: (Units=1/GPa)
#
#
# Indices 1 2 3 4 5 6 
#
# 1 0.032870 -0.015247 -0.016891 0.000000 0.000000 0.000000
# 2 -0.015247 0.032870 -0.016891 0.000000 0.000000 0.000000
# 3 -0.016891 -0.016891 0.058142 0.000000 0.000000 0.000000
# 4 0.000000 0.000000 0.000000 0.005917 0.000000 0.000000
# 5 0.000000 0.000000 0.000000 0.000000 0.005917 0.000000
# 6 0.000000 0.000000 0.000000 0.000000 0.000000 0.096234
#
#
# Mechanical properties :
#
#
# Convention : Reuss Voigt Hill
#
# Bulk Modulus (GPa) = 38.72086 49.29991 44.01039
# Shear Modulus (GPa) = 14.76592 73.65129 44.20861
#
# Velocity S-wave (km/s) = 2.96578 6.62367 5.13171
# Velocity P-wave (km/s) = 5.89858 9.37361 7.83128
#
# Compressibility (1/GPa) = 0.02582587
#
# Stress axis : x y z
#
# Youngs Moduli (GPa) = 30.42250 30.42250 17.19923
#
# Poissons Ratio (x) = 0.46384 0.29051
# Poissons Ratio (y) = 0.46384 0.29051
# Poissons Ratio (z) = 0.51386 0.51386
#
# Static dielectric constant tensor:
#      x y z
#    x 1.552000 0.000000 0.000000 
#    y 0.000000 1.552000 0.000000 
#    z 0.000000 0.000000 1.557630 
# 
# From -- ./inp_files/1179.got.cif
#   From: 2010.05.17/outbox.cif.g08.bks.cpg/sg192_1_cif.got.tgz:1179.got - 2010.05.20 12:28:01.
