data_PCOD9588163
_publ_section_title
;
Structure prediction by ZEFSAII (Michael W. Deem and Ramdas Pophale) SiO2 
 PCOD9588163
Probable space group: P 6/M M M
;
_chemical_formula_sum "Si O2"
_cell_formula_units_Z 144
_cell_length_a 32.661608
_cell_length_b 32.661608
_cell_length_c 7.796357
_cell_angle_alpha 90.000000
_cell_angle_beta 90.000000
_cell_angle_gamma 120.000000
_cell_volume 7202.735611
_symmetry_space_group_name_H-M "P 6/M M M"
_symmetry_group_IT_number 191
_symmetry_cell_setting 'hexagonal'
loop_
_space_group_symop_operation_xyz
x,y,z
x-y,x,z
-y,x-y,z
-x,-y,z
-x+y,-x,z
y,-x+y,z
x-y,-y,-z
-x,-x+y,-z
y,x,-z
-y,-x,-z
-x+y,y,-z
x,x-y,-z
-x,-y,-z
-x+y,-x,-z
y,-x+y,-z
x,y,-z
x-y,x,-z
-y,x-y,-z
-x+y,y,z
x,x-y,z
-y,-x,z
y,x,z
x-y,-y,z
-x,-x+y,z
loop_
_atom_site_type_symbol
_atom_site_label
_atom_site_fract_x
_atom_site_fract_y
_atom_site_fract_z
Si Si1 0.854631 0.614762 0.210441
Si Si2 0.707937 0.760670 0.793902
Si Si3 0.479180 0.331749 0.202534
Si Si4 0.240821 0.574157 0.295394
Si Si5 0.479169 0.052872 0.707089
Si Si6 0.197260 0.052750 0.292915
O O1 0.809790 0.619579 0.262545
O O2 0.904040 0.658966 0.269683
O O3 0.849621 0.565617 0.270744
O O4 0.855266 0.615023 0.000000
O O5 0.724001 0.724001 0.728092
O O6 0.750937 0.812844 0.753747
O O7 0.704369 0.755860 0.000000
O O8 0.528466 0.338618 0.268693
O O9 0.473024 0.376848 0.235857
O O10 0.480044 0.325858 0.000000
O O11 0.247145 0.580168 0.500000
O O12 0.283754 0.567507 0.227642
O O13 0.242756 0.621378 0.225438
O O14 0.479131 0.052731 0.500000
O O15 0.530038 0.060075 0.762572
O O16 0.439875 0.000000 0.763998
O O17 0.194530 0.052297 0.500000
O O18 0.189763 0.094882 0.228224
O O19 0.160313 0.000000 0.230701
#
# Coordination Sequence:
#
# PCOD9588163 Si02
#       6
#    24  24  24  24  24  24
#     4   9  18  32  48  67  97 136 168 194 234 291
#     4   9  17  30  50  73  93 118 158 203 240 277
#     4  11  22  34  52  79 108 136 168 208 253 302
#     4  10  21  38  59  80 103 134 173 214 255 302
#     4   9  19  37  58  77 100 133 171 209 251 300
#     4   9  17  29  45  66  93 123 154 192 240 288
#
# _framework density 19.992405000000002
#
# number of rings (size 3 to 8) (size 9 to 14) (size 15 to 20)
#    0.000    2.500    0.000    2.667    0.000    6.333 
#    0.000    4.167    0.000    7.167    0.000    1.167 
#    0.000    0.000    0.000    4.167    0.000    4.333 
#
# Total GULP energy -803757.229395 kJ/mol
# GULP energy per Si atom -5581.647426 kJ/mol
# Density = 1.994690 g / cm^3
# Si number density = 19.992405 Si / 1000 Ang^3
#
#
#
# Elastic Constant Matrix: (Units=GPa)
#
#
# Indices 1 2 3 4 5 6 
#
# 1 150.7402 91.8624 3.5015 0.0000 0.0000 0.0000
# 2 91.8624 150.7402 3.5015 0.0000 0.0000 0.0000
# 3 3.5015 3.5015 25.1389 0.0000 0.0000 0.0000
# 4 0.0000 0.0000 0.0000 17.5169 0.0000 0.0000
# 5 0.0000 0.0000 0.0000 0.0000 17.5169 0.0000
# 6 0.0000 0.0000 0.0000 0.0000 0.0000 29.4389
#
#
#
# Elastic Compliance Matrix: (Units=1/GPa)
#
#
# Indices 1 2 3 4 5 6 
#
# 1 0.010561 -0.006423 -0.000576 0.000000 0.000000 0.000000
# 2 -0.006423 0.010561 -0.000576 0.000000 0.000000 0.000000
# 3 -0.000576 -0.000576 0.039940 0.000000 0.000000 0.000000
# 4 0.000000 0.000000 0.000000 0.057088 0.000000 0.000000
# 5 0.000000 0.000000 0.000000 0.000000 0.057088 0.000000
# 6 0.000000 0.000000 0.000000 0.000000 0.000000 0.033969
#
#
# Mechanical properties :
#
#
# Convention : Reuss Voigt Hill
#
# Bulk Modulus (GPa) = 21.78125 58.26110 40.02117
# Shear Modulus (GPa) = 20.86274 28.07814 24.47044
#
# Velocity S-wave (km/s) = 3.23388 3.75165 3.50235
# Velocity P-wave (km/s) = 4.98622 6.92614 6.03464
#
# Compressibility (1/GPa) = 0.04591105
#
# Stress axis : x y z
#
# Youngs Moduli (GPa) = 94.68371 94.68371 25.03780
#
# Poissons Ratio (x) = 0.60814 0.01443
# Poissons Ratio (y) = 0.60814 0.01443
# Poissons Ratio (z) = 0.05458 0.05458
#
# Static dielectric constant tensor:
#      x y z
#    x 1.694420 0.000000 0.000000 
#    y 0.000000 1.694420 0.000000 
#    z 0.000000 0.000000 1.739900 
# 
# From -- ./inp_files/1970.got.cif
#   From: 2010.05.17/outbox.cif.g08.bks.cpg/sg191_1_cif.got.tgz:1970.got - 2010.05.20 12:20:32.
