data_PCOD9588801
_publ_section_title
;
Structure prediction by ZEFSAII (Michael W. Deem and Ramdas Pophale) SiO2 
 PCOD9588801
Probable space group: P 6/M C C
;
_chemical_formula_sum "Si O2"
_cell_formula_units_Z 108
_cell_length_a 17.706515
_cell_length_b 17.706515
_cell_length_c 19.678957
_cell_angle_alpha 90.000000
_cell_angle_beta 90.000000
_cell_angle_gamma 120.000000
_cell_volume 5343.168767
_symmetry_space_group_name_H-M "P 6/M C C"
_symmetry_group_IT_number 192
_symmetry_cell_setting 'hexagonal'
loop_
_space_group_symop_operation_xyz
x,y,z
x-y,x,z
-y,x-y,z
-x,-y,z
-x+y,-x,z
y,-x+y,z
x-y,-y,1/2-z
-x,-x+y,1/2-z
y,x,1/2-z
-y,-x,1/2-z
-x+y,y,1/2-z
x,x-y,1/2-z
-x,-y,-z
-x+y,-x,-z
y,-x+y,-z
x,y,-z
x-y,x,-z
-y,x-y,-z
-x+y,y,1/2+z
x,x-y,1/2+z
-y,-x,1/2+z
y,x,1/2+z
x-y,-y,1/2+z
-x,-x+y,1/2+z
loop_
_atom_site_type_symbol
_atom_site_label
_atom_site_fract_x
_atom_site_fract_y
_atom_site_fract_z
Si Si1 0.209780 0.104996 0.000000
Si Si2 0.880702 0.191877 0.135638
Si Si3 0.290096 0.955504 0.181182
Si Si4 0.505844 0.859421 0.419500
Si Si5 0.510667 0.681979 0.579868
O O1 0.151143 0.150904 0.000000
O O2 0.271857 0.132964 0.066111
O O3 0.801218 0.134729 0.184785
O O4 0.881108 0.281204 0.119552
O O5 0.978277 0.233320 0.161165
O O6 0.339712 0.926799 0.126360
O O7 0.343355 0.000000 0.250000
O O8 0.523452 0.882503 0.500000
O O9 0.489672 0.760831 0.412688
O O10 0.414078 0.851110 0.399581
O O11 0.526320 0.677262 0.500000
#
# Coordination Sequence:
#
# PCOD9588801 Si02
#       5
#    12  24  24  24  24
#     4  12  23  40  66  97 125 155 199 267 331 399
#     4  11  22  37  63  87 121 160 204 261 323 380
#     4  11  24  41  60  85 122 170 215 255 316 382
#     4   9  19  34  60  93 129 166 210 264 319 379
#     4   9  17  32  56  90 124 159 203 255 319 370
#
# _framework density 20.212724999999999
#
# number of rings (size 3 to 8) (size 9 to 14) (size 15 to 20)
#    0.000    1.778    3.333    1.222    3.111    2.667 
#    0.000    4.444    0.000    0.000    0.000    6.222 
#    0.000    0.000    0.000    0.000    0.000    0.000 
#
# Total GULP energy -601681.157499 kJ/mol
# GULP energy per Si atom -5571.121829 kJ/mol
# Density = 2.016672 g / cm^3
# Si number density = 20.212725 Si / 1000 Ang^3
#
#
#
# Elastic Constant Matrix: (Units=GPa)
#
#
# Indices 1 2 3 4 5 6 
#
# 1 91.9584 41.7769 49.6226 0.0000 0.0000 0.0000
# 2 41.7769 91.9584 49.6226 0.0000 0.0000 0.0000
# 3 49.6226 49.6226 95.0578 0.0000 0.0000 0.0000
# 4 0.0000 0.0000 0.0000 21.6361 0.0000 0.0000
# 5 0.0000 0.0000 0.0000 0.0000 21.6361 0.0000
# 6 0.0000 0.0000 0.0000 0.0000 0.0000 25.0908
#
#
#
# Elastic Compliance Matrix: (Units=1/GPa)
#
#
# Indices 1 2 3 4 5 6 
#
# 1 0.016067 -0.003861 -0.006372 0.000000 0.000000 0.000000
# 2 -0.003861 0.016067 -0.006372 0.000000 0.000000 0.000000
# 3 -0.006372 -0.006372 0.017172 0.000000 0.000000 0.000000
# 4 0.000000 0.000000 0.000000 0.046219 0.000000 0.000000
# 5 0.000000 0.000000 0.000000 0.000000 0.046219 0.000000
# 6 0.000000 0.000000 0.000000 0.000000 0.000000 0.039855
#
#
# Mechanical properties :
#
#
# Convention : Reuss Voigt Hill
#
# Bulk Modulus (GPa) = 62.12305 62.33541 62.22923
# Shear Modulus (GPa) = 22.70927 22.86942 22.78935
#
# Velocity S-wave (km/s) = 3.35552 3.36733 3.36143
# Velocity P-wave (km/s) = 6.76861 6.78419 6.77640
#
# Compressibility (1/GPa) = 0.01609708
#
# Stress axis : x y z
#
# Youngs Moduli (GPa) = 62.24002 62.24002 58.23283
#
# Poissons Ratio (x) = 0.24030 0.37105
# Poissons Ratio (y) = 0.24030 0.37105
# Poissons Ratio (z) = 0.39658 0.39658
#
# Static dielectric constant tensor:
#      x y z
#    x 1.767560 0.000000 0.000000 
#    y 0.000000 1.767560 0.000000 
#    z 0.000000 0.000000 1.754220 
# 
# From -- ./inp_files/4874.got.cif
#   From: 2010.05.17/outbox.cif.g08.bks.cpg/sg192_3_cif.got.tgz:4874.got - 2010.05.20 12:28:01.
