data_PCOD9588628
_publ_section_title
;
Structure prediction by ZEFSAII (Michael W. Deem and Ramdas Pophale) SiO2 
 PCOD9588628
Probable space group: P 6/M C C
;
_chemical_formula_sum "Si O2"
_cell_formula_units_Z 120
_cell_length_a 13.612840
_cell_length_b 13.612840
_cell_length_c 34.707705
_cell_angle_alpha 90.000000
_cell_angle_beta 90.000000
_cell_angle_gamma 120.000000
_cell_volume 5569.984790
_symmetry_space_group_name_H-M "P 6/M C C"
_symmetry_group_IT_number 192
_symmetry_cell_setting 'hexagonal'
loop_
_space_group_symop_operation_xyz
x,y,z
x-y,x,z
-y,x-y,z
-x,-y,z
-x+y,-x,z
y,-x+y,z
x-y,-y,1/2-z
-x,-x+y,1/2-z
y,x,1/2-z
-y,-x,1/2-z
-x+y,y,1/2-z
x,x-y,1/2-z
-x,-y,-z
-x+y,-x,-z
y,-x+y,-z
x,y,-z
x-y,x,-z
-y,x-y,-z
-x+y,y,1/2+z
x,x-y,1/2+z
-y,-x,1/2+z
y,x,1/2+z
x-y,-y,1/2+z
-x,-x+y,1/2+z
loop_
_atom_site_type_symbol
_atom_site_label
_atom_site_fract_x
_atom_site_fract_y
_atom_site_fract_z
Si Si1 0.891608 0.326953 0.891280
Si Si2 0.342955 0.480293 0.638239
Si Si3 0.790156 0.775675 0.705372
Si Si4 0.336862 0.476836 0.276057
Si Si5 0.948114 0.746435 0.545996
O O1 0.854046 0.422275 0.890450
O O2 0.785773 0.216730 0.873713
O O3 0.923759 0.289398 0.930878
O O4 0.005836 0.383075 0.865773
O O5 0.355995 0.530760 0.681307
O O6 0.771269 0.873774 0.687667
O O7 0.812021 0.812021 0.750000
O O8 0.689219 0.647583 0.711082
O O9 0.442606 0.557395 0.250000
O O10 0.230585 0.461169 0.250000
O O11 0.851039 0.778117 0.555654
O O12 0.944596 0.728969 0.500000
#
# Coordination Sequence:
#
# PCOD9588628 Si02
#       5
#    24  24  24  24  24
#     4  11  23  46  67  99 139 188 233 282 352 425
#     4  11  26  43  69  95 134 185 234 300 357 427
#     4  10  21  41  63  90 119 158 201 273 355 430
#     4  12  26  45  66  95 127 173 239 306 371 421
#     4  10  20  40  76 120 158 187 221 272 333 412
#
# _framework density 21.544044
#
# number of rings (size 3 to 8) (size 9 to 14) (size 15 to 20)
#    0.000    1.200    4.000    2.200    2.800    5.200 
#    0.000    3.000    0.000    0.000    0.000    0.000 
#    0.000    0.000    0.000    0.000    0.000    0.000 
#
# Total GULP energy -669429.285096 kJ/mol
# GULP energy per Si atom -5578.577376 kJ/mol
# Density = 2.149501 g / cm^3
# Si number density = 21.544044 Si / 1000 Ang^3
#
#
#
# Elastic Constant Matrix: (Units=GPa)
#
#
# Indices 1 2 3 4 5 6 
#
# 1 116.7212 59.7948 44.4708 0.0000 0.0000 0.0000
# 2 59.7948 116.7212 44.4708 0.0000 0.0000 0.0000
# 3 44.4708 44.4708 87.9572 0.0000 0.0000 0.0000
# 4 0.0000 0.0000 0.0000 12.1801 0.0000 0.0000
# 5 0.0000 0.0000 0.0000 0.0000 12.1801 0.0000
# 6 0.0000 0.0000 0.0000 0.0000 0.0000 28.4632
#
#
#
# Elastic Compliance Matrix: (Units=1/GPa)
#
#
# Indices 1 2 3 4 5 6 
#
# 1 0.012584 -0.004982 -0.003843 0.000000 0.000000 0.000000
# 2 -0.004982 0.012584 -0.003843 0.000000 0.000000 0.000000
# 3 -0.003843 -0.003843 0.015256 0.000000 0.000000 0.000000
# 4 0.000000 0.000000 0.000000 0.082101 0.000000 0.000000
# 5 0.000000 0.000000 0.000000 0.000000 0.082101 0.000000
# 6 0.000000 0.000000 0.000000 0.000000 0.000000 0.035133
#
#
# Mechanical properties :
#
#
# Convention : Reuss Voigt Hill
#
# Bulk Modulus (GPa) = 66.28890 68.76357 67.52624
# Shear Modulus (GPa) = 18.50983 22.07555 20.29269
#
# Velocity S-wave (km/s) = 2.93433 3.20452 3.07240
# Velocity P-wave (km/s) = 6.50509 6.75862 6.63306
#
# Compressibility (1/GPa) = 0.01508548
#
# Stress axis : x y z
#
# Youngs Moduli (GPa) = 79.46486 79.46486 65.54958
#
# Poissons Ratio (x) = 0.39592 0.25194
# Poissons Ratio (y) = 0.39592 0.25194
# Poissons Ratio (z) = 0.30542 0.30542
#
# Static dielectric constant tensor:
#      x y z
#    x 1.831210 0.000000 0.000000 
#    y 0.000000 1.831210 0.000000 
#    z 0.000000 0.000000 1.820990 
# 
# From -- ./inp_files/6933.got.cif
#   From: 2010.05.17/outbox.cif.g08.bks.cpg/sg192_4_cif.got.tgz:6933.got - 2010.05.20 12:28:01.
