data_PCOD9588496
_publ_section_title
;
Structure prediction by ZEFSAII (Michael W. Deem and Ramdas Pophale) SiO2 
 PCOD9588496
Probable space group: P 6/M C C
;
_chemical_formula_sum "Si O2"
_cell_formula_units_Z 144
_cell_length_a 32.826368
_cell_length_b 32.826368
_cell_length_c 9.001046
_cell_angle_alpha 90.000000
_cell_angle_beta 90.000000
_cell_angle_gamma 120.000000
_cell_volume 8399.806479
_symmetry_space_group_name_H-M "P 6/M C C"
_symmetry_group_IT_number 192
_symmetry_cell_setting 'hexagonal'
loop_
_space_group_symop_operation_xyz
x,y,z
x-y,x,z
-y,x-y,z
-x,-y,z
-x+y,-x,z
y,-x+y,z
x-y,-y,1/2-z
-x,-x+y,1/2-z
y,x,1/2-z
-y,-x,1/2-z
-x+y,y,1/2-z
x,x-y,1/2-z
-x,-y,-z
-x+y,-x,-z
y,-x+y,-z
x,y,-z
x-y,x,-z
-y,x-y,-z
-x+y,y,1/2+z
x,x-y,1/2+z
-y,-x,1/2+z
y,x,1/2+z
x-y,-y,1/2+z
-x,-x+y,1/2+z
loop_
_atom_site_type_symbol
_atom_site_label
_atom_site_fract_x
_atom_site_fract_y
_atom_site_fract_z
Si Si1 0.387034 0.863046 0.822477
Si Si2 0.422674 0.755267 0.678398
Si Si3 0.699705 0.806690 0.823912
Si Si4 0.949085 0.139062 0.322083
Si Si5 0.950382 0.385736 0.173994
Si Si6 0.337309 0.288539 0.327292
O O1 0.433270 0.866540 0.750000
O O2 0.345788 0.809271 0.792409
O O3 0.381721 0.904996 0.753615
O O4 0.392235 0.868505 0.000000
O O5 0.374908 0.749815 0.750000
O O6 0.432203 0.716102 0.750000
O O7 0.416861 0.748918 0.500000
O O8 0.689829 0.844915 0.750000
O O9 0.754704 0.824248 0.792433
O O10 0.666765 0.756018 0.755089
O O11 0.694126 0.806165 0.000000
O O12 0.910034 0.089967 0.250000
O O13 0.950711 0.134244 0.500000
O O14 0.000000 0.158704 0.250000
O O15 0.946705 0.334901 0.184372
O O16 0.000000 0.422600 0.250000
O O17 0.951182 0.397448 0.000000
O O18 0.301186 0.301186 0.250000
O O19 0.325495 0.277825 0.500000
#
# Coordination Sequence:
#
# PCOD9588496 Si02
#       6
#    24  24  24  24  24  24
#     4  10  21  37  57  81 109 141 177 220 268 315
#     4  10  20  34  54  80 110 143 178 217 260 309
#     4  10  20  33  51  75 104 136 170 210 254 303
#     4  10  20  33  50  73 100 130 164 204 250 299
#     4  10  21  37  57  80 106 137 175 219 264 314
#     4  10  20  34  53  76 102 134 171 211 256 305
#
# _framework density 17.143252
#
# number of rings (size 3 to 8) (size 9 to 14) (size 15 to 20)
#    0.000    2.000    0.000    3.667    0.000    7.667 
#    0.000    2.500    0.000    2.167    0.000    1.167 
#    0.000    0.000    0.000    0.000    0.000    0.000 
#
# Total GULP energy -803860.285603 kJ/mol
# GULP energy per Si atom -5582.363094 kJ/mol
# Density = 1.710423 g / cm^3
# Si number density = 17.143252 Si / 1000 Ang^3
#
#
#
# Elastic Constant Matrix: (Units=GPa)
#
#
# Indices 1 2 3 4 5 6 
#
# 1 90.1951 40.7830 63.0934 0.0000 0.0000 0.0000
# 2 40.7830 90.1951 63.0934 0.0000 0.0000 0.0000
# 3 63.0934 63.0934 115.4771 0.0000 0.0000 0.0000
# 4 0.0000 0.0000 0.0000 27.7834 0.0000 0.0000
# 5 0.0000 0.0000 0.0000 0.0000 27.7834 0.0000
# 6 0.0000 0.0000 0.0000 0.0000 0.0000 24.7061
#
#
#
# Elastic Compliance Matrix: (Units=1/GPa)
#
#
# Indices 1 2 3 4 5 6 
#
# 1 0.018179 -0.002059 -0.008808 0.000000 0.000000 0.000000
# 2 -0.002059 0.018179 -0.008808 0.000000 0.000000 0.000000
# 3 -0.008808 -0.008808 0.018284 0.000000 0.000000 0.000000
# 4 0.000000 0.000000 0.000000 0.035993 0.000000 0.000000
# 5 0.000000 0.000000 0.000000 0.000000 0.035993 0.000000
# 6 0.000000 0.000000 0.000000 0.000000 0.000000 0.040476
#
#
# Mechanical properties :
#
#
# Convention : Reuss Voigt Hill
#
# Bulk Modulus (GPa) = 65.38429 69.97855 67.68142
# Shear Modulus (GPa) = 23.63502 24.64774 24.14138
#
# Velocity S-wave (km/s) = 3.71708 3.79588 3.75669
# Velocity P-wave (km/s) = 7.52629 7.75372 7.64085
#
# Compressibility (1/GPa) = 0.01529419
#
# Stress axis : x y z
#
# Youngs Moduli (GPa) = 55.00799 55.00799 54.69167
#
# Poissons Ratio (x) = 0.11325 0.48171
# Poissons Ratio (y) = 0.11325 0.48171
# Poissons Ratio (z) = 0.48450 0.48450
#
# Static dielectric constant tensor:
#      x y z
#    x 1.562140 0.000000 0.000000 
#    y 0.000000 1.562140 0.000000 
#    z 0.000000 0.000000 1.568190 
# 
# From -- ./inp_files/1186.got.cif
#   From: 2010.05.17/outbox.cif.g08.bks.cpg/sg192_1_cif.got.tgz:1186.got - 2010.05.20 12:28:01.
