data_PCOD9588179
_publ_section_title
;
Structure prediction by ZEFSAII (Michael W. Deem and Ramdas Pophale) SiO2 
 PCOD9588179
Probable space group: P 6/M M M
;
_chemical_formula_sum "Si O2"
_cell_formula_units_Z 72
_cell_length_a 17.814065
_cell_length_b 17.814065
_cell_length_c 14.117557
_cell_angle_alpha 90.000000
_cell_angle_beta 90.000000
_cell_angle_gamma 120.000000
_cell_volume 3879.861715
_symmetry_space_group_name_H-M "P 6/M M M"
_symmetry_group_IT_number 191
_symmetry_cell_setting 'hexagonal'
loop_
_space_group_symop_operation_xyz
x,y,z
x-y,x,z
-y,x-y,z
-x,-y,z
-x+y,-x,z
y,-x+y,z
x-y,-y,-z
-x,-x+y,-z
y,x,-z
-y,-x,-z
-x+y,y,-z
x,x-y,-z
-x,-y,-z
-x+y,-x,-z
y,-x+y,-z
x,y,-z
x-y,x,-z
-y,x-y,-z
-x+y,y,z
x,x-y,z
-y,-x,z
y,x,z
x-y,-y,z
-x,-x+y,z
loop_
_atom_site_type_symbol
_atom_site_label
_atom_site_fract_x
_atom_site_fract_y
_atom_site_fract_z
Si Si1 0.279090 0.720911 0.614805
Si Si2 0.666870 0.151518 0.000000
Si Si3 0.820649 0.820649 0.105976
Si Si4 0.638511 0.819256 0.386407
Si Si5 0.287834 0.000000 0.713986
Si Si6 0.000000 0.589170 0.146532
O O1 0.239408 0.619704 0.642508
O O2 0.277076 0.722925 0.500000
O O3 0.230573 0.769428 0.649764
O O4 0.653360 0.087880 0.911361
O O5 0.758430 0.241571 0.000000
O O6 0.583784 0.167568 0.000000
O O7 0.914498 0.828995 0.113438
O O8 0.761343 0.761343 0.190162
O O9 0.786149 0.786149 0.000000
O O10 0.638195 0.819098 0.500000
O O11 0.685897 0.770399 0.346568
O O12 0.372311 0.000000 0.752333
O O13 0.000000 0.500000 0.151784
#
# Coordination Sequence:
#
# PCOD9588179 Si02
#       6
#    12  12  12  12  12  12
#     4   7  14  34  64  90 116 151 196 254 318 366
#     4   9  18  35  62  87 123 169 208 249 306 369
#     4  10  21  39  63  92 120 150 194 251 312 365
#     4  11  24  42  63  90 125 167 210 258 312 369
#     4  12  24  39  62  89 125 164 205 254 305 376
#     4   9  22  39  54  87 129 160 199 259 310 367
#
# _framework density 18.557362999999999
#
# number of rings (size 3 to 8) (size 9 to 14) (size 15 to 20)
#    0.333    2.000    1.667    1.833    4.667    2.000 
#    0.000    0.000    0.000    5.000    0.000    2.333 
#    0.000    0.000    0.000    0.000    0.000    0.000 
#
# Total GULP energy -401504.780683 kJ/mol
# GULP energy per Si atom -5576.455287 kJ/mol
# Density = 1.851513 g / cm^3
# Si number density = 18.557363 Si / 1000 Ang^3
#
#
#
# Elastic Constant Matrix: (Units=GPa)
#
#
# Indices 1 2 3 4 5 6 
#
# 1 125.8283 81.0012 44.9551 0.0000 0.0000 0.0000
# 2 81.0012 125.8283 44.9551 0.0000 0.0000 0.0000
# 3 44.9551 44.9551 78.0046 0.0000 0.0000 0.0000
# 4 0.0000 0.0000 0.0000 21.4314 0.0000 0.0000
# 5 0.0000 0.0000 0.0000 0.0000 21.4314 0.0000
# 6 0.0000 0.0000 0.0000 0.0000 0.0000 22.4135
#
#
#
# Elastic Compliance Matrix: (Units=1/GPa)
#
#
# Indices 1 2 3 4 5 6 
#
# 1 0.014380 -0.007928 -0.003718 0.000000 0.000000 0.000000
# 2 -0.007928 0.014380 -0.003718 0.000000 0.000000 0.000000
# 3 -0.003718 -0.003718 0.017105 0.000000 0.000000 0.000000
# 4 0.000000 0.000000 0.000000 0.046661 0.000000 0.000000
# 5 0.000000 0.000000 0.000000 0.000000 0.046661 0.000000
# 6 0.000000 0.000000 0.000000 0.000000 0.000000 0.044616
#
#
# Mechanical properties :
#
#
# Convention : Reuss Voigt Hill
#
# Bulk Modulus (GPa) = 66.06845 74.60936 70.33890
# Shear Modulus (GPa) = 22.77130 23.63857 23.20493
#
# Velocity S-wave (km/s) = 3.50677 3.57292 3.54000
# Velocity P-wave (km/s) = 7.21638 7.57054 7.39558
#
# Compressibility (1/GPa) = 0.01513582
#
# Stress axis : x y z
#
# Youngs Moduli (GPa) = 69.54340 69.54340 58.46231
#
# Poissons Ratio (x) = 0.55137 0.21735
# Poissons Ratio (y) = 0.55137 0.21735
# Poissons Ratio (z) = 0.25855 0.25855
#
# Static dielectric constant tensor:
#      x y z
#    x 1.635780 0.000000 0.000000 
#    y 0.000000 1.635780 0.000000 
#    z 0.000000 0.000000 1.635750 
# 
# From -- ./inp_files/3970.got.cif
#   From: 2010.05.17/outbox.cif.g08.bks.cpg/sg191_2_cif.got.tgz:3970.got - 2010.05.20 12:20:32.
