data_PCOD9588731
_publ_section_title
;
Structure prediction by ZEFSAII (Michael W. Deem and Ramdas Pophale) SiO2 
 PCOD9588731
Probable space group: P 6/M C C
;
_chemical_formula_sum "Si O2"
_cell_formula_units_Z 114
_cell_length_a 20.632596
_cell_length_b 20.632596
_cell_length_c 15.187804
_cell_angle_alpha 90.000000
_cell_angle_beta 90.000000
_cell_angle_gamma 120.000000
_cell_volume 5599.295201
_symmetry_space_group_name_H-M "P 6/M C C"
_symmetry_group_IT_number 192
_symmetry_cell_setting 'hexagonal'
loop_
_space_group_symop_operation_xyz
x,y,z
x-y,x,z
-y,x-y,z
-x,-y,z
-x+y,-x,z
y,-x+y,z
x-y,-y,1/2-z
-x,-x+y,1/2-z
y,x,1/2-z
-y,-x,1/2-z
-x+y,y,1/2-z
x,x-y,1/2-z
-x,-y,-z
-x+y,-x,-z
y,-x+y,-z
x,y,-z
x-y,x,-z
-y,x-y,-z
-x+y,y,1/2+z
x,x-y,1/2+z
-y,-x,1/2+z
y,x,1/2+z
x-y,-y,1/2+z
-x,-x+y,1/2+z
loop_
_atom_site_type_symbol
_atom_site_label
_atom_site_fract_x
_atom_site_fract_y
_atom_site_fract_z
Si Si1 0.569467 0.284734 0.250000
Si Si2 0.810639 0.546766 0.103814
Si Si3 0.098599 0.933757 0.353279
Si Si4 0.382730 0.981462 0.153374
Si Si5 0.500000 0.500000 0.000000
Si Si6 0.092047 0.324383 0.397242
O O1 0.626105 0.252209 0.250000
O O2 0.519807 0.269582 0.163774
O O3 0.894076 0.574239 0.140085
O O4 0.788156 0.610531 0.111360
O O5 0.808679 0.527383 0.000000
O O6 0.076514 0.923487 0.250000
O O7 0.161135 0.910819 0.362356
O O8 0.016847 0.881174 0.392201
O O9 0.418899 0.000000 0.250000
O O10 0.443607 0.001194 0.077227
O O11 0.345005 0.033832 0.145642
O O12 0.072447 0.313157 0.500000
#
# Coordination Sequence:
#
# PCOD9588731 Si02
#       6
#    12  24  24  24   6  24
#     4  10  26  48  68 106 133 178 239 292 362 452
#     4  11  24  46  72 102 145 190 240 303 369 452
#     4  10  22  38  63  98 142 196 249 308 362 431
#     4  12  26  45  75 107 147 193 244 308 378 454
#     4  12  26  52  64 114 140 188 236 300 384 446
#     4  11  24  43  68 104 145 189 240 304 368 442
#
# _framework density 20.359705000000002
#
# number of rings (size 3 to 8) (size 9 to 14) (size 15 to 20)
#    0.211    0.842    2.105    3.053    7.368    7.579 
#    0.000    0.000    0.000    1.263    0.000    0.000 
#    0.000    0.000    0.000    0.000    0.000    0.000 
#
# Total GULP energy -634922.052325 kJ/mol
# GULP energy per Si atom -5569.491687 kJ/mol
# Density = 2.031337 g / cm^3
# Si number density = 20.359705 Si / 1000 Ang^3
#
#
#
# Elastic Constant Matrix: (Units=GPa)
#
#
# Indices 1 2 3 4 5 6 
#
# 1 96.3712 57.6557 74.7090 0.0000 0.0000 0.0000
# 2 57.6557 96.3712 74.7090 0.0000 0.0000 0.0000
# 3 74.7090 74.7090 161.2732 0.0000 0.0000 0.0000
# 4 0.0000 0.0000 0.0000 36.8200 0.0000 0.0000
# 5 0.0000 0.0000 0.0000 0.0000 36.8200 0.0000
# 6 0.0000 0.0000 0.0000 0.0000 0.0000 19.3577
#
#
#
# Elastic Compliance Matrix: (Units=1/GPa)
#
#
# Indices 1 2 3 4 5 6 
#
# 1 0.018810 -0.007019 -0.005462 0.000000 0.000000 0.000000
# 2 -0.007019 0.018810 -0.005462 0.000000 0.000000 0.000000
# 3 -0.005462 -0.005462 0.011261 0.000000 0.000000 0.000000
# 4 0.000000 0.000000 0.000000 0.027159 0.000000 0.000000
# 5 0.000000 0.000000 0.000000 0.000000 0.027159 0.000000
# 6 0.000000 0.000000 0.000000 0.000000 0.000000 0.051659
#
#
# Mechanical properties :
#
#
# Convention : Reuss Voigt Hill
#
# Bulk Modulus (GPa) = 76.95371 85.35147 81.15259
# Shear Modulus (GPa) = 25.63080 28.39566 27.01323
#
# Velocity S-wave (km/s) = 3.55195 3.73862 3.64648
# Velocity P-wave (km/s) = 7.39600 7.78775 7.59441
#
# Compressibility (1/GPa) = 0.01299482
#
# Stress axis : x y z
#
# Youngs Moduli (GPa) = 53.16241 53.16241 88.79964
#
# Poissons Ratio (x) = 0.37316 0.48504
# Poissons Ratio (y) = 0.37316 0.48504
# Poissons Ratio (z) = 0.29038 0.29038
#
# Static dielectric constant tensor:
#      x y z
#    x 1.735040 0.000000 0.000000 
#    y 0.000000 1.735040 0.000000 
#    z 0.000000 0.000000 1.774390 
# 
# From -- ./inp_files/3005.got.cif
#   From: 2010.05.17/outbox.cif.g08.bks.cpg/sg192_2_cif.got.tgz:3005.got - 2010.05.20 12:28:01.
