data_PCOD9588380
_publ_section_title
;
Structure prediction by ZEFSAII (Michael W. Deem and Ramdas Pophale) SiO2 
 PCOD9588380
Probable space group: P 6/M C C
;
_chemical_formula_sum "Si O2"
_cell_formula_units_Z 78
_cell_length_a 19.396448
_cell_length_b 19.396448
_cell_length_c 13.427614
_cell_angle_alpha 90.000000
_cell_angle_beta 90.000000
_cell_angle_gamma 120.000000
_cell_volume 4374.958048
_symmetry_space_group_name_H-M "P 6/M C C"
_symmetry_group_IT_number 192
_symmetry_cell_setting 'hexagonal'
loop_
_space_group_symop_operation_xyz
x,y,z
x-y,x,z
-y,x-y,z
-x,-y,z
-x+y,-x,z
y,-x+y,z
x-y,-y,1/2-z
-x,-x+y,1/2-z
y,x,1/2-z
-y,-x,1/2-z
-x+y,y,1/2-z
x,x-y,1/2-z
-x,-y,-z
-x+y,-x,-z
y,-x+y,-z
x,y,-z
x-y,x,-z
-y,x-y,-z
-x+y,y,1/2+z
x,x-y,1/2+z
-y,-x,1/2+z
y,x,1/2+z
x-y,-y,1/2+z
-x,-x+y,1/2+z
loop_
_atom_site_type_symbol
_atom_site_label
_atom_site_fract_x
_atom_site_fract_y
_atom_site_fract_z
Si Si1 0.614242 0.982091 0.616298
Si Si2 0.183685 0.128054 0.619589
Si Si3 0.753056 0.106016 0.720088
Si Si4 0.500000 0.500000 0.750000
O O1 0.605838 0.968672 0.500000
O O2 0.652826 0.937283 0.674948
O O3 0.678614 0.073677 0.644598
O O4 0.532262 0.958317 0.673397
O O5 0.116867 0.152221 0.643281
O O6 0.196121 0.137225 0.500000
O O7 0.267876 0.185323 0.671858
O O8 0.802269 0.197732 0.750000
#
# Coordination Sequence:
#
# PCOD9588380 Si02
#       4
#    24  24  24   6
#     4  10  20  34  54  75  99 132 162 196 244 297
#     4  10  19  31  46  63  89 134 194 253 295 318
#     4  10  20  32  46  70 102 133 171 217 263 305
#     4   8  18  36  56  78 100 116 148 192 232 290
#
# _framework density 17.828741999999998
#
# number of rings (size 3 to 8) (size 9 to 14) (size 15 to 20)
#    0.000    2.462    0.000    5.385    0.000    6.154 
#    0.000    0.000    0.000    1.846    0.000    0.000 
#   98.462    2.462   29.538    0.000    0.000    0.000 
#
# Total GULP energy -434366.837694 kJ/mol
# GULP energy per Si atom -5568.805611 kJ/mol
# Density = 1.778816 g / cm^3
# Si number density = 17.828742 Si / 1000 Ang^3
#
#
#
# Elastic Constant Matrix: (Units=GPa)
#
#
# Indices 1 2 3 4 5 6 
#
# 1 55.6949 27.8404 33.3804 0.0000 0.0000 0.0000
# 2 27.8404 55.6949 33.3804 0.0000 0.0000 0.0000
# 3 33.3804 33.3804 163.0381 0.0000 0.0000 0.0000
# 4 0.0000 0.0000 0.0000 27.5843 0.0000 0.0000
# 5 0.0000 0.0000 0.0000 0.0000 27.5843 0.0000
# 6 0.0000 0.0000 0.0000 0.0000 0.0000 13.9272
#
#
#
# Elastic Compliance Matrix: (Units=1/GPa)
#
#
# Indices 1 2 3 4 5 6 
#
# 1 0.025107 -0.010794 -0.002930 0.000000 0.000000 0.000000
# 2 -0.010794 0.025107 -0.002930 0.000000 0.000000 0.000000
# 3 -0.002930 -0.002930 0.007333 0.000000 0.000000 0.000000
# 4 0.000000 0.000000 0.000000 0.036252 0.000000 0.000000
# 5 0.000000 0.000000 0.000000 0.000000 0.036252 0.000000
# 6 0.000000 0.000000 0.000000 0.000000 0.000000 0.071802
#
#
# Mechanical properties :
#
#
# Convention : Reuss Voigt Hill
#
# Bulk Modulus (GPa) = 41.25807 51.51448 46.38627
# Shear Modulus (GPa) = 20.55558 25.80762 23.18160
#
# Velocity S-wave (km/s) = 3.39919 3.80877 3.60979
# Velocity P-wave (km/s) = 6.21269 6.94975 6.59153
#
# Compressibility (1/GPa) = 0.02423769
#
# Stress axis : x y z
#
# Youngs Moduli (GPa) = 39.82964 39.82964 136.36079
#
# Poissons Ratio (x) = 0.42992 0.39960
# Poissons Ratio (y) = 0.42992 0.39960
# Poissons Ratio (z) = 0.11672 0.11672
#
# Static dielectric constant tensor:
#      x y z
#    x 1.667350 0.000000 0.000000 
#    y 0.000000 1.667350 0.000000 
#    z 0.000000 0.000000 1.653540 
# 
# From -- ./inp_files/2651.got.cif
#   From: 2010.05.17/outbox.cif.g08.bks.cpg/sg192_2_cif.got.tgz:2651.got - 2010.05.20 12:28:01.
