data_PCOD9588125
_publ_section_title
;
Structure prediction by ZEFSAII (Michael W. Deem and Ramdas Pophale) SiO2 
 PCOD9588125
Probable space group: P 6/M M M
;
_chemical_formula_sum "Si O2"
_cell_formula_units_Z 168
_cell_length_a 22.186237
_cell_length_b 22.186237
_cell_length_c 26.736696
_cell_angle_alpha 90.000000
_cell_angle_beta 90.000000
_cell_angle_gamma 120.000000
_cell_volume 11397.396726
_symmetry_space_group_name_H-M "P 6/M M M"
_symmetry_group_IT_number 191
_symmetry_cell_setting 'hexagonal'
loop_
_space_group_symop_operation_xyz
x,y,z
x-y,x,z
-y,x-y,z
-x,-y,z
-x+y,-x,z
y,-x+y,z
x-y,-y,-z
-x,-x+y,-z
y,x,-z
-y,-x,-z
-x+y,y,-z
x,x-y,-z
-x,-y,-z
-x+y,-x,-z
y,-x+y,-z
x,y,-z
x-y,x,-z
-y,x-y,-z
-x+y,y,z
x,x-y,z
-y,-x,z
y,x,z
x-y,-y,z
-x,-x+y,z
loop_
_atom_site_type_symbol
_atom_site_label
_atom_site_fract_x
_atom_site_fract_y
_atom_site_fract_z
Si Si1 0.644893 0.564317 0.557052
Si Si2 0.807902 0.335027 0.361189
Si Si3 0.785243 0.708412 0.299077
Si Si4 0.477463 0.666539 0.946232
Si Si5 0.705464 0.921667 0.419856
Si Si6 0.148072 0.706005 0.737800
Si Si7 0.521911 0.188049 0.163540
O O1 0.630893 0.538670 0.500000
O O2 0.591048 0.591048 0.570533
O O3 0.645453 0.509740 0.595248
O O4 0.721352 0.633253 0.559530
O O5 0.783944 0.391972 0.359371
O O6 0.742008 0.257993 0.368943
O O7 0.843701 0.334976 0.308704
O O8 0.861052 0.722103 0.284373
O O9 0.769353 0.769353 0.286895
O O10 0.779620 0.698356 0.359299
O O11 0.727178 0.636639 0.274409
O O12 0.471703 0.735852 0.946579
O O13 0.400642 0.599359 0.945935
O O14 0.507967 0.665832 0.891793
O O15 0.510299 0.664987 0.000000
O O16 0.717811 0.858906 0.435287
O O17 0.765095 0.000000 0.433166
O O18 0.220401 0.779600 0.738648
O O19 0.143956 0.670555 0.790635
O O20 0.597188 0.194376 0.168427
O O21 0.530308 0.265154 0.166263
#
# Coordination Sequence:
#
# PCOD9588125 Si02
#       7
#    24  24  24  24  24  24  24
#     4  10  21  36  53  70  85 104 135 177 221 260
#     4  11  22  35  49  65  87 115 145 177 216 265
#     4   9  16  28  47  68  89 112 138 167 201 244
#     4   8  12  17  26  42  66  98 136 177 220 263
#     4   9  16  28  47  69  90 111 136 165 198 238
#     4   9  17  28  42  61  83 109 141 176 211 246
#     4   9  15  22  33  50  75 107 144 185 226 264
#
# _framework density 14.740208000000001
#
# number of rings (size 3 to 8) (size 9 to 14) (size 15 to 20)
#    0.000    2.714    1.429    1.286    0.000    3.429 
#    0.000    2.143    0.000    2.429    0.000    2.000 
#    0.000    0.571    0.000    7.571    0.000    5.429 
#
# Total GULP energy -935243.234117 kJ/mol
# GULP energy per Si atom -5566.924013 kJ/mol
# Density = 1.470666 g / cm^3
# Si number density = 14.740208 Si / 1000 Ang^3
#
#
#
# Elastic Constant Matrix: (Units=GPa)
#
#
# Indices 1 2 3 4 5 6 
#
# 1 47.2431 16.0456 32.6585 0.0000 0.0000 0.0000
# 2 16.0456 47.2431 32.6585 0.0000 0.0000 0.0000
# 3 32.6585 32.6585 103.5146 0.0000 0.0000 0.0000
# 4 0.0000 0.0000 0.0000 11.0149 0.0000 0.0000
# 5 0.0000 0.0000 0.0000 0.0000 11.0149 0.0000
# 6 0.0000 0.0000 0.0000 0.0000 0.0000 15.5988
#
#
#
# Elastic Compliance Matrix: (Units=1/GPa)
#
#
# Indices 1 2 3 4 5 6 
#
# 1 0.027742 -0.004312 -0.007392 0.000000 0.000000 0.000000
# 2 -0.004312 0.027742 -0.007392 0.000000 0.000000 0.000000
# 3 -0.007392 -0.007392 0.014325 0.000000 0.000000 0.000000
# 4 0.000000 0.000000 0.000000 0.090786 0.000000 0.000000
# 5 0.000000 0.000000 0.000000 0.000000 0.090786 0.000000
# 6 0.000000 0.000000 0.000000 0.000000 0.000000 0.064108
#
#
# Mechanical properties :
#
#
# Convention : Reuss Voigt Hill
#
# Bulk Modulus (GPa) = 31.62960 40.08064 35.85512
# Shear Modulus (GPa) = 13.72802 15.30160 14.51481
#
# Velocity S-wave (km/s) = 3.05508 3.22543 3.14141
# Velocity P-wave (km/s) = 5.82661 6.41261 6.12662
#
# Compressibility (1/GPa) = 0.03161595
#
# Stress axis : x y z
#
# Youngs Moduli (GPa) = 36.04696 36.04696 69.80955
#
# Poissons Ratio (x) = 0.15544 0.51602
# Poissons Ratio (y) = 0.15544 0.51602
# Poissons Ratio (z) = 0.26645 0.26645
#
# Static dielectric constant tensor:
#      x y z
#    x 1.478250 0.000000 0.000000 
#    y 0.000000 1.478250 0.000000 
#    z 0.000000 0.000000 1.530170 
# 
# From -- ./inp_files/10060.got.cif
#   From: 2010.05.17/outbox.cif.g08.bks.cpg/sg191_6_cif.got.tgz:10060.got - 2010.05.20 12:20:32.
