data_PCOD9588342
_publ_section_title
;
Structure prediction by ZEFSAII (Michael W. Deem and Ramdas Pophale) SiO2 
 PCOD9588342
Probable space group: P 6/M C C
;
_chemical_formula_sum "Si O2"
_cell_formula_units_Z 90
_cell_length_a 24.303165
_cell_length_b 24.303165
_cell_length_c 9.064044
_cell_angle_alpha 90.000000
_cell_angle_beta 90.000000
_cell_angle_gamma 120.000000
_cell_volume 4636.372355
_symmetry_space_group_name_H-M "P 6/M C C"
_symmetry_group_IT_number 192
_symmetry_cell_setting 'hexagonal'
loop_
_space_group_symop_operation_xyz
x,y,z
x-y,x,z
-y,x-y,z
-x,-y,z
-x+y,-x,z
y,-x+y,z
x-y,-y,1/2-z
-x,-x+y,1/2-z
y,x,1/2-z
-y,-x,1/2-z
-x+y,y,1/2-z
x,x-y,1/2-z
-x,-y,-z
-x+y,-x,-z
y,-x+y,-z
x,y,-z
x-y,x,-z
-y,x-y,-z
-x+y,y,1/2+z
x,x-y,1/2+z
-y,-x,1/2+z
y,x,1/2+z
x-y,-y,1/2+z
-x,-x+y,1/2+z
loop_
_atom_site_type_symbol
_atom_site_label
_atom_site_fract_x
_atom_site_fract_y
_atom_site_fract_z
Si Si1 0.226178 0.790089 0.000000
Si Si2 0.663327 0.663327 0.250000
Si Si3 0.920188 0.273168 0.500000
Si Si4 0.629160 0.195259 0.500000
Si Si5 0.426196 0.335522 0.500000
Si Si6 0.000000 0.500000 0.750000
Si Si7 0.492065 0.402063 0.000000
Si Si8 0.265116 0.530232 0.250000
O O1 0.154719 0.732121 0.000000
O O2 0.265355 0.785854 0.137651
O O3 0.217907 0.850053 0.000000
O O4 0.721202 0.678998 0.355251
O O5 0.606254 0.653243 0.358251
O O6 0.912775 0.336962 0.500000
O O7 0.624789 0.126610 0.500000
O O8 0.552812 0.163241 0.500000
O O9 0.671386 0.237597 0.356648
O O10 0.048499 0.491607 0.858824
#
# Coordination Sequence:
#
# PCOD9588342 Si02
#       8
#    12  12  12  12  12   6  12  12
#     4  10  18  33  52  70  95 128 169 207 235 300
#     4  10  21  32  49  72 108 134 156 202 258 305
#     4  11  21  33  50  72 103 137 170 207 257 311
#     4  10  20  35  52  72 101 127 166 207 254 314
#     4   9  20  33  49  73  99 131 163 197 253 303
#     4  10  26  38  44  78 116 152 164 210 256 358
#     4  11  25  34  52  72 113 141 173 201 272 329
#     4   8  18  34  50  70  90 117 162 212 248 291
#
# _framework density 19.411728
#
# number of rings (size 3 to 8) (size 9 to 14) (size 15 to 20)
#    0.000    2.400    0.000    4.000   14.933    0.000 
#    0.000    0.000    0.000    0.000    0.000    0.000 
#  108.000    0.000    0.000    0.000    0.000    0.000 
#
# Total GULP energy -501395.187819 kJ/mol
# GULP energy per Si atom -5571.057642 kJ/mol
# Density = 1.936755 g / cm^3
# Si number density = 19.411728 Si / 1000 Ang^3
#
#
#
# Elastic Constant Matrix: (Units=GPa)
#
#
# Indices 1 2 3 4 5 6 
#
# 1 66.0836 24.6481 26.0723 0.0000 0.0000 0.0000
# 2 24.6481 66.0836 26.0723 0.0000 0.0000 0.0000
# 3 26.0723 26.0723 146.7044 0.0000 0.0000 0.0000
# 4 0.0000 0.0000 0.0000 -7.3000 0.0000 0.0000
# 5 0.0000 0.0000 0.0000 0.0000 -7.3000 0.0000
# 6 0.0000 0.0000 0.0000 0.0000 0.0000 20.7178
#
#
#
# Elastic Compliance Matrix: (Units=1/GPa)
#
#
# Indices 1 2 3 4 5 6 
#
# 1 0.018205 -0.005929 -0.002182 0.000000 0.000000 0.000000
# 2 -0.005929 0.018205 -0.002182 0.000000 0.000000 0.000000
# 3 -0.002182 -0.002182 0.007592 0.000000 0.000000 0.000000
# 4 0.000000 0.000000 0.000000 -0.136986 0.000000 0.000000
# 5 0.000000 0.000000 0.000000 0.000000 -0.136986 0.000000
# 6 0.000000 0.000000 0.000000 0.000000 0.000000 0.048268
#
#
# Mechanical properties :
#
#
# Convention : Reuss Voigt Hill
#
# Bulk Modulus (GPa) = 42.70557 48.05078 45.37817
# Shear Modulus (GPa) = -32.61298 14.69548 -8.95875
#
# Velocity S-wave (km/s) = -4.10331 2.75442 -2.15061
# Velocity P-wave (km/s) = 0.63393 5.90957 4.15458
#
# Compressibility (1/GPa) = 0.02341615
#
# Stress axis : x y z
#
# Youngs Moduli (GPa) = 54.93127 54.93127 131.72031
#
# Poissons Ratio (x) = 0.32570 0.28736
# Poissons Ratio (y) = 0.32570 0.28736
# Poissons Ratio (z) = 0.11984 0.11984
#
# Static dielectric constant tensor:
#      x y z
#    x 1.747310 0.000000 0.000000 
#    y 0.000000 1.747310 0.000000 
#    z 0.000000 0.000000 1.899210 
# 
# From -- ./inp_files/869.got.cif
#   From: 2010.05.17/outbox.cif.g08.bks.cpg/sg192_1_cif.got.tgz:869.got - 2010.05.20 12:28:01.
