data_PCOD9588915
_publ_section_title
;
Structure prediction by ZEFSAII (Michael W. Deem and Ramdas Pophale) SiO2 
 PCOD9588915
Probable space group: P 63/M C M
;
_chemical_formula_sum "Si O2"
_cell_formula_units_Z 192
_cell_length_a 25.752388
_cell_length_b 25.752388
_cell_length_c 18.721755
_cell_angle_alpha 90.000000
_cell_angle_beta 90.000000
_cell_angle_gamma 120.000000
_cell_volume 10752.568140
_symmetry_space_group_name_H-M "P 63/M C M"
_symmetry_group_IT_number 193
_symmetry_cell_setting 'hexagonal'
loop_
_space_group_symop_operation_xyz
x,y,z
x-y,x,1/2+z
-y,x-y,z
-x,-y,1/2+z
-x+y,-x,z
y,-x+y,1/2+z
x-y,-y,1/2-z
-x,-x+y,1/2-z
y,x,1/2-z
-y,-x,-z
-x+y,y,-z
x,x-y,-z
-x,-y,-z
-x+y,-x,1/2-z
y,-x+y,-z
x,y,1/2-z
x-y,x,-z
-y,x-y,1/2-z
-x+y,y,1/2+z
x,x-y,1/2+z
-y,-x,1/2+z
y,x,z
x-y,-y,z
-x,-x+y,z
loop_
_atom_site_type_symbol
_atom_site_label
_atom_site_fract_x
_atom_site_fract_y
_atom_site_fract_z
Si Si1 0.379057 0.272885 0.665558
Si Si2 0.069235 0.811701 0.418145
Si Si3 0.437039 0.610108 0.070003
Si Si4 0.634490 0.567514 0.044959
Si Si5 0.695701 0.624745 0.599763
Si Si6 0.225703 0.501005 0.332965
Si Si7 0.651047 0.497146 0.832873
Si Si8 0.253245 0.184256 0.909316
O O1 0.373032 0.279661 0.750000
O O2 0.405555 0.334121 0.620659
O O3 0.431050 0.255382 0.655257
O O4 0.315475 0.226778 0.631102
O O5 0.088840 0.764638 0.390256
O O6 0.115975 0.879223 0.395070
O O7 0.070125 0.808030 0.504754
O O8 0.000000 0.786665 0.397434
O O9 0.498512 0.614876 0.042626
O O10 0.457760 0.669814 0.115755
O O11 0.401935 0.552126 0.119552
O O12 0.397896 0.602105 0.000000
O O13 0.580854 0.580854 0.033436
O O14 0.682780 0.603117 0.982763
O O15 0.657113 0.657113 0.614350
O O16 0.672052 0.565067 0.645403
O O17 0.219609 0.514135 0.250000
O O18 0.291066 0.510368 0.344215
O O19 0.634330 0.487484 0.750000
O O20 0.205645 0.205645 0.890327
#
# Coordination Sequence:
#
# PCOD9588915 Si02
#       8
#    24  24  24  24  24  24  24  24
#     4  10  19  33  54  82 113 140 173 222 277 330
#     4   9  18  32  51  76 108 148 188 227 275 328
#     4  11  22  38  57  84 106 139 182 233 271 319
#     4  10  20  35  54  79 113 146 175 211 267 328
#     4  10  19  35  58  83 112 145 182 225 273 330
#     4   9  21  40  58  78 109 144 177 223 285 339
#     4  11  23  40  60  81 108 143 183 226 279 335
#     4  10  18  29  49  80 111 141 183 231 275 323
#
# _framework density 17.856200000000001
#
# number of rings (size 3 to 8) (size 9 to 14) (size 15 to 20)
#    0.000    2.000    2.500    1.500    0.000    3.000 
#    0.750    0.000    0.000    1.375    0.000    1.750 
#    0.000    0.000    0.000    0.000    0.000    0.125 
#
# Total GULP energy -1071169.775911 kJ/mol
# GULP energy per Si atom -5579.009250 kJ/mol
# Density = 1.781556 g / cm^3
# Si number density = 17.856200 Si / 1000 Ang^3
#
#
#
# Elastic Constant Matrix: (Units=GPa)
#
#
# Indices 1 2 3 4 5 6 
#
# 1 79.1803 52.4766 35.7666 0.0000 0.0000 0.0000
# 2 52.4766 79.1803 35.7666 0.0000 0.0000 0.0000
# 3 35.7666 35.7666 53.0690 0.0000 0.0000 0.0000
# 4 0.0000 0.0000 0.0000 19.6377 0.0000 0.0000
# 5 0.0000 0.0000 0.0000 0.0000 19.6377 0.0000
# 6 0.0000 0.0000 0.0000 0.0000 0.0000 13.3519
#
#
#
# Elastic Compliance Matrix: (Units=1/GPa)
#
#
# Indices 1 2 3 4 5 6 
#
# 1 0.024716 -0.012732 -0.008077 0.000000 0.000000 0.000000
# 2 -0.012732 0.024716 -0.008077 0.000000 0.000000 0.000000
# 3 -0.008077 -0.008077 0.029730 0.000000 0.000000 0.000000
# 4 0.000000 0.000000 0.000000 0.050922 0.000000 0.000000
# 5 0.000000 0.000000 0.000000 0.000000 0.050922 0.000000
# 6 0.000000 0.000000 0.000000 0.000000 0.000000 0.074896
#
#
# Mechanical properties :
#
#
# Convention : Reuss Voigt Hill
#
# Bulk Modulus (GPa) = 46.74832 51.04989 48.89910
# Shear Modulus (GPa) = 15.58584 16.35344 15.96964
#
# Velocity S-wave (km/s) = 2.95761 3.02957 2.99381
# Velocity P-wave (km/s) = 6.15635 6.39447 6.27654
#
# Compressibility (1/GPa) = 0.02139114
#
# Stress axis : x y z
#
# Youngs Moduli (GPa) = 40.45981 40.45981 33.63590
#
# Poissons Ratio (x) = 0.51514 0.27167
# Poissons Ratio (y) = 0.51514 0.27167
# Poissons Ratio (z) = 0.32678 0.32678
#
# Static dielectric constant tensor:
#      x y z
#    x 1.605310 0.000000 0.000000 
#    y 0.000000 1.605310 0.000000 
#    z 0.000000 0.000000 1.612330 
# 
# From -- ./inp_files/6891.got.cif
#   From: 2010.05.17/outbox.cif.g08.bks.cpg/sg193_4_cif.got.tgz:6891.got - 2010.05.20 12:33:02.
