data_PCOD9588888
_publ_section_title
;
Structure prediction by ZEFSAII (Michael W. Deem and Ramdas Pophale) SiO2 
 PCOD9588888
Probable space group: P 63/M C M
;
_chemical_formula_sum "Si O2"
_cell_formula_units_Z 144
_cell_length_a 22.529619
_cell_length_b 22.529619
_cell_length_c 19.156774
_cell_angle_alpha 90.000000
_cell_angle_beta 90.000000
_cell_angle_gamma 120.000000
_cell_volume 8420.942506
_symmetry_space_group_name_H-M "P 63/M C M"
_symmetry_group_IT_number 193
_symmetry_cell_setting 'hexagonal'
loop_
_space_group_symop_operation_xyz
x,y,z
x-y,x,1/2+z
-y,x-y,z
-x,-y,1/2+z
-x+y,-x,z
y,-x+y,1/2+z
x-y,-y,1/2-z
-x,-x+y,1/2-z
y,x,1/2-z
-y,-x,-z
-x+y,y,-z
x,x-y,-z
-x,-y,-z
-x+y,-x,1/2-z
y,-x+y,-z
x,y,1/2-z
x-y,x,-z
-y,x-y,1/2-z
-x+y,y,1/2+z
x,x-y,1/2+z
-y,-x,1/2+z
y,x,z
x-y,-y,z
-x,-x+y,z
loop_
_atom_site_type_symbol
_atom_site_label
_atom_site_fract_x
_atom_site_fract_y
_atom_site_fract_z
Si Si1 0.916901 0.445174 0.830557
Si Si2 0.590151 0.919162 0.403377
Si Si3 0.287734 0.204942 0.331702
Si Si4 0.581103 0.663685 0.167608
Si Si5 0.076693 0.223239 0.065733
Si Si6 0.624418 0.750184 0.036074
O O1 0.680710 0.094412 0.750000
O O2 0.890555 0.377063 0.875939
O O3 0.897130 0.502667 0.848080
O O4 0.000000 0.487577 0.834237
O O5 0.637686 0.894010 0.365018
O O6 0.593730 0.908421 0.485300
O O7 0.629188 0.000000 0.388187
O O8 0.294166 0.193664 0.250000
O O9 0.243394 0.243394 0.337778
O O10 0.249312 0.134880 0.375261
O O11 0.424769 0.526005 0.250000
O O12 0.629331 0.629331 0.156132
O O13 0.603038 0.726066 0.114942
O O14 0.082960 0.293073 0.034631
O O15 0.000000 0.174400 0.091376
O O16 0.095747 0.191494 0.000000
O O17 0.603885 0.801943 0.000000
#
# Coordination Sequence:
#
# PCOD9588888 Si02
#       6
#    24  24  24  24  24  24
#     4   8  15  28  48  75 105 136 166 196 241 306
#     4  10  17  30  51  75 106 137 165 206 259 315
#     4  10  20  34  53  76 101 131 169 218 276 332
#     4   9  18  33  51  73 105 141 175 214 262 316
#     4  11  21  35  53  72  99 137 179 221 267 324
#     4  11  21  33  47  71 105 143 177 216 264 315
#
# _framework density 17.100224999999998
#
# number of rings (size 3 to 8) (size 9 to 14) (size 15 to 20)
#    0.000    2.167    3.333    3.500    0.000    3.667 
#    0.000    2.500    0.000    3.000    0.000    0.000 
#    6.667    0.000    0.000    0.000    0.000    0.000 
#
# Total GULP energy -802392.568150 kJ/mol
# GULP energy per Si atom -5572.170612 kJ/mol
# Density = 1.706130 g / cm^3
# Si number density = 17.100225 Si / 1000 Ang^3
#
#
#
# Elastic Constant Matrix: (Units=GPa)
#
#
# Indices 1 2 3 4 5 6 
#
# 1 57.3387 20.4083 33.4291 0.0000 0.0000 0.0000
# 2 20.4083 57.3387 33.4291 0.0000 0.0000 0.0000
# 3 33.4291 33.4291 89.7813 0.0000 0.0000 0.0000
# 4 0.0000 0.0000 0.0000 29.0073 0.0000 0.0000
# 5 0.0000 0.0000 0.0000 0.0000 29.0073 0.0000
# 6 0.0000 0.0000 0.0000 0.0000 0.0000 18.4652
#
#
#
# Elastic Compliance Matrix: (Units=1/GPa)
#
#
# Indices 1 2 3 4 5 6 
#
# 1 0.022999 -0.004079 -0.007045 0.000000 0.000000 0.000000
# 2 -0.004079 0.022999 -0.007045 0.000000 0.000000 0.000000
# 3 -0.007045 -0.007045 0.016384 0.000000 0.000000 0.000000
# 4 0.000000 0.000000 0.000000 0.034474 0.000000 0.000000
# 5 0.000000 0.000000 0.000000 0.000000 0.034474 0.000000
# 6 0.000000 0.000000 0.000000 0.000000 0.000000 0.054156
#
#
# Mechanical properties :
#
#
# Convention : Reuss Voigt Hill
#
# Bulk Modulus (GPa) = 38.39385 42.11019 40.25202
# Shear Modulus (GPa) = 21.69146 23.10877 22.40011
#
# Velocity S-wave (km/s) = 3.56545 3.68009 3.62322
# Velocity P-wave (km/s) = 6.28100 6.53731 6.41043
#
# Compressibility (1/GPa) = 0.02604584
#
# Stress axis : x y z
#
# Youngs Moduli (GPa) = 43.47986 43.47986 61.03410
#
# Poissons Ratio (x) = 0.17735 0.42997
# Poissons Ratio (y) = 0.17735 0.42997
# Poissons Ratio (z) = 0.30631 0.30631
#
# Static dielectric constant tensor:
#      x y z
#    x 1.595100 0.000000 0.000000 
#    y 0.000000 1.595100 0.000000 
#    z 0.000000 0.000000 1.601070 
# 
# From -- ./inp_files/6604.got.cif
#   From: 2010.05.17/outbox.cif.g08.bks.cpg/sg193_4_cif.got.tgz:6604.got - 2010.05.20 12:33:02.
