data_PCOD9588964
_publ_section_title
;
Structure prediction by ZEFSAII (Michael W. Deem and Ramdas Pophale) SiO2 
 PCOD9588964
Probable space group: P 63/M C M
;
_chemical_formula_sum "Si O2"
_cell_formula_units_Z 152
_cell_length_a 26.051155
_cell_length_b 26.051155
_cell_length_c 14.348972
_cell_angle_alpha 90.000000
_cell_angle_beta 90.000000
_cell_angle_gamma 120.000000
_cell_volume 8433.452158
_symmetry_space_group_name_H-M "P 63/M C M"
_symmetry_group_IT_number 193
_symmetry_cell_setting 'hexagonal'
loop_
_space_group_symop_operation_xyz
x,y,z
x-y,x,1/2+z
-y,x-y,z
-x,-y,1/2+z
-x+y,-x,z
y,-x+y,1/2+z
x-y,-y,1/2-z
-x,-x+y,1/2-z
y,x,1/2-z
-y,-x,-z
-x+y,y,-z
x,x-y,-z
-x,-y,-z
-x+y,-x,1/2-z
y,-x+y,-z
x,y,1/2-z
x-y,x,-z
-y,x-y,1/2-z
-x+y,y,1/2+z
x,x-y,1/2+z
-y,-x,1/2+z
y,x,z
x-y,-y,z
-x,-x+y,z
loop_
_atom_site_type_symbol
_atom_site_label
_atom_site_fract_x
_atom_site_fract_y
_atom_site_fract_z
Si Si1 0.598549 0.929789 0.643510
Si Si2 0.333334 0.666667 0.390584
Si Si3 0.067830 0.289237 0.441193
Si Si4 0.142775 0.513008 0.019404
Si Si5 0.454726 0.699052 0.152080
Si Si6 0.182842 0.437757 0.909082
Si Si7 0.813820 0.116852 0.143586
O O1 0.598124 0.910054 0.750000
O O2 0.644804 0.920105 0.582158
O O3 0.534495 0.896988 0.597438
O O4 0.624372 0.000000 0.644532
O O5 0.333334 0.666667 0.500000
O O6 0.309763 0.600765 0.354926
O O7 0.074750 0.282261 0.551969
O O8 0.118705 0.285118 0.383718
O O9 0.000000 0.244325 0.412278
O O10 0.208182 0.547867 0.064447
O O11 0.123996 0.561998 0.000000
O O12 0.147633 0.472033 0.938468
O O13 0.451026 0.668408 0.250000
O O14 0.515189 0.760338 0.147509
O O15 0.145977 0.374486 0.861038
O O16 0.213378 0.426756 0.000000
O O17 0.811365 0.095073 0.250000
#
# Coordination Sequence:
#
# PCOD9588964 Si02
#       7
#    24   8  24  24  24  24  24
#     4  10  20  36  58  78  98 132 180 230 279 335
#     4  12  22  35  43  60  88 125 157 195 259 329
#     4  10  20  36  57  85 116 150 192 239 285 335
#     4  11  21  34  52  73 100 130 167 222 286 341
#     4  11  21  32  48  67  91 121 160 206 252 319
#     4  10  18  33  51  75 101 134 172 217 274 333
#     4  11  20  34  56  85 117 151 188 231 282 337
#
# _framework density 18.023463
#
# number of rings (size 3 to 8) (size 9 to 14) (size 15 to 20)
#    0.000    1.421    3.158    5.684    0.000    1.579 
#    0.000    2.368    0.000    0.000    0.000    0.000 
#    0.000    0.000    0.000   15.158    0.000   32.842 
#
# Total GULP energy -847614.759388 kJ/mol
# GULP energy per Si atom -5576.412891 kJ/mol
# Density = 1.798244 g / cm^3
# Si number density = 18.023463 Si / 1000 Ang^3
#
#
#
# Elastic Constant Matrix: (Units=GPa)
#
#
# Indices 1 2 3 4 5 6 
#
# 1 57.4245 19.7916 14.3432 0.0000 0.0000 0.0001
# 2 19.7916 57.4246 14.3431 -0.0001 0.0000 0.0000
# 3 14.3432 14.3431 101.7662 0.0001 0.0000 0.0000
# 4 0.0000 -0.0001 0.0001 11.8205 -0.0001 0.0000
# 5 0.0000 0.0000 0.0000 -0.0001 11.8203 0.0000
# 6 0.0001 0.0000 0.0000 0.0000 0.0000 18.8166
#
#
#
# Elastic Compliance Matrix: (Units=1/GPa)
#
#
# Indices 1 2 3 4 5 6 
#
# 1 0.020119 -0.006453 -0.001926 0.000000 0.000000 0.000000
# 2 -0.006453 0.020119 -0.001926 0.000000 0.000000 0.000000
# 3 -0.001926 -0.001926 0.010369 0.000000 0.000000 0.000000
# 4 0.000000 0.000000 0.000000 0.084599 0.000000 0.000000
# 5 0.000000 0.000000 0.000000 0.000000 0.084601 0.000000
# 6 0.000000 0.000000 0.000000 0.000000 0.000000 0.053145
#
#
# Mechanical properties :
#
#
# Convention : Reuss Voigt Hill
#
# Bulk Modulus (GPa) = 33.33635 34.84123 34.08879
# Shear Modulus (GPa) = 16.47108 19.70061 18.08585
#
# Velocity S-wave (km/s) = 3.02631 3.30972 3.17118
# Velocity P-wave (km/s) = 5.54505 5.82912 5.68886
#
# Compressibility (1/GPa) = 0.02999729
#
# Stress axis : x y z
#
# Youngs Moduli (GPa) = 49.70332 49.70344 96.43763
#
# Poissons Ratio (x) = 0.32074 0.18576
# Poissons Ratio (y) = 0.32074 0.18575
# Poissons Ratio (z) = 0.09574 0.09574
#
# Static dielectric constant tensor:
#      x y z
#    x 1.623400 0.000000 0.000000 
#    y 0.000000 1.623400 0.000000 
#    z 0.000000 0.000000 1.680030 
# 
# From -- ./inp_files/4301.got.cif
#   From: 2010.05.17/outbox.cif.g08.bks.cpg/sg193_3_cif.got.tgz:4301.got - 2010.05.20 12:33:02.
