data_PCOD9588406
_publ_section_title
;
Structure prediction by ZEFSAII (Michael W. Deem and Ramdas Pophale) SiO2 
 PCOD9588406
Probable space group: P 6/M C C
;
_chemical_formula_sum "Si O2"
_cell_formula_units_Z 192
_cell_length_a 24.666080
_cell_length_b 24.666080
_cell_length_c 20.426951
_cell_angle_alpha 90.000000
_cell_angle_beta 90.000000
_cell_angle_gamma 120.000000
_cell_volume 10763.027508
_symmetry_space_group_name_H-M "P 6/M C C"
_symmetry_group_IT_number 192
_symmetry_cell_setting 'hexagonal'
loop_
_space_group_symop_operation_xyz
x,y,z
x-y,x,z
-y,x-y,z
-x,-y,z
-x+y,-x,z
y,-x+y,z
x-y,-y,1/2-z
-x,-x+y,1/2-z
y,x,1/2-z
-y,-x,1/2-z
-x+y,y,1/2-z
x,x-y,1/2-z
-x,-y,-z
-x+y,-x,-z
y,-x+y,-z
x,y,-z
x-y,x,-z
-y,x-y,-z
-x+y,y,1/2+z
x,x-y,1/2+z
-y,-x,1/2+z
y,x,1/2+z
x-y,-y,1/2+z
-x,-x+y,1/2+z
loop_
_atom_site_type_symbol
_atom_site_label
_atom_site_fract_x
_atom_site_fract_y
_atom_site_fract_z
Si Si1 0.069693 0.690128 0.607476
Si Si2 0.566824 0.037668 0.817431
Si Si3 0.831127 0.329092 0.075357
Si Si4 0.070665 0.263862 0.669244
Si Si5 0.291791 0.360021 0.928194
Si Si6 0.497685 0.201553 0.426759
Si Si7 0.265935 0.071621 0.674220
Si Si8 0.420724 0.601364 0.177016
O O1 0.043879 0.628999 0.652826
O O2 0.133388 0.698202 0.577122
O O3 0.085640 0.754091 0.643591
O O4 0.006602 0.671363 0.567877
O O5 0.582240 0.108564 0.811159
O O6 0.500000 0.000000 0.855108
O O7 0.553805 0.000000 0.750000
O O8 0.896341 0.330286 0.086156
O O9 0.775040 0.257352 0.079442
O O10 0.819666 0.368484 0.130131
O O11 0.831258 0.350498 0.000000
O O12 0.082871 0.324303 0.628160
O O13 0.124785 0.248085 0.653715
O O14 0.073997 0.274595 0.747289
O O15 0.998773 0.212192 0.655467
O O16 0.262042 0.353592 0.000000
O O17 0.525315 0.207074 0.500000
O O18 0.544342 0.207939 0.368012
O O19 0.396036 0.603965 0.250000
#
# Coordination Sequence:
#
# PCOD9588406 Si02
#       8
#    24  24  24  24  24  24  24  24
#     4  10  20  31  56  82 111 143 187 220 268 331
#     4  10  19  32  50  78 109 147 172 212 278 325
#     4  10  22  40  59  80 110 148 183 225 280 333
#     4   9  18  32  50  73 110 138 187 222 279 328
#     4  10  20  32  52  81 113 148 178 218 266 327
#     4  10  22  40  58  80 112 147 183 224 280 335
#     4   9  18  32  51  79 102 146 178 235 275 324
#     4  11  22  37  59  84 106 136 186 234 273 326
#
# _framework density 17.838847000000001
#
# number of rings (size 3 to 8) (size 9 to 14) (size 15 to 20)
#    0.000    2.125    1.250    2.250    3.500    1.500 
#    0.750    2.500    0.000    6.250    0.000    1.750 
#    0.000    0.000    0.000    4.500    0.000    3.500 
#
# Total GULP energy -1069218.960371 kJ/mol
# GULP energy per Si atom -5568.848752 kJ/mol
# Density = 1.779825 g / cm^3
# Si number density = 17.838847 Si / 1000 Ang^3
#
#
#
# Elastic Constant Matrix: (Units=GPa)
#
#
# Indices 1 2 3 4 5 6 
#
# 1 72.8792 31.3188 37.6682 0.0000 0.0000 0.0000
# 2 31.3188 72.8792 37.6682 0.0000 0.0000 0.0000
# 3 37.6682 37.6682 78.8490 0.0000 0.0000 0.0000
# 4 0.0000 0.0000 0.0000 20.3536 0.0000 0.0000
# 5 0.0000 0.0000 0.0000 0.0000 20.3536 0.0000
# 6 0.0000 0.0000 0.0000 0.0000 0.0000 20.7802
#
#
#
# Elastic Compliance Matrix: (Units=1/GPa)
#
#
# Indices 1 2 3 4 5 6 
#
# 1 0.019361 -0.004700 -0.007004 0.000000 0.000000 0.000000
# 2 -0.004700 0.019361 -0.007004 0.000000 0.000000 0.000000
# 3 -0.007004 -0.007004 0.019374 0.000000 0.000000 0.000000
# 4 0.000000 0.000000 0.000000 0.049131 0.000000 0.000000
# 5 0.000000 0.000000 0.000000 0.000000 0.049131 0.000000
# 6 0.000000 0.000000 0.000000 0.000000 0.000000 0.048123
#
#
# Mechanical properties :
#
#
# Convention : Reuss Voigt Hill
#
# Bulk Modulus (GPa) = 48.35432 48.65754 48.50593
# Shear Modulus (GPa) = 20.09712 20.16098 20.12905
#
# Velocity S-wave (km/s) = 3.36012 3.36545 3.36279
# Velocity P-wave (km/s) = 6.49761 6.51437 6.50600
#
# Compressibility (1/GPa) = 0.02068067
#
# Stress axis : x y z
#
# Youngs Moduli (GPa) = 51.64969 51.64969 51.61448
#
# Poissons Ratio (x) = 0.24276 0.36151
# Poissons Ratio (y) = 0.24276 0.36151
# Poissons Ratio (z) = 0.36175 0.36175
#
# Static dielectric constant tensor:
#      x y z
#    x 1.605140 0.000000 0.000000 
#    y 0.000000 1.605140 0.000000 
#    z 0.000000 0.000000 1.647520 
# 
# From -- ./inp_files/5432.got.cif
#   From: 2010.05.17/outbox.cif.g08.bks.cpg/sg192_3_cif.got.tgz:5432.got - 2010.05.20 12:28:01.
