data_PCOD9588253
_publ_section_title
;
Structure prediction by ZEFSAII (Michael W. Deem and Ramdas Pophale) SiO2 
 PCOD9588253
Probable space group: P 6/M M M
;
_chemical_formula_sum "Si O2"
_cell_formula_units_Z 144
_cell_length_a 33.674570
_cell_length_b 33.674570
_cell_length_c 7.672493
_cell_angle_alpha 90.000000
_cell_angle_beta 90.000000
_cell_angle_gamma 120.000000
_cell_volume 7534.791691
_symmetry_space_group_name_H-M "P 6/M M M"
_symmetry_group_IT_number 191
_symmetry_cell_setting 'hexagonal'
loop_
_space_group_symop_operation_xyz
x,y,z
x-y,x,z
-y,x-y,z
-x,-y,z
-x+y,-x,z
y,-x+y,z
x-y,-y,-z
-x,-x+y,-z
y,x,-z
-y,-x,-z
-x+y,y,-z
x,x-y,-z
-x,-y,-z
-x+y,-x,-z
y,-x+y,-z
x,y,-z
x-y,x,-z
-y,x-y,-z
-x+y,y,z
x,x-y,z
-y,-x,z
y,x,z
x-y,-y,z
-x,-x+y,z
loop_
_atom_site_type_symbol
_atom_site_label
_atom_site_fract_x
_atom_site_fract_y
_atom_site_fract_z
Si Si1 0.526793 0.807926 0.208962
Si Si2 0.384273 0.857644 0.290142
Si Si3 0.611717 0.561441 0.292789
Si Si4 0.703634 0.806434 0.210394
Si Si5 0.615961 0.715169 0.211109
Si Si6 0.140424 0.949027 0.708386
O O1 0.520048 0.760024 0.276266
O O2 0.486926 0.819394 0.248111
O O3 0.574469 0.851385 0.271811
O O4 0.530586 0.807544 0.000000
O O5 0.387203 0.860699 0.500000
O O6 0.424556 0.849112 0.226506
O O7 0.391415 0.906387 0.222809
O O8 0.603636 0.554744 0.500000
O O9 0.577081 0.577081 0.220698
O O10 0.664032 0.601761 0.266629
O O11 0.694448 0.847224 0.269760
O O12 0.664407 0.756786 0.272068
O O13 0.755441 0.822066 0.261216
O O14 0.701808 0.805908 0.000000
O O15 0.616173 0.715639 0.000000
O O16 0.135334 0.950496 0.500000
O O17 0.092127 0.907874 0.778226
O O18 0.158557 0.000000 0.778269
#
# Coordination Sequence:
#
# PCOD9588253 Si02
#       6
#    24  24  24  24  24  24
#     4   9  17  30  49  71  93 118 148 182 223 270
#     4   9  18  32  49  69  92 118 150 188 228 269
#     4   9  18  31  45  63  89 121 156 191 225 261
#     4   9  17  29  45  65  89 117 149 182 214 253
#     4   9  17  29  45  65  91 122 153 185 220 258
#     4   9  18  32  48  65  86 113 144 178 218 263
#
# _framework density 19.111343000000002
#
# number of rings (size 3 to 8) (size 9 to 14) (size 15 to 20)
#    0.000    3.000    0.000    0.500    0.000    5.000 
#    0.000    5.000    0.000    3.500    0.000    5.833 
#    0.000    0.000    0.000    4.167    0.000    4.333 
#
# Total GULP energy -802858.539163 kJ/mol
# GULP energy per Si atom -5575.406522 kJ/mol
# Density = 1.906785 g / cm^3
# Si number density = 19.111343 Si / 1000 Ang^3
#
#
#
# Elastic Constant Matrix: (Units=GPa)
#
#
# Indices 1 2 3 4 5 6 
#
# 1 93.9768 70.0274 -1.0601 0.0000 0.0000 0.0000
# 2 70.0274 93.9768 -1.0601 0.0000 0.0000 0.0000
# 3 -1.0601 -1.0601 32.6171 0.0000 0.0000 0.0000
# 4 0.0000 0.0000 0.0000 123.8535 0.0000 0.0000
# 5 0.0000 0.0000 0.0000 0.0000 123.8535 0.0000
# 6 0.0000 0.0000 0.0000 0.0000 0.0000 11.9747
#
#
#
# Elastic Compliance Matrix: (Units=1/GPa)
#
#
# Indices 1 2 3 4 5 6 
#
# 1 0.023927 -0.017827 0.000198 0.000000 0.000000 0.000000
# 2 -0.017827 0.023927 0.000198 0.000000 0.000000 0.000000
# 3 0.000198 0.000198 0.030672 0.000000 0.000000 0.000000
# 4 0.000000 0.000000 0.000000 0.008074 0.000000 0.000000
# 5 0.000000 0.000000 0.000000 0.000000 0.008074 0.000000
# 6 0.000000 0.000000 0.000000 0.000000 0.000000 0.083509
#
#
# Mechanical properties :
#
#
# Convention : Reuss Voigt Hill
#
# Bulk Modulus (GPa) = 22.90181 39.59833 31.25007
# Shear Modulus (GPa) = 21.96836 62.11394 42.04115
#
# Velocity S-wave (km/s) = 3.39410 5.70716 4.69529
# Velocity P-wave (km/s) = 5.23156 8.01209 6.76620
#
# Compressibility (1/GPa) = 0.04366468
#
# Stress axis : x y z
#
# Youngs Moduli (GPa) = 41.79330 41.79330 32.60335
#
# Poissons Ratio (x) = 0.74506 -0.00646
# Poissons Ratio (y) = 0.74506 -0.00646
# Poissons Ratio (z) = -0.00829 -0.00829
#
# Static dielectric constant tensor:
#      x y z
#    x 1.662180 0.000000 0.000000 
#    y 0.000000 1.662180 0.000000 
#    z 0.000000 0.000000 1.717540 
# 
# From -- ./inp_files/1976.got.cif
#   From: 2010.05.17/outbox.cif.g08.bks.cpg/sg191_1_cif.got.tgz:1976.got - 2010.05.20 12:20:32.
