data_PCOD9588780
_publ_section_title
;
Structure prediction by ZEFSAII (Michael W. Deem and Ramdas Pophale) SiO2 
 PCOD9588780
Probable space group: P 6/M C C
;
_chemical_formula_sum "Si O2"
_cell_formula_units_Z 104
_cell_length_a 17.752364
_cell_length_b 17.752364
_cell_length_c 20.318420
_cell_angle_alpha 90.000000
_cell_angle_beta 90.000000
_cell_angle_gamma 120.000000
_cell_volume 5545.400963
_symmetry_space_group_name_H-M "P 6/M C C"
_symmetry_group_IT_number 192
_symmetry_cell_setting 'hexagonal'
loop_
_space_group_symop_operation_xyz
x,y,z
x-y,x,z
-y,x-y,z
-x,-y,z
-x+y,-x,z
y,-x+y,z
x-y,-y,1/2-z
-x,-x+y,1/2-z
y,x,1/2-z
-y,-x,1/2-z
-x+y,y,1/2-z
x,x-y,1/2-z
-x,-y,-z
-x+y,-x,-z
y,-x+y,-z
x,y,-z
x-y,x,-z
-y,x-y,-z
-x+y,y,1/2+z
x,x-y,1/2+z
-y,-x,1/2+z
y,x,1/2+z
x-y,-y,1/2+z
-x,-x+y,1/2+z
loop_
_atom_site_type_symbol
_atom_site_label
_atom_site_fract_x
_atom_site_fract_y
_atom_site_fract_z
Si Si1 0.242456 0.311938 0.871793
Si Si2 0.180322 0.000000 0.750000
Si Si3 0.470601 0.250918 0.827652
Si Si4 0.571507 0.973137 0.326525
Si Si5 0.666668 0.333334 0.169475
Si Si6 0.150623 0.199391 0.000000
O O1 0.223444 0.242555 0.813026
O O2 0.214235 0.383814 0.856717
O O3 0.346333 0.368103 0.873813
O O4 0.195172 0.257667 0.935894
O O5 0.171177 0.085589 0.750000
O O6 0.465905 0.232953 0.750000
O O7 0.467395 0.338689 0.834901
O O8 0.566009 0.271221 0.851068
O O9 0.500000 0.000000 0.339521
O O10 0.600958 0.000000 0.250000
O O11 0.666668 0.333334 0.250000
O O12 0.166801 0.118212 0.000000
#
# Coordination Sequence:
#
# PCOD9588780 Si02
#       6
#    24  12  24  24   8  12
#     4  12  23  41  63  90 123 165 213 268 322 388
#     4  12  23  38  59  88 120 156 200 264 331 394
#     4  11  19  35  55  88 126 160 204 258 315 381
#     4  11  21  33  58  92 126 162 204 256 320 384
#     4   9  21  30  57  91 131 166 204 258 322 374
#     4  12  27  46  67  90 122 168 218 272 330 396
#
# _framework density 18.754280000000001
#
# number of rings (size 3 to 8) (size 9 to 14) (size 15 to 20)
#    0.000    0.692    3.462    6.462    6.462    0.000 
#    0.000    2.885    0.000    4.154    0.000    0.000 
#    0.000    0.000    0.000    0.000    0.000    0.000 
#
# Total GULP energy -580940.205993 kJ/mol
# GULP energy per Si atom -5585.963519 kJ/mol
# Density = 1.871159 g / cm^3
# Si number density = 18.754280 Si / 1000 Ang^3
#
#
#
# Elastic Constant Matrix: (Units=GPa)
#
#
# Indices 1 2 3 4 5 6 
#
# 1 176.2937 69.9076 60.4174 0.0008 -0.0020 -0.0005
# 2 69.9076 176.2929 60.4174 0.0017 0.0026 -0.0001
# 3 60.4174 60.4174 93.1884 0.0000 -0.0001 0.0000
# 4 0.0008 0.0017 0.0000 194.2791 0.0238 -0.0023
# 5 -0.0020 0.0026 -0.0001 0.0238 194.3034 0.0004
# 6 -0.0005 -0.0001 0.0000 -0.0023 0.0004 53.1928
#
#
#
# Elastic Compliance Matrix: (Units=1/GPa)
#
#
# Indices 1 2 3 4 5 6 
#
# 1 0.007679 -0.001721 -0.003862 0.000000 0.000000 0.000000
# 2 -0.001721 0.007679 -0.003862 0.000000 0.000000 0.000000
# 3 -0.003862 -0.003862 0.015739 0.000000 0.000000 0.000000
# 4 0.000000 0.000000 0.000000 0.005147 -0.000001 0.000000
# 5 0.000000 0.000000 0.000000 -0.000001 0.005147 0.000000
# 6 0.000000 0.000000 0.000000 0.000000 0.000000 0.018800
#
#
# Mechanical properties :
#
#
# Convention : Reuss Voigt Hill
#
# Bulk Modulus (GPa) = 81.93756 91.91774 86.92765
# Shear Modulus (GPa) = 60.13253 105.35725 82.74489
#
# Velocity S-wave (km/s) = 5.66859 7.50331 6.64954
# Velocity P-wave (km/s) = 9.30746 11.14380 10.26677
#
# Compressibility (1/GPa) = 0.01220442
#
# Stress axis : x y z
#
# Youngs Moduli (GPa) = 130.23306 130.23229 63.53574
#
# Poissons Ratio (x) = 0.22416 0.24540
# Poissons Ratio (y) = 0.22416 0.24540
# Poissons Ratio (z) = 0.50301 0.50301
#
# Static dielectric constant tensor:
#      x y z
#    x 1.665150 0.000000 0.000000 
#    y 0.000000 1.665150 0.000000 
#    z 0.000000 0.000000 1.608030 
# 
# From -- ./inp_files/4890.got.cif
#   From: 2010.05.17/outbox.cif.g08.bks.cpg/sg192_3_cif.got.tgz:4890.got - 2010.05.20 12:28:01.
