data_PCOD9588339
_publ_section_title
;
Structure prediction by ZEFSAII (Michael W. Deem and Ramdas Pophale) SiO2 
 PCOD9588339
Probable space group: P 6/M C C
;
_chemical_formula_sum "Si O2"
_cell_formula_units_Z 192
_cell_length_a 24.862791
_cell_length_b 24.862791
_cell_length_c 21.231724
_cell_angle_alpha 90.000000
_cell_angle_beta 90.000000
_cell_angle_gamma 120.000000
_cell_volume 11366.209331
_symmetry_space_group_name_H-M "P 6/M C C"
_symmetry_group_IT_number 192
_symmetry_cell_setting 'hexagonal'
loop_
_space_group_symop_operation_xyz
x,y,z
x-y,x,z
-y,x-y,z
-x,-y,z
-x+y,-x,z
y,-x+y,z
x-y,-y,1/2-z
-x,-x+y,1/2-z
y,x,1/2-z
-y,-x,1/2-z
-x+y,y,1/2-z
x,x-y,1/2-z
-x,-y,-z
-x+y,-x,-z
y,-x+y,-z
x,y,-z
x-y,x,-z
-y,x-y,-z
-x+y,y,1/2+z
x,x-y,1/2+z
-y,-x,1/2+z
y,x,1/2+z
x-y,-y,1/2+z
-x,-x+y,1/2+z
loop_
_atom_site_type_symbol
_atom_site_label
_atom_site_fract_x
_atom_site_fract_y
_atom_site_fract_z
Si Si1 0.600222 0.074537 0.740796
Si Si2 0.208388 0.803117 0.426925
Si Si3 0.893582 0.582562 0.148165
Si Si4 0.981869 0.549373 0.928775
Si Si5 0.574389 0.907399 0.878253
Si Si6 0.006619 0.716826 0.824453
Si Si7 0.182088 0.916641 0.425678
Si Si8 0.068988 0.928564 0.423822
O O1 0.540798 0.081596 0.750000
O O2 0.659019 0.111119 0.786581
O O3 0.623511 0.099336 0.671478
O O4 0.575297 0.000000 0.750000
O O5 0.200584 0.783935 0.500000
O O6 0.167935 0.744196 0.382807
O O7 0.280600 0.844533 0.408385
O O8 0.187310 0.855088 0.420363
O O9 0.928006 0.554970 0.105673
O O10 0.941993 0.656200 0.156635
O O11 0.041308 0.618785 0.926298
O O12 0.000000 0.500000 0.900313
O O13 0.962613 0.529467 0.000000
O O14 0.637971 0.941042 0.836669
O O15 0.030749 0.772476 0.875882
O O16 0.000000 0.728518 0.750000
O O17 0.196098 0.937674 0.500000
O O18 0.112107 0.899378 0.411030
O O19 0.064610 0.929911 0.500000
O O20 0.999159 0.892924 0.400251
#
# Coordination Sequence:
#
# PCOD9588339 Si02
#       8
#    24  24  24  24  24  24  24  24
#     4  11  19  33  56  82 111 143 182 228 279 326
#     4  10  22  35  49  74 113 153 187 218 266 337
#     4  11  20  32  52  77 108 148 181 221 268 325
#     4  10  19  31  52  81 110 140 182 231 277 327
#     4  10  18  34  50  72 108 149 180 216 272 324
#     4  10  18  33  50  74 103 141 184 216 261 325
#     4   9  20  34  50  72 102 143 184 227 276 337
#     4   9  17  30  49  71  94 122 171 235 293 332
#
# _framework density 16.892175000000002
#
# number of rings (size 3 to 8) (size 9 to 14) (size 15 to 20)
#    0.000    2.000    3.750    1.625    1.750    4.500 
#    0.000    0.000    0.000    0.000    0.000    0.000 
#   17.500    1.000    6.000    0.000    0.000    0.000 
#
# Total GULP energy -1068980.062072 kJ/mol
# GULP energy per Si atom -5567.604490 kJ/mol
# Density = 1.685373 g / cm^3
# Si number density = 16.892175 Si / 1000 Ang^3
#
#
#
# Elastic Constant Matrix: (Units=GPa)
#
#
# Indices 1 2 3 4 5 6 
#
# 1 48.6602 20.7732 9.7225 0.0000 0.0000 0.0000
# 2 20.7732 48.6602 9.7225 0.0000 0.0000 0.0000
# 3 9.7225 9.7225 55.8106 0.0000 0.0000 0.0000
# 4 0.0000 0.0000 0.0000 20.1331 0.0000 0.0000
# 5 0.0000 0.0000 0.0000 0.0000 20.1331 0.0000
# 6 0.0000 0.0000 0.0000 0.0000 0.0000 13.9435
#
#
#
# Elastic Compliance Matrix: (Units=1/GPa)
#
#
# Indices 1 2 3 4 5 6 
#
# 1 0.025500 -0.010359 -0.002638 0.000000 0.000000 0.000000
# 2 -0.010359 0.025500 -0.002638 0.000000 0.000000 0.000000
# 3 -0.002638 -0.002638 0.018837 0.000000 0.000000 0.000000
# 4 0.000000 0.000000 0.000000 0.049670 0.000000 0.000000
# 5 0.000000 0.000000 0.000000 0.000000 0.049670 0.000000
# 6 0.000000 0.000000 0.000000 0.000000 0.000000 0.071718
#
#
# Mechanical properties :
#
#
# Convention : Reuss Voigt Hill
#
# Bulk Modulus (GPa) = 25.92816 25.95194 25.94005
# Shear Modulus (GPa) = 17.54272 18.36944 17.95608
#
# Velocity S-wave (km/s) = 3.22609 3.30123 3.26388
# Velocity P-wave (km/s) = 5.40920 5.47060 5.43999
#
# Compressibility (1/GPa) = 0.03856811
#
# Stress axis : x y z
#
# Youngs Moduli (GPa) = 39.21569 39.21569 53.08775
#
# Poissons Ratio (x) = 0.40624 0.14003
# Poissons Ratio (y) = 0.40624 0.14003
# Poissons Ratio (z) = 0.10344 0.10344
#
# Static dielectric constant tensor:
#      x y z
#    x 1.576540 0.000000 0.000000 
#    y 0.000000 1.576540 0.000000 
#    z 0.000000 0.000000 1.625870 
# 
# From -- ./inp_files/6174.got.cif
#   From: 2010.05.17/outbox.cif.g08.bks.cpg/sg192_4_cif.got.tgz:6174.got - 2010.05.20 12:28:01.
