data_PCOD9588793
_publ_section_title
;
Structure prediction by ZEFSAII (Michael W. Deem and Ramdas Pophale) SiO2 
 PCOD9588793
Probable space group: P 6/M C C
;
_chemical_formula_sum "Si O2"
_cell_formula_units_Z 116
_cell_length_a 19.369999
_cell_length_b 19.369999
_cell_length_c 15.916804
_cell_angle_alpha 90.000000
_cell_angle_beta 90.000000
_cell_angle_gamma 120.000000
_cell_volume 5171.847335
_symmetry_space_group_name_H-M "P 6/M C C"
_symmetry_group_IT_number 192
_symmetry_cell_setting 'hexagonal'
loop_
_space_group_symop_operation_xyz
x,y,z
x-y,x,z
-y,x-y,z
-x,-y,z
-x+y,-x,z
y,-x+y,z
x-y,-y,1/2-z
-x,-x+y,1/2-z
y,x,1/2-z
-y,-x,1/2-z
-x+y,y,1/2-z
x,x-y,1/2-z
-x,-y,-z
-x+y,-x,-z
y,-x+y,-z
x,y,-z
x-y,x,-z
-y,x-y,-z
-x+y,y,1/2+z
x,x-y,1/2+z
-y,-x,1/2+z
y,x,1/2+z
x-y,-y,1/2+z
-x,-x+y,1/2+z
loop_
_atom_site_type_symbol
_atom_site_label
_atom_site_fract_x
_atom_site_fract_y
_atom_site_fract_z
Si Si1 0.011356 0.749070 0.841924
Si Si2 0.666667 0.333334 0.852652
Si Si3 0.249605 0.410920 0.899525
Si Si4 0.151554 0.561367 0.650867
Si Si5 0.577458 0.903292 0.401968
Si Si6 0.979772 0.826829 0.000000
O O1 0.103352 0.777845 0.859597
O O2 0.000000 0.774024 0.750000
O O3 0.964307 0.652737 0.848017
O O4 0.977778 0.778679 0.916957
O O5 0.666668 0.333334 0.750000
O O6 0.623333 0.381196 0.880842
O O7 0.337824 0.473960 0.868447
O O8 0.185255 0.438192 0.879656
O O9 0.251880 0.403532 0.000000
O O10 0.149974 0.574987 0.750000
O O11 0.095950 0.591982 0.611244
O O12 0.600042 0.918187 0.500000
O O13 0.907539 0.843565 0.000000
#
# Coordination Sequence:
#
# PCOD9588793 Si02
#       6
#    24   8  24  24  24  12
#     4  12  26  46  74 106 143 186 229 278 343 416
#     4   9  18  33  52  86 133 177 235 302 349 397
#     4  11  23  41  64  94 134 182 235 288 347 414
#     4  11  21  36  60  93 133 181 240 296 348 407
#     4  11  23  41  64  94 134 182 235 288 347 414
#     4  12  27  52  82 115 148 180 220 270 332 405
#
# _framework density 22.429122
#
# number of rings (size 3 to 8) (size 9 to 14) (size 15 to 20)
#    0.000    0.828    4.138    3.207    0.000    5.793 
#    0.000    4.138    0.000    1.241    0.000    0.000 
#    0.000    0.000    0.000    0.000    0.000    0.000 
#
# Total GULP energy -649726.736375 kJ/mol
# GULP energy per Si atom -5601.092555 kJ/mol
# Density = 2.237807 g / cm^3
# Si number density = 22.429122 Si / 1000 Ang^3
#
#
#
# Elastic Constant Matrix: (Units=GPa)
#
#
# Indices 1 2 3 4 5 6 
#
# 1 -1246.3360 1334.3547 21.5124 0.0141 0.0211 1.5772
# 2 1334.3547-1246.3330 21.5131 -0.0140 -0.0211 -1.5769
# 3 21.5124 21.5131 108.4364 0.0000 0.0001 -0.0010
# 4 0.0141 -0.0140 0.0000 -24.6372 -0.0064 0.0210
# 5 0.0211 -0.0211 0.0001 -0.0064 -24.6454 -0.0140
# 6 1.5772 -1.5769 -0.0010 0.0210 -0.0140-1286.6609
#
#
#
# Elastic Compliance Matrix: (Units=1/GPa)
#
#
# Indices 1 2 3 4 5 6 
#
# 1 0.006097 0.006484 -0.002496 0.000000 0.000000 0.000000
# 2 0.006484 0.006097 -0.002496 0.000000 0.000000 0.000000
# 3 -0.002496 -0.002496 0.010212 0.000000 0.000000 0.000000
# 4 0.000000 0.000000 0.000000 -0.040589 0.000010 -0.000001
# 5 0.000000 0.000000 0.000000 0.000010 -0.040575 0.000000
# 6 0.000000 0.000000 0.000000 -0.000001 0.000000 -0.000777
#
#
# Mechanical properties :
#
#
# Convention : Reuss Voigt Hill
#
# Bulk Modulus (GPa) = 39.38456 41.16976 40.27716
# Shear Modulus (GPa) = -92.49497 -517.96289 -305.22893
#
# Velocity S-wave (km/s) = -6.42871 -15.21297 -11.67825
# Velocity P-wave (km/s) = 6.12427 17.03479 12.80021
#
# Compressibility (1/GPa) = 0.02539066
#
# Stress axis : x y z
#
# Youngs Moduli (GPa) = 164.02065 164.02029 97.92070
#
# Poissons Ratio (x) = -1.06356 0.24441
# Poissons Ratio (y) = -1.06356 0.24441
# Poissons Ratio (z) = 0.40939 0.40939
#
# Static dielectric constant tensor:
#      x y z
#    x 1.838950 0.000000 0.000000 
#    y 0.000000 1.838960 0.000000 
#    z 0.000000 0.000000 1.821560 
# 
# From -- ./inp_files/3000.got.cif
#   From: 2010.05.17/outbox.cif.g08.bks.cpg/sg192_2_cif.got.tgz:3000.got - 2010.05.20 12:28:01.
