data_PCOD9588558
_publ_section_title
;
Structure prediction by ZEFSAII (Michael W. Deem and Ramdas Pophale) SiO2 
 PCOD9588558
Probable space group: P 6/M C C
;
_chemical_formula_sum "Si O2"
_cell_formula_units_Z 144
_cell_length_a 33.193328
_cell_length_b 33.193328
_cell_length_c 8.731869
_cell_angle_alpha 90.000000
_cell_angle_beta 90.000000
_cell_angle_gamma 120.000000
_cell_volume 8331.811544
_symmetry_space_group_name_H-M "P 6/M C C"
_symmetry_group_IT_number 192
_symmetry_cell_setting 'hexagonal'
loop_
_space_group_symop_operation_xyz
x,y,z
x-y,x,z
-y,x-y,z
-x,-y,z
-x+y,-x,z
y,-x+y,z
x-y,-y,1/2-z
-x,-x+y,1/2-z
y,x,1/2-z
-y,-x,1/2-z
-x+y,y,1/2-z
x,x-y,1/2-z
-x,-y,-z
-x+y,-x,-z
y,-x+y,-z
x,y,-z
x-y,x,-z
-y,x-y,-z
-x+y,y,1/2+z
x,x-y,1/2+z
-y,-x,1/2+z
y,x,1/2+z
x-y,-y,1/2+z
-x,-x+y,1/2+z
loop_
_atom_site_type_symbol
_atom_site_label
_atom_site_fract_x
_atom_site_fract_y
_atom_site_fract_z
Si Si1 0.138948 0.189756 0.816182
Si Si2 0.278210 0.387461 0.815015
Si Si3 0.436661 0.386032 0.316952
Si Si4 0.717537 0.768192 0.684312
Si Si5 0.282018 0.805072 0.817339
Si Si6 0.856783 0.384634 0.815679
O O1 0.154489 0.154489 0.750000
O O2 0.090703 0.181406 0.750000
O O3 0.180522 0.241501 0.771191
O O4 0.137166 0.187023 0.000000
O O5 0.331683 0.402672 0.776760
O O6 0.245108 0.334184 0.767991
O O7 0.268129 0.424887 0.736394
O O8 0.275789 0.391572 0.000000
O O9 0.418541 0.418541 0.250000
O O10 0.436565 0.389295 0.500000
O O11 0.488079 0.397286 0.269322
O O12 0.732177 0.732177 0.750000
O O13 0.717385 0.765198 0.500000
O O14 0.244320 0.755681 0.750000
O O15 0.333280 0.823119 0.749275
O O16 0.283097 0.803604 0.000000
O O17 0.846183 0.423092 0.750000
O O18 0.854458 0.383252 0.000000
#
# Coordination Sequence:
#
# PCOD9588558 Si02
#       6
#    24  24  24  24  24  24
#     4  10  20  35  54  77 103 134 170 211 258 311
#     4   9  18  33  49  72 106 143 182 224 262 302
#     4   9  18  30  47  71 104 142 181 221 259 299
#     4   9  18  31  49  73 105 142 181 221 261 303
#     4  11  22  37  57  80 105 137 173 214 262 314
#     4  10  21  38  57  80 107 137 173 215 261 313
#
# _framework density 17.283156000000002
#
# number of rings (size 3 to 8) (size 9 to 14) (size 15 to 20)
#    0.000    2.333    0.000    4.000    0.000    5.667 
#    0.000    3.333    0.000    0.500    0.000    3.500 
#    0.000    0.000    0.000    0.000    0.000    0.000 
#
# Total GULP energy -803678.010851 kJ/mol
# GULP energy per Si atom -5581.097298 kJ/mol
# Density = 1.724382 g / cm^3
# Si number density = 17.283156 Si / 1000 Ang^3
#
#
#
# Elastic Constant Matrix: (Units=GPa)
#
#
# Indices 1 2 3 4 5 6 
#
# 1 113.9538 94.9027 49.0792 0.0000 0.0000 0.0000
# 2 94.9027 113.9538 49.0792 0.0000 0.0000 0.0000
# 3 49.0792 49.0792 64.1951 0.0000 0.0000 0.0000
# 4 0.0000 0.0000 0.0000 21.0464 0.0000 0.0000
# 5 0.0000 0.0000 0.0000 0.0000 21.0464 0.0000
# 6 0.0000 0.0000 0.0000 0.0000 0.0000 9.5255
#
#
#
# Elastic Compliance Matrix: (Units=1/GPa)
#
#
# Indices 1 2 3 4 5 6 
#
# 1 0.029982 -0.022509 -0.005714 0.000000 0.000000 0.000000
# 2 -0.022509 0.029982 -0.005714 0.000000 0.000000 0.000000
# 3 -0.005714 -0.005714 0.024314 0.000000 0.000000 0.000000
# 4 0.000000 0.000000 0.000000 0.047514 0.000000 0.000000
# 5 0.000000 0.000000 0.000000 0.000000 0.047514 0.000000
# 6 0.000000 0.000000 0.000000 0.000000 0.000000 0.104981
#
#
# Mechanical properties :
#
#
# Convention : Reuss Voigt Hill
#
# Bulk Modulus (GPa) = 60.95246 75.35831 68.15539
# Shear Modulus (GPa) = 13.98106 16.92643 15.45374
#
# Velocity S-wave (km/s) = 2.84728 3.13287 2.99348
# Velocity P-wave (km/s) = 6.79359 7.53547 7.17413
#
# Compressibility (1/GPa) = 0.01640623
#
# Stress axis : x y z
#
# Youngs Moduli (GPa) = 33.35354 33.35354 41.12884
#
# Poissons Ratio (x) = 0.75074 0.23499
# Poissons Ratio (y) = 0.75074 0.23499
# Poissons Ratio (z) = 0.19057 0.19057
#
# Static dielectric constant tensor:
#      x y z
#    x 1.572900 0.000000 0.000000 
#    y 0.000000 1.572900 0.000000 
#    z 0.000000 0.000000 1.588610 
# 
# From -- ./inp_files/1162.got.cif
#   From: 2010.05.17/outbox.cif.g08.bks.cpg/sg192_1_cif.got.tgz:1162.got - 2010.05.20 12:28:01.
