data_PCOD9588372
_publ_section_title
;
Structure prediction by ZEFSAII (Michael W. Deem and Ramdas Pophale) SiO2 
 PCOD9588372
Probable space group: P 6/M C C
;
_chemical_formula_sum "Si O2"
_cell_formula_units_Z 144
_cell_length_a 30.708559
_cell_length_b 30.708559
_cell_length_c 9.280441
_cell_angle_alpha 90.000000
_cell_angle_beta 90.000000
_cell_angle_gamma 120.000000
_cell_volume 7579.108443
_symmetry_space_group_name_H-M "P 6/M C C"
_symmetry_group_IT_number 192
_symmetry_cell_setting 'hexagonal'
loop_
_space_group_symop_operation_xyz
x,y,z
x-y,x,z
-y,x-y,z
-x,-y,z
-x+y,-x,z
y,-x+y,z
x-y,-y,1/2-z
-x,-x+y,1/2-z
y,x,1/2-z
-y,-x,1/2-z
-x+y,y,1/2-z
x,x-y,1/2-z
-x,-y,-z
-x+y,-x,-z
y,-x+y,-z
x,y,-z
x-y,x,-z
-y,x-y,-z
-x+y,y,1/2+z
x,x-y,1/2+z
-y,-x,1/2+z
y,x,1/2+z
x-y,-y,1/2+z
-x,-x+y,1/2+z
loop_
_atom_site_type_symbol
_atom_site_label
_atom_site_fract_x
_atom_site_fract_y
_atom_site_fract_z
Si Si1 0.753827 0.052789 0.327215
Si Si2 0.580411 0.507312 0.335051
Si Si3 0.147406 0.202884 0.175182
Si Si4 0.640430 0.195815 0.835848
Si Si5 0.921096 0.330196 0.164255
Si Si6 0.801075 0.273012 0.162215
O O1 0.749114 0.048871 0.500000
O O2 0.813271 0.076210 0.298753
O O3 0.715293 0.071416 0.279489
O O4 0.731295 0.000000 0.250000
O O5 0.528979 0.471022 0.250000
O O6 0.570415 0.515088 0.500000
O O7 0.610171 0.475713 0.337806
O O8 0.619426 0.559627 0.257758
O O9 0.171327 0.171327 0.250000
O O10 0.094921 0.189841 0.250000
O O11 0.143379 0.195133 0.000000
O O12 0.605841 0.211683 0.750000
O O13 0.691433 0.213111 0.751308
O O14 0.648432 0.212846 0.000000
O O15 0.860939 0.303809 0.156686
O O16 0.940907 0.343825 0.000000
O O17 0.778552 0.221449 0.250000
O O18 0.781765 0.263359 0.000000
#
# Coordination Sequence:
#
# PCOD9588372 Si02
#       6
#    24  24  24  24  24  24
#     4   9  19  35  54  77 107 144 185 227 272 323
#     4   9  16  26  43  67  92 120 158 205 256 311
#     4  10  20  36  59  88 121 158 200 244 289 338
#     4   9  16  27  43  62  83 109 144 184 227 278
#     4   9  18  32  48  68  97 132 169 213 266 322
#     4  10  19  30  44  64  92 123 154 192 240 294
#
# _framework density 18.999597000000001
#
# number of rings (size 3 to 8) (size 9 to 14) (size 15 to 20)
#    0.000    2.667    0.000    2.000    0.000    6.667 
#    0.000    0.000    0.000    1.000    0.000    7.000 
#    0.000    0.000    0.000    0.000    0.000    0.000 
#
# Total GULP energy -801721.938508 kJ/mol
# GULP energy per Si atom -5567.513462 kJ/mol
# Density = 1.895635 g / cm^3
# Si number density = 18.999597 Si / 1000 Ang^3
#
#
#
# Elastic Constant Matrix: (Units=GPa)
#
#
# Indices 1 2 3 4 5 6 
#
# 1 62.0765 60.8496 46.8770 0.0000 0.0000 0.0000
# 2 60.8496 62.0765 46.8770 0.0000 0.0000 0.0000
# 3 46.8770 46.8770 118.6707 0.0000 0.0000 0.0000
# 4 0.0000 0.0000 0.0000 24.9432 0.0000 0.0000
# 5 0.0000 0.0000 0.0000 0.0000 24.9432 0.0000
# 6 0.0000 0.0000 0.0000 0.0000 0.0000 0.6135
#
#
#
# Elastic Compliance Matrix: (Units=1/GPa)
#
#
# Indices 1 2 3 4 5 6 
#
# 1 0.413352 -0.401710 -0.004599 0.000000 0.000000 0.000000
# 2 -0.401710 0.413352 -0.004599 0.000000 0.000000 0.000000
# 3 -0.004599 -0.004599 0.012060 0.000000 0.000000 0.000000
# 4 0.000000 0.000000 0.000000 0.040091 0.000000 0.000000
# 5 0.000000 0.000000 0.000000 0.000000 0.040091 0.000000
# 6 0.000000 0.000000 0.000000 0.000000 0.000000 1.630123
#
#
# Mechanical properties :
#
#
# Convention : Reuss Voigt Hill
#
# Bulk Modulus (GPa) = 59.00008 61.33677 60.16843
# Shear Modulus (GPa) = 1.48081 15.98131 8.73106
#
# Velocity S-wave (km/s) = 0.88379 2.90339 2.14601
# Velocity P-wave (km/s) = 5.67117 6.60249 6.15447
#
# Compressibility (1/GPa) = 0.01694913
#
# Stress axis : x y z
#
# Youngs Moduli (GPa) = 2.41924 2.41924 82.91835
#
# Poissons Ratio (x) = 0.97183 0.38134
# Poissons Ratio (y) = 0.97183 0.38134
# Poissons Ratio (z) = 0.01113 0.01113
#
# Static dielectric constant tensor:
#      x y z
#    x 1.706630 0.000000 0.000000 
#    y 0.000000 1.706630 0.000000 
#    z 0.000000 0.000000 1.649990 
# 
# From -- ./inp_files/1152.got.cif
#   From: 2010.05.17/outbox.cif.g08.bks.cpg/sg192_1_cif.got.tgz:1152.got - 2010.05.20 12:28:01.
