data_PCOD9588340
_publ_section_title
;
Structure prediction by ZEFSAII (Michael W. Deem and Ramdas Pophale) SiO2 
 PCOD9588340
Probable space group: P 6/M C C
;
_chemical_formula_sum "Si O2"
_cell_formula_units_Z 108
_cell_length_a 16.941853
_cell_length_b 16.941853
_cell_length_c 27.960227
_cell_angle_alpha 90.000000
_cell_angle_beta 90.000000
_cell_angle_gamma 120.000000
_cell_volume 6950.133441
_symmetry_space_group_name_H-M "P 6/M C C"
_symmetry_group_IT_number 192
_symmetry_cell_setting 'hexagonal'
loop_
_space_group_symop_operation_xyz
x,y,z
x-y,x,z
-y,x-y,z
-x,-y,z
-x+y,-x,z
y,-x+y,z
x-y,-y,1/2-z
-x,-x+y,1/2-z
y,x,1/2-z
-y,-x,1/2-z
-x+y,y,1/2-z
x,x-y,1/2-z
-x,-y,-z
-x+y,-x,-z
y,-x+y,-z
x,y,-z
x-y,x,-z
-y,x-y,-z
-x+y,y,1/2+z
x,x-y,1/2+z
-y,-x,1/2+z
y,x,1/2+z
x-y,-y,1/2+z
-x,-x+y,1/2+z
loop_
_atom_site_type_symbol
_atom_site_label
_atom_site_fract_x
_atom_site_fract_y
_atom_site_fract_z
Si Si1 0.335155 0.334414 0.067950
Si Si2 0.016351 0.819334 0.000000
Si Si3 0.684641 0.529449 0.500000
Si Si4 0.136905 0.648687 0.000000
Si Si5 0.850600 0.516737 0.250155
Si Si6 0.407819 0.999937 0.331346
O O1 0.238834 0.257960 0.045715
O O2 0.409767 0.312485 0.045176
O O3 0.349510 0.348695 0.124128
O O4 0.354388 0.429977 0.044864
O O5 0.920614 0.817962 0.000000
O O6 0.589278 0.436063 0.500000
O O7 0.769335 0.513053 0.500000
O O8 0.765479 0.530958 0.250000
O O9 0.821003 0.410502 0.250000
O O10 0.913020 0.559581 0.296967
O O11 0.913959 0.559852 0.203663
O O12 0.500000 0.000000 0.347778
#
# Coordination Sequence:
#
# PCOD9588340 Si02
#       6
#    24  12  12  12  24  24
#     4  10  18  33  51  68  91 126 162 191 227 281
#     4  10  21  36  53  74  96 120 152 194 239 280
#     4  10  19  30  45  68  96 126 158 194 233 274
#     4  10  19  30  45  68  96 126 158 194 233 274
#     4   9  18  31  48  69  93 121 154 191 232 273
#     4   9  18  32  48  68  94 124 155 190 229 269
#
# _framework density 15.539269000000001
#
# number of rings (size 3 to 8) (size 9 to 14) (size 15 to 20)
#    0.000    2.667    0.000    7.222    0.000    3.556 
#    0.000    0.000    0.000    5.333    0.000    0.000 
#    0.000    0.000    0.000   11.333    0.000    0.000 
#
# Total GULP energy -602077.010482 kJ/mol
# GULP energy per Si atom -5574.787134 kJ/mol
# Density = 1.550390 g / cm^3
# Si number density = 15.539269 Si / 1000 Ang^3
#
#
#
# Elastic Constant Matrix: (Units=GPa)
#
#
# Indices 1 2 3 4 5 6 
#
# 1 73.2720 19.7400 29.0278 0.0000 0.0000 0.0000
# 2 19.7400 73.2720 29.0278 0.0000 0.0000 0.0000
# 3 29.0278 29.0278 98.9974 0.0000 0.0000 0.0000
# 4 0.0000 0.0000 0.0000 2.8267 0.0000 0.0000
# 5 0.0000 0.0000 0.0000 0.0000 2.8267 0.0000
# 6 0.0000 0.0000 0.0000 0.0000 0.0000 26.7660
#
#
#
# Elastic Compliance Matrix: (Units=1/GPa)
#
#
# Indices 1 2 3 4 5 6 
#
# 1 0.015920 -0.002760 -0.003859 0.000000 0.000000 0.000000
# 2 -0.002760 0.015920 -0.003859 0.000000 0.000000 0.000000
# 3 -0.003859 -0.003859 0.012364 0.000000 0.000000 0.000000
# 4 0.000000 0.000000 0.000000 0.353770 0.000000 0.000000
# 5 0.000000 0.000000 0.000000 0.000000 0.353770 0.000000
# 6 0.000000 0.000000 0.000000 0.000000 0.000000 0.037361
#
#
# Mechanical properties :
#
#
# Convention : Reuss Voigt Hill
#
# Bulk Modulus (GPa) = 43.01264 44.57029 43.79147
# Shear Modulus (GPa) = 6.11389 17.66694 11.89041
#
# Velocity S-wave (km/s) = 1.98570 3.37549 2.76920
# Velocity P-wave (km/s) = 5.74434 6.62846 6.20217
#
# Compressibility (1/GPa) = 0.02324898
#
# Stress axis : x y z
#
# Youngs Moduli (GPa) = 62.81371 62.81371 80.87913
#
# Poissons Ratio (x) = 0.17339 0.31209
# Poissons Ratio (y) = 0.17339 0.31209
# Poissons Ratio (z) = 0.24238 0.24238
#
# Static dielectric constant tensor:
#      x y z
#    x 1.506400 0.000000 0.000000 
#    y 0.000000 1.506400 0.000000 
#    z 0.000000 0.000000 1.511330 
# 
# From -- ./inp_files/6443.got.cif
#   From: 2010.05.17/outbox.cif.g08.bks.cpg/sg192_4_cif.got.tgz:6443.got - 2010.05.20 12:28:01.
