data_PCOD9588973
_publ_section_title
;
Structure prediction by ZEFSAII (Michael W. Deem and Ramdas Pophale) SiO2 
 PCOD9588973
Probable space group: P 63/M C M
;
_chemical_formula_sum "Si O2"
_cell_formula_units_Z 132
_cell_length_a 18.698781
_cell_length_b 18.698781
_cell_length_c 23.596763
_cell_angle_alpha 90.000000
_cell_angle_beta 90.000000
_cell_angle_gamma 120.000000
_cell_volume 7145.122067
_symmetry_space_group_name_H-M "P 63/M C M"
_symmetry_group_IT_number 193
_symmetry_cell_setting 'hexagonal'
loop_
_space_group_symop_operation_xyz
x,y,z
x-y,x,1/2+z
-y,x-y,z
-x,-y,1/2+z
-x+y,-x,z
y,-x+y,1/2+z
x-y,-y,1/2-z
-x,-x+y,1/2-z
y,x,1/2-z
-y,-x,-z
-x+y,y,-z
x,x-y,-z
-x,-y,-z
-x+y,-x,1/2-z
y,-x+y,-z
x,y,1/2-z
x-y,x,-z
-y,x-y,1/2-z
-x+y,y,1/2+z
x,x-y,1/2+z
-y,-x,1/2+z
y,x,z
x-y,-y,z
-x,-x+y,z
loop_
_atom_site_type_symbol
_atom_site_label
_atom_site_fract_x
_atom_site_fract_y
_atom_site_fract_z
Si Si1 0.576965 0.902836 0.365719
Si Si2 0.832612 0.332839 0.515369
Si Si3 0.000000 0.572415 0.963276
Si Si4 0.247609 0.000000 0.317132
Si Si5 0.319785 0.504306 0.250000
Si Si6 0.905905 0.730801 0.183232
Si Si7 0.849439 0.354427 0.250000
Si Si8 0.408071 0.408071 0.836631
O O1 0.520719 0.854191 0.418609
O O2 0.531813 0.869495 0.306293
O O3 0.657081 0.892450 0.357880
O O4 0.611398 0.000000 0.371927
O O5 0.752137 0.247864 0.500000
O O6 0.819230 0.409615 0.500000
O O7 0.914293 0.347993 0.481107
O O8 0.000000 0.554852 0.897208
O O9 0.000000 0.500000 0.000000
O O10 0.161838 0.918285 0.327842
O O11 0.267466 0.000000 0.250000
O O12 0.323091 0.000000 0.348261
O O13 0.395601 0.597918 0.250000
O O14 0.224369 0.483406 0.250000
O O15 0.897596 0.704150 0.250000
O O16 0.000000 0.803039 0.176796
O O17 0.915428 0.381877 0.301978
#
# Coordination Sequence:
#
# PCOD9588973 Si02
#       8
#    24  24  12  12  12  24  12  12
#     4  11  23  40  64  89 120 160 212 257 306 374
#     4  11  26  44  66  91 123 164 208 257 316 375
#     4  10  25  45  66  90 123 160 211 261 311 369
#     4  10  18  34  60  89 128 163 205 253 312 369
#     4  12  26  38  64  88 127 160 205 256 327 371
#     4   9  18  34  56  91 123 161 206 252 307 366
#     4  11  27  41  61  97 125 165 206 265 326 384
#     4  11  24  42  67  92 125 162 216 269 319 381
#
# _framework density 18.474140999999999
#
# number of rings (size 3 to 8) (size 9 to 14) (size 15 to 20)
#    0.000    1.455    2.727    1.727   12.727    0.000 
#    0.545    0.000    0.000    0.000    0.000    0.000 
#    0.000    0.000    0.000    6.636    0.000    0.273 
#
# Total GULP energy -736789.484228 kJ/mol
# GULP energy per Si atom -5581.738517 kJ/mol
# Density = 1.843209 g / cm^3
# Si number density = 18.474141 Si / 1000 Ang^3
#
#
#
# Elastic Constant Matrix: (Units=GPa)
#
#
# Indices 1 2 3 4 5 6 
#
# 1 120.0979 71.4473 51.8827 0.0000 0.0000 0.0000
# 2 71.4473 120.0979 51.8827 0.0000 0.0000 0.0000
# 3 51.8827 51.8827 141.0663 0.0000 0.0000 0.0000
# 4 0.0000 0.0000 0.0000 11.4415 0.0000 0.0000
# 5 0.0000 0.0000 0.0000 0.0000 11.4415 0.0000
# 6 0.0000 0.0000 0.0000 0.0000 0.0000 24.3253
#
#
#
# Elastic Compliance Matrix: (Units=1/GPa)
#
#
# Indices 1 2 3 4 5 6 
#
# 1 0.013537 -0.007018 -0.002398 0.000000 0.000000 0.000000
# 2 -0.007018 0.013537 -0.002398 0.000000 0.000000 0.000000
# 3 -0.002398 -0.002398 0.008853 0.000000 0.000000 0.000000
# 4 0.000000 0.000000 0.000000 0.087401 0.000000 0.000000
# 5 0.000000 0.000000 0.000000 0.000000 0.087401 0.000000
# 6 0.000000 0.000000 0.000000 0.000000 0.000000 0.041110
#
#
# Mechanical properties :
#
#
# Convention : Reuss Voigt Hill
#
# Bulk Modulus (GPa) = 81.29695 81.29860 81.29778
# Shear Modulus (GPa) = 17.88486 23.17827 20.53157
#
# Velocity S-wave (km/s) = 3.11481 3.54592 3.33734
# Velocity P-wave (km/s) = 7.55231 7.80173 7.67803
#
# Compressibility (1/GPa) = 0.01230058
#
# Stress axis : x y z
#
# Youngs Moduli (GPa) = 73.87036 73.87036 112.96007
#
# Poissons Ratio (x) = 0.51839 0.27086
# Poissons Ratio (y) = 0.51839 0.27086
# Poissons Ratio (z) = 0.17713 0.17713
#
# Static dielectric constant tensor:
#      x y z
#    x 1.651250 0.000000 0.000000 
#    y 0.000000 1.651250 0.000000 
#    z 0.000000 0.000000 1.635450 
# 
# From -- ./inp_files/7528.got.cif
#   From: 2010.05.17/outbox.cif.g08.bks.cpg/sg193_4_cif.got.tgz:7528.got - 2010.05.20 12:33:02.
