data_PCOD9588982
_publ_section_title
;
Structure prediction by ZEFSAII (Michael W. Deem and Ramdas Pophale) SiO2 
 PCOD9588982
Probable space group: P 63/M C M
;
_chemical_formula_sum "Si O2"
_cell_formula_units_Z 168
_cell_length_a 30.922174
_cell_length_b 30.922174
_cell_length_c 14.564506
_cell_angle_alpha 90.000000
_cell_angle_beta 90.000000
_cell_angle_gamma 120.000000
_cell_volume 12060.531012
_symmetry_space_group_name_H-M "P 63/M C M"
_symmetry_group_IT_number 193
_symmetry_cell_setting 'hexagonal'
loop_
_space_group_symop_operation_xyz
x,y,z
x-y,x,1/2+z
-y,x-y,z
-x,-y,1/2+z
-x+y,-x,z
y,-x+y,1/2+z
x-y,-y,1/2-z
-x,-x+y,1/2-z
y,x,1/2-z
-y,-x,-z
-x+y,y,-z
x,x-y,-z
-x,-y,-z
-x+y,-x,1/2-z
y,-x+y,-z
x,y,1/2-z
x-y,x,-z
-y,x-y,1/2-z
-x+y,y,1/2+z
x,x-y,1/2+z
-y,-x,1/2+z
y,x,z
x-y,-y,z
-x,-x+y,z
loop_
_atom_site_type_symbol
_atom_site_label
_atom_site_fract_x
_atom_site_fract_y
_atom_site_fract_z
Si Si1 0.706536 0.517434 1.000000
Si Si2 0.333800 0.767847 0.359180
Si Si3 0.769588 0.058306 0.358470
Si Si4 0.941694 0.711282 0.858470
Si Si5 0.845550 0.056168 0.500000
Si Si6 0.130994 0.763486 1.000000
Si Si7 0.767847 0.333800 0.859180
O O1 0.677276 0.483710 0.087284
O O2 0.721017 0.574620 1.000000
O O3 0.760069 0.520137 0.000000
O O4 0.677276 0.483710 0.912716
O O5 0.334112 0.774821 0.250000
O O6 0.385727 0.771455 0.385836
O O7 0.287715 0.712285 0.379769
O O8 0.777591 0.068094 0.250000
O O9 0.817474 0.062845 0.411874
O O10 0.758681 0.097288 0.411723
O O11 0.726876 0.000000 0.371011
O O12 0.931906 0.709497 0.750000
O O13 0.937155 0.754629 0.911874
O O14 0.902712 0.661393 0.911723
O O15 0.000000 0.726876 0.871010
O O16 0.902371 0.097630 0.500000
O O17 0.834072 0.000000 0.500000
O O18 0.181665 0.818336 0.000000
O O19 0.774821 0.334112 0.750000
#
# Coordination Sequence:
#
# PCOD9588982 Si02
#       7
#    24  24  24  24  24  24  24
#     4   9  18  28  36  53  81 109 135 161 192 235
#     4   9  16  26  40  56  75 102 137 173 203 230
#     4   9  17  29  45  63  82 105 135 171 204 233
#     4   9  17  29  45  63  82 105 135 171 204 233
#     4   9  17  28  42  62  86 110 138 171 204 236
#     4  10  19  28  40  60  86 115 139 156 187 241
#     4   9  16  26  40  56  75 102 137 173 203 230
#
# _framework density 13.929735000000001
#
# number of rings (size 3 to 8) (size 9 to 14) (size 15 to 20)
#    0.000    2.857    0.000    3.714    0.000    4.571 
#    0.000    4.286    0.000    0.143    0.000    0.000 
#    0.000    9.143    0.000   32.286    0.000    0.000 
#
# Total GULP energy -935362.475993 kJ/mol
# GULP energy per Si atom -5567.633786 kJ/mol
# Density = 1.389803 g / cm^3
# Si number density = 13.929735 Si / 1000 Ang^3
#
#
#
# Elastic Constant Matrix: (Units=GPa)
#
#
# Indices 1 2 3 4 5 6 
#
# 1 102.3113 57.0111 49.1704 0.0000 0.0000 0.0000
# 2 57.0111 102.3113 49.1704 0.0000 0.0000 0.0000
# 3 49.1704 49.1704 107.0704 0.0000 0.0000 0.0000
# 4 0.0000 0.0000 0.0000 13.0600 0.0000 0.0000
# 5 0.0000 0.0000 0.0000 0.0000 13.0600 0.0000
# 6 0.0000 0.0000 0.0000 0.0000 0.0000 22.6501
#
#
#
# Elastic Compliance Matrix: (Units=1/GPa)
#
#
# Indices 1 2 3 4 5 6 
#
# 1 0.015417 -0.006658 -0.004023 0.000000 0.000000 0.000000
# 2 -0.006658 0.015417 -0.004023 0.000000 0.000000 0.000000
# 3 -0.004023 -0.004023 0.013034 0.000000 0.000000 0.000000
# 4 0.000000 0.000000 0.000000 0.076570 0.000000 0.000000
# 5 0.000000 0.000000 0.000000 0.000000 0.076570 0.000000
# 6 0.000000 0.000000 0.000000 0.000000 0.000000 0.044150
#
#
# Mechanical properties :
#
#
# Convention : Reuss Voigt Hill
#
# Bulk Modulus (GPa) = 69.14329 69.15523 69.14926
# Shear Modulus (GPa) = 18.15637 20.17675 19.16656
#
# Velocity S-wave (km/s) = 3.61421 3.81000 3.71340
# Velocity P-wave (km/s) = 8.19522 8.31314 8.25439
#
# Compressibility (1/GPa) = 0.01446272
#
# Stress axis : x y z
#
# Youngs Moduli (GPa) = 64.86236 64.86236 76.72022
#
# Poissons Ratio (x) = 0.43183 0.30862
# Poissons Ratio (y) = 0.43183 0.30862
# Poissons Ratio (z) = 0.26092 0.26092
#
# Static dielectric constant tensor:
#      x y z
#    x 1.447020 0.000000 0.000000 
#    y 0.000000 1.447020 0.000000 
#    z 0.000000 0.000000 1.477340 
# 
# From -- ./inp_files/4440.got.cif
#   From: 2010.05.17/outbox.cif.g08.bks.cpg/sg193_3_cif.got.tgz:4440.got - 2010.05.20 12:33:02.
