data_PCOD9588548
_publ_section_title
;
Structure prediction by ZEFSAII (Michael W. Deem and Ramdas Pophale) SiO2 
 PCOD9588548
Probable space group: P 6/M C C
;
_chemical_formula_sum "Si O2"
_cell_formula_units_Z 80
_cell_length_a 19.688746
_cell_length_b 19.688746
_cell_length_c 13.959520
_cell_angle_alpha 90.000000
_cell_angle_beta 90.000000
_cell_angle_gamma 120.000000
_cell_volume 4686.377072
_symmetry_space_group_name_H-M "P 6/M C C"
_symmetry_group_IT_number 192
_symmetry_cell_setting 'hexagonal'
loop_
_space_group_symop_operation_xyz
x,y,z
x-y,x,z
-y,x-y,z
-x,-y,z
-x+y,-x,z
y,-x+y,z
x-y,-y,1/2-z
-x,-x+y,1/2-z
y,x,1/2-z
-y,-x,1/2-z
-x+y,y,1/2-z
x,x-y,1/2-z
-x,-y,-z
-x+y,-x,-z
y,-x+y,-z
x,y,-z
x-y,x,-z
-y,x-y,-z
-x+y,y,1/2+z
x,x-y,1/2+z
-y,-x,1/2+z
y,x,1/2+z
x-y,-y,1/2+z
-x,-x+y,1/2+z
loop_
_atom_site_type_symbol
_atom_site_label
_atom_site_fract_x
_atom_site_fract_y
_atom_site_fract_z
Si Si1 0.161538 0.999992 0.500000
Si Si2 0.406535 0.813061 0.500000
Si Si3 0.413813 0.288124 0.000000
Si Si4 0.333334 0.666668 0.136280
Si Si5 0.874324 0.586179 0.500000
Si Si6 0.999998 0.712227 0.863522
O O1 0.212424 0.999991 0.590897
O O2 0.077697 0.922292 0.500000
O O3 0.499933 0.862769 0.500000
O O4 0.376899 0.753795 0.409165
O O5 0.362852 0.862776 0.500000
O O6 0.420889 0.210437 0.000000
O O7 0.363059 0.287580 0.909061
O O8 0.333334 0.666667 0.250000
O O9 0.924535 0.636932 0.590939
O O10 0.000000 0.712444 0.750000
#
# Coordination Sequence:
#
# PCOD9588548 Si02
#       6
#    12  12  12   8  12  24
#     4  10  21  38  60  85 114 146 184 230 286 333
#     4  10  20  39  56  82 118 146 184 238 282 333
#     4  10  20  38  59  79 110 153 183 228 288 332
#     4  10  20  34  55  86 115 145 188 232 283 338
#     4  10  20  38  59  79 110 153 183 228 288 332
#     4  10  22  37  57  84 112 147 192 230 271 335
#
# _framework density 17.070755999999999
#
# number of rings (size 3 to 8) (size 9 to 14) (size 15 to 20)
#    0.000    2.400    3.000    3.750    0.000    9.600 
#    0.000    1.500    0.000    1.800    0.000    0.000 
#    0.000    0.000    0.000    0.000    0.000    0.000 
#
# Total GULP energy -446374.775985 kJ/mol
# GULP energy per Si atom -5579.684700 kJ/mol
# Density = 1.703190 g / cm^3
# Si number density = 17.070756 Si / 1000 Ang^3
#
#
#
# Elastic Constant Matrix: (Units=GPa)
#
#
# Indices 1 2 3 4 5 6 
#
# 1 149.9103 99.0356 61.3186 0.0000 0.0000 0.0000
# 2 99.0356 149.9105 61.3186 0.0000 0.0000 0.0000
# 3 61.3186 61.3186 191.4568 -0.0002 -0.0001 0.0000
# 4 0.0000 0.0000 -0.0002 2.0400 0.0000 0.0000
# 5 0.0000 0.0000 -0.0001 0.0000 2.0400 0.0000
# 6 0.0000 0.0000 0.0000 0.0000 0.0000 25.4373
#
#
#
# Elastic Compliance Matrix: (Units=1/GPa)
#
#
# Indices 1 2 3 4 5 6 
#
# 1 0.012213 -0.007443 -0.001528 0.000000 0.000000 0.000000
# 2 -0.007443 0.012213 -0.001528 0.000000 0.000000 0.000000
# 3 -0.001528 -0.001528 0.006202 0.000001 0.000000 0.000000
# 4 0.000000 0.000000 0.000001 0.490200 0.000000 0.000000
# 5 0.000000 0.000000 0.000000 0.000000 0.490207 0.000000
# 6 0.000000 0.000000 0.000000 0.000000 0.000000 0.039312
#
#
# Mechanical properties :
#
#
# Convention : Reuss Voigt Hill
#
# Bulk Modulus (GPa) = 103.83860 103.84703 103.84282
# Shear Modulus (GPa) = 4.65310 23.87709 14.26509
#
# Velocity S-wave (km/s) = 1.65278 3.74399 2.89389
# Velocity P-wave (km/s) = 8.03758 8.92498 8.49288
#
# Compressibility (1/GPa) = 0.00963033
#
# Stress axis : x y z
#
# Youngs Moduli (GPa) = 81.88140 81.88151 161.24967
#
# Poissons Ratio (x) = 0.60947 0.24631
# Poissons Ratio (y) = 0.60947 0.24631
# Poissons Ratio (z) = 0.12508 0.12508
#
# Static dielectric constant tensor:
#      x y z
#    x 1.573710 0.000000 0.000000 
#    y 0.000000 1.573710 0.000000 
#    z 0.000000 0.000000 1.549190 
# 
# From -- ./inp_files/2689.got.cif
#   From: 2010.05.17/outbox.cif.g08.bks.cpg/sg192_2_cif.got.tgz:2689.got - 2010.05.20 12:28:01.
