data_PCOD9588614
_publ_section_title
;
Structure prediction by ZEFSAII (Michael W. Deem and Ramdas Pophale) SiO2 
 PCOD9588614
Probable space group: P 6/M C C
;
_chemical_formula_sum "Si O2"
_cell_formula_units_Z 104
_cell_length_a 18.444212
_cell_length_b 18.444212
_cell_length_c 20.796431
_cell_angle_alpha 90.000000
_cell_angle_beta 90.000000
_cell_angle_gamma 120.000000
_cell_volume 6126.883916
_symmetry_space_group_name_H-M "P 6/M C C"
_symmetry_group_IT_number 192
_symmetry_cell_setting 'hexagonal'
loop_
_space_group_symop_operation_xyz
x,y,z
x-y,x,z
-y,x-y,z
-x,-y,z
-x+y,-x,z
y,-x+y,z
x-y,-y,1/2-z
-x,-x+y,1/2-z
y,x,1/2-z
-y,-x,1/2-z
-x+y,y,1/2-z
x,x-y,1/2-z
-x,-y,-z
-x+y,-x,-z
y,-x+y,-z
x,y,-z
x-y,x,-z
-y,x-y,-z
-x+y,y,1/2+z
x,x-y,1/2+z
-y,-x,1/2+z
y,x,1/2+z
x-y,-y,1/2+z
-x,-x+y,1/2+z
loop_
_atom_site_type_symbol
_atom_site_label
_atom_site_fract_x
_atom_site_fract_y
_atom_site_fract_z
Si Si1 0.320542 0.319772 0.000000
Si Si2 0.325002 0.000000 0.750000
Si Si3 0.815886 0.636645 0.500000
Si Si4 0.480549 0.261109 0.378777
Si Si5 0.377893 0.188947 0.250000
Si Si6 0.567015 0.597452 0.376571
Si Si7 0.666667 0.333333 0.421497
O O1 0.232333 0.316683 0.000000
O O2 0.308726 0.228404 0.000000
O O3 0.372620 0.372019 0.061999
O O4 0.324681 0.087628 0.752474
O O5 0.376486 0.000396 0.812711
O O6 0.786138 0.578457 0.437250
O O7 0.437920 0.215689 0.312391
O O8 0.479866 0.348463 0.378081
O O9 0.572938 0.279699 0.394232
O O10 0.500000 0.500000 0.378259
O O11 0.666667 0.333334 0.500000
#
# Coordination Sequence:
#
# PCOD9588614 Si02
#       7
#    12  12  12  24  12  24   8
#     4  10  21  34  58  77 108 136 182 230 270 337
#     4  10  21  38  58  79 110 144 178 230 272 339
#     4  10  20  38  54  83 104 142 183 226 282 332
#     4  10  23  36  54  79 109 144 190 223 279 321
#     4  10  22  40  58  83 110 144 187 228 282 332
#     4  10  21  35  54  79 104 143 182 225 271 319
#     4  12  24  37  56  76 114 157 185 241 270 313
#
# _framework density 16.974371000000001
#
# number of rings (size 3 to 8) (size 9 to 14) (size 15 to 20)
#    0.000    1.846    1.154    2.077    6.462    0.923 
#    0.000    0.000    0.000    0.462    0.000    0.000 
#    0.000   11.077    0.000    0.000    0.000    1.846 
#
# Total GULP energy -580624.601263 kJ/mol
# GULP energy per Si atom -5582.928858 kJ/mol
# Density = 1.693574 g / cm^3
# Si number density = 16.974371 Si / 1000 Ang^3
#
#
#
# Elastic Constant Matrix: (Units=GPa)
#
#
# Indices 1 2 3 4 5 6 
#
# 1 103.3749 79.8500 43.8204 0.0000 0.0000 -0.0002
# 2 79.8500 103.3742 43.8204 0.0000 0.0000 -0.0001
# 3 43.8204 43.8204 153.1637 0.0000 0.0000 0.0000
# 4 0.0000 0.0000 0.0000 14.6574 0.0000 0.0000
# 5 0.0000 0.0000 0.0000 0.0000 14.6574 0.0000
# 6 -0.0002 -0.0001 0.0000 0.0000 0.0000 11.7623
#
#
#
# Elastic Compliance Matrix: (Units=1/GPa)
#
#
# Indices 1 2 3 4 5 6 
#
# 1 0.024416 -0.018093 -0.001809 0.000000 0.000000 0.000000
# 2 -0.018093 0.024416 -0.001809 0.000000 0.000000 0.000000
# 3 -0.001809 -0.001809 0.007564 0.000000 0.000000 0.000000
# 4 0.000000 0.000000 0.000000 0.068225 0.000000 0.000000
# 5 0.000000 0.000000 0.000000 0.000000 0.068225 0.000000
# 6 0.000000 0.000000 0.000000 0.000000 0.000000 0.085017
#
#
# Mechanical properties :
#
#
# Convention : Reuss Voigt Hill
#
# Bulk Modulus (GPa) = 77.07662 77.21049 77.14356
# Shear Modulus (GPa) = 15.35580 21.04355 18.19967
#
# Velocity S-wave (km/s) = 3.01100 3.52479 3.27798
# Velocity P-wave (km/s) = 7.58909 7.88358 7.73774
#
# Compressibility (1/GPa) = 0.01297410
#
# Stress axis : x y z
#
# Youngs Moduli (GPa) = 40.95696 40.95661 132.20334
#
# Poissons Ratio (x) = 0.74102 0.23916
# Poissons Ratio (y) = 0.74103 0.23917
# Poissons Ratio (z) = 0.07409 0.07409
#
# Static dielectric constant tensor:
#      x y z
#    x 1.562740 0.000000 0.000000 
#    y 0.000000 1.562740 0.000000 
#    z 0.000000 0.000000 1.572520 
# 
# From -- ./inp_files/4929.got.cif
#   From: 2010.05.17/outbox.cif.g08.bks.cpg/sg192_3_cif.got.tgz:4929.got - 2010.05.20 12:28:01.
