data_PCOD9588906
_publ_section_title
;
Structure prediction by ZEFSAII (Michael W. Deem and Ramdas Pophale) SiO2 
 PCOD9588906
Probable space group: P 63/M C M
;
_chemical_formula_sum "Si O2"
_cell_formula_units_Z 96
_cell_length_a 29.986975
_cell_length_b 29.986975
_cell_length_c 7.901074
_cell_angle_alpha 90.000000
_cell_angle_beta 90.000000
_cell_angle_gamma 120.000000
_cell_volume 6152.931444
_symmetry_space_group_name_H-M "P 63/M C M"
_symmetry_group_IT_number 193
_symmetry_cell_setting 'hexagonal'
loop_
_space_group_symop_operation_xyz
x,y,z
x-y,x,1/2+z
-y,x-y,z
-x,-y,1/2+z
-x+y,-x,z
y,-x+y,1/2+z
x-y,-y,1/2-z
-x,-x+y,1/2-z
y,x,1/2-z
-y,-x,-z
-x+y,y,-z
x,x-y,-z
-x,-y,-z
-x+y,-x,1/2-z
y,-x+y,-z
x,y,1/2-z
x-y,x,-z
-y,x-y,1/2-z
-x+y,y,1/2+z
x,x-y,1/2+z
-y,-x,1/2+z
y,x,z
x-y,-y,z
-x,-x+y,z
loop_
_atom_site_type_symbol
_atom_site_label
_atom_site_fract_x
_atom_site_fract_y
_atom_site_fract_z
Si Si1 0.136298 0.759958 0.948043
Si Si2 0.387221 0.445442 0.250000
Si Si3 0.662453 0.721788 0.750000
Si Si4 0.666023 0.234162 0.449604
Si Si5 0.350548 0.871768 0.437880
O O1 0.124759 0.763904 0.750000
O O2 0.141165 0.708574 0.962630
O O3 0.189558 0.810443 0.000000
O O4 0.091789 0.750954 0.082135
O O5 0.432598 0.432598 0.250000
O O6 0.333448 0.390587 0.250000
O O7 0.384732 0.474064 0.416923
O O8 0.707933 0.707933 0.750000
O O9 0.723088 0.276913 0.500000
O O10 0.626602 0.253204 0.500000
O O11 0.663741 0.224861 0.250000
O O12 0.649378 0.181118 0.543784
O O13 0.366643 0.893581 0.250000
#
# Coordination Sequence:
#
# PCOD9588906 Si02
#       5
#    24  12  12  24  24
#     4  10  18  28  47  70  95 124 160 199 241 290
#     4   9  18  34  54  76 102 131 159 197 243 289
#     4   9  18  30  44  66  97 125 157 199 246 289
#     4  12  24  39  56  78 104 133 161 195 236 291
#     4  10  20  34  53  79 102 130 162 198 239 286
#
# _framework density 15.602320000000001
#
# number of rings (size 3 to 8) (size 9 to 14) (size 15 to 20)
#    0.000    1.750    2.500    3.250    0.000    3.000 
#    0.000    5.000    0.000    0.750    0.000    0.000 
#    0.000    0.000    0.000    0.000    0.000    0.000 
#
# Total GULP energy -535837.395746 kJ/mol
# GULP energy per Si atom -5581.639539 kJ/mol
# Density = 1.556681 g / cm^3
# Si number density = 15.602320 Si / 1000 Ang^3
#
#
#
# Elastic Constant Matrix: (Units=GPa)
#
#
# Indices 1 2 3 4 5 6 
#
# 1 23.9602 10.9760 17.2259 0.0000 0.0000 0.0000
# 2 10.9760 23.9602 17.2259 0.0000 0.0000 0.0000
# 3 17.2259 17.2259 118.4361 0.0000 0.0000 0.0000
# 4 0.0000 0.0000 0.0000 11.8865 0.0000 0.0000
# 5 0.0000 0.0000 0.0000 0.0000 11.8865 0.0000
# 6 0.0000 0.0000 0.0000 0.0000 0.0000 6.4921
#
#
#
# Elastic Compliance Matrix: (Units=1/GPa)
#
#
# Indices 1 2 3 4 5 6 
#
# 1 0.055217 -0.021800 -0.004860 0.000000 0.000000 0.000000
# 2 -0.021800 0.055217 -0.004860 0.000000 0.000000 0.000000
# 3 -0.004860 -0.004860 0.009857 0.000000 0.000000 0.000000
# 4 0.000000 0.000000 0.000000 0.084129 0.000000 0.000000
# 5 0.000000 0.000000 0.000000 0.000000 0.084129 0.000000
# 6 0.000000 0.000000 0.000000 0.000000 0.000000 0.154033
#
#
# Mechanical properties :
#
#
# Convention : Reuss Voigt Hill
#
# Bulk Modulus (GPa) = 17.46755 28.57912 23.02333
# Shear Modulus (GPa) = 9.52916 14.11496 11.82206
#
# Velocity S-wave (km/s) = 2.47402 3.01104 2.75564
# Velocity P-wave (km/s) = 4.40237 5.51774 4.99131
#
# Compressibility (1/GPa) = 0.05724903
#
# Stress axis : x y z
#
# Youngs Moduli (GPa) = 18.11053 18.11053 101.44914
#
# Poissons Ratio (x) = 0.39481 0.49307
# Poissons Ratio (y) = 0.39481 0.49307
# Poissons Ratio (z) = 0.08802 0.08802
#
# Static dielectric constant tensor:
#      x y z
#    x 1.498530 0.000000 0.000000 
#    y 0.000000 1.498530 0.000000 
#    z 0.000000 0.000000 1.553080 
# 
# From -- ./inp_files/1255.got.cif
#   From: 2010.05.17/outbox.cif.g08.bks.cpg/sg193_1_cif.got.tgz:1255.got - 2010.05.20 12:33:02.
