data_PCOD9588694
_publ_section_title
;
Structure prediction by ZEFSAII (Michael W. Deem and Ramdas Pophale) SiO2 
 PCOD9588694
Probable space group: P 6/M C C
;
_chemical_formula_sum "Si O2"
_cell_formula_units_Z 168
_cell_length_a 23.018688
_cell_length_b 23.018688
_cell_length_c 22.618656
_cell_angle_alpha 90.000000
_cell_angle_beta 90.000000
_cell_angle_gamma 120.000000
_cell_volume 10379.072848
_symmetry_space_group_name_H-M "P 6/M C C"
_symmetry_group_IT_number 192
_symmetry_cell_setting 'hexagonal'
loop_
_space_group_symop_operation_xyz
x,y,z
x-y,x,z
-y,x-y,z
-x,-y,z
-x+y,-x,z
y,-x+y,z
x-y,-y,1/2-z
-x,-x+y,1/2-z
y,x,1/2-z
-y,-x,1/2-z
-x+y,y,1/2-z
x,x-y,1/2-z
-x,-y,-z
-x+y,-x,-z
y,-x+y,-z
x,y,-z
x-y,x,-z
-y,x-y,-z
-x+y,y,1/2+z
x,x-y,1/2+z
-y,-x,1/2+z
y,x,1/2+z
x-y,-y,1/2+z
-x,-x+y,1/2+z
loop_
_atom_site_type_symbol
_atom_site_label
_atom_site_fract_x
_atom_site_fract_y
_atom_site_fract_z
Si Si1 0.448945 0.228209 0.068863
Si Si2 0.502088 0.144187 0.874770
Si Si3 0.994623 0.248614 0.571177
Si Si4 0.391054 0.386549 0.570993
Si Si5 0.150927 0.857319 0.572330
Si Si6 0.804978 0.334421 0.746984
Si Si7 0.370704 0.500276 0.620015
O O1 0.496084 0.206336 0.101586
O O2 0.371934 0.183682 0.090052
O O3 0.474960 0.305868 0.078968
O O4 0.448756 0.213504 0.000000
O O5 0.443354 0.077529 0.904572
O O6 0.497306 0.147673 0.804010
O O7 0.571802 0.148229 0.890718
O O8 0.995355 0.242465 0.500000
O O9 0.991561 0.316181 0.581905
O O10 0.065844 0.259597 0.592687
O O11 0.926159 0.184568 0.592521
O O12 0.399210 0.398308 0.500000
O O13 0.399522 0.451231 0.605409
O O14 0.150673 0.857363 0.500000
O O15 0.739131 0.260870 0.750000
O O16 0.783614 0.391807 0.750000
O O17 0.846558 0.345512 0.686889
#
# Coordination Sequence:
#
# PCOD9588694 Si02
#       7
#    24  24  24  24  24  24  24
#     4  11  20  33  53  77 108 138 174 221 273 334
#     4  11  23  37  55  77 104 140 182 225 273 325
#     4   9  16  27  47  72 100 135 170 205 251 312
#     4  11  21  35  55  80 111 143 171 214 279 339
#     4   9  16  28  47  72 101 134 170 206 249 311
#     4  10  21  39  59  75  97 138 189 233 269 317
#     4  11  23  37  55  77 104 140 182 225 273 325
#
# _framework density 16.186416999999999
#
# number of rings (size 3 to 8) (size 9 to 14) (size 15 to 20)
#    0.000    1.714    4.286    1.429    0.000    3.429 
#    0.857    2.143    0.000    0.286    0.000    2.000 
#    0.000    0.000    0.000    0.000    0.000    0.000 
#
# Total GULP energy -936827.418264 kJ/mol
# GULP energy per Si atom -5576.353680 kJ/mol
# Density = 1.614958 g / cm^3
# Si number density = 16.186417 Si / 1000 Ang^3
#
#
#
# Elastic Constant Matrix: (Units=GPa)
#
#
# Indices 1 2 3 4 5 6 
#
# 1 67.1275 19.8639 12.8998 0.0000 0.0000 0.0000
# 2 19.8639 67.1275 12.8998 0.0000 0.0000 0.0000
# 3 12.8998 12.8998 42.4481 0.0000 0.0000 0.0000
# 4 0.0000 0.0000 0.0000 17.2816 0.0000 0.0000
# 5 0.0000 0.0000 0.0000 0.0000 17.2816 0.0000
# 6 0.0000 0.0000 0.0000 0.0000 0.0000 23.6318
#
#
#
# Elastic Compliance Matrix: (Units=1/GPa)
#
#
# Indices 1 2 3 4 5 6 
#
# 1 0.016896 -0.004262 -0.003839 0.000000 0.000000 0.000000
# 2 -0.004262 0.016896 -0.003839 0.000000 0.000000 0.000000
# 3 -0.003839 -0.003839 0.025892 0.000000 0.000000 0.000000
# 4 0.000000 0.000000 0.000000 0.057865 0.000000 0.000000
# 5 0.000000 0.000000 0.000000 0.000000 0.057865 0.000000
# 6 0.000000 0.000000 0.000000 0.000000 0.000000 0.042316
#
#
# Mechanical properties :
#
#
# Convention : Reuss Voigt Hill
#
# Bulk Modulus (GPa) = 27.93129 29.78113 28.85621
# Shear Modulus (GPa) = 19.72033 20.37497 20.04765
#
# Velocity S-wave (km/s) = 3.49424 3.55176 3.52312
# Velocity P-wave (km/s) = 5.79423 5.93791 5.86651
#
# Compressibility (1/GPa) = 0.03580214
#
# Stress axis : x y z
#
# Youngs Moduli (GPa) = 59.18558 59.18558 38.62229
#
# Poissons Ratio (x) = 0.25225 0.14829
# Poissons Ratio (y) = 0.25225 0.14829
# Poissons Ratio (z) = 0.22724 0.22724
#
# Static dielectric constant tensor:
#      x y z
#    x 1.544080 0.000000 0.000000 
#    y 0.000000 1.544080 0.000000 
#    z 0.000000 0.000000 1.528040 
# 
# From -- ./inp_files/6019.got.cif
#   From: 2010.05.17/outbox.cif.g08.bks.cpg/sg192_4_cif.got.tgz:6019.got - 2010.05.20 12:28:01.
