data_PCOD9588382
_publ_section_title
;
Structure prediction by ZEFSAII (Michael W. Deem and Ramdas Pophale) SiO2 
 PCOD9588382
Probable space group: P 6/M C C
;
_chemical_formula_sum "Si O2"
_cell_formula_units_Z 152
_cell_length_a 24.901529
_cell_length_b 24.901529
_cell_length_c 15.984327
_cell_angle_alpha 90.000000
_cell_angle_beta 90.000000
_cell_angle_gamma 120.000000
_cell_volume 8583.749124
_symmetry_space_group_name_H-M "P 6/M C C"
_symmetry_group_IT_number 192
_symmetry_cell_setting 'hexagonal'
loop_
_space_group_symop_operation_xyz
x,y,z
x-y,x,z
-y,x-y,z
-x,-y,z
-x+y,-x,z
y,-x+y,z
x-y,-y,1/2-z
-x,-x+y,1/2-z
y,x,1/2-z
-y,-x,1/2-z
-x+y,y,1/2-z
x,x-y,1/2-z
-x,-y,-z
-x+y,-x,-z
y,-x+y,-z
x,y,-z
x-y,x,-z
-y,x-y,-z
-x+y,y,1/2+z
x,x-y,1/2+z
-y,-x,1/2+z
y,x,1/2+z
x-y,-y,1/2+z
-x,-x+y,1/2+z
loop_
_atom_site_type_symbol
_atom_site_label
_atom_site_fract_x
_atom_site_fract_y
_atom_site_fract_z
Si Si1 0.333334 0.666667 0.600919
Si Si2 0.099603 0.962717 0.099484
Si Si3 0.819370 0.295836 0.405901
Si Si4 0.842487 0.300922 0.095672
Si Si5 0.065051 0.819595 0.704953
Si Si6 0.385022 0.127880 0.259168
Si Si7 0.394442 0.803163 0.651399
O O1 0.333334 0.666668 0.500000
O O2 0.344067 0.731329 0.635589
O O3 0.150440 0.942950 0.120455
O O4 0.031536 0.911918 0.132035
O O5 0.094839 0.964747 0.000000
O O6 0.842655 0.297180 0.500000
O O7 0.754955 0.229791 0.398442
O O8 0.862417 0.295977 0.331473
O O9 0.811058 0.355257 0.393199
O O10 0.880274 0.288685 0.168245
O O11 0.841936 0.364178 0.115134
O O12 0.862478 0.300531 0.000000
O O13 0.122550 0.877450 0.750000
O O14 0.080257 0.764157 0.709363
O O15 0.000000 0.795293 0.750000
O O16 0.386267 0.193134 0.250000
O O17 0.407164 0.814328 0.750000
#
# Coordination Sequence:
#
# PCOD9588382 Si02
#       7
#     8  24  24  24  24  24  24
#     4  12  22  26  34  63 100 137 181 220 269 343
#     4  10  20  35  57  89 128 162 190 218 257 313
#     4  10  19  31  46  67  99 139 183 227 275 335
#     4  10  19  32  47  67 101 142 182 229 283 342
#     4  11  21  37  60  85 113 145 182 223 265 314
#     4   9  20  35  49  72 102 139 185 227 270 325
#     4  12  20  28  43  67  99 141 183 226 284 343
#
# _framework density 17.707878999999998
#
# number of rings (size 3 to 8) (size 9 to 14) (size 15 to 20)
#    0.000    1.579    4.737    2.053    0.000    1.263 
#    0.000    3.158    0.000    0.000    0.000    2.211 
#    0.000    2.526    0.000    0.000    0.000    0.000 
#
# Total GULP energy -846850.639810 kJ/mol
# GULP energy per Si atom -5571.385788 kJ/mol
# Density = 1.766758 g / cm^3
# Si number density = 17.707879 Si / 1000 Ang^3
#
#
#
# Elastic Constant Matrix: (Units=GPa)
#
#
# Indices 1 2 3 4 5 6 
#
# 1 59.2393 30.7163 29.7781 0.0000 0.0000 0.0000
# 2 30.7163 59.2390 29.7778 0.0000 0.0001 -0.0003
# 3 29.7781 29.7778 112.3976 0.0001 0.0000 -0.0001
# 4 0.0000 0.0000 0.0001 14.9801 0.0000 0.0000
# 5 0.0000 0.0001 0.0000 0.0000 14.9801 0.0000
# 6 0.0000 -0.0003 -0.0001 0.0000 0.0000 14.2612
#
#
#
# Elastic Compliance Matrix: (Units=1/GPa)
#
#
# Indices 1 2 3 4 5 6 
#
# 1 0.024270 -0.010789 -0.003572 0.000000 0.000000 0.000000
# 2 -0.010789 0.024270 -0.003572 0.000000 0.000000 0.000000
# 3 -0.003572 -0.003572 0.010789 0.000000 0.000000 0.000000
# 4 0.000000 0.000000 0.000000 0.066755 0.000000 0.000000
# 5 0.000000 0.000000 0.000000 0.000000 0.066755 0.000000
# 6 0.000000 0.000000 0.000000 0.000000 0.000000 0.070120
#
#
# Mechanical properties :
#
#
# Convention : Reuss Voigt Hill
#
# Bulk Modulus (GPa) = 42.61588 45.71336 44.16462
# Shear Modulus (GPa) = 16.30536 18.21787 17.26161
#
# Velocity S-wave (km/s) = 3.03776 3.21097 3.12556
# Velocity P-wave (km/s) = 6.03508 6.29432 6.16606
#
# Compressibility (1/GPa) = 0.02346543
#
# Stress axis : x y z
#
# Youngs Moduli (GPa) = 41.20247 41.20233 92.68280
#
# Poissons Ratio (x) = 0.44454 0.33103
# Poissons Ratio (y) = 0.44454 0.33103
# Poissons Ratio (z) = 0.14716 0.14716
#
# Static dielectric constant tensor:
#      x y z
#    x 1.623810 0.000000 0.000000 
#    y 0.000000 1.623810 0.000000 
#    z 0.000000 0.000000 1.621330 
# 
# From -- ./inp_files/3390.got.cif
#   From: 2010.05.17/outbox.cif.g08.bks.cpg/sg192_2_cif.got.tgz:3390.got - 2010.05.20 12:28:01.
