data_PCOD9588620
_publ_section_title
;
Structure prediction by ZEFSAII (Michael W. Deem and Ramdas Pophale) SiO2 
 PCOD9588620
Probable space group: P 6/M C C
;
_chemical_formula_sum "Si O2"
_cell_formula_units_Z 132
_cell_length_a 18.365011
_cell_length_b 18.365011
_cell_length_c 22.118865
_cell_angle_alpha 90.000000
_cell_angle_beta 90.000000
_cell_angle_gamma 120.000000
_cell_volume 6460.644661
_symmetry_space_group_name_H-M "P 6/M C C"
_symmetry_group_IT_number 192
_symmetry_cell_setting 'hexagonal'
loop_
_space_group_symop_operation_xyz
x,y,z
x-y,x,z
-y,x-y,z
-x,-y,z
-x+y,-x,z
y,-x+y,z
x-y,-y,1/2-z
-x,-x+y,1/2-z
y,x,1/2-z
-y,-x,1/2-z
-x+y,y,1/2-z
x,x-y,1/2-z
-x,-y,-z
-x+y,-x,-z
y,-x+y,-z
x,y,-z
x-y,x,-z
-y,x-y,-z
-x+y,y,1/2+z
x,x-y,1/2+z
-y,-x,1/2+z
y,x,1/2+z
x-y,-y,1/2+z
-x,-x+y,1/2+z
loop_
_atom_site_type_symbol
_atom_site_label
_atom_site_fract_x
_atom_site_fract_y
_atom_site_fract_z
Si Si1 0.050597 0.873024 0.318166
Si Si2 0.721691 0.442527 0.500000
Si Si3 0.104096 0.738562 0.334180
Si Si4 0.831878 0.555143 0.396203
Si Si5 0.417942 0.408256 0.068292
Si Si6 0.826971 0.493422 0.733764
O O1 0.083933 0.916068 0.250000
O O2 0.057061 0.789288 0.318211
O O3 0.960617 0.843666 0.348866
O O4 0.622147 0.380144 0.500000
O O5 0.755806 0.497370 0.440459
O O6 0.188493 0.809833 0.366987
O O7 0.126057 0.704172 0.273669
O O8 0.060715 0.660672 0.380474
O O9 0.918329 0.584482 0.430424
O O10 0.836349 0.506855 0.337353
O O11 0.500000 0.500000 0.080403
O O12 0.428812 0.383312 0.000000
O O13 0.729203 0.458405 0.750000
O O14 0.855995 0.427998 0.750000
#
# Coordination Sequence:
#
# PCOD9588620 Si02
#       6
#    24  12  24  24  24  24
#     4  10  20  38  65  96 127 161 205 260 331 404
#     4  10  26  36  63  87 119 164 209 268 319 352
#     4  11  24  40  62  90 130 170 204 261 323 384
#     4  11  23  41  60  88 123 157 216 253 315 372
#     4  11  25  40  63  89 123 168 217 265 308 371
#     4  10  22  36  59  87 123 167 212 261 312 371
#
# _framework density 20.431398000000002
#
# number of rings (size 3 to 8) (size 9 to 14) (size 15 to 20)
#    0.182    1.273    0.909    4.182    8.909    2.909 
#    0.000    1.818    0.000    0.000    0.000    0.000 
#    0.000    2.909    0.000    0.000    0.000    0.000 
#
# Total GULP energy -735500.326935 kJ/mol
# GULP energy per Si atom -5571.972174 kJ/mol
# Density = 2.038490 g / cm^3
# Si number density = 20.431398 Si / 1000 Ang^3
#
#
#
# Elastic Constant Matrix: (Units=GPa)
#
#
# Indices 1 2 3 4 5 6 
#
# 1 66.2046 17.8268 11.6564 0.0000 0.0000 0.0000
# 2 17.8268 66.2046 11.6564 0.0000 0.0000 0.0000
# 3 11.6564 11.6564 106.8746 0.0000 0.0000 0.0000
# 4 0.0000 0.0000 0.0000 -16.7376 0.0000 0.0000
# 5 0.0000 0.0000 0.0000 0.0000 -16.7376 0.0000
# 6 0.0000 0.0000 0.0000 0.0000 0.0000 24.1889
#
#
#
# Elastic Compliance Matrix: (Units=1/GPa)
#
#
# Indices 1 2 3 4 5 6 
#
# 1 0.016471 -0.004200 -0.001338 0.000000 0.000000 0.000000
# 2 -0.004200 0.016471 -0.001338 0.000000 0.000000 0.000000
# 3 -0.001338 -0.001338 0.009649 0.000000 0.000000 0.000000
# 4 0.000000 0.000000 0.000000 -0.059746 0.000000 0.000000
# 5 0.000000 0.000000 0.000000 0.000000 -0.059746 0.000000
# 6 0.000000 0.000000 0.000000 0.000000 0.000000 0.041341
#
#
# Mechanical properties :
#
#
# Convention : Reuss Voigt Hill
#
# Bulk Modulus (GPa) = 34.67610 35.72922 35.20266
# Shear Modulus (GPa) = -410.04203 11.35235 -199.34484
#
# Velocity S-wave (km/s) = -14.18195 2.35974 -9.88836
# Velocity P-wave (km/s) = 15.84808 4.99499 10.63512
#
# Compressibility (1/GPa) = 0.02883830
#
# Stress axis : x y z
#
# Youngs Moduli (GPa) = 60.71223 60.71223 103.64077
#
# Poissons Ratio (x) = 0.25496 0.13872
# Poissons Ratio (y) = 0.25496 0.13872
# Poissons Ratio (z) = 0.08126 0.08126
#
# Static dielectric constant tensor:
#      x y z
#    x 1.756910 0.000000 0.000000 
#    y 0.000000 1.756910 0.000000 
#    z 0.000000 0.000000 1.306500 
# 
# From -- ./inp_files/5846.got.cif
#   From: 2010.05.17/outbox.cif.g08.bks.cpg/sg192_3_cif.got.tgz:5846.got - 2010.05.20 12:28:01.
