data_PCOD9588071
_publ_section_title
;
Structure prediction by ZEFSAII (Michael W. Deem and Ramdas Pophale) SiO2 
 PCOD9588071
Probable space group: P 6/M M M
;
_chemical_formula_sum "Si O2"
_cell_formula_units_Z 60
_cell_length_a 20.989157
_cell_length_b 20.989157
_cell_length_c 7.916298
_cell_angle_alpha 90.000000
_cell_angle_beta 90.000000
_cell_angle_gamma 120.000000
_cell_volume 3020.249063
_symmetry_space_group_name_H-M "P 6/M M M"
_symmetry_group_IT_number 191
_symmetry_cell_setting 'hexagonal'
loop_
_space_group_symop_operation_xyz
x,y,z
x-y,x,z
-y,x-y,z
-x,-y,z
-x+y,-x,z
y,-x+y,z
x-y,-y,-z
-x,-x+y,-z
y,x,-z
-y,-x,-z
-x+y,y,-z
x,x-y,-z
-x,-y,-z
-x+y,-x,-z
y,-x+y,-z
x,y,-z
x-y,x,-z
-y,x-y,-z
-x+y,y,z
x,x-y,z
-y,-x,z
y,x,z
x-y,-y,z
-x,-x+y,z
loop_
_atom_site_type_symbol
_atom_site_label
_atom_site_fract_x
_atom_site_fract_y
_atom_site_fract_z
Si Si1 0.145604 0.436525 0.296675
Si Si2 0.542598 0.085195 0.201619
Si Si3 0.000000 0.707786 0.297706
Si Si4 0.000000 0.145392 0.204420
O O1 0.146753 0.431067 0.500000
O O2 0.222725 0.445450 0.233875
O O3 0.128530 0.501166 0.256297
O O4 0.074694 0.361832 0.231458
O O5 0.500000 0.000000 0.267296
O O6 0.540366 0.080732 0.000000
O O7 0.000000 0.698450 0.500000
O O8 0.000000 0.782069 0.260639
O O9 0.072907 0.145814 0.263814
O O10 0.000000 0.143939 0.000000
#
# Coordination Sequence:
#
# PCOD9588071 Si02
#       4
#    24  12  12  12
#     4  10  21  38  62  89 116 151 194 239 289 346
#     4  11  23  39  61  89 121 157 197 241 295 353
#     4  10  20  36  60  87 115 143 184 241 290 333
#     4  10  21  36  53  75 108 151 193 231 276 334
#
# _framework density 19.865912999999999
#
# number of rings (size 3 to 8) (size 9 to 14) (size 15 to 20)
#    0.000    1.800    2.000    2.000    0.000    6.400 
#    1.200    0.000    0.000    1.200    0.000    0.000 
#    0.000    0.000    0.000    0.000    0.000    0.000 
#
# Total GULP energy -335148.290764 kJ/mol
# GULP energy per Si atom -5585.804846 kJ/mol
# Density = 1.982070 g / cm^3
# Si number density = 19.865913 Si / 1000 Ang^3
#
#
#
# Elastic Constant Matrix: (Units=GPa)
#
#
# Indices 1 2 3 4 5 6 
#
# 1 210.3541 140.6284 4.9215 0.0000 0.0000 0.0000
# 2 140.6284 210.3541 4.9215 0.0000 0.0000 0.0000
# 3 4.9215 4.9215 17.8663 0.0000 0.0000 0.0000
# 4 0.0000 0.0000 0.0000 25.6126 0.0000 0.0000
# 5 0.0000 0.0000 0.0000 0.0000 25.6126 0.0000
# 6 0.0000 0.0000 0.0000 0.0000 0.0000 34.8629
#
#
#
# Elastic Compliance Matrix: (Units=1/GPa)
#
#
# Indices 1 2 3 4 5 6 
#
# 1 0.008607 -0.005735 -0.000791 0.000000 0.000000 0.000000
# 2 -0.005735 0.008607 -0.000791 0.000000 0.000000 0.000000
# 3 -0.000791 -0.000791 0.056407 0.000000 0.000000 0.000000
# 4 0.000000 0.000000 0.000000 0.039043 0.000000 0.000000
# 5 0.000000 0.000000 0.000000 0.000000 0.039043 0.000000
# 6 0.000000 0.000000 0.000000 0.000000 0.000000 0.028684
#
#
# Mechanical properties :
#
#
# Convention : Reuss Voigt Hill
#
# Bulk Modulus (GPa) = 16.95323 82.16860 49.56091
# Shear Modulus (GPa) = 23.28972 36.42447 29.85710
#
# Velocity S-wave (km/s) = 3.42767 4.28660 3.88097
# Velocity P-wave (km/s) = 4.92113 8.12104 6.71450
#
# Compressibility (1/GPa) = 0.05898581
#
# Stress axis : x y z
#
# Youngs Moduli (GPa) = 116.18966 116.18966 17.72831
#
# Poissons Ratio (x) = 0.66638 0.01402
# Poissons Ratio (y) = 0.66638 0.01402
# Poissons Ratio (z) = 0.09190 0.09190
#
# Static dielectric constant tensor:
#      x y z
#    x 1.679070 0.000000 0.000000 
#    y 0.000000 1.679070 0.000000 
#    z 0.000000 0.000000 1.720860 
# 
# From -- ./inp_files/588.got.cif
#   From: 2010.05.17/outbox.cif.g08.bks.cpg/sg191_1_cif.got.tgz:588.got - 2010.05.20 12:20:32.
