data_PCOD9588447
_publ_section_title
;
Structure prediction by ZEFSAII (Michael W. Deem and Ramdas Pophale) SiO2 
 PCOD9588447
Probable space group: P 6/M C C
;
_chemical_formula_sum "Si O2"
_cell_formula_units_Z 126
_cell_length_a 31.571839
_cell_length_b 31.571839
_cell_length_c 9.180487
_cell_angle_alpha 90.000000
_cell_angle_beta 90.000000
_cell_angle_gamma 120.000000
_cell_volume 7924.942331
_symmetry_space_group_name_H-M "P 6/M C C"
_symmetry_group_IT_number 192
_symmetry_cell_setting 'hexagonal'
loop_
_space_group_symop_operation_xyz
x,y,z
x-y,x,z
-y,x-y,z
-x,-y,z
-x+y,-x,z
y,-x+y,z
x-y,-y,1/2-z
-x,-x+y,1/2-z
y,x,1/2-z
-y,-x,1/2-z
-x+y,y,1/2-z
x,x-y,1/2-z
-x,-y,-z
-x+y,-x,-z
y,-x+y,-z
x,y,-z
x-y,x,-z
-y,x-y,-z
-x+y,y,1/2+z
x,x-y,1/2+z
-y,-x,1/2+z
y,x,1/2+z
x-y,-y,1/2+z
-x,-x+y,1/2+z
loop_
_atom_site_type_symbol
_atom_site_label
_atom_site_fract_x
_atom_site_fract_y
_atom_site_fract_z
Si Si1 0.852532 0.236683 0.331248
Si Si2 0.495595 0.170215 0.334431
Si Si3 0.608026 0.078418 0.662276
Si Si4 0.307478 0.357518 0.829502
Si Si5 0.665420 0.248032 0.671989
Si Si6 0.500000 0.500000 0.250000
O O1 0.810715 0.189286 0.250000
O O2 0.857143 0.225995 0.500000
O O3 0.838227 0.279362 0.331082
O O4 0.904059 0.262362 0.247622
O O5 0.514657 0.184038 0.500000
O O6 0.494282 0.120577 0.283606
O O7 0.527288 0.211575 0.218324
O O8 0.617508 0.100805 0.500000
O O9 0.644445 0.056591 0.680875
O O10 0.551327 0.037124 0.671783
O O11 0.321247 0.321247 0.750000
O O12 0.297986 0.346635 0.000000
O O13 0.700899 0.299102 0.750000
O O14 0.613451 0.226902 0.750000
O O15 0.663493 0.253241 0.500000
#
# Coordination Sequence:
#
# PCOD9588447 Si02
#       6
#    24  24  24  24  24   6
#     4  10  20  34  54  79 103 130 163 202 244 291
#     4  10  22  39  58  78 101 127 157 194 236 282
#     4  10  22  36  52  73  98 130 162 197 235 280
#     4  10  19  34  52  72  99 132 166 202 245 293
#     4  12  25  42  61  79  99 120 147 181 225 276
#     4  12  22  36  52  74 102 132 168 198 238 280
#
# _framework density 15.89917
#
# number of rings (size 3 to 8) (size 9 to 14) (size 15 to 20)
#    0.000    1.524    0.952    4.476    1.333    6.095 
#    0.000    0.000    0.000    0.000    0.000    0.000 
#    0.000    0.000    0.000    0.000    0.000    0.000 
#
# Total GULP energy -703411.011280 kJ/mol
# GULP energy per Si atom -5582.627074 kJ/mol
# Density = 1.586298 g / cm^3
# Si number density = 15.899170 Si / 1000 Ang^3
#
#
#
# Elastic Constant Matrix: (Units=GPa)
#
#
# Indices 1 2 3 4 5 6 
#
# 1 73.6961 23.1654 46.8350 0.0000 0.0000 0.0000
# 2 23.1654 73.6961 46.8350 0.0000 0.0000 0.0000
# 3 46.8350 46.8350 151.8038 0.0000 0.0000 0.0000
# 4 0.0000 0.0000 0.0000 14.2754 0.0000 0.0000
# 5 0.0000 0.0000 0.0000 0.0000 14.2754 0.0000
# 6 0.0000 0.0000 0.0000 0.0000 0.0000 25.2653
#
#
#
# Elastic Compliance Matrix: (Units=1/GPa)
#
#
# Indices 1 2 3 4 5 6 
#
# 1 0.017252 -0.002538 -0.004540 0.000000 0.000000 0.000000
# 2 -0.002538 0.017252 -0.004540 0.000000 0.000000 0.000000
# 3 -0.004540 -0.004540 0.009389 0.000000 0.000000 0.000000
# 4 0.000000 0.000000 0.000000 0.070050 0.000000 0.000000
# 5 0.000000 0.000000 0.000000 0.000000 0.070050 0.000000
# 6 0.000000 0.000000 0.000000 0.000000 0.000000 0.039580
#
#
# Mechanical properties :
#
#
# Convention : Reuss Voigt Hill
#
# Bulk Modulus (GPa) = 48.40685 59.20741 53.80713
# Shear Modulus (GPa) = 19.70878 22.92061 21.31470
#
# Velocity S-wave (km/s) = 3.52463 3.80099 3.66542
# Velocity P-wave (km/s) = 6.86121 7.52220 7.19930
#
# Compressibility (1/GPa) = 0.02065823
#
# Stress axis : x y z
#
# Youngs Moduli (GPa) = 57.96424 57.96424 106.51195
#
# Poissons Ratio (x) = 0.14711 0.48353
# Poissons Ratio (y) = 0.14711 0.48353
# Poissons Ratio (z) = 0.26314 0.26314
#
# Static dielectric constant tensor:
#      x y z
#    x 1.535920 0.000000 0.000000 
#    y 0.000000 1.535920 0.000000 
#    z 0.000000 0.000000 1.551610 
# 
# From -- ./inp_files/1099.got.cif
#   From: 2010.05.17/outbox.cif.g08.bks.cpg/sg192_1_cif.got.tgz:1099.got - 2010.05.20 12:28:01.
