data_PCOD9588896
_publ_section_title
;
Structure prediction by ZEFSAII (Michael W. Deem and Ramdas Pophale) SiO2 
 PCOD9588896
Probable space group: P 63/M C M
;
_chemical_formula_sum "Si O2"
_cell_formula_units_Z 84
_cell_length_a 15.336408
_cell_length_b 15.336408
_cell_length_c 20.988773
_cell_angle_alpha 90.000000
_cell_angle_beta 90.000000
_cell_angle_gamma 120.000000
_cell_volume 4275.284199
_symmetry_space_group_name_H-M "P 63/M C M"
_symmetry_group_IT_number 193
_symmetry_cell_setting 'hexagonal'
loop_
_space_group_symop_operation_xyz
x,y,z
x-y,x,1/2+z
-y,x-y,z
-x,-y,1/2+z
-x+y,-x,z
y,-x+y,1/2+z
x-y,-y,1/2-z
-x,-x+y,1/2-z
y,x,1/2-z
-y,-x,-z
-x+y,y,-z
x,x-y,-z
-x,-y,-z
-x+y,-x,1/2-z
y,-x+y,-z
x,y,1/2-z
x-y,x,-z
-y,x-y,1/2-z
-x+y,y,1/2+z
x,x-y,1/2+z
-y,-x,1/2+z
y,x,z
x-y,-y,z
-x,-x+y,z
loop_
_atom_site_type_symbol
_atom_site_label
_atom_site_fract_x
_atom_site_fract_y
_atom_site_fract_z
Si Si1 0.840054 0.159947 0.000000
Si Si2 0.118717 0.886123 0.360582
Si Si3 0.116689 0.627660 0.452468
Si Si4 0.571081 0.877153 0.319639
O O1 0.863186 0.117874 0.936403
O O2 0.882607 0.277610 0.985888
O O3 0.147963 0.808502 0.329370
O O4 0.000000 0.841071 0.349625
O O5 0.183122 0.000000 0.337890
O O6 0.165230 0.582615 0.500000
O O7 0.160948 0.662027 0.381843
O O8 0.000000 0.542472 0.442870
O O9 0.524121 0.844346 0.250000
O O10 0.629278 0.000000 0.321510
#
# Coordination Sequence:
#
# PCOD9588896 Si02
#       4
#    12  24  24  24
#     4  10  18  30  45  66  94 126 159 214 268 314
#     4  10  18  27  42  66 100 141 180 214 246 289
#     4   9  17  30  49  70  90 117 156 205 257 310
#     4   8  15  28  45  65  91 125 164 205 251 299
#
# _framework density 19.647818000000001
#
# number of rings (size 3 to 8) (size 9 to 14) (size 15 to 20)
#    0.000    2.857    0.000    4.571    0.000    0.571 
#    0.857    1.429    0.000    8.571    0.000    8.000 
#    0.000    0.000    0.000    0.000    0.000    0.000 
#
# Total GULP energy -468112.840936 kJ/mol
# GULP energy per Si atom -5572.771916 kJ/mol
# Density = 1.960310 g / cm^3
# Si number density = 19.647818 Si / 1000 Ang^3
#
#
#
# Elastic Constant Matrix: (Units=GPa)
#
#
# Indices 1 2 3 4 5 6 
#
# 1 43.0282 16.3313 33.2424 0.0000 0.0000 0.0000
# 2 16.3313 43.0282 33.2424 0.0000 0.0000 0.0000
# 3 33.2424 33.2424 135.9691 0.0000 0.0000 0.0000
# 4 0.0000 0.0000 0.0000 2.9473 0.0000 0.0000
# 5 0.0000 0.0000 0.0000 0.0000 2.9473 0.0000
# 6 0.0000 0.0000 0.0000 0.0000 0.0000 13.3485
#
#
#
# Elastic Compliance Matrix: (Units=1/GPa)
#
#
# Indices 1 2 3 4 5 6 
#
# 1 0.030328 -0.007129 -0.005672 0.000000 0.000000 0.000000
# 2 -0.007129 0.030328 -0.005672 0.000000 0.000000 0.000000
# 3 -0.005672 -0.005672 0.010128 0.000000 0.000000 0.000000
# 4 0.000000 0.000000 0.000000 0.339292 0.000000 0.000000
# 5 0.000000 0.000000 0.000000 0.000000 0.339292 0.000000
# 6 0.000000 0.000000 0.000000 0.000000 0.000000 0.074915
#
#
# Mechanical properties :
#
#
# Convention : Reuss Voigt Hill
#
# Bulk Modulus (GPa) = 29.55175 43.07308 36.31242
# Shear Modulus (GPa) = 5.73059 13.12924 9.42992
#
# Velocity S-wave (km/s) = 1.70967 2.58782 2.19315
# Velocity P-wave (km/s) = 4.35554 5.55871 4.99349
#
# Compressibility (1/GPa) = 0.03383894
#
# Stress axis : x y z
#
# Youngs Moduli (GPa) = 32.97244 32.97244 98.73638
#
# Poissons Ratio (x) = 0.23507 0.56002
# Poissons Ratio (y) = 0.23507 0.56002
# Poissons Ratio (z) = 0.18701 0.18701
#
# Static dielectric constant tensor:
#      x y z
#    x 1.684110 0.000000 0.000000 
#    y 0.000000 1.684110 0.000000 
#    z 0.000000 0.000000 1.736130 
# 
# From -- ./inp_files/7113.got.cif
#   From: 2010.05.17/outbox.cif.g08.bks.cpg/sg193_4_cif.got.tgz:7113.got - 2010.05.20 12:33:02.
