data_PCOD9588356
_publ_section_title
;
Structure prediction by ZEFSAII (Michael W. Deem and Ramdas Pophale) SiO2 
 PCOD9588356
Probable space group: P 6/M C C
;
_chemical_formula_sum "Si O2"
_cell_formula_units_Z 132
_cell_length_a 16.911634
_cell_length_b 16.911634
_cell_length_c 24.410111
_cell_angle_alpha 90.000000
_cell_angle_beta 90.000000
_cell_angle_gamma 120.000000
_cell_volume 6046.047129
_symmetry_space_group_name_H-M "P 6/M C C"
_symmetry_group_IT_number 192
_symmetry_cell_setting 'hexagonal'
loop_
_space_group_symop_operation_xyz
x,y,z
x-y,x,z
-y,x-y,z
-x,-y,z
-x+y,-x,z
y,-x+y,z
x-y,-y,1/2-z
-x,-x+y,1/2-z
y,x,1/2-z
-y,-x,1/2-z
-x+y,y,1/2-z
x,x-y,1/2-z
-x,-y,-z
-x+y,-x,-z
y,-x+y,-z
x,y,-z
x-y,x,-z
-y,x-y,-z
-x+y,y,1/2+z
x,x-y,1/2+z
-y,-x,1/2+z
y,x,1/2+z
x-y,-y,1/2+z
-x,-x+y,1/2+z
loop_
_atom_site_type_symbol
_atom_site_label
_atom_site_fract_x
_atom_site_fract_y
_atom_site_fract_z
Si Si1 0.177097 0.712688 0.641120
Si Si2 0.615630 0.214843 0.500000
Si Si3 0.928301 0.214264 0.289397
Si Si4 0.186475 0.183643 0.597134
Si Si5 0.632680 0.981948 0.562730
Si Si6 0.384325 0.861295 0.383507
O O1 0.140304 0.757029 0.684804
O O2 0.283947 0.781309 0.632998
O O3 0.150064 0.607865 0.652536
O O4 0.120418 0.704588 0.586015
O O5 0.723030 0.291710 0.500000
O O6 0.596796 0.160143 0.444929
O O7 0.873059 0.126942 0.250000
O O8 0.984140 0.201605 0.339087
O O9 0.000000 0.292679 0.250000
O O10 0.179781 0.088017 0.584938
O O11 0.274960 0.260749 0.566145
O O12 0.607232 0.987841 0.500000
O O13 0.612877 0.042961 0.606199
#
# Coordination Sequence:
#
# PCOD9588356 Si02
#       6
#    24  12  24  24  24  24
#     4  11  26  41  69  97 132 175 227 279 336 399
#     4  10  18  34  61  99 129 176 219 277 328 384
#     4  11  23  45  75  99 131 169 217 281 351 405
#     4  11  23  42  67 100 134 174 223 279 340 409
#     4  11  25  39  62  97 140 181 226 276 335 399
#     4  12  22  41  62  97 138 176 226 273 329 399
#
# _framework density 21.832446999999998
#
# number of rings (size 3 to 8) (size 9 to 14) (size 15 to 20)
#    0.182    0.727    4.545    3.273    5.091    2.909 
#    0.000    0.909    4.000    1.091    0.000    0.000 
#    0.000    0.000    0.000    0.000    0.000    0.000 
#
# Total GULP energy -737224.510800 kJ/mol
# GULP energy per Si atom -5585.034173 kJ/mol
# Density = 2.178276 g / cm^3
# Si number density = 21.832447 Si / 1000 Ang^3
#
#
#
# Elastic Constant Matrix: (Units=GPa)
#
#
# Indices 1 2 3 4 5 6 
#
# 1 70.2946 -18.5100 -6.8407 0.0000 0.0000 0.0000
# 2 -18.5100 70.2946 -6.8407 0.0000 0.0000 0.0000
# 3 -6.8407 -6.8407 37.1833 0.0000 0.0000 0.0000
# 4 0.0000 0.0000 0.0000 17.5919 0.0000 0.0000
# 5 0.0000 0.0000 0.0000 0.0000 17.5919 0.0000
# 6 0.0000 0.0000 0.0000 0.0000 0.0000 44.4023
#
#
#
# Elastic Compliance Matrix: (Units=1/GPa)
#
#
# Indices 1 2 3 4 5 6 
#
# 1 0.015779 0.004518 0.003734 0.000000 0.000000 0.000000
# 2 0.004518 0.015779 0.003734 0.000000 0.000000 0.000000
# 3 0.003734 0.003734 0.028268 0.000000 0.000000 0.000000
# 4 0.000000 0.000000 0.000000 0.056844 0.000000 0.000000
# 5 0.000000 0.000000 0.000000 0.000000 0.056844 0.000000
# 6 0.000000 0.000000 0.000000 0.000000 0.000000 0.022521
#
#
# Mechanical properties :
#
#
# Convention : Reuss Voigt Hill
#
# Bulk Modulus (GPa) = 11.93333 12.59886 12.26610
# Shear Modulus (GPa) = 25.00058 29.91483 27.45771
#
# Velocity S-wave (km/s) = 3.38762 3.70564 3.55019
# Velocity P-wave (km/s) = 4.55840 4.90838 4.73663
#
# Compressibility (1/GPa) = 0.08379888
#
# Stress axis : x y z
#
# Youngs Moduli (GPa) = 63.37539 63.37539 35.37602
#
# Poissons Ratio (x) = -0.28635 -0.13210
# Poissons Ratio (y) = -0.28635 -0.13210
# Poissons Ratio (z) = -0.23665 -0.23665
#
# Static dielectric constant tensor:
#      x y z
#    x 1.842850 0.000000 0.000000 
#    y 0.000000 1.842850 0.000000 
#    z 0.000000 0.000000 1.799210 
# 
# From -- ./inp_files/5800.got.cif
#   From: 2010.05.17/outbox.cif.g08.bks.cpg/sg192_3_cif.got.tgz:5800.got - 2010.05.20 12:28:01.
