data_PCOD9588903
_publ_section_title
;
Structure prediction by ZEFSAII (Michael W. Deem and Ramdas Pophale) SiO2 
 PCOD9588903
Probable space group: P 63/M C M
;
_chemical_formula_sum "Si O2"
_cell_formula_units_Z 168
_cell_length_a 29.355028
_cell_length_b 29.355028
_cell_length_c 15.818527
_cell_angle_alpha 90.000000
_cell_angle_beta 90.000000
_cell_angle_gamma 120.000000
_cell_volume 11804.882529
_symmetry_space_group_name_H-M "P 63/M C M"
_symmetry_group_IT_number 193
_symmetry_cell_setting 'hexagonal'
loop_
_space_group_symop_operation_xyz
x,y,z
x-y,x,1/2+z
-y,x-y,z
-x,-y,1/2+z
-x+y,-x,z
y,-x+y,1/2+z
x-y,-y,1/2-z
-x,-x+y,1/2-z
y,x,1/2-z
-y,-x,-z
-x+y,y,-z
x,x-y,-z
-x,-y,-z
-x+y,-x,1/2-z
y,-x+y,-z
x,y,1/2-z
x-y,x,-z
-y,x-y,1/2-z
-x+y,y,1/2+z
x,x-y,1/2+z
-y,-x,1/2+z
y,x,z
x-y,-y,z
-x,-x+y,z
loop_
_atom_site_type_symbol
_atom_site_label
_atom_site_fract_x
_atom_site_fract_y
_atom_site_fract_z
Si Si1 0.394214 0.243485 0.459435
Si Si2 0.437493 0.650920 0.951719
Si Si3 0.062560 0.679170 0.351728
Si Si4 0.256360 0.492237 0.345330
Si Si5 0.515779 0.572614 0.351890
Si Si6 0.506165 0.398509 0.351438
Si Si7 0.680554 0.527499 0.089463
O O1 0.370077 0.185039 0.500000
O O2 0.364892 0.266584 0.402689
O O3 0.443314 0.251643 0.399767
O O4 0.419325 0.282206 0.539008
O O5 0.455060 0.703586 0.897145
O O6 0.452122 0.616538 0.888893
O O7 0.382172 0.617829 0.000000
O O8 0.480616 0.665592 0.023926
O O9 0.068920 0.687469 0.250000
O O10 0.086362 0.640949 0.375388
O O11 0.000000 0.649589 0.369757
O O12 0.275558 0.493281 0.250000
O O13 0.197737 0.482504 0.343343
O O14 0.515786 0.571658 0.250000
O O15 0.559177 0.559177 0.383682
O O16 0.458079 0.526903 0.379407
O O17 0.525236 0.628533 0.379182
O O18 0.507889 0.397431 0.250000
#
# Coordination Sequence:
#
# PCOD9588903 Si02
#       7
#    24  24  24  24  24  24  24
#     4   9  18  30  45  63  89 112 141 176 215 258
#     4  11  19  31  47  68  87 105 132 172 214 247
#     4  10  18  28  45  69  94 119 148 182 220 264
#     4  10  19  33  51  65  80 106 141 173 207 250
#     4  10  20  32  44  63  92 117 136 160 196 255
#     4  10  18  30  45  64  92 122 142 159 204 264
#     4  10  19  32  46  67  81 106 136 169 202 246
#
# _framework density 14.231400000000001
#
# number of rings (size 3 to 8) (size 9 to 14) (size 15 to 20)
#    0.000    2.000    4.286    3.000    0.000    2.286 
#    0.000    0.714    0.000    2.286    0.000    0.000 
#    0.000    0.000    0.000    0.000    0.000    0.000 
#
# Total GULP energy -935647.227968 kJ/mol
# GULP energy per Si atom -5569.328738 kJ/mol
# Density = 1.419901 g / cm^3
# Si number density = 14.231400 Si / 1000 Ang^3
#
#
#
# Elastic Constant Matrix: (Units=GPa)
#
#
# Indices 1 2 3 4 5 6 
#
# 1 61.2593 32.4989 22.3003 0.0000 0.0000 0.0000
# 2 32.4989 61.2593 22.3003 0.0000 0.0000 0.0000
# 3 22.3003 22.3003 45.9728 0.0000 0.0000 0.0000
# 4 0.0000 0.0000 0.0000 3.3652 0.0000 0.0000
# 5 0.0000 0.0000 0.0000 0.0000 3.3652 0.0000
# 6 0.0000 0.0000 0.0000 0.0000 0.0000 14.3802
#
#
#
# Elastic Compliance Matrix: (Units=1/GPa)
#
#
# Indices 1 2 3 4 5 6 
#
# 1 0.024318 -0.010453 -0.006726 0.000000 0.000000 0.000000
# 2 -0.010453 0.024318 -0.006726 0.000000 0.000000 0.000000
# 3 -0.006726 -0.006726 0.028277 0.000000 0.000000 0.000000
# 4 0.000000 0.000000 0.000000 0.297157 0.000000 0.000000
# 5 0.000000 0.000000 0.000000 0.000000 0.297157 0.000000
# 6 0.000000 0.000000 0.000000 0.000000 0.000000 0.069540
#
#
# Mechanical properties :
#
#
# Convention : Reuss Voigt Hill
#
# Bulk Modulus (GPa) = 34.35885 35.85448 35.10666
# Shear Modulus (GPa) = 6.26351 10.31492 8.28921
#
# Velocity S-wave (km/s) = 2.10018 2.69513 2.41604
# Velocity P-wave (km/s) = 5.48419 5.91047 5.70131
#
# Compressibility (1/GPa) = 0.02910459
#
# Stress axis : x y z
#
# Youngs Moduli (GPa) = 41.12251 41.12251 35.36460
#
# Poissons Ratio (x) = 0.42983 0.23785
# Poissons Ratio (y) = 0.42983 0.23785
# Poissons Ratio (z) = 0.27657 0.27657
#
# Static dielectric constant tensor:
#      x y z
#    x 1.492260 0.000000 0.000000 
#    y 0.000000 1.492260 0.000000 
#    z 0.000000 0.000000 1.515670 
# 
# From -- ./inp_files/4412.got.cif
#   From: 2010.05.17/outbox.cif.g08.bks.cpg/sg193_3_cif.got.tgz:4412.got - 2010.05.20 12:33:02.
