data_PCOD9588990
_publ_section_title
;
Structure prediction by ZEFSAII (Michael W. Deem and Ramdas Pophale) SiO2 
 PCOD9588990
Probable space group: P 63/M C M
;
_chemical_formula_sum "Si O2"
_cell_formula_units_Z 192
_cell_length_a 23.583949
_cell_length_b 23.583949
_cell_length_c 26.729017
_cell_angle_alpha 90.000000
_cell_angle_beta 90.000000
_cell_angle_gamma 120.000000
_cell_volume 12874.983257
_symmetry_space_group_name_H-M "P 63/M C M"
_symmetry_group_IT_number 193
_symmetry_cell_setting 'hexagonal'
loop_
_space_group_symop_operation_xyz
x,y,z
x-y,x,1/2+z
-y,x-y,z
-x,-y,1/2+z
-x+y,-x,z
y,-x+y,1/2+z
x-y,-y,1/2-z
-x,-x+y,1/2-z
y,x,1/2-z
-y,-x,-z
-x+y,y,-z
x,x-y,-z
-x,-y,-z
-x+y,-x,1/2-z
y,-x+y,-z
x,y,1/2-z
x-y,x,-z
-y,x-y,1/2-z
-x+y,y,1/2+z
x,x-y,1/2+z
-y,-x,1/2+z
y,x,z
x-y,-y,z
-x,-x+y,z
loop_
_atom_site_type_symbol
_atom_site_label
_atom_site_fract_x
_atom_site_fract_y
_atom_site_fract_z
Si Si1 0.510346 0.261353 0.941566
Si Si2 0.738215 0.810355 0.810360
Si Si3 0.829605 0.255761 0.351769
Si Si4 0.465098 0.391266 0.808421
Si Si5 0.504633 0.924228 0.138644
Si Si6 0.282053 0.868818 0.808318
Si Si7 0.285069 0.207944 0.689921
Si Si8 0.583473 0.178932 0.941504
O O1 0.449047 0.243556 0.905483
O O2 0.549995 0.223252 0.931468
O O3 0.559245 0.338679 0.932498
O O4 0.491565 0.245783 0.000000
O O5 0.739161 0.807898 0.750000
O O6 0.787358 0.787358 0.830101
O O7 0.663226 0.757956 0.824290
O O8 0.752126 0.882776 0.822187
O O9 0.867523 0.331789 0.337400
O O10 0.770074 0.207943 0.315437
O O11 0.885746 0.237022 0.342134
O O12 0.454027 0.374592 0.750000
O O13 0.410114 0.410114 0.824818
O O14 0.533928 0.456345 0.817921
O O15 0.545857 0.891733 0.158443
O O16 0.457171 0.884086 0.093012
O O17 0.552633 0.000000 0.125583
O O18 0.299941 0.883546 0.750000
O O19 0.301613 0.215221 0.750000
O O20 0.243850 0.243850 0.680810
O O21 0.580369 0.160737 0.000000
#
# Coordination Sequence:
#
# PCOD9588990 Si02
#       8
#    24  24  24  24  24  24  24  24
#     4  10  20  35  56  72  86 113 155 207 254 292
#     4   8  14  25  42  63  88 123 163 197 224 256
#     4  11  18  30  50  69  91 120 158 197 237 281
#     4  10  20  32  46  67  97 130 160 189 227 283
#     4  11  21  32  47  68  95 128 157 190 238 288
#     4  10  19  30  45  67  95 126 157 192 233 279
#     4   9  17  28  44  70 102 133 161 188 223 273
#     4  10  20  37  55  72  90 114 156 206 253 294
#
# _framework density 14.91264
#
# number of rings (size 3 to 8) (size 9 to 14) (size 15 to 20)
#    0.000    2.125    2.500    3.250    0.000    3.500 
#    0.000    0.000    0.000    0.250    0.000    5.250 
#    0.000    0.000    0.000    0.000    0.000    0.625 
#
# Total GULP energy -1068855.552613 kJ/mol
# GULP energy per Si atom -5566.956003 kJ/mol
# Density = 1.487870 g / cm^3
# Si number density = 14.912640 Si / 1000 Ang^3
#
#
#
# Elastic Constant Matrix: (Units=GPa)
#
#
# Indices 1 2 3 4 5 6 
#
# 1 92.4130 50.2893 33.9643 0.0000 0.0000 0.0000
# 2 50.2893 92.4130 33.9643 0.0000 0.0000 0.0000
# 3 33.9643 33.9643 54.4081 0.0000 0.0000 0.0000
# 4 0.0000 0.0000 0.0000 17.1803 0.0000 0.0000
# 5 0.0000 0.0000 0.0000 0.0000 17.1803 0.0000
# 6 0.0000 0.0000 0.0000 0.0000 0.0000 21.0618
#
#
#
# Elastic Compliance Matrix: (Units=1/GPa)
#
#
# Indices 1 2 3 4 5 6 
#
# 1 0.016855 -0.006885 -0.006224 0.000000 0.000000 0.000000
# 2 -0.006885 0.016855 -0.006224 0.000000 0.000000 0.000000
# 3 -0.006224 -0.006224 0.026150 0.000000 0.000000 0.000000
# 4 0.000000 0.000000 0.000000 0.058206 0.000000 0.000000
# 5 0.000000 0.000000 0.000000 0.000000 0.058206 0.000000
# 6 0.000000 0.000000 0.000000 0.000000 0.000000 0.047479
#
#
# Mechanical properties :
#
#
# Convention : Reuss Voigt Hill
#
# Bulk Modulus (GPa) = 47.18098 52.85222 50.01660
# Shear Modulus (GPa) = 18.55413 19.15224 18.85319
#
# Velocity S-wave (km/s) = 3.53113 3.58760 3.55948
# Velocity P-wave (km/s) = 6.95213 7.25805 7.10674
#
# Compressibility (1/GPa) = 0.02119498
#
# Stress axis : x y z
#
# Youngs Moduli (GPa) = 59.32967 59.32967 38.24054
#
# Poissons Ratio (x) = 0.40847 0.23801
# Poissons Ratio (y) = 0.40847 0.23801
# Poissons Ratio (z) = 0.36927 0.36927
#
# Static dielectric constant tensor:
#      x y z
#    x 1.505210 0.000000 0.000000 
#    y 0.000000 1.505210 0.000000 
#    z 0.000000 0.000000 1.490340 
# 
# From -- ./inp_files/7895.got.cif
#   From: 2010.05.17/outbox.cif.g08.bks.cpg/sg193_4_cif.got.tgz:7895.got - 2010.05.20 12:33:02.
