data_PCOD9588275
_publ_section_title
;
Structure prediction by ZEFSAII (Michael W. Deem and Ramdas Pophale) SiO2 
 PCOD9588275
Probable space group: P 6/M M M
;
_chemical_formula_sum "Si O2"
_cell_formula_units_Z 66
_cell_length_a 21.000000
_cell_length_b 21.000000
_cell_length_c 9.000000
_cell_angle_alpha 90.000000
_cell_angle_beta 90.000000
_cell_angle_gamma 120.000000
_cell_volume 3437.254828
_symmetry_space_group_name_H-M "P 6/M M M"
_symmetry_group_IT_number 191
_symmetry_cell_setting 'hexagonal'
loop_
_space_group_symop_operation_xyz
x,y,z
x-y,x,z
-y,x-y,z
-x,-y,z
-x+y,-x,z
y,-x+y,z
x-y,-y,-z
-x,-x+y,-z
y,x,-z
-y,-x,-z
-x+y,y,-z
x,x-y,-z
-x,-y,-z
-x+y,-x,-z
y,-x+y,-z
x,y,-z
x-y,x,-z
-y,x-y,-z
-x+y,y,z
x,x-y,z
-y,-x,z
y,x,z
x-y,-y,z
-x,-x+y,z
loop_
_atom_site_type_symbol
_atom_site_label
_atom_site_fract_x
_atom_site_fract_y
_atom_site_fract_z
Si Si1 0.716984 0.084489 0.671981
Si Si2 0.264740 0.132370 0.179409
Si Si3 0.333244 0.518515 0.173140
Si Si4 0.824966 0.912483 0.500000
O O1 0.744463 0.098524 0.500000
O O2 0.781205 0.097242 0.786231
O O3 0.687385 0.137874 0.720098
O O4 0.654439 0.000000 0.679756
O O5 0.213366 0.106683 0.331820
O O6 0.241130 0.120565 0.000000
O O7 0.269956 0.539912 0.186611
O O8 0.412054 0.587947 0.205339
O O9 0.332478 0.496551 0.000000
O O10 0.872018 0.872018 0.500000
#
# Coordination Sequence:
#
# PCOD9588275 Si02
#       4
#    24  12  24   6
#     4  11  23  40  63  93 129 166 212 272 330 388
#     4  12  24  43  71 101 134 176 226 274 331 403
#     4  10  21  38  60  88 124 169 219 268 324 391
#     4  12  27  48  72 104 142 182 226 278 338 404
#
# _framework density 19.201370000000001
#
# number of rings (size 3 to 8) (size 9 to 14) (size 15 to 20)
#    0.000    1.091    3.636    2.636    0.000    8.000 
#    0.000    3.636    0.000    3.273    0.000    0.000 
#    0.000    0.000    0.000    0.000    0.000    0.000 
#
# Total GULP energy -367966.254204 kJ/mol
# GULP energy per Si atom -5575.246276 kJ/mol
# Density = 1.915767 g / cm^3
# Si number density = 19.201370 Si / 1000 Ang^3
#
#
#
# Elastic Constant Matrix: (Units=GPa)
#
#
# Indices 1 2 3 4 5 6 
#
# 1 64.5908 44.6524 39.4281 0.0000 0.0000 0.0000
# 2 44.6524 64.5908 39.4281 0.0000 0.0000 0.0000
# 3 39.4281 39.4281 128.4060 0.0000 0.0000 0.0000
# 4 0.0000 0.0000 0.0000 29.2428 0.0000 0.0000
# 5 0.0000 0.0000 0.0000 0.0000 29.2428 0.0000
# 6 0.0000 0.0000 0.0000 0.0000 0.0000 9.9692
#
#
#
# Elastic Compliance Matrix: (Units=1/GPa)
#
#
# Indices 1 2 3 4 5 6 
#
# 1 0.030958 -0.019197 -0.003611 0.000000 0.000000 0.000000
# 2 -0.019197 0.030958 -0.003611 0.000000 0.000000 0.000000
# 3 -0.003611 -0.003611 0.010005 0.000000 0.000000 0.000000
# 4 0.000000 0.000000 0.000000 0.034196 0.000000 0.000000
# 5 0.000000 0.000000 0.000000 0.000000 0.034196 0.000000
# 6 0.000000 0.000000 0.000000 0.000000 0.000000 0.100309
#
#
# Mechanical properties :
#
#
# Convention : Reuss Voigt Hill
#
# Bulk Modulus (GPa) = 52.40562 56.06721 54.23642
# Shear Modulus (GPa) = 16.67657 22.62955 19.65306
#
# Velocity S-wave (km/s) = 2.95025 3.43671 3.20273
# Velocity P-wave (km/s) = 6.24157 6.70902 6.47951
#
# Compressibility (1/GPa) = 0.01908192
#
# Stress axis : x y z
#
# Youngs Moduli (GPa) = 32.30230 32.30230 99.94514
#
# Poissons Ratio (x) = 0.62011 0.36092
# Poissons Ratio (y) = 0.62011 0.36092
# Poissons Ratio (z) = 0.11665 0.11665
#
# Static dielectric constant tensor:
#      x y z
#    x 1.668460 0.000000 0.000000 
#    y 0.000000 1.668460 0.000000 
#    z 0.000000 0.000000 1.690270 
# 
# From -- ./inp_files/694.got.cif
#   From: 2010.05.17/outbox.ucp.g08.bks.cvg/sg191_1_cif.got.tgz:694.got - 2010.06.11 15:22:43.
