data_PCOD9588587
_publ_section_title
;
Structure prediction by ZEFSAII (Michael W. Deem and Ramdas Pophale) SiO2 
 PCOD9588587
Probable space group: P 6/M C C
;
_chemical_formula_sum "Si O2"
_cell_formula_units_Z 72
_cell_length_a 21.684340
_cell_length_b 21.684340
_cell_length_c 9.585958
_cell_angle_alpha 90.000000
_cell_angle_beta 90.000000
_cell_angle_gamma 120.000000
_cell_volume 3903.539424
_symmetry_space_group_name_H-M "P 6/M C C"
_symmetry_group_IT_number 192
_symmetry_cell_setting 'hexagonal'
loop_
_space_group_symop_operation_xyz
x,y,z
x-y,x,z
-y,x-y,z
-x,-y,z
-x+y,-x,z
y,-x+y,z
x-y,-y,1/2-z
-x,-x+y,1/2-z
y,x,1/2-z
-y,-x,1/2-z
-x+y,y,1/2-z
x,x-y,1/2-z
-x,-y,-z
-x+y,-x,-z
y,-x+y,-z
x,y,-z
x-y,x,-z
-y,x-y,-z
-x+y,y,1/2+z
x,x-y,1/2+z
-y,-x,1/2+z
y,x,1/2+z
x-y,-y,1/2+z
-x,-x+y,1/2+z
loop_
_atom_site_type_symbol
_atom_site_label
_atom_site_fract_x
_atom_site_fract_y
_atom_site_fract_z
Si Si1 0.249965 0.380117 0.842160
Si Si2 0.838505 0.868944 0.000000
Si Si3 0.461408 0.796604 0.831391
Si Si4 0.764889 0.764889 0.750000
O O1 0.187153 0.374305 0.750000
O O2 0.318472 0.457312 0.814536
O O3 0.252484 0.308915 0.820018
O O4 0.229806 0.383023 0.000000
O O5 0.859777 0.951391 0.000000
O O6 0.792166 0.827271 0.134999
O O7 0.405675 0.811350 0.750000
O O8 0.457624 0.728812 0.750000
O O9 0.446914 0.783561 0.000000
#
# Coordination Sequence:
#
# PCOD9588587 Si02
#       4
#    24  12  24  12
#     4  10  22  39  60  86 116 154 202 247 289 348
#     4  12  25  42  64  90 121 154 192 240 294 356
#     4  10  20  36  58  87 121 157 198 245 297 348
#     4  12  24  40  62  88 120 156 196 240 296 350
#
# _framework density 18.444799
#
# number of rings (size 3 to 8) (size 9 to 14) (size 15 to 20)
#    0.000    1.333    1.667    4.500    2.333    1.333 
#    0.000    2.500    0.000    4.000    0.000    0.000 
#    0.000    0.000    0.000    0.000    0.000    0.000 
#
# Total GULP energy -401655.035638 kJ/mol
# GULP energy per Si atom -5578.542162 kJ/mol
# Density = 1.840282 g / cm^3
# Si number density = 18.444799 Si / 1000 Ang^3
#
#
#
# Elastic Constant Matrix: (Units=GPa)
#
#
# Indices 1 2 3 4 5 6 
#
# 1 76.1833 37.4874 28.6794 0.0000 0.0000 0.0000
# 2 37.4874 76.1833 28.6794 0.0000 0.0000 0.0000
# 3 28.6794 28.6794 95.3092 0.0000 0.0000 0.0000
# 4 0.0000 0.0000 0.0000 30.8881 0.0000 0.0000
# 5 0.0000 0.0000 0.0000 0.0000 30.8881 0.0000
# 6 0.0000 0.0000 0.0000 0.0000 0.0000 19.3480
#
#
#
# Elastic Compliance Matrix: (Units=1/GPa)
#
#
# Indices 1 2 3 4 5 6 
#
# 1 0.018107 -0.007735 -0.003121 0.000000 0.000000 0.000000
# 2 -0.007735 0.018107 -0.003121 0.000000 0.000000 0.000000
# 3 -0.003121 -0.003121 0.012371 0.000000 0.000000 0.000000
# 4 0.000000 0.000000 0.000000 0.032375 0.000000 0.000000
# 5 0.000000 0.000000 0.000000 0.000000 0.032375 0.000000
# 6 0.000000 0.000000 0.000000 0.000000 0.000000 0.051685
#
#
# Mechanical properties :
#
#
# Convention : Reuss Voigt Hill
#
# Bulk Modulus (GPa) = 48.47169 48.59649 48.53409
# Shear Modulus (GPa) = 25.01856 26.41348 25.71602
#
# Velocity S-wave (km/s) = 3.68693 3.78832 3.73797
# Velocity P-wave (km/s) = 6.66791 6.74829 6.70822
#
# Compressibility (1/GPa) = 0.02063060
#
# Stress axis : x y z
#
# Youngs Moduli (GPa) = 55.22611 55.22611 80.83742
#
# Poissons Ratio (x) = 0.42718 0.25230
# Poissons Ratio (y) = 0.42718 0.25230
# Poissons Ratio (z) = 0.17237 0.17237
#
# Static dielectric constant tensor:
#      x y z
#    x 1.719280 0.000000 0.000000 
#    y 0.000000 1.719280 0.000000 
#    z 0.000000 0.000000 1.640220 
# 
# From -- ./inp_files/533.got.cif
#   From: 2010.05.17/outbox.cif.g08.bks.cpg/sg192_1_cif.got.tgz:533.got - 2010.05.20 12:28:01.
