data_PCOD9588908
_publ_section_title
;
Structure prediction by ZEFSAII (Michael W. Deem and Ramdas Pophale) SiO2 
 PCOD9588908
Probable space group: P 63/M C M
;
_chemical_formula_sum "Si O2"
_cell_formula_units_Z 152
_cell_length_a 25.403327
_cell_length_b 25.403327
_cell_length_c 16.237542
_cell_angle_alpha 90.000000
_cell_angle_beta 90.000000
_cell_angle_gamma 120.000000
_cell_volume 9074.696652
_symmetry_space_group_name_H-M "P 63/M C M"
_symmetry_group_IT_number 193
_symmetry_cell_setting 'hexagonal'
loop_
_space_group_symop_operation_xyz
x,y,z
x-y,x,1/2+z
-y,x-y,z
-x,-y,1/2+z
-x+y,-x,z
y,-x+y,1/2+z
x-y,-y,1/2-z
-x,-x+y,1/2-z
y,x,1/2-z
-y,-x,-z
-x+y,y,-z
x,x-y,-z
-x,-y,-z
-x+y,-x,1/2-z
y,-x+y,-z
x,y,1/2-z
x-y,x,-z
-y,x-y,1/2-z
-x+y,y,1/2+z
x,x-y,1/2+z
-y,-x,1/2+z
y,x,z
x-y,-y,z
-x,-x+y,z
loop_
_atom_site_type_symbol
_atom_site_label
_atom_site_fract_x
_atom_site_fract_y
_atom_site_fract_z
Si Si1 0.702975 0.528737 0.597719
Si Si2 0.666668 0.333334 0.401108
Si Si3 0.233755 0.340015 0.341056
Si Si4 0.741366 0.807746 0.500000
Si Si5 0.596735 0.403267 0.347469
Si Si6 0.825764 0.297025 0.097718
Si Si7 0.766245 0.659986 0.158944
O O1 0.715629 0.590309 0.641799
O O2 0.638498 0.470605 0.617212
O O3 0.708984 0.540046 0.500001
O O4 0.757960 0.515918 0.621941
O O5 0.666668 0.333334 0.500000
O O6 0.632358 0.367648 0.369975
O O7 0.241774 0.320304 0.250000
O O8 0.225820 0.297800 0.418562
O O9 0.170510 0.341020 0.340195
O O10 0.752459 0.876230 0.500000
O O11 0.800485 0.800485 0.500001
O O12 0.702201 0.774181 0.418561
O O13 0.593012 0.406989 0.250000
O O14 0.638496 0.470607 0.382789
O O15 0.874681 0.284371 0.141797
O O16 0.758226 0.679696 0.250000
#
# Coordination Sequence:
#
# PCOD9588908 Si02
#       7
#    24   8  24  24  24  24  24
#     4  10  18  29  44  61  89 129 172 220 274 330
#     4  12  22  32  34  48  82 128 175 225 286 347
#     4   9  17  31  51  75 103 136 174 217 261 303
#     4  10  20  36  58  86 117 145 171 201 239 285
#     4  12  22  28  38  58  86 127 175 225 279 342
#     4  10  18  29  44  61  89 129 172 220 274 330
#     4   9  17  31  51  75 103 136 174 217 261 303
#
# _framework density 16.749872
#
# number of rings (size 3 to 8) (size 9 to 14) (size 15 to 20)
#    0.000    1.895    3.158    2.842    0.000    1.895 
#    0.000    0.000    0.000    0.158    0.000    2.211 
#    0.000    3.789    0.000    7.895    0.000    0.000 
#
# Total GULP energy -847624.728468 kJ/mol
# GULP energy per Si atom -5576.478477 kJ/mol
# Density = 1.671175 g / cm^3
# Si number density = 16.749872 Si / 1000 Ang^3
#
#
#
# Elastic Constant Matrix: (Units=GPa)
#
#
# Indices 1 2 3 4 5 6 
#
# 1 60.9556 35.9129 24.9819 0.0000 0.0000 0.0000
# 2 35.9129 60.9554 24.9819 -0.0001 0.0000 0.0000
# 3 24.9819 24.9819 115.7693 0.0001 0.0000 0.0000
# 4 0.0000 -0.0001 0.0001 -6.8957 -0.0001 0.0000
# 5 0.0000 0.0000 0.0000 -0.0001 -6.8959 0.0000
# 6 0.0000 0.0000 0.0000 0.0000 0.0000 12.5213
#
#
#
# Elastic Compliance Matrix: (Units=1/GPa)
#
#
# Indices 1 2 3 4 5 6 
#
# 1 0.025774 -0.014158 -0.002507 0.000000 0.000000 0.000000
# 2 -0.014158 0.025774 -0.002507 0.000000 0.000000 0.000000
# 3 -0.002507 -0.002507 0.009720 0.000000 0.000000 0.000000
# 4 0.000000 0.000000 0.000000 -0.145019 0.000001 0.000000
# 5 0.000000 0.000000 0.000000 0.000001 -0.145015 0.000000
# 6 0.000000 0.000000 0.000000 0.000000 0.000000 0.079864
#
#
# Mechanical properties :
#
#
# Convention : Reuss Voigt Hill
#
# Bulk Modulus (GPa) = 43.61968 45.49263 44.55615
# Shear Modulus (GPa) = -48.58264 9.86620 -19.35822
#
# Velocity S-wave (km/s) = -5.39145 2.42963 -3.40328
# Velocity P-wave (km/s) = 3.55790 5.92366 3.34896
#
# Compressibility (1/GPa) = 0.02292543
#
# Stress axis : x y z
#
# Youngs Moduli (GPa) = 38.79868 38.79857 102.88391
#
# Poissons Ratio (x) = 0.54931 0.25789
# Poissons Ratio (y) = 0.54931 0.25790
# Poissons Ratio (z) = 0.09725 0.09726
#
# Static dielectric constant tensor:
#      x y z
#    x 1.551630 0.000000 0.000000 
#    y 0.000000 1.551630 0.000000 
#    z 0.000000 0.000000 1.595540 
# 
# From -- ./inp_files/4308.got.cif
#   From: 2010.05.17/outbox.cif.g08.bks.cpg/sg193_3_cif.got.tgz:4308.got - 2010.05.20 12:33:02.
