data_PCOD9588316
_publ_section_title
;
Structure prediction by ZEFSAII (Michael W. Deem and Ramdas Pophale) SiO2 
 PCOD9588316
Probable space group: P 6/M C C
;
_chemical_formula_sum "Si O2"
_cell_formula_units_Z 192
_cell_length_a 32.422549
_cell_length_b 32.422549
_cell_length_c 14.422094
_cell_angle_alpha 90.000000
_cell_angle_beta 90.000000
_cell_angle_gamma 120.000000
_cell_volume 13129.653475
_symmetry_space_group_name_H-M "P 6/M C C"
_symmetry_group_IT_number 192
_symmetry_cell_setting 'hexagonal'
loop_
_space_group_symop_operation_xyz
x,y,z
x-y,x,z
-y,x-y,z
-x,-y,z
-x+y,-x,z
y,-x+y,z
x-y,-y,1/2-z
-x,-x+y,1/2-z
y,x,1/2-z
-y,-x,1/2-z
-x+y,y,1/2-z
x,x-y,1/2-z
-x,-y,-z
-x+y,-x,-z
y,-x+y,-z
x,y,-z
x-y,x,-z
-y,x-y,-z
-x+y,y,1/2+z
x,x-y,1/2+z
-y,-x,1/2+z
y,x,1/2+z
x-y,-y,1/2+z
-x,-x+y,1/2+z
loop_
_atom_site_type_symbol
_atom_site_label
_atom_site_fract_x
_atom_site_fract_y
_atom_site_fract_z
Si Si1 0.734338 0.916595 0.750000
Si Si2 0.519247 0.574134 0.112536
Si Si3 0.945114 0.425866 0.887464
Si Si4 0.768336 0.768336 0.610933
Si Si5 0.679127 0.098298 0.388598
Si Si6 0.239094 0.858362 0.250000
Si Si7 0.320873 0.901702 0.111402
Si Si8 0.671243 0.671243 0.889127
O O1 0.740827 0.870414 0.750000
O O2 0.759072 0.951768 0.837948
O O3 0.676741 0.895751 0.750000
O O4 0.759072 0.951768 0.662052
O O5 0.466917 0.533083 0.141411
O O6 0.555829 0.555829 0.140845
O O7 0.536086 0.628177 0.139038
O O8 0.520259 0.574205 0.000000
O O9 0.907909 0.371823 0.860962
O O10 0.946055 0.425795 0.000000
O O11 0.775015 0.775015 0.500000
O O12 0.719325 0.719324 0.631075
O O13 0.684208 0.103586 0.500000
O O14 0.727080 0.134856 0.337287
O O15 0.673199 0.047696 0.358839
O O16 0.192643 0.807358 0.250000
O O17 0.272920 0.865144 0.162713
O O18 0.326801 0.952303 0.141161
O O19 0.315792 0.896414 0.000000
O O20 0.667059 0.667059 0.000000
#
# Coordination Sequence:
#
# PCOD9588316 Si02
#       8
#    24  24  24  24  24  24  24  24
#     4  10  21  33  46  68  93 116 151 199 240 267
#     4   8  13  23  41  65  91 115 140 173 213 258
#     4   8  13  23  41  65  91 115 140 173 213 258
#     4  10  19  33  50  66  88 120 158 196 232 270
#     4  10  18  30  46  62  85 117 149 184 223 265
#     4  11  23  33  42  60  83 113 154 197 235 265
#     4  10  18  30  46  62  85 117 149 184 223 265
#     4   9  15  25  42  64  82 111 154 181 213 260
#
# _framework density 14.623386
#
# number of rings (size 3 to 8) (size 9 to 14) (size 15 to 20)
#    0.000    2.500    3.750    0.750    0.000    1.500 
#    0.000    3.125    0.000    1.500    0.000    0.000 
#    0.000    0.000    0.000   15.000    0.000   45.500 
#
# Total GULP energy -1069222.237414 kJ/mol
# GULP energy per Si atom -5568.865820 kJ/mol
# Density = 1.459010 g / cm^3
# Si number density = 14.623386 Si / 1000 Ang^3
#
#
#
# Elastic Constant Matrix: (Units=GPa)
#
#
# Indices 1 2 3 4 5 6 
#
# 1 92.8543 45.6100 36.5002 0.0000 0.0000 0.0000
# 2 45.6100 92.8543 36.5002 0.0000 0.0000 0.0000
# 3 36.5002 36.5002 97.7852 0.0000 0.0000 0.0000
# 4 0.0000 0.0000 0.0000 -25.1771 0.0000 0.0000
# 5 0.0000 0.0000 0.0000 0.0000 -25.1771 0.0000
# 6 0.0000 0.0000 0.0000 0.0000 0.0000 23.6222
#
#
#
# Elastic Compliance Matrix: (Units=1/GPa)
#
#
# Indices 1 2 3 4 5 6 
#
# 1 0.015079 -0.006087 -0.003356 0.000000 0.000000 0.000000
# 2 -0.006087 0.015079 -0.003356 0.000000 0.000000 0.000000
# 3 -0.003356 -0.003356 0.012732 0.000000 0.000000 0.000000
# 4 0.000000 0.000000 0.000000 -0.039719 0.000000 0.000000
# 5 0.000000 0.000000 0.000000 0.000000 -0.039719 0.000000
# 6 0.000000 0.000000 0.000000 0.000000 0.000000 0.042333
#
#
# Mechanical properties :
#
#
# Convention : Reuss Voigt Hill
#
# Bulk Modulus (GPa) = 57.83655 57.85719 57.84687
# Shear Modulus (GPa) = 134.59142 5.64582 70.11862
#
# Velocity S-wave (km/s) = 9.60408 1.96703 6.93208
# Velocity P-wave (km/s) = 12.75229 6.69400 10.18407
#
# Compressibility (1/GPa) = 0.01729011
#
# Stress axis : x y z
#
# Youngs Moduli (GPa) = 66.31717 66.31717 78.54168
#
# Poissons Ratio (x) = 0.40371 0.26361
# Poissons Ratio (y) = 0.40371 0.26361
# Poissons Ratio (z) = 0.22258 0.22258
#
# Static dielectric constant tensor:
#      x y z
#    x 1.478330 0.000000 0.000000 
#    y 0.000000 1.478330 0.000000 
#    z 0.000000 0.000000 1.555640 
# 
# From -- ./inp_files/3596.got.cif
#   From: 2010.05.17/outbox.cif.g08.bks.cpg/sg192_2_cif.got.tgz:3596.got - 2010.05.20 12:28:01.
