data_PCOD9588259
_publ_section_title
;
Structure prediction by ZEFSAII (Michael W. Deem and Ramdas Pophale) SiO2 
 PCOD9588259
Probable space group: P 6/M M M
;
_chemical_formula_sum "Si O2"
_cell_formula_units_Z 108
_cell_length_a 18.000000
_cell_length_b 18.000000
_cell_length_c 24.000000
_cell_angle_alpha 90.000000
_cell_angle_beta 90.000000
_cell_angle_gamma 120.000000
_cell_volume 6734.213540
_symmetry_space_group_name_H-M "P 6/M M M"
_symmetry_group_IT_number 191
_symmetry_cell_setting 'hexagonal'
loop_
_space_group_symop_operation_xyz
x,y,z
x-y,x,z
-y,x-y,z
-x,-y,z
-x+y,-x,z
y,-x+y,z
x-y,-y,-z
-x,-x+y,-z
y,x,-z
-y,-x,-z
-x+y,y,-z
x,x-y,-z
-x,-y,-z
-x+y,-x,-z
y,-x+y,-z
x,y,-z
x-y,x,-z
-y,x-y,-z
-x+y,y,z
x,x-y,z
-y,-x,z
y,x,z
x-y,-y,z
-x,-x+y,z
loop_
_atom_site_type_symbol
_atom_site_label
_atom_site_fract_x
_atom_site_fract_y
_atom_site_fract_z
Si Si1 0.094961 0.362152 0.720072
Si Si2 0.163741 0.494610 0.818626
Si Si3 0.361078 0.458922 0.500000
Si Si4 0.460677 0.359780 0.939421
Si Si5 0.163208 0.494373 0.621269
O O1 0.168941 0.337881 0.720252
O O2 0.110110 0.421522 0.773955
O O3 0.110136 0.421095 0.665962
O O4 0.000000 0.283685 0.720143
O O5 0.263105 0.526210 0.806970
O O6 0.145636 0.572818 0.813706
O O7 0.143657 0.459242 0.881726
O O8 0.383986 0.383986 0.500000
O O9 0.451149 0.548852 0.500000
O O10 0.318378 0.459799 0.441886
O O11 0.554094 0.445907 0.940402
O O12 0.392530 0.392530 0.936371
O O13 0.450466 0.316980 0.000000
O O14 0.262684 0.525367 0.631824
O O15 0.145867 0.572934 0.627269
#
# Coordination Sequence:
#
# PCOD9588259 Si02
#       5
#    24  24  12  24  24
#     4  10  21  35  51  70  90 114 144 181 225 271
#     4  10  19  29  42  62  90 123 157 190 222 257
#     4   9  17  28  42  60  84 119 163 205 237 264
#     4   8  14  25  40  56  75 105 149 197 237 268
#     4  10  19  30  45  66  94 127 161 194 226 261
#
# _framework density 16.037507000000002
#
# number of rings (size 3 to 8) (size 9 to 14) (size 15 to 20)
#    0.000    2.556    0.000    3.444    0.000    4.000 
#    0.000    3.333    0.000    1.556    0.000    0.000 
#    0.000    0.000    0.000    0.000    0.000   23.111 
#
# Total GULP energy -601554.416382 kJ/mol
# GULP energy per Si atom -5569.948300 kJ/mol
# Density = 1.600101 g / cm^3
# Si number density = 16.037507 Si / 1000 Ang^3
#
#
#
# Elastic Constant Matrix: (Units=GPa)
#
#
# Indices 1 2 3 4 5 6 
#
# 1 57.7994 50.1341 34.9095 0.0000 0.0000 0.0000
# 2 50.1341 57.7994 34.9095 0.0000 0.0000 0.0000
# 3 34.9095 34.9095 106.1346 0.0000 0.0000 0.0000
# 4 0.0000 0.0000 0.0000 16.8462 0.0000 0.0000
# 5 0.0000 0.0000 0.0000 0.0000 16.8462 0.0000
# 6 0.0000 0.0000 0.0000 0.0000 0.0000 3.8327
#
#
#
# Elastic Compliance Matrix: (Units=1/GPa)
#
#
# Indices 1 2 3 4 5 6 
#
# 1 0.071113 -0.059344 -0.003871 0.000000 0.000000 0.000000
# 2 -0.059344 0.071113 -0.003871 0.000000 0.000000 0.000000
# 3 -0.003871 -0.003871 0.011968 0.000000 0.000000 0.000000
# 4 0.000000 0.000000 0.000000 0.059361 0.000000 0.000000
# 5 0.000000 0.000000 0.000000 0.000000 0.059361 0.000000
# 6 0.000000 0.000000 0.000000 0.000000 0.000000 0.260914
#
#
# Mechanical properties :
#
#
# Convention : Reuss Voigt Hill
#
# Bulk Modulus (GPa) = 49.94405 51.29329 50.61867
# Shear Modulus (GPa) = 7.41097 14.29038 10.85067
#
# Velocity S-wave (km/s) = 2.15199 2.98830 2.60394
# Velocity P-wave (km/s) = 6.11428 6.63018 6.37745
#
# Compressibility (1/GPa) = 0.02002240
#
# Stress axis : x y z
#
# Youngs Moduli (GPa) = 14.06214 14.06214 83.55271
#
# Poissons Ratio (x) = 0.83450 0.32344
# Poissons Ratio (y) = 0.83450 0.32344
# Poissons Ratio (z) = 0.05443 0.05443
#
# Static dielectric constant tensor:
#      x y z
#    x 1.524240 0.000000 0.000000 
#    y 0.000000 1.524240 0.000000 
#    z 0.000000 0.000000 1.571150 
# 
# From -- ./inp_files/8363.got.cif
#   From: 2010.05.17/outbox.ucp.g08.bks.cvg/sg191_5_cif.got.tgz:8363.got - 2010.06.11 15:22:43.
