data_PCOD9588393
_publ_section_title
;
Structure prediction by ZEFSAII (Michael W. Deem and Ramdas Pophale) SiO2 
 PCOD9588393
Probable space group: P 6/M C C
;
_chemical_formula_sum "Si O2"
_cell_formula_units_Z 104
_cell_length_a 19.155921
_cell_length_b 19.155921
_cell_length_c 14.414197
_cell_angle_alpha 90.000000
_cell_angle_beta 90.000000
_cell_angle_gamma 120.000000
_cell_volume 4580.650531
_symmetry_space_group_name_H-M "P 6/M C C"
_symmetry_group_IT_number 192
_symmetry_cell_setting 'hexagonal'
loop_
_space_group_symop_operation_xyz
x,y,z
x-y,x,z
-y,x-y,z
-x,-y,z
-x+y,-x,z
y,-x+y,z
x-y,-y,1/2-z
-x,-x+y,1/2-z
y,x,1/2-z
-y,-x,1/2-z
-x+y,y,1/2-z
x,x-y,1/2-z
-x,-y,-z
-x+y,-x,-z
y,-x+y,-z
x,y,-z
x-y,x,-z
-y,x-y,-z
-x+y,y,1/2+z
x,x-y,1/2+z
-y,-x,1/2+z
y,x,1/2+z
x-y,-y,1/2+z
-x,-x+y,1/2+z
loop_
_atom_site_type_symbol
_atom_site_label
_atom_site_fract_x
_atom_site_fract_y
_atom_site_fract_z
Si Si1 0.589524 0.569181 0.886637
Si Si2 0.362703 0.110473 0.611447
Si Si3 0.666668 0.333334 0.113317
Si Si4 0.509830 0.711147 0.613544
Si Si5 0.926641 0.108189 0.358757
O O1 0.500000 0.500000 0.859222
O O2 0.618487 0.660096 0.855034
O O3 0.653247 0.543036 0.856590
O O4 0.589453 0.570502 0.000000
O O5 0.368250 0.109988 0.500000
O O6 0.431650 0.197672 0.643850
O O7 0.274835 0.098674 0.630910
O O8 0.678618 0.418647 0.143075
O O9 0.666667 0.333334 0.000000
O O10 0.510076 0.711123 0.500000
O O11 0.914657 0.085343 0.250000
O O12 0.017840 0.148317 0.396533
#
# Coordination Sequence:
#
# PCOD9588393 Si02
#       5
#    24  24   8  24  24
#     4   9  16  26  41  65  99 133 163 200 247 296
#     4  10  19  31  49  75 105 133 164 206 256 307
#     4   9  15  24  39  63  97 131 163 198 238 284
#     4   9  16  25  39  62  92 125 158 194 237 286
#     4  10  21  37  55  74  97 130 171 214 259 311
#
# _framework density 22.7042
#
# number of rings (size 3 to 8) (size 9 to 14) (size 15 to 20)
#    0.000    2.538    0.000    3.000    0.000    9.231 
#    0.000    0.000    0.000    1.385    0.000   24.231 
#    0.000    0.000    0.000    0.000    0.000    0.000 
#
# Total GULP energy -581143.042884 kJ/mol
# GULP energy per Si atom -5587.913874 kJ/mol
# Density = 2.265252 g / cm^3
# Si number density = 22.704200 Si / 1000 Ang^3
#
#
#
# Elastic Constant Matrix: (Units=GPa)
#
#
# Indices 1 2 3 4 5 6 
#
# 1 222.7056 131.2770 8.8035 -0.0001 0.0001 -0.0004
# 2 131.2770 222.7009 8.8034 -0.0001 0.0000 -0.0006
# 3 8.8035 8.8034 81.6818 0.0000 0.0000 0.0000
# 4 -0.0001 -0.0001 0.0000 11.3096 0.0000 0.0000
# 5 0.0001 0.0000 0.0000 0.0000 11.3096 0.0000
# 6 -0.0004 -0.0006 0.0000 0.0000 0.0000 45.7127
#
#
#
# Elastic Compliance Matrix: (Units=1/GPa)
#
#
# Indices 1 2 3 4 5 6 
#
# 1 0.006889 -0.004049 -0.000306 0.000000 0.000000 0.000000
# 2 -0.004049 0.006889 -0.000306 0.000000 0.000000 0.000000
# 3 -0.000306 -0.000306 0.012309 0.000000 0.000000 0.000000
# 4 0.000000 0.000000 0.000000 0.088420 0.000000 0.000000
# 5 0.000000 0.000000 0.000000 0.000000 0.088420 0.000000
# 6 0.000000 0.000000 0.000000 0.000000 0.000000 0.021876
#
#
# Mechanical properties :
#
#
# Convention : Reuss Voigt Hill
#
# Bulk Modulus (GPa) = 59.64936 91.65069 75.65002
# Shear Modulus (GPa) = 20.85824 38.88000 29.86912
#
# Velocity S-wave (km/s) = 3.03429 4.14268 3.63102
# Velocity P-wave (km/s) = 6.21332 7.95847 7.13942
#
# Compressibility (1/GPa) = 0.01676464
#
# Stress axis : x y z
#
# Youngs Moduli (GPa) = 145.16026 145.15717 81.24391
#
# Poissons Ratio (x) = 0.58771 0.02487
# Poissons Ratio (y) = 0.58772 0.02487
# Poissons Ratio (z) = 0.04444 0.04444
#
# Static dielectric constant tensor:
#      x y z
#    x 1.795720 0.000000 0.000000 
#    y 0.000000 1.795720 0.000000 
#    z 0.000000 0.000000 1.916980 
# 
# From -- ./inp_files/4833.got.cif
#   From: 2010.05.17/outbox.cif.g08.bks.cpg/sg192_3_cif.got.tgz:4833.got - 2010.05.20 12:28:01.
