data_PCOD9588989
_publ_section_title
;
Structure prediction by ZEFSAII (Michael W. Deem and Ramdas Pophale) SiO2 
 PCOD9588989
Probable space group: P 63/M C M
;
_chemical_formula_sum "Si O2"
_cell_formula_units_Z 168
_cell_length_a 22.298294
_cell_length_b 22.298294
_cell_length_c 24.550706
_cell_angle_alpha 90.000000
_cell_angle_beta 90.000000
_cell_angle_gamma 120.000000
_cell_volume 10571.531101
_symmetry_space_group_name_H-M "P 63/M C M"
_symmetry_group_IT_number 193
_symmetry_cell_setting 'hexagonal'
loop_
_space_group_symop_operation_xyz
x,y,z
x-y,x,1/2+z
-y,x-y,z
-x,-y,1/2+z
-x+y,-x,z
y,-x+y,1/2+z
x-y,-y,1/2-z
-x,-x+y,1/2-z
y,x,1/2-z
-y,-x,-z
-x+y,y,-z
x,x-y,-z
-x,-y,-z
-x+y,-x,1/2-z
y,-x+y,-z
x,y,1/2-z
x-y,x,-z
-y,x-y,1/2-z
-x+y,y,1/2+z
x,x-y,1/2+z
-y,-x,1/2+z
y,x,z
x-y,-y,z
-x,-x+y,z
loop_
_atom_site_type_symbol
_atom_site_label
_atom_site_fract_x
_atom_site_fract_y
_atom_site_fract_z
Si Si1 0.078305 0.921867 0.565264
Si Si2 0.603488 0.084420 0.813172
Si Si3 0.388796 0.082555 0.091853
Si Si4 0.395367 0.916530 0.633386
Si Si5 0.728695 0.645534 0.811106
Si Si6 0.083010 0.677832 0.029627
Si Si7 0.175960 0.857687 0.913442
O O1 0.074177 0.925824 0.500000
O O2 0.130983 0.894030 0.575251
O O3 0.000000 0.871606 0.585428
O O4 0.110202 0.000000 0.586991
O O5 0.621037 0.106906 0.750000
O O6 0.665647 0.103257 0.855307
O O7 0.553522 0.108879 0.840941
O O8 0.559800 0.000000 0.811937
O O9 0.349675 0.125592 0.087471
O O10 0.335663 0.000000 0.095304
O O11 0.427121 0.094215 0.033418
O O12 0.331949 0.900796 0.673092
O O13 0.361332 0.894400 0.573355
O O14 0.442867 0.000000 0.630458
O O15 0.752810 0.648142 0.750000
O O16 0.693236 0.693236 0.815371
O O17 0.788179 0.670269 0.855009
O O18 0.118730 0.759025 0.045372
O O19 0.000000 0.645370 0.037228
#
# Coordination Sequence:
#
# PCOD9588989 Si02
#       7
#    24  24  24  24  24  24  24
#     4  10  19  30  45  64  86 115 157 210 263 310
#     4   9  17  29  44  62  88 121 150 173 203 252
#     4  10  20  30  41  61  92 128 158 184 220 275
#     4   8  14  26  46  68  88 111 138 173 217 261
#     4   9  17  29  46  68  90 112 147 195 240 281
#     4   9  17  29  45  67  91 115 150 192 234 279
#     4  11  19  29  45  64  90 124 156 192 243 298
#
# _framework density 15.891738
#
# number of rings (size 3 to 8) (size 9 to 14) (size 15 to 20)
#    0.000    2.571    0.000    4.429    0.000    5.714 
#    0.000    2.857    0.000    1.286    0.000    0.000 
#   11.429    1.143    6.857    0.000    1.714    0.000 
#
# Total GULP energy -935559.092298 kJ/mol
# GULP energy per Si atom -5568.804121 kJ/mol
# Density = 1.585557 g / cm^3
# Si number density = 15.891738 Si / 1000 Ang^3
#
#
#
# Elastic Constant Matrix: (Units=GPa)
#
#
# Indices 1 2 3 4 5 6 
#
# 1 41.6802 23.7763 36.1487 0.0000 0.0000 0.0000
# 2 23.7763 41.6802 36.1487 0.0000 0.0000 0.0000
# 3 36.1487 36.1487 116.5760 0.0000 0.0000 0.0000
# 4 0.0000 0.0000 0.0000 -5.5008 0.0000 0.0000
# 5 0.0000 0.0000 0.0000 0.0000 -5.5008 0.0000
# 6 0.0000 0.0000 0.0000 0.0000 0.0000 8.9520
#
#
#
# Elastic Compliance Matrix: (Units=1/GPa)
#
#
# Indices 1 2 3 4 5 6 
#
# 1 0.039545 -0.016309 -0.007205 0.000000 0.000000 0.000000
# 2 -0.016309 0.039545 -0.007205 0.000000 0.000000 0.000000
# 3 -0.007205 -0.007205 0.013046 0.000000 0.000000 0.000000
# 4 0.000000 0.000000 0.000000 -0.181792 0.000000 0.000000
# 5 0.000000 0.000000 0.000000 0.000000 -0.181792 0.000000
# 6 0.000000 0.000000 0.000000 0.000000 0.000000 0.111708
#
#
# Mechanical properties :
#
#
# Convention : Reuss Voigt Hill
#
# Bulk Modulus (GPa) = 32.57629 43.56483 38.07056
# Shear Modulus (GPa) = -56.77251 6.51426 -25.12912
#
# Velocity S-wave (km/s) = -5.98349 2.02683 -3.98083
# Velocity P-wave (km/s) = 5.21467 5.74025 1.69671
#
# Compressibility (1/GPa) = 0.03069717
#
# Stress axis : x y z
#
# Youngs Moduli (GPa) = 25.28796 25.28796 76.64945
#
# Poissons Ratio (x) = 0.41243 0.55226
# Poissons Ratio (y) = 0.41243 0.55226
# Poissons Ratio (z) = 0.18220 0.18220
#
# Static dielectric constant tensor:
#      x y z
#    x 1.523540 0.000000 0.000000 
#    y 0.000000 1.523540 0.000000 
#    z 0.000000 0.000000 1.554970 
# 
# From -- ./inp_files/7731.got.cif
#   From: 2010.05.17/outbox.cif.g08.bks.cpg/sg193_4_cif.got.tgz:7731.got - 2010.05.20 12:33:02.
