data_PCOD9588321
_publ_section_title
;
Structure prediction by ZEFSAII (Michael W. Deem and Ramdas Pophale) SiO2 
 PCOD9588321
Probable space group: P 6/M C C
;
_chemical_formula_sum "Si O2"
_cell_formula_units_Z 168
_cell_length_a 26.742731
_cell_length_b 26.742731
_cell_length_c 15.390591
_cell_angle_alpha 90.000000
_cell_angle_beta 90.000000
_cell_angle_gamma 120.000000
_cell_volume 9532.294261
_symmetry_space_group_name_H-M "P 6/M C C"
_symmetry_group_IT_number 192
_symmetry_cell_setting 'hexagonal'
loop_
_space_group_symop_operation_xyz
x,y,z
x-y,x,z
-y,x-y,z
-x,-y,z
-x+y,-x,z
y,-x+y,z
x-y,-y,1/2-z
-x,-x+y,1/2-z
y,x,1/2-z
-y,-x,1/2-z
-x+y,y,1/2-z
x,x-y,1/2-z
-x,-y,-z
-x+y,-x,-z
y,-x+y,-z
x,y,-z
x-y,x,-z
-y,x-y,-z
-x+y,y,1/2+z
x,x-y,1/2+z
-y,-x,1/2+z
y,x,1/2+z
x-y,-y,1/2+z
-x,-x+y,1/2+z
loop_
_atom_site_type_symbol
_atom_site_label
_atom_site_fract_x
_atom_site_fract_y
_atom_site_fract_z
Si Si1 0.934371 0.467186 0.853166
Si Si2 0.770167 0.115157 0.893448
Si Si3 0.769387 0.769387 0.603550
Si Si4 0.424467 0.358091 0.896365
Si Si5 0.115157 0.344990 0.393448
Si Si6 0.885908 0.885908 0.354918
Si Si7 0.424467 0.066376 0.103635
O O1 0.937878 0.468939 0.750000
O O2 0.908997 0.507978 0.879093
O O3 0.908997 0.401019 0.879092
O O4 0.000000 0.500000 0.890459
O O5 0.773333 0.058902 0.864254
O O6 0.707461 0.103885 0.865194
O O7 0.825398 0.174602 0.864312
O O8 0.771619 0.116177 0.000000
O O9 0.761250 0.761250 0.500000
O O10 0.714431 0.773333 0.635746
O O11 0.828079 0.828079 0.620669
O O12 0.388705 0.388705 0.861844
O O13 0.416881 0.354807 0.000000
O O14 0.116177 0.344558 0.500000
O O15 0.103885 0.396424 0.365194
O O16 0.942450 0.884901 0.386465
O O17 0.888761 0.888761 0.250000
O O18 0.416881 0.062074 0.000000
#
# Coordination Sequence:
#
# PCOD9588321 Si02
#       7
#    24  24  24  24  24  24  24
#     4   9  17  27  41  63  89 115 141 173 217 255
#     4   9  16  26  43  67  94 122 152 187 226 269
#     4  10  18  31  49  70  91 116 149 187 232 281
#     4   9  15  26  43  63  87 117 151 178 207 255
#     4   9  16  26  43  67  94 122 152 187 226 269
#     4  10  21  36  50  62  79 107 146 193 245 297
#     4   9  15  26  43  63  87 117 151 178 207 255
#
# _framework density 17.624299000000001
#
# number of rings (size 3 to 8) (size 9 to 14) (size 15 to 20)
#    0.000    2.714    1.429    1.429    0.000    4.000 
#    0.000    1.429    0.000    3.429    0.000    0.000 
#    1.429    0.000    2.571    0.000    0.857    0.000 
#
# Total GULP energy -936511.109463 kJ/mol
# GULP energy per Si atom -5574.470890 kJ/mol
# Density = 1.758419 g / cm^3
# Si number density = 17.624299 Si / 1000 Ang^3
#
#
#
# Elastic Constant Matrix: (Units=GPa)
#
#
# Indices 1 2 3 4 5 6 
#
# 1 150.1531 107.9805 3.4830 0.0000 0.0000 0.0000
# 2 107.9805 150.1531 3.4830 0.0000 0.0000 0.0000
# 3 3.4830 3.4830 26.8844 0.0000 0.0000 0.0000
# 4 0.0000 0.0000 0.0000 22.2157 0.0000 0.0000
# 5 0.0000 0.0000 0.0000 0.0000 22.2157 0.0000
# 6 0.0000 0.0000 0.0000 0.0000 0.0000 21.0863
#
#
#
# Elastic Compliance Matrix: (Units=1/GPa)
#
#
# Indices 1 2 3 4 5 6 
#
# 1 0.013800 -0.009912 -0.000504 0.000000 0.000000 0.000000
# 2 -0.009912 0.013800 -0.000504 0.000000 0.000000 0.000000
# 3 -0.000504 -0.000504 0.037327 0.000000 0.000000 0.000000
# 4 0.000000 0.000000 0.000000 0.045013 0.000000 0.000000
# 5 0.000000 0.000000 0.000000 0.000000 0.045013 0.000000
# 6 0.000000 0.000000 0.000000 0.000000 0.000000 0.047424
#
#
# Mechanical properties :
#
#
# Convention : Reuss Voigt Hill
#
# Bulk Modulus (GPa) = 23.20872 61.89818 42.55345
# Shear Modulus (GPa) = 20.95747 27.25316 24.10532
#
# Velocity S-wave (km/s) = 3.45211 3.93662 3.70230
# Velocity P-wave (km/s) = 5.39320 7.47394 6.51715
#
# Compressibility (1/GPa) = 0.04308725
#
# Stress axis : x y z
#
# Youngs Moduli (GPa) = 72.46481 72.46481 26.79044
#
# Poissons Ratio (x) = 0.71829 0.01349
# Poissons Ratio (y) = 0.71829 0.01349
# Poissons Ratio (z) = 0.03650 0.03650
#
# Static dielectric constant tensor:
#      x y z
#    x 1.602200 0.000000 0.000000 
#    y 0.000000 1.602200 0.000000 
#    z 0.000000 0.000000 1.642470 
# 
# From -- ./inp_files/5344.got.cif
#   From: 2010.05.17/outbox.cif.g08.bks.cpg/sg192_3_cif.got.tgz:5344.got - 2010.05.20 12:28:01.
