data_PCOD9588626
_publ_section_title
;
Structure prediction by ZEFSAII (Michael W. Deem and Ramdas Pophale) SiO2 
 PCOD9588626
Probable space group: P 6/M C C
;
_chemical_formula_sum "Si O2"
_cell_formula_units_Z 120
_cell_length_a 23.607724
_cell_length_b 23.607724
_cell_length_c 14.536742
_cell_angle_alpha 90.000000
_cell_angle_beta 90.000000
_cell_angle_gamma 120.000000
_cell_volume 7016.264497
_symmetry_space_group_name_H-M "P 6/M C C"
_symmetry_group_IT_number 192
_symmetry_cell_setting 'hexagonal'
loop_
_space_group_symop_operation_xyz
x,y,z
x-y,x,z
-y,x-y,z
-x,-y,z
-x+y,-x,z
y,-x+y,z
x-y,-y,1/2-z
-x,-x+y,1/2-z
y,x,1/2-z
-y,-x,1/2-z
-x+y,y,1/2-z
x,x-y,1/2-z
-x,-y,-z
-x+y,-x,-z
y,-x+y,-z
x,y,-z
x-y,x,-z
-y,x-y,-z
-x+y,y,1/2+z
x,x-y,1/2+z
-y,-x,1/2+z
y,x,1/2+z
x-y,-y,1/2+z
-x,-x+y,1/2+z
loop_
_atom_site_type_symbol
_atom_site_label
_atom_site_fract_x
_atom_site_fract_y
_atom_site_fract_z
Si Si1 0.296779 0.521347 0.000000
Si Si2 0.683073 0.996285 0.144284
Si Si3 0.245035 0.897638 0.000000
Si Si4 0.245018 0.365867 0.000000
Si Si5 0.400070 0.833575 0.650184
Si Si6 0.575862 0.543257 0.111443
Si Si7 0.844485 0.498388 0.000000
O O1 0.279541 0.445306 0.000000
O O2 0.340452 0.557322 0.911692
O O3 0.231482 0.524209 0.000000
O O4 0.618321 0.003679 0.139743
O O5 0.702588 0.000000 0.250000
O O6 0.659838 0.928432 0.087919
O O7 0.740144 0.055661 0.087648
O O8 0.175011 0.831844 0.000000
O O9 0.302962 0.879301 0.000000
O O10 0.404861 0.809722 0.750000
O O11 0.391241 0.896687 0.658276
O O12 0.465528 0.857270 0.588806
O O13 0.500000 0.500000 0.135415
O O14 0.580878 0.541204 0.000000
#
# Coordination Sequence:
#
# PCOD9588626 Si02
#       7
#    12  24  12  12  24  24  12
#     4  10  20  40  53  67  96 137 168 224 282 332
#     4  11  22  35  55  85 111 138 183 223 264 322
#     4  10  22  37  57  78 106 149 181 208 270 319
#     4  10  20  40  56  75 112 146 174 220 261 323
#     4  11  22  35  53  76  97 128 173 226 292 343
#     4  11  20  32  52  74 110 138 168 219 285 334
#     4  10  22  37  54  68  98 130 179 222 271 350
#
# _framework density 17.103117000000001
#
# number of rings (size 3 to 8) (size 9 to 14) (size 15 to 20)
#    0.000    1.400    6.000    1.200    5.600    1.600 
#    4.800    4.000    0.000    0.000    0.000    0.000 
#    0.000    0.000    0.000   19.200    0.000   41.600 
#
# Total GULP energy -669860.166850 kJ/mol
# GULP energy per Si atom -5582.168057 kJ/mol
# Density = 1.706419 g / cm^3
# Si number density = 17.103117 Si / 1000 Ang^3
#
#
#
# Elastic Constant Matrix: (Units=GPa)
#
#
# Indices 1 2 3 4 5 6 
#
# 1 76.3812 15.1760 37.3145 0.0000 0.0000 0.0000
# 2 15.1760 76.3812 37.3145 0.0000 0.0000 0.0000
# 3 37.3145 37.3145 153.2798 0.0000 0.0000 0.0000
# 4 0.0000 0.0000 0.0000 4.1311 0.0000 0.0000
# 5 0.0000 0.0000 0.0000 0.0000 4.1311 0.0000
# 6 0.0000 0.0000 0.0000 0.0000 0.0000 30.6026
#
#
#
# Elastic Compliance Matrix: (Units=1/GPa)
#
#
# Indices 1 2 3 4 5 6 
#
# 1 0.014982 -0.001356 -0.003317 0.000000 0.000000 0.000000
# 2 -0.001356 0.014982 -0.003317 0.000000 0.000000 0.000000
# 3 -0.003317 -0.003317 0.008139 0.000000 0.000000 0.000000
# 4 0.000000 0.000000 0.000000 0.242064 0.000000 0.000000
# 5 0.000000 0.000000 0.000000 0.000000 0.242064 0.000000
# 6 0.000000 0.000000 0.000000 0.000000 0.000000 0.032677
#
#
# Mechanical properties :
#
#
# Convention : Reuss Voigt Hill
#
# Bulk Modulus (GPa) = 45.20282 53.96136 49.58209
# Shear Modulus (GPa) = 8.64658 22.18878 15.41768
#
# Velocity S-wave (km/s) = 2.25090 3.60579 3.00568
# Velocity P-wave (km/s) = 5.76562 6.99676 6.41081
#
# Compressibility (1/GPa) = 0.02212252
#
# Stress axis : x y z
#
# Youngs Moduli (GPa) = 66.74579 66.74579 122.86433
#
# Poissons Ratio (x) = 0.09052 0.40755
# Poissons Ratio (y) = 0.09052 0.40755
# Poissons Ratio (z) = 0.22140 0.22140
#
# Static dielectric constant tensor:
#      x y z
#    x 1.582870 0.000000 0.000000 
#    y 0.000000 1.582870 0.000000 
#    z 0.000000 0.000000 1.622770 
# 
# From -- ./inp_files/3187.got.cif
#   From: 2010.05.17/outbox.cif.g08.bks.cpg/sg192_2_cif.got.tgz:3187.got - 2010.05.20 12:28:01.
