data_PCOD9588384
_publ_section_title
;
Structure prediction by ZEFSAII (Michael W. Deem and Ramdas Pophale) SiO2 
 PCOD9588384
Probable space group: P 6/M C C
;
_chemical_formula_sum "Si O2"
_cell_formula_units_Z 120
_cell_length_a 20.709381
_cell_length_b 20.709381
_cell_length_c 16.896190
_cell_angle_alpha 90.000000
_cell_angle_beta 90.000000
_cell_angle_gamma 120.000000
_cell_volume 6275.576853
_symmetry_space_group_name_H-M "P 6/M C C"
_symmetry_group_IT_number 192
_symmetry_cell_setting 'hexagonal'
loop_
_space_group_symop_operation_xyz
x,y,z
x-y,x,z
-y,x-y,z
-x,-y,z
-x+y,-x,z
y,-x+y,z
x-y,-y,1/2-z
-x,-x+y,1/2-z
y,x,1/2-z
-y,-x,1/2-z
-x+y,y,1/2-z
x,x-y,1/2-z
-x,-y,-z
-x+y,-x,-z
y,-x+y,-z
x,y,-z
x-y,x,-z
-y,x-y,-z
-x+y,y,1/2+z
x,x-y,1/2+z
-y,-x,1/2+z
y,x,1/2+z
x-y,-y,1/2+z
-x,-x+y,1/2+z
loop_
_atom_site_type_symbol
_atom_site_label
_atom_site_fract_x
_atom_site_fract_y
_atom_site_fract_z
Si Si1 0.997227 0.658214 0.589781
Si Si2 0.763374 0.256582 0.090015
Si Si3 0.125388 0.471006 0.175278
Si Si4 0.583567 0.104916 0.588867
Si Si5 0.241154 0.366536 0.807673
O O1 0.995722 0.681845 0.500000
O O2 0.950312 0.567338 0.591058
O O3 0.955682 0.683244 0.653695
O O4 0.078655 0.678660 0.618123
O O5 0.695093 0.211296 0.148398
O O6 0.811877 0.345564 0.094636
O O7 0.821165 0.230029 0.118212
O O8 0.739238 0.236017 0.000000
O O9 0.093241 0.525398 0.157076
O O10 0.121225 0.432067 0.258158
O O11 0.549957 0.096478 0.500000
O O12 0.169521 0.339042 0.750000
#
# Coordination Sequence:
#
# PCOD9588384 Si02
#       5
#    24  24  24  24  24
#     4  10  19  31  48  68  88 113 147 190 239 291
#     4   9  18  32  45  59  84 117 147 181 233 299
#     4  11  19  30  48  68  88 112 151 198 241 292
#     4   9  18  31  45  64  89 113 143 188 242 294
#     4   9  19  32  46  65  90 114 140 181 240 300
#
# _framework density 19.121749000000001
#
# number of rings (size 3 to 8) (size 9 to 14) (size 15 to 20)
#    0.000    2.400    0.000    4.800    0.000    4.800 
#    1.200    4.000    0.000    0.000    0.000    0.000 
#    0.000    0.000    0.000    0.000    0.000    0.000 
#
# Total GULP energy -668498.641688 kJ/mol
# GULP energy per Si atom -5570.822014 kJ/mol
# Density = 1.907823 g / cm^3
# Si number density = 19.121749 Si / 1000 Ang^3
#
#
#
# Elastic Constant Matrix: (Units=GPa)
#
#
# Indices 1 2 3 4 5 6 
#
# 1 42.2862 10.8151 12.5691 0.0000 0.0000 0.0000
# 2 10.8151 42.2862 12.5691 0.0000 0.0000 0.0000
# 3 12.5691 12.5691 104.7749 0.0000 0.0000 0.0000
# 4 0.0000 0.0000 0.0000 22.1049 0.0000 0.0000
# 5 0.0000 0.0000 0.0000 0.0000 22.1049 0.0000
# 6 0.0000 0.0000 0.0000 0.0000 0.0000 15.7356
#
#
#
# Elastic Compliance Matrix: (Units=1/GPa)
#
#
# Indices 1 2 3 4 5 6 
#
# 1 0.025870 -0.005905 -0.002395 0.000000 0.000000 0.000000
# 2 -0.005905 0.025870 -0.002395 0.000000 0.000000 0.000000
# 3 -0.002395 -0.002395 0.010119 0.000000 0.000000 0.000000
# 4 0.000000 0.000000 0.000000 0.045239 0.000000 0.000000
# 5 0.000000 0.000000 0.000000 0.000000 0.045239 0.000000
# 6 0.000000 0.000000 0.000000 0.000000 0.000000 0.063550
#
#
# Mechanical properties :
#
#
# Convention : Reuss Voigt Hill
#
# Bulk Modulus (GPa) = 24.70970 29.02820 26.86895
# Shear Modulus (GPa) = 19.93876 22.21534 21.07705
#
# Velocity S-wave (km/s) = 3.23263 3.41219 3.32363
# Velocity P-wave (km/s) = 5.18494 5.54416 5.36756
#
# Compressibility (1/GPa) = 0.04046994
#
# Stress axis : x y z
#
# Youngs Moduli (GPa) = 38.65407 38.65407 98.82463
#
# Poissons Ratio (x) = 0.22824 0.23670
# Poissons Ratio (y) = 0.22824 0.23670
# Poissons Ratio (z) = 0.09258 0.09258
#
# Static dielectric constant tensor:
#      x y z
#    x 1.717150 0.000000 0.000000 
#    y 0.000000 1.717150 0.000000 
#    z 0.000000 0.000000 1.733850 
# 
# From -- ./inp_files/3129.got.cif
#   From: 2010.05.17/outbox.cif.g08.bks.cpg/sg192_2_cif.got.tgz:3129.got - 2010.05.20 12:28:01.
