data_PCOD9588186
_publ_section_title
;
Structure prediction by ZEFSAII (Michael W. Deem and Ramdas Pophale) SiO2 
 PCOD9588186
Probable space group: P 6/M M M
;
_chemical_formula_sum "Si O2"
_cell_formula_units_Z 84
_cell_length_a 21.899684
_cell_length_b 21.899684
_cell_length_c 11.195274
_cell_angle_alpha 90.000000
_cell_angle_beta 90.000000
_cell_angle_gamma 120.000000
_cell_volume 4649.872616
_symmetry_space_group_name_H-M "P 6/M M M"
_symmetry_group_IT_number 191
_symmetry_cell_setting 'hexagonal'
loop_
_space_group_symop_operation_xyz
x,y,z
x-y,x,z
-y,x-y,z
-x,-y,z
-x+y,-x,z
y,-x+y,z
x-y,-y,-z
-x,-x+y,-z
y,x,-z
-y,-x,-z
-x+y,y,-z
x,x-y,-z
-x,-y,-z
-x+y,-x,-z
y,-x+y,-z
x,y,-z
x-y,x,-z
-y,x-y,-z
-x+y,y,z
x,x-y,z
-y,-x,z
y,x,z
x-y,-y,z
-x,-x+y,z
loop_
_atom_site_type_symbol
_atom_site_label
_atom_site_fract_x
_atom_site_fract_y
_atom_site_fract_z
Si Si1 0.915493 0.386889 0.500000
Si Si2 0.081011 0.607850 0.142286
Si Si3 0.271845 0.871610 0.696985
Si Si4 0.146806 0.146806 0.862162
Si Si5 0.000000 0.244220 0.643003
O O1 0.898889 0.449445 0.500000
O O2 0.884170 0.335316 0.388981
O O3 0.000000 0.422075 0.500000
O O4 0.107872 0.553936 0.182925
O O5 0.119489 0.689306 0.177774
O O6 0.000000 0.572165 0.187435
O O7 0.078570 0.604009 0.000000
O O8 0.203016 0.796985 0.681722
O O9 0.252267 0.931641 0.667005
O O10 0.070431 0.140862 0.854115
O O11 0.192701 0.192701 0.747790
O O12 0.173657 0.173657 0.000000
O O13 0.000000 0.225845 0.500000
#
# Coordination Sequence:
#
# PCOD9588186 Si02
#       5
#    12  24  24  12  12
#     4  11  21  38  62  85 109 143 192 247 292 339
#     4   9  18  35  59  84 111 146 196 255 304 354
#     4  12  22  35  57  86 122 157 194 242 297 361
#     4  10  23  44  68  90 116 160 217 268 313 369
#     4  12  24  41  59  90 130 172 202 250 317 377
#
# _framework density 18.065011999999999
#
# number of rings (size 3 to 8) (size 9 to 14) (size 15 to 20)
#    0.000    1.286    4.286    3.143    0.000    6.286 
#    0.000    0.000    0.000    8.857    0.000    0.000 
#    0.000    0.000    0.000    0.000    0.000    0.000 
#
# Total GULP energy -468133.297354 kJ/mol
# GULP energy per Si atom -5573.015445 kJ/mol
# Density = 1.802390 g / cm^3
# Si number density = 18.065012 Si / 1000 Ang^3
#
#
#
# Elastic Constant Matrix: (Units=GPa)
#
#
# Indices 1 2 3 4 5 6 
#
# 1 121.4697 76.5474 51.8799 0.0000 0.0000 0.0000
# 2 76.5474 121.4697 51.8799 0.0000 0.0000 0.0000
# 3 51.8799 51.8799 104.7174 0.0000 0.0000 0.0000
# 4 0.0000 0.0000 0.0000 84.0136 0.0000 0.0000
# 5 0.0000 0.0000 0.0000 0.0000 84.0136 0.0000
# 6 0.0000 0.0000 0.0000 0.0000 0.0000 22.4612
#
#
#
# Elastic Compliance Matrix: (Units=1/GPa)
#
#
# Indices 1 2 3 4 5 6 
#
# 1 0.014541 -0.007720 -0.003379 0.000000 0.000000 0.000000
# 2 -0.007720 0.014541 -0.003379 0.000000 0.000000 0.000000
# 3 -0.003379 -0.003379 0.012898 0.000000 0.000000 0.000000
# 4 0.000000 0.000000 0.000000 0.011903 0.000000 0.000000
# 5 0.000000 0.000000 0.000000 0.000000 0.011903 0.000000
# 6 0.000000 0.000000 0.000000 0.000000 0.000000 0.044521
#
#
# Mechanical properties :
#
#
# Convention : Reuss Voigt Hill
#
# Bulk Modulus (GPa) = 76.78995 78.69681 77.74338
# Shear Modulus (GPa) = 34.81806 49.25431 42.03618
#
# Velocity S-wave (km/s) = 4.39495 5.22726 4.82907
# Velocity P-wave (km/s) = 8.26765 8.94930 8.61522
#
# Compressibility (1/GPa) = 0.01302254
#
# Stress axis : x y z
#
# Youngs Moduli (GPa) = 68.77250 68.77250 77.53262
#
# Poissons Ratio (x) = 0.53092 0.26200
# Poissons Ratio (y) = 0.53092 0.26200
# Poissons Ratio (z) = 0.23240 0.23240
#
# Static dielectric constant tensor:
#      x y z
#    x 1.601420 0.000000 0.000000 
#    y 0.000000 1.601420 0.000000 
#    z 0.000000 0.000000 1.873710 
# 
# From -- ./inp_files/2490.got.cif
#   From: 2010.05.17/outbox.cif.g08.bks.cpg/sg191_2_cif.got.tgz:2490.got - 2010.05.20 12:20:32.
