data_PCOD9588782
_publ_section_title
;
Structure prediction by ZEFSAII (Michael W. Deem and Ramdas Pophale) SiO2 
 PCOD9588782
Probable space group: P 6/M C C
;
_chemical_formula_sum "Si O2"
_cell_formula_units_Z 192
_cell_length_a 29.247978
_cell_length_b 29.247978
_cell_length_c 16.734494
_cell_angle_alpha 90.000000
_cell_angle_beta 90.000000
_cell_angle_gamma 120.000000
_cell_volume 12397.522684
_symmetry_space_group_name_H-M "P 6/M C C"
_symmetry_group_IT_number 192
_symmetry_cell_setting 'hexagonal'
loop_
_space_group_symop_operation_xyz
x,y,z
x-y,x,z
-y,x-y,z
-x,-y,z
-x+y,-x,z
y,-x+y,z
x-y,-y,1/2-z
-x,-x+y,1/2-z
y,x,1/2-z
-y,-x,1/2-z
-x+y,y,1/2-z
x,x-y,1/2-z
-x,-y,-z
-x+y,-x,-z
y,-x+y,-z
x,y,-z
x-y,x,-z
-y,x-y,-z
-x+y,y,1/2+z
x,x-y,1/2+z
-y,-x,1/2+z
y,x,1/2+z
x-y,-y,1/2+z
-x,-x+y,1/2+z
loop_
_atom_site_type_symbol
_atom_site_label
_atom_site_fract_x
_atom_site_fract_y
_atom_site_fract_z
Si Si1 0.605298 0.498658 0.654580
Si Si2 0.706122 0.706122 0.597711
Si Si3 0.599865 0.000000 0.095592
Si Si4 0.501342 0.394702 0.345420
Si Si5 0.115455 0.782438 0.097402
Si Si6 0.279405 0.455954 0.596365
Si Si7 0.544046 0.823451 0.903635
Si Si8 0.217562 0.333017 0.597402
O O1 0.600175 0.547927 0.624035
O O2 0.556164 0.443836 0.624679
O O3 0.603066 0.498593 0.750000
O O4 0.662240 0.508548 0.628741
O O5 0.706637 0.706636 0.500000
O O6 0.652798 0.652798 0.622425
O O7 0.701037 0.756091 0.624303
O O8 0.756091 0.701037 0.624303
O O9 0.547927 0.947752 0.124035
O O10 0.600643 1.000000 0.000000
O O11 0.491452 0.337760 0.371259
O O12 0.138542 0.744071 0.119894
O O13 0.158698 0.841302 0.124065
O O14 0.115318 0.783312 0.000000
O O15 0.281583 0.457104 0.500000
O O16 0.235493 0.470987 0.621427
O O17 0.255929 0.394471 0.619894
O O18 0.542896 0.824480 0.000000
O O19 0.216688 0.332006 0.500000
#
# Coordination Sequence:
#
# PCOD9588782 Si02
#       8
#    24  24  24  24  24  24  24  24
#     4  11  23  35  46  65  95 125 150 181 228 283
#     4   9  14  22  40  63  86 112 143 178 221 264
#     4  11  20  32  49  68  88 118 158 193 226 269
#     4  11  23  35  46  65  95 125 150 181 228 283
#     4   8  13  22  38  61  86 109 138 178 217 254
#     4   9  17  31  51  71  87 107 142 185 224 267
#     4   9  17  31  51  71  87 107 142 185 224 267
#     4   8  13  22  38  61  86 109 138 178 217 254
#
# _framework density 15.486965
#
# number of rings (size 3 to 8) (size 9 to 14) (size 15 to 20)
#    0.000    2.500    2.500    3.000    0.000    4.000 
#    0.000    0.000    0.000    0.500    0.000    0.000 
#    0.000    0.000    0.000    0.375    0.000   12.000 
#
# Total GULP energy -1070241.414732 kJ/mol
# GULP energy per Si atom -5574.174035 kJ/mol
# Density = 1.545172 g / cm^3
# Si number density = 15.486965 Si / 1000 Ang^3
#
#
#
# Elastic Constant Matrix: (Units=GPa)
#
#
# Indices 1 2 3 4 5 6 
#
# 1 128.6512 77.9103 14.0426 0.0000 0.0000 0.0000
# 2 77.9103 128.6512 14.0426 0.0000 0.0000 0.0000
# 3 14.0426 14.0426 11.2844 0.0000 0.0000 0.0000
# 4 0.0000 0.0000 0.0000 -12.5243 0.0000 0.0000
# 5 0.0000 0.0000 0.0000 0.0000 -12.5243 0.0000
# 6 0.0000 0.0000 0.0000 0.0000 0.0000 25.3705
#
#
#
# Elastic Compliance Matrix: (Units=1/GPa)
#
#
# Indices 1 2 3 4 5 6 
#
# 1 0.012768 -0.006940 -0.007251 0.000000 0.000000 0.000000
# 2 -0.006940 0.012768 -0.007251 0.000000 0.000000 0.000000
# 3 -0.007251 -0.007251 0.106665 0.000000 0.000000 0.000000
# 4 0.000000 0.000000 0.000000 -0.079845 0.000000 0.000000
# 5 0.000000 0.000000 0.000000 0.000000 -0.079845 0.000000
# 6 0.000000 0.000000 0.000000 0.000000 0.000000 0.039416
#
#
# Mechanical properties :
#
#
# Convention : Reuss Voigt Hill
#
# Bulk Modulus (GPa) = 11.19646 53.39755 32.29700
# Shear Modulus (GPa) = 59.11286 10.90381 35.00834
#
# Velocity S-wave (km/s) = 6.18484 2.65630 4.75963
# Velocity P-wave (km/s) = 7.63206 6.63037 7.14878
#
# Compressibility (1/GPa) = 0.08931391
#
# Stress axis : x y z
#
# Youngs Moduli (GPa) = 78.32363 78.32363 9.37512
#
# Poissons Ratio (x) = 0.54360 0.06798
# Poissons Ratio (y) = 0.54360 0.06798
# Poissons Ratio (z) = 0.56796 0.56796
#
# Static dielectric constant tensor:
#      x y z
#    x 1.519960 0.000000 0.000000 
#    y 0.000000 1.519960 0.000000 
#    z 0.000000 0.000000 1.529090 
# 
# From -- ./inp_files/3573.got.cif
#   From: 2010.05.17/outbox.cif.g08.bks.cpg/sg192_2_cif.got.tgz:3573.got - 2010.05.20 12:28:01.
