data_PCOD9588771
_publ_section_title
;
Structure prediction by ZEFSAII (Michael W. Deem and Ramdas Pophale) SiO2 
 PCOD9588771
Probable space group: P 6/M C C
;
_chemical_formula_sum "Si O2"
_cell_formula_units_Z 114
_cell_length_a 21.500587
_cell_length_b 21.500587
_cell_length_c 13.947416
_cell_angle_alpha 90.000000
_cell_angle_beta 90.000000
_cell_angle_gamma 120.000000
_cell_volume 5583.737847
_symmetry_space_group_name_H-M "P 6/M C C"
_symmetry_group_IT_number 192
_symmetry_cell_setting 'hexagonal'
loop_
_space_group_symop_operation_xyz
x,y,z
x-y,x,z
-y,x-y,z
-x,-y,z
-x+y,-x,z
y,-x+y,z
x-y,-y,1/2-z
-x,-x+y,1/2-z
y,x,1/2-z
-y,-x,1/2-z
-x+y,y,1/2-z
x,x-y,1/2-z
-x,-y,-z
-x+y,-x,-z
y,-x+y,-z
x,y,-z
x-y,x,-z
-y,x-y,-z
-x+y,y,1/2+z
x,x-y,1/2+z
-y,-x,1/2+z
y,x,1/2+z
x-y,-y,1/2+z
-x,-x+y,1/2+z
loop_
_atom_site_type_symbol
_atom_site_label
_atom_site_fract_x
_atom_site_fract_y
_atom_site_fract_z
Si Si1 0.774471 0.541455 0.363547
Si Si2 0.880358 0.702967 0.145686
Si Si3 0.686209 0.423242 0.500000
Si Si4 0.085825 0.173560 0.500000
Si Si5 0.696315 0.000000 0.250000
Si Si6 0.000000 0.500000 0.250000
Si Si7 0.364392 0.924674 0.387879
O O1 0.768972 0.537944 0.250000
O O2 0.793665 0.622142 0.393334
O O3 0.703907 0.476815 0.411020
O O4 0.840051 0.529863 0.392356
O O5 0.851444 0.702888 0.250000
O O6 0.957792 0.714227 0.170445
O O7 0.886780 0.769522 0.087243
O O8 0.610573 0.350000 0.500000
O O9 0.124411 0.124963 0.500000
O O10 0.678899 0.049629 0.318026
O O11 0.048806 0.484431 0.323879
O O12 0.377740 0.951018 0.500000
#
# Coordination Sequence:
#
# PCOD9588771 Si02
#       7
#    24  24  12  12  12   6  24
#     4  11  22  43  69  96 132 180 226 296 340 406
#     4  11  23  43  71 103 136 177 230 293 356 418
#     4  10  25  44  60  96 131 179 239 270 339 414
#     4  12  28  44  70 101 142 188 232 290 361 444
#     4  11  22  41  66 108 139 169 238 290 354 419
#     4  10  26  44  64 110 140 194 218 282 364 428
#     4  11  23  43  69  99 142 182 230 287 348 419
#
# _framework density 20.416429999999998
#
# number of rings (size 3 to 8) (size 9 to 14) (size 15 to 20)
#    0.211    0.842    5.263    2.316    1.474    2.526 
#    0.000    0.000    0.000    1.263    0.000    0.000 
#    0.000    0.000    0.000    0.000    0.000    0.000 
#
# Total GULP energy -635164.503976 kJ/mol
# GULP energy per Si atom -5571.618456 kJ/mol
# Density = 2.036996 g / cm^3
# Si number density = 20.416430 Si / 1000 Ang^3
#
#
#
# Elastic Constant Matrix: (Units=GPa)
#
#
# Indices 1 2 3 4 5 6 
#
# 1 85.3517 35.9067 23.1139 0.0000 0.0000 0.0000
# 2 35.9067 85.3517 23.1139 0.0000 0.0000 0.0000
# 3 23.1139 23.1139 147.8492 0.0000 0.0000 0.0000
# 4 0.0000 0.0000 0.0000 137.4367 0.0000 0.0000
# 5 0.0000 0.0000 0.0000 0.0000 137.4367 0.0000
# 6 0.0000 0.0000 0.0000 0.0000 0.0000 24.7225
#
#
#
# Elastic Compliance Matrix: (Units=1/GPa)
#
#
# Indices 1 2 3 4 5 6 
#
# 1 0.014497 -0.005728 -0.001371 0.000000 0.000000 0.000000
# 2 -0.005728 0.014497 -0.001371 0.000000 0.000000 0.000000
# 3 -0.001371 -0.001371 0.007192 0.000000 0.000000 0.000000
# 4 0.000000 0.000000 0.000000 0.007276 0.000000 0.000000
# 5 0.000000 0.000000 0.000000 0.000000 0.007276 0.000000
# 6 0.000000 0.000000 0.000000 0.000000 0.000000 0.040449
#
#
# Mechanical properties :
#
#
# Convention : Reuss Voigt Hill
#
# Bulk Modulus (GPa) = 51.95497 53.64684 52.80091
# Shear Modulus (GPa) = 43.65202 75.68039 59.66621
#
# Velocity S-wave (km/s) = 4.62896 6.09499 5.41184
# Velocity P-wave (km/s) = 7.35340 8.71006 8.06033
#
# Compressibility (1/GPa) = 0.01924744
#
# Stress axis : x y z
#
# Youngs Moduli (GPa) = 68.97972 68.97972 139.03744
#
# Poissons Ratio (x) = 0.39508 0.19062
# Poissons Ratio (y) = 0.39508 0.19062
# Poissons Ratio (z) = 0.09457 0.09457
#
# Static dielectric constant tensor:
#      x y z
#    x 1.382810 0.000000 0.000000 
#    y 0.000000 1.382810 0.000000 
#    z 0.000000 0.000000 1.686440 
# 
# From -- ./inp_files/3027.got.cif
#   From: 2010.05.17/outbox.cif.g08.bks.cpg/sg192_2_cif.got.tgz:3027.got - 2010.05.20 12:28:01.
