data_PCOD9588930
_publ_section_title
;
Structure prediction by ZEFSAII (Michael W. Deem and Ramdas Pophale) SiO2 
 PCOD9588930
Probable space group: P 63/M C M
;
_chemical_formula_sum "Si O2"
_cell_formula_units_Z 168
_cell_length_a 20.773890
_cell_length_b 20.773890
_cell_length_c 26.266075
_cell_angle_alpha 90.000000
_cell_angle_beta 90.000000
_cell_angle_gamma 120.000000
_cell_volume 9816.608408
_symmetry_space_group_name_H-M "P 63/M C M"
_symmetry_group_IT_number 193
_symmetry_cell_setting 'hexagonal'
loop_
_space_group_symop_operation_xyz
x,y,z
x-y,x,1/2+z
-y,x-y,z
-x,-y,1/2+z
-x+y,-x,z
y,-x+y,1/2+z
x-y,-y,1/2-z
-x,-x+y,1/2-z
y,x,1/2-z
-y,-x,-z
-x+y,y,-z
x,x-y,-z
-x,-y,-z
-x+y,-x,1/2-z
y,-x+y,-z
x,y,1/2-z
x-y,x,-z
-y,x-y,1/2-z
-x+y,y,1/2+z
x,x-y,1/2+z
-y,-x,1/2+z
y,x,z
x-y,-y,z
-x,-x+y,z
loop_
_atom_site_type_symbol
_atom_site_label
_atom_site_fract_x
_atom_site_fract_y
_atom_site_fract_z
Si Si1 0.208798 0.714421 0.693145
Si Si2 0.475433 0.560031 0.345145
Si Si3 0.170697 0.084835 0.188085
Si Si4 0.716359 0.478550 0.586343
Si Si5 0.083179 0.416601 0.623385
Si Si6 0.554686 0.167986 0.447302
Si Si7 0.663045 0.807660 0.809331
O O1 0.241899 0.726896 0.750000
O O2 0.144321 0.629443 0.686935
O O3 0.263528 0.734913 0.645035
O O4 0.176695 0.771064 0.686993
O O5 0.535100 0.535100 0.333038
O O6 0.394256 0.486331 0.343019
O O7 0.480169 0.585645 0.404075
O O8 0.168269 0.082718 0.250000
O O9 0.131963 0.131963 0.171817
O O10 0.257263 0.126288 0.173627
O O11 0.125206 0.000000 0.170153
O O12 0.700216 0.547064 0.585253
O O13 0.784809 0.487283 0.552835
O O14 0.637996 0.409281 0.570894
O O15 0.094621 0.360606 0.658473
O O16 0.000000 0.377206 0.601384
O O17 0.569872 0.139744 0.500000
O O18 0.669585 0.792975 0.750000
#
# Coordination Sequence:
#
# PCOD9588930 Si02
#       7
#    24  24  24  24  24  24  24
#     4   9  18  32  47  64  92 127 159 196 242 286
#     4   9  19  32  45  66  94 123 158 196 234 286
#     4   9  16  25  37  55  80 109 144 191 244 288
#     4   9  18  31  46  70  94 113 151 196 233 281
#     4   9  17  30  46  62  87 119 146 185 237 282
#     4  10  18  30  50  70  90 117 149 192 245 288
#     4   9  17  28  43  63  84 113 160 205 235 275
#
# _framework density 17.113855000000001
#
# number of rings (size 3 to 8) (size 9 to 14) (size 15 to 20)
#    0.000    2.857    0.000    1.286    0.000    3.143 
#    0.000   10.000    0.000    0.000    0.000    0.000 
#    0.000    0.000    0.000    0.000    0.000    0.000 
#
# Total GULP energy -935365.926485 kJ/mol
# GULP energy per Si atom -5567.654324 kJ/mol
# Density = 1.707490 g / cm^3
# Si number density = 17.113855 Si / 1000 Ang^3
#
#
#
# Elastic Constant Matrix: (Units=GPa)
#
#
# Indices 1 2 3 4 5 6 
#
# 1 48.5616 10.3650 -3.5337 0.0000 0.0000 0.0000
# 2 10.3650 48.5616 -3.5337 0.0000 0.0000 0.0000
# 3 -3.5337 -3.5337 40.3367 0.0000 0.0000 0.0000
# 4 0.0000 0.0000 0.0000 9.8362 0.0000 0.0000
# 5 0.0000 0.0000 0.0000 0.0000 9.8362 0.0000
# 6 0.0000 0.0000 0.0000 0.0000 0.0000 19.0983
#
#
#
# Elastic Compliance Matrix: (Units=1/GPa)
#
#
# Indices 1 2 3 4 5 6 
#
# 1 0.021665 -0.004515 0.001502 0.000000 0.000000 0.000000
# 2 -0.004515 0.021665 0.001502 0.000000 0.000000 0.000000
# 3 0.001502 0.001502 0.025055 0.000000 0.000000 0.000000
# 4 0.000000 0.000000 0.000000 0.101665 0.000000 0.000000
# 5 0.000000 0.000000 0.000000 0.000000 0.101665 0.000000
# 6 0.000000 0.000000 0.000000 0.000000 0.000000 0.052361
#
#
# Mechanical properties :
#
#
# Convention : Reuss Voigt Hill
#
# Bulk Modulus (GPa) = 15.29861 16.00611 15.65236
# Shear Modulus (GPa) = 14.33139 16.69832 15.51486
#
# Velocity S-wave (km/s) = 2.89695 3.12704 3.01419
# Velocity P-wave (km/s) = 4.48871 4.73401 4.61299
#
# Compressibility (1/GPa) = 0.06536542
#
# Stress axis : x y z
#
# Youngs Moduli (GPa) = 46.15659 46.15659 39.91287
#
# Poissons Ratio (x) = 0.20839 -0.05997
# Poissons Ratio (y) = 0.20839 -0.05997
# Poissons Ratio (z) = -0.06935 -0.06935
#
# Static dielectric constant tensor:
#      x y z
#    x 1.601640 0.000000 0.000000 
#    y 0.000000 1.601640 0.000000 
#    z 0.000000 0.000000 1.593540 
# 
# From -- ./inp_files/8523.got.cif
#   From: 2010.05.17/outbox.cif.g08.bks.cpg/sg193_5_cif.got.tgz:8523.got - 2010.05.20 12:33:02.
