data_PCOD9588578
_publ_section_title
;
Structure prediction by ZEFSAII (Michael W. Deem and Ramdas Pophale) SiO2 
 PCOD9588578
Probable space group: P 6/M C C
;
_chemical_formula_sum "Si O2"
_cell_formula_units_Z 144
_cell_length_a 21.531717
_cell_length_b 21.531717
_cell_length_c 18.855391
_cell_angle_alpha 90.000000
_cell_angle_beta 90.000000
_cell_angle_gamma 120.000000
_cell_volume 7570.481466
_symmetry_space_group_name_H-M "P 6/M C C"
_symmetry_group_IT_number 192
_symmetry_cell_setting 'hexagonal'
loop_
_space_group_symop_operation_xyz
x,y,z
x-y,x,z
-y,x-y,z
-x,-y,z
-x+y,-x,z
y,-x+y,z
x-y,-y,1/2-z
-x,-x+y,1/2-z
y,x,1/2-z
-y,-x,1/2-z
-x+y,y,1/2-z
x,x-y,1/2-z
-x,-y,-z
-x+y,-x,-z
y,-x+y,-z
x,y,-z
x-y,x,-z
-y,x-y,-z
-x+y,y,1/2+z
x,x-y,1/2+z
-y,-x,1/2+z
y,x,1/2+z
x-y,-y,1/2+z
-x,-x+y,1/2+z
loop_
_atom_site_type_symbol
_atom_site_label
_atom_site_fract_x
_atom_site_fract_y
_atom_site_fract_z
Si Si1 0.956759 0.831446 0.500000
Si Si2 0.833674 0.217682 0.173587
Si Si3 0.686276 0.199713 0.414197
Si Si4 0.910218 0.286294 0.415154
Si Si5 0.971444 0.748721 0.631787
Si Si6 0.534068 0.177932 0.414886
Si Si7 0.853510 0.853510 0.750000
O O1 0.898568 0.858773 0.500000
O O2 0.947057 0.780335 0.566847
O O3 0.796216 0.203785 0.250000
O O4 0.845133 0.288200 0.132929
O O5 0.783833 0.153310 0.121006
O O6 0.906946 0.217216 0.178470
O O7 0.687502 0.188498 0.500000
O O8 0.607788 0.183373 0.391428
O O9 0.747870 0.282391 0.399666
O O10 0.904310 0.280856 0.500000
O O11 0.889469 0.346694 0.392493
O O12 0.982376 0.287113 0.393866
O O13 0.012806 0.815786 0.682845
O O14 0.535697 0.174064 0.500000
O O15 0.930915 0.861829 0.750000
#
# Coordination Sequence:
#
# PCOD9588578 Si02
#       7
#    12  24  24  24  24  24  12
#     4  12  25  40  60  88 117 148 190 252 314 378
#     4  11  23  38  57  84 118 153 201 248 296 361
#     4   9  17  32  58  87 121 162 202 253 304 352
#     4  10  20  36  57  83 116 155 201 254 296 351
#     4  12  24  38  62  85 115 154 199 239 301 365
#     4   8  15  29  53  85 118 154 202 251 300 345
#     4  12  25  44  64  88 115 150 188 240 298 368
#
# _framework density 19.021246999999999
#
# number of rings (size 3 to 8) (size 9 to 14) (size 15 to 20)
#    0.000    1.667    0.833    6.500    2.333    1.333 
#    0.000    5.833    0.000    3.000    0.000    5.833 
#    0.000    0.000    0.000    0.000    0.000    0.000 
#
# Total GULP energy -802747.062201 kJ/mol
# GULP energy per Si atom -5574.632376 kJ/mol
# Density = 1.897795 g / cm^3
# Si number density = 19.021247 Si / 1000 Ang^3
#
#
#
# Elastic Constant Matrix: (Units=GPa)
#
#
# Indices 1 2 3 4 5 6 
#
# 1 98.1992 23.3539 21.9681 0.0000 0.0000 0.0000
# 2 23.3539 98.1992 21.9681 0.0000 0.0000 0.0000
# 3 21.9681 21.9681 69.0547 0.0000 0.0000 0.0000
# 4 0.0000 0.0000 0.0000 27.2714 0.0000 0.0000
# 5 0.0000 0.0000 0.0000 0.0000 27.2714 0.0000
# 6 0.0000 0.0000 0.0000 0.0000 0.0000 37.4227
#
#
#
# Elastic Compliance Matrix: (Units=1/GPa)
#
#
# Indices 1 2 3 4 5 6 
#
# 1 0.011328 -0.002033 -0.002957 0.000000 0.000000 0.000000
# 2 -0.002033 0.011328 -0.002957 0.000000 0.000000 0.000000
# 3 -0.002957 -0.002957 0.016363 0.000000 0.000000 0.000000
# 4 0.000000 0.000000 0.000000 0.036668 0.000000 0.000000
# 5 0.000000 0.000000 0.000000 0.000000 0.036668 0.000000
# 6 0.000000 0.000000 0.000000 0.000000 0.000000 0.026722
#
#
# Mechanical properties :
#
#
# Convention : Reuss Voigt Hill
#
# Bulk Modulus (GPa) = 43.24241 44.44815 43.84528
# Shear Modulus (GPa) = 30.73506 31.60396 31.16951
#
# Velocity S-wave (km/s) = 4.02410 4.08058 4.05244
# Velocity P-wave (km/s) = 6.66140 6.75425 6.70799
#
# Compressibility (1/GPa) = 0.02312544
#
# Stress axis : x y z
#
# Youngs Moduli (GPa) = 88.27425 88.27425 61.11412
#
# Poissons Ratio (x) = 0.17942 0.18073
# Poissons Ratio (y) = 0.17942 0.18073
# Poissons Ratio (z) = 0.26105 0.26105
#
# Static dielectric constant tensor:
#      x y z
#    x 1.678060 0.000000 0.000000 
#    y 0.000000 1.678060 0.000000 
#    z 0.000000 0.000000 1.661960 
# 
# From -- ./inp_files/5174.got.cif
#   From: 2010.05.17/outbox.cif.g08.bks.cpg/sg192_3_cif.got.tgz:5174.got - 2010.05.20 12:28:01.
