data_PCOD9588557
_publ_section_title
;
Structure prediction by ZEFSAII (Michael W. Deem and Ramdas Pophale) SiO2 
 PCOD9588557
Probable space group: P 6/M C C
;
_chemical_formula_sum "Si O2"
_cell_formula_units_Z 192
_cell_length_a 29.948652
_cell_length_b 29.948652
_cell_length_c 15.205634
_cell_angle_alpha 90.000000
_cell_angle_beta 90.000000
_cell_angle_gamma 120.000000
_cell_volume 11811.083051
_symmetry_space_group_name_H-M "P 6/M C C"
_symmetry_group_IT_number 192
_symmetry_cell_setting 'hexagonal'
loop_
_space_group_symop_operation_xyz
x,y,z
x-y,x,z
-y,x-y,z
-x,-y,z
-x+y,-x,z
y,-x+y,z
x-y,-y,1/2-z
-x,-x+y,1/2-z
y,x,1/2-z
-y,-x,1/2-z
-x+y,y,1/2-z
x,x-y,1/2-z
-x,-y,-z
-x+y,-x,-z
y,-x+y,-z
x,y,-z
x-y,x,-z
-y,x-y,-z
-x+y,y,1/2+z
x,x-y,1/2+z
-y,-x,1/2+z
y,x,1/2+z
x-y,-y,1/2+z
-x,-x+y,1/2+z
loop_
_atom_site_type_symbol
_atom_site_label
_atom_site_fract_x
_atom_site_fract_y
_atom_site_fract_z
Si Si1 0.604805 0.387191 0.849139
Si Si2 0.361056 0.347818 0.098572
Si Si3 0.783907 0.575788 0.397211
Si Si4 0.276237 0.546024 0.896452
Si Si5 0.703426 0.103339 0.398854
Si Si6 0.298554 0.880670 0.798262
Si Si7 0.982565 0.537022 0.850104
Si Si8 0.126821 0.619639 0.402427
O O1 0.599528 0.400473 0.750000
O O2 0.662805 0.422774 0.880112
O O3 0.580954 0.325352 0.851253
O O4 0.565433 0.395578 0.906007
O O5 0.310887 0.354364 0.111750
O O6 0.378671 0.316967 0.164233
O O7 0.409065 0.406557 0.105213
O O8 0.358407 0.327869 0.000000
O O9 0.767845 0.576049 0.500000
O O10 0.763683 0.515000 0.373293
O O11 0.846344 0.606958 0.397648
O O12 0.759341 0.598642 0.328561
O O13 0.265882 0.546970 0.000000
O O14 0.684484 0.105180 0.500000
O O15 0.685091 0.113541 0.303988
O O16 0.327683 0.856413 0.852481
O O17 0.921684 0.501748 0.848575
O O18 0.000000 0.500000 0.893808
O O19 0.000000 0.548481 0.750000
O O20 0.109665 0.623512 0.500000
#
# Coordination Sequence:
#
# PCOD9588557 Si02
#       8
#    24  24  24  24  24  24  24  24
#     4  12  26  38  59  78 102 123 158 191 238 287
#     4  10  20  35  54  76 102 131 161 196 236 286
#     4  10  21  36  57  81 102 127 165 203 239 287
#     4  11  23  42  59  75  98 125 153 192 236 284
#     4  10  22  35  51  80 110 130 156 199 248 285
#     4  11  19  35  62  76 100 133 170 195 235 284
#     4  10  21  34  52  70  99 124 160 186 230 274
#     4  11  23  39  58  80 100 128 163 196 229 281
#
# _framework density 16.255918000000001
#
# number of rings (size 3 to 8) (size 9 to 14) (size 15 to 20)
#    0.000    1.375    1.250    6.250    3.500    3.000 
#    0.000    1.250    0.000    0.000    0.000    0.000 
#    0.000    0.000    0.000    0.000    0.000    0.000 
#
# Total GULP energy -1068910.274445 kJ/mol
# GULP energy per Si atom -5567.241013 kJ/mol
# Density = 1.621892 g / cm^3
# Si number density = 16.255918 Si / 1000 Ang^3
#
#
#
# Elastic Constant Matrix: (Units=GPa)
#
#
# Indices 1 2 3 4 5 6 
#
# 1 95.8001 5.2579 17.5894 0.0000 0.0000 0.0000
# 2 5.2579 95.8001 17.5894 0.0000 0.0000 0.0000
# 3 17.5894 17.5894 106.7915 0.0000 0.0000 0.0000
# 4 0.0000 0.0000 0.0000 22.1283 0.0000 0.0000
# 5 0.0000 0.0000 0.0000 0.0000 22.1283 0.0000
# 6 0.0000 0.0000 0.0000 0.0000 0.0000 45.2711
#
#
#
# Elastic Compliance Matrix: (Units=1/GPa)
#
#
# Indices 1 2 3 4 5 6 
#
# 1 0.010771 -0.000274 -0.001729 0.000000 0.000000 0.000000
# 2 -0.000274 0.010771 -0.001729 0.000000 0.000000 0.000000
# 3 -0.001729 -0.001729 0.009934 0.000000 0.000000 0.000000
# 4 0.000000 0.000000 0.000000 0.045191 0.000000 0.000000
# 5 0.000000 0.000000 0.000000 0.000000 0.045191 0.000000
# 6 0.000000 0.000000 0.000000 0.000000 0.000000 0.022089
#
#
# Mechanical properties :
#
#
# Convention : Reuss Voigt Hill
#
# Bulk Modulus (GPa) = 41.64575 42.14058 41.89317
# Shear Modulus (GPa) = 31.36492 35.10253 33.23372
#
# Velocity S-wave (km/s) = 4.39731 4.65194 4.52642
# Velocity P-wave (km/s) = 7.17330 7.40497 7.29006
#
# Compressibility (1/GPa) = 0.02401205
#
# Stress axis : x y z
#
# Youngs Moduli (GPa) = 92.84298 92.84298 100.66857
#
# Poissons Ratio (x) = 0.02541 0.17405
# Poissons Ratio (y) = 0.02541 0.17405
# Poissons Ratio (z) = 0.16052 0.16052
#
# Static dielectric constant tensor:
#      x y z
#    x 1.551020 0.000000 0.000000 
#    y 0.000000 1.551020 0.000000 
#    z 0.000000 0.000000 1.618810 
# 
# From -- ./inp_files/3577.got.cif
#   From: 2010.05.17/outbox.cif.g08.bks.cpg/sg192_2_cif.got.tgz:3577.got - 2010.05.20 12:28:01.
