data_PCOD9588472
_publ_section_title
;
Structure prediction by ZEFSAII (Michael W. Deem and Ramdas Pophale) SiO2 
 PCOD9588472
Probable space group: P 6/M C C
;
_chemical_formula_sum "Si O2"
_cell_formula_units_Z 132
_cell_length_a 16.882308
_cell_length_b 16.882308
_cell_length_c 26.778068
_cell_angle_alpha 90.000000
_cell_angle_beta 90.000000
_cell_angle_gamma 120.000000
_cell_volume 6609.574624
_symmetry_space_group_name_H-M "P 6/M C C"
_symmetry_group_IT_number 192
_symmetry_cell_setting 'hexagonal'
loop_
_space_group_symop_operation_xyz
x,y,z
x-y,x,z
-y,x-y,z
-x,-y,z
-x+y,-x,z
y,-x+y,z
x-y,-y,1/2-z
-x,-x+y,1/2-z
y,x,1/2-z
-y,-x,1/2-z
-x+y,y,1/2-z
x,x-y,1/2-z
-x,-y,-z
-x+y,-x,-z
y,-x+y,-z
x,y,-z
x-y,x,-z
-y,x-y,-z
-x+y,y,1/2+z
x,x-y,1/2+z
-y,-x,1/2+z
y,x,1/2+z
x-y,-y,1/2+z
-x,-x+y,1/2+z
loop_
_atom_site_type_symbol
_atom_site_label
_atom_site_fract_x
_atom_site_fract_y
_atom_site_fract_z
Si Si1 0.000000 0.685895 0.750000
Si Si2 0.916977 0.562809 0.837858
Si Si3 0.366718 0.174227 0.105204
Si Si4 0.950346 0.789589 0.670179
Si Si5 0.868277 0.454736 0.500000
Si Si6 0.502400 0.107756 0.885514
Si Si7 0.798251 0.243415 0.500000
O O1 0.931908 0.594447 0.780603
O O2 0.947351 0.719149 0.712380
O O3 0.883734 0.626012 0.863627
O O4 0.859966 0.458215 0.857329
O O5 0.015536 0.588540 0.859377
O O6 0.273930 0.082885 0.120362
O O7 0.458148 0.171388 0.119209
O O8 0.381008 0.200894 0.047674
O O9 0.876298 0.823655 0.674296
O O10 0.909473 0.492934 0.555072
O O11 0.850311 0.352416 0.500000
O O12 0.784816 0.475944 0.500000
#
# Coordination Sequence:
#
# PCOD9588472 Si02
#       7
#    12  24  24  24  12  24  12
#     4  12  24  43  71  92 128 180 226 284 351 407
#     4  11  23  40  64  94 133 175 222 276 330 404
#     4  11  21  43  64  99 136 176 226 274 340 410
#     4  12  25  44  70 101 133 172 223 291 353 417
#     4  10  19  36  59  98 132 171 224 273 341 387
#     4  10  22  38  61  97 131 177 219 273 334 401
#     4  10  21  35  68  97 134 182 221 280 338 404
#
# _framework density 19.971026999999999
#
# number of rings (size 3 to 8) (size 9 to 14) (size 15 to 20)
#    0.000    1.091    5.455    0.909    0.000    3.636 
#    1.091    3.636    0.000    0.000    0.000    6.364 
#    0.000    0.000    0.000    0.000    0.000    0.000 
#
# Total GULP energy -735301.826171 kJ/mol
# GULP energy per Si atom -5570.468380 kJ/mol
# Density = 1.992557 g / cm^3
# Si number density = 19.971027 Si / 1000 Ang^3
#
#
#
# Elastic Constant Matrix: (Units=GPa)
#
#
# Indices 1 2 3 4 5 6 
#
# 1 76.0278 15.4661 27.4539 0.0000 0.0000 0.0000
# 2 15.4661 76.0278 27.4539 0.0000 0.0000 0.0000
# 3 27.4539 27.4539 100.7748 0.0000 0.0000 0.0000
# 4 0.0000 0.0000 0.0000 25.0610 0.0000 0.0000
# 5 0.0000 0.0000 0.0000 0.0000 25.0610 0.0000
# 6 0.0000 0.0000 0.0000 0.0000 0.0000 30.2808
#
#
#
# Elastic Compliance Matrix: (Units=1/GPa)
#
#
# Indices 1 2 3 4 5 6 
#
# 1 0.014789 -0.001723 -0.003560 0.000000 0.000000 0.000000
# 2 -0.001723 0.014789 -0.003560 0.000000 0.000000 0.000000
# 3 -0.003560 -0.003560 0.011863 0.000000 0.000000 0.000000
# 4 0.000000 0.000000 0.000000 0.039903 0.000000 0.000000
# 5 0.000000 0.000000 0.000000 0.000000 0.039903 0.000000
# 6 0.000000 0.000000 0.000000 0.000000 0.000000 0.033024
#
#
# Mechanical properties :
#
#
# Convention : Reuss Voigt Hill
#
# Bulk Modulus (GPa) = 42.09427 43.73091 42.91259
# Shear Modulus (GPa) = 27.79741 28.24434 28.02088
#
# Velocity S-wave (km/s) = 3.73485 3.76475 3.74983
# Velocity P-wave (km/s) = 6.30256 6.39082 6.34684
#
# Compressibility (1/GPa) = 0.02375620
#
# Stress axis : x y z
#
# Youngs Moduli (GPa) = 67.61796 67.61796 84.29903
#
# Poissons Ratio (x) = 0.11651 0.30006
# Poissons Ratio (y) = 0.11651 0.30006
# Poissons Ratio (z) = 0.24069 0.24069
#
# Static dielectric constant tensor:
#      x y z
#    x 1.760620 0.000000 0.000000 
#    y 0.000000 1.760620 0.000000 
#    z 0.000000 0.000000 1.722030 
# 
# From -- ./inp_files/5854.got.cif
#   From: 2010.05.17/outbox.cif.g08.bks.cpg/sg192_3_cif.got.tgz:5854.got - 2010.05.20 12:28:01.
