data_PCOD9588941
_publ_section_title
;
Structure prediction by ZEFSAII (Michael W. Deem and Ramdas Pophale) SiO2 
 PCOD9588941
Probable space group: P 63/M C M
;
_chemical_formula_sum "Si O2"
_cell_formula_units_Z 96
_cell_length_a 28.951655
_cell_length_b 28.951655
_cell_length_c 8.732438
_cell_angle_alpha 90.000000
_cell_angle_beta 90.000000
_cell_angle_gamma 120.000000
_cell_volume 6338.885868
_symmetry_space_group_name_H-M "P 63/M C M"
_symmetry_group_IT_number 193
_symmetry_cell_setting 'hexagonal'
loop_
_space_group_symop_operation_xyz
x,y,z
x-y,x,1/2+z
-y,x-y,z
-x,-y,1/2+z
-x+y,-x,z
y,-x+y,1/2+z
x-y,-y,1/2-z
-x,-x+y,1/2-z
y,x,1/2-z
-y,-x,-z
-x+y,y,-z
x,x-y,-z
-x,-y,-z
-x+y,-x,1/2-z
y,-x+y,-z
x,y,1/2-z
x-y,x,-z
-y,x-y,1/2-z
-x+y,y,1/2+z
x,x-y,1/2+z
-y,-x,1/2+z
y,x,z
x-y,-y,z
-x,-x+y,z
loop_
_atom_site_type_symbol
_atom_site_label
_atom_site_fract_x
_atom_site_fract_y
_atom_site_fract_z
Si Si1 0.399198 0.399198 0.065600
Si Si2 0.821106 0.542862 0.566396
Si Si3 0.889714 0.393781 0.566342
Si Si4 0.784587 0.667864 0.434050
Si Si5 0.704135 0.704135 0.064713
O O1 0.394032 0.394032 0.250000
O O2 0.400879 0.453775 0.021319
O O3 0.348650 0.348650 0.991878
O O4 0.763476 0.526951 0.500000
O O5 0.819307 0.539455 0.750000
O O6 0.845514 0.508747 0.497749
O O7 0.859405 0.605452 0.523471
O O8 0.884132 0.442066 0.500000
O O9 0.887184 0.393925 0.750000
O O10 0.842512 0.685023 0.500000
O O11 0.788258 0.670169 0.250000
O O12 0.755453 0.700154 0.485517
O O13 0.703357 0.703357 0.250000
#
# Coordination Sequence:
#
# PCOD9588941 Si02
#       5
#    12  24  24  24  12
#     4  10  21  33  47  70  98 128 162 199 239 287
#     4  10  19  33  52  72  94 121 153 194 238 286
#     4  11  22  35  50  71  97 127 161 198 243 293
#     4   9  18  30  47  69  95 126 162 197 234 277
#     4  10  18  31  49  70  97 132 165 199 240 281
#
# _framework density 15.144615999999999
#
# number of rings (size 3 to 8) (size 9 to 14) (size 15 to 20)
#    0.000    2.000    2.500    1.875    0.000    3.000 
#    0.000    0.000    0.000    0.500    0.000    3.500 
#    0.000    0.000    0.000    0.375    0.000    4.500 
#
# Total GULP energy -535722.953916 kJ/mol
# GULP energy per Si atom -5580.447437 kJ/mol
# Density = 1.511015 g / cm^3
# Si number density = 15.144616 Si / 1000 Ang^3
#
#
#
# Elastic Constant Matrix: (Units=GPa)
#
#
# Indices 1 2 3 4 5 6 
#
# 1 129.2691 81.0004 34.2469 0.0000 0.0000 0.0000
# 2 81.0004 129.2691 34.2469 0.0000 0.0000 0.0000
# 3 34.2469 34.2469 28.8497 0.0000 0.0000 0.0000
# 4 0.0000 0.0000 0.0000 21.7628 0.0000 0.0000
# 5 0.0000 0.0000 0.0000 0.0000 21.7628 0.0000
# 6 0.0000 0.0000 0.0000 0.0000 0.0000 24.1343
#
#
#
# Elastic Compliance Matrix: (Units=1/GPa)
#
#
# Indices 1 2 3 4 5 6 
#
# 1 0.014236 -0.006482 -0.009205 0.000000 0.000000 0.000000
# 2 -0.006482 0.014236 -0.009205 0.000000 0.000000 0.000000
# 3 -0.009205 -0.009205 0.056516 0.000000 0.000000 0.000000
# 4 0.000000 0.000000 0.000000 0.045950 0.000000 0.000000
# 5 0.000000 0.000000 0.000000 0.000000 0.045950 0.000000
# 6 0.000000 0.000000 0.000000 0.000000 0.000000 0.041435
#
#
# Mechanical properties :
#
#
# Convention : Reuss Voigt Hill
#
# Bulk Modulus (GPa) = 28.40485 65.15293 46.77889
# Shear Modulus (GPa) = 17.86731 22.72489 20.29610
#
# Velocity S-wave (km/s) = 3.43852 3.87786 3.66478
# Velocity P-wave (km/s) = 5.87886 7.94760 6.99018
#
# Compressibility (1/GPa) = 0.03520526
#
# Stress axis : x y z
#
# Youngs Moduli (GPa) = 70.24539 70.24539 17.69396
#
# Poissons Ratio (x) = 0.45530 0.16287
# Poissons Ratio (y) = 0.45530 0.16287
# Poissons Ratio (z) = 0.64660 0.64660
#
# Static dielectric constant tensor:
#      x y z
#    x 1.490680 0.000000 0.000000 
#    y 0.000000 1.490680 0.000000 
#    z 0.000000 0.000000 1.504640 
# 
# From -- ./inp_files/1251.got.cif
#   From: 2010.05.17/outbox.cif.g08.bks.cpg/sg193_1_cif.got.tgz:1251.got - 2010.05.20 12:33:02.
