data_PCOD9588783
_publ_section_title
;
Structure prediction by ZEFSAII (Michael W. Deem and Ramdas Pophale) SiO2 
 PCOD9588783
Probable space group: P 6/M C C
;
_chemical_formula_sum "Si O2"
_cell_formula_units_Z 120
_cell_length_a 14.728328
_cell_length_b 14.728328
_cell_length_c 28.392574
_cell_angle_alpha 90.000000
_cell_angle_beta 90.000000
_cell_angle_gamma 120.000000
_cell_volume 5333.868356
_symmetry_space_group_name_H-M "P 6/M C C"
_symmetry_group_IT_number 192
_symmetry_cell_setting 'hexagonal'
loop_
_space_group_symop_operation_xyz
x,y,z
x-y,x,z
-y,x-y,z
-x,-y,z
-x+y,-x,z
y,-x+y,z
x-y,-y,1/2-z
-x,-x+y,1/2-z
y,x,1/2-z
-y,-x,1/2-z
-x+y,y,1/2-z
x,x-y,1/2-z
-x,-y,-z
-x+y,-x,-z
y,-x+y,-z
x,y,-z
x-y,x,-z
-y,x-y,-z
-x+y,y,1/2+z
x,x-y,1/2+z
-y,-x,1/2+z
y,x,1/2+z
x-y,-y,1/2+z
-x,-x+y,1/2+z
loop_
_atom_site_type_symbol
_atom_site_label
_atom_site_fract_x
_atom_site_fract_y
_atom_site_fract_z
Si Si1 0.547570 0.798862 0.299949
Si Si2 0.533290 0.733222 0.095949
Si Si3 0.989557 0.730692 0.699658
Si Si4 0.772483 0.950332 0.401273
Si Si5 0.407766 0.889636 0.445188
O O1 0.494972 0.747486 0.250000
O O2 0.492869 0.783016 0.350070
O O3 0.617805 0.924765 0.294989
O O4 0.634894 0.762469 0.307167
O O5 0.648416 0.746025 0.090129
O O6 0.543013 0.842717 0.082030
O O7 0.452668 0.641435 0.062606
O O8 0.027581 0.807610 0.655238
O O9 0.000000 0.784688 0.750000
O O10 0.796754 0.860766 0.418736
O O11 0.391511 0.901577 0.500000
O O12 0.500000 0.000000 0.426365
#
# Coordination Sequence:
#
# PCOD9588783 Si02
#       5
#    24  24  24  24  24
#     4   9  18  31  54  86 127 175 209 250 291 356
#     4  11  22  41  66  87 125 164 203 262 326 372
#     4   9  15  25  45  77 121 175 216 242 275 322
#     4  11  20  32  53  88 130 174 207 243 287 358
#     4  11  25  43  67  96 118 146 205 270 329 393
#
# _framework density 22.497743
#
# number of rings (size 3 to 8) (size 9 to 14) (size 15 to 20)
#    0.000    1.800    4.000    2.400    2.800    0.000 
#    0.000    1.000    0.000    2.400    0.000    0.000 
#    0.000    9.600    0.000    0.000    0.000    0.000 
#
# Total GULP energy -669084.547990 kJ/mol
# GULP energy per Si atom -5575.704567 kJ/mol
# Density = 2.244654 g / cm^3
# Si number density = 22.497743 Si / 1000 Ang^3
#
#
#
# Elastic Constant Matrix: (Units=GPa)
#
#
# Indices 1 2 3 4 5 6 
#
# 1 58.7571 7.2671 -3.2734 0.0000 0.0000 0.0000
# 2 7.2671 58.7571 -3.2734 0.0000 0.0000 0.0000
# 3 -3.2734 -3.2734 23.0860 0.0000 0.0000 0.0000
# 4 0.0000 0.0000 0.0000 17.6741 0.0000 0.0000
# 5 0.0000 0.0000 0.0000 0.0000 17.6741 0.0000
# 6 0.0000 0.0000 0.0000 0.0000 0.0000 25.7450
#
#
#
# Elastic Compliance Matrix: (Units=1/GPa)
#
#
# Indices 1 2 3 4 5 6 
#
# 1 0.017392 -0.002030 0.002178 0.000000 0.000000 0.000000
# 2 -0.002030 0.017392 0.002178 0.000000 0.000000 0.000000
# 3 0.002178 0.002178 0.043934 0.000000 0.000000 0.000000
# 4 0.000000 0.000000 0.000000 0.056580 0.000000 0.000000
# 5 0.000000 0.000000 0.000000 0.000000 0.056580 0.000000
# 6 0.000000 0.000000 0.000000 0.000000 0.000000 0.038843
#
#
# Mechanical properties :
#
#
# Convention : Reuss Voigt Hill
#
# Bulk Modulus (GPa) = 11.99463 15.78231 13.88847
# Shear Modulus (GPa) = 19.69620 21.54398 20.62009
#
# Velocity S-wave (km/s) = 2.96205 3.09788 3.03073
# Velocity P-wave (km/s) = 4.12812 4.45265 4.29345
#
# Compressibility (1/GPa) = 0.08337066
#
# Stress axis : x y z
#
# Youngs Moduli (GPa) = 57.49899 57.49899 22.76146
#
# Poissons Ratio (x) = 0.11670 -0.04958
# Poissons Ratio (y) = 0.11670 -0.04958
# Poissons Ratio (z) = -0.12525 -0.12525
#
# Static dielectric constant tensor:
#      x y z
#    x 1.866240 0.000000 0.000000 
#    y 0.000000 1.866240 0.000000 
#    z 0.000000 0.000000 1.896330 
# 
# From -- ./inp_files/6963.got.cif
#   From: 2010.05.17/outbox.cif.g08.bks.cpg/sg192_4_cif.got.tgz:6963.got - 2010.05.20 12:28:01.
