data_PCOD9588128
_publ_section_title
;
Structure prediction by ZEFSAII (Michael W. Deem and Ramdas Pophale) SiO2 
 PCOD9588128
Probable space group: P 6/M M M
;
_chemical_formula_sum "Si O2"
_cell_formula_units_Z 156
_cell_length_a 21.496623
_cell_length_b 21.496623
_cell_length_c 20.705542
_cell_angle_alpha 90.000000
_cell_angle_beta 90.000000
_cell_angle_gamma 120.000000
_cell_volume 8286.243953
_symmetry_space_group_name_H-M "P 6/M M M"
_symmetry_group_IT_number 191
_symmetry_cell_setting 'hexagonal'
loop_
_space_group_symop_operation_xyz
x,y,z
x-y,x,z
-y,x-y,z
-x,-y,z
-x+y,-x,z
y,-x+y,z
x-y,-y,-z
-x,-x+y,-z
y,x,-z
-y,-x,-z
-x+y,y,-z
x,x-y,-z
-x,-y,-z
-x+y,-x,-z
y,-x+y,-z
x,y,-z
x-y,x,-z
-y,x-y,-z
-x+y,y,z
x,x-y,z
-y,-x,z
y,x,z
x-y,-y,z
-x,-x+y,z
loop_
_atom_site_type_symbol
_atom_site_label
_atom_site_fract_x
_atom_site_fract_y
_atom_site_fract_z
Si Si1 0.809927 0.473652 0.500000
Si Si2 0.365491 0.081867 0.071754
Si Si3 0.361406 0.916547 0.616398
Si Si4 0.917385 0.219585 0.793197
Si Si5 0.079233 0.300000 0.577940
Si Si6 0.839302 0.535918 0.259282
Si Si7 0.665647 0.189988 0.883079
O O1 0.746994 0.493988 0.500000
O O2 0.776591 0.388296 0.500000
O O3 0.863011 0.505882 0.560968
O O4 0.320366 0.088545 0.130204
O O5 0.448815 0.137691 0.083093
O O6 0.349002 0.000000 0.076031
O O7 0.344237 0.092032 0.000000
O O8 0.285516 0.915108 0.609725
O O9 0.360171 0.882322 0.685327
O O10 0.422293 0.000000 0.608864
O O11 0.862643 0.137358 0.776584
O O12 0.886743 0.267021 0.760699
O O13 0.000000 0.250702 0.776112
O O14 0.083853 0.311643 0.500000
O O15 0.144653 0.289305 0.598037
O O16 0.000000 0.234663 0.591930
O O17 0.762143 0.524285 0.282511
O O18 0.825300 0.491223 0.193682
O O19 0.589190 0.178380 0.903240
O O20 0.728704 0.271297 0.894471
#
# Coordination Sequence:
#
# PCOD9588128 Si02
#       7
#    12  24  24  24  24  24  24
#     4  12  26  43  59  75 100 135 173 205 237 288
#     4   9  18  33  53  76 101 130 167 214 263 305
#     4  11  21  35  57  83 106 126 154 204 265 311
#     4   9  17  30  49  74 103 134 169 209 253 301
#     4   9  16  27  45  70  98 128 160 195 239 289
#     4   9  18  33  53  76 102 133 168 207 249 296
#     4  10  21  36  53  74 102 137 174 208 244 292
#
# _framework density 18.826383
#
# number of rings (size 3 to 8) (size 9 to 14) (size 15 to 20)
#    0.000    2.308    0.769    3.692    0.000    3.692 
#    0.000    0.769    0.000    3.077    0.000    1.077 
#    0.000    0.000    0.000    8.769    0.000    3.385 
#
# Total GULP energy -870782.439174 kJ/mol
# GULP energy per Si atom -5581.938713 kJ/mol
# Density = 1.878353 g / cm^3
# Si number density = 18.826383 Si / 1000 Ang^3
#
#
#
# Elastic Constant Matrix: (Units=GPa)
#
#
# Indices 1 2 3 4 5 6 
#
# 1 55.1737 29.5733 -8.3405 0.0000 0.0000 0.0000
# 2 29.5733 55.1737 -8.3405 0.0000 0.0000 0.0000
# 3 -8.3405 -8.3405 61.3951 0.0000 0.0000 0.0000
# 4 0.0000 0.0000 0.0000 -14.6548 0.0000 0.0000
# 5 0.0000 0.0000 0.0000 0.0000 -14.6548 0.0000
# 6 0.0000 0.0000 0.0000 0.0000 0.0000 12.8002
#
#
#
# Elastic Compliance Matrix: (Units=1/GPa)
#
#
# Indices 1 2 3 4 5 6 
#
# 1 0.025593 -0.013469 0.001647 0.000000 0.000000 0.000000
# 2 -0.013469 0.025593 0.001647 0.000000 0.000000 0.000000
# 3 0.001647 0.001647 0.016735 0.000000 0.000000 0.000000
# 4 0.000000 0.000000 0.000000 -0.068237 0.000000 0.000000
# 5 0.000000 0.000000 0.000000 0.000000 -0.068237 0.000000
# 6 0.000000 0.000000 0.000000 0.000000 0.000000 0.078124
#
#
# Mechanical properties :
#
#
# Convention : Reuss Voigt Hill
#
# Bulk Modulus (GPa) = 21.02091 21.94745 21.48418
# Shear Modulus (GPa) = 109.22287 7.28814 58.25551
#
# Velocity S-wave (km/s) = 7.62508 1.96968 5.56873
# Velocity P-wave (km/s) = 9.41872 4.10560 7.26527
#
# Compressibility (1/GPa) = 0.04757168
#
# Stress axis : x y z
#
# Youngs Moduli (GPa) = 39.07324 39.07324 59.75341
#
# Poissons Ratio (x) = 0.52628 -0.09842
# Poissons Ratio (y) = 0.52628 -0.09842
# Poissons Ratio (z) = -0.06436 -0.06436
#
# Static dielectric constant tensor:
#      x y z
#    x 1.639080 0.000000 0.000000 
#    y 0.000000 1.639080 0.000000 
#    z 0.000000 0.000000 1.693950 
# 
# From -- ./inp_files/7722.got.cif
#   From: 2010.05.17/outbox.cif.g08.bks.cpg/sg191_4_cif.got.tgz:7722.got - 2010.05.20 12:20:32.
