data_PCOD9588272
_publ_section_title
;
Structure prediction by ZEFSAII (Michael W. Deem and Ramdas Pophale) SiO2 
 PCOD9588272
Probable space group: P 6/M M M
;
_chemical_formula_sum "Si O2"
_cell_formula_units_Z 66
_cell_length_a 21.000000
_cell_length_b 21.000000
_cell_length_c 9.000000
_cell_angle_alpha 90.000000
_cell_angle_beta 90.000000
_cell_angle_gamma 120.000000
_cell_volume 3437.254828
_symmetry_space_group_name_H-M "P 6/M M M"
_symmetry_group_IT_number 191
_symmetry_cell_setting 'hexagonal'
loop_
_space_group_symop_operation_xyz
x,y,z
x-y,x,z
-y,x-y,z
-x,-y,z
-x+y,-x,z
y,-x+y,z
x-y,-y,-z
-x,-x+y,-z
y,x,-z
-y,-x,-z
-x+y,y,-z
x,x-y,-z
-x,-y,-z
-x+y,-x,-z
y,-x+y,-z
x,y,-z
x-y,x,-z
-y,x-y,-z
-x+y,y,z
x,x-y,z
-y,-x,z
y,x,z
x-y,-y,z
-x,-x+y,z
loop_
_atom_site_type_symbol
_atom_site_label
_atom_site_fract_x
_atom_site_fract_y
_atom_site_fract_z
Si Si1 0.690916 0.086382 0.834543
Si Si2 0.316387 0.158194 0.333101
Si Si3 0.333519 0.527060 0.322434
Si Si4 0.913481 0.086520 0.500000
O O1 0.766205 0.110353 0.749889
O O2 0.645995 0.116907 0.747128
O O3 0.645565 0.000000 0.841242
O O4 0.706940 0.117632 0.000000
O O5 0.349242 0.174621 0.500000
O O6 0.229396 0.114698 0.361298
O O7 0.333430 0.523151 0.500000
O O8 0.252138 0.504275 0.271633
O O9 0.390315 0.609686 0.279059
O O10 0.000000 0.124813 0.500000
#
# Coordination Sequence:
#
# PCOD9588272 Si02
#       4
#    24  12  24   6
#     4  11  23  38  58  86 120 155 194 243 297 354
#     4  10  21  36  60  86 116 153 199 242 292 355
#     4  10  21  38  60  86 115 154 198 244 293 350
#     4  10  21  36  60  92 124 156 194 246 304 362
#
# _framework density 19.201370000000001
#
# number of rings (size 3 to 8) (size 9 to 14) (size 15 to 20)
#    0.545    1.091    1.818    3.182    0.000    5.091 
#    0.000    3.636    0.000    2.182    0.000    0.000 
#    0.000    8.727    0.000    0.000    0.000    0.000 
#
# Total GULP energy -367648.285245 kJ/mol
# GULP energy per Si atom -5570.428564 kJ/mol
# Density = 1.915767 g / cm^3
# Si number density = 19.201370 Si / 1000 Ang^3
#
#
#
# Elastic Constant Matrix: (Units=GPa)
#
#
# Indices 1 2 3 4 5 6 
#
# 1 82.6752 25.2213 36.7929 0.0000 0.0000 0.0000
# 2 25.2213 82.6752 36.7929 0.0000 0.0000 0.0000
# 3 36.7929 36.7929 28.7726 0.0000 0.0000 0.0000
# 4 0.0000 0.0000 0.0000 12.4486 0.0000 0.0000
# 5 0.0000 0.0000 0.0000 0.0000 12.4486 0.0000
# 6 0.0000 0.0000 0.0000 0.0000 0.0000 28.7270
#
#
#
# Elastic Compliance Matrix: (Units=1/GPa)
#
#
# Indices 1 2 3 4 5 6 
#
# 1 0.044938 0.027533 -0.092673 0.000000 0.000000 0.000000
# 2 0.027533 0.044938 -0.092673 0.000000 0.000000 0.000000
# 3 -0.092673 -0.092673 0.271767 0.000000 0.000000 0.000000
# 4 0.000000 0.000000 0.000000 0.080330 0.000000 0.000000
# 5 0.000000 0.000000 0.000000 0.000000 0.080330 0.000000
# 6 0.000000 0.000000 0.000000 0.000000 0.000000 0.034810
#
#
# Mechanical properties :
#
#
# Convention : Reuss Voigt Hill
#
# Bulk Modulus (GPa) = 21.73073 43.52638 32.62856
# Shear Modulus (GPa) = 5.63012 17.07923 11.35467
#
# Velocity S-wave (km/s) = 1.71421 2.98565 2.43440
# Velocity P-wave (km/s) = 3.90639 5.88244 4.99314
#
# Compressibility (1/GPa) = 0.04601777
#
# Stress axis : x y z
#
# Youngs Moduli (GPa) = 22.25266 22.25266 3.67962
#
# Poissons Ratio (x) = -0.61269 0.34100
# Poissons Ratio (y) = -0.61269 0.34100
# Poissons Ratio (z) = 2.06223 2.06223
#
# Static dielectric constant tensor:
#      x y z
#    x 1.660840 0.000000 0.000000 
#    y 0.000000 1.660840 0.000000 
#    z 0.000000 0.000000 1.699570 
# 
# From -- ./inp_files/695.got.cif
#   From: 2010.05.17/outbox.ucp.g08.bks.cvg/sg191_1_cif.got.tgz:695.got - 2010.06.11 15:22:43.
