data_PCOD9588168
_publ_section_title
;
Structure prediction by ZEFSAII (Michael W. Deem and Ramdas Pophale) SiO2 
 PCOD9588168
Probable space group: P 6/M M M
;
_chemical_formula_sum "Si O2"
_cell_formula_units_Z 144
_cell_length_a 32.626305
_cell_length_b 32.626305
_cell_length_c 8.067826
_cell_angle_alpha 90.000000
_cell_angle_beta 90.000000
_cell_angle_gamma 120.000000
_cell_volume 7437.430808
_symmetry_space_group_name_H-M "P 6/M M M"
_symmetry_group_IT_number 191
_symmetry_cell_setting 'hexagonal'
loop_
_space_group_symop_operation_xyz
x,y,z
x-y,x,z
-y,x-y,z
-x,-y,z
-x+y,-x,z
y,-x+y,z
x-y,-y,-z
-x,-x+y,-z
y,x,-z
-y,-x,-z
-x+y,y,-z
x,x-y,-z
-x,-y,-z
-x+y,-x,-z
y,-x+y,-z
x,y,-z
x-y,x,-z
-y,x-y,-z
-x+y,y,z
x,x-y,z
-y,-x,z
y,x,z
x-y,-y,z
-x,-x+y,z
loop_
_atom_site_type_symbol
_atom_site_label
_atom_site_fract_x
_atom_site_fract_y
_atom_site_fract_z
Si Si1 0.426582 0.759880 0.699203
Si Si2 0.853448 0.613875 0.800629
Si Si3 0.946904 0.425975 0.299758
Si Si4 0.947052 0.707233 0.300008
Si Si5 0.146851 0.667671 0.197274
Si Si6 0.801937 0.947122 0.297607
O O1 0.422772 0.755787 0.500000
O O2 0.378444 0.756888 0.762312
O O3 0.432360 0.716180 0.761910
O O4 0.471757 0.810304 0.737947
O O5 0.810308 0.620616 0.738231
O O6 0.904237 0.658042 0.758506
O O7 0.849093 0.565236 0.737323
O O8 0.849910 0.610793 0.000000
O O9 0.946464 0.425131 0.500000
O O10 0.939797 0.469899 0.248333
O O11 0.904030 0.376886 0.239327
O O12 0.000000 0.439907 0.246073
O O13 0.947203 0.706829 0.500000
O O14 0.939282 0.750679 0.248288
O O15 0.000000 0.721301 0.244490
O O16 0.151381 0.671329 0.000000
O O17 0.802227 0.946690 0.500000
O O18 0.809308 0.904654 0.239023
O O19 0.840582 0.000000 0.245112
#
# Coordination Sequence:
#
# PCOD9588168 Si02
#       6
#    24  24  24  24  24  24
#     4  10  21  38  60  84 109 137 171 212 258 307
#     4  10  22  38  52  69 100 140 174 204 245 299
#     4   9  19  37  59  81 106 137 174 217 263 308
#     4   9  18  32  51  75  98 122 161 212 258 301
#     4  11  23  37  54  78 109 142 175 212 254 305
#     4   8  13  22  38  61  88 117 151 194 242 287
#
# _framework density 19.361523999999999
#
# number of rings (size 3 to 8) (size 9 to 14) (size 15 to 20)
#    0.000    2.500    0.000    3.667    0.000    8.000 
#    0.000    4.167    0.000    1.167    0.000    1.167 
#    0.000    0.000    0.000    0.000    0.000    0.000 
#
# Total GULP energy -803656.019799 kJ/mol
# GULP energy per Si atom -5580.944582 kJ/mol
# Density = 1.931746 g / cm^3
# Si number density = 19.361524 Si / 1000 Ang^3
#
#
#
# Elastic Constant Matrix: (Units=GPa)
#
#
# Indices 1 2 3 4 5 6 
#
# 1 145.9451 85.3303 9.9302 0.0000 0.0000 0.0000
# 2 85.3303 145.9451 9.9302 0.0000 0.0000 0.0000
# 3 9.9302 9.9302 11.9091 0.0000 0.0000 0.0000
# 4 0.0000 0.0000 0.0000 88.7033 0.0000 0.0000
# 5 0.0000 0.0000 0.0000 0.0000 88.7033 0.0000
# 6 0.0000 0.0000 0.0000 0.0000 0.0000 30.3074
#
#
#
# Elastic Compliance Matrix: (Units=1/GPa)
#
#
# Indices 1 2 3 4 5 6 
#
# 1 0.010577 -0.005920 -0.003883 0.000000 0.000000 0.000000
# 2 -0.005920 0.010577 -0.003883 0.000000 0.000000 0.000000
# 3 -0.003883 -0.003883 0.090446 0.000000 0.000000 0.000000
# 4 0.000000 0.000000 0.000000 0.011274 0.000000 0.000000
# 5 0.000000 0.000000 0.000000 0.000000 0.011274 0.000000
# 6 0.000000 0.000000 0.000000 0.000000 0.000000 0.032995
#
#
# Mechanical properties :
#
#
# Convention : Reuss Voigt Hill
#
# Bulk Modulus (GPa) = 11.87273 57.13118 34.50196
# Shear Modulus (GPa) = 22.46256 54.78337 38.62296
#
# Velocity S-wave (km/s) = 3.40981 5.32507 4.47120
# Velocity P-wave (km/s) = 4.65273 8.20854 6.67188
#
# Compressibility (1/GPa) = 0.08422663
#
# Stress axis : x y z
#
# Youngs Moduli (GPa) = 94.54050 94.54050 11.05635
#
# Poissons Ratio (x) = 0.55969 0.04294
# Poissons Ratio (y) = 0.55969 0.04294
# Poissons Ratio (z) = 0.36714 0.36714
#
# Static dielectric constant tensor:
#      x y z
#    x 1.662370 0.000000 0.000000 
#    y 0.000000 1.662370 0.000000 
#    z 0.000000 0.000000 1.696270 
# 
# From -- ./inp_files/1961.got.cif
#   From: 2010.05.17/outbox.cif.g08.bks.cpg/sg191_1_cif.got.tgz:1961.got - 2010.05.20 12:20:32.
