data_PCOD9588600
_publ_section_title
;
Structure prediction by ZEFSAII (Michael W. Deem and Ramdas Pophale) SiO2 
 PCOD9588600
Probable space group: P 6/M C C
;
_chemical_formula_sum "Si O2"
_cell_formula_units_Z 134
_cell_length_a 17.833172
_cell_length_b 17.833172
_cell_length_c 27.592682
_cell_angle_alpha 90.000000
_cell_angle_beta 90.000000
_cell_angle_gamma 120.000000
_cell_volume 7599.442690
_symmetry_space_group_name_H-M "P 6/M C C"
_symmetry_group_IT_number 192
_symmetry_cell_setting 'hexagonal'
loop_
_space_group_symop_operation_xyz
x,y,z
x-y,x,z
-y,x-y,z
-x,-y,z
-x+y,-x,z
y,-x+y,z
x-y,-y,1/2-z
-x,-x+y,1/2-z
y,x,1/2-z
-y,-x,1/2-z
-x+y,y,1/2-z
x,x-y,1/2-z
-x,-y,-z
-x+y,-x,-z
y,-x+y,-z
x,y,-z
x-y,x,-z
-y,x-y,-z
-x+y,y,1/2+z
x,x-y,1/2+z
-y,-x,1/2+z
y,x,1/2+z
x-y,-y,1/2+z
-x,-x+y,1/2+z
loop_
_atom_site_type_symbol
_atom_site_label
_atom_site_fract_x
_atom_site_fract_y
_atom_site_fract_z
Si Si1 0.797340 0.934814 0.057400
Si Si2 0.160236 0.481067 0.500000
Si Si3 0.000000 0.500000 0.750000
Si Si4 0.659009 0.162974 0.000000
Si Si5 0.909238 0.624713 0.400156
Si Si6 0.464545 0.403807 0.090560
Si Si7 0.383123 0.861066 0.669419
Si Si8 0.666668 0.333334 0.193436
O O1 0.835478 0.870610 0.065136
O O2 0.714390 0.911402 0.091002
O O3 0.771795 0.926602 0.000000
O O4 0.262590 0.520533 0.500000
O O5 0.151452 0.564955 0.500000
O O6 0.121072 0.425017 0.451716
O O7 0.931671 0.509002 0.713617
O O8 0.661902 0.118519 0.049369
O O9 0.857565 0.557332 0.357251
O O10 0.003210 0.635148 0.390034
O O11 0.500000 0.500000 0.067943
O O12 0.536532 0.429038 0.131640
O O13 0.355755 0.762698 0.679456
O O14 0.666668 0.333334 0.250000
#
# Coordination Sequence:
#
# PCOD9588600 Si02
#       8
#    24  12   6  12  24  24  24   8
#     4  10  22  38  60  87 125 166 211 256 309 370
#     4  12  24  34  49  82 121 161 207 239 292 351
#     4  12  20  48  64  90 112 164 214 260 324 358
#     4  12  23  33  52  73 121 157 194 240 285 355
#     4  11  22  37  57  88 112 163 203 254 302 360
#     4  10  20  37  56  77 107 163 194 248 296 353
#     4  11  24  40  66  87 120 156 212 258 310 377
#     4  12  27  42  63  91 122 163 198 261 324 382
#
# _framework density 17.632871999999999
#
# number of rings (size 3 to 8) (size 9 to 14) (size 15 to 20)
#    0.000    1.075    8.060    1.164    5.015    0.716 
#    0.000    0.000    0.000    0.000    0.000    0.000 
#    0.000    0.000    0.000    1.791    0.000    0.000 
#
# Total GULP energy -746332.076024 kJ/mol
# GULP energy per Si atom -5569.642358 kJ/mol
# Density = 1.759274 g / cm^3
# Si number density = 17.632872 Si / 1000 Ang^3
#
#
#
# Elastic Constant Matrix: (Units=GPa)
#
#
# Indices 1 2 3 4 5 6 
#
# 1 99.6519 50.3025 42.5670 0.0000 -0.0001 0.0000
# 2 50.3025 99.6514 42.5669 0.0001 0.0000 -0.0001
# 3 42.5670 42.5669 84.4929 0.0000 -0.0001 0.0000
# 4 0.0000 0.0001 0.0000 22.5701 0.0001 -0.0001
# 5 -0.0001 0.0000 -0.0001 0.0001 22.5709 0.0001
# 6 0.0000 -0.0001 0.0000 -0.0001 0.0001 24.6744
#
#
#
# Elastic Compliance Matrix: (Units=1/GPa)
#
#
# Indices 1 2 3 4 5 6 
#
# 1 0.014802 -0.005462 -0.004706 0.000000 0.000000 0.000000
# 2 -0.005462 0.014802 -0.004706 0.000000 0.000000 0.000000
# 3 -0.004706 -0.004706 0.016577 0.000000 0.000000 0.000000
# 4 0.000000 0.000000 0.000000 0.044306 0.000000 0.000000
# 5 0.000000 0.000000 0.000000 0.000000 0.044305 0.000000
# 6 0.000000 0.000000 0.000000 0.000000 0.000000 0.040528
#
#
# Mechanical properties :
#
#
# Convention : Reuss Voigt Hill
#
# Bulk Modulus (GPa) = 60.84644 61.62989 61.23816
# Shear Modulus (GPa) = 23.74808 23.85375 23.80091
#
# Velocity S-wave (km/s) = 3.67387 3.68203 3.67795
# Velocity P-wave (km/s) = 7.25112 7.28725 7.26921
#
# Compressibility (1/GPa) = 0.01643482
#
# Stress axis : x y z
#
# Youngs Moduli (GPa) = 67.55868 67.55837 60.32629
#
# Poissons Ratio (x) = 0.36899 0.28387
# Poissons Ratio (y) = 0.36899 0.28387
# Poissons Ratio (z) = 0.31790 0.31790
#
# Static dielectric constant tensor:
#      x y z
#    x 1.616020 0.000000 0.000000 
#    y 0.000000 1.616020 0.000000 
#    z 0.000000 0.000000 2.018060 
# 
# From -- ./inp_files/6553.got.cif
#   From: 2010.05.17/outbox.cif.g08.bks.cpg/sg192_4_cif.got.tgz:6553.got - 2010.05.20 12:28:01.
