data_PCOD9588136
_publ_section_title
;
Structure prediction by ZEFSAII (Michael W. Deem and Ramdas Pophale) SiO2 
 PCOD9588136
Probable space group: P 6/M M M
;
_chemical_formula_sum "Si O2"
_cell_formula_units_Z 102
_cell_length_a 27.755506
_cell_length_b 27.755506
_cell_length_c 7.849287
_cell_angle_alpha 90.000000
_cell_angle_beta 90.000000
_cell_angle_gamma 120.000000
_cell_volume 5236.717414
_symmetry_space_group_name_H-M "P 6/M M M"
_symmetry_group_IT_number 191
_symmetry_cell_setting 'hexagonal'
loop_
_space_group_symop_operation_xyz
x,y,z
x-y,x,z
-y,x-y,z
-x,-y,z
-x+y,-x,z
y,-x+y,z
x-y,-y,-z
-x,-x+y,-z
y,x,-z
-y,-x,-z
-x+y,y,-z
x,x-y,-z
-x,-y,-z
-x+y,-x,-z
y,-x+y,-z
x,y,-z
x-y,x,-z
-y,x-y,-z
-x+y,y,z
x,x-y,z
-y,-x,z
y,x,z
x-y,-y,z
-x,-x+y,z
loop_
_atom_site_type_symbol
_atom_site_label
_atom_site_fract_x
_atom_site_fract_y
_atom_site_fract_z
Si Si1 0.157171 0.424042 0.293540
Si Si2 0.761907 0.698600 0.203282
Si Si3 0.888668 0.111333 0.308570
Si Si4 0.000000 0.441935 0.808604
Si Si5 0.932837 0.067164 0.000000
Si Si6 0.492946 0.877750 0.300031
O O1 0.158566 0.426661 0.500000
O O2 0.211746 0.423492 0.233434
O O3 0.103873 0.365718 0.245131
O O4 0.154769 0.477646 0.227656
O O5 0.720370 0.720370 0.256745
O O6 0.822397 0.737435 0.284419
O O7 0.769741 0.705538 0.000000
O O8 0.900255 0.099746 0.500000
O O9 0.912482 0.087519 0.164897
O O10 0.942492 0.402160 0.717275
O O11 0.000000 0.500000 0.820259
O O12 0.000000 0.421594 0.000000
O O13 0.000000 0.096985 0.000000
O O14 0.482820 0.864773 0.500000
O O15 0.435265 0.870530 0.226139
#
# Coordination Sequence:
#
# PCOD9588136 Si02
#       6
#    24  24  12  12   6  24
#     4  10  21  36  54  80 112 148 194 246 297 351
#     4  11  23  39  59  86 120 156 198 247 300 367
#     4  12  24  43  69  95 126 166 212 260 318 382
#     4   9  17  29  47  73 103 133 173 221 265 323
#     4  12  27  48  72 100 132 168 214 270 330 390
#     4   9  18  33  52  73 103 144 185 225 277 339
#
# _framework density 19.477851000000001
#
# number of rings (size 3 to 8) (size 9 to 14) (size 15 to 20)
#    0.000    1.765    2.353    1.824    1.647    5.647 
#    0.000    0.000    0.000    1.176    0.000    3.294 
#    0.000    0.000    0.000    5.412    0.000    6.588 
#
# Total GULP energy -569376.837921 kJ/mol
# GULP energy per Si atom -5582.125862 kJ/mol
# Density = 1.943352 g / cm^3
# Si number density = 19.477851 Si / 1000 Ang^3
#
#
#
# Elastic Constant Matrix: (Units=GPa)
#
#
# Indices 1 2 3 4 5 6 
#
# 1 137.1472 89.1814 20.4902 0.0000 0.0000 0.0000
# 2 89.1814 137.1472 20.4902 0.0000 0.0000 0.0000
# 3 20.4902 20.4902 66.0849 0.0000 0.0000 0.0000
# 4 0.0000 0.0000 0.0000 -32.9031 0.0000 0.0000
# 5 0.0000 0.0000 0.0000 0.0000 -32.9031 0.0000
# 6 0.0000 0.0000 0.0000 0.0000 0.0000 23.9829
#
#
#
# Elastic Compliance Matrix: (Units=1/GPa)
#
#
# Indices 1 2 3 4 5 6 
#
# 1 0.012765 -0.008084 -0.001451 0.000000 0.000000 0.000000
# 2 -0.008084 0.012765 -0.001451 0.000000 0.000000 0.000000
# 3 -0.001451 -0.001451 0.016032 0.000000 0.000000 0.000000
# 4 0.000000 0.000000 0.000000 -0.030392 0.000000 0.000000
# 5 0.000000 0.000000 0.000000 0.000000 -0.030392 0.000000
# 6 0.000000 0.000000 0.000000 0.000000 0.000000 0.041696
#
#
# Mechanical properties :
#
#
# Convention : Reuss Voigt Hill
#
# Bulk Modulus (GPa) = 51.04988 66.74477 58.89733
# Shear Modulus (GPa) = 98.08610 5.64983 51.86796
#
# Velocity S-wave (km/s) = 7.10402 1.70497 5.16595
# Velocity P-wave (km/s) = 9.67241 6.18202 8.11705
#
# Compressibility (1/GPa) = 0.01958868
#
# Stress axis : x y z
#
# Youngs Moduli (GPa) = 78.34127 78.34127 62.37483
#
# Poissons Ratio (x) = 0.63327 0.09053
# Poissons Ratio (y) = 0.63327 0.09053
# Poissons Ratio (z) = 0.11371 0.11371
#
# Static dielectric constant tensor:
#      x y z
#    x 1.682230 0.000000 0.000000 
#    y 0.000000 1.682230 0.000000 
#    z 0.000000 0.000000 1.711940 
# 
# From -- ./inp_files/1463.got.cif
#   From: 2010.05.17/outbox.cif.g08.bks.cpg/sg191_1_cif.got.tgz:1463.got - 2010.05.20 12:20:32.
