data_PCOD9588329
_publ_section_title
;
Structure prediction by ZEFSAII (Michael W. Deem and Ramdas Pophale) SiO2 
 PCOD9588329
Probable space group: P 6/M C C
;
_chemical_formula_sum "Si O2"
_cell_formula_units_Z 192
_cell_length_a 24.173511
_cell_length_b 24.173511
_cell_length_c 22.157581
_cell_angle_alpha 90.000000
_cell_angle_beta 90.000000
_cell_angle_gamma 120.000000
_cell_volume 11213.274210
_symmetry_space_group_name_H-M "P 6/M C C"
_symmetry_group_IT_number 192
_symmetry_cell_setting 'hexagonal'
loop_
_space_group_symop_operation_xyz
x,y,z
x-y,x,z
-y,x-y,z
-x,-y,z
-x+y,-x,z
y,-x+y,z
x-y,-y,1/2-z
-x,-x+y,1/2-z
y,x,1/2-z
-y,-x,1/2-z
-x+y,y,1/2-z
x,x-y,1/2-z
-x,-y,-z
-x+y,-x,-z
y,-x+y,-z
x,y,-z
x-y,x,-z
-y,x-y,-z
-x+y,y,1/2+z
x,x-y,1/2+z
-y,-x,1/2+z
y,x,1/2+z
x-y,-y,1/2+z
-x,-x+y,1/2+z
loop_
_atom_site_type_symbol
_atom_site_label
_atom_site_fract_x
_atom_site_fract_y
_atom_site_fract_z
Si Si1 0.968310 0.741369 0.573878
Si Si2 0.226235 0.714916 0.841220
Si Si3 0.420535 0.239310 0.932006
Si Si4 0.652783 0.183866 0.778093
Si Si5 0.891973 0.161235 0.428243
Si Si6 0.094181 0.475005 0.111589
Si Si7 0.611672 0.643905 0.428473
Si Si8 0.529978 0.146282 0.069073
O O1 0.967565 0.741500 0.500000
O O2 0.907807 0.746727 0.595448
O O3 0.963046 0.673623 0.589924
O O4 0.035837 0.799924 0.595183
O O5 0.217745 0.764743 0.881972
O O6 0.299205 0.753858 0.817563
O O7 0.184449 0.692432 0.780526
O O8 0.203860 0.653550 0.883872
O O9 0.345282 0.207033 0.922235
O O10 0.452191 0.315111 0.924675
O O11 0.430937 0.222810 0.000000
O O12 0.594112 0.188224 0.750000
O O13 0.630403 0.123226 0.821088
O O14 0.897370 0.153023 0.500000
O O15 0.106359 0.541156 0.083232
O O16 0.022623 0.416841 0.106646
O O17 0.619386 0.634292 0.500000
O O18 0.545604 0.643837 0.422677
O O19 0.542610 0.168520 0.000000
#
# Coordination Sequence:
#
# PCOD9588329 Si02
#       8
#    24  24  24  24  24  24  24  24
#     4   9  16  27  45  71 105 142 175 210 252 313
#     4  10  21  36  56  74  95 131 181 229 272 325
#     4  10  18  31  52  78 105 134 171 225 284 331
#     4  10  21  41  56  73  94 136 193 224 268 312
#     4   9  16  27  46  73 106 139 172 209 255 311
#     4  11  20  33  54  74 106 142 179 217 268 330
#     4  10  19  32  50  80 114 141 170 211 280 341
#     4  11  21  33  53  80 109 134 167 220 285 343
#
# _framework density 17.122564000000001
#
# number of rings (size 3 to 8) (size 9 to 14) (size 15 to 20)
#    0.000    2.000    2.500    2.625    0.000    3.000 
#    3.000    0.625    0.000    0.250    0.000    1.750 
#    0.000    0.000    0.000    0.000    0.000    0.000 
#
# Total GULP energy -1070397.623374 kJ/mol
# GULP energy per Si atom -5574.987622 kJ/mol
# Density = 1.708359 g / cm^3
# Si number density = 17.122564 Si / 1000 Ang^3
#
#
#
# Elastic Constant Matrix: (Units=GPa)
#
#
# Indices 1 2 3 4 5 6 
#
# 1 84.9459 43.8718 32.8159 0.0000 0.0000 0.0000
# 2 43.8718 84.9459 32.8159 0.0000 0.0000 0.0000
# 3 32.8159 32.8159 76.2031 0.0000 0.0000 0.0000
# 4 0.0000 0.0000 0.0000 11.1912 0.0000 0.0000
# 5 0.0000 0.0000 0.0000 0.0000 11.1912 0.0000
# 6 0.0000 0.0000 0.0000 0.0000 0.0000 20.5370
#
#
#
# Elastic Compliance Matrix: (Units=1/GPa)
#
#
# Indices 1 2 3 4 5 6 
#
# 1 0.017146 -0.007201 -0.004283 0.000000 0.000000 0.000000
# 2 -0.007201 0.017146 -0.004283 0.000000 0.000000 0.000000
# 3 -0.004283 -0.004283 0.016811 0.000000 0.000000 0.000000
# 4 0.000000 0.000000 0.000000 0.089356 0.000000 0.000000
# 5 0.000000 0.000000 0.000000 0.000000 0.089356 0.000000
# 6 0.000000 0.000000 0.000000 0.000000 0.000000 0.048692
#
#
# Mechanical properties :
#
#
# Convention : Reuss Voigt Hill
#
# Bulk Modulus (GPa) = 51.09712 51.67800 51.38756
# Shear Modulus (GPa) = 15.79468 17.68998 16.74233
#
# Velocity S-wave (km/s) = 3.04048 3.21773 3.13036
# Velocity P-wave (km/s) = 6.49868 6.63716 6.56828
#
# Compressibility (1/GPa) = 0.01957057
#
# Stress axis : x y z
#
# Youngs Moduli (GPa) = 58.32413 58.32413 59.48362
#
# Poissons Ratio (x) = 0.41997 0.25475
# Poissons Ratio (y) = 0.41997 0.25475
# Poissons Ratio (z) = 0.24978 0.24978
#
# Static dielectric constant tensor:
#      x y z
#    x 1.599950 0.000000 0.000000 
#    y 0.000000 1.599950 0.000000 
#    z 0.000000 0.000000 1.582620 
# 
# From -- ./inp_files/5415.got.cif
#   From: 2010.05.17/outbox.cif.g08.bks.cpg/sg192_3_cif.got.tgz:5415.got - 2010.05.20 12:28:01.
