data_PCOD9588655
_publ_section_title
;
Structure prediction by ZEFSAII (Michael W. Deem and Ramdas Pophale) SiO2 
 PCOD9588655
Probable space group: P 6/M C C
;
_chemical_formula_sum "Si O2"
_cell_formula_units_Z 104
_cell_length_a 21.059486
_cell_length_b 21.059486
_cell_length_c 15.655312
_cell_angle_alpha 90.000000
_cell_angle_beta 90.000000
_cell_angle_gamma 120.000000
_cell_volume 6012.954163
_symmetry_space_group_name_H-M "P 6/M C C"
_symmetry_group_IT_number 192
_symmetry_cell_setting 'hexagonal'
loop_
_space_group_symop_operation_xyz
x,y,z
x-y,x,z
-y,x-y,z
-x,-y,z
-x+y,-x,z
y,-x+y,z
x-y,-y,1/2-z
-x,-x+y,1/2-z
y,x,1/2-z
-y,-x,1/2-z
-x+y,y,1/2-z
x,x-y,1/2-z
-x,-y,-z
-x+y,-x,-z
y,-x+y,-z
x,y,-z
x-y,x,-z
-y,x-y,-z
-x+y,y,1/2+z
x,x-y,1/2+z
-y,-x,1/2+z
y,x,1/2+z
x-y,-y,1/2+z
-x,-x+y,1/2+z
loop_
_atom_site_type_symbol
_atom_site_label
_atom_site_fract_x
_atom_site_fract_y
_atom_site_fract_z
Si Si1 0.413253 0.087393 0.903982
Si Si2 0.316791 0.229611 0.250000
Si Si3 0.333334 0.666668 0.354067
Si Si4 0.417522 0.835042 0.853052
Si Si5 0.325858 0.413254 0.596018
O O1 0.369136 0.103789 0.832344
O O2 0.499314 0.126595 0.884942
O O3 0.380857 0.999998 0.899664
O O4 0.401138 0.105823 0.000000
O O5 0.257996 0.257996 0.250000
O O6 0.285784 0.142892 0.250000
O O7 0.369137 0.265346 0.167656
O O8 0.333334 0.666667 0.250000
O O9 0.375348 0.750701 0.381313
O O10 0.419069 0.838138 0.750000
O O11 0.372716 0.873402 0.884942
O O12 0.295313 0.401139 0.500000
#
# Coordination Sequence:
#
# PCOD9588655 Si02
#       5
#    24  24   8  24  24
#     4  10  21  36  56  82 109 142 185 232 281 328
#     4  10  22  39  61  86 113 143 175 217 269 327
#     4   9  24  36  46  71 103 145 194 235 277 329
#     4  11  20  34  53  73 107 150 193 239 284 329
#     4  10  21  36  56  82 109 142 185 232 281 328
#
# _framework density 17.295991000000001
#
# number of rings (size 3 to 8) (size 9 to 14) (size 15 to 20)
#    0.000    1.846    2.308    1.385    3.231    3.692 
#    0.000    3.462    0.000    0.231    0.000    0.000 
#    0.000    0.000    0.000   11.538    0.000    0.000 
#
# Total GULP energy -580820.433785 kJ/mol
# GULP energy per Si atom -5584.811863 kJ/mol
# Density = 1.725662 g / cm^3
# Si number density = 17.295991 Si / 1000 Ang^3
#
#
#
# Elastic Constant Matrix: (Units=GPa)
#
#
# Indices 1 2 3 4 5 6 
#
# 1 83.4243 53.7273 41.5334 0.0000 0.0000 0.0000
# 2 53.7273 83.4249 41.5334 0.0001 0.0000 0.0000
# 3 41.5334 41.5334 128.7507 0.0001 0.0000 0.0000
# 4 0.0000 0.0001 0.0001 7.0722 0.0000 0.0000
# 5 0.0000 0.0000 0.0000 0.0000 7.0725 0.0000
# 6 0.0000 0.0000 0.0000 0.0000 0.0000 14.8484
#
#
#
# Elastic Compliance Matrix: (Units=1/GPa)
#
#
# Indices 1 2 3 4 5 6 
#
# 1 0.021367 -0.012306 -0.002923 0.000000 0.000000 0.000000
# 2 -0.012306 0.021367 -0.002923 0.000000 0.000000 0.000000
# 3 -0.002923 -0.002923 0.009653 0.000000 0.000000 0.000000
# 4 0.000000 0.000000 0.000000 0.141399 0.000000 0.000000
# 5 0.000000 0.000000 0.000000 0.000000 0.141393 0.000000
# 6 0.000000 0.000000 0.000000 0.000000 0.000000 0.067347
#
#
# Mechanical properties :
#
#
# Convention : Reuss Voigt Hill
#
# Bulk Modulus (GPa) = 62.17564 63.24314 62.70939
# Shear Modulus (GPa) = 11.25638 16.38566 13.82102
#
# Velocity S-wave (km/s) = 2.55386 3.08127 2.82988
# Velocity P-wave (km/s) = 6.68748 7.02165 6.85660
#
# Compressibility (1/GPa) = 0.01608347
#
# Stress axis : x y z
#
# Youngs Moduli (GPa) = 46.80014 46.80055 103.59578
#
# Poissons Ratio (x) = 0.57592 0.30283
# Poissons Ratio (y) = 0.57591 0.30282
# Poissons Ratio (z) = 0.13681 0.13680
#
# Static dielectric constant tensor:
#      x y z
#    x 1.556720 0.000000 0.000000 
#    y 0.000000 1.556720 0.000000 
#    z 0.000000 0.000000 1.625240 
# 
# From -- ./inp_files/2841.got.cif
#   From: 2010.05.17/outbox.cif.g08.bks.cpg/sg192_2_cif.got.tgz:2841.got - 2010.05.20 12:28:01.
