data_PCOD9588968
_publ_section_title
;
Structure prediction by ZEFSAII (Michael W. Deem and Ramdas Pophale) SiO2 
 PCOD9588968
Probable space group: P 63/M C M
;
_chemical_formula_sum "Si O2"
_cell_formula_units_Z 132
_cell_length_a 17.586490
_cell_length_b 17.586490
_cell_length_c 27.264997
_cell_angle_alpha 90.000000
_cell_angle_beta 90.000000
_cell_angle_gamma 120.000000
_cell_volume 7302.884378
_symmetry_space_group_name_H-M "P 63/M C M"
_symmetry_group_IT_number 193
_symmetry_cell_setting 'hexagonal'
loop_
_space_group_symop_operation_xyz
x,y,z
x-y,x,1/2+z
-y,x-y,z
-x,-y,1/2+z
-x+y,-x,z
y,-x+y,1/2+z
x-y,-y,1/2-z
-x,-x+y,1/2-z
y,x,1/2-z
-y,-x,-z
-x+y,y,-z
x,x-y,-z
-x,-y,-z
-x+y,-x,1/2-z
y,-x+y,-z
x,y,1/2-z
x-y,x,-z
-y,x-y,1/2-z
-x+y,y,1/2+z
x,x-y,1/2+z
-y,-x,1/2+z
y,x,z
x-y,-y,z
-x,-x+y,z
loop_
_atom_site_type_symbol
_atom_site_label
_atom_site_fract_x
_atom_site_fract_y
_atom_site_fract_z
Si Si1 0.104023 0.535871 0.110664
Si Si2 0.100354 0.660794 0.307543
Si Si3 0.822727 0.515208 0.037191
Si Si4 0.406330 0.226678 0.872531
Si Si5 0.656673 0.000000 0.510259
Si Si6 0.172743 0.000000 0.485597
Si Si7 0.743288 0.000000 0.608230
O O1 0.107335 0.588767 0.159601
O O2 0.160829 0.608719 0.069290
O O3 0.146820 0.476698 0.123346
O O4 0.000000 0.481722 0.096430
O O5 0.112433 0.652793 0.250000
O O6 0.173459 0.752862 0.329586
O O7 0.000000 0.639828 0.314908
O O8 0.813120 0.579940 0.076441
O O9 0.912003 0.572158 0.006693
O O10 0.740898 0.481796 0.000000
O O11 0.312591 0.220317 0.865698
O O12 0.674702 0.000000 0.567797
O O13 0.743342 0.000000 0.490244
O O14 0.086186 0.913815 0.500000
O O15 0.184780 0.000000 0.427144
#
# Coordination Sequence:
#
# PCOD9588968 Si02
#       7
#    24  24  24  24  12  12  12
#     4  10  21  37  58  84 120 156 195 246 300 351
#     4   9  21  43  67  88 110 147 193 236 298 369
#     4  11  20  35  54  81 113 164 210 241 284 335
#     4  11  21  36  59  87 118 148 194 248 292 346
#     4  10  18  34  54  75 106 158 215 243 273 332
#     4  10  19  32  48  74 114 154 195 247 289 341
#     4  10  20  34  53  84 117 144 202 246 278 337
#
# _framework density 18.075050000000001
#
# number of rings (size 3 to 8) (size 9 to 14) (size 15 to 20)
#    0.545    1.273    3.636    1.727    1.273    1.455 
#   10.364    2.273    0.000    0.000    0.000    0.000 
#    0.000    0.000    0.000    0.000    0.000    0.000 
#
# Total GULP energy -736126.421342 kJ/mol
# GULP energy per Si atom -5576.715313 kJ/mol
# Density = 1.803391 g / cm^3
# Si number density = 18.075050 Si / 1000 Ang^3
#
#
#
# Elastic Constant Matrix: (Units=GPa)
#
#
# Indices 1 2 3 4 5 6 
#
# 1 92.7567 46.3698 34.3962 0.0000 0.0000 0.0000
# 2 46.3698 92.7567 34.3962 0.0000 0.0000 0.0000
# 3 34.3962 34.3962 78.1920 0.0000 0.0000 0.0000
# 4 0.0000 0.0000 0.0000 20.5636 0.0000 0.0000
# 5 0.0000 0.0000 0.0000 0.0000 20.5636 0.0000
# 6 0.0000 0.0000 0.0000 0.0000 0.0000 23.1934
#
#
#
# Elastic Compliance Matrix: (Units=1/GPa)
#
#
# Indices 1 2 3 4 5 6 
#
# 1 0.015372 -0.006186 -0.004041 0.000000 0.000000 0.000000
# 2 -0.006186 0.015372 -0.004041 0.000000 0.000000 0.000000
# 3 -0.004041 -0.004041 0.016344 0.000000 0.000000 0.000000
# 4 0.000000 0.000000 0.000000 0.048630 0.000000 0.000000
# 5 0.000000 0.000000 0.000000 0.000000 0.048630 0.000000
# 6 0.000000 0.000000 0.000000 0.000000 0.000000 0.043116
#
#
# Mechanical properties :
#
#
# Convention : Reuss Voigt Hill
#
# Bulk Modulus (GPa) = 53.90117 54.89219 54.39668
# Shear Modulus (GPa) = 22.50412 22.76701 22.63557
#
# Velocity S-wave (km/s) = 3.53234 3.55291 3.54264
# Velocity P-wave (km/s) = 6.82071 6.87502 6.84792
#
# Compressibility (1/GPa) = 0.01855247
#
# Stress axis : x y z
#
# Youngs Moduli (GPa) = 65.05439 65.05439 61.18452
#
# Poissons Ratio (x) = 0.40243 0.24723
# Poissons Ratio (y) = 0.40243 0.24723
# Poissons Ratio (z) = 0.26287 0.26287
#
# Static dielectric constant tensor:
#      x y z
#    x 1.627260 0.000000 0.000000 
#    y 0.000000 1.627260 0.000000 
#    z 0.000000 0.000000 1.620160 
# 
# From -- ./inp_files/8364.got.cif
#   From: 2010.05.17/outbox.cif.g08.bks.cpg/sg193_5_cif.got.tgz:8364.got - 2010.05.20 12:33:02.
