data_PCOD9588132
_publ_section_title
;
Structure prediction by ZEFSAII (Michael W. Deem and Ramdas Pophale) SiO2 
 PCOD9588132
Probable space group: P 6/M M M
;
_chemical_formula_sum "Si O2"
_cell_formula_units_Z 66
_cell_length_a 20.313067
_cell_length_b 20.313067
_cell_length_c 10.056193
_cell_angle_alpha 90.000000
_cell_angle_beta 90.000000
_cell_angle_gamma 120.000000
_cell_volume 3593.480012
_symmetry_space_group_name_H-M "P 6/M M M"
_symmetry_group_IT_number 191
_symmetry_cell_setting 'hexagonal'
loop_
_space_group_symop_operation_xyz
x,y,z
x-y,x,z
-y,x-y,z
-x,-y,z
-x+y,-x,z
y,-x+y,z
x-y,-y,-z
-x,-x+y,-z
y,x,-z
-y,-x,-z
-x+y,y,-z
x,x-y,-z
-x,-y,-z
-x+y,-x,-z
y,-x+y,-z
x,y,-z
x-y,x,-z
-y,x-y,-z
-x+y,y,z
x,x-y,z
-y,-x,z
y,x,z
x-y,-y,z
-x,-x+y,z
loop_
_atom_site_type_symbol
_atom_site_label
_atom_site_fract_x
_atom_site_fract_y
_atom_site_fract_z
Si Si1 0.157584 0.000000 0.291098
Si Si2 0.697310 0.000000 0.350295
Si Si3 0.154564 0.000000 0.000000
Si Si4 0.711478 0.579902 0.157708
Si Si5 0.543593 0.456407 0.840456
O O1 0.075375 0.924625 0.309290
O O2 0.224340 0.000000 0.369518
O O3 0.187904 0.000000 0.140871
O O4 0.641360 0.927453 0.260636
O O5 0.667510 0.000000 0.500000
O O6 0.072504 0.927497 0.000000
O O7 0.786198 0.572395 0.170779
O O8 0.632644 0.503256 0.191125
O O9 0.707834 0.599020 0.000000
O O10 0.500000 0.500000 0.787710
O O11 0.540388 0.459613 0.000000
#
# Coordination Sequence:
#
# PCOD9588132 Si02
#       5
#    12  12   6  24  12
#     4  10  21  36  54  75 104 142 186 235 291 347
#     4  12  25  39  56  82 119 155 197 247 294 345
#     4   8  15  28  48  72  96 125 166 218 272 332
#     4  10  21  38  63  91 120 156 197 241 294 358
#     4   9  16  34  62  90 122 152 188 240 296 352
#
# _framework density 18.366599000000001
#
# number of rings (size 3 to 8) (size 9 to 14) (size 15 to 20)
#    0.000    2.000    1.818    1.909    2.545    4.364 
#    1.091    1.818    0.000    1.091    0.000    0.000 
#    0.000    0.000    0.000    0.000    0.000    0.000 
#
# Total GULP energy -367586.123760 kJ/mol
# GULP energy per Si atom -5569.486724 kJ/mol
# Density = 1.832480 g / cm^3
# Si number density = 18.366599 Si / 1000 Ang^3
#
#
#
# Elastic Constant Matrix: (Units=GPa)
#
#
# Indices 1 2 3 4 5 6 
#
# 1 139.7599 69.0986 59.9337 0.0000 0.0000 0.0000
# 2 69.0986 139.7599 59.9337 0.0000 0.0000 0.0000
# 3 59.9337 59.9337 120.6746 0.0000 0.0000 0.0000
# 4 0.0000 0.0000 0.0000 -135.2862 0.0000 0.0000
# 5 0.0000 0.0000 0.0000 0.0000 -135.2862 0.0000
# 6 0.0000 0.0000 0.0000 0.0000 0.0000 35.3307
#
#
#
# Elastic Compliance Matrix: (Units=1/GPa)
#
#
# Indices 1 2 3 4 5 6 
#
# 1 0.010424 -0.003728 -0.003326 0.000000 0.000000 0.000000
# 2 -0.003728 0.010424 -0.003326 0.000000 0.000000 0.000000
# 3 -0.003326 -0.003326 0.011590 0.000000 0.000000 0.000000
# 4 0.000000 0.000000 0.000000 -0.007392 0.000000 0.000000
# 5 0.000000 0.000000 0.000000 0.000000 -0.007392 0.000000
# 6 0.000000 0.000000 0.000000 0.000000 0.000000 0.028304
#
#
# Mechanical properties :
#
#
# Convention : Reuss Voigt Hill
#
# Bulk Modulus (GPa) = 85.61587 86.45849 86.03718
# Shear Modulus (GPa) = 70.80912 -32.96643 18.92134
#
# Velocity S-wave (km/s) = 6.21586 -4.24124 3.21316
# Velocity P-wave (km/s) = 9.91121 4.81579 7.79179
#
# Compressibility (1/GPa) = 0.01168008
#
# Stress axis : x y z
#
# Youngs Moduli (GPa) = 95.92886 95.92886 86.27759
#
# Poissons Ratio (x) = 0.35759 0.28696
# Poissons Ratio (y) = 0.35759 0.28696
# Poissons Ratio (z) = 0.31906 0.31906
#
# Static dielectric constant tensor:
#      x y z
#    x 1.624400 0.000000 0.000000 
#    y 0.000000 1.624400 0.000000 
#    z 0.000000 0.000000 1.689790 
# 
# From -- ./inp_files/711.got.cif
#   From: 2010.05.17/outbox.cif.g08.bks.cpg/sg191_1_cif.got.tgz:711.got - 2010.05.20 12:20:32.
