data_PCOD9588666
_publ_section_title
;
Structure prediction by ZEFSAII (Michael W. Deem and Ramdas Pophale) SiO2 
 PCOD9588666
Probable space group: P 6/M C C
;
_chemical_formula_sum "Si O2"
_cell_formula_units_Z 132
_cell_length_a 19.326815
_cell_length_b 19.326815
_cell_length_c 21.821243
_cell_angle_alpha 90.000000
_cell_angle_beta 90.000000
_cell_angle_gamma 120.000000
_cell_volume 7058.797063
_symmetry_space_group_name_H-M "P 6/M C C"
_symmetry_group_IT_number 192
_symmetry_cell_setting 'hexagonal'
loop_
_space_group_symop_operation_xyz
x,y,z
x-y,x,z
-y,x-y,z
-x,-y,z
-x+y,-x,z
y,-x+y,z
x-y,-y,1/2-z
-x,-x+y,1/2-z
y,x,1/2-z
-y,-x,1/2-z
-x+y,y,1/2-z
x,x-y,1/2-z
-x,-y,-z
-x+y,-x,-z
y,-x+y,-z
x,y,-z
x-y,x,-z
-y,x-y,-z
-x+y,y,1/2+z
x,x-y,1/2+z
-y,-x,1/2+z
y,x,1/2+z
x-y,-y,1/2+z
-x,-x+y,1/2+z
loop_
_atom_site_type_symbol
_atom_site_label
_atom_site_fract_x
_atom_site_fract_y
_atom_site_fract_z
Si Si1 0.150371 0.976883 0.500000
Si Si2 0.997133 0.743314 0.617017
Si Si3 0.420197 0.262292 0.121605
Si Si4 0.528947 0.093126 0.427414
Si Si5 0.573889 0.696987 0.569809
Si Si6 0.759034 0.759034 0.250000
Si Si7 0.374871 0.187436 0.750000
O O1 0.195328 0.973179 0.560263
O O2 0.061178 0.906083 0.500000
O O3 0.936463 0.647617 0.612952
O O4 0.084609 0.753973 0.611671
O O5 0.997976 0.786871 0.680662
O O6 0.480273 0.355698 0.111406
O O7 0.433112 0.208552 0.072864
O O8 0.423834 0.226694 0.188011
O O9 0.517905 0.103117 0.500000
O O10 0.622439 0.133691 0.412872
O O11 0.500000 0.000000 0.417286
O O12 0.591706 0.681781 0.500000
O O13 0.680061 0.769726 0.252155
#
# Coordination Sequence:
#
# PCOD9588666 Si02
#       7
#    12  24  24  24  24  12  12
#     4  12  27  42  60  93 130 170 210 272 340 411
#     4  11  22  38  65  93 122 163 222 266 330 387
#     4  11  22  39  63  89 127 169 212 272 325 399
#     4  10  21  37  58  92 129 166 212 272 338 396
#     4  11  21  36  60  91 125 163 209 268 328 389
#     4  10  22  40  58  96 126 162 208 272 324 384
#     4  10  22  38  66  89 126 162 216 270 325 382
#
# _framework density 18.700071000000001
#
# number of rings (size 3 to 8) (size 9 to 14) (size 15 to 20)
#    0.000    1.273    4.545    1.727    5.091    0.000 
#    1.091    0.909    0.000    2.364    0.000    0.000 
#    0.000    0.000    0.000    0.000    0.000    0.000 
#
# Total GULP energy -735069.857133 kJ/mol
# GULP energy per Si atom -5568.711039 kJ/mol
# Density = 1.865751 g / cm^3
# Si number density = 18.700071 Si / 1000 Ang^3
#
#
#
# Elastic Constant Matrix: (Units=GPa)
#
#
# Indices 1 2 3 4 5 6 
#
# 1 74.6055 20.2897 13.3039 0.0000 0.0000 0.0000
# 2 20.2897 74.6055 13.3039 0.0000 0.0000 0.0000
# 3 13.3039 13.3039 98.3044 0.0000 0.0000 0.0000
# 4 0.0000 0.0000 0.0000 5.7318 0.0000 0.0000
# 5 0.0000 0.0000 0.0000 0.0000 5.7318 0.0000
# 6 0.0000 0.0000 0.0000 0.0000 0.0000 27.1579
#
#
#
# Elastic Compliance Matrix: (Units=1/GPa)
#
#
# Indices 1 2 3 4 5 6 
#
# 1 0.014682 -0.003729 -0.001482 0.000000 0.000000 0.000000
# 2 -0.003729 0.014682 -0.001482 0.000000 0.000000 0.000000
# 3 -0.001482 -0.001482 0.010574 0.000000 0.000000 0.000000
# 4 0.000000 0.000000 0.000000 0.174465 0.000000 0.000000
# 5 0.000000 0.000000 0.000000 0.000000 0.174465 0.000000
# 6 0.000000 0.000000 0.000000 0.000000 0.000000 0.036822
#
#
# Mechanical properties :
#
#
# Convention : Reuss Voigt Hill
#
# Bulk Modulus (GPa) = 37.66286 37.92336 37.79311
# Shear Modulus (GPa) = 11.16254 21.09884 16.13069
#
# Velocity S-wave (km/s) = 2.44586 3.36263 2.94019
# Velocity P-wave (km/s) = 5.30665 5.94980 5.63740
#
# Compressibility (1/GPa) = 0.02655135
#
# Stress axis : x y z
#
# Youngs Moduli (GPa) = 68.10960 68.10960 94.57412
#
# Poissons Ratio (x) = 0.25396 0.14020
# Poissons Ratio (y) = 0.25396 0.14020
# Poissons Ratio (z) = 0.10096 0.10096
#
# Static dielectric constant tensor:
#      x y z
#    x 1.674320 0.000000 0.000000 
#    y 0.000000 1.674320 0.000000 
#    z 0.000000 0.000000 1.704160 
# 
# From -- ./inp_files/5870.got.cif
#   From: 2010.05.17/outbox.cif.g08.bks.cpg/sg192_3_cif.got.tgz:5870.got - 2010.05.20 12:28:01.
