data_PCOD9588665
_publ_section_title
;
Structure prediction by ZEFSAII (Michael W. Deem and Ramdas Pophale) SiO2 
 PCOD9588665
Probable space group: P 6/M C C
;
_chemical_formula_sum "Si O2"
_cell_formula_units_Z 102
_cell_length_a 26.011634
_cell_length_b 26.011634
_cell_length_c 8.915663
_cell_angle_alpha 90.000000
_cell_angle_beta 90.000000
_cell_angle_gamma 120.000000
_cell_volume 5224.196997
_symmetry_space_group_name_H-M "P 6/M C C"
_symmetry_group_IT_number 192
_symmetry_cell_setting 'hexagonal'
loop_
_space_group_symop_operation_xyz
x,y,z
x-y,x,z
-y,x-y,z
-x,-y,z
-x+y,-x,z
y,-x+y,z
x-y,-y,1/2-z
-x,-x+y,1/2-z
y,x,1/2-z
-y,-x,1/2-z
-x+y,y,1/2-z
x,x-y,1/2-z
-x,-y,-z
-x+y,-x,-z
y,-x+y,-z
x,y,-z
x-y,x,-z
-y,x-y,-z
-x+y,y,1/2+z
x,x-y,1/2+z
-y,-x,1/2+z
y,x,1/2+z
x-y,-y,1/2+z
-x,-x+y,1/2+z
loop_
_atom_site_type_symbol
_atom_site_label
_atom_site_fract_x
_atom_site_fract_y
_atom_site_fract_z
Si Si1 0.667530 0.437933 0.677103
Si Si2 0.000000 0.500000 0.250000
Si Si3 0.290508 0.934720 0.820832
Si Si4 0.479780 0.108167 0.171389
Si Si5 0.065107 0.826289 0.677577
O O1 0.626096 0.373905 0.750000
O O2 0.732402 0.464804 0.750000
O O3 0.670991 0.434027 0.500000
O O4 0.635454 0.475070 0.720580
O O5 0.047797 0.563808 0.177222
O O6 0.319943 0.903379 0.730025
O O7 0.221078 0.912106 0.799832
O O8 0.322458 0.000000 0.750000
O O9 0.302384 0.936057 0.000000
O O10 0.491256 0.129398 0.000000
O O11 0.111809 0.888192 0.750000
O O12 0.060215 0.832010 0.500000
O O13 0.000000 0.798047 0.750000
#
# Coordination Sequence:
#
# PCOD9588665 Si02
#       5
#    24   6  24  24  24
#     4  12  26  46  69  93 123 159 208 262 321 384
#     4  12  26  40  68  98 138 176 222 268 336 396
#     4  10  21  37  58  86 122 162 206 257 311 372
#     4  12  25  41  65  96 131 171 216 267 327 392
#     4  10  21  38  62  92 127 169 214 264 319 382
#
# _framework density 19.524532000000001
#
# number of rings (size 3 to 8) (size 9 to 14) (size 15 to 20)
#    0.000    0.941    2.353    4.824    0.000    5.647 
#    0.000    2.353    0.000    0.235    0.000    1.647 
#    0.000    0.000    0.000    0.000    0.000    0.000 
#
# Total GULP energy -569332.584949 kJ/mol
# GULP energy per Si atom -5581.692009 kJ/mol
# Density = 1.948009 g / cm^3
# Si number density = 19.524532 Si / 1000 Ang^3
#
#
#
# Elastic Constant Matrix: (Units=GPa)
#
#
# Indices 1 2 3 4 5 6 
#
# 1 116.3843 9.0991 39.5085 0.0000 0.0000 0.0000
# 2 9.0991 116.3843 39.5085 0.0000 0.0000 0.0000
# 3 39.5085 39.5085 143.5670 0.0000 0.0000 0.0000
# 4 0.0000 0.0000 0.0000 54.6275 0.0000 0.0000
# 5 0.0000 0.0000 0.0000 0.0000 54.6275 0.0000
# 6 0.0000 0.0000 0.0000 0.0000 0.0000 53.6426
#
#
#
# Elastic Compliance Matrix: (Units=1/GPa)
#
#
# Indices 1 2 3 4 5 6 
#
# 1 0.009480 0.000159 -0.002653 0.000000 0.000000 0.000000
# 2 0.000159 0.009480 -0.002653 0.000000 0.000000 0.000000
# 3 -0.002653 -0.002653 0.008425 0.000000 0.000000 0.000000
# 4 0.000000 0.000000 0.000000 0.018306 0.000000 0.000000
# 5 0.000000 0.000000 0.000000 0.000000 0.018306 0.000000
# 6 0.000000 0.000000 0.000000 0.000000 0.000000 0.018642
#
#
# Mechanical properties :
#
#
# Convention : Reuss Voigt Hill
#
# Bulk Modulus (GPa) = 58.50118 61.39641 59.94879
# Shear Modulus (GPa) = 50.69467 51.79415 51.24441
#
# Velocity S-wave (km/s) = 5.10108 5.15610 5.12866
# Velocity P-wave (km/s) = 8.04503 8.18298 8.11430
#
# Compressibility (1/GPa) = 0.01709367
#
# Stress axis : x y z
#
# Youngs Moduli (GPa) = 105.48208 105.48208 118.68844
#
# Poissons Ratio (x) = -0.01681 0.31485
# Poissons Ratio (y) = -0.01681 0.31485
# Poissons Ratio (z) = 0.27982 0.27982
#
# Static dielectric constant tensor:
#      x y z
#    x 1.682230 0.000000 0.000000 
#    y 0.000000 1.682230 0.000000 
#    z 0.000000 0.000000 1.657480 
# 
# From -- ./inp_files/885.got.cif
#   From: 2010.05.17/outbox.cif.g08.bks.cpg/sg192_1_cif.got.tgz:885.got - 2010.05.20 12:28:01.
