data_PCOD9588261
_publ_section_title
;
Structure prediction by ZEFSAII (Michael W. Deem and Ramdas Pophale) SiO2 
 PCOD9588261
Probable space group: P 6/M M M
;
_chemical_formula_sum "Si O2"
_cell_formula_units_Z 132
_cell_length_a 18.000000
_cell_length_b 18.000000
_cell_length_c 30.000000
_cell_angle_alpha 90.000000
_cell_angle_beta 90.000000
_cell_angle_gamma 120.000000
_cell_volume 8417.766925
_symmetry_space_group_name_H-M "P 6/M M M"
_symmetry_group_IT_number 191
_symmetry_cell_setting 'hexagonal'
loop_
_space_group_symop_operation_xyz
x,y,z
x-y,x,z
-y,x-y,z
-x,-y,z
-x+y,-x,z
y,-x+y,z
x-y,-y,-z
-x,-x+y,-z
y,x,-z
-y,-x,-z
-x+y,y,-z
x,x-y,-z
-x,-y,-z
-x+y,-x,-z
y,-x+y,-z
x,y,-z
x-y,x,-z
-y,x-y,-z
-x+y,y,z
x,x-y,z
-y,-x,z
y,x,z
x-y,-y,z
-x,-x+y,z
loop_
_atom_site_type_symbol
_atom_site_label
_atom_site_fract_x
_atom_site_fract_y
_atom_site_fract_z
Si Si1 0.636639 0.533603 0.726993
Si Si2 0.901230 0.628035 0.087801
Si Si3 0.533619 0.896071 0.550135
Si Si4 0.102724 0.370076 0.361620
Si Si5 0.332463 0.842467 0.000000
Si Si6 0.507059 0.838542 0.173580
O O1 0.566788 0.433213 0.720206
O O2 0.583501 0.583501 0.729909
O O3 0.695411 0.572611 0.683329
O O4 0.678130 0.542472 0.775775
O O5 0.827299 0.654598 0.086490
O O6 0.883070 0.566506 0.044721
O O7 0.886057 0.574854 0.133882
O O8 0.000000 0.703124 0.086081
O O9 0.544619 0.868641 0.500000
O O10 0.433633 0.867266 0.556113
O O11 0.572126 0.875139 0.593450
O O12 0.584224 0.000000 0.549188
O O13 0.165102 0.330204 0.361218
O O14 0.000000 0.303954 0.362038
O O15 0.257503 0.742497 0.000000
O O16 0.425850 0.851700 0.000000
O O17 0.427554 0.855107 0.169428
O O18 0.476743 0.738372 0.168089
#
# Coordination Sequence:
#
# PCOD9588261 Si02
#       6
#    24  24  24  24  12  24
#     4   9  17  29  46  67  89 115 149 188 228 271
#     4  10  21  35  51  71  94 122 156 196 240 281
#     4   8  14  26  45  67  88 110 137 170 211 261
#     4  10  19  30  45  65  89 117 152 193 233 272
#     4  10  20  33  50  73 102 134 165 194 224 261
#     4  10  19  30  45  67  97 130 160 187 217 258
#
# _framework density 15.681118
#
# number of rings (size 3 to 8) (size 9 to 14) (size 15 to 20)
#    0.000    2.545    0.000    3.273    0.000    5.091 
#    0.000    1.818    0.000    4.364    0.000    0.000 
#    0.000    2.182    0.000   10.364    0.000    0.000 
#
# Total GULP energy -735285.721852 kJ/mol
# GULP energy per Si atom -5570.346378 kJ/mol
# Density = 1.564543 g / cm^3
# Si number density = 15.681118 Si / 1000 Ang^3
#
#
#
# Elastic Constant Matrix: (Units=GPa)
#
#
# Indices 1 2 3 4 5 6 
#
# 1 75.8953 46.6743 42.3880 0.0000 0.0000 0.0000
# 2 46.6743 75.8953 42.3880 0.0000 0.0000 0.0000
# 3 42.3880 42.3880 134.0632 0.0000 0.0000 0.0000
# 4 0.0000 0.0000 0.0000 20.9611 0.0000 0.0000
# 5 0.0000 0.0000 0.0000 0.0000 20.9611 0.0000
# 6 0.0000 0.0000 0.0000 0.0000 0.0000 14.6105
#
#
#
# Elastic Compliance Matrix: (Units=1/GPa)
#
#
# Indices 1 2 3 4 5 6 
#
# 1 0.022332 -0.011890 -0.003302 0.000000 0.000000 0.000000
# 2 -0.011890 0.022332 -0.003302 0.000000 0.000000 0.000000
# 3 -0.003302 -0.003302 0.009547 0.000000 0.000000 0.000000
# 4 0.000000 0.000000 0.000000 0.047707 0.000000 0.000000
# 5 0.000000 0.000000 0.000000 0.000000 0.047707 0.000000
# 6 0.000000 0.000000 0.000000 0.000000 0.000000 0.068444
#
#
# Mechanical properties :
#
#
# Convention : Reuss Voigt Hill
#
# Bulk Modulus (GPa) = 58.05535 60.97272 59.51404
# Shear Modulus (GPa) = 19.17196 21.60012 20.38604
#
# Velocity S-wave (km/s) = 3.50038 3.71544 3.60951
# Velocity P-wave (km/s) = 7.31025 7.57452 7.44356
#
# Compressibility (1/GPa) = 0.01722494
#
# Stress axis : x y z
#
# Youngs Moduli (GPa) = 44.77863 44.77863 104.74527
#
# Poissons Ratio (x) = 0.53241 0.34583
# Poissons Ratio (y) = 0.53241 0.34583
# Poissons Ratio (z) = 0.14784 0.14784
#
# Static dielectric constant tensor:
#      x y z
#    x 1.519910 0.000000 0.000000 
#    y 0.000000 1.519910 0.000000 
#    z 0.000000 0.000000 1.534390 
# 
# From -- ./inp_files/9807.got.cif
#   From: 2010.05.17/outbox.ucp.g08.bks.cvg/sg191_5_cif.got.tgz:9807.got - 2010.06.11 15:22:43.
