data_PCOD9588937
_publ_section_title
;
Structure prediction by ZEFSAII (Michael W. Deem and Ramdas Pophale) SiO2 
 PCOD9588937
Probable space group: P 63/M C M
;
_chemical_formula_sum "Si O2"
_cell_formula_units_Z 96
_cell_length_a 17.469382
_cell_length_b 17.469382
_cell_length_c 20.220419
_cell_angle_alpha 90.000000
_cell_angle_beta 90.000000
_cell_angle_gamma 120.000000
_cell_volume 5344.115865
_symmetry_space_group_name_H-M "P 63/M C M"
_symmetry_group_IT_number 193
_symmetry_cell_setting 'hexagonal'
loop_
_space_group_symop_operation_xyz
x,y,z
x-y,x,1/2+z
-y,x-y,z
-x,-y,1/2+z
-x+y,-x,z
y,-x+y,1/2+z
x-y,-y,1/2-z
-x,-x+y,1/2-z
y,x,1/2-z
-y,-x,-z
-x+y,y,-z
x,x-y,-z
-x,-y,-z
-x+y,-x,1/2-z
y,-x+y,-z
x,y,1/2-z
x-y,x,-z
-y,x-y,1/2-z
-x+y,y,1/2+z
x,x-y,1/2+z
-y,-x,1/2+z
y,x,z
x-y,-y,z
-x,-x+y,z
loop_
_atom_site_type_symbol
_atom_site_label
_atom_site_fract_x
_atom_site_fract_y
_atom_site_fract_z
Si Si1 0.591856 0.491087 0.101213
Si Si2 0.894235 0.254310 0.175424
Si Si3 0.477572 0.158828 0.965612
Si Si4 0.178900 0.898144 0.570649
O O1 0.522119 0.522119 0.121399
O O2 0.679562 0.542150 0.145938
O O3 0.542648 0.385893 0.089529
O O4 0.626523 0.526864 0.027621
O O5 0.861316 0.226109 0.250000
O O6 0.873696 0.172788 0.127717
O O7 0.000000 0.314750 0.176967
O O8 0.379124 0.117468 0.939239
O O9 0.506423 0.253212 0.000000
O O10 0.128458 0.871543 0.500000
O O11 0.213033 0.000000 0.586448
#
# Coordination Sequence:
#
# PCOD9588937 Si02
#       4
#    24  24  24  24
#     4  10  18  33  53  78 109 144 185 229 273 325
#     4  10  21  38  59  81 109 149 193 235 284 342
#     4  10  18  30  52  85 113 141 180 231 277 324
#     4  11  20  34  57  88 116 144 185 236 288 342
#
# _framework density 17.963681999999999
#
# number of rings (size 3 to 8) (size 9 to 14) (size 15 to 20)
#    0.000    1.750    5.000    3.750    0.000    0.500 
#    6.000    1.250    0.000    7.500    0.000    0.000 
#    0.000    0.000    0.000    0.000    0.000    0.000 
#
# Total GULP energy -534520.287302 kJ/mol
# GULP energy per Si atom -5567.919659 kJ/mol
# Density = 1.792280 g / cm^3
# Si number density = 17.963682 Si / 1000 Ang^3
#
#
#
# Elastic Constant Matrix: (Units=GPa)
#
#
# Indices 1 2 3 4 5 6 
#
# 1 73.2513 30.1457 22.7152 0.0000 0.0000 0.0000
# 2 30.1457 73.2513 22.7152 0.0000 0.0000 0.0000
# 3 22.7152 22.7152 92.5584 0.0000 0.0000 0.0000
# 4 0.0000 0.0000 0.0000 18.0534 0.0000 0.0000
# 5 0.0000 0.0000 0.0000 0.0000 18.0534 0.0000
# 6 0.0000 0.0000 0.0000 0.0000 0.0000 21.5528
#
#
#
# Elastic Compliance Matrix: (Units=1/GPa)
#
#
# Indices 1 2 3 4 5 6 
#
# 1 0.017020 -0.006179 -0.002660 0.000000 0.000000 0.000000
# 2 -0.006179 0.017020 -0.002660 0.000000 0.000000 0.000000
# 3 -0.002660 -0.002660 0.012110 0.000000 0.000000 0.000000
# 4 0.000000 0.000000 0.000000 0.055391 0.000000 0.000000
# 5 0.000000 0.000000 0.000000 0.000000 0.055391 0.000000
# 6 0.000000 0.000000 0.000000 0.000000 0.000000 0.046398
#
#
# Mechanical properties :
#
#
# Convention : Reuss Voigt Hill
#
# Bulk Modulus (GPa) = 43.19841 43.35700 43.27770
# Shear Modulus (GPa) = 21.36335 22.43091 21.89713
#
# Velocity S-wave (km/s) = 3.45230 3.53750 3.49516
# Velocity P-wave (km/s) = 6.32384 6.39324 6.35864
#
# Compressibility (1/GPa) = 0.02314900
#
# Stress axis : x y z
#
# Youngs Moduli (GPa) = 58.75577 58.75577 82.57783
#
# Poissons Ratio (x) = 0.36307 0.21969
# Poissons Ratio (y) = 0.36307 0.21969
# Poissons Ratio (z) = 0.15631 0.15631
#
# Static dielectric constant tensor:
#      x y z
#    x 1.660100 0.000000 0.000000 
#    y 0.000000 1.660100 0.000000 
#    z 0.000000 0.000000 1.629530 
# 
# From -- ./inp_files/6125.got.cif
#   From: 2010.05.17/outbox.cif.g08.bks.cpg/sg193_4_cif.got.tgz:6125.got - 2010.05.20 12:33:02.
