data_PCOD9588983
_publ_section_title
;
Structure prediction by ZEFSAII (Michael W. Deem and Ramdas Pophale) SiO2 
 PCOD9588983
Probable space group: P 63/M C M
;
_chemical_formula_sum "Si O2"
_cell_formula_units_Z 128
_cell_length_a 23.854432
_cell_length_b 23.854432
_cell_length_c 22.573938
_cell_angle_alpha 90.000000
_cell_angle_beta 90.000000
_cell_angle_gamma 120.000000
_cell_volume 11124.387787
_symmetry_space_group_name_H-M "P 63/M C M"
_symmetry_group_IT_number 193
_symmetry_cell_setting 'hexagonal'
loop_
_space_group_symop_operation_xyz
x,y,z
x-y,x,1/2+z
-y,x-y,z
-x,-y,1/2+z
-x+y,-x,z
y,-x+y,1/2+z
x-y,-y,1/2-z
-x,-x+y,1/2-z
y,x,1/2-z
-y,-x,-z
-x+y,y,-z
x,x-y,-z
-x,-y,-z
-x+y,-x,1/2-z
y,-x+y,-z
x,y,1/2-z
x-y,x,-z
-y,x-y,1/2-z
-x+y,y,1/2+z
x,x-y,1/2+z
-y,-x,1/2+z
y,x,z
x-y,-y,z
-x,-x+y,z
loop_
_atom_site_type_symbol
_atom_site_label
_atom_site_fract_x
_atom_site_fract_y
_atom_site_fract_z
Si Si1 0.464642 0.799428 0.503342
Si Si2 0.359196 0.864754 0.620954
Si Si3 0.258126 0.519817 0.818915
Si Si4 0.575520 0.000000 0.318964
Si Si5 0.439924 0.000000 0.181609
Si Si6 0.333334 0.666667 0.177404
Si Si7 0.509537 0.370995 0.868587
O O1 0.388400 0.776800 0.500000
O O2 0.473955 0.736978 0.500000
O O3 0.498135 0.849119 0.448819
O O4 0.490337 0.838065 0.564703
O O5 0.292455 0.810002 0.649121
O O6 0.377102 0.935164 0.644662
O O7 0.419490 0.854615 0.641413
O O8 0.245708 0.522024 0.750000
O O9 0.293160 0.593332 0.843409
O O10 0.311176 0.498798 0.828357
O O11 0.507745 0.000000 0.316178
O O12 0.595105 0.000000 0.250000
O O13 0.457054 0.065341 0.147166
O O14 0.420228 0.000000 0.250000
O O15 0.333334 0.666668 0.250000
#
# Coordination Sequence:
#
# PCOD9588983 Si02
#       7
#    24  24  24  12  12   8  24
#     4  10  19  29  41  57  77 100 121 152 190 231
#     4  10  19  29  41  55  74  97 123 150 186 230
#     4  11  18  25  39  57  74  94 119 154 196 232
#     4   9  18  31  43  55  73  96 121 151 185 226
#     4   9  18  31  43  55  73  96 121 151 185 226
#     4   9  18  24  33  52  77  91 111 156 193 230
#     4  10  19  29  41  55  74  97 123 150 186 230
#
# _framework density 11.506252
#
# number of rings (size 3 to 8) (size 9 to 14) (size 15 to 20)
#    0.000    2.062    3.750    1.312    0.000    2.250 
#    0.000    3.750    0.000    0.000    0.000    0.000 
#    0.000    0.000    0.000    0.000    0.000    0.000 
#
# Total GULP energy -713044.980094 kJ/mol
# GULP energy per Si atom -5570.663907 kJ/mol
# Density = 1.148006 g / cm^3
# Si number density = 11.506252 Si / 1000 Ang^3
#
#
#
# Elastic Constant Matrix: (Units=GPa)
#
#
# Indices 1 2 3 4 5 6 
#
# 1 44.3332 25.1288 12.4573 0.0000 0.0000 0.0000
# 2 25.1288 44.3331 12.4573 0.0000 0.0000 0.0000
# 3 12.4573 12.4573 45.9687 0.0000 0.0000 0.0000
# 4 0.0000 0.0000 0.0000 13.3155 0.0000 0.0000
# 5 0.0000 0.0000 0.0000 0.0000 13.3156 0.0000
# 6 0.0000 0.0000 0.0000 0.0000 0.0000 9.6021
#
#
#
# Elastic Compliance Matrix: (Units=1/GPa)
#
#
# Indices 1 2 3 4 5 6 
#
# 1 0.034009 -0.018063 -0.004321 0.000000 0.000000 0.000000
# 2 -0.018063 0.034009 -0.004321 0.000000 0.000000 0.000000
# 3 -0.004321 -0.004321 0.024096 0.000000 0.000000 0.000000
# 4 0.000000 0.000000 0.000000 0.075100 0.000000 0.000000
# 5 0.000000 0.000000 0.000000 0.000000 0.075100 0.000000
# 6 0.000000 0.000000 0.000000 0.000000 0.000000 0.104144
#
#
# Mechanical properties :
#
#
# Convention : Reuss Voigt Hill
#
# Bulk Modulus (GPa) = 25.83762 26.08020 25.95891
# Shear Modulus (GPa) = 12.11329 12.88609 12.49969
#
# Velocity S-wave (km/s) = 3.24814 3.35015 3.29954
# Velocity P-wave (km/s) = 6.04742 6.13840 6.09308
#
# Compressibility (1/GPa) = 0.03870326
#
# Stress axis : x y z
#
# Youngs Moduli (GPa) = 29.40405 29.40399 41.50056
#
# Poissons Ratio (x) = 0.53111 0.17934
# Poissons Ratio (y) = 0.53111 0.17934
# Poissons Ratio (z) = 0.12707 0.12706
#
# Static dielectric constant tensor:
#      x y z
#    x 1.361390 0.000000 0.000000 
#    y 0.000000 1.361390 0.000000 
#    z 0.000000 0.000000 1.401220 
# 
# From -- ./inp_files/6779.got.cif
#   From: 2010.05.17/outbox.cif.g08.bks.cpg/sg193_4_cif.got.tgz:6779.got - 2010.05.20 12:33:02.
