data_PCOD9588960
_publ_section_title
;
Structure prediction by ZEFSAII (Michael W. Deem and Ramdas Pophale) SiO2 
 PCOD9588960
Probable space group: P 63/M C M
;
_chemical_formula_sum "Si O2"
_cell_formula_units_Z 192
_cell_length_a 23.815164
_cell_length_b 23.815164
_cell_length_c 23.225046
_cell_angle_alpha 90.000000
_cell_angle_beta 90.000000
_cell_angle_gamma 120.000000
_cell_volume 11407.602184
_symmetry_space_group_name_H-M "P 63/M C M"
_symmetry_group_IT_number 193
_symmetry_cell_setting 'hexagonal'
loop_
_space_group_symop_operation_xyz
x,y,z
x-y,x,1/2+z
-y,x-y,z
-x,-y,1/2+z
-x+y,-x,z
y,-x+y,1/2+z
x-y,-y,1/2-z
-x,-x+y,1/2-z
y,x,1/2-z
-y,-x,-z
-x+y,y,-z
x,x-y,-z
-x,-y,-z
-x+y,-x,1/2-z
y,-x+y,-z
x,y,1/2-z
x-y,x,-z
-y,x-y,1/2-z
-x+y,y,1/2+z
x,x-y,1/2+z
-y,-x,1/2+z
y,x,z
x-y,-y,z
-x,-x+y,z
loop_
_atom_site_type_symbol
_atom_site_label
_atom_site_fract_x
_atom_site_fract_y
_atom_site_fract_z
Si Si1 0.925438 0.375463 0.123876
Si Si2 0.078484 0.475271 0.994561
Si Si3 0.184927 0.577836 0.180174
Si Si4 0.297654 0.923559 0.581270
Si Si5 0.925804 0.202218 0.014030
Si Si6 0.164096 0.377418 0.816092
Si Si7 0.245789 0.926966 0.145621
Si Si8 0.526123 0.248687 0.680889
O O1 0.878776 0.396331 0.154265
O O2 0.922868 0.311504 0.149120
O O3 0.000000 0.432369 0.127254
O O4 0.908271 0.362444 0.056424
O O5 0.101874 0.446479 0.943432
O O6 0.000000 0.438482 0.988250
O O7 0.102315 0.551158 0.000000
O O8 0.179701 0.574011 0.250000
O O9 0.244480 0.567340 0.161851
O O10 0.202084 0.649271 0.160815
O O11 0.248749 0.915534 0.529789
O O12 0.256225 0.889767 0.637542
O O13 0.341995 0.000000 0.592223
O O14 0.920916 0.223061 0.079144
O O15 0.000000 0.219098 0.006114
O O16 0.870817 0.129184 0.000000
O O17 0.144201 0.377197 0.750000
O O18 0.191346 0.328118 0.822784
O O19 0.221133 0.450598 0.830488
O O20 0.266291 0.000000 0.165303
O O21 0.533085 0.250672 0.750000
#
# Coordination Sequence:
#
# PCOD9588960 Si02
#       8
#    24  24  24  24  24  24  24  24
#     4  10  19  31  50  76 101 126 161 208 259 315
#     4   9  18  32  49  71  99 132 172 213 256 309
#     4  10  19  33  50  68  94 128 168 213 260 311
#     4  10  20  34  53  74 103 143 178 217 267 317
#     4  10  18  32  55  82 107 135 175 217 259 310
#     4  11  22  35  50  75 107 138 177 218 265 327
#     4  10  19  33  53  77 107 137 171 217 266 319
#     4   9  19  33  48  66  89 126 171 213 256 310
#
# _framework density 16.830881000000002
#
# number of rings (size 3 to 8) (size 9 to 14) (size 15 to 20)
#    0.000    2.125    3.750    0.250    1.750    1.750 
#    0.000    1.250    0.000    2.375    0.000    0.000 
#    0.000    0.000    0.000    0.000    0.000   11.375 
#
# Total GULP energy -1069779.803591 kJ/mol
# GULP energy per Si atom -5571.769810 kJ/mol
# Density = 1.679257 g / cm^3
# Si number density = 16.830881 Si / 1000 Ang^3
#
#
#
# Elastic Constant Matrix: (Units=GPa)
#
#
# Indices 1 2 3 4 5 6 
#
# 1 81.1814 40.3109 28.4387 0.0000 0.0000 0.0000
# 2 40.3109 81.1814 28.4387 0.0000 0.0000 0.0000
# 3 28.4387 28.4387 57.4733 0.0000 0.0000 0.0000
# 4 0.0000 0.0000 0.0000 21.0823 0.0000 0.0000
# 5 0.0000 0.0000 0.0000 0.0000 21.0823 0.0000
# 6 0.0000 0.0000 0.0000 0.0000 0.0000 20.4353
#
#
#
# Elastic Compliance Matrix: (Units=1/GPa)
#
#
# Indices 1 2 3 4 5 6 
#
# 1 0.017590 -0.006877 -0.005301 0.000000 0.000000 0.000000
# 2 -0.006877 0.017590 -0.005301 0.000000 0.000000 0.000000
# 3 -0.005301 -0.005301 0.022645 0.000000 0.000000 0.000000
# 4 0.000000 0.000000 0.000000 0.047433 0.000000 0.000000
# 5 0.000000 0.000000 0.000000 0.000000 0.047433 0.000000
# 6 0.000000 0.000000 0.000000 0.000000 0.000000 0.048935
#
#
# Mechanical properties :
#
#
# Convention : Reuss Voigt Hill
#
# Bulk Modulus (GPa) = 43.73056 46.02363 44.87710
# Shear Modulus (GPa) = 20.47446 20.69651 20.58549
#
# Velocity S-wave (km/s) = 3.49159 3.51048 3.50105
# Velocity P-wave (km/s) = 6.50336 6.62083 6.56236
#
# Compressibility (1/GPa) = 0.02286730
#
# Stress axis : x y z
#
# Youngs Moduli (GPa) = 56.85043 56.85043 44.15960
#
# Poissons Ratio (x) = 0.39099 0.23408
# Poissons Ratio (y) = 0.39099 0.23408
# Poissons Ratio (z) = 0.30135 0.30135
#
# Static dielectric constant tensor:
#      x y z
#    x 1.581270 0.000000 0.000000 
#    y 0.000000 1.581270 0.000000 
#    z 0.000000 0.000000 1.569940 
# 
# From -- ./inp_files/7870.got.cif
#   From: 2010.05.17/outbox.cif.g08.bks.cpg/sg193_4_cif.got.tgz:7870.got - 2010.05.20 12:33:02.
