data_PCOD9588221
_publ_section_title
;
Structure prediction by ZEFSAII (Michael W. Deem and Ramdas Pophale) SiO2 
 PCOD9588221
Probable space group: P 6/M M M
;
_chemical_formula_sum "Si O2"
_cell_formula_units_Z 72
_cell_length_a 18.230293
_cell_length_b 18.230293
_cell_length_c 14.652211
_cell_angle_alpha 90.000000
_cell_angle_beta 90.000000
_cell_angle_gamma 120.000000
_cell_volume 4217.169854
_symmetry_space_group_name_H-M "P 6/M M M"
_symmetry_group_IT_number 191
_symmetry_cell_setting 'hexagonal'
loop_
_space_group_symop_operation_xyz
x,y,z
x-y,x,z
-y,x-y,z
-x,-y,z
-x+y,-x,z
y,-x+y,z
x-y,-y,-z
-x,-x+y,-z
y,x,-z
-y,-x,-z
-x+y,y,-z
x,x-y,-z
-x,-y,-z
-x+y,-x,-z
y,-x+y,-z
x,y,-z
x-y,x,-z
-y,x-y,-z
-x+y,y,z
x,x-y,z
-y,-x,z
y,x,z
x-y,-y,z
-x,-x+y,z
loop_
_atom_site_type_symbol
_atom_site_label
_atom_site_fract_x
_atom_site_fract_y
_atom_site_fract_z
Si Si1 0.830180 0.000000 0.388937
Si Si2 0.000000 0.340751 0.609421
Si Si3 0.330358 0.493417 0.702320
Si Si4 0.901588 0.539661 0.100078
O O1 0.829833 0.914917 0.359157
O O2 0.744911 0.000000 0.361846
O O3 0.831349 0.000000 0.500000
O O4 0.083060 0.422251 0.647723
O O5 0.000000 0.343402 0.500000
O O6 0.250093 0.500187 0.670664
O O7 0.416816 0.583185 0.695087
O O8 0.317532 0.465457 0.808834
O O9 0.901400 0.450700 0.098145
O O10 0.000000 0.611402 0.109703
O O11 0.870683 0.548977 0.000000
#
# Coordination Sequence:
#
# PCOD9588221 Si02
#       4
#    12  12  24  24
#     4   9  17  31  53  80 105 127 156 202 260 317
#     4  11  23  39  56  73  99 141 187 223 265 324
#     4  11  22  36  54  78 106 138 177 223 271 319
#     4   8  14  28  51  76 102 133 168 206 253 312
#
# _framework density 17.073062
#
# number of rings (size 3 to 8) (size 9 to 14) (size 15 to 20)
#    0.000    2.333    1.667    3.000    0.000    4.667 
#    0.000    0.000    0.000    4.000    0.000    0.000 
#    0.000    0.000    0.000    0.000    0.000   11.833 
#
# Total GULP energy -401283.304125 kJ/mol
# GULP energy per Si atom -5573.379224 kJ/mol
# Density = 1.703420 g / cm^3
# Si number density = 17.073062 Si / 1000 Ang^3
#
#
#
# Elastic Constant Matrix: (Units=GPa)
#
#
# Indices 1 2 3 4 5 6 
#
# 1 131.9874 77.3289 44.3157 0.0000 0.0000 0.0000
# 2 77.3289 131.9874 44.3157 0.0000 0.0000 0.0000
# 3 44.3157 44.3157 68.6936 0.0000 0.0000 0.0000
# 4 0.0000 0.0000 0.0000 12.8384 0.0000 0.0000
# 5 0.0000 0.0000 0.0000 0.0000 12.8384 0.0000
# 6 0.0000 0.0000 0.0000 0.0000 0.0000 27.3293
#
#
#
# Elastic Compliance Matrix: (Units=1/GPa)
#
#
# Indices 1 2 3 4 5 6 
#
# 1 0.012434 -0.005861 -0.004240 0.000000 0.000000 0.000000
# 2 -0.005861 0.012434 -0.004240 0.000000 0.000000 0.000000
# 3 -0.004240 -0.004240 0.020028 0.000000 0.000000 0.000000
# 4 0.000000 0.000000 0.000000 0.077892 0.000000 0.000000
# 5 0.000000 0.000000 0.000000 0.000000 0.077892 0.000000
# 6 0.000000 0.000000 0.000000 0.000000 0.000000 0.036591
#
#
# Mechanical properties :
#
#
# Convention : Reuss Voigt Hill
#
# Bulk Modulus (GPa) = 61.67898 73.84322 67.76110
# Shear Modulus (GPa) = 18.42577 21.71507 20.07042
#
# Velocity S-wave (km/s) = 3.28873 3.57023 3.43236
# Velocity P-wave (km/s) = 7.11519 7.76792 7.44871
#
# Compressibility (1/GPa) = 0.01621298
#
# Stress axis : x y z
#
# Youngs Moduli (GPa) = 80.42342 80.42342 49.92886
#
# Poissons Ratio (x) = 0.47138 0.21172
# Poissons Ratio (y) = 0.47138 0.21172
# Poissons Ratio (z) = 0.34102 0.34102
#
# Static dielectric constant tensor:
#      x y z
#    x 1.565210 0.000000 0.000000 
#    y 0.000000 1.565210 0.000000 
#    z 0.000000 0.000000 1.602620 
# 
# From -- ./inp_files/3910.got.cif
#   From: 2010.05.17/outbox.cif.g08.bks.cpg/sg191_2_cif.got.tgz:3910.got - 2010.05.20 12:20:32.
