data_PCOD9588248
_publ_section_title
;
Structure prediction by ZEFSAII (Michael W. Deem and Ramdas Pophale) SiO2 
 PCOD9588248
Probable space group: P 6/M M M
;
_chemical_formula_sum "Si O2"
_cell_formula_units_Z 192
_cell_length_a 31.332078
_cell_length_b 31.332078
_cell_length_c 14.964618
_cell_angle_alpha 90.000000
_cell_angle_beta 90.000000
_cell_angle_gamma 120.000000
_cell_volume 12722.564605
_symmetry_space_group_name_H-M "P 6/M M M"
_symmetry_group_IT_number 191
_symmetry_cell_setting 'hexagonal'
loop_
_space_group_symop_operation_xyz
x,y,z
x-y,x,z
-y,x-y,z
-x,-y,z
-x+y,-x,z
y,-x+y,z
x-y,-y,-z
-x,-x+y,-z
y,x,-z
-y,-x,-z
-x+y,y,-z
x,x-y,-z
-x,-y,-z
-x+y,-x,-z
y,-x+y,-z
x,y,-z
x-y,x,-z
-y,x-y,-z
-x+y,y,z
x,x-y,z
-y,-x,z
y,x,z
x-y,-y,z
-x,-x+y,z
loop_
_atom_site_type_symbol
_atom_site_label
_atom_site_fract_x
_atom_site_fract_y
_atom_site_fract_z
Si Si1 0.135303 0.472188 0.105863
Si Si2 0.864311 0.235308 0.105472
Si Si3 0.235552 0.568779 0.109035
Si Si4 0.764449 0.431221 0.390965
Si Si5 0.135300 0.663109 0.605862
Si Si6 0.433855 0.378030 0.249998
Si Si7 0.330384 0.056033 0.749996
Si Si8 0.135694 0.764690 0.605472
O O1 0.144247 0.425974 0.119926
O O2 0.183889 0.521866 0.134881
O O3 0.088086 0.461749 0.163539
O O4 0.127454 0.474814 0.000000
O O5 0.815247 0.184754 0.130233
O O6 0.911265 0.245911 0.164183
O O7 0.873235 0.233865 0.000000
O O8 0.282348 0.564695 0.138968
O O9 0.239434 0.619717 0.137657
O O10 0.236293 0.568829 0.000000
O O11 0.763708 0.431173 0.500000
O O12 0.717655 0.435310 0.361033
O O13 0.760561 0.380281 0.362346
O O14 0.816114 0.478131 0.365118
O O15 0.127451 0.652633 0.500000
O O16 0.088084 0.626334 0.663540
O O17 0.144247 0.718269 0.619923
O O18 0.422225 0.422225 0.249995
O O19 0.380749 0.327508 0.250002
O O20 0.334649 0.088738 0.664178
O O21 0.286298 0.000000 0.749992
O O22 0.126774 0.766138 0.500000
O O23 0.184759 0.815242 0.630243
#
# Coordination Sequence:
#
# PCOD9588248 Si02
#       8
#    24  24  24  24  24  24  24  24
#     4   9  17  29  46  66  87 111 137 167 203 244
#     4   9  16  26  41  60  81 106 137 171 206 245
#     4   9  16  27  45  68  92 115 138 165 200 245
#     4   9  16  27  45  68  92 115 138 165 200 245
#     4   9  17  29  46  66  87 111 137 167 203 244
#     4   9  18  31  46  65  85 106 136 170 205 245
#     4   9  17  27  39  58  83 107 132 166 208 252
#     4   9  16  26  41  60  81 106 137 171 206 245
#
# _framework density 15.091297000000001
#
# number of rings (size 3 to 8) (size 9 to 14) (size 15 to 20)
#    0.000    3.000    0.000    1.375    0.000    5.000 
#    0.000    7.500    0.000    1.500    0.000    5.250 
#    0.000    0.000    0.000    0.000    0.000    0.000 
#
# Total GULP energy -1070372.407347 kJ/mol
# GULP energy per Si atom -5574.856288 kJ/mol
# Density = 1.505695 g / cm^3
# Si number density = 15.091297 Si / 1000 Ang^3
#
#
#
# Elastic Constant Matrix: (Units=GPa)
#
#
# Indices 1 2 3 4 5 6 
#
# 1 85.1612 78.3994 44.0700 0.0000 0.0000 0.0000
# 2 78.3994 85.1612 44.0700 0.0000 0.0000 0.0000
# 3 44.0700 44.0700 61.1510 0.0000 0.0000 0.0000
# 4 0.0000 0.0000 0.0000 5.4758 0.0000 0.0000
# 5 0.0000 0.0000 0.0000 0.0000 5.4758 0.0000
# 6 0.0000 0.0000 0.0000 0.0000 0.0000 3.3809
#
#
#
# Elastic Compliance Matrix: (Units=1/GPa)
#
#
# Indices 1 2 3 4 5 6 
#
# 1 0.078943 -0.068947 -0.007204 0.000000 0.000000 0.000000
# 2 -0.068947 0.078943 -0.007204 0.000000 0.000000 0.000000
# 3 -0.007204 -0.007204 0.026736 0.000000 0.000000 0.000000
# 4 0.000000 0.000000 0.000000 0.182622 0.000000 0.000000
# 5 0.000000 0.000000 0.000000 0.000000 0.182622 0.000000
# 6 0.000000 0.000000 0.000000 0.000000 0.000000 0.295780
#
#
# Mechanical properties :
#
#
# Convention : Reuss Voigt Hill
#
# Bulk Modulus (GPa) = 55.82608 62.72801 59.27705
# Shear Modulus (GPa) = 4.91002 7.19543 6.05272
#
# Velocity S-wave (km/s) = 1.80572 2.18593 2.00486
# Velocity P-wave (km/s) = 6.43584 6.93015 6.68756
#
# Compressibility (1/GPa) = 0.01791278
#
# Stress axis : x y z
#
# Youngs Moduli (GPa) = 12.66737 12.66737 37.40245
#
# Poissons Ratio (x) = 0.87338 0.26944
# Poissons Ratio (y) = 0.87338 0.26944
# Poissons Ratio (z) = 0.09125 0.09125
#
# Static dielectric constant tensor:
#      x y z
#    x 1.478740 0.000000 0.000000 
#    y 0.000000 1.478740 0.000000 
#    z 0.000000 0.000000 1.546890 
# 
# From -- ./inp_files/5575.got.cif
#   From: 2010.05.17/outbox.cif.g08.bks.cpg/sg191_3_cif.got.tgz:5575.got - 2010.05.20 12:20:32.
