data_PCOD9588820
_publ_section_title
;
Structure prediction by ZEFSAII (Michael W. Deem and Ramdas Pophale) SiO2 
 PCOD9588820
Probable space group: P 6/M C C
;
_chemical_formula_sum "Si O2"
_cell_formula_units_Z 116
_cell_length_a 20.351753
_cell_length_b 20.351753
_cell_length_c 17.266599
_cell_angle_alpha 90.000000
_cell_angle_beta 90.000000
_cell_angle_gamma 120.000000
_cell_volume 6193.570438
_symmetry_space_group_name_H-M "P 6/M C C"
_symmetry_group_IT_number 192
_symmetry_cell_setting 'hexagonal'
loop_
_space_group_symop_operation_xyz
x,y,z
x-y,x,z
-y,x-y,z
-x,-y,z
-x+y,-x,z
y,-x+y,z
x-y,-y,1/2-z
-x,-x+y,1/2-z
y,x,1/2-z
-y,-x,1/2-z
-x+y,y,1/2-z
x,x-y,1/2-z
-x,-y,-z
-x+y,-x,-z
y,-x+y,-z
x,y,-z
x-y,x,-z
-y,x-y,-z
-x+y,y,1/2+z
x,x-y,1/2+z
-y,-x,1/2+z
y,x,1/2+z
x-y,-y,1/2+z
-x,-x+y,1/2+z
loop_
_atom_site_type_symbol
_atom_site_label
_atom_site_fract_x
_atom_site_fract_y
_atom_site_fract_z
Si Si1 0.821948 0.910974 0.250000
Si Si2 0.501830 0.750918 0.841541
Si Si3 0.084882 0.693374 0.089363
Si Si4 0.666667 0.333334 0.408315
Si Si5 0.736077 0.868040 0.085815
Si Si6 0.391511 0.084887 0.410638
O O1 0.871847 0.871847 0.250000
O O2 0.778164 0.889082 0.167804
O O3 0.495719 0.747860 0.750000
O O4 0.547398 0.839430 0.867266
O O5 0.419264 0.709638 0.878557
O O6 0.547393 0.707970 0.867268
O O7 0.094338 0.777061 0.087280
O O8 0.999997 0.634739 0.119517
O O9 0.089139 0.672633 0.000000
O O10 0.666667 0.333334 0.500000
O O11 0.682719 0.777063 0.087280
O O12 0.775302 0.887651 0.000000
O O13 0.416510 0.089143 0.500000
#
# Coordination Sequence:
#
# PCOD9588820 Si02
#       6
#    12  24  24   8  24  24
#     4  12  25  36  48  68 100 144 196 246 298 354
#     4  11  23  38  60  92 124 154 195 246 300 354
#     4   9  18  35  59  88 120 151 190 241 294 353
#     4  12  25  47  70  81 109 164 211 237 274 353
#     4   9  19  36  56  80 110 149 193 241 297 359
#     4   9  18  35  59  88 120 151 190 241 294 353
#
# _framework density 18.729099000000001
#
# number of rings (size 3 to 8) (size 9 to 14) (size 15 to 20)
#    0.000    2.069    0.000    5.069    5.793    3.310 
#    0.000    1.034    0.000    7.448    0.000    0.000 
#    0.000    0.000    0.000    0.000    0.000    0.000 
#
# Total GULP energy -646496.859529 kJ/mol
# GULP energy per Si atom -5573.248789 kJ/mol
# Density = 1.868647 g / cm^3
# Si number density = 18.729099 Si / 1000 Ang^3
#
#
#
# Elastic Constant Matrix: (Units=GPa)
#
#
# Indices 1 2 3 4 5 6 
#
# 1 104.8135 81.3314 75.4672 -0.0004 0.0001 -0.0006
# 2 81.3314 104.8184 75.4665 0.0002 -0.0001 0.0012
# 3 75.4672 75.4665 180.3404 0.0000 0.0000 0.0000
# 4 -0.0004 0.0002 0.0000 26.5357 0.0000 0.0001
# 5 0.0001 -0.0001 0.0000 0.0000 26.5356 0.0003
# 6 -0.0006 0.0012 0.0000 0.0001 0.0003 11.7495
#
#
#
# Elastic Compliance Matrix: (Units=1/GPa)
#
#
# Indices 1 2 3 4 5 6 
#
# 1 0.025357 -0.017225 -0.003403 0.000000 0.000000 0.000003
# 2 -0.017225 0.025355 -0.003402 0.000000 0.000000 -0.000004
# 3 -0.003403 -0.003402 0.008393 0.000000 0.000000 0.000000
# 4 0.000000 0.000000 0.000000 0.037685 0.000000 0.000000
# 5 0.000000 0.000000 0.000000 0.000000 0.037685 -0.000001
# 6 0.000003 -0.000004 0.000000 0.000000 -0.000001 0.085110
#
#
# Mechanical properties :
#
#
# Convention : Reuss Voigt Hill
#
# Bulk Modulus (GPa) = 90.54263 94.94470 92.74367
# Shear Modulus (GPa) = 18.42794 23.47796 20.95295
#
# Velocity S-wave (km/s) = 3.14015 3.54440 3.34838
# Velocity P-wave (km/s) = 7.84829 8.21913 8.03585
#
# Compressibility (1/GPa) = 0.01104452
#
# Stress axis : x y z
#
# Youngs Moduli (GPa) = 39.43679 39.43978 119.14960
#
# Poissons Ratio (x) = 0.67935 0.40547
# Poissons Ratio (y) = 0.67930 0.40536
# Poissons Ratio (z) = 0.13421 0.13418
#
# Static dielectric constant tensor:
#      x y z
#    x 1.645800 0.000000 0.000000 
#    y 0.000000 1.645800 0.000000 
#    z 0.000000 0.000000 1.692620 
# 
# From -- ./inp_files/3018.got.cif
#   From: 2010.05.17/outbox.cif.g08.bks.cpg/sg192_2_cif.got.tgz:3018.got - 2010.05.20 12:28:01.
