data_PCOD9588000
_publ_section_title
;
Structure prediction by ZEFSAII (Michael W. Deem and Ramdas Pophale) SiO2 
 PCOD9588000
Probable space group: P 6/M M M
;
_chemical_formula_sum "Si O2"
_cell_formula_units_Z 156
_cell_length_a 22.027992
_cell_length_b 22.027992
_cell_length_c 22.054586
_cell_angle_alpha 90.000000
_cell_angle_beta 90.000000
_cell_angle_gamma 120.000000
_cell_volume 9267.857800
_symmetry_space_group_name_H-M "P 6/M M M"
_symmetry_group_IT_number 191
_symmetry_cell_setting 'hexagonal'
loop_
_space_group_symop_operation_xyz
x,y,z
x-y,x,z
-y,x-y,z
-x,-y,z
-x+y,-x,z
y,-x+y,z
x-y,-y,-z
-x,-x+y,-z
y,x,-z
-y,-x,-z
-x+y,y,-z
x,x-y,-z
-x,-y,-z
-x+y,-x,-z
y,-x+y,-z
x,y,-z
x-y,x,-z
-y,x-y,-z
-x+y,y,z
x,x-y,z
-y,-x,z
y,x,z
x-y,-y,z
-x,-x+y,z
loop_
_atom_site_type_symbol
_atom_site_label
_atom_site_fract_x
_atom_site_fract_y
_atom_site_fract_z
Si Si1 0.333645 0.811207 0.000000
Si Si2 0.079175 0.781515 0.316039
Si Si3 0.716028 0.578445 0.112362
Si Si4 0.139847 0.000000 0.926112
Si Si5 0.523126 0.334873 0.365410
Si Si6 0.719413 0.719413 0.073389
Si Si7 0.698532 0.617139 0.569703
Si Si8 0.560737 0.707118 0.247619
O O1 0.325162 0.848682 0.940689
O O2 0.267862 0.732139 0.000000
O O3 0.405633 0.811266 0.000000
O O4 0.139379 0.860622 0.304317
O O5 0.090256 0.757994 0.382901
O O6 0.092138 0.730583 0.271676
O O7 0.000000 0.764221 0.310427
O O8 0.794349 0.588697 0.112912
O O9 0.720765 0.651640 0.097427
O O10 0.682713 0.551513 0.178594
O O11 0.140123 0.070062 0.906231
O O12 0.210065 0.000000 0.907863
O O13 0.139071 0.000000 0.000000
O O14 0.527816 0.263908 0.367839
O O15 0.597259 0.402742 0.378078
O O16 0.461861 0.326184 0.410481
O O17 0.495239 0.339818 0.298294
O O18 0.716931 0.716931 0.000000
O O19 0.721881 0.629004 0.500000
O O20 0.637543 0.637543 0.575894
O O21 0.557885 0.778943 0.247835
#
# Coordination Sequence:
#
# PCOD9588000 Si02
#       8
#    12  24  24  12  24  12  24  24
#     4  10  21  37  57  77  98 124 158 201 253 313
#     4   9  17  30  50  76 102 131 167 211 254 297
#     4  10  20  35  53  74 102 130 162 210 257 298
#     4   9  17  28  45  70 104 140 176 209 238 280
#     4  10  20  34  52  75 104 136 169 204 247 300
#     4  11  20  31  50  77 100 136 169 200 250 314
#     4   9  18  33  53  75 101 135 173 214 254 289
#     4   8  17  33  51  70  94 126 164 209 251 286
#
# _framework density 16.832370000000001
#
# number of rings (size 3 to 8) (size 9 to 14) (size 15 to 20)
#    0.000    2.615    0.769    2.154    1.077    3.385 
#    0.000    1.538    0.000    2.923    0.000    0.000 
#    0.000    0.000    0.000    3.846    0.000    0.000 
#
# Total GULP energy -869570.723500 kJ/mol
# GULP energy per Si atom -5574.171304 kJ/mol
# Density = 1.679406 g / cm^3
# Si number density = 16.832370 Si / 1000 Ang^3
#
#
#
# Elastic Constant Matrix: (Units=GPa)
#
#
# Indices 1 2 3 4 5 6 
#
# 1 77.2432 36.7382 3.1476 0.0000 0.0000 0.0000
# 2 36.7382 77.2432 3.1476 0.0000 0.0000 0.0000
# 3 3.1476 3.1476 74.3279 0.0000 0.0000 0.0000
# 4 0.0000 0.0000 0.0000 8.9616 0.0000 0.0000
# 5 0.0000 0.0000 0.0000 0.0000 8.9616 0.0000
# 6 0.0000 0.0000 0.0000 0.0000 0.0000 20.2525
#
#
#
# Elastic Compliance Matrix: (Units=1/GPa)
#
#
# Indices 1 2 3 4 5 6 
#
# 1 0.016741 -0.007947 -0.000372 0.000000 0.000000 0.000000
# 2 -0.007947 0.016741 -0.000372 0.000000 0.000000 0.000000
# 3 -0.000372 -0.000372 0.013485 0.000000 0.000000 0.000000
# 4 0.000000 0.000000 0.000000 0.111588 0.000000 0.000000
# 5 0.000000 0.000000 0.000000 0.000000 0.111588 0.000000
# 6 0.000000 0.000000 0.000000 0.000000 0.000000 0.049377
#
#
# Mechanical properties :
#
#
# Convention : Reuss Voigt Hill
#
# Bulk Modulus (GPa) = 33.80240 34.98679 34.39459
# Shear Modulus (GPa) = 14.41899 20.02051 17.21975
#
# Velocity S-wave (km/s) = 2.92999 3.45252 3.20193
# Velocity P-wave (km/s) = 5.61888 6.06001 5.84361
#
# Compressibility (1/GPa) = 0.02958370
#
# Stress axis : x y z
#
# Youngs Moduli (GPa) = 59.73309 59.73309 74.15407
#
# Poissons Ratio (x) = 0.47471 0.02761
# Poissons Ratio (y) = 0.47471 0.02761
# Poissons Ratio (z) = 0.02224 0.02224
#
# Static dielectric constant tensor:
#      x y z
#    x 1.547230 0.000000 0.000000 
#    y 0.000000 1.547230 0.000000 
#    z 0.000000 0.000000 1.592540 
# 
# From -- ./inp_files/7767.got.cif
#   From: 2010.05.17/outbox.cif.g08.bks.cpg/sg191_4_cif.got.tgz:7767.got - 2010.05.20 12:20:32.
