data_PCOD9588135
_publ_section_title
;
Structure prediction by ZEFSAII (Michael W. Deem and Ramdas Pophale) SiO2 
 PCOD9588135
Probable space group: P 6/M M M
;
_chemical_formula_sum "Si O2"
_cell_formula_units_Z 60
_cell_length_a 22.029215
_cell_length_b 22.029215
_cell_length_c 7.928671
_cell_angle_alpha 90.000000
_cell_angle_beta 90.000000
_cell_angle_gamma 120.000000
_cell_volume 3332.184746
_symmetry_space_group_name_H-M "P 6/M M M"
_symmetry_group_IT_number 191
_symmetry_cell_setting 'hexagonal'
loop_
_space_group_symop_operation_xyz
x,y,z
x-y,x,z
-y,x-y,z
-x,-y,z
-x+y,-x,z
y,-x+y,z
x-y,-y,-z
-x,-x+y,-z
y,x,-z
-y,-x,-z
-x+y,y,-z
x,x-y,-z
-x,-y,-z
-x+y,-x,-z
y,-x+y,-z
x,y,-z
x-y,x,-z
-y,x-y,-z
-x+y,y,z
x,x-y,z
-y,-x,z
y,x,z
x-y,-y,z
-x,-x+y,z
loop_
_atom_site_type_symbol
_atom_site_label
_atom_site_fract_x
_atom_site_fract_y
_atom_site_fract_z
Si Si1 0.187825 0.666082 0.500000
Si Si2 0.000000 0.859578 0.795508
Si Si3 0.420807 0.137883 0.190161
Si Si4 0.281348 0.281348 0.299940
O O1 0.266040 0.733961 0.500000
O O2 0.190667 0.595333 0.500000
O O3 0.148956 0.672667 0.334527
O O4 0.929948 0.859895 0.740422
O O5 0.000000 0.790368 0.735438
O O6 0.000000 0.858952 0.000000
O O7 0.409728 0.204864 0.202906
O O8 0.347188 0.068582 0.223428
O O9 0.445322 0.136553 0.000000
O O10 0.291238 0.291238 0.500000
#
# Coordination Sequence:
#
# PCOD9588135 Si02
#       4
#    12  12  24  12
#     4  10  21  39  63  91 120 148 182 225 279 341
#     4  10  21  36  54  78 111 152 197 245 295 344
#     4  10  21  38  59  84 117 154 193 238 283 332
#     4  12  22  35  57  83 112 150 196 243 292 341
#
# _framework density 18.006205000000001
#
# number of rings (size 3 to 8) (size 9 to 14) (size 15 to 20)
#    0.000    1.600    2.000    3.400    0.000    7.200 
#    0.000    2.000    0.000    6.000    0.000    0.000 
#    0.000    0.000    0.000    0.000    0.000    0.000 
#
# Total GULP energy -335201.286176 kJ/mol
# GULP energy per Si atom -5586.688103 kJ/mol
# Density = 1.796522 g / cm^3
# Si number density = 18.006205 Si / 1000 Ang^3
#
#
#
# Elastic Constant Matrix: (Units=GPa)
#
#
# Indices 1 2 3 4 5 6 
#
# 1 114.2760 60.1707 58.2087 0.0000 0.0000 0.0000
# 2 60.1707 114.2760 58.2087 0.0000 0.0000 0.0000
# 3 58.2087 58.2087 147.5576 0.0000 0.0000 0.0000
# 4 0.0000 0.0000 0.0000 17.8088 0.0000 0.0000
# 5 0.0000 0.0000 0.0000 0.0000 17.8088 0.0000
# 6 0.0000 0.0000 0.0000 0.0000 0.0000 27.0526
#
#
#
# Elastic Compliance Matrix: (Units=1/GPa)
#
#
# Indices 1 2 3 4 5 6 
#
# 1 0.013132 -0.005351 -0.003069 0.000000 0.000000 0.000000
# 2 -0.005351 0.013132 -0.003069 0.000000 0.000000 0.000000
# 3 -0.003069 -0.003069 0.009199 0.000000 0.000000 0.000000
# 4 0.000000 0.000000 0.000000 0.056152 0.000000 0.000000
# 5 0.000000 0.000000 0.000000 0.000000 0.056152 0.000000
# 6 0.000000 0.000000 0.000000 0.000000 0.000000 0.036965
#
#
# Mechanical properties :
#
#
# Convention : Reuss Voigt Hill
#
# Bulk Modulus (GPa) = 80.11094 81.03176 80.57135
# Shear Modulus (GPa) = 23.59924 25.83546 24.71735
#
# Velocity S-wave (km/s) = 3.62417 3.79200 3.70903
# Velocity P-wave (km/s) = 7.88037 8.01699 7.94897
#
# Compressibility (1/GPa) = 0.01248269
#
# Stress axis : x y z
#
# Youngs Moduli (GPa) = 76.15205 76.15205 108.71186
#
# Poissons Ratio (x) = 0.40748 0.33368
# Poissons Ratio (y) = 0.40748 0.33368
# Poissons Ratio (z) = 0.23374 0.23374
#
# Static dielectric constant tensor:
#      x y z
#    x 1.574470 0.000000 0.000000 
#    y 0.000000 1.574470 0.000000 
#    z 0.000000 0.000000 1.640900 
# 
# From -- ./inp_files/597.got.cif
#   From: 2010.05.17/outbox.cif.g08.bks.cpg/sg191_1_cif.got.tgz:597.got - 2010.05.20 12:20:32.
