data_PCOD9588166
_publ_section_title
;
Structure prediction by ZEFSAII (Michael W. Deem and Ramdas Pophale) SiO2 
 PCOD9588166
Probable space group: P 6/M M M
;
_chemical_formula_sum "Si O2"
_cell_formula_units_Z 126
_cell_length_a 19.827754
_cell_length_b 19.827754
_cell_length_c 23.793172
_cell_angle_alpha 90.000000
_cell_angle_beta 90.000000
_cell_angle_gamma 120.000000
_cell_volume 8100.839354
_symmetry_space_group_name_H-M "P 6/M M M"
_symmetry_group_IT_number 191
_symmetry_cell_setting 'hexagonal'
loop_
_space_group_symop_operation_xyz
x,y,z
x-y,x,z
-y,x-y,z
-x,-y,z
-x+y,-x,z
y,-x+y,z
x-y,-y,-z
-x,-x+y,-z
y,x,-z
-y,-x,-z
-x+y,y,-z
x,x-y,-z
-x,-y,-z
-x+y,-x,-z
y,-x+y,-z
x,y,-z
x-y,x,-z
-y,x-y,-z
-x+y,y,z
x,x-y,z
-y,-x,z
y,x,z
x-y,-y,z
-x,-x+y,z
loop_
_atom_site_type_symbol
_atom_site_label
_atom_site_fract_x
_atom_site_fract_y
_atom_site_fract_z
Si Si1 0.176441 0.667277 0.242288
Si Si2 0.167461 0.832540 0.935573
Si Si3 0.094667 0.547334 0.063931
Si Si4 0.909922 0.245126 0.432444
Si Si5 0.322928 0.907283 0.865327
Si Si6 0.092808 0.623047 0.361306
Si Si7 0.183519 0.091760 0.000000
O O1 0.167693 0.583847 0.228120
O O2 0.265929 0.734072 0.244499
O O3 0.133896 0.689816 0.194621
O O4 0.137482 0.657832 0.303093
O O5 0.245616 0.882932 0.900655
O O6 0.121416 0.878585 0.947251
O O7 0.183892 0.816109 0.000000
O O8 0.118071 0.625489 0.097466
O O9 0.000000 0.500000 0.062222
O O10 0.122860 0.561430 0.000000
O O11 0.907986 0.250773 0.500000
O O12 0.842197 0.157804 0.416459
O O13 0.891461 0.308303 0.404322
O O14 0.000000 0.272033 0.417105
O O15 0.371693 0.000000 0.857851
O O16 0.112255 0.556128 0.380952
O O17 0.000000 0.577392 0.350385
O O18 0.132441 0.132441 0.000000
#
# Coordination Sequence:
#
# PCOD9588166 Si02
#       7
#    24  12  12  24  24  24   6
#     4  11  21  34  49  68  95 130 167 205 244 286
#     4  10  22  35  52  75 102 125 151 195 245 290
#     4   9  18  30  48  69  89 118 155 190 227 277
#     4   9  17  30  49  74 104 137 173 212 255 303
#     4  11  20  33  51  71  95 124 159 198 239 286
#     4   9  18  31  49  73  99 128 166 210 254 298
#     4  10  21  38  60  82 104 128 154 190 244 312
#
# _framework density 15.553943
#
# number of rings (size 3 to 8) (size 9 to 14) (size 15 to 20)
#    0.286    1.810    1.905    2.524    0.000    1.905 
#    0.000    1.905    0.000    0.571    0.000    4.000 
#    0.000    0.000    0.000    0.000    0.000    0.000 
#
# Total GULP energy -701955.966163 kJ/mol
# GULP energy per Si atom -5571.079097 kJ/mol
# Density = 1.551854 g / cm^3
# Si number density = 15.553943 Si / 1000 Ang^3
#
#
#
# Elastic Constant Matrix: (Units=GPa)
#
#
# Indices 1 2 3 4 5 6 
#
# 1 91.9551 46.9841 34.5082 0.0000 0.0000 0.0000
# 2 46.9841 91.9551 34.5082 0.0000 0.0000 0.0000
# 3 34.5082 34.5082 47.6004 0.0000 0.0000 0.0000
# 4 0.0000 0.0000 0.0000 23.6019 0.0000 0.0000
# 5 0.0000 0.0000 0.0000 0.0000 23.6019 0.0000
# 6 0.0000 0.0000 0.0000 0.0000 0.0000 22.4855
#
#
#
# Elastic Compliance Matrix: (Units=1/GPa)
#
#
# Indices 1 2 3 4 5 6 
#
# 1 0.016742 -0.005494 -0.008154 0.000000 0.000000 0.000000
# 2 -0.005494 0.016742 -0.008154 0.000000 0.000000 0.000000
# 3 -0.008154 -0.008154 0.032831 0.000000 0.000000 0.000000
# 4 0.000000 0.000000 0.000000 0.042370 0.000000 0.000000
# 5 0.000000 0.000000 0.000000 0.000000 0.042370 0.000000
# 6 0.000000 0.000000 0.000000 0.000000 0.000000 0.044473
#
#
# Mechanical properties :
#
#
# Convention : Reuss Voigt Hill
#
# Bulk Modulus (GPa) = 44.03347 51.50130 47.76739
# Shear Modulus (GPa) = 20.26725 21.63852 20.95289
#
# Velocity S-wave (km/s) = 3.61367 3.73392 3.67428
# Velocity P-wave (km/s) = 6.76632 7.19533 6.98412
#
# Compressibility (1/GPa) = 0.02271000
#
# Stress axis : x y z
#
# Youngs Moduli (GPa) = 59.72916 59.72916 30.45887
#
# Poissons Ratio (x) = 0.32817 0.24837
# Poissons Ratio (y) = 0.32817 0.24837
# Poissons Ratio (z) = 0.48705 0.48705
#
# Static dielectric constant tensor:
#      x y z
#    x 1.512250 0.000000 0.000000 
#    y 0.000000 1.512250 0.000000 
#    z 0.000000 0.000000 1.501990 
# 
# From -- ./inp_files/7565.got.cif
#   From: 2010.05.17/outbox.cif.g08.bks.cpg/sg191_4_cif.got.tgz:7565.got - 2010.05.20 12:20:32.
