data_PCOD9588519
_publ_section_title
;
Structure prediction by ZEFSAII (Michael W. Deem and Ramdas Pophale) SiO2 
 PCOD9588519
Probable space group: P 6/M C C
;
_chemical_formula_sum "Si O2"
_cell_formula_units_Z 144
_cell_length_a 30.300369
_cell_length_b 30.300369
_cell_length_c 8.909955
_cell_angle_alpha 90.000000
_cell_angle_beta 90.000000
_cell_angle_gamma 120.000000
_cell_volume 7084.382101
_symmetry_space_group_name_H-M "P 6/M C C"
_symmetry_group_IT_number 192
_symmetry_cell_setting 'hexagonal'
loop_
_space_group_symop_operation_xyz
x,y,z
x-y,x,z
-y,x-y,z
-x,-y,z
-x+y,-x,z
y,-x+y,z
x-y,-y,1/2-z
-x,-x+y,1/2-z
y,x,1/2-z
-y,-x,1/2-z
-x+y,y,1/2-z
x,x-y,1/2-z
-x,-y,-z
-x+y,-x,-z
y,-x+y,-z
x,y,-z
x-y,x,-z
-y,x-y,-z
-x+y,y,1/2+z
x,x-y,1/2+z
-y,-x,1/2+z
y,x,1/2+z
x-y,-y,1/2+z
-x,-x+y,1/2+z
loop_
_atom_site_type_symbol
_atom_site_label
_atom_site_fract_x
_atom_site_fract_y
_atom_site_fract_z
Si Si1 0.640749 0.943472 0.321215
Si Si2 0.812890 0.863820 0.334000
Si Si3 0.432461 0.666975 0.816796
Si Si4 0.534448 0.677071 0.674329
Si Si5 0.801707 0.110262 0.670823
Si Si6 0.477081 0.430705 0.669005
O O1 0.635372 0.946540 0.500000
O O2 0.589049 0.894206 0.254746
O O3 0.681436 0.926745 0.274444
O O4 0.662109 0.000000 0.250000
O O5 0.826438 0.826438 0.250000
O O6 0.833276 0.916638 0.250000
O O7 0.833922 0.872285 0.500000
O O8 0.751933 0.837548 0.341549
O O9 0.387564 0.612437 0.750000
O O10 0.423149 0.711575 0.750000
O O11 0.489429 0.680927 0.759908
O O12 0.430534 0.665759 0.000000
O O13 0.540232 0.695509 0.500000
O O14 0.516191 0.617533 0.669394
O O15 0.834955 0.165046 0.750000
O O16 0.785726 0.114167 0.500000
O O17 0.429001 0.429001 0.750000
O O18 0.525589 0.474412 0.750000
O O19 0.473181 0.443685 0.500000
#
# Coordination Sequence:
#
# PCOD9588519 Si02
#       6
#    24  24  24  24  24  24
#     4  12  25  41  62  90 127 175 225 275 329 391
#     4  10  20  34  55  82 113 148 190 240 296 354
#     4  12  26  47  74 104 135 169 210 262 324 394
#     4  11  24  42  63  91 124 161 206 256 309 371
#     4  10  21  38  60  87 119 158 206 263 321 380
#     4  10  20  33  54  81 113 150 190 234 280 333
#
# _framework density 20.326404
#
# number of rings (size 3 to 8) (size 9 to 14) (size 15 to 20)
#    0.000    1.167    0.000    7.167    0.000    9.333 
#    0.000    3.333    0.000    0.167    0.000    1.167 
#    0.000    0.000    0.000    0.000    0.000    0.000 
#
# Total GULP energy -802702.975743 kJ/mol
# GULP energy per Si atom -5574.326220 kJ/mol
# Density = 2.028014 g / cm^3
# Si number density = 20.326404 Si / 1000 Ang^3
#
#
#
# Elastic Constant Matrix: (Units=GPa)
#
#
# Indices 1 2 3 4 5 6 
#
# 1 77.5426 9.4795 41.2588 0.0000 0.0000 0.0000
# 2 9.4795 77.5426 41.2588 0.0000 0.0000 0.0000
# 3 41.2588 41.2588 192.8014 0.0000 0.0000 0.0000
# 4 0.0000 0.0000 0.0000 13.3037 0.0000 0.0000
# 5 0.0000 0.0000 0.0000 0.0000 13.3037 0.0000
# 6 0.0000 0.0000 0.0000 0.0000 0.0000 34.0315
#
#
#
# Elastic Compliance Matrix: (Units=1/GPa)
#
#
# Indices 1 2 3 4 5 6 
#
# 1 0.014555 -0.000138 -0.003085 0.000000 0.000000 0.000000
# 2 -0.000138 0.014555 -0.003085 0.000000 0.000000 0.000000
# 3 -0.003085 -0.003085 0.006507 0.000000 0.000000 0.000000
# 4 0.000000 0.000000 0.000000 0.075167 0.000000 0.000000
# 5 0.000000 0.000000 0.000000 0.000000 0.075167 0.000000
# 6 0.000000 0.000000 0.000000 0.000000 0.000000 0.029385
#
#
# Mechanical properties :
#
#
# Convention : Reuss Voigt Hill
#
# Bulk Modulus (GPa) = 43.47807 59.09786 51.28796
# Shear Modulus (GPa) = 21.22082 29.18707 25.20394
#
# Velocity S-wave (km/s) = 3.23461 3.79346 3.52513
# Velocity P-wave (km/s) = 5.94867 6.95160 6.46960
#
# Compressibility (1/GPa) = 0.02300010
#
# Stress axis : x y z
#
# Youngs Moduli (GPa) = 68.70719 68.70719 153.67828
#
# Poissons Ratio (x) = 0.00946 0.47412
# Poissons Ratio (y) = 0.00946 0.47412
# Poissons Ratio (z) = 0.21197 0.21197
#
# Static dielectric constant tensor:
#      x y z
#    x 1.755780 0.000000 0.000000 
#    y 0.000000 1.755780 0.000000 
#    z 0.000000 0.000000 1.705470 
# 
# From -- ./inp_files/1203.got.cif
#   From: 2010.05.17/outbox.cif.g08.bks.cpg/sg192_1_cif.got.tgz:1203.got - 2010.05.20 12:28:01.
