data_PCOD9588396
_publ_section_title
;
Structure prediction by ZEFSAII (Michael W. Deem and Ramdas Pophale) SiO2 
 PCOD9588396
Probable space group: P 6/M C C
;
_chemical_formula_sum "Si O2"
_cell_formula_units_Z 96
_cell_length_a 17.336883
_cell_length_b 17.336883
_cell_length_c 14.173884
_cell_angle_alpha 90.000000
_cell_angle_beta 90.000000
_cell_angle_gamma 120.000000
_cell_volume 3689.449264
_symmetry_space_group_name_H-M "P 6/M C C"
_symmetry_group_IT_number 192
_symmetry_cell_setting 'hexagonal'
loop_
_space_group_symop_operation_xyz
x,y,z
x-y,x,z
-y,x-y,z
-x,-y,z
-x+y,-x,z
y,-x+y,z
x-y,-y,1/2-z
-x,-x+y,1/2-z
y,x,1/2-z
-y,-x,1/2-z
-x+y,y,1/2-z
x,x-y,1/2-z
-x,-y,-z
-x+y,-x,-z
y,-x+y,-z
x,y,-z
x-y,x,-z
-y,x-y,-z
-x+y,y,1/2+z
x,x-y,1/2+z
-y,-x,1/2+z
y,x,1/2+z
x-y,-y,1/2+z
-x,-x+y,1/2+z
loop_
_atom_site_type_symbol
_atom_site_label
_atom_site_fract_x
_atom_site_fract_y
_atom_site_fract_z
Si Si1 0.806114 0.934970 0.356883
Si Si2 0.518831 0.378237 0.884787
Si Si3 0.819921 0.287267 0.115596
Si Si4 0.676747 0.671195 0.386674
O O1 0.834687 0.867954 0.400323
O O2 0.817888 0.908944 0.250000
O O3 0.712599 0.932957 0.359402
O O4 0.496510 0.279691 0.855250
O O5 0.614340 0.456498 0.854425
O O6 0.431409 0.382083 0.857411
O O7 0.522475 0.380940 0.000000
O O8 0.903205 0.275761 0.146239
O O9 0.819236 0.283916 0.000000
O O10 0.676733 0.672164 0.500000
#
# Coordination Sequence:
#
# PCOD9588396 Si02
#       4
#    24  24  24  24
#     4  10  21  37  55  74  97 130 171 215 265 323
#     4   9  16  26  42  68 104 142 176 214 261 313
#     4   9  16  26  42  68 106 148 184 218 261 315
#     4  10  19  31  49  76 108 139 175 223 274 320
#
# _framework density 26.020143000000001
#
# number of rings (size 3 to 8) (size 9 to 14) (size 15 to 20)
#    0.000    2.500    0.000    3.000    0.000    9.000 
#    0.000    0.000    0.000    1.500    0.000   29.750 
#    0.000    0.000    0.000    0.000    0.000    0.000 
#
# Total GULP energy -536242.688388 kJ/mol
# GULP energy per Si atom -5585.861337 kJ/mol
# Density = 2.596092 g / cm^3
# Si number density = 26.020143 Si / 1000 Ang^3
#
#
#
# Elastic Constant Matrix: (Units=GPa)
#
#
# Indices 1 2 3 4 5 6 
#
# 1 138.0517 52.2738 1.9876 0.0000 0.0000 0.0000
# 2 52.2738 138.0517 1.9876 0.0000 0.0000 0.0000
# 3 1.9876 1.9876 102.5726 0.0000 0.0000 0.0000
# 4 0.0000 0.0000 0.0000 22.7071 0.0000 0.0000
# 5 0.0000 0.0000 0.0000 0.0000 22.7071 0.0000
# 6 0.0000 0.0000 0.0000 0.0000 0.0000 42.8890
#
#
#
# Elastic Compliance Matrix: (Units=1/GPa)
#
#
# Indices 1 2 3 4 5 6 
#
# 1 0.008457 -0.003201 -0.000102 0.000000 0.000000 0.000000
# 2 -0.003201 0.008457 -0.000102 0.000000 0.000000 0.000000
# 3 -0.000102 -0.000102 0.009753 0.000000 0.000000 0.000000
# 4 0.000000 0.000000 0.000000 0.044039 0.000000 0.000000
# 5 0.000000 0.000000 0.000000 0.000000 0.044039 0.000000
# 6 0.000000 0.000000 0.000000 0.000000 0.000000 0.023316
#
#
# Mechanical properties :
#
#
# Convention : Reuss Voigt Hill
#
# Bulk Modulus (GPa) = 50.35676 54.57485 52.46580
# Shear Modulus (GPa) = 33.00547 39.15579 36.08063
#
# Velocity S-wave (km/s) = 3.56541 3.88342 3.72780
# Velocity P-wave (km/s) = 6.02864 6.41307 6.22383
#
# Compressibility (1/GPa) = 0.01985831
#
# Stress axis : x y z
#
# Youngs Moduli (GPa) = 118.24315 118.24315 102.53106
#
# Poissons Ratio (x) = 0.37848 0.01044
# Poissons Ratio (y) = 0.37848 0.01044
# Poissons Ratio (z) = 0.01204 0.01204
#
# Static dielectric constant tensor:
#      x y z
#    x 2.031120 0.000000 0.000000 
#    y 0.000000 2.031120 0.000000 
#    z 0.000000 0.000000 2.715530 
# 
# From -- ./inp_files/4715.got.cif
#   From: 2010.05.17/outbox.cif.g08.bks.cpg/sg192_3_cif.got.tgz:4715.got - 2010.05.20 12:28:01.
