data_PCOD9588453
_publ_section_title
;
Structure prediction by ZEFSAII (Michael W. Deem and Ramdas Pophale) SiO2 
 PCOD9588453
Probable space group: P 6/M C C
;
_chemical_formula_sum "Si O2"
_cell_formula_units_Z 84
_cell_length_a 18.220254
_cell_length_b 18.220254
_cell_length_c 14.586360
_cell_angle_alpha 90.000000
_cell_angle_beta 90.000000
_cell_angle_gamma 120.000000
_cell_volume 4193.594303
_symmetry_space_group_name_H-M "P 6/M C C"
_symmetry_group_IT_number 192
_symmetry_cell_setting 'hexagonal'
loop_
_space_group_symop_operation_xyz
x,y,z
x-y,x,z
-y,x-y,z
-x,-y,z
-x+y,-x,z
y,-x+y,z
x-y,-y,1/2-z
-x,-x+y,1/2-z
y,x,1/2-z
-y,-x,1/2-z
-x+y,y,1/2-z
x,x-y,1/2-z
-x,-y,-z
-x+y,-x,-z
y,-x+y,-z
x,y,-z
x-y,x,-z
-y,x-y,-z
-x+y,y,1/2+z
x,x-y,1/2+z
-y,-x,1/2+z
y,x,1/2+z
x-y,-y,1/2+z
-x,-x+y,1/2+z
loop_
_atom_site_type_symbol
_atom_site_label
_atom_site_fract_x
_atom_site_fract_y
_atom_site_fract_z
Si Si1 0.714228 0.040575 0.500000
Si Si2 0.858783 0.467067 0.500000
Si Si3 0.227249 0.720722 0.157466
Si Si4 0.445215 0.307726 0.000000
Si Si5 0.235141 0.912032 0.301704
O O1 0.655531 0.085918 0.500000
O O2 0.769689 0.069423 0.408442
O O3 0.649532 0.940158 0.500000
O O4 0.799554 0.442268 0.410242
O O5 0.900915 0.409065 0.500000
O O6 0.275113 0.724888 0.250000
O O7 0.141858 0.716542 0.196644
O O8 0.269300 0.802338 0.089282
O O9 0.147219 0.852781 0.250000
O O10 0.288414 0.000000 0.250000
#
# Coordination Sequence:
#
# PCOD9588453 Si02
#       5
#    12  12  24  12  24
#     4  10  19  34  57  83 114 155 187 244 308 327
#     4   9  20  33  50  81 110 146 199 251 289 344
#     4   9  19  36  54  76 110 151 194 242 294 339
#     4  11  20  35  57  80 116 149 198 243 283 358
#     4  10  20  35  58  87 114 144 189 234 283 351
#
# _framework density 20.030548
#
# number of rings (size 3 to 8) (size 9 to 14) (size 15 to 20)
#    0.000    2.286    0.000    4.714    0.000    2.286 
#    6.857    0.000    0.000    8.857    0.000    0.000 
#    0.000    4.571    0.000    0.000    0.000    0.000 
#
# Total GULP energy -468651.229484 kJ/mol
# GULP energy per Si atom -5579.181303 kJ/mol
# Density = 1.998496 g / cm^3
# Si number density = 20.030548 Si / 1000 Ang^3
#
#
#
# Elastic Constant Matrix: (Units=GPa)
#
#
# Indices 1 2 3 4 5 6 
#
# 1 77.9748 28.9731 44.9579 0.0000 0.0000 0.0000
# 2 28.9731 77.9748 44.9579 0.0000 0.0000 0.0000
# 3 44.9579 44.9579 189.2677 0.0000 0.0000 0.0000
# 4 0.0000 0.0000 0.0000 7.9062 0.0000 0.0000
# 5 0.0000 0.0000 0.0000 0.0000 7.9062 0.0000
# 6 0.0000 0.0000 0.0000 0.0000 0.0000 24.5009
#
#
#
# Elastic Compliance Matrix: (Units=1/GPa)
#
#
# Indices 1 2 3 4 5 6 
#
# 1 0.016046 -0.004362 -0.002775 0.000000 0.000000 0.000000
# 2 -0.004362 0.016046 -0.002775 0.000000 0.000000 0.000000
# 3 -0.002775 -0.002775 0.006602 0.000000 0.000000 0.000000
# 4 0.000000 0.000000 0.000000 0.126483 0.000000 0.000000
# 5 0.000000 0.000000 0.000000 0.000000 0.126483 0.000000
# 6 0.000000 0.000000 0.000000 0.000000 0.000000 0.040815
#
#
# Mechanical properties :
#
#
# Convention : Reuss Voigt Hill
#
# Bulk Modulus (GPa) = 52.99939 64.77721 58.88830
# Shear Modulus (GPa) = 13.94354 23.15122 18.54738
#
# Velocity S-wave (km/s) = 2.64126 3.40339 3.04625
# Velocity P-wave (km/s) = 5.98485 6.91762 6.46807
#
# Compressibility (1/GPa) = 0.01886814
#
# Stress axis : x y z
#
# Youngs Moduli (GPa) = 62.32260 62.32260 151.46966
#
# Poissons Ratio (x) = 0.27184 0.42037
# Poissons Ratio (y) = 0.27184 0.42037
# Poissons Ratio (z) = 0.17296 0.17296
#
# Static dielectric constant tensor:
#      x y z
#    x 1.707480 0.000000 0.000000 
#    y 0.000000 1.707480 0.000000 
#    z 0.000000 0.000000 1.767070 
# 
# From -- ./inp_files/2600.got.cif
#   From: 2010.05.17/outbox.cif.g08.bks.cpg/sg192_2_cif.got.tgz:2600.got - 2010.05.20 12:28:01.
