data_PCOD9588528
_publ_section_title
;
Structure prediction by ZEFSAII (Michael W. Deem and Ramdas Pophale) SiO2 
 PCOD9588528
Probable space group: P 6/M C C
;
_chemical_formula_sum "Si O2"
_cell_formula_units_Z 144
_cell_length_a 32.974610
_cell_length_b 32.974610
_cell_length_c 8.706905
_cell_angle_alpha 90.000000
_cell_angle_beta 90.000000
_cell_angle_gamma 120.000000
_cell_volume 8198.865710
_symmetry_space_group_name_H-M "P 6/M C C"
_symmetry_group_IT_number 192
_symmetry_cell_setting 'hexagonal'
loop_
_space_group_symop_operation_xyz
x,y,z
x-y,x,z
-y,x-y,z
-x,-y,z
-x+y,-x,z
y,-x+y,z
x-y,-y,1/2-z
-x,-x+y,1/2-z
y,x,1/2-z
-y,-x,1/2-z
-x+y,y,1/2-z
x,x-y,1/2-z
-x,-y,-z
-x+y,-x,-z
y,-x+y,-z
x,y,-z
x-y,x,-z
-y,x-y,-z
-x+y,y,1/2+z
x,x-y,1/2+z
-y,-x,1/2+z
y,x,1/2+z
x-y,-y,1/2+z
-x,-x+y,1/2+z
loop_
_atom_site_type_symbol
_atom_site_label
_atom_site_fract_x
_atom_site_fract_y
_atom_site_fract_z
Si Si1 0.228599 0.948819 0.817274
Si Si2 0.194070 0.717547 0.815966
Si Si3 0.380584 0.102146 0.816958
Si Si4 0.191688 0.051730 0.183938
Si Si5 0.439119 0.051188 0.816348
Si Si6 0.614740 0.141530 0.183139
O O1 0.246491 0.913407 0.772797
O O2 0.179128 0.935817 0.741570
O O3 0.265206 0.000000 0.750000
O O4 0.225370 0.952149 0.000000
O O5 0.242976 0.757025 0.750000
O O6 0.153661 0.730459 0.778772
O O7 0.176717 0.666660 0.745122
O O8 0.195506 0.714577 0.000000
O O9 0.400906 0.067383 0.783364
O O10 0.371556 0.099954 0.000000
O O11 0.180448 0.090224 0.250000
O O12 0.157301 0.000000 0.250000
O O13 0.190391 0.050901 0.000000
O O14 0.487431 0.090302 0.742429
O O15 0.421005 0.000000 0.750000
O O16 0.444656 0.051954 0.000000
O O17 0.576410 0.152820 0.250000
O O18 0.614229 0.141991 0.000000
#
# Coordination Sequence:
#
# PCOD9588528 Si02
#       6
#    24  24  24  24  24  24
#     4  11  21  33  51  76 108 147 189 230 271 315
#     4  10  21  38  59  83 110 141 178 220 269 323
#     4   9  19  34  51  74 108 147 187 229 269 313
#     4  11  22  39  60  83 110 141 178 220 269 322
#     4  10  20  34  52  77 109 146 188 230 272 318
#     4  11  22  38  59  82 109 141 178 221 270 323
#
# _framework density 17.563404999999999
#
# number of rings (size 3 to 8) (size 9 to 14) (size 15 to 20)
#    0.000    1.667    0.000    8.000    0.000    6.333 
#    0.000    3.333    0.000    0.500    0.000    3.500 
#    0.000    0.000    0.000    0.000    0.000    0.000 
#
# Total GULP energy -804781.565978 kJ/mol
# GULP energy per Si atom -5588.760875 kJ/mol
# Density = 1.752343 g / cm^3
# Si number density = 17.563405 Si / 1000 Ang^3
#
#
#
# Elastic Constant Matrix: (Units=GPa)
#
#
# Indices 1 2 3 4 5 6 
#
# 1 109.5396 97.5301 72.7921 0.0000 0.0000 0.0000
# 2 97.5301 109.5396 72.7921 0.0000 0.0000 0.0000
# 3 72.7921 72.7921 148.5533 0.0000 0.0000 0.0000
# 4 0.0000 0.0000 0.0000 28.8702 0.0000 0.0000
# 5 0.0000 0.0000 0.0000 0.0000 28.8702 0.0000
# 6 0.0000 0.0000 0.0000 0.0000 0.0000 6.0047
#
#
#
# Elastic Compliance Matrix: (Units=1/GPa)
#
#
# Indices 1 2 3 4 5 6 
#
# 1 0.045317 -0.037950 -0.003610 0.000000 0.000000 0.000000
# 2 -0.037950 0.045317 -0.003610 0.000000 0.000000 0.000000
# 3 -0.003610 -0.003610 0.010270 0.000000 0.000000 0.000000
# 4 0.000000 0.000000 0.000000 0.034638 0.000000 0.000000
# 5 0.000000 0.000000 0.000000 0.000000 0.034638 0.000000
# 6 0.000000 0.000000 0.000000 0.000000 0.000000 0.166535
#
#
# Mechanical properties :
#
#
# Convention : Reuss Voigt Hill
#
# Bulk Modulus (GPa) = 94.66085 94.87346 94.76716
# Shear Modulus (GPa) = 11.61232 21.05025 16.33129
#
# Velocity S-wave (km/s) = 2.57410 3.46573 3.05265
# Velocity P-wave (km/s) = 7.92769 8.37556 8.15470
#
# Compressibility (1/GPa) = 0.01056403
#
# Stress axis : x y z
#
# Youngs Moduli (GPa) = 22.06653 22.06653 97.37551
#
# Poissons Ratio (x) = 0.83743 0.35153
# Poissons Ratio (y) = 0.83743 0.35153
# Poissons Ratio (z) = 0.07966 0.07966
#
# Static dielectric constant tensor:
#      x y z
#    x 1.581610 0.000000 0.000000 
#    y 0.000000 1.581610 0.000000 
#    z 0.000000 0.000000 1.581650 
# 
# From -- ./inp_files/1135.got.cif
#   From: 2010.05.17/outbox.cif.g08.bks.cpg/sg192_1_cif.got.tgz:1135.got - 2010.05.20 12:28:01.
