data_PCOD9588657
_publ_section_title
;
Structure prediction by ZEFSAII (Michael W. Deem and Ramdas Pophale) SiO2 
 PCOD9588657
Probable space group: P 6/M C C
;
_chemical_formula_sum "Si O2"
_cell_formula_units_Z 132
_cell_length_a 23.619190
_cell_length_b 23.619190
_cell_length_c 14.368569
_cell_angle_alpha 90.000000
_cell_angle_beta 90.000000
_cell_angle_gamma 120.000000
_cell_volume 6941.832800
_symmetry_space_group_name_H-M "P 6/M C C"
_symmetry_group_IT_number 192
_symmetry_cell_setting 'hexagonal'
loop_
_space_group_symop_operation_xyz
x,y,z
x-y,x,z
-y,x-y,z
-x,-y,z
-x+y,-x,z
y,-x+y,z
x-y,-y,1/2-z
-x,-x+y,1/2-z
y,x,1/2-z
-y,-x,1/2-z
-x+y,y,1/2-z
x,x-y,1/2-z
-x,-y,-z
-x+y,-x,-z
y,-x+y,-z
x,y,-z
x-y,x,-z
-y,x-y,-z
-x+y,y,1/2+z
x,x-y,1/2+z
-y,-x,1/2+z
y,x,1/2+z
x-y,-y,1/2+z
-x,-x+y,1/2+z
loop_
_atom_site_type_symbol
_atom_site_label
_atom_site_fract_x
_atom_site_fract_y
_atom_site_fract_z
Si Si1 0.931909 0.627646 0.778262
Si Si2 0.862636 0.000000 0.750000
Si Si3 0.352669 0.833353 0.767736
Si Si4 0.058458 0.255131 0.108616
Si Si5 0.745995 0.242689 0.607294
Si Si6 0.348496 0.208316 0.393414
O O1 0.887362 0.552147 0.801072
O O2 0.947669 0.683974 0.853540
O O3 0.901356 0.646049 0.689944
O O4 0.000000 0.635640 0.750000
O O5 0.869437 0.934719 0.750000
O O6 0.811475 0.984886 0.665111
O O7 0.426588 0.853176 0.750000
O O8 0.315247 0.805092 0.670238
O O9 0.313285 0.777320 0.844500
O O10 0.136969 0.285440 0.120532
O O11 0.043111 0.244251 0.000000
O O12 0.730994 0.244027 0.500000
O O13 0.792814 0.209754 0.613395
O O14 0.346602 0.229786 0.500000
#
# Coordination Sequence:
#
# PCOD9588657 Si02
#       6
#    24  12  24  24  24  24
#     4  11  21  36  58  89 128 160 200 256 312 367
#     4  12  27  48  68  94 133 172 208 246 306 380
#     4  10  21  36  57  85 123 166 212 255 312 386
#     4  11  23  40  66  96 121 157 208 262 312 363
#     4   9  18  36  60  83 113 159 211 265 320 371
#     4   9  18  36  63  91 118 153 202 261 318 365
#
# _framework density 19.015150999999999
#
# number of rings (size 3 to 8) (size 9 to 14) (size 15 to 20)
#    0.000    1.818    2.727    1.727    0.000    2.545 
#    4.364    0.000    0.000    1.091    0.000    7.636 
#    0.000    0.000    0.000    0.000    0.000    0.000 
#
# Total GULP energy -735757.826671 kJ/mol
# GULP energy per Si atom -5573.922929 kJ/mol
# Density = 1.897187 g / cm^3
# Si number density = 19.015151 Si / 1000 Ang^3
#
#
#
# Elastic Constant Matrix: (Units=GPa)
#
#
# Indices 1 2 3 4 5 6 
#
# 1 94.1874 37.8170 32.9342 0.0000 0.0000 0.0000
# 2 37.8170 94.1874 32.9342 0.0000 0.0000 0.0000
# 3 32.9342 32.9342 112.7328 0.0000 0.0000 0.0000
# 4 0.0000 0.0000 0.0000 6.5032 0.0000 0.0000
# 5 0.0000 0.0000 0.0000 0.0000 6.5032 0.0000
# 6 0.0000 0.0000 0.0000 0.0000 0.0000 28.1852
#
#
#
# Elastic Compliance Matrix: (Units=1/GPa)
#
#
# Indices 1 2 3 4 5 6 
#
# 1 0.013304 -0.004436 -0.002591 0.000000 0.000000 0.000000
# 2 -0.004436 0.013304 -0.002591 0.000000 0.000000 0.000000
# 3 -0.002591 -0.002591 0.010384 0.000000 0.000000 0.000000
# 4 0.000000 0.000000 0.000000 0.153771 0.000000 0.000000
# 5 0.000000 0.000000 0.000000 0.000000 0.153771 0.000000
# 6 0.000000 0.000000 0.000000 0.000000 0.000000 0.035480
#
#
# Mechanical properties :
#
#
# Convention : Reuss Voigt Hill
#
# Bulk Modulus (GPa) = 56.31382 56.49758 56.40570
# Shear Modulus (GPa) = 12.34055 21.39979 16.87017
#
# Velocity S-wave (km/s) = 2.55028 3.35835 2.98182
# Velocity P-wave (km/s) = 6.19285 6.69435 6.44848
#
# Compressibility (1/GPa) = 0.01775763
#
# Stress axis : x y z
#
# Youngs Moduli (GPa) = 75.16510 75.16510 96.29915
#
# Poissons Ratio (x) = 0.33341 0.24949
# Poissons Ratio (y) = 0.33341 0.24949
# Poissons Ratio (z) = 0.19474 0.19474
#
# Static dielectric constant tensor:
#      x y z
#    x 1.694020 0.000000 0.000000 
#    y 0.000000 1.694020 0.000000 
#    z 0.000000 0.000000 1.660650 
# 
# From -- ./inp_files/3213.got.cif
#   From: 2010.05.17/outbox.cif.g08.bks.cpg/sg192_2_cif.got.tgz:3213.got - 2010.05.20 12:28:01.
