data_PCOD9588487
_publ_section_title
;
Structure prediction by ZEFSAII (Michael W. Deem and Ramdas Pophale) SiO2 
 PCOD9588487
Probable space group: P 6/M C C
;
_chemical_formula_sum "Si O2"
_cell_formula_units_Z 144
_cell_length_a 32.868418
_cell_length_b 32.868418
_cell_length_c 8.797416
_cell_angle_alpha 90.000000
_cell_angle_beta 90.000000
_cell_angle_gamma 120.000000
_cell_volume 8230.824911
_symmetry_space_group_name_H-M "P 6/M C C"
_symmetry_group_IT_number 192
_symmetry_cell_setting 'hexagonal'
loop_
_space_group_symop_operation_xyz
x,y,z
x-y,x,z
-y,x-y,z
-x,-y,z
-x+y,-x,z
y,-x+y,z
x-y,-y,1/2-z
-x,-x+y,1/2-z
y,x,1/2-z
-y,-x,1/2-z
-x+y,y,1/2-z
x,x-y,1/2-z
-x,-y,-z
-x+y,-x,-z
y,-x+y,-z
x,y,-z
x-y,x,-z
-y,x-y,-z
-x+y,y,1/2+z
x,x-y,1/2+z
-y,-x,1/2+z
y,x,1/2+z
x-y,-y,1/2+z
-x,-x+y,1/2+z
loop_
_atom_site_type_symbol
_atom_site_label
_atom_site_fract_x
_atom_site_fract_y
_atom_site_fract_z
Si Si1 0.106081 0.299606 0.319164
Si Si2 0.050434 0.442473 0.182967
Si Si3 0.903391 0.619201 0.819267
Si Si4 0.860834 0.051380 0.317627
Si Si5 0.615539 0.143620 0.317972
Si Si6 0.192981 0.475318 0.817794
O O1 0.156881 0.313762 0.250000
O O2 0.110421 0.302023 0.500000
O O3 0.088435 0.334297 0.262856
O O4 0.071374 0.245369 0.275325
O O5 0.062686 0.401431 0.221330
O O6 0.092247 0.489769 0.254669
O O7 0.000000 0.428229 0.250000
O O8 0.051538 0.447029 0.000000
O O9 0.850738 0.576836 0.785341
O O10 0.906848 0.627266 0.000000
O O11 0.911173 0.088828 0.250000
O O12 0.863264 0.050548 0.500000
O O13 0.840922 0.000000 0.250000
O O14 0.578050 0.156100 0.250000
O O15 0.614465 0.143047 0.500000
O O16 0.667812 0.178653 0.257199
O O17 0.240239 0.480477 0.750000
O O18 0.195933 0.481237 0.000000
#
# Coordination Sequence:
#
# PCOD9588487 Si02
#       6
#    24  24  24  24  24  24
#     4  10  20  32  49  73 103 138 177 216 257 304
#     4  10  21  37  54  76 105 140 182 227 272 320
#     4   9  19  33  50  73 106 143 180 221 263 308
#     4  10  21  37  56  79 105 136 172 213 257 306
#     4  11  22  38  59  82 108 140 177 222 271 323
#     4  10  20  35  55  82 111 142 179 220 267 320
#
# _framework density 17.495208999999999
#
# number of rings (size 3 to 8) (size 9 to 14) (size 15 to 20)
#    0.000    2.000    0.000    5.000    0.000    8.333 
#    0.000    5.000    0.000    0.500    0.000    3.500 
#    0.000    0.000    0.000    0.000    0.000    0.000 
#
# Total GULP energy -804331.157555 kJ/mol
# GULP energy per Si atom -5585.633039 kJ/mol
# Density = 1.745539 g / cm^3
# Si number density = 17.495209 Si / 1000 Ang^3
#
#
#
# Elastic Constant Matrix: (Units=GPa)
#
#
# Indices 1 2 3 4 5 6 
#
# 1 67.4974 45.7875 40.7052 0.0000 0.0000 0.0000
# 2 45.7875 67.4974 40.7052 0.0000 0.0000 0.0000
# 3 40.7052 40.7052 78.9560 0.0000 0.0000 0.0000
# 4 0.0000 0.0000 0.0000 28.9915 0.0000 0.0000
# 5 0.0000 0.0000 0.0000 0.0000 28.9915 0.0000
# 6 0.0000 0.0000 0.0000 0.0000 0.0000 10.8549
#
#
#
# Elastic Compliance Matrix: (Units=1/GPa)
#
#
# Indices 1 2 3 4 5 6 
#
# 1 0.030042 -0.016020 -0.007229 0.000000 0.000000 0.000000
# 2 -0.016020 0.030042 -0.007229 0.000000 0.000000 0.000000
# 3 -0.007229 -0.007229 0.020119 0.000000 0.000000 0.000000
# 4 0.000000 0.000000 0.000000 0.034493 0.000000 0.000000
# 5 0.000000 0.000000 0.000000 0.000000 0.034493 0.000000
# 6 0.000000 0.000000 0.000000 0.000000 0.000000 0.092124
#
#
# Mechanical properties :
#
#
# Convention : Reuss Voigt Hill
#
# Bulk Modulus (GPa) = 51.95515 52.03852 51.99683
# Shear Modulus (GPa) = 16.19772 19.55110 17.87441
#
# Velocity S-wave (km/s) = 3.04606 3.34655 3.19983
# Velocity P-wave (km/s) = 6.49096 6.68891 6.59068
#
# Compressibility (1/GPa) = 0.01924737
#
# Stress axis : x y z
#
# Youngs Moduli (GPa) = 33.28650 33.28650 49.70384
#
# Poissons Ratio (x) = 0.53324 0.35932
# Poissons Ratio (y) = 0.53324 0.35932
# Poissons Ratio (z) = 0.24063 0.24063
#
# Static dielectric constant tensor:
#      x y z
#    x 1.580140 0.000000 0.000000 
#    y 0.000000 1.580140 0.000000 
#    z 0.000000 0.000000 1.581130 
# 
# From -- ./inp_files/1167.got.cif
#   From: 2010.05.17/outbox.cif.g08.bks.cpg/sg192_1_cif.got.tgz:1167.got - 2010.05.20 12:28:01.
