data_PCOD9588890
_publ_section_title
;
Structure prediction by ZEFSAII (Michael W. Deem and Ramdas Pophale) SiO2 
 PCOD9588890
Probable space group: P 63/M C M
;
_chemical_formula_sum "Si O2"
_cell_formula_units_Z 144
_cell_length_a 21.483565
_cell_length_b 21.483565
_cell_length_c 21.263863
_cell_angle_alpha 90.000000
_cell_angle_beta 90.000000
_cell_angle_gamma 120.000000
_cell_volume 8499.345770
_symmetry_space_group_name_H-M "P 63/M C M"
_symmetry_group_IT_number 193
_symmetry_cell_setting 'hexagonal'
loop_
_space_group_symop_operation_xyz
x,y,z
x-y,x,1/2+z
-y,x-y,z
-x,-y,1/2+z
-x+y,-x,z
y,-x+y,1/2+z
x-y,-y,1/2-z
-x,-x+y,1/2-z
y,x,1/2-z
-y,-x,-z
-x+y,y,-z
x,x-y,-z
-x,-y,-z
-x+y,-x,1/2-z
y,-x+y,-z
x,y,1/2-z
x-y,x,-z
-y,x-y,1/2-z
-x+y,y,1/2+z
x,x-y,1/2+z
-y,-x,1/2+z
y,x,z
x-y,-y,z
-x,-x+y,z
loop_
_atom_site_type_symbol
_atom_site_label
_atom_site_fract_x
_atom_site_fract_y
_atom_site_fract_z
Si Si1 0.233180 0.080568 0.060590
Si Si2 0.915863 0.594360 0.131557
Si Si3 0.878028 0.265565 0.007790
Si Si4 0.913878 0.327768 0.361194
Si Si5 0.838741 0.677282 0.821593
Si Si6 0.547451 0.083198 0.176234
O O1 0.304823 0.086061 0.029899
O O2 0.263473 0.131825 0.121915
O O3 0.180434 0.000000 0.081978
O O4 0.201768 0.100884 0.000000
O O5 0.873575 0.627195 0.167897
O O6 0.885853 0.510061 0.143548
O O7 0.000000 0.637736 0.150179
O O8 0.908514 0.606069 0.058106
O O9 0.895250 0.319532 0.064899
O O10 0.793799 0.206202 0.000000
O O11 0.876219 0.247494 0.333033
O O12 0.887500 0.380258 0.333819
O O13 0.000000 0.364338 0.351617
O O14 0.853628 0.705327 0.750000
O O15 0.560861 0.083524 0.250000
O O16 0.501392 0.000000 0.154352
#
# Coordination Sequence:
#
# PCOD9588890 Si02
#       6
#    24  24  24  24  24  24
#     4  10  19  33  52  76 105 141 177 215 264 315
#     4  11  20  33  52  76 109 139 170 210 260 322
#     4  10  17  31  51  77 104 133 171 214 260 307
#     4  10  19  33  53  75 100 133 175 216 257 304
#     4  11  21  32  51  79 107 140 176 216 266 314
#     4   9  19  33  48  70 101 135 167 208 259 306
#
# _framework density 16.94248
#
# number of rings (size 3 to 8) (size 9 to 14) (size 15 to 20)
#    0.000    1.833    5.000    4.000    0.000    3.667 
#    0.000    2.500    0.000    0.833    0.000    2.333 
#    0.000    0.000    0.000    0.000    0.000    0.000 
#
# Total GULP energy -802008.891523 kJ/mol
# GULP energy per Si atom -5569.506191 kJ/mol
# Density = 1.690392 g / cm^3
# Si number density = 16.942480 Si / 1000 Ang^3
#
#
#
# Elastic Constant Matrix: (Units=GPa)
#
#
# Indices 1 2 3 4 5 6 
#
# 1 52.3624 15.4765 8.4791 0.0000 0.0000 0.0000
# 2 15.4765 52.3624 8.4791 0.0000 0.0000 0.0000
# 3 8.4791 8.4791 81.5152 0.0000 0.0000 0.0000
# 4 0.0000 0.0000 0.0000 16.6187 0.0000 0.0000
# 5 0.0000 0.0000 0.0000 0.0000 16.6187 0.0000
# 6 0.0000 0.0000 0.0000 0.0000 0.0000 18.4429
#
#
#
# Elastic Compliance Matrix: (Units=1/GPa)
#
#
# Indices 1 2 3 4 5 6 
#
# 1 0.021122 -0.005988 -0.001574 0.000000 0.000000 0.000000
# 2 -0.005988 0.021122 -0.001574 0.000000 0.000000 0.000000
# 3 -0.001574 -0.001574 0.012595 0.000000 0.000000 0.000000
# 4 0.000000 0.000000 0.000000 0.060173 0.000000 0.000000
# 5 0.000000 0.000000 0.000000 0.000000 0.060173 0.000000
# 6 0.000000 0.000000 0.000000 0.000000 0.000000 0.054221
#
#
# Mechanical properties :
#
#
# Convention : Reuss Voigt Hill
#
# Bulk Modulus (GPa) = 27.34721 27.90104 27.62413
# Shear Modulus (GPa) = 19.24039 20.58976 19.91507
#
# Velocity S-wave (km/s) = 3.37357 3.48986 3.43221
# Velocity P-wave (km/s) = 5.59918 5.72212 5.66099
#
# Compressibility (1/GPa) = 0.03656680
#
# Stress axis : x y z
#
# Youngs Moduli (GPa) = 47.34293 47.34293 79.39560
#
# Poissons Ratio (x) = 0.28350 0.12499
# Poissons Ratio (y) = 0.28350 0.12499
# Poissons Ratio (z) = 0.07453 0.07453
#
# Static dielectric constant tensor:
#      x y z
#    x 1.593550 0.000000 0.000000 
#    y 0.000000 1.593550 0.000000 
#    z 0.000000 0.000000 1.601740 
# 
# From -- ./inp_files/6616.got.cif
#   From: 2010.05.17/outbox.cif.g08.bks.cpg/sg193_4_cif.got.tgz:6616.got - 2010.05.20 12:33:02.
