data_PCOD9588343
_publ_section_title
;
Structure prediction by ZEFSAII (Michael W. Deem and Ramdas Pophale) SiO2 
 PCOD9588343
Probable space group: P 6/M C C
;
_chemical_formula_sum "Si O2"
_cell_formula_units_Z 192
_cell_length_a 24.972742
_cell_length_b 24.972742
_cell_length_c 15.469184
_cell_angle_alpha 90.000000
_cell_angle_beta 90.000000
_cell_angle_gamma 120.000000
_cell_volume 8354.693033
_symmetry_space_group_name_H-M "P 6/M C C"
_symmetry_group_IT_number 192
_symmetry_cell_setting 'hexagonal'
loop_
_space_group_symop_operation_xyz
x,y,z
x-y,x,z
-y,x-y,z
-x,-y,z
-x+y,-x,z
y,-x+y,z
x-y,-y,1/2-z
-x,-x+y,1/2-z
y,x,1/2-z
-y,-x,1/2-z
-x+y,y,1/2-z
x,x-y,1/2-z
-x,-y,-z
-x+y,-x,-z
y,-x+y,-z
x,y,-z
x-y,x,-z
-y,x-y,-z
-x+y,y,1/2+z
x,x-y,1/2+z
-y,-x,1/2+z
y,x,1/2+z
x-y,-y,1/2+z
-x,-x+y,1/2+z
loop_
_atom_site_type_symbol
_atom_site_label
_atom_site_fract_x
_atom_site_fract_y
_atom_site_fract_z
Si Si1 0.218831 0.758947 0.104810
Si Si2 0.192516 0.256733 0.900849
Si Si3 0.489547 0.871733 0.894796
Si Si4 0.999067 0.876385 0.354288
Si Si5 0.992711 0.315527 0.660026
Si Si6 0.359807 0.849952 0.894857
Si Si7 0.129297 0.802845 0.603376
Si Si8 0.430377 0.421587 0.903253
O O1 0.171180 0.688948 0.135714
O O2 0.291221 0.797461 0.134841
O O3 0.193735 0.805937 0.123558
O O4 0.220741 0.754283 0.000000
O O5 0.175001 0.186221 0.895243
O O6 0.251517 0.294588 0.842710
O O7 0.137572 0.268489 0.872623
O O8 0.207453 0.277960 0.000000
O O9 0.416614 0.838856 0.874438
O O10 0.522897 0.944337 0.865520
O O11 0.495649 0.875857 0.000000
O O12 0.938619 0.879435 0.379858
O O13 0.000000 0.871125 0.250000
O O14 0.926804 0.255644 0.646605
O O15 0.006011 0.366238 0.590067
O O16 0.000000 0.348893 0.750000
O O17 0.386347 0.921370 0.864487
O O18 0.354228 0.851116 0.000000
O O19 0.118733 0.793521 0.500000
O O20 0.456095 0.439114 0.000000
#
# Coordination Sequence:
#
# PCOD9588343 Si02
#       8
#    24  24  24  24  24  24  24  24
#     4   9  16  29  48  75 113 148 183 228 283 342
#     4  11  23  38  58  82 108 143 188 236 284 342
#     4   9  17  28  48  80 108 139 187 237 280 332
#     4  10  21  38  58  79 106 142 184 231 286 344
#     4  12  24  36  54  81 114 146 185 228 287 348
#     4   9  16  28  49  77 109 147 187 232 284 336
#     4  10  20  37  59  81 111 151 188 232 287 342
#     4  10  18  33  55  77 107 144 190 235 277 332
#
# _framework density 22.981095
#
# number of rings (size 3 to 8) (size 9 to 14) (size 15 to 20)
#    0.000    2.000    1.250    3.500    0.000    7.000 
#    0.750    0.000    0.000    2.250    0.000    0.000 
#    0.000    0.000    0.000    2.750    0.000    2.750 
#
# Total GULP energy -1071604.366354 kJ/mol
# GULP energy per Si atom -5581.272741 kJ/mol
# Density = 2.292879 g / cm^3
# Si number density = 22.981095 Si / 1000 Ang^3
#
#
#
# Elastic Constant Matrix: (Units=GPa)
#
#
# Indices 1 2 3 4 5 6 
#
# 1 92.3148 10.9632 0.6432 0.0000 0.0000 0.0000
# 2 10.9632 92.3148 0.6432 0.0000 0.0000 0.0000
# 3 0.6432 0.6432 34.7647 0.0000 0.0000 0.0000
# 4 0.0000 0.0000 0.0000 -457.8995 0.0000 0.0000
# 5 0.0000 0.0000 0.0000 0.0000 -457.8995 0.0000
# 6 0.0000 0.0000 0.0000 0.0000 0.0000 40.6758
#
#
#
# Elastic Compliance Matrix: (Units=1/GPa)
#
#
# Indices 1 2 3 4 5 6 
#
# 1 0.010989 -0.001304 -0.000179 0.000000 0.000000 0.000000
# 2 -0.001304 0.010989 -0.000179 0.000000 0.000000 0.000000
# 3 -0.000179 -0.000179 0.028771 0.000000 0.000000 0.000000
# 4 0.000000 0.000000 0.000000 -0.002184 0.000000 0.000000
# 5 0.000000 0.000000 0.000000 0.000000 -0.002184 0.000000
# 6 0.000000 0.000000 0.000000 0.000000 0.000000 0.024585
#
#
# Mechanical properties :
#
#
# Convention : Reuss Voigt Hill
#
# Bulk Modulus (GPa) = 21.08623 27.09930 24.09277
# Shear Modulus (GPa) = 55.49526 -161.21500 -52.85987
#
# Velocity S-wave (km/s) = 4.91942 -8.38471 -4.80119
# Velocity P-wave (km/s) = 6.43917 9.05098 4.49763
#
# Compressibility (1/GPa) = 0.04742431
#
# Stress axis : x y z
#
# Youngs Moduli (GPa) = 91.00363 91.00363 34.75671
#
# Poissons Ratio (x) = 0.11864 0.00623
# Poissons Ratio (y) = 0.11864 0.00623
# Poissons Ratio (z) = 0.01631 0.01631
#
# Static dielectric constant tensor:
#      x y z
#    x 1.846570 0.000000 0.000000 
#    y 0.000000 1.846570 0.000000 
#    z 0.000000 0.000000 1.930470 
# 
# From -- ./inp_files/5439.got.cif
#   From: 2010.05.17/outbox.cif.g08.bks.cpg/sg192_3_cif.got.tgz:5439.got - 2010.05.20 12:28:01.
