data_PCOD9588514
_publ_section_title
;
Structure prediction by ZEFSAII (Michael W. Deem and Ramdas Pophale) SiO2 
 PCOD9588514
Probable space group: P 6/M C C
;
_chemical_formula_sum "Si O2"
_cell_formula_units_Z 132
_cell_length_a 18.733076
_cell_length_b 18.733076
_cell_length_c 23.387525
_cell_angle_alpha 90.000000
_cell_angle_beta 90.000000
_cell_angle_gamma 120.000000
_cell_volume 7107.765426
_symmetry_space_group_name_H-M "P 6/M C C"
_symmetry_group_IT_number 192
_symmetry_cell_setting 'hexagonal'
loop_
_space_group_symop_operation_xyz
x,y,z
x-y,x,z
-y,x-y,z
-x,-y,z
-x+y,-x,z
y,-x+y,z
x-y,-y,1/2-z
-x,-x+y,1/2-z
y,x,1/2-z
-y,-x,1/2-z
-x+y,y,1/2-z
x,x-y,1/2-z
-x,-y,-z
-x+y,-x,-z
y,-x+y,-z
x,y,-z
x-y,x,-z
-y,x-y,-z
-x+y,y,1/2+z
x,x-y,1/2+z
-y,-x,1/2+z
y,x,1/2+z
x-y,-y,1/2+z
-x,-x+y,1/2+z
loop_
_atom_site_type_symbol
_atom_site_label
_atom_site_fract_x
_atom_site_fract_y
_atom_site_fract_z
Si Si1 0.256361 0.886632 0.221466
Si Si2 0.136244 0.574135 0.000000
Si Si3 0.384120 0.337031 0.331441
Si Si4 0.519827 0.768732 0.500000
Si Si5 0.500000 0.000000 0.900781
Si Si6 0.625574 0.810868 0.110705
Si Si7 0.193171 0.115615 0.068626
O O1 0.164651 0.835350 0.250000
O O2 0.319521 0.899902 0.272741
O O3 0.245714 0.831551 0.166398
O O4 0.295510 0.975976 0.191804
O O5 0.207488 0.550693 0.000000
O O6 0.181663 0.672560 0.000000
O O7 0.078134 0.536132 0.944005
O O8 0.435681 0.426045 0.360032
O O9 0.375238 0.270146 0.377344
O O10 0.575147 0.808779 0.444650
O O11 0.720288 0.836138 0.101190
O O12 0.132017 0.150340 0.081461
O O13 0.209556 0.125205 0.000000
#
# Coordination Sequence:
#
# PCOD9588514 Si02
#       7
#    24  12  24  12  12  24  24
#     4   9  20  35  56  87 117 158 199 260 317 375
#     4  11  25  40  63  94 134 170 214 265 336 405
#     4  10  20  37  60  87 122 158 210 268 320 381
#     4  12  23  42  61  90 125 169 210 269 330 411
#     4  11  22  41  62  98 124 166 212 274 332 393
#     4  11  20  37  59  88 121 163 217 262 316 389
#     4  10  20  33  51  82 121 166 203 245 300 366
#
# _framework density 18.571237
#
# number of rings (size 3 to 8) (size 9 to 14) (size 15 to 20)
#    0.000    1.636    2.727    2.545    0.000    2.182 
#    0.000    0.000    0.000    0.000    0.000    0.000 
#    0.000   16.000    0.000    0.000    0.000    0.000 
#
# Total GULP energy -734940.733851 kJ/mol
# GULP energy per Si atom -5567.732832 kJ/mol
# Density = 1.852897 g / cm^3
# Si number density = 18.571237 Si / 1000 Ang^3
#
#
#
# Elastic Constant Matrix: (Units=GPa)
#
#
# Indices 1 2 3 4 5 6 
#
# 1 77.6005 24.4481 40.9159 0.0000 0.0000 0.0000
# 2 24.4481 77.6005 40.9159 0.0000 0.0000 0.0000
# 3 40.9159 40.9159 106.3092 0.0000 0.0000 0.0000
# 4 0.0000 0.0000 0.0000 19.3428 0.0000 0.0000
# 5 0.0000 0.0000 0.0000 0.0000 19.3428 0.0000
# 6 0.0000 0.0000 0.0000 0.0000 0.0000 26.5762
#
#
#
# Elastic Compliance Matrix: (Units=1/GPa)
#
#
# Indices 1 2 3 4 5 6 
#
# 1 0.016494 -0.002320 -0.005455 0.000000 0.000000 0.000000
# 2 -0.002320 0.016494 -0.005455 0.000000 0.000000 0.000000
# 3 -0.005455 -0.005455 0.013606 0.000000 0.000000 0.000000
# 4 0.000000 0.000000 0.000000 0.051699 0.000000 0.000000
# 5 0.000000 0.000000 0.000000 0.000000 0.051699 0.000000
# 6 0.000000 0.000000 0.000000 0.000000 0.000000 0.037628
#
#
# Mechanical properties :
#
#
# Convention : Reuss Voigt Hill
#
# Bulk Modulus (GPa) = 49.67096 52.67444 51.17270
# Shear Modulus (GPa) = 22.64595 23.40102 23.02348
#
# Velocity S-wave (km/s) = 3.49579 3.55359 3.52481
# Velocity P-wave (km/s) = 6.56493 6.72773 6.64683
#
# Compressibility (1/GPa) = 0.02013249
#
# Stress axis : x y z
#
# Youngs Moduli (GPa) = 60.62907 60.62907 73.49913
#
# Poissons Ratio (x) = 0.14067 0.40095
# Poissons Ratio (y) = 0.14067 0.40095
# Poissons Ratio (z) = 0.33074 0.33074
#
# Static dielectric constant tensor:
#      x y z
#    x 1.654310 0.000000 0.000000 
#    y 0.000000 1.654310 0.000000 
#    z 0.000000 0.000000 1.668420 
# 
# From -- ./inp_files/5851.got.cif
#   From: 2010.05.17/outbox.cif.g08.bks.cpg/sg192_3_cif.got.tgz:5851.got - 2010.05.20 12:28:01.
