data_PCOD9588787
_publ_section_title
;
Structure prediction by ZEFSAII (Michael W. Deem and Ramdas Pophale) SiO2 
 PCOD9588787
Probable space group: P 6/M C C
;
_chemical_formula_sum "Si O2"
_cell_formula_units_Z 144
_cell_length_a 22.782262
_cell_length_b 22.782262
_cell_length_c 14.750941
_cell_angle_alpha 90.000000
_cell_angle_beta 90.000000
_cell_angle_gamma 120.000000
_cell_volume 6630.465836
_symmetry_space_group_name_H-M "P 6/M C C"
_symmetry_group_IT_number 192
_symmetry_cell_setting 'hexagonal'
loop_
_space_group_symop_operation_xyz
x,y,z
x-y,x,z
-y,x-y,z
-x,-y,z
-x+y,-x,z
y,-x+y,z
x-y,-y,1/2-z
-x,-x+y,1/2-z
y,x,1/2-z
-y,-x,1/2-z
-x+y,y,1/2-z
x,x-y,1/2-z
-x,-y,-z
-x+y,-x,-z
y,-x+y,-z
x,y,-z
x-y,x,-z
-y,x-y,-z
-x+y,y,1/2+z
x,x-y,1/2+z
-y,-x,1/2+z
y,x,1/2+z
x-y,-y,1/2+z
-x,-x+y,1/2+z
loop_
_atom_site_type_symbol
_atom_site_label
_atom_site_fract_x
_atom_site_fract_y
_atom_site_fract_z
Si Si1 0.744163 0.727340 0.854236
Si Si2 0.635028 0.452308 0.610958
Si Si3 0.600626 0.690753 0.892938
Si Si4 0.993414 0.860818 0.139240
Si Si5 0.792006 0.166991 0.390611
Si Si6 0.217397 0.694114 0.889520
O O1 0.737094 0.737094 0.750000
O O2 0.666184 0.682362 0.885570
O O3 0.791051 0.802491 0.893675
O O4 0.785273 0.688369 0.865056
O O5 0.631303 0.449841 0.500000
O O6 0.641645 0.523841 0.641283
O O7 0.572370 0.381752 0.643544
O O8 0.705325 0.454594 0.635544
O O9 0.624618 0.766169 0.855866
O O10 0.590509 0.693222 0.000000
O O11 0.927527 0.864580 0.111392
O O12 0.000000 0.862944 0.250000
O O13 0.793480 0.169723 0.500000
O O14 0.727122 0.172547 0.360671
O O15 0.217022 0.692347 0.000000
#
# Coordination Sequence:
#
# PCOD9588787 Si02
#       6
#    24  24  24  24  24  24
#     4  11  21  32  48  69  94 127 164 195 224 270
#     4   8  13  23  43  71  98 121 149 191 242 290
#     4   9  18  32  49  70  96 124 155 193 237 284
#     4   9  17  29  46  68  91 112 138 179 230 276
#     4   9  18  32  49  70  96 124 155 193 237 284
#     4   8  13  23  43  71  98 121 149 191 242 290
#
# _framework density 21.717929999999999
#
# number of rings (size 3 to 8) (size 9 to 14) (size 15 to 20)
#    0.000    3.000    0.000    4.000    0.000    4.000 
#    0.000    0.833    0.000    6.000    0.000    0.000 
#    0.000   10.667    0.000    0.000    0.000    0.000 
#
# Total GULP energy -803088.277524 kJ/mol
# GULP energy per Si atom -5577.001927 kJ/mol
# Density = 2.166850 g / cm^3
# Si number density = 21.717930 Si / 1000 Ang^3
#
#
#
# Elastic Constant Matrix: (Units=GPa)
#
#
# Indices 1 2 3 4 5 6 
#
# 1 40.1998 -16.5547 -2.7017 0.0000 0.0000 0.0000
# 2 -16.5547 40.1998 -2.7017 0.0000 0.0000 0.0000
# 3 -2.7017 -2.7017 42.1098 0.0000 0.0000 0.0000
# 4 0.0000 0.0000 0.0000 16.6110 0.0000 0.0000
# 5 0.0000 0.0000 0.0000 0.0000 16.6110 0.0000
# 6 0.0000 0.0000 0.0000 0.0000 0.0000 28.3772
#
#
#
# Elastic Compliance Matrix: (Units=1/GPa)
#
#
# Indices 1 2 3 4 5 6 
#
# 1 0.030271 0.012651 0.002754 0.000000 0.000000 0.000000
# 2 0.012651 0.030271 0.002754 0.000000 0.000000 0.000000
# 3 0.002754 0.002754 0.024101 0.000000 0.000000 0.000000
# 4 0.000000 0.000000 0.000000 0.060201 0.000000 0.000000
# 5 0.000000 0.000000 0.000000 0.000000 0.060201 0.000000
# 6 0.000000 0.000000 0.000000 0.000000 0.000000 0.035240
#
#
# Mechanical properties :
#
#
# Convention : Reuss Voigt Hill
#
# Bulk Modulus (GPa) = 8.26730 8.73258 8.49994
# Shear Modulus (GPa) = 20.46777 21.95101 21.20939
#
# Velocity S-wave (km/s) = 3.07324 3.18265 3.12842
# Velocity P-wave (km/s) = 4.05068 4.18752 4.11967
#
# Compressibility (1/GPa) = 0.12095855
#
# Stress axis : x y z
#
# Youngs Moduli (GPa) = 33.03538 33.03538 41.49241
#
# Poissons Ratio (x) = -0.41792 -0.11426
# Poissons Ratio (y) = -0.41792 -0.11426
# Poissons Ratio (z) = -0.09097 -0.09097
#
# Static dielectric constant tensor:
#      x y z
#    x 1.818680 0.000000 0.000000 
#    y 0.000000 1.818680 0.000000 
#    z 0.000000 0.000000 1.863280 
# 
# From -- ./inp_files/5136.got.cif
#   From: 2010.05.17/outbox.cif.g08.bks.cpg/sg192_3_cif.got.tgz:5136.got - 2010.05.20 12:28:01.
