data_PCOD9588245
_publ_section_title
;
Structure prediction by ZEFSAII (Michael W. Deem and Ramdas Pophale) SiO2 
 PCOD9588245
Probable space group: P 6/M M M
;
_chemical_formula_sum "Si O2"
_cell_formula_units_Z 168
_cell_length_a 19.515741
_cell_length_b 19.515741
_cell_length_c 30.547556
_cell_angle_alpha 90.000000
_cell_angle_beta 90.000000
_cell_angle_gamma 120.000000
_cell_volume 10075.745585
_symmetry_space_group_name_H-M "P 6/M M M"
_symmetry_group_IT_number 191
_symmetry_cell_setting 'hexagonal'
loop_
_space_group_symop_operation_xyz
x,y,z
x-y,x,z
-y,x-y,z
-x,-y,z
-x+y,-x,z
y,-x+y,z
x-y,-y,-z
-x,-x+y,-z
y,x,-z
-y,-x,-z
-x+y,y,-z
x,x-y,-z
-x,-y,-z
-x+y,-x,-z
y,-x+y,-z
x,y,-z
x-y,x,-z
-y,x-y,-z
-x+y,y,z
x,x-y,z
-y,-x,z
y,x,z
x-y,-y,z
-x,-x+y,z
loop_
_atom_site_type_symbol
_atom_site_label
_atom_site_fract_x
_atom_site_fract_y
_atom_site_fract_z
Si Si1 0.757759 0.087795 0.552031
Si Si2 0.376215 0.470689 0.859376
Si Si3 0.911074 0.245288 0.704501
Si Si4 0.495245 0.829173 0.951744
Si Si5 0.511362 0.177048 0.570163
Si Si6 0.909395 0.242498 0.810048
Si Si7 0.511228 0.334336 0.675810
O O1 0.769266 0.084420 0.500000
O O2 0.840008 0.159993 0.570362
O O3 0.691975 0.114139 0.557208
O O4 0.725696 0.000000 0.570431
O O5 0.437065 0.562936 0.848736
O O6 0.426785 0.426785 0.855840
O O7 0.348476 0.465715 0.909468
O O8 0.301540 0.420912 0.828325
O O9 0.840816 0.159185 0.689450
O O10 0.910317 0.244569 0.757357
O O11 0.886276 0.309106 0.689896
O O12 0.000000 0.272634 0.689819
O O13 0.404199 0.808397 0.950828
O O14 0.499750 0.749875 0.948019
O O15 0.526766 0.865208 0.000000
O O16 0.581092 0.162183 0.554544
O O17 0.526175 0.263088 0.555809
O O18 0.513379 0.177809 0.623015
O O19 0.846190 0.153811 0.824062
O O20 0.000000 0.275896 0.824763
O O21 0.526045 0.263023 0.690053
O O22 0.581031 0.418970 0.691643
#
# Coordination Sequence:
#
# PCOD9588245 Si02
#       7
#    24  24  24  24  24  24  24
#     4   9  18  32  48  65  86 113 144 178 218 262
#     4   9  17  27  39  57  80 106 135 165 198 239
#     4   9  18  31  46  64  85 110 139 172 211 253
#     4   9  16  25  37  52  71  97 130 167 203 236
#     4   9  17  29  45  65  90 120 151 180 209 243
#     4   9  17  30  47  64  83 108 138 171 208 252
#     4   9  17  29  45  65  90 119 149 179 210 244
#
# _framework density 16.673705000000002
#
# number of rings (size 3 to 8) (size 9 to 14) (size 15 to 20)
#    0.000    3.000    0.000    0.857    0.000    4.000 
#    0.000    5.000    0.000    1.571    0.000    3.000 
#    0.000    0.000    0.000    7.143    0.000    7.429 
#
# Total GULP energy -935329.373922 kJ/mol
# GULP energy per Si atom -5567.436750 kJ/mol
# Density = 1.663575 g / cm^3
# Si number density = 16.673705 Si / 1000 Ang^3
#
#
#
# Elastic Constant Matrix: (Units=GPa)
#
#
# Indices 1 2 3 4 5 6 
#
# 1 89.7097 67.8430 11.6783 0.0000 0.0000 0.0000
# 2 67.8430 89.7097 11.6783 0.0000 0.0000 0.0000
# 3 11.6783 11.6783 13.7230 0.0000 0.0000 0.0000
# 4 0.0000 0.0000 0.0000 8.9436 0.0000 0.0000
# 5 0.0000 0.0000 0.0000 0.0000 8.9436 0.0000
# 6 0.0000 0.0000 0.0000 0.0000 0.0000 10.9334
#
#
#
# Elastic Compliance Matrix: (Units=1/GPa)
#
#
# Indices 1 2 3 4 5 6 
#
# 1 0.026498 -0.019234 -0.006181 0.000000 0.000000 0.000000
# 2 -0.019234 0.026498 -0.006181 0.000000 0.000000 0.000000
# 3 -0.006181 -0.006181 0.083391 0.000000 0.000000 0.000000
# 4 0.000000 0.000000 0.000000 0.111812 0.000000 0.000000
# 5 0.000000 0.000000 0.000000 0.000000 0.111812 0.000000
# 6 0.000000 0.000000 0.000000 0.000000 0.000000 0.091463
#
#
# Mechanical properties :
#
#
# Convention : Reuss Voigt Hill
#
# Bulk Modulus (GPa) = 13.66252 41.72684 27.69468
# Shear Modulus (GPa) = 9.27535 12.56030 10.91783
#
# Velocity S-wave (km/s) = 2.36113 2.74761 2.56167
# Velocity P-wave (km/s) = 3.95539 5.92838 5.03938
#
# Compressibility (1/GPa) = 0.07319293
#
# Stress axis : x y z
#
# Youngs Moduli (GPa) = 37.73939 37.73939 11.99171
#
# Poissons Ratio (x) = 0.72588 0.07412
# Poissons Ratio (y) = 0.72588 0.07412
# Poissons Ratio (z) = 0.23328 0.23328
#
# Static dielectric constant tensor:
#      x y z
#    x 1.570290 0.000000 0.000000 
#    y 0.000000 1.570290 0.000000 
#    z 0.000000 0.000000 1.583050 
# 
# From -- ./inp_files/10031.got.cif
#   From: 2010.05.17/outbox.cif.g08.bks.cpg/sg191_6_cif.got.tgz:10031.got - 2010.05.20 12:20:32.
