data_PCOD9588301
_publ_section_title
;
Structure prediction by ZEFSAII (Michael W. Deem and Ramdas Pophale) SiO2 
 PCOD9588301
Probable space group: P 6/M C C
;
_chemical_formula_sum "Si O2"
_cell_formula_units_Z 164
_cell_length_a 22.194325
_cell_length_b 22.194325
_cell_length_c 22.434886
_cell_angle_alpha 90.000000
_cell_angle_beta 90.000000
_cell_angle_gamma 120.000000
_cell_volume 9570.582721
_symmetry_space_group_name_H-M "P 6/M C C"
_symmetry_group_IT_number 192
_symmetry_cell_setting 'hexagonal'
loop_
_space_group_symop_operation_xyz
x,y,z
x-y,x,z
-y,x-y,z
-x,-y,z
-x+y,-x,z
y,-x+y,z
x-y,-y,1/2-z
-x,-x+y,1/2-z
y,x,1/2-z
-y,-x,1/2-z
-x+y,y,1/2-z
x,x-y,1/2-z
-x,-y,-z
-x+y,-x,-z
y,-x+y,-z
x,y,-z
x-y,x,-z
-y,x-y,-z
-x+y,y,1/2+z
x,x-y,1/2+z
-y,-x,1/2+z
y,x,1/2+z
x-y,-y,1/2+z
-x,-x+y,1/2+z
loop_
_atom_site_type_symbol
_atom_site_label
_atom_site_fract_x
_atom_site_fract_y
_atom_site_fract_z
Si Si1 0.158837 0.123580 0.500000
Si Si2 0.333334 0.666667 0.427377
Si Si3 0.723441 0.641580 0.572102
Si Si4 0.039001 0.253986 0.609123
Si Si5 0.183881 0.635845 0.072654
Si Si6 0.846367 0.901299 0.319177
Si Si7 0.424604 0.486840 0.572417
Si Si8 0.760284 0.160133 0.571594
O O1 0.135989 0.042619 0.500000
O O2 0.208080 0.162700 0.556400
O O3 0.333334 0.666668 0.500000
O O4 0.340566 0.738630 0.408024
O O5 0.724908 0.654442 0.500000
O O6 0.752314 0.715750 0.604730
O O7 0.644281 0.584767 0.589818
O O8 0.772548 0.608340 0.583281
O O9 0.062138 0.227407 0.666836
O O10 0.093507 0.333935 0.597941
O O11 0.132005 0.556697 0.090997
O O12 0.165028 0.693799 0.092065
O O13 0.182429 0.635810 0.000000
O O14 0.896323 0.873982 0.345164
O O15 0.850213 0.925107 0.250000
O O16 0.500000 0.500000 0.591298
O O17 0.423562 0.484743 0.500000
O O18 0.755135 0.151991 0.500000
#
# Coordination Sequence:
#
# PCOD9588301 Si02
#       8
#    12   8  24  24  24  24  24  24
#     4  12  23  34  46  64  89 118 150 188 232 278
#     4   9  15  24  36  54  78 114 160 200 232 261
#     4  10  18  28  41  60  86 122 159 197 237 286
#     4  12  21  32  48  66  92 120 154 193 237 286
#     4   9  16  25  38  56  82 120 165 204 232 266
#     4  10  21  37  55  71  87 112 148 192 239 288
#     4   9  16  25  37  53  79 115 162 201 229 264
#     4  10  18  28  41  60  87 121 158 190 230 277
#
# _framework density 17.135843000000001
#
# number of rings (size 3 to 8) (size 9 to 14) (size 15 to 20)
#    0.000    1.902    1.463    4.610    0.000    6.439 
#    0.000    1.463    0.000    0.000    0.000    0.000 
#    0.000    0.000    0.000   86.927    0.000    7.610 
#
# Total GULP energy -913496.888107 kJ/mol
# GULP energy per Si atom -5570.102976 kJ/mol
# Density = 1.709684 g / cm^3
# Si number density = 17.135843 Si / 1000 Ang^3
#
#
#
# Elastic Constant Matrix: (Units=GPa)
#
#
# Indices 1 2 3 4 5 6 
#
# 1 92.2036 28.5643 10.3838 0.0000 0.0000 0.0000
# 2 28.5643 92.2037 10.3838 0.0000 0.0000 0.0000
# 3 10.3838 10.3838 12.5709 0.0000 0.0000 0.0000
# 4 0.0000 0.0000 0.0000 10.9830 0.0000 0.0000
# 5 0.0000 0.0000 0.0000 0.0000 10.9828 0.0000
# 6 0.0000 0.0000 0.0000 0.0000 0.0000 31.8195
#
#
#
# Elastic Compliance Matrix: (Units=1/GPa)
#
#
# Indices 1 2 3 4 5 6 
#
# 1 0.012682 -0.003031 -0.007972 0.000000 0.000000 0.000000
# 2 -0.003031 0.012682 -0.007972 0.000000 0.000000 0.000000
# 3 -0.007972 -0.007972 0.092719 0.000000 0.000000 0.000000
# 4 0.000000 0.000000 0.000000 0.091050 0.000000 0.000000
# 5 0.000000 0.000000 0.000000 0.000000 0.091051 0.000000
# 6 0.000000 0.000000 0.000000 0.000000 0.000000 0.031427
#
#
# Mechanical properties :
#
#
# Convention : Reuss Voigt Hill
#
# Bulk Modulus (GPa) = 12.47921 32.84912 22.66417
# Shear Modulus (GPa) = 12.61751 20.60015 16.60883
#
# Velocity S-wave (km/s) = 2.71647 3.47099 3.11665
# Velocity P-wave (km/s) = 4.13972 5.93929 5.11920
#
# Compressibility (1/GPa) = 0.08013325
#
# Stress axis : x y z
#
# Youngs Moduli (GPa) = 78.84937 78.84949 10.78523
#
# Poissons Ratio (x) = 0.23900 0.08598
# Poissons Ratio (y) = 0.23900 0.08598
# Poissons Ratio (z) = 0.62860 0.62860
#
# Static dielectric constant tensor:
#      x y z
#    x 1.618620 0.000000 0.000000 
#    y 0.000000 1.618620 0.000000 
#    z 0.000000 0.000000 1.645430 
# 
# From -- ./inp_files/6656.got.cif
#   From: 2010.05.17/outbox.cif.g08.bks.cpg/sg192_4_cif.got.tgz:6656.got - 2010.05.20 12:28:01.
