data_PCOD9588098
_publ_section_title
;
Structure prediction by ZEFSAII (Michael W. Deem and Ramdas Pophale) SiO2 
 PCOD9588098
Probable space group: P 6/M M M
;
_chemical_formula_sum "Si O2"
_cell_formula_units_Z 168
_cell_length_a 22.969320
_cell_length_b 22.969320
_cell_length_c 21.066964
_cell_angle_alpha 90.000000
_cell_angle_beta 90.000000
_cell_angle_gamma 120.000000
_cell_volume 9625.623295
_symmetry_space_group_name_H-M "P 6/M M M"
_symmetry_group_IT_number 191
_symmetry_cell_setting 'hexagonal'
loop_
_space_group_symop_operation_xyz
x,y,z
x-y,x,z
-y,x-y,z
-x,-y,z
-x+y,-x,z
y,-x+y,z
x-y,-y,-z
-x,-x+y,-z
y,x,-z
-y,-x,-z
-x+y,y,-z
x,x-y,-z
-x,-y,-z
-x+y,-x,-z
y,-x+y,-z
x,y,-z
x-y,x,-z
-y,x-y,-z
-x+y,y,z
x,x-y,z
-y,-x,z
y,x,z
x-y,-y,z
-x,-x+y,z
loop_
_atom_site_type_symbol
_atom_site_label
_atom_site_fract_x
_atom_site_fract_y
_atom_site_fract_z
Si Si1 0.616492 0.737587 0.930967
Si Si2 0.713987 0.924855 0.817322
Si Si3 0.391733 0.922702 0.342093
Si Si4 0.593326 0.863045 0.573523
Si Si5 0.077075 0.285159 0.327490
Si Si6 0.800912 0.332758 0.747609
Si Si7 0.333868 0.801596 0.099541
O O1 0.614318 0.807159 0.929426
O O2 0.660135 0.742953 0.870030
O O3 0.539154 0.680102 0.925528
O O4 0.644061 0.733803 0.000000
O O5 0.730613 0.865307 0.828445
O O6 0.687783 0.916094 0.744809
O O7 0.776525 0.000000 0.821673
O O8 0.462110 0.924220 0.348199
O O9 0.344783 0.888889 0.402929
O O10 0.352017 0.871455 0.284755
O O11 0.410275 0.000000 0.333033
O O12 0.612013 0.880022 0.500000
O O13 0.566842 0.783421 0.580571
O O14 0.656582 0.899822 0.620741
O O15 0.128847 0.257694 0.331931
O O16 0.000000 0.230530 0.337319
O O17 0.785653 0.392827 0.731153
O O18 0.739549 0.260452 0.727564
O O19 0.805279 0.332323 0.823749
O O20 0.403828 0.807655 0.080439
O O21 0.271137 0.728864 0.081052
#
# Coordination Sequence:
#
# PCOD9588098 Si02
#       7
#    24  24  24  24  24  24  24
#     4   9  18  31  46  68  99 132 166 204 246 295
#     4   9  18  33  54  78 102 131 167 206 246 291
#     4  10  21  34  48  70 100 131 163 202 251 306
#     4  10  21  36  54  75  99 129 167 210 251 292
#     4   9  18  32  52  77 103 131 164 202 243 287
#     4   9  17  30  49  71  95 126 166 212 256 301
#     4   9  17  29  47  70  96 127 166 213 262 306
#
# _framework density 17.453415
#
# number of rings (size 3 to 8) (size 9 to 14) (size 15 to 20)
#    0.000    2.714    0.000    1.143    2.000    3.143 
#    0.000    0.714    0.000    1.857    0.000    3.000 
#    0.000    0.000    0.000    7.143    0.000    7.429 
#
# Total GULP energy -936214.167466 kJ/mol
# GULP energy per Si atom -5572.703378 kJ/mol
# Density = 1.741369 g / cm^3
# Si number density = 17.453415 Si / 1000 Ang^3
#
#
#
# Elastic Constant Matrix: (Units=GPa)
#
#
# Indices 1 2 3 4 5 6 
#
# 1 74.7398 36.3325 33.9778 0.0000 0.0000 0.0000
# 2 36.3325 74.7398 33.9778 0.0000 0.0000 0.0000
# 3 33.9778 33.9778 86.1173 0.0000 0.0000 0.0000
# 4 0.0000 0.0000 0.0000 9.8150 0.0000 0.0000
# 5 0.0000 0.0000 0.0000 0.0000 9.8150 0.0000
# 6 0.0000 0.0000 0.0000 0.0000 0.0000 19.2037
#
#
#
# Elastic Compliance Matrix: (Units=1/GPa)
#
#
# Indices 1 2 3 4 5 6 
#
# 1 0.018952 -0.007084 -0.004683 0.000000 0.000000 0.000000
# 2 -0.007084 0.018952 -0.004683 0.000000 0.000000 0.000000
# 3 -0.004683 -0.004683 0.015307 0.000000 0.000000 0.000000
# 4 0.000000 0.000000 0.000000 0.101885 0.000000 0.000000
# 5 0.000000 0.000000 0.000000 0.000000 0.101885 0.000000
# 6 0.000000 0.000000 0.000000 0.000000 0.000000 0.052073
#
#
# Mechanical properties :
#
#
# Convention : Reuss Voigt Hill
#
# Bulk Modulus (GPa) = 49.22981 49.35255 49.29118
# Shear Modulus (GPa) = 14.33799 16.52068 15.42933
#
# Velocity S-wave (km/s) = 2.86929 3.07996 2.97649
# Velocity P-wave (km/s) = 6.26456 6.40205 6.33368
#
# Compressibility (1/GPa) = 0.02031289
#
# Stress axis : x y z
#
# Youngs Moduli (GPa) = 52.76395 52.76395 65.32921
#
# Poissons Ratio (x) = 0.37380 0.30591
# Poissons Ratio (y) = 0.37380 0.30591
# Poissons Ratio (z) = 0.24707 0.24707
#
# Static dielectric constant tensor:
#      x y z
#    x 1.593470 0.000000 0.000000 
#    y 0.000000 1.593470 0.000000 
#    z 0.000000 0.000000 1.612540 
# 
# From -- ./inp_files/7910.got.cif
#   From: 2010.05.17/outbox.cif.g08.bks.cpg/sg191_4_cif.got.tgz:7910.got - 2010.05.20 12:20:32.
