data_PCOD9588564
_publ_section_title
;
Structure prediction by ZEFSAII (Michael W. Deem and Ramdas Pophale) SiO2 
 PCOD9588564
Probable space group: P 6/M C C
;
_chemical_formula_sum "Si O2"
_cell_formula_units_Z 144
_cell_length_a 32.912868
_cell_length_b 32.912868
_cell_length_c 8.707620
_cell_angle_alpha 90.000000
_cell_angle_beta 90.000000
_cell_angle_gamma 120.000000
_cell_volume 8168.861934
_symmetry_space_group_name_H-M "P 6/M C C"
_symmetry_group_IT_number 192
_symmetry_cell_setting 'hexagonal'
loop_
_space_group_symop_operation_xyz
x,y,z
x-y,x,z
-y,x-y,z
-x,-y,z
-x+y,-x,z
y,-x+y,z
x-y,-y,1/2-z
-x,-x+y,1/2-z
y,x,1/2-z
-y,-x,1/2-z
-x+y,y,1/2-z
x,x-y,1/2-z
-x,-y,-z
-x+y,-x,-z
y,-x+y,-z
x,y,-z
x-y,x,-z
-y,x-y,-z
-x+y,y,1/2+z
x,x-y,1/2+z
-y,-x,1/2+z
y,x,1/2+z
x-y,-y,1/2+z
-x,-x+y,1/2+z
loop_
_atom_site_type_symbol
_atom_site_label
_atom_site_fract_x
_atom_site_fract_y
_atom_site_fract_z
Si Si1 0.281011 0.379522 0.816990
Si Si2 0.191461 0.896757 0.817207
Si Si3 0.282360 0.475467 0.183564
Si Si4 0.191689 0.140408 0.683973
Si Si5 0.472727 0.615319 0.183100
Si Si6 0.610776 0.560064 0.184061
O O1 0.243729 0.333884 0.727493
O O2 0.272289 0.422829 0.782899
O O3 0.335634 0.399613 0.779125
O O4 0.274746 0.370305 0.000000
O O5 0.154580 0.845421 0.750000
O O6 0.176204 0.931685 0.741979
O O7 0.185685 0.896265 0.000000
O O8 0.240937 0.481873 0.250000
O O9 0.332510 0.510638 0.256961
O O10 0.285472 0.480967 0.000000
O O11 0.157483 0.157483 0.750000
O O12 0.180265 0.090133 0.750000
O O13 0.190813 0.139376 0.500000
O O14 0.422993 0.577008 0.250000
O O15 0.512161 0.603707 0.244465
O O16 0.471952 0.614240 0.000000
O O17 0.575327 0.575327 0.250000
O O18 0.607220 0.555287 0.000000
#
# Coordination Sequence:
#
# PCOD9588564 Si02
#       6
#    24  24  24  24  24  24
#     4   9  19  34  51  74 108 146 184 226 268 314
#     4  11  21  33  51  76 107 143 182 222 264 312
#     4  10  20  35  56  83 112 143 180 221 269 323
#     4  11  22  39  60  83 110 141 178 219 265 315
#     4  11  22  38  59  82 109 141 179 224 273 325
#     4  10  21  37  55  77 106 141 183 229 276 324
#
# _framework density 17.627915000000002
#
# number of rings (size 3 to 8) (size 9 to 14) (size 15 to 20)
#    0.000    1.667    0.000    8.000    0.000    6.333 
#    0.000    3.333    0.000    0.500    0.000    3.500 
#    0.000    0.000    0.000    0.000    0.000    0.000 
#
# Total GULP energy -804790.494048 kJ/mol
# GULP energy per Si atom -5588.822875 kJ/mol
# Density = 1.758779 g / cm^3
# Si number density = 17.627915 Si / 1000 Ang^3
#
#
#
# Elastic Constant Matrix: (Units=GPa)
#
#
# Indices 1 2 3 4 5 6 
#
# 1 76.1339 59.4586 50.9268 0.0000 0.0000 0.0000
# 2 59.4586 76.1339 50.9268 0.0000 0.0000 0.0000
# 3 50.9268 50.9268 134.7191 0.0000 0.0000 0.0000
# 4 0.0000 0.0000 0.0000 29.8985 0.0000 0.0000
# 5 0.0000 0.0000 0.0000 0.0000 29.8985 0.0000
# 6 0.0000 0.0000 0.0000 0.0000 0.0000 8.3376
#
#
#
# Elastic Compliance Matrix: (Units=1/GPa)
#
#
# Indices 1 2 3 4 5 6 
#
# 1 0.035134 -0.024835 -0.003894 0.000000 0.000000 0.000000
# 2 -0.024835 0.035134 -0.003894 0.000000 0.000000 0.000000
# 3 -0.003894 -0.003894 0.010367 0.000000 0.000000 0.000000
# 4 0.000000 0.000000 0.000000 0.033447 0.000000 0.000000
# 5 0.000000 0.000000 0.000000 0.000000 0.033447 0.000000
# 6 0.000000 0.000000 0.000000 0.000000 0.000000 0.119938
#
#
# Mechanical properties :
#
#
# Convention : Reuss Voigt Hill
#
# Bulk Modulus (GPa) = 64.96916 67.73458 66.35187
# Shear Modulus (GPa) = 14.79988 22.00523 18.40255
#
# Velocity S-wave (km/s) = 2.90068 3.53699 3.23452
# Velocity P-wave (km/s) = 6.93934 7.42889 7.18828
#
# Compressibility (1/GPa) = 0.01539192
#
# Stress axis : x y z
#
# Youngs Moduli (GPa) = 28.46213 28.46213 96.46423
#
# Poissons Ratio (x) = 0.70685 0.37559
# Poissons Ratio (y) = 0.70685 0.37559
# Poissons Ratio (z) = 0.11082 0.11082
#
# Static dielectric constant tensor:
#      x y z
#    x 1.584100 0.000000 0.000000 
#    y 0.000000 1.584100 0.000000 
#    z 0.000000 0.000000 1.583620 
# 
# From -- ./inp_files/1145.got.cif
#   From: 2010.05.17/outbox.cif.g08.bks.cpg/sg192_1_cif.got.tgz:1145.got - 2010.05.20 12:28:01.
