data_PCOD9588014
_publ_section_title
;
Structure prediction by ZEFSAII (Michael W. Deem and Ramdas Pophale) SiO2 
 PCOD9588014
Probable space group: P 6/M M M
;
_chemical_formula_sum "Si O2"
_cell_formula_units_Z 102
_cell_length_a 27.066091
_cell_length_b 27.066091
_cell_length_c 7.431056
_cell_angle_alpha 90.000000
_cell_angle_beta 90.000000
_cell_angle_gamma 120.000000
_cell_volume 4714.463103
_symmetry_space_group_name_H-M "P 6/M M M"
_symmetry_group_IT_number 191
_symmetry_cell_setting 'hexagonal'
loop_
_space_group_symop_operation_xyz
x,y,z
x-y,x,z
-y,x-y,z
-x,-y,z
-x+y,-x,z
y,-x+y,z
x-y,-y,-z
-x,-x+y,-z
y,x,-z
-y,-x,-z
-x+y,y,-z
x,x-y,-z
-x,-y,-z
-x+y,-x,-z
y,-x+y,-z
x,y,-z
x-y,x,-z
-y,x-y,-z
-x+y,y,z
x,x-y,z
-y,-x,z
y,x,z
x-y,-y,z
-x,-x+y,z
loop_
_atom_site_type_symbol
_atom_site_label
_atom_site_fract_x
_atom_site_fract_y
_atom_site_fract_z
Si Si1 0.632594 0.534542 0.705505
Si Si2 0.775593 0.442776 0.281225
Si Si3 0.174811 0.935652 0.282997
Si Si4 0.433162 0.000000 0.000000
Si Si5 0.627047 0.757826 0.212256
O O1 0.610705 0.522923 0.500000
O O2 0.644217 0.484638 0.770646
O O3 0.593148 0.543673 0.842592
O O4 0.695908 0.590425 0.703745
O O5 0.775586 0.444643 0.500000
O O6 0.730093 0.460186 0.217280
O O7 0.757322 0.378661 0.228542
O O8 0.172616 0.936974 0.500000
O O9 0.111971 0.888030 0.219093
O O10 0.216703 0.911300 0.236479
O O11 0.199892 0.000000 0.216927
O O12 0.614225 0.807113 0.280889
O O13 0.614833 0.751077 0.000000
#
# Coordination Sequence:
#
# PCOD9588014 Si02
#       5
#    24  24  24   6  24
#     4  11  23  40  63  90 125 169 214 261 314 374
#     4   9  18  36  66 102 135 167 207 261 326 393
#     4   9  18  31  48  71 100 138 185 239 299 362
#     4  12  26  44  59  88 122 168 222 272 311 364
#     4  10  20  34  53  81 117 156 196 243 303 371
#
# _framework density 21.635549999999999
#
# number of rings (size 3 to 8) (size 9 to 14) (size 15 to 20)
#    0.000    2.118    1.176    2.000    1.647    3.765 
#    0.000    1.765    0.000    3.059    0.000    3.294 
#    0.000    0.000    0.000    5.882    0.000    6.588 
#
# Total GULP energy -568633.915557 kJ/mol
# GULP energy per Si atom -5574.842309 kJ/mol
# Density = 2.158631 g / cm^3
# Si number density = 21.635550 Si / 1000 Ang^3
#
#
#
# Elastic Constant Matrix: (Units=GPa)
#
#
# Indices 1 2 3 4 5 6 
#
# 1 30.0850 116.8402 21.9470 0.0000 0.0000 0.0000
# 2 116.8402 30.0850 21.9470 0.0000 0.0000 0.0000
# 3 21.9470 21.9470 117.5281 0.0000 0.0000 0.0000
# 4 0.0000 0.0000 0.0000-1283.2443 0.0000 0.0000
# 5 0.0000 0.0000 0.0000 0.0000-1283.2442 0.0000
# 6 0.0000 0.0000 0.0000 0.0000 0.0000 -43.3776
#
#
#
# Elastic Compliance Matrix: (Units=1/GPa)
#
#
# Indices 1 2 3 4 5 6 
#
# 1 -0.002159 0.009368 -0.001346 0.000000 0.000000 0.000000
# 2 0.009368 -0.002159 -0.001346 0.000000 0.000000 0.000000
# 3 -0.001346 -0.001346 0.009011 0.000000 0.000000 0.000000
# 4 0.000000 0.000000 0.000000 -0.000779 0.000000 0.000000
# 5 0.000000 0.000000 0.000000 0.000000 -0.000779 0.000000
# 6 0.000000 0.000000 0.000000 0.000000 0.000000 -0.023053
#
#
# Mechanical properties :
#
#
# Convention : Reuss Voigt Hill
#
# Bulk Modulus (GPa) = 55.42104 55.46296 55.44200
# Shear Modulus (GPa) = -183.45197 -520.84231 -352.14714
#
# Velocity S-wave (km/s) = -9.21824 -15.53245 -12.77171
# Velocity P-wave (km/s) = 9.36109 17.20423 13.84946
#
# Compressibility (1/GPa) = 0.01804369
#
# Stress axis : x y z
#
# Youngs Moduli (GPa) = -463.13914 -463.13915 110.97138
#
# Poissons Ratio (x) = 4.33846 0.14938
# Poissons Ratio (y) = 4.33846 0.14938
# Poissons Ratio (z) = -0.62342 -0.62342
#
# Static dielectric constant tensor:
#      x y z
#    x 1.772910 0.000000 0.000000 
#    y 0.000000 1.772910 0.000000 
#    z 0.000000 0.000000 1.821190 
# 
# From -- ./inp_files/1404.got.cif
#   From: 2010.05.17/outbox.cif.g08.bks.cpg/sg191_1_cif.got.tgz:1404.got - 2010.05.20 12:20:32.
