data_PCOD9588229
_publ_section_title
;
Structure prediction by ZEFSAII (Michael W. Deem and Ramdas Pophale) SiO2 
 PCOD9588229
Probable space group: P 6/M M M
;
_chemical_formula_sum "Si O2"
_cell_formula_units_Z 108
_cell_length_a 17.513509
_cell_length_b 17.513509
_cell_length_c 23.681388
_cell_angle_alpha 90.000000
_cell_angle_beta 90.000000
_cell_angle_gamma 120.000000
_cell_volume 6290.484910
_symmetry_space_group_name_H-M "P 6/M M M"
_symmetry_group_IT_number 191
_symmetry_cell_setting 'hexagonal'
loop_
_space_group_symop_operation_xyz
x,y,z
x-y,x,z
-y,x-y,z
-x,-y,z
-x+y,-x,z
y,-x+y,z
x-y,-y,-z
-x,-x+y,-z
y,x,-z
-y,-x,-z
-x+y,y,-z
x,x-y,-z
-x,-y,-z
-x+y,-x,-z
y,-x+y,-z
x,y,-z
x-y,x,-z
-y,x-y,-z
-x+y,y,z
x,x-y,z
-y,-x,z
y,x,z
x-y,-y,z
-x,-x+y,z
loop_
_atom_site_type_symbol
_atom_site_label
_atom_site_fract_x
_atom_site_fract_y
_atom_site_fract_z
Si Si1 0.895140 0.610885 0.379991
Si Si2 0.824258 0.824258 0.068848
Si Si3 0.646232 0.000000 0.067333
Si Si4 0.893387 0.446694 0.564563
Si Si5 0.665758 0.510398 0.857716
Si Si6 0.097628 0.729301 0.753412
O O1 0.816931 0.633861 0.394432
O O2 0.870095 0.515658 0.405931
O O3 0.894504 0.603570 0.311901
O O4 0.000000 0.680794 0.395304
O O5 0.823302 0.911651 0.087736
O O6 0.735505 0.735505 0.084640
O O7 0.826255 0.826255 0.000000
O O8 0.564596 0.915595 0.094641
O O9 0.641402 0.000000 0.000000
O O10 0.861376 0.430688 0.500000
O O11 0.000000 0.500000 0.563965
O O12 0.758983 0.517965 0.867550
O O13 0.589109 0.410892 0.857416
O O14 0.670433 0.554711 0.797086
O O15 0.170845 0.829156 0.764539
O O16 0.000000 0.710324 0.762968
#
# Coordination Sequence:
#
# PCOD9588229 Si02
#       6
#    24  12  12  12  24  24
#     4   9  18  33  54  80 110 149 190 231 276 327
#     4   9  17  31  53  79 105 133 167 207 249 297
#     4  11  23  39  57  77 103 137 173 209 255 321
#     4   9  18  32  50  76 112 152 188 228 270 318
#     4  11  23  38  56  79 104 134 170 217 268 319
#     4   9  18  33  55  81 108 139 180 226 272 316
#
# _framework density 17.168787999999999
#
# number of rings (size 3 to 8) (size 9 to 14) (size 15 to 20)
#    0.000    2.333    1.111    1.333    1.556    3.111 
#    0.667    0.000    0.000    1.778    0.000    3.111 
#    0.000    0.000    0.000    5.556    0.000    5.778 
#
# Total GULP energy -601740.664630 kJ/mol
# GULP energy per Si atom -5571.672821 kJ/mol
# Density = 1.712971 g / cm^3
# Si number density = 17.168788 Si / 1000 Ang^3
#
#
#
# Elastic Constant Matrix: (Units=GPa)
#
#
# Indices 1 2 3 4 5 6 
#
# 1 61.2639 54.4239 34.8394 0.0000 0.0000 0.0000
# 2 54.4239 61.2639 34.8394 0.0000 0.0000 0.0000
# 3 34.8394 34.8394 50.4344 0.0000 0.0000 0.0000
# 4 0.0000 0.0000 0.0000 16.9437 0.0000 0.0000
# 5 0.0000 0.0000 0.0000 0.0000 16.9437 0.0000
# 6 0.0000 0.0000 0.0000 0.0000 0.0000 3.4200
#
#
#
# Elastic Compliance Matrix: (Units=1/GPa)
#
#
# Indices 1 2 3 4 5 6 
#
# 1 0.080501 -0.065698 -0.010226 0.000000 0.000000 0.000000
# 2 -0.065698 0.080501 -0.010226 0.000000 0.000000 0.000000
# 3 -0.010226 -0.010226 0.033955 0.000000 0.000000 0.000000
# 4 0.000000 0.000000 0.000000 0.059019 0.000000 0.000000
# 5 0.000000 0.000000 0.000000 0.000000 0.059019 0.000000
# 6 0.000000 0.000000 0.000000 0.000000 0.000000 0.292397
#
#
# Mechanical properties :
#
#
# Convention : Reuss Voigt Hill
#
# Bulk Modulus (GPa) = 44.13371 46.79641 45.46506
# Shear Modulus (GPa) = 6.36746 10.71877 8.54312
#
# Velocity S-wave (km/s) = 1.92790 2.50135 2.23311
# Velocity P-wave (km/s) = 5.54232 5.97144 5.76088
#
# Compressibility (1/GPa) = 0.02265842
#
# Stress axis : x y z
#
# Youngs Moduli (GPa) = 12.42226 12.42226 29.45062
#
# Poissons Ratio (x) = 0.81612 0.30115
# Poissons Ratio (y) = 0.81612 0.30115
# Poissons Ratio (z) = 0.12703 0.12703
#
# Static dielectric constant tensor:
#      x y z
#    x 1.577950 0.000000 0.000000 
#    y 0.000000 1.577950 0.000000 
#    z 0.000000 0.000000 1.589670 
# 
# From -- ./inp_files/8465.got.cif
#   From: 2010.05.17/outbox.cif.g08.bks.cpg/sg191_5_cif.got.tgz:8465.got - 2010.05.20 12:20:32.
