data_PCOD9588358
_publ_section_title
;
Structure prediction by ZEFSAII (Michael W. Deem and Ramdas Pophale) SiO2 
 PCOD9588358
Probable space group: P 6/M C C
;
_chemical_formula_sum "Si O2"
_cell_formula_units_Z 84
_cell_length_a 13.926210
_cell_length_b 13.926210
_cell_length_c 30.982525
_cell_angle_alpha 90.000000
_cell_angle_beta 90.000000
_cell_angle_gamma 120.000000
_cell_volume 5203.712811
_symmetry_space_group_name_H-M "P 6/M C C"
_symmetry_group_IT_number 192
_symmetry_cell_setting 'hexagonal'
loop_
_space_group_symop_operation_xyz
x,y,z
x-y,x,z
-y,x-y,z
-x,-y,z
-x+y,-x,z
y,-x+y,z
x-y,-y,1/2-z
-x,-x+y,1/2-z
y,x,1/2-z
-y,-x,1/2-z
-x+y,y,1/2-z
x,x-y,1/2-z
-x,-y,-z
-x+y,-x,-z
y,-x+y,-z
x,y,-z
x-y,x,-z
-y,x-y,-z
-x+y,y,1/2+z
x,x-y,1/2+z
-y,-x,1/2+z
y,x,1/2+z
x-y,-y,1/2+z
-x,-x+y,1/2+z
loop_
_atom_site_type_symbol
_atom_site_label
_atom_site_fract_x
_atom_site_fract_y
_atom_site_fract_z
Si Si1 0.542144 0.667036 0.594139
Si Si2 0.332046 0.452839 0.370964
Si Si3 0.335109 0.540280 0.000000
Si Si4 0.119522 0.451670 0.767632
O O1 0.627078 0.626988 0.608610
O O2 0.423674 0.576391 0.614127
O O3 0.573590 0.786561 0.612255
O O4 0.522124 0.664091 0.542967
O O5 0.334135 0.450098 0.319311
O O6 0.437445 0.668071 0.000000
O O7 0.217231 0.434461 0.750000
O O8 0.138379 0.569190 0.750000
O O9 0.000000 0.360742 0.750000
#
# Coordination Sequence:
#
# PCOD9588358 Si02
#       4
#    24  24  12  24
#     4  11  21  34  55  76 110 140 177 223 263 330
#     4  11  21  35  53  78 105 143 176 218 274 316
#     4  10  18  35  53  79 112 138 179 213 270 320
#     4  11  21  35  52  77 106 139 179 221 266 323
#
# _framework density 16.142320000000002
#
# number of rings (size 3 to 8) (size 9 to 14) (size 15 to 20)
#    0.286    0.857    2.857    7.714    0.000    3.429 
#    0.000    0.000    0.000    0.857    0.000    4.000 
#    0.000    2.286    0.000    0.000    0.000    0.000 
#
# Total GULP energy -469182.718812 kJ/mol
# GULP energy per Si atom -5585.508557 kJ/mol
# Density = 1.610558 g / cm^3
# Si number density = 16.142320 Si / 1000 Ang^3
#
#
#
# Elastic Constant Matrix: (Units=GPa)
#
#
# Indices 1 2 3 4 5 6 
#
# 1 99.5252 84.4215 63.9227 0.0000 0.0000 0.0000
# 2 84.4215 99.5252 63.9227 0.0000 0.0000 0.0000
# 3 63.9227 63.9227 214.8594 0.0000 0.0000 0.0000
# 4 0.0000 0.0000 0.0000 26.1125 0.0000 0.0000
# 5 0.0000 0.0000 0.0000 0.0000 26.1125 0.0000
# 6 0.0000 0.0000 0.0000 0.0000 0.0000 7.5519
#
#
#
# Elastic Compliance Matrix: (Units=1/GPa)
#
#
# Indices 1 2 3 4 5 6 
#
# 1 0.036531 -0.029678 -0.002039 0.000000 0.000000 0.000000
# 2 -0.029678 0.036531 -0.002039 0.000000 0.000000 0.000000
# 3 -0.002039 -0.002039 0.005867 0.000000 0.000000 0.000000
# 4 0.000000 0.000000 0.000000 0.038296 0.000000 0.000000
# 5 0.000000 0.000000 0.000000 0.000000 0.038296 0.000000
# 6 0.000000 0.000000 0.000000 0.000000 0.000000 0.132418
#
#
# Mechanical properties :
#
#
# Convention : Reuss Voigt Hill
#
# Bulk Modulus (GPa) = 87.57731 93.16040 90.36885
# Shear Modulus (GPa) = 13.91762 25.39824 19.65793
#
# Velocity S-wave (km/s) = 2.93948 3.97091 3.49347
# Velocity P-wave (km/s) = 8.11737 8.88039 8.50744
#
# Compressibility (1/GPa) = 0.01141848
#
# Stress axis : x y z
#
# Youngs Moduli (GPa) = 27.37387 27.37387 170.43231
#
# Poissons Ratio (x) = 0.81239 0.34751
# Poissons Ratio (y) = 0.81239 0.34751
# Poissons Ratio (z) = 0.05581 0.05581
#
# Static dielectric constant tensor:
#      x y z
#    x 1.530280 0.000000 0.000000 
#    y 0.000000 1.530280 0.000000 
#    z 0.000000 0.000000 1.542940 
# 
# From -- ./inp_files/6300.got.cif
#   From: 2010.05.17/outbox.cif.g08.bks.cpg/sg192_4_cif.got.tgz:6300.got - 2010.05.20 12:28:01.
