data_PCOD9588754
_publ_section_title
;
Structure prediction by ZEFSAII (Michael W. Deem and Ramdas Pophale) SiO2 
 PCOD9588754
Probable space group: P 6/M C C
;
_chemical_formula_sum "Si O2"
_cell_formula_units_Z 84
_cell_length_a 14.138920
_cell_length_b 14.138920
_cell_length_c 24.202937
_cell_angle_alpha 90.000000
_cell_angle_beta 90.000000
_cell_angle_gamma 120.000000
_cell_volume 4190.165497
_symmetry_space_group_name_H-M "P 6/M C C"
_symmetry_group_IT_number 192
_symmetry_cell_setting 'hexagonal'
loop_
_space_group_symop_operation_xyz
x,y,z
x-y,x,z
-y,x-y,z
-x,-y,z
-x+y,-x,z
y,-x+y,z
x-y,-y,1/2-z
-x,-x+y,1/2-z
y,x,1/2-z
-y,-x,1/2-z
-x+y,y,1/2-z
x,x-y,1/2-z
-x,-y,-z
-x+y,-x,-z
y,-x+y,-z
x,y,-z
x-y,x,-z
-y,x-y,-z
-x+y,y,1/2+z
x,x-y,1/2+z
-y,-x,1/2+z
y,x,1/2+z
x-y,-y,1/2+z
-x,-x+y,1/2+z
loop_
_atom_site_type_symbol
_atom_site_label
_atom_site_fract_x
_atom_site_fract_y
_atom_site_fract_z
Si Si1 0.667846 0.121779 0.271346
Si Si2 0.432745 0.370369 0.397025
Si Si3 0.203994 0.970644 0.066245
Si Si4 0.536010 0.319882 0.500000
O O1 0.783812 0.216189 0.250000
O O2 0.571625 0.143249 0.250000
O O3 0.664628 0.117974 0.337597
O O4 0.632489 0.000000 0.250000
O O5 0.500000 0.500000 0.401670
O O6 0.305851 0.332322 0.404515
O O7 0.469590 0.319083 0.446344
O O8 0.085995 0.872316 0.080664
O O9 0.215959 0.966666 0.000000
O O10 0.570096 0.226479 0.500000
#
# Coordination Sequence:
#
# PCOD9588754 Si02
#       4
#    24  24  24  12
#     4  11  26  47  69 100 131 180 231 282 338 403
#     4  12  25  42  68  95 141 172 226 279 345 405
#     4  10  23  40  65  95 132 177 221 271 331 397
#     4  10  27  38  64  98 139 179 226 273 346 409
#
# _framework density 20.046941
#
# number of rings (size 3 to 8) (size 9 to 14) (size 15 to 20)
#    0.286    0.857    4.286    1.000   12.000    1.143 
#    0.000    0.000    0.000    0.286    0.000    0.000 
#    0.000    0.000    0.000    0.000    0.000    0.000 
#
# Total GULP energy -469843.429922 kJ/mol
# GULP energy per Si atom -5593.374166 kJ/mol
# Density = 2.000131 g / cm^3
# Si number density = 20.046941 Si / 1000 Ang^3
#
#
#
# Elastic Constant Matrix: (Units=GPa)
#
#
# Indices 1 2 3 4 5 6 
#
# 1 106.9762 43.9229 25.1401 0.0000 0.0000 0.0000
# 2 43.9229 106.9762 25.1401 0.0000 0.0000 0.0000
# 3 25.1401 25.1401 128.4300 0.0000 0.0000 0.0000
# 4 0.0000 0.0000 0.0000 7.1114 0.0000 0.0000
# 5 0.0000 0.0000 0.0000 0.0000 7.1114 0.0000
# 6 0.0000 0.0000 0.0000 0.0000 0.0000 31.5266
#
#
#
# Elastic Compliance Matrix: (Units=1/GPa)
#
#
# Indices 1 2 3 4 5 6 
#
# 1 0.011474 -0.004385 -0.001388 0.000000 0.000000 0.000000
# 2 -0.004385 0.011474 -0.001388 0.000000 0.000000 0.000000
# 3 -0.001388 -0.001388 0.008330 0.000000 0.000000 0.000000
# 4 0.000000 0.000000 0.000000 0.140619 0.000000 0.000000
# 5 0.000000 0.000000 0.000000 0.000000 0.140619 0.000000
# 6 0.000000 0.000000 0.000000 0.000000 0.000000 0.031719
#
#
# Mechanical properties :
#
#
# Convention : Reuss Voigt Hill
#
# Bulk Modulus (GPa) = 58.97133 58.97649 58.97391
# Shear Modulus (GPa) = 13.72834 25.69517 19.71175
#
# Velocity S-wave (km/s) = 2.61973 3.58404 3.13913
# Velocity P-wave (km/s) = 6.21539 6.82716 6.52845
#
# Compressibility (1/GPa) = 0.01695739
#
# Stress axis : x y z
#
# Youngs Moduli (GPa) = 87.14996 87.14996 120.05318
#
# Poissons Ratio (x) = 0.38216 0.16660
# Poissons Ratio (y) = 0.38216 0.16660
# Poissons Ratio (z) = 0.12094 0.12094
#
# Static dielectric constant tensor:
#      x y z
#    x 1.712620 0.000000 0.000000 
#    y 0.000000 1.712620 0.000000 
#    z 0.000000 0.000000 1.675840 
# 
# From -- ./inp_files/5569.got.cif
#   From: 2010.05.17/outbox.cif.g08.bks.cpg/sg192_3_cif.got.tgz:5569.got - 2010.05.20 12:28:01.
