data_PCOD9588706
_publ_section_title
;
Structure prediction by ZEFSAII (Michael W. Deem and Ramdas Pophale) SiO2 
 PCOD9588706
Probable space group: P 6/M C C
;
_chemical_formula_sum "Si O2"
_cell_formula_units_Z 92
_cell_length_a 18.222714
_cell_length_b 18.222714
_cell_length_c 18.842775
_cell_angle_alpha 90.000000
_cell_angle_beta 90.000000
_cell_angle_gamma 120.000000
_cell_volume 5418.781160
_symmetry_space_group_name_H-M "P 6/M C C"
_symmetry_group_IT_number 192
_symmetry_cell_setting 'hexagonal'
loop_
_space_group_symop_operation_xyz
x,y,z
x-y,x,z
-y,x-y,z
-x,-y,z
-x+y,-x,z
y,-x+y,z
x-y,-y,1/2-z
-x,-x+y,1/2-z
y,x,1/2-z
-y,-x,1/2-z
-x+y,y,1/2-z
x,x-y,1/2-z
-x,-y,-z
-x+y,-x,-z
y,-x+y,-z
x,y,-z
x-y,x,-z
-y,x-y,-z
-x+y,y,1/2+z
x,x-y,1/2+z
-y,-x,1/2+z
y,x,1/2+z
x-y,-y,1/2+z
-x,-x+y,1/2+z
loop_
_atom_site_type_symbol
_atom_site_label
_atom_site_fract_x
_atom_site_fract_y
_atom_site_fract_z
Si Si1 0.741400 0.525053 0.167028
Si Si2 0.429748 0.404649 0.332652
Si Si3 0.147777 0.193248 0.500000
Si Si4 0.644167 0.737857 0.080307
Si Si5 0.333334 0.666668 0.663668
O O1 0.766717 0.533433 0.250000
O O2 0.658530 0.533676 0.160250
O O3 0.818796 0.596459 0.122649
O O4 0.718426 0.431319 0.142213
O O5 0.500000 0.500000 0.353228
O O6 0.408240 0.408240 0.250000
O O7 0.345354 0.371387 0.378697
O O8 0.164191 0.115022 0.500000
O O9 0.195256 0.256683 0.433677
O O10 0.608820 0.715041 0.000000
O O11 0.333334 0.666667 0.750000
#
# Coordination Sequence:
#
# PCOD9588706 Si02
#       5
#    24  24  12  24   8
#     4  11  20  37  59  86 119 158 204 249 297 354
#     4  11  22  36  60  89 121 161 206 249 298 357
#     4  10  21  40  65  88 118 150 198 244 314 382
#     4  10  23  39  59  89 122 155 199 250 306 362
#     4   9  21  33  58  83 118 165 205 251 289 345
#
# _framework density 16.977988
#
# number of rings (size 3 to 8) (size 9 to 14) (size 15 to 20)
#    0.783    0.783    2.609    3.261    7.304    0.522 
#    0.000    3.913    0.000    0.000    0.000    0.000 
#    0.000    0.000    0.000    0.000    0.000    0.000 
#
# Total GULP energy -513113.103485 kJ/mol
# GULP energy per Si atom -5577.316342 kJ/mol
# Density = 1.693934 g / cm^3
# Si number density = 16.977988 Si / 1000 Ang^3
#
#
#
# Elastic Constant Matrix: (Units=GPa)
#
#
# Indices 1 2 3 4 5 6 
#
# 1 145.0860 74.4269 43.7059 0.0001 0.0000 0.0003
# 2 74.4269 145.0870 43.7060 0.0000 -0.0001 0.0003
# 3 43.7059 43.7060 61.8014 0.0000 0.0000 0.0000
# 4 0.0001 0.0000 0.0000 13.6735 0.0001 0.0001
# 5 0.0000 -0.0001 0.0000 0.0001 13.6728 0.0000
# 6 0.0003 0.0003 0.0000 0.0001 0.0000 35.3302
#
#
#
# Elastic Compliance Matrix: (Units=1/GPa)
#
#
# Indices 1 2 3 4 5 6 
#
# 1 0.010247 -0.003906 -0.004485 0.000000 0.000000 0.000000
# 2 -0.003906 0.010247 -0.004485 0.000000 0.000000 0.000000
# 3 -0.004485 -0.004485 0.022524 0.000000 0.000000 0.000000
# 4 0.000000 0.000000 0.000000 0.073134 -0.000001 0.000000
# 5 0.000000 0.000000 0.000000 -0.000001 0.073138 0.000000
# 6 0.000000 0.000000 0.000000 0.000000 0.000000 0.028304
#
#
# Mechanical properties :
#
#
# Convention : Reuss Voigt Hill
#
# Bulk Modulus (GPa) = 57.91002 75.07243 66.49123
# Shear Modulus (GPa) = 20.07231 25.21101 22.64166
#
# Velocity S-wave (km/s) = 3.44212 3.85765 3.65580
# Velocity P-wave (km/s) = 7.06969 8.00971 7.55434
#
# Compressibility (1/GPa) = 0.01726817
#
# Stress axis : x y z
#
# Youngs Moduli (GPa) = 97.59064 97.59146 44.39739
#
# Poissons Ratio (x) = 0.38114 0.19910
# Poissons Ratio (y) = 0.38114 0.19910
# Poissons Ratio (z) = 0.43766 0.43765
#
# Static dielectric constant tensor:
#      x y z
#    x 1.560720 0.000000 0.000000 
#    y 0.000000 1.560720 0.000000 
#    z 0.000000 0.000000 1.559390 
# 
# From -- ./inp_files/4024.got.cif
#   From: 2010.05.17/outbox.cif.g08.bks.cpg/sg192_3_cif.got.tgz:4024.got - 2010.05.20 12:28:01.
