data_PCOD9588039
_publ_section_title
;
Structure prediction by ZEFSAII (Michael W. Deem and Ramdas Pophale) SiO2 
 PCOD9588039
Probable space group: P 6/M M M
;
_chemical_formula_sum "Si O2"
_cell_formula_units_Z 120
_cell_length_a 23.169473
_cell_length_b 23.169473
_cell_length_c 14.261026
_cell_angle_alpha 90.000000
_cell_angle_beta 90.000000
_cell_angle_gamma 120.000000
_cell_volume 6630.002844
_symmetry_space_group_name_H-M "P 6/M M M"
_symmetry_group_IT_number 191
_symmetry_cell_setting 'hexagonal'
loop_
_space_group_symop_operation_xyz
x,y,z
x-y,x,z
-y,x-y,z
-x,-y,z
-x+y,-x,z
y,-x+y,z
x-y,-y,-z
-x,-x+y,-z
y,x,-z
-y,-x,-z
-x+y,y,-z
x,x-y,-z
-x,-y,-z
-x+y,-x,-z
y,-x+y,-z
x,y,-z
x-y,x,-z
-y,x-y,-z
-x+y,y,z
x,x-y,z
-y,-x,z
y,x,z
x-y,-y,z
-x,-x+y,z
loop_
_atom_site_type_symbol
_atom_site_label
_atom_site_fract_x
_atom_site_fract_y
_atom_site_fract_z
Si Si1 0.208325 0.921953 0.290217
Si Si2 0.079259 0.357409 0.896696
Si Si3 0.332588 0.535137 0.689813
Si Si4 0.924349 0.593920 0.388488
Si Si5 0.643343 0.158750 0.104770
O O1 0.131972 0.868028 0.310032
O O2 0.228321 0.905184 0.188948
O O3 0.258375 0.914118 0.360903
O O4 0.229768 0.000000 0.290905
O O5 0.111431 0.436459 0.885983
O O6 0.000000 0.324946 0.895123
O O7 0.098897 0.345040 0.000000
O O8 0.263670 0.527340 0.654168
O O9 0.396121 0.603879 0.658073
O O10 0.340232 0.472705 0.659041
O O11 0.331884 0.535958 0.803381
O O12 0.920732 0.585151 0.500000
O O13 0.000000 0.616732 0.357110
O O14 0.562901 0.125802 0.108629
O O15 0.662725 0.189487 0.000000
#
# Coordination Sequence:
#
# PCOD9588039 Si02
#       5
#    24  24  24  24  24
#     4  10  20  35  55  81 111 142 176 215 263 318
#     4   9  17  29  47  75 109 141 174 215 266 320
#     4  11  23  38  56  79 109 146 186 226 268 316
#     4  10  22  40  61  84 107 134 173 222 277 331
#     4   9  18  31  48  74 107 144 185 224 264 311
#
# _framework density 18.099540000000001
#
# number of rings (size 3 to 8) (size 9 to 14) (size 15 to 20)
#    0.000    2.200    2.000    0.800    0.000    3.600 
#    0.000    7.000    0.000    2.600    0.000    0.000 
#    0.000    0.000    0.000   10.000    0.000    0.000 
#
# Total GULP energy -668782.298544 kJ/mol
# GULP energy per Si atom -5573.185821 kJ/mol
# Density = 1.805834 g / cm^3
# Si number density = 18.099540 Si / 1000 Ang^3
#
#
#
# Elastic Constant Matrix: (Units=GPa)
#
#
# Indices 1 2 3 4 5 6 
#
# 1 95.6979 81.8855 21.8401 0.0000 0.0000 0.0000
# 2 81.8855 95.6979 21.8401 0.0000 0.0000 0.0000
# 3 21.8401 21.8401 54.6411 0.0000 0.0000 0.0000
# 4 0.0000 0.0000 0.0000 3.3310 0.0000 0.0000
# 5 0.0000 0.0000 0.0000 0.0000 3.3310 0.0000
# 6 0.0000 0.0000 0.0000 0.0000 0.0000 6.9062
#
#
#
# Elastic Compliance Matrix: (Units=1/GPa)
#
#
# Indices 1 2 3 4 5 6 
#
# 1 0.039322 -0.033077 -0.002496 0.000000 0.000000 0.000000
# 2 -0.033077 0.039322 -0.002496 0.000000 0.000000 0.000000
# 3 -0.002496 -0.002496 0.020297 0.000000 0.000000 0.000000
# 4 0.000000 0.000000 0.000000 0.300212 0.000000 0.000000
# 5 0.000000 0.000000 0.000000 0.000000 0.300212 0.000000
# 6 0.000000 0.000000 0.000000 0.000000 0.000000 0.144797
#
#
# Mechanical properties :
#
#
# Convention : Reuss Voigt Hill
#
# Bulk Modulus (GPa) = 43.85536 55.24091 49.54814
# Shear Modulus (GPa) = 5.38850 10.74505 8.06677
#
# Velocity S-wave (km/s) = 1.72731 2.43917 2.11343
# Velocity P-wave (km/s) = 5.31609 6.20641 5.77843
#
# Compressibility (1/GPa) = 0.02280223
#
# Stress axis : x y z
#
# Youngs Moduli (GPa) = 25.43112 25.43112 49.26911
#
# Poissons Ratio (x) = 0.84118 0.12299
# Poissons Ratio (y) = 0.84118 0.12299
# Poissons Ratio (z) = 0.06348 0.06348
#
# Static dielectric constant tensor:
#      x y z
#    x 1.607440 0.000000 0.000000 
#    y 0.000000 1.607440 0.000000 
#    z 0.000000 0.000000 1.670500 
# 
# From -- ./inp_files/4725.got.cif
#   From: 2010.05.17/outbox.cif.g08.bks.cpg/sg191_3_cif.got.tgz:4725.got - 2010.05.20 12:20:32.
