data_PCOD9588993
_publ_section_title
;
Structure prediction by ZEFSAII (Michael W. Deem and Ramdas Pophale) SiO2 
 PCOD9588993
Probable space group: P 63/M C M
;
_chemical_formula_sum "Si O2"
_cell_formula_units_Z 68
_cell_length_a 14.940411
_cell_length_b 14.940411
_cell_length_c 15.213190
_cell_angle_alpha 90.000000
_cell_angle_beta 90.000000
_cell_angle_gamma 120.000000
_cell_volume 2940.871242
_symmetry_space_group_name_H-M "P 63/M C M"
_symmetry_group_IT_number 193
_symmetry_cell_setting 'hexagonal'
loop_
_space_group_symop_operation_xyz
x,y,z
x-y,x,1/2+z
-y,x-y,z
-x,-y,1/2+z
-x+y,-x,z
y,-x+y,1/2+z
x-y,-y,1/2-z
-x,-x+y,1/2-z
y,x,1/2-z
-y,-x,-z
-x+y,y,-z
x,x-y,-z
-x,-y,-z
-x+y,-x,1/2-z
y,-x+y,-z
x,y,1/2-z
x-y,x,-z
-y,x-y,1/2-z
-x+y,y,1/2+z
x,x-y,1/2+z
-y,-x,1/2+z
y,x,z
x-y,-y,z
-x,-x+y,z
loop_
_atom_site_type_symbol
_atom_site_label
_atom_site_fract_x
_atom_site_fract_y
_atom_site_fract_z
Si Si1 0.666668 0.333334 0.858179
Si Si2 0.247147 0.123574 0.500000
Si Si3 0.464963 0.888761 0.356084
Si Si4 0.630258 0.879178 0.846786
O O1 0.666667 0.333334 0.750000
O O2 0.660071 0.434068 0.886761
O O3 0.176360 0.176360 0.501336
O O4 0.323534 0.165040 0.416612
O O5 0.477667 0.891607 0.250000
O O6 0.355667 0.884362 0.371313
O O7 0.554157 0.000000 0.391203
O O8 0.613569 0.831007 0.750000
O O9 0.716623 0.000000 0.839719
#
# Coordination Sequence:
#
# PCOD9588993 Si02
#       4
#     8  12  24  24
#     4   9  15  24  45  76 104 136 178 218 262 316
#     4  10  19  30  46  68  94 126 167 216 268 318
#     4   8  14  26  44  67  97 131 168 213 262 311
#     4   8  15  29  47  65  89 125 165 204 252 308
#
# _framework density 23.122399999999999
#
# number of rings (size 3 to 8) (size 9 to 14) (size 15 to 20)
#    0.000    3.529    0.000    2.294    0.000    0.706 
#    0.000    1.765    0.000   10.588    0.000    7.412 
#    0.000    0.000    0.000    1.059    0.000   33.882 
#
# Total GULP energy -378930.390558 kJ/mol
# GULP energy per Si atom -5572.505743 kJ/mol
# Density = 2.306977 g / cm^3
# Si number density = 23.122400 Si / 1000 Ang^3
#
#
#
# Elastic Constant Matrix: (Units=GPa)
#
#
# Indices 1 2 3 4 5 6 
#
# 1 89.5901 36.8017 3.4906 0.0001 0.0000 -0.0004
# 2 36.8017 89.5886 3.4905 -0.0001 0.0001 -0.0001
# 3 3.4906 3.4905 19.2147 -0.0001 -0.0001 -0.0001
# 4 0.0001 -0.0001 -0.0001 -5.1429 -0.0002 0.0000
# 5 0.0000 0.0001 -0.0001 -0.0002 -5.1424 -0.0001
# 6 -0.0004 -0.0001 -0.0001 0.0000 -0.0001 26.3943
#
#
#
# Elastic Compliance Matrix: (Units=1/GPa)
#
#
# Indices 1 2 3 4 5 6 
#
# 1 0.013468 -0.005476 -0.001452 0.000000 0.000000 0.000000
# 2 -0.005476 0.013468 -0.001452 0.000000 0.000000 0.000000
# 3 -0.001452 -0.001452 0.052571 -0.000001 -0.000001 0.000000
# 4 0.000000 0.000000 -0.000001 -0.194442 0.000009 0.000000
# 5 0.000000 0.000000 -0.000001 0.000009 -0.194461 -0.000001
# 6 0.000000 0.000000 0.000000 0.000000 -0.000001 0.037887
#
#
# Mechanical properties :
#
#
# Convention : Reuss Voigt Hill
#
# Bulk Modulus (GPa) = 15.93679 31.77321 23.85500
# Shear Modulus (GPa) = -21.38263 13.52918 -3.92673
#
# Velocity S-wave (km/s) = -3.04428 2.42153 -1.30458
# Velocity P-wave (km/s) = 2.33443 4.64646 2.84078
#
# Compressibility (1/GPa) = 0.06274789
#
# Stress axis : x y z
#
# Youngs Moduli (GPa) = 74.25081 74.24955 19.02188
#
# Poissons Ratio (x) = 0.40658 0.02762
# Poissons Ratio (y) = 0.40658 0.02762
# Poissons Ratio (z) = 0.10780 0.10780
#
# Static dielectric constant tensor:
#      x y z
#    x 1.890800 0.000000 0.000000 
#    y 0.000000 1.890800 0.000000 
#    z 0.000000 0.000000 1.819890 
# 
# From -- ./inp_files/4806.got.cif
#   From: 2010.05.17/outbox.cif.g08.bks.cpg/sg193_3_cif.got.tgz:4806.got - 2010.05.20 12:33:02.
