data_PCOD9588897
_publ_section_title
;
Structure prediction by ZEFSAII (Michael W. Deem and Ramdas Pophale) SiO2 
 PCOD9588897
Probable space group: P 63/M C M
;
_chemical_formula_sum "Si O2"
_cell_formula_units_Z 168
_cell_length_a 25.453563
_cell_length_b 25.453563
_cell_length_c 19.900481
_cell_angle_alpha 90.000000
_cell_angle_beta 90.000000
_cell_angle_gamma 120.000000
_cell_volume 11165.839284
_symmetry_space_group_name_H-M "P 63/M C M"
_symmetry_group_IT_number 193
_symmetry_cell_setting 'hexagonal'
loop_
_space_group_symop_operation_xyz
x,y,z
x-y,x,1/2+z
-y,x-y,z
-x,-y,1/2+z
-x+y,-x,z
y,-x+y,1/2+z
x-y,-y,1/2-z
-x,-x+y,1/2-z
y,x,1/2-z
-y,-x,-z
-x+y,y,-z
x,x-y,-z
-x,-y,-z
-x+y,-x,1/2-z
y,-x+y,-z
x,y,1/2-z
x-y,x,-z
-y,x-y,1/2-z
-x+y,y,1/2+z
x,x-y,1/2+z
-y,-x,1/2+z
y,x,z
x-y,-y,z
-x,-x+y,z
loop_
_atom_site_type_symbol
_atom_site_label
_atom_site_fract_x
_atom_site_fract_y
_atom_site_fract_z
Si Si1 0.864681 0.071618 0.668943
Si Si2 0.072118 0.680544 0.955088
Si Si3 0.853830 0.853830 0.669160
Si Si4 0.000000 0.731664 0.330369
Si Si5 0.610922 0.891471 0.392221
Si Si6 0.674283 0.819569 0.076874
Si Si7 0.071399 0.473384 0.671153
Si Si8 0.509060 0.073554 0.431055
O O1 0.863667 0.082520 0.750000
O O2 0.934175 0.091217 0.649392
O O3 0.846237 0.113572 0.625689
O O4 0.820248 0.000000 0.656934
O O5 0.103943 0.747292 0.924676
O O6 0.093784 0.634967 0.927482
O O7 0.000000 0.648363 0.945958
O O8 0.086837 0.690082 0.034352
O O9 0.856126 0.856126 0.750000
O O10 0.792452 0.792452 0.649122
O O11 0.942426 0.673109 0.359276
O O12 0.000000 0.729008 0.250000
O O13 0.623315 0.836017 0.400138
O O14 0.556686 0.888518 0.348938
O O15 0.691448 0.845724 0.000000
O O16 0.074088 0.484151 0.750000
O O17 0.089305 0.533830 0.629675
O O18 0.000000 0.425252 0.654118
O O19 0.546958 0.093916 0.500000
O O20 0.470095 0.000000 0.433701
#
# Coordination Sequence:
#
# PCOD9588897 Si02
#       8
#    24  24  12  12  24  24  24  24
#     4  10  20  36  53  69  93 127 170 215 265 325
#     4  10  18  31  48  66  96 133 165 192 228 282
#     4   9  18  32  50  70  90 120 162 215 273 321
#     4  11  18  26  46  69  95 124 152 202 268 311
#     4  11  18  28  44  70 100 127 157 200 247 290
#     4  10  22  33  48  73 100 131 167 205 244 296
#     4  10  18  27  44  72  99 122 154 193 233 280
#     4   9  16  28  46  66  93 128 154 179 219 269
#
# _framework density 15.045890999999999
#
# number of rings (size 3 to 8) (size 9 to 14) (size 15 to 20)
#    0.000    2.000    4.286    0.857    0.000    0.571 
#    1.714    0.714    0.000    2.571    0.000    0.500 
#    1.429    1.429    0.000    0.000    0.000    0.000 
#
# Total GULP energy -935711.595456 kJ/mol
# GULP energy per Si atom -5569.711878 kJ/mol
# Density = 1.501165 g / cm^3
# Si number density = 15.045891 Si / 1000 Ang^3
#
#
#
# Elastic Constant Matrix: (Units=GPa)
#
#
# Indices 1 2 3 4 5 6 
#
# 1 79.9611 41.0355 35.4523 0.0000 0.0000 0.0000
# 2 41.0355 79.9611 35.4523 0.0000 0.0000 0.0000
# 3 35.4523 35.4523 61.4285 0.0000 0.0000 0.0000
# 4 0.0000 0.0000 0.0000 19.7990 0.0000 0.0000
# 5 0.0000 0.0000 0.0000 0.0000 19.7990 0.0000
# 6 0.0000 0.0000 0.0000 0.0000 0.0000 19.4628
#
#
#
# Elastic Compliance Matrix: (Units=1/GPa)
#
#
# Indices 1 2 3 4 5 6 
#
# 1 0.019089 -0.006601 -0.007207 0.000000 0.000000 0.000000
# 2 -0.006601 0.019089 -0.007207 0.000000 0.000000 0.000000
# 3 -0.007207 -0.007207 0.024598 0.000000 0.000000 0.000000
# 4 0.000000 0.000000 0.000000 0.050508 0.000000 0.000000
# 5 0.000000 0.000000 0.000000 0.000000 0.050508 0.000000
# 6 0.000000 0.000000 0.000000 0.000000 0.000000 0.051380
#
#
# Mechanical properties :
#
#
# Convention : Reuss Voigt Hill
#
# Bulk Modulus (GPa) = 48.20363 49.47011 48.83687
# Shear Modulus (GPa) = 18.93092 19.10619 19.01855
#
# Velocity S-wave (km/s) = 3.55098 3.56738 3.55919
# Velocity P-wave (km/s) = 6.99427 7.06534 7.02990
#
# Compressibility (1/GPa) = 0.02074533
#
# Stress axis : x y z
#
# Youngs Moduli (GPa) = 52.38577 52.38577 40.65329
#
# Poissons Ratio (x) = 0.34579 0.29300
# Poissons Ratio (y) = 0.34579 0.29300
# Poissons Ratio (z) = 0.37756 0.37756
#
# Static dielectric constant tensor:
#      x y z
#    x 1.500910 0.000000 0.000000 
#    y 0.000000 1.500910 0.000000 
#    z 0.000000 0.000000 1.507190 
# 
# From -- ./inp_files/6873.got.cif
#   From: 2010.05.17/outbox.cif.g08.bks.cpg/sg193_4_cif.got.tgz:6873.got - 2010.05.20 12:33:02.
