data_PCOD9588542
_publ_section_title
;
Structure prediction by ZEFSAII (Michael W. Deem and Ramdas Pophale) SiO2 
 PCOD9588542
Probable space group: P 6/M C C
;
_chemical_formula_sum "Si O2"
_cell_formula_units_Z 72
_cell_length_a 23.885098
_cell_length_b 23.885098
_cell_length_c 8.673817
_cell_angle_alpha 90.000000
_cell_angle_beta 90.000000
_cell_angle_gamma 120.000000
_cell_volume 4285.435293
_symmetry_space_group_name_H-M "P 6/M C C"
_symmetry_group_IT_number 192
_symmetry_cell_setting 'hexagonal'
loop_
_space_group_symop_operation_xyz
x,y,z
x-y,x,z
-y,x-y,z
-x,-y,z
-x+y,-x,z
y,-x+y,z
x-y,-y,1/2-z
-x,-x+y,1/2-z
y,x,1/2-z
-y,-x,1/2-z
-x+y,y,1/2-z
x,x-y,1/2-z
-x,-y,-z
-x+y,-x,-z
y,-x+y,-z
x,y,-z
x-y,x,-z
-y,x-y,-z
-x+y,y,1/2+z
x,x-y,1/2+z
-y,-x,1/2+z
y,x,1/2+z
x-y,-y,1/2+z
-x,-x+y,1/2+z
loop_
_atom_site_type_symbol
_atom_site_label
_atom_site_fract_x
_atom_site_fract_y
_atom_site_fract_z
Si Si1 0.732862 0.140903 0.184826
Si Si2 0.736245 0.930811 0.684284
Si Si3 0.792696 0.458515 0.315721
O O1 0.796628 0.203373 0.250000
O O2 0.747021 0.083426 0.223581
O O3 0.675717 0.148177 0.260008
O O4 0.730016 0.145391 0.000000
O O5 0.743470 0.871735 0.750000
O O6 0.740519 0.930109 0.500000
O O7 0.787731 0.000000 0.750000
O O8 0.726554 0.453107 0.250000
O O9 0.798667 0.399334 0.250000
O O10 0.789220 0.456447 0.500000
#
# Coordination Sequence:
#
# PCOD9588542 Si02
#       3
#    24  24  24
#     4   9  17  30  47  69  95 126 163 204 247 292
#     4  10  20  34  55  81 109 136 166 201 240 284
#     4  11  20  30  44  64  92 126 165 210 258 308
#
# _framework density 16.801093000000002
#
# number of rings (size 3 to 8) (size 9 to 14) (size 15 to 20)
#    0.000    2.000    0.000    7.333    0.000    4.000 
#    0.000    0.000    0.000    1.333    0.000    9.333 
#    0.000    0.000    0.000    0.000    0.000    0.000 
#
# Total GULP energy -401331.070876 kJ/mol
# GULP energy per Si atom -5574.042651 kJ/mol
# Density = 1.676285 g / cm^3
# Si number density = 16.801093 Si / 1000 Ang^3
#
#
#
# Elastic Constant Matrix: (Units=GPa)
#
#
# Indices 1 2 3 4 5 6 
#
# 1 101.4502 55.7768 46.1911 0.0000 0.0000 0.0000
# 2 55.7768 101.4502 46.1911 0.0000 0.0000 0.0000
# 3 46.1911 46.1911 111.5081 0.0000 0.0000 0.0000
# 4 0.0000 0.0000 0.0000 9.7042 0.0000 0.0000
# 5 0.0000 0.0000 0.0000 0.0000 9.7042 0.0000
# 6 0.0000 0.0000 0.0000 0.0000 0.0000 22.8367
#
#
#
# Elastic Compliance Matrix: (Units=1/GPa)
#
#
# Indices 1 2 3 4 5 6 
#
# 1 0.015150 -0.006744 -0.003482 0.000000 0.000000 0.000000
# 2 -0.006744 0.015150 -0.003482 0.000000 0.000000 0.000000
# 3 -0.003482 -0.003482 0.011853 0.000000 0.000000 0.000000
# 4 0.000000 0.000000 0.000000 0.103048 0.000000 0.000000
# 5 0.000000 0.000000 0.000000 0.000000 0.103048 0.000000
# 6 0.000000 0.000000 0.000000 0.000000 0.000000 0.043789
#
#
# Mechanical properties :
#
#
# Convention : Reuss Voigt Hill
#
# Bulk Modulus (GPa) = 67.85825 67.85850 67.85838
# Shear Modulus (GPa) = 15.41456 19.53232 17.47344
#
# Velocity S-wave (km/s) = 3.03227 3.41334 3.22843
# Velocity P-wave (km/s) = 7.26198 7.48408 7.37387
#
# Compressibility (1/GPa) = 0.01473660
#
# Stress axis : x y z
#
# Youngs Moduli (GPa) = 66.00471 66.00471 84.36749
#
# Poissons Ratio (x) = 0.44515 0.29379
# Poissons Ratio (y) = 0.44515 0.29379
# Poissons Ratio (z) = 0.22984 0.22984
#
# Static dielectric constant tensor:
#      x y z
#    x 1.568700 0.000000 0.000000 
#    y 0.000000 1.568700 0.000000 
#    z 0.000000 0.000000 -0.623380 
# 
# From -- ./inp_files/525.got.cif
#   From: 2010.05.17/outbox.cif.g08.bks.cpg/sg192_1_cif.got.tgz:525.got - 2010.05.20 12:28:01.
