data_PCOD9588575
_publ_section_title
;
Structure prediction by ZEFSAII (Michael W. Deem and Ramdas Pophale) SiO2 
 PCOD9588575
Probable space group: P 6/M C C
;
_chemical_formula_sum "Si O2"
_cell_formula_units_Z 84
_cell_length_a 18.100803
_cell_length_b 18.100803
_cell_length_c 14.817731
_cell_angle_alpha 90.000000
_cell_angle_beta 90.000000
_cell_angle_gamma 120.000000
_cell_volume 4204.438668
_symmetry_space_group_name_H-M "P 6/M C C"
_symmetry_group_IT_number 192
_symmetry_cell_setting 'hexagonal'
loop_
_space_group_symop_operation_xyz
x,y,z
x-y,x,z
-y,x-y,z
-x,-y,z
-x+y,-x,z
y,-x+y,z
x-y,-y,1/2-z
-x,-x+y,1/2-z
y,x,1/2-z
-y,-x,1/2-z
-x+y,y,1/2-z
x,x-y,1/2-z
-x,-y,-z
-x+y,-x,-z
y,-x+y,-z
x,y,-z
x-y,x,-z
-y,x-y,-z
-x+y,y,1/2+z
x,x-y,1/2+z
-y,-x,1/2+z
y,x,1/2+z
x-y,-y,1/2+z
-x,-x+y,1/2+z
loop_
_atom_site_type_symbol
_atom_site_label
_atom_site_fract_x
_atom_site_fract_y
_atom_site_fract_z
Si Si1 0.906473 0.652329 0.300120
Si Si2 0.907948 0.415187 0.107604
Si Si3 0.946202 0.815776 0.393240
Si Si4 0.388878 0.611123 0.750000
O O1 0.818815 0.637630 0.250000
O O2 0.901671 0.569158 0.344004
O O3 0.917426 0.719034 0.376671
O O4 0.000000 0.700872 0.250000
O O5 0.836414 0.424564 0.161942
O O6 0.000000 0.500000 0.121468
O O7 0.893434 0.403124 0.000000
O O8 0.877729 0.838299 0.354395
O O9 0.950796 0.830010 0.500000
O O10 0.424986 0.712493 0.750000
#
# Coordination Sequence:
#
# PCOD9588575 Si02
#       4
#    24  24  24  12
#     4  12  23  39  64  93 132 177 227 285 341 411
#     4  11  25  46  70  98 134 176 220 271 341 412
#     4  10  20  36  56  86 127 173 226 278 334 397
#     4  10  23  44  72 102 132 162 212 274 329 398
#
# _framework density 19.978885999999999
#
# number of rings (size 3 to 8) (size 9 to 14) (size 15 to 20)
#    0.286    0.857    2.857    4.143    0.000    2.286 
#    0.000    2.857    0.000    0.000    0.000    0.000 
#    0.000    0.000    0.000    0.000    0.000    0.000 
#
# Total GULP energy -468234.306650 kJ/mol
# GULP energy per Si atom -5574.217936 kJ/mol
# Density = 1.993341 g / cm^3
# Si number density = 19.978886 Si / 1000 Ang^3
#
#
#
# Elastic Constant Matrix: (Units=GPa)
#
#
# Indices 1 2 3 4 5 6 
#
# 1 140.0965 61.7046 61.2103 0.0000 0.0000 0.0000
# 2 61.7046 140.0965 61.2103 0.0000 0.0000 0.0000
# 3 61.2103 61.2103 109.4523 0.0000 0.0000 0.0000
# 4 0.0000 0.0000 0.0000 28.7375 0.0000 0.0000
# 5 0.0000 0.0000 0.0000 0.0000 28.7375 0.0000
# 6 0.0000 0.0000 0.0000 0.0000 0.0000 39.1959
#
#
#
# Elastic Compliance Matrix: (Units=1/GPa)
#
#
# Indices 1 2 3 4 5 6 
#
# 1 0.010128 -0.002628 -0.004194 0.000000 0.000000 0.000000
# 2 -0.002628 0.010128 -0.004194 0.000000 0.000000 0.000000
# 3 -0.004194 -0.004194 0.013828 0.000000 0.000000 0.000000
# 4 0.000000 0.000000 0.000000 0.034798 0.000000 0.000000
# 5 0.000000 0.000000 0.000000 0.000000 0.034798 0.000000
# 6 0.000000 0.000000 0.000000 0.000000 0.000000 0.025513
#
#
# Mechanical properties :
#
#
# Convention : Reuss Voigt Hill
#
# Bulk Modulus (GPa) = 82.98546 84.21065 83.59806
# Shear Modulus (GPa) = 32.20776 33.03552 32.62164
#
# Velocity S-wave (km/s) = 4.01944 4.07076 4.04518
# Velocity P-wave (km/s) = 7.94783 8.02098 7.98449
#
# Compressibility (1/GPa) = 0.01205030
#
# Stress axis : x y z
#
# Youngs Moduli (GPa) = 98.73548 98.73548 72.31961
#
# Poissons Ratio (x) = 0.25951 0.30332
# Poissons Ratio (y) = 0.25951 0.30332
# Poissons Ratio (z) = 0.41411 0.41411
#
# Static dielectric constant tensor:
#      x y z
#    x 1.729330 0.000000 0.000000 
#    y 0.000000 1.729330 0.000000 
#    z 0.000000 0.000000 1.700920 
# 
# From -- ./inp_files/2578.got.cif
#   From: 2010.05.17/outbox.cif.g08.bks.cpg/sg192_2_cif.got.tgz:2578.got - 2010.05.20 12:28:01.
