data_PCOD9588532
_publ_section_title
;
Structure prediction by ZEFSAII (Michael W. Deem and Ramdas Pophale) SiO2 
 PCOD9588532
Probable space group: P 6/M C C
;
_chemical_formula_sum "Si O2"
_cell_formula_units_Z 168
_cell_length_a 17.498214
_cell_length_b 17.498214
_cell_length_c 29.762316
_cell_angle_alpha 90.000000
_cell_angle_beta 90.000000
_cell_angle_gamma 120.000000
_cell_volume 7891.958672
_symmetry_space_group_name_H-M "P 6/M C C"
_symmetry_group_IT_number 192
_symmetry_cell_setting 'hexagonal'
loop_
_space_group_symop_operation_xyz
x,y,z
x-y,x,z
-y,x-y,z
-x,-y,z
-x+y,-x,z
y,-x+y,z
x-y,-y,1/2-z
-x,-x+y,1/2-z
y,x,1/2-z
-y,-x,1/2-z
-x+y,y,1/2-z
x,x-y,1/2-z
-x,-y,-z
-x+y,-x,-z
y,-x+y,-z
x,y,-z
x-y,x,-z
-y,x-y,-z
-x+y,y,1/2+z
x,x-y,1/2+z
-y,-x,1/2+z
y,x,1/2+z
x-y,-y,1/2+z
-x,-x+y,1/2+z
loop_
_atom_site_type_symbol
_atom_site_label
_atom_site_fract_x
_atom_site_fract_y
_atom_site_fract_z
Si Si1 0.999637 0.591278 0.950134
Si Si2 0.895439 0.467371 0.200412
Si Si3 0.379762 0.145017 0.408077
Si Si4 0.701720 0.039030 0.178384
Si Si5 0.109508 0.203030 0.945992
Si Si6 0.126211 0.676460 0.135941
Si Si7 0.948032 0.818268 0.201247
O O1 0.904224 0.580957 0.938094
O O2 0.000000 0.500000 0.952957
O O3 0.064369 0.637278 0.908043
O O4 0.025993 0.634046 0.000000
O O5 0.860235 0.430118 0.250000
O O6 0.901709 0.560560 0.191889
O O7 0.855528 0.394976 0.160861
O O8 0.000000 0.500000 0.200024
O O9 0.327920 0.073715 0.369614
O O10 0.305565 0.158089 0.432518
O O11 0.445164 0.235207 0.382164
O O12 0.784022 0.058938 0.208616
O O13 0.627204 0.936456 0.171859
O O14 0.157257 0.149570 0.930959
O O15 0.108424 0.199903 0.000000
O O16 0.875900 0.834220 0.176323
O O17 0.919283 0.838565 0.250000
#
# Coordination Sequence:
#
# PCOD9588532 Si02
#       7
#    24  24  24  24  24  24  24
#     4  10  21  38  60  87 120 159 203 251 310 382
#     4   9  19  36  61  88 116 153 202 265 334 396
#     4  11  21  33  55  85 118 155 201 256 315 387
#     4  10  20  35  55  83 115 153 207 261 318 382
#     4  10  20  34  52  79 120 172 227 278 324 372
#     4  10  20  36  58  88 125 158 201 263 329 386
#     4  10  21  35  52  78 118 166 211 255 307 373
#
# _framework density 21.287489999999998
#
# number of rings (size 3 to 8) (size 9 to 14) (size 15 to 20)
#    0.000    2.000    0.000    5.429    0.000    9.143 
#    0.000    0.000    0.000    6.286    0.000    1.000 
#    0.000    0.000    0.000    0.000    0.000    0.000 
#
# Total GULP energy -935417.544131 kJ/mol
# GULP energy per Si atom -5567.961572 kJ/mol
# Density = 2.123904 g / cm^3
# Si number density = 21.287490 Si / 1000 Ang^3
#
#
#
# Elastic Constant Matrix: (Units=GPa)
#
#
# Indices 1 2 3 4 5 6 
#
# 1 109.6552 52.9690 32.1807 0.0000 0.0000 0.0000
# 2 52.9690 109.6552 32.1807 0.0000 0.0000 0.0000
# 3 32.1807 32.1807 94.1352 0.0000 0.0000 0.0000
# 4 0.0000 0.0000 0.0000 19.5886 0.0000 0.0000
# 5 0.0000 0.0000 0.0000 0.0000 19.5886 0.0000
# 6 0.0000 0.0000 0.0000 0.0000 0.0000 28.3431
#
#
#
# Elastic Compliance Matrix: (Units=1/GPa)
#
#
# Indices 1 2 3 4 5 6 
#
# 1 0.012376 -0.005265 -0.002431 0.000000 0.000000 0.000000
# 2 -0.005265 0.012376 -0.002431 0.000000 0.000000 0.000000
# 3 -0.002431 -0.002431 0.012285 0.000000 0.000000 0.000000
# 4 0.000000 0.000000 0.000000 0.051050 0.000000 0.000000
# 5 0.000000 0.000000 0.000000 0.000000 0.051050 0.000000
# 6 0.000000 0.000000 0.000000 0.000000 0.000000 0.035282
#
#
# Mechanical properties :
#
#
# Convention : Reuss Voigt Hill
#
# Bulk Modulus (GPa) = 59.58211 60.90070 60.24140
# Shear Modulus (GPa) = 24.96654 26.57840 25.77247
#
# Velocity S-wave (km/s) = 3.42837 3.53731 3.48327
# Velocity P-wave (km/s) = 6.61224 6.73455 6.67367
#
# Compressibility (1/GPa) = 0.01678356
#
# Stress axis : x y z
#
# Youngs Moduli (GPa) = 80.80071 80.80071 81.39910
#
# Poissons Ratio (x) = 0.42540 0.19788
# Poissons Ratio (y) = 0.42540 0.19788
# Poissons Ratio (z) = 0.19643 0.19643
#
# Static dielectric constant tensor:
#      x y z
#    x 1.631340 0.000000 0.000000 
#    y 0.000000 1.631340 0.000000 
#    z 0.000000 0.000000 1.779470 
# 
# From -- ./inp_files/7203.got.cif
#   From: 2010.05.17/outbox.cif.g08.bks.cpg/sg192_4_cif.got.tgz:7203.got - 2010.05.20 12:28:01.
