data_PCOD9588660
_publ_section_title
;
Structure prediction by ZEFSAII (Michael W. Deem and Ramdas Pophale) SiO2 
 PCOD9588660
Probable space group: P 6/M C C
;
_chemical_formula_sum "Si O2"
_cell_formula_units_Z 108
_cell_length_a 21.414806
_cell_length_b 21.414806
_cell_length_c 14.770602
_cell_angle_alpha 90.000000
_cell_angle_beta 90.000000
_cell_angle_gamma 120.000000
_cell_volume 5866.203390
_symmetry_space_group_name_H-M "P 6/M C C"
_symmetry_group_IT_number 192
_symmetry_cell_setting 'hexagonal'
loop_
_space_group_symop_operation_xyz
x,y,z
x-y,x,z
-y,x-y,z
-x,-y,z
-x+y,-x,z
y,-x+y,z
x-y,-y,1/2-z
-x,-x+y,1/2-z
y,x,1/2-z
-y,-x,1/2-z
-x+y,y,1/2-z
x,x-y,1/2-z
-x,-y,-z
-x+y,-x,-z
y,-x+y,-z
x,y,-z
x-y,x,-z
-y,x-y,-z
-x+y,y,1/2+z
x,x-y,1/2+z
-y,-x,1/2+z
y,x,1/2+z
x-y,-y,1/2+z
-x,-x+y,1/2+z
loop_
_atom_site_type_symbol
_atom_site_label
_atom_site_fract_x
_atom_site_fract_y
_atom_site_fract_z
Si Si1 0.211991 0.328060 0.832041
Si Si2 0.014486 0.395592 0.346688
Si Si3 0.198068 0.430512 0.500000
Si Si4 0.050098 0.163404 0.390015
Si Si5 0.396183 0.890877 0.500000
Si Si6 0.451051 0.350722 0.000000
O O1 0.170550 0.341099 0.750000
O O2 0.296046 0.351915 0.822145
O O3 0.215108 0.377935 0.914790
O O4 0.166957 0.243432 0.855177
O O5 0.065135 0.461997 0.411266
O O6 0.000000 0.419009 0.250000
O O7 0.944751 0.351834 0.410938
O O8 0.177890 0.493727 0.500000
O O9 0.281660 0.459548 0.500000
O O10 0.106287 0.137660 0.361752
O O11 0.050586 0.165710 0.500000
O O12 0.469254 0.888894 0.500000
#
# Coordination Sequence:
#
# PCOD9588660 Si02
#       6
#    24  24  12  24  12  12
#     4  11  23  36  57  87 120 155 199 241 299 350
#     4  10  21  36  60  89 121 153 192 239 295 347
#     4  10  22  42  58  83 128 149 184 248 292 350
#     4  10  22  37  56  77 111 157 206 256 302 347
#     4   9  22  41  57  93 119 151 191 240 291 357
#     4  11  22  37  67  88 118 155 200 236 292 357
#
# _framework density 18.410544000000002
#
# number of rings (size 3 to 8) (size 9 to 14) (size 15 to 20)
#    0.000    1.778    1.111    3.556    6.222    2.667 
#    0.667    0.000    0.000    1.333    0.000    0.000 
#    0.000    0.000    0.000    0.000    0.000    0.000 
#
# Total GULP energy -602985.383659 kJ/mol
# GULP energy per Si atom -5583.197997 kJ/mol
# Density = 1.836864 g / cm^3
# Si number density = 18.410544 Si / 1000 Ang^3
#
#
#
# Elastic Constant Matrix: (Units=GPa)
#
#
# Indices 1 2 3 4 5 6 
#
# 1 118.8791 83.3564 44.8425 0.0000 0.0000 0.0000
# 2 83.3564 118.8791 44.8425 0.0000 0.0000 0.0000
# 3 44.8425 44.8425 121.8346 0.0000 0.0000 0.0000
# 4 0.0000 0.0000 0.0000 -3.0750 0.0000 0.0000
# 5 0.0000 0.0000 0.0000 0.0000 -3.0750 0.0000
# 6 0.0000 0.0000 0.0000 0.0000 0.0000 17.7614
#
#
#
# Elastic Compliance Matrix: (Units=1/GPa)
#
#
# Indices 1 2 3 4 5 6 
#
# 1 0.017030 -0.011121 -0.002175 0.000000 0.000000 0.000000
# 2 -0.011121 0.017030 -0.002175 0.000000 0.000000 0.000000
# 3 -0.002175 -0.002175 0.009809 0.000000 0.000000 0.000000
# 4 0.000000 0.000000 0.000000 -0.325206 0.000000 0.000000
# 5 0.000000 0.000000 0.000000 0.000000 -0.325206 0.000000
# 6 0.000000 0.000000 0.000000 0.000000 0.000000 0.056302
#
#
# Mechanical properties :
#
#
# Convention : Reuss Voigt Hill
#
# Bulk Modulus (GPa) = 77.35422 78.40840 77.88131
# Shear Modulus (GPa) = -9.70892 14.75905 2.52507
#
# Velocity S-wave (km/s) = -2.29892 2.83444 1.17240
# Velocity P-wave (km/s) = 5.92122 7.30708 6.65034
#
# Compressibility (1/GPa) = 0.01292754
#
# Stress axis : x y z
#
# Youngs Moduli (GPa) = 58.71950 58.71950 101.94840
#
# Poissons Ratio (x) = 0.65301 0.22173
# Poissons Ratio (y) = 0.65301 0.22173
# Poissons Ratio (z) = 0.12771 0.12771
#
# Static dielectric constant tensor:
#      x y z
#    x 1.620250 0.000000 0.000000 
#    y 0.000000 1.620250 0.000000 
#    z 0.000000 0.000000 1.641090 
# 
# From -- ./inp_files/4156.got.cif
#   From: 2010.05.17/outbox.cif.g08.bks.cpg/sg192_3_cif.got.tgz:4156.got - 2010.05.20 12:28:01.
