data_PCOD9588723
_publ_section_title
;
Structure prediction by ZEFSAII (Michael W. Deem and Ramdas Pophale) SiO2 
 PCOD9588723
Probable space group: P 6/M C C
;
_chemical_formula_sum "Si O2"
_cell_formula_units_Z 168
_cell_length_a 18.188274
_cell_length_b 18.188274
_cell_length_c 30.765593
_cell_angle_alpha 90.000000
_cell_angle_beta 90.000000
_cell_angle_gamma 120.000000
_cell_volume 8814.118769
_symmetry_space_group_name_H-M "P 6/M C C"
_symmetry_group_IT_number 192
_symmetry_cell_setting 'hexagonal'
loop_
_space_group_symop_operation_xyz
x,y,z
x-y,x,z
-y,x-y,z
-x,-y,z
-x+y,-x,z
y,-x+y,z
x-y,-y,1/2-z
-x,-x+y,1/2-z
y,x,1/2-z
-y,-x,1/2-z
-x+y,y,1/2-z
x,x-y,1/2-z
-x,-y,-z
-x+y,-x,-z
y,-x+y,-z
x,y,-z
x-y,x,-z
-y,x-y,-z
-x+y,y,1/2+z
x,x-y,1/2+z
-y,-x,1/2+z
y,x,1/2+z
x-y,-y,1/2+z
-x,-x+y,1/2+z
loop_
_atom_site_type_symbol
_atom_site_label
_atom_site_fract_x
_atom_site_fract_y
_atom_site_fract_z
Si Si1 0.897333 0.365329 0.252424
Si Si2 0.883707 0.631921 0.672772
Si Si3 0.720088 0.636128 0.335255
Si Si4 0.735082 0.114083 0.577741
Si Si5 0.038306 0.442578 0.084060
Si Si6 0.944860 0.806054 0.448141
Si Si7 0.600532 0.143471 0.000000
Si Si8 0.214210 0.737185 0.000000
O O1 0.864313 0.432157 0.250000
O O2 0.867127 0.297439 0.213295
O O3 0.883581 0.319857 0.298435
O O4 0.000000 0.420602 0.250000
O O5 0.820274 0.669730 0.669890
O O6 0.863891 0.584447 0.626263
O O7 0.985987 0.695601 0.672928
O O8 0.670880 0.590278 0.380009
O O9 0.800931 0.079829 0.577938
O O10 0.768590 0.188544 0.543020
O O11 0.644076 0.037407 0.564252
O O12 0.000000 0.500000 0.103688
O O13 0.095356 0.495389 0.043734
O O14 0.878957 0.838309 0.439197
O O15 0.939715 0.786325 0.500000
O O16 0.523881 0.160738 0.000000
O O17 0.687844 0.231115 0.000000
#
# Coordination Sequence:
#
# PCOD9588723 Si02
#       8
#    24  24  24  24  24  24  12  12
#     4   9  19  35  63  91 119 154 197 248 307 368
#     4  10  22  38  57  95 122 161 201 258 309 370
#     4  10  22  38  64  90 125 158 207 254 311 377
#     4  11  23  36  58  86 119 155 210 255 303 363
#     4  11  23  39  61  88 115 158 209 260 304 360
#     4  10  22  37  58  86 122 166 211 261 318 371
#     4  12  25  39  60  81 121 157 204 252 310 367
#     4  12  24  40  55  80 115 161 199 251 311 370
#
# _framework density 19.060328999999999
#
# number of rings (size 3 to 8) (size 9 to 14) (size 15 to 20)
#    0.000    1.571    2.143    2.214   12.000    0.571 
#    0.000    0.000    0.000    2.571    0.000    0.000 
#    0.000    3.429    0.000    0.000    0.000    0.000 
#
# Total GULP energy -936800.036598 kJ/mol
# GULP energy per Si atom -5576.190694 kJ/mol
# Density = 1.901695 g / cm^3
# Si number density = 19.060329 Si / 1000 Ang^3
#
#
#
# Elastic Constant Matrix: (Units=GPa)
#
#
# Indices 1 2 3 4 5 6 
#
# 1 86.8032 37.3421 35.7929 0.0000 0.0000 0.0000
# 2 37.3421 86.8032 35.7929 0.0000 0.0000 0.0000
# 3 35.7929 35.7929 98.1804 0.0000 0.0000 0.0000
# 4 0.0000 0.0000 0.0000 16.8143 0.0000 0.0000
# 5 0.0000 0.0000 0.0000 0.0000 16.8143 0.0000
# 6 0.0000 0.0000 0.0000 0.0000 0.0000 24.7306
#
#
#
# Elastic Compliance Matrix: (Units=1/GPa)
#
#
# Indices 1 2 3 4 5 6 
#
# 1 0.015208 -0.005009 -0.003718 0.000000 0.000000 0.000000
# 2 -0.005009 0.015208 -0.003718 0.000000 0.000000 0.000000
# 3 -0.003718 -0.003718 0.012896 0.000000 0.000000 0.000000
# 4 0.000000 0.000000 0.000000 0.059473 0.000000 0.000000
# 5 0.000000 0.000000 0.000000 0.000000 0.059473 0.000000
# 6 0.000000 0.000000 0.000000 0.000000 0.000000 0.040436
#
#
# Mechanical properties :
#
#
# Convention : Reuss Voigt Hill
#
# Bulk Modulus (GPa) = 54.28367 54.40471 54.34419
# Shear Modulus (GPa) = 21.39245 22.52913 21.96079
#
# Velocity S-wave (km/s) = 3.35379 3.44174 3.39805
# Velocity P-wave (km/s) = 6.59841 6.66329 6.63093
#
# Compressibility (1/GPa) = 0.01842175
#
# Stress axis : x y z
#
# Youngs Moduli (GPa) = 65.75274 65.75274 77.54119
#
# Poissons Ratio (x) = 0.32938 0.28831
# Poissons Ratio (y) = 0.32938 0.28831
# Poissons Ratio (z) = 0.24448 0.24448
#
# Static dielectric constant tensor:
#      x y z
#    x 1.671980 0.000000 0.000000 
#    y 0.000000 1.671980 0.000000 
#    z 0.000000 0.000000 1.696180 
# 
# From -- ./inp_files/7235.got.cif
#   From: 2010.05.17/outbox.cif.g08.bks.cpg/sg192_4_cif.got.tgz:7235.got - 2010.05.20 12:28:01.
