data_PCOD9588840
_publ_section_title
;
Structure prediction by ZEFSAII (Michael W. Deem and Ramdas Pophale) SiO2 
 PCOD9588840
Probable space group: P 6/M C C
;
_chemical_formula_sum "Si O2"
_cell_formula_units_Z 52
_cell_length_a 9.607264
_cell_length_b 9.607264
_cell_length_c 34.326939
_cell_angle_alpha 90.000000
_cell_angle_beta 90.000000
_cell_angle_gamma 120.000000
_cell_volume 2743.880289
_symmetry_space_group_name_H-M "P 6/M C C"
_symmetry_group_IT_number 192
_symmetry_cell_setting 'hexagonal'
loop_
_space_group_symop_operation_xyz
x,y,z
x-y,x,z
-y,x-y,z
-x,-y,z
-x+y,-x,z
y,-x+y,z
x-y,-y,1/2-z
-x,-x+y,1/2-z
y,x,1/2-z
-y,-x,1/2-z
-x+y,y,1/2-z
x,x-y,1/2-z
-x,-y,-z
-x+y,-x,-z
y,-x+y,-z
x,y,-z
x-y,x,-z
-y,x-y,-z
-x+y,y,1/2+z
x,x-y,1/2+z
-y,-x,1/2+z
y,x,1/2+z
x-y,-y,1/2+z
-x,-x+y,1/2+z
loop_
_atom_site_type_symbol
_atom_site_label
_atom_site_fract_x
_atom_site_fract_y
_atom_site_fract_z
Si Si1 0.333334 0.666668 0.296145
Si Si2 0.500000 0.500000 0.411695
Si Si3 0.274759 0.913575 0.838733
Si Si4 0.333334 0.666667 0.046464
O O1 0.333334 0.666667 0.250000
O O2 0.475977 0.833827 0.313257
O O3 0.347609 0.415366 0.382227
O O4 0.540185 0.384883 0.437386
O O5 0.089020 0.786514 0.831564
O O6 0.333334 0.666668 0.000000
#
# Coordination Sequence:
#
# PCOD9588840 Si02
#       4
#     8  12  24   8
#     4  12  25  44  70 102 142 173 226 285 343 413
#     4  12  21  42  69  94 132 180 240 280 339 446
#     4  12  23  42  69  98 131 184 230 277 342 409
#     4  12  25  41  67 102 139 176 229 306 367 413
#
# _framework density 18.951263000000001
#
# number of rings (size 3 to 8) (size 9 to 14) (size 15 to 20)
#    0.000    0.000    9.231    1.154    0.000    3.692 
#    0.000    0.000    0.000    2.769    0.000    6.462 
#    0.000    0.000    0.000    0.000    0.000    0.000 
#
# Total GULP energy -289956.287268 kJ/mol
# GULP energy per Si atom -5576.082447 kJ/mol
# Density = 1.890813 g / cm^3
# Si number density = 18.951263 Si / 1000 Ang^3
#
#
#
# Elastic Constant Matrix: (Units=GPa)
#
#
# Indices 1 2 3 4 5 6 
#
# 1 151.0071 70.6263 62.1618 -0.0001 0.0002 0.0001
# 2 70.6263 151.0083 62.1622 -0.0003 0.0000 0.0001
# 3 62.1618 62.1622 130.6953 0.0005 0.0005 0.0001
# 4 -0.0001 -0.0003 0.0005 -8.2860 -0.0012 0.0001
# 5 0.0002 0.0000 0.0005 -0.0012 -8.2810 -0.0001
# 6 0.0001 0.0001 0.0001 0.0001 -0.0001 40.1907
#
#
#
# Elastic Compliance Matrix: (Units=1/GPa)
#
#
# Indices 1 2 3 4 5 6 
#
# 1 0.009297 -0.003143 -0.002927 0.000000 0.000000 0.000000
# 2 -0.003143 0.009297 -0.002927 0.000000 0.000000 0.000000
# 3 -0.002927 -0.002927 0.010436 0.000001 0.000001 0.000000
# 4 0.000000 0.000000 0.000001 -0.120685 0.000018 0.000000
# 5 0.000000 0.000000 0.000001 0.000018 -0.120759 0.000000
# 6 0.000000 0.000000 0.000000 0.000000 0.000000 0.024881
#
#
# Mechanical properties :
#
#
# Convention : Reuss Voigt Hill
#
# Bulk Modulus (GPa) = 90.61609 91.40125 91.00867
# Shear Modulus (GPa) = -30.14600 20.57543 -4.78529
#
# Velocity S-wave (km/s) = -3.99270 3.29857 -1.59076
# Velocity P-wave (km/s) = 5.16368 7.92728 6.68975
#
# Compressibility (1/GPa) = 0.01103557
#
# Stress axis : x y z
#
# Youngs Moduli (GPa) = 107.55859 107.55933 95.82595
#
# Poissons Ratio (x) = 0.33811 0.28047
# Poissons Ratio (y) = 0.33811 0.28047
# Poissons Ratio (z) = 0.31481 0.31481
#
# Static dielectric constant tensor:
#      x y z
#    x 1.380710 -0.000070 0.000000 
#    y -0.000070 1.380540 0.000000 
#    z 0.000000 0.000000 1.636090 
# 
# From -- ./inp_files/6710.got.cif
#   From: 2010.05.17/outbox.cif.g08.bks.cpg/sg192_4_cif.got.tgz:6710.got - 2010.05.20 12:28:01.
