data_PCOD9588994
_publ_section_title
;
Structure prediction by ZEFSAII (Michael W. Deem and Ramdas Pophale) SiO2 
 PCOD9588994
Probable space group: P 63/M C M
;
_chemical_formula_sum "Si O2"
_cell_formula_units_Z 144
_cell_length_a 32.895846
_cell_length_b 32.895846
_cell_length_c 8.910151
_cell_angle_alpha 90.000000
_cell_angle_beta 90.000000
_cell_angle_gamma 120.000000
_cell_volume 8350.218032
_symmetry_space_group_name_H-M "P 63/M C M"
_symmetry_group_IT_number 193
_symmetry_cell_setting 'hexagonal'
loop_
_space_group_symop_operation_xyz
x,y,z
x-y,x,1/2+z
-y,x-y,z
-x,-y,1/2+z
-x+y,-x,z
y,-x+y,1/2+z
x-y,-y,1/2-z
-x,-x+y,1/2-z
y,x,1/2-z
-y,-x,-z
-x+y,y,-z
x,x-y,-z
-x,-y,-z
-x+y,-x,1/2-z
y,-x+y,-z
x,y,1/2-z
x-y,x,-z
-y,x-y,1/2-z
-x+y,y,1/2+z
x,x-y,1/2+z
-y,-x,1/2+z
y,x,z
x-y,-y,z
-x,-x+y,z
loop_
_atom_site_type_symbol
_atom_site_label
_atom_site_fract_x
_atom_site_fract_y
_atom_site_fract_z
Si Si1 0.608429 0.053733 0.069777
Si Si2 0.860360 0.053572 0.930817
Si Si3 0.302083 0.194273 0.928715
Si Si4 0.144915 0.529083 0.429304
Si Si5 0.717544 0.193894 0.071007
Si Si6 0.284276 0.381286 0.427167
O O1 0.607915 0.061539 0.250000
O O2 0.660973 0.063943 0.033910
O O3 0.570987 0.000000 0.036165
O O4 0.601686 0.092424 0.983530
O O5 0.863878 0.055168 0.750000
O O6 0.825576 0.073379 0.972160
O O7 0.838646 0.000000 0.979937
O O8 0.910496 0.089505 0.000000
O O9 0.304650 0.192096 0.750000
O O10 0.316570 0.158285 0.000000
O O11 0.336202 0.246661 0.984382
O O12 0.156941 0.578471 0.500000
O O13 0.147039 0.531238 0.250000
O O14 0.178498 0.510769 0.494658
O O15 0.714594 0.198733 0.250000
O O16 0.726077 0.149975 0.046114
O O17 0.759509 0.240492 0.000000
O O18 0.278955 0.370671 0.250000
#
# Coordination Sequence:
#
# PCOD9588994 Si02
#       6
#    24  24  24  24  24  24
#     4   9  19  36  54  73 101 137 177 221 266 310
#     4   9  19  35  52  72  98 126 159 200 244 291
#     4  10  19  30  46  68  97 132 167 203 243 289
#     4  11  22  37  57  80 106 137 174 217 264 314
#     4  10  20  35  55  80 108 138 173 213 259 309
#     4   9  18  31  48  72 103 137 173 213 253 295
#
# _framework density 17.245059000000001
#
# number of rings (size 3 to 8) (size 9 to 14) (size 15 to 20)
#    0.000    2.333    0.000    4.000    0.000    7.000 
#    0.000    0.000    0.000    0.500    0.000    2.333 
#    0.000    0.000    0.000    0.000    0.000    0.000 
#
# Total GULP energy -803774.985674 kJ/mol
# GULP energy per Si atom -5581.770734 kJ/mol
# Density = 1.720581 g / cm^3
# Si number density = 17.245059 Si / 1000 Ang^3
#
#
#
# Elastic Constant Matrix: (Units=GPa)
#
#
# Indices 1 2 3 4 5 6 
#
# 1 62.6522 41.0348 41.7607 0.0000 0.0000 0.0000
# 2 41.0348 62.6522 41.7607 0.0000 0.0000 0.0000
# 3 41.7607 41.7607 64.0323 0.0000 0.0000 0.0000
# 4 0.0000 0.0000 0.0000 27.6602 0.0000 0.0000
# 5 0.0000 0.0000 0.0000 0.0000 27.6602 0.0000
# 6 0.0000 0.0000 0.0000 0.0000 0.0000 10.8087
#
#
#
# Elastic Compliance Matrix: (Units=1/GPa)
#
#
# Indices 1 2 3 4 5 6 
#
# 1 0.033289 -0.012970 -0.013251 0.000000 0.000000 0.000000
# 2 -0.012970 0.033289 -0.013251 0.000000 0.000000 0.000000
# 3 -0.013251 -0.013251 0.032902 0.000000 0.000000 0.000000
# 4 0.000000 0.000000 0.000000 0.036153 0.000000 0.000000
# 5 0.000000 0.000000 0.000000 0.000000 0.036153 0.000000
# 6 0.000000 0.000000 0.000000 0.000000 0.000000 0.092518
#
#
# Mechanical properties :
#
#
# Convention : Reuss Voigt Hill
#
# Bulk Modulus (GPa) = 48.70136 48.71659 48.70897
# Shear Modulus (GPa) = 14.28187 17.54452 15.91320
#
# Velocity S-wave (km/s) = 2.88092 3.19308 3.04101
# Velocity P-wave (km/s) = 6.27442 6.47343 6.37470
#
# Compressibility (1/GPa) = 0.02053331
#
# Stress axis : x y z
#
# Youngs Moduli (GPa) = 30.04012 30.04012 30.39345
#
# Poissons Ratio (x) = 0.38963 0.40276
# Poissons Ratio (y) = 0.38963 0.40276
# Poissons Ratio (z) = 0.39808 0.39808
#
# Static dielectric constant tensor:
#      x y z
#    x 1.571860 0.000000 0.000000 
#    y 0.000000 1.571860 0.000000 
#    z 0.000000 0.000000 1.575030 
# 
# From -- ./inp_files/1550.got.cif
#   From: 2010.05.17/outbox.cif.g08.bks.cpg/sg193_1_cif.got.tgz:1550.got - 2010.05.20 12:33:02.
