data_PCOD9588390
_publ_section_title
;
Structure prediction by ZEFSAII (Michael W. Deem and Ramdas Pophale) SiO2 
 PCOD9588390
Probable space group: P 6/M C C
;
_chemical_formula_sum "Si O2"
_cell_formula_units_Z 126
_cell_length_a 21.858792
_cell_length_b 21.858792
_cell_length_c 17.755780
_cell_angle_alpha 90.000000
_cell_angle_beta 90.000000
_cell_angle_gamma 120.000000
_cell_volume 7347.214211
_symmetry_space_group_name_H-M "P 6/M C C"
_symmetry_group_IT_number 192
_symmetry_cell_setting 'hexagonal'
loop_
_space_group_symop_operation_xyz
x,y,z
x-y,x,z
-y,x-y,z
-x,-y,z
-x+y,-x,z
y,-x+y,z
x-y,-y,1/2-z
-x,-x+y,1/2-z
y,x,1/2-z
-y,-x,1/2-z
-x+y,y,1/2-z
x,x-y,1/2-z
-x,-y,-z
-x+y,-x,-z
y,-x+y,-z
x,y,-z
x-y,x,-z
-y,x-y,-z
-x+y,y,1/2+z
x,x-y,1/2+z
-y,-x,1/2+z
y,x,1/2+z
x-y,-y,1/2+z
-x,-x+y,1/2+z
loop_
_atom_site_type_symbol
_atom_site_label
_atom_site_fract_x
_atom_site_fract_y
_atom_site_fract_z
Si Si1 0.000000 0.500000 0.750000
Si Si2 0.349238 0.933305 0.829257
Si Si3 0.928570 0.299993 0.910428
Si Si4 0.077993 0.779261 0.771528
Si Si5 0.331839 0.802675 0.090879
Si Si6 0.193030 0.528115 0.408740
O O1 0.046927 0.473206 0.795676
O O2 0.288446 0.922673 0.769637
O O3 0.318945 0.862349 0.876137
O O4 0.362430 0.997116 0.884209
O O5 0.918306 0.234672 0.860100
O O6 0.868336 0.318898 0.888090
O O7 0.925774 0.288872 0.000000
O O8 0.145966 0.854035 0.750000
O O9 0.000000 0.766193 0.750000
O O10 0.407868 0.816921 0.116913
O O11 0.269112 0.727050 0.115734
O O12 0.331729 0.804517 0.000000
O O13 0.193480 0.529881 0.500000
#
# Coordination Sequence:
#
# PCOD9588390 Si02
#       6
#     6  24  24  24  24  24
#     4  12  20  36  50  76 104 148 188 232 288 328
#     4  11  21  34  53  73 106 141 183 228 277 332
#     4  10  19  35  55  80 105 136 183 232 270 325
#     4  10  21  39  59  83 112 149 179 222 282 340
#     4  10  19  31  49  71  96 136 174 221 276 328
#     4   9  18  30  45  68  98 127 170 219 268 318
#
# _framework density 17.149356999999998
#
# number of rings (size 3 to 8) (size 9 to 14) (size 15 to 20)
#    0.000    1.905    2.857    3.238    0.000    1.524 
#    0.000    7.619    0.000    0.190    0.000    0.000 
#    0.000    0.000    0.000    6.857    0.000    0.000 
#
# Total GULP energy -702298.003620 kJ/mol
# GULP energy per Si atom -5573.793680 kJ/mol
# Density = 1.711032 g / cm^3
# Si number density = 17.149357 Si / 1000 Ang^3
#
#
#
# Elastic Constant Matrix: (Units=GPa)
#
#
# Indices 1 2 3 4 5 6 
#
# 1 88.2020 35.0639 34.8531 0.0000 0.0000 0.0000
# 2 35.0639 88.2020 34.8531 0.0000 0.0000 0.0000
# 3 34.8531 34.8531 64.4723 0.0000 0.0000 0.0000
# 4 0.0000 0.0000 0.0000 16.7017 0.0000 0.0000
# 5 0.0000 0.0000 0.0000 0.0000 16.7017 0.0000
# 6 0.0000 0.0000 0.0000 0.0000 0.0000 26.5690
#
#
#
# Elastic Compliance Matrix: (Units=1/GPa)
#
#
# Indices 1 2 3 4 5 6 
#
# 1 0.015252 -0.003567 -0.006317 0.000000 0.000000 0.000000
# 2 -0.003567 0.015252 -0.006317 0.000000 0.000000 0.000000
# 3 -0.006317 -0.006317 0.022340 0.000000 0.000000 0.000000
# 4 0.000000 0.000000 0.000000 0.059874 0.000000 0.000000
# 5 0.000000 0.000000 0.000000 0.000000 0.059874 0.000000
# 6 0.000000 0.000000 0.000000 0.000000 0.000000 0.037638
#
#
# Mechanical properties :
#
#
# Convention : Reuss Voigt Hill
#
# Bulk Modulus (GPa) = 48.91712 50.04627 49.48170
# Shear Modulus (GPa) = 20.04458 21.06824 20.55641
#
# Velocity S-wave (km/s) = 3.42252 3.50882 3.46594
# Velocity P-wave (km/s) = 6.64863 6.75734 6.70321
#
# Compressibility (1/GPa) = 0.02044274
#
# Stress axis : x y z
#
# Youngs Moduli (GPa) = 65.56641 65.56641 44.76306
#
# Poissons Ratio (x) = 0.23389 0.28275
# Poissons Ratio (y) = 0.23389 0.28275
# Poissons Ratio (z) = 0.41415 0.41415
#
# Static dielectric constant tensor:
#      x y z
#    x 1.576780 0.000000 0.000000 
#    y 0.000000 1.576780 0.000000 
#    z 0.000000 0.000000 1.605000 
# 
# From -- ./inp_files/4210.got.cif
#   From: 2010.05.17/outbox.cif.g08.bks.cpg/sg192_3_cif.got.tgz:4210.got - 2010.05.20 12:28:01.
