data_PCOD9588463
_publ_section_title
;
Structure prediction by ZEFSAII (Michael W. Deem and Ramdas Pophale) SiO2 
 PCOD9588463
Probable space group: P 6/M C C
;
_chemical_formula_sum "Si O2"
_cell_formula_units_Z 152
_cell_length_a 18.880412
_cell_length_b 18.880412
_cell_length_c 26.329039
_cell_angle_alpha 90.000000
_cell_angle_beta 90.000000
_cell_angle_gamma 120.000000
_cell_volume 8128.091307
_symmetry_space_group_name_H-M "P 6/M C C"
_symmetry_group_IT_number 192
_symmetry_cell_setting 'hexagonal'
loop_
_space_group_symop_operation_xyz
x,y,z
x-y,x,z
-y,x-y,z
-x,-y,z
-x+y,-x,z
y,-x+y,z
x-y,-y,1/2-z
-x,-x+y,1/2-z
y,x,1/2-z
-y,-x,1/2-z
-x+y,y,1/2-z
x,x-y,1/2-z
-x,-y,-z
-x+y,-x,-z
y,-x+y,-z
x,y,-z
x-y,x,-z
-y,x-y,-z
-x+y,y,1/2+z
x,x-y,1/2+z
-y,-x,1/2+z
y,x,1/2+z
x-y,-y,1/2+z
-x,-x+y,1/2+z
loop_
_atom_site_type_symbol
_atom_site_label
_atom_site_fract_x
_atom_site_fract_y
_atom_site_fract_z
Si Si1 0.722299 0.509491 0.808064
Si Si2 0.666668 0.333334 0.309830
Si Si3 0.485102 0.907602 0.058441
Si Si4 0.328180 0.225111 0.940839
Si Si5 0.532110 0.869071 0.620360
Si Si6 0.074323 0.734824 0.061968
Si Si7 0.594886 0.574835 0.193275
O O1 0.758500 0.517000 0.750000
O O2 0.663702 0.413980 0.821767
O O3 0.797798 0.531290 0.845847
O O4 0.665818 0.551015 0.813659
O O5 0.666668 0.333334 0.250000
O O6 0.413766 0.862455 0.099735
O O7 0.569781 0.910602 0.072480
O O8 0.500000 0.000000 0.058619
O O9 0.464319 0.877091 0.000000
O O10 0.420626 0.296003 0.931679
O O11 0.323404 0.144837 0.918261
O O12 0.276939 0.265045 0.920107
O O13 0.309454 0.209603 0.000000
O O14 0.585182 0.952476 0.652498
O O15 0.073171 0.736016 0.000000
O O16 0.500000 0.500000 0.193429
O O17 0.610409 0.610409 0.250000
#
# Coordination Sequence:
#
# PCOD9588463 Si02
#       7
#    24   8  24  24  24  24  24
#     4  11  23  41  56  83 114 153 204 258 306 357
#     4   9  21  36  57  72 109 149 190 249 303 345
#     4  10  19  35  58  88 124 159 200 247 302 367
#     4  10  21  36  55  86 116 148 191 240 295 355
#     4  12  23  34  61  83 115 157 196 246 294 367
#     4   9  19  36  57  83 121 157 192 243 292 355
#     4  11  24  40  59  81 112 151 203 252 305 360
#
# _framework density 18.700578
#
# number of rings (size 3 to 8) (size 9 to 14) (size 15 to 20)
#    0.000    1.579    3.158    1.895    6.632    1.263 
#    0.000    0.000    0.000    0.947    0.000    4.421 
#    0.000    0.000    0.000    0.000    3.474    0.000 
#
# Total GULP energy -846389.289329 kJ/mol
# GULP energy per Si atom -5568.350588 kJ/mol
# Density = 1.865801 g / cm^3
# Si number density = 18.700578 Si / 1000 Ang^3
#
#
#
# Elastic Constant Matrix: (Units=GPa)
#
#
# Indices 1 2 3 4 5 6 
#
# 1 132.8322 80.6119 32.9722 -0.0001 0.0001 -0.0002
# 2 80.6119 132.8328 32.9722 0.0002 0.0000 0.0004
# 3 32.9722 32.9722 75.2892 0.0000 0.0000 0.0000
# 4 -0.0001 0.0002 0.0000 17.7419 0.0002 0.0000
# 5 0.0001 0.0000 0.0000 0.0002 17.7417 0.0001
# 6 -0.0002 0.0004 0.0000 0.0000 0.0001 26.1099
#
#
#
# Elastic Compliance Matrix: (Units=1/GPa)
#
#
# Indices 1 2 3 4 5 6 
#
# 1 0.012284 -0.006866 -0.002373 0.000000 0.000000 0.000000
# 2 -0.006866 0.012284 -0.002373 0.000000 0.000000 0.000000
# 3 -0.002373 -0.002373 0.015360 0.000000 0.000000 0.000000
# 4 0.000000 0.000000 0.000000 0.056364 -0.000001 0.000000
# 5 0.000000 0.000000 0.000000 -0.000001 0.056364 0.000000
# 6 0.000000 0.000000 0.000000 0.000000 0.000000 0.038300
#
#
# Mechanical properties :
#
#
# Convention : Reuss Voigt Hill
#
# Bulk Modulus (GPa) = 59.86080 70.45188 65.15634
# Shear Modulus (GPa) = 22.75344 25.27857 24.01601
#
# Velocity S-wave (km/s) = 3.49194 3.68061 3.58752
# Velocity P-wave (km/s) = 6.95254 7.47114 7.21650
#
# Compressibility (1/GPa) = 0.01670542
#
# Stress axis : x y z
#
# Youngs Moduli (GPa) = 81.40757 81.40801 65.10233
#
# Poissons Ratio (x) = 0.55892 0.15448
# Poissons Ratio (y) = 0.55892 0.15448
# Poissons Ratio (z) = 0.19317 0.19317
#
# Static dielectric constant tensor:
#      x y z
#    x 1.757190 0.000030 0.000000 
#    y 0.000030 1.757200 0.000000 
#    z 0.000000 0.000000 1.704890 
# 
# From -- ./inp_files/7136.got.cif
#   From: 2010.05.17/outbox.cif.g08.bks.cpg/sg192_4_cif.got.tgz:7136.got - 2010.05.20 12:28:01.
