data_PCOD9588312
_publ_section_title
;
Structure prediction by ZEFSAII (Michael W. Deem and Ramdas Pophale) SiO2 
 PCOD9588312
Probable space group: P 6/M C C
;
_chemical_formula_sum "Si O2"
_cell_formula_units_Z 144
_cell_length_a 33.750980
_cell_length_b 33.750980
_cell_length_c 8.705030
_cell_angle_alpha 90.000000
_cell_angle_beta 90.000000
_cell_angle_gamma 120.000000
_cell_volume 8587.637011
_symmetry_space_group_name_H-M "P 6/M C C"
_symmetry_group_IT_number 192
_symmetry_cell_setting 'hexagonal'
loop_
_space_group_symop_operation_xyz
x,y,z
x-y,x,z
-y,x-y,z
-x,-y,z
-x+y,-x,z
y,-x+y,z
x-y,-y,1/2-z
-x,-x+y,1/2-z
y,x,1/2-z
-y,-x,1/2-z
-x+y,y,1/2-z
x,x-y,1/2-z
-x,-y,-z
-x+y,-x,-z
y,-x+y,-z
x,y,-z
x-y,x,-z
-y,x-y,-z
-x+y,y,1/2+z
x,x-y,1/2+z
-y,-x,1/2+z
y,x,1/2+z
x-y,-y,1/2+z
-x,-x+y,1/2+z
loop_
_atom_site_type_symbol
_atom_site_label
_atom_site_fract_x
_atom_site_fract_y
_atom_site_fract_z
Si Si1 0.048677 0.347949 0.182781
Si Si2 0.333730 0.752065 0.814433
Si Si3 0.814573 0.548275 0.673763
Si Si4 0.147207 0.640161 0.681231
Si Si5 0.342066 0.130409 0.172852
Si Si6 0.950508 0.559173 0.186408
O O1 0.086732 0.336055 0.236365
O O2 0.055807 0.397571 0.234539
O O3 0.000000 0.311563 0.250000
O O4 0.047524 0.348484 0.000000
O O5 0.283846 0.716155 0.750000
O O6 0.368366 0.736731 0.750000
O O7 0.354867 0.805174 0.760098
O O8 0.332168 0.751446 0.000000
O O9 0.765827 0.531653 0.750000
O O10 0.811333 0.530543 0.500000
O O11 0.843050 0.534108 0.783758
O O12 0.838787 0.602752 0.664017
O O13 0.146054 0.631674 0.500000
O O14 0.095180 0.607691 0.739413
O O15 0.325369 0.162685 0.250000
O O16 0.324219 0.117959 0.000000
O O17 0.000000 0.570901 0.250000
O O18 0.951865 0.558598 0.000000
#
# Coordination Sequence:
#
# PCOD9588312 Si02
#       6
#    24  24  24  24  24  24
#     4  10  18  29  45  63  90 125 163 204 245 293
#     4  11  24  42  64  86 111 136 164 196 238 289
#     4  10  19  28  42  64  93 125 157 194 236 284
#     4  10  20  35  54  77 103 131 162 199 236 278
#     4  10  19  29  41  60  87 121 159 198 246 294
#     4   9  18  31  48  71 101 133 166 201 239 277
#
# _framework density 16.768291999999999
#
# number of rings (size 3 to 8) (size 9 to 14) (size 15 to 20)
#    0.000    2.000    1.667    2.667    0.000    5.333 
#    0.000    0.000    0.000    0.500    0.000    3.500 
#    0.000    0.000    0.000    0.000    0.000    0.000 
#
# Total GULP energy -802351.154791 kJ/mol
# GULP energy per Si atom -5571.883019 kJ/mol
# Density = 1.673013 g / cm^3
# Si number density = 16.768292 Si / 1000 Ang^3
#
#
#
# Elastic Constant Matrix: (Units=GPa)
#
#
# Indices 1 2 3 4 5 6 
#
# 1 -64.7481 180.9144 15.5250 0.0000 0.0000 0.0000
# 2 180.9144 -64.7481 15.5250 0.0000 0.0000 0.0000
# 3 15.5250 15.5250 24.4848 0.0000 0.0000 0.0000
# 4 0.0000 0.0000 0.0000 10.4168 0.0000 0.0000
# 5 0.0000 0.0000 0.0000 0.0000 10.4168 0.0000
# 6 0.0000 0.0000 0.0000 0.0000 0.0000 -122.8313
#
#
#
# Elastic Compliance Matrix: (Units=1/GPa)
#
#
# Indices 1 2 3 4 5 6 
#
# 1 0.003147 0.007218 -0.006572 0.000000 0.000000 0.000000
# 2 0.007218 0.003147 -0.006572 0.000000 0.000000 0.000000
# 3 -0.006572 -0.006572 0.049176 0.000000 0.000000 0.000000
# 4 0.000000 0.000000 0.000000 0.095998 0.000000 0.000000
# 5 0.000000 0.000000 0.000000 0.000000 0.095998 0.000000
# 6 0.000000 0.000000 0.000000 0.000000 0.000000 -0.008141
#
#
# Mechanical properties :
#
#
# Convention : Reuss Voigt Hill
#
# Bulk Modulus (GPa) = 22.92652 35.43526 29.18089
# Shear Modulus (GPa) = 18.81696 -41.53123 -11.35714
#
# Velocity S-wave (km/s) = 3.35352 -4.98212 -2.60532
# Velocity P-wave (km/s) = 5.35696 3.45212 2.89654
#
# Compressibility (1/GPa) = 0.04361761
#
# Stress axis : x y z
#
# Youngs Moduli (GPa) = 317.74428 317.74428 20.33511
#
# Poissons Ratio (x) = -2.29342 0.13364
# Poissons Ratio (y) = -2.29342 0.13364
# Poissons Ratio (z) = 2.08825 2.08825
#
# Static dielectric constant tensor:
#      x y z
#    x 1.585280 0.000000 0.000000 
#    y 0.000000 1.585280 0.000000 
#    z 0.000000 0.000000 1.598910 
# 
# From -- ./inp_files/1180.got.cif
#   From: 2010.05.17/outbox.cif.g08.bks.cpg/sg192_1_cif.got.tgz:1180.got - 2010.05.20 12:28:01.
