data_PCOD9588843
_publ_section_title
;
Structure prediction by ZEFSAII (Michael W. Deem and Ramdas Pophale) SiO2 
 PCOD9588843
Probable space group: P 6/M C C
;
_chemical_formula_sum "Si O2"
_cell_formula_units_Z 104
_cell_length_a 20.172752
_cell_length_b 20.172752
_cell_length_c 14.705564
_cell_angle_alpha 90.000000
_cell_angle_beta 90.000000
_cell_angle_gamma 120.000000
_cell_volume 5182.539443
_symmetry_space_group_name_H-M "P 6/M C C"
_symmetry_group_IT_number 192
_symmetry_cell_setting 'hexagonal'
loop_
_space_group_symop_operation_xyz
x,y,z
x-y,x,z
-y,x-y,z
-x,-y,z
-x+y,-x,z
y,-x+y,z
x-y,-y,1/2-z
-x,-x+y,1/2-z
y,x,1/2-z
-y,-x,1/2-z
-x+y,y,1/2-z
x,x-y,1/2-z
-x,-y,-z
-x+y,-x,-z
y,-x+y,-z
x,y,-z
x-y,x,-z
-y,x-y,-z
-x+y,y,1/2+z
x,x-y,1/2+z
-y,-x,1/2+z
y,x,1/2+z
x-y,-y,1/2+z
-x,-x+y,1/2+z
loop_
_atom_site_type_symbol
_atom_site_label
_atom_site_fract_x
_atom_site_fract_y
_atom_site_fract_z
Si Si1 0.666667 0.333334 0.143412
Si Si2 0.286012 0.291285 0.889477
Si Si3 0.287208 0.789381 0.393038
Si Si4 0.587106 0.539097 0.111105
Si Si5 0.827388 0.161191 0.111020
O O1 0.666668 0.333334 0.250000
O O2 0.578444 0.286932 0.114842
O O3 0.360852 0.371649 0.864399
O O4 0.294996 0.220795 0.856920
O O5 0.210985 0.294883 0.861726
O O6 0.284678 0.289694 0.000000
O O7 0.287754 0.804748 0.500000
O O8 0.363792 0.863725 0.356534
O O9 0.211060 0.788221 0.359258
O O10 0.500000 0.500000 0.142989
O O11 0.583596 0.535267 0.000000
O O12 0.825800 0.158059 0.000000
#
# Coordination Sequence:
#
# PCOD9588843 Si02
#       5
#     8  24  24  24  24
#     4  12  25  35  43  60  91 125 151 186 229 269
#     4   8  13  21  34  57  89 114 136 176 226 264
#     4   9  18  31  47  67  85 112 155 190 225 266
#     4   8  14  23  39  65  88 104 133 186 236 263
#     4   8  14  24  40  64  88 111 142 183 225 261
#
# _framework density 20.067381999999998
#
# number of rings (size 3 to 8) (size 9 to 14) (size 15 to 20)
#    0.000    3.462    0.000    3.462    3.231    0.000 
#    0.000    0.000    0.000    1.154    0.000    3.231 
#    0.000    0.000    0.000    0.000    0.000    0.000 
#
# Total GULP energy -579743.669404 kJ/mol
# GULP energy per Si atom -5574.458360 kJ/mol
# Density = 2.002171 g / cm^3
# Si number density = 20.067382 Si / 1000 Ang^3
#
#
#
# Elastic Constant Matrix: (Units=GPa)
#
#
# Indices 1 2 3 4 5 6 
#
# 1 122.0670 103.4252 -7.1662 0.0003 0.0003 0.0004
# 2 103.4252 122.0680 -7.1663 0.0001 -0.0001 0.0006
# 3 -7.1662 -7.1663 45.5941 -0.0003 0.0000 -0.0001
# 4 0.0003 0.0001 -0.0003 -26.0472 -0.0001 0.0002
# 5 0.0003 -0.0001 0.0000 -0.0001 -26.0462 -0.0001
# 6 0.0004 0.0006 -0.0001 0.0002 -0.0001 9.3206
#
#
#
# Elastic Compliance Matrix: (Units=1/GPa)
#
#
# Indices 1 2 3 4 5 6 
#
# 1 0.029061 -0.024581 0.000704 0.000000 0.000000 0.000000
# 2 -0.024581 0.029060 0.000704 0.000000 0.000000 -0.000001
# 3 0.000704 0.000704 0.022154 0.000000 0.000000 0.000000
# 4 0.000000 0.000000 0.000000 -0.038392 0.000000 0.000001
# 5 0.000000 0.000000 0.000000 0.000000 -0.038393 0.000000
# 6 0.000000 -0.000001 0.000000 0.000001 0.000000 0.107289
#
#
# Mechanical properties :
#
#
# Convention : Reuss Voigt Hill
#
# Bulk Modulus (GPa) = 29.47312 51.99050 40.73181
# Shear Modulus (GPa) = 29.68515 4.82120 17.25318
#
# Velocity S-wave (km/s) = 3.85031 1.55168 2.93535
# Velocity P-wave (km/s) = 5.87243 5.40134 5.64181
#
# Compressibility (1/GPa) = 0.03392923
#
# Stress axis : x y z
#
# Youngs Moduli (GPa) = 34.41086 34.41112 45.13858
#
# Poissons Ratio (x) = 0.84586 -0.03178
# Poissons Ratio (y) = 0.84585 -0.03178
# Poissons Ratio (z) = -0.02423 -0.02423
#
# Static dielectric constant tensor:
#      x y z
#    x 1.649380 0.000000 0.000000 
#    y 0.000000 1.649380 0.000000 
#    z 0.000000 0.000000 1.754460 
# 
# From -- ./inp_files/2863.got.cif
#   From: 2010.05.17/outbox.cif.g08.bks.cpg/sg192_2_cif.got.tgz:2863.got - 2010.05.20 12:28:01.
