data_PCOD9588001
_publ_section_title
;
Structure prediction by ZEFSAII (Michael W. Deem and Ramdas Pophale) SiO2 
 PCOD9588001
Probable space group: P 6/M M M
;
_chemical_formula_sum "Si O2"
_cell_formula_units_Z 60
_cell_length_a 21.296048
_cell_length_b 21.296048
_cell_length_c 8.957009
_cell_angle_alpha 90.000000
_cell_angle_beta 90.000000
_cell_angle_gamma 120.000000
_cell_volume 3517.966312
_symmetry_space_group_name_H-M "P 6/M M M"
_symmetry_group_IT_number 191
_symmetry_cell_setting 'hexagonal'
loop_
_space_group_symop_operation_xyz
x,y,z
x-y,x,z
-y,x-y,z
-x,-y,z
-x+y,-x,z
y,-x+y,z
x-y,-y,-z
-x,-x+y,-z
y,x,-z
-y,-x,-z
-x+y,y,-z
x,x-y,-z
-x,-y,-z
-x+y,-x,-z
y,-x+y,-z
x,y,-z
x-y,x,-z
-y,x-y,-z
-x+y,y,z
x,x-y,z
-y,-x,z
y,x,z
x-y,-y,z
-x,-x+y,z
loop_
_atom_site_type_symbol
_atom_site_label
_atom_site_fract_x
_atom_site_fract_y
_atom_site_fract_z
Si Si1 0.083641 0.916360 0.681933
Si Si2 0.167958 0.335916 0.679505
Si Si3 0.587149 0.674038 0.823318
Si Si4 0.544057 0.455944 0.327836
O O1 0.083001 0.917000 0.500000
O O2 0.125678 0.874323 0.726498
O O3 0.000000 0.874268 0.731300
O O4 0.169232 0.338464 0.500000
O O5 0.126305 0.375383 0.742491
O O6 0.636394 0.636394 0.801180
O O7 0.508490 0.618886 0.755166
O O8 0.581465 0.682502 0.000000
O O9 0.500000 0.500000 0.326548
O O10 0.555823 0.444178 0.500000
#
# Coordination Sequence:
#
# PCOD9588001 Si02
#       4
#    12  12  24  12
#     4   9  17  29  46  69  99 137 182 233 287 337
#     4  11  21  32  49  75 107 140 178 226 274 320
#     4  10  20  34  52  75 104 137 172 211 259 315
#     4   9  17  31  53  78 101 126 159 200 245 296
#
# _framework density 17.055308
#
# number of rings (size 3 to 8) (size 9 to 14) (size 15 to 20)
#    0.000    2.200    0.000    3.800    0.000    7.200 
#    0.000    0.000    0.000    0.800    0.000    5.600 
#    0.000    9.600    0.000    0.000    0.000    0.000 
#
# Total GULP energy -334854.474012 kJ/mol
# GULP energy per Si atom -5580.907900 kJ/mol
# Density = 1.701649 g / cm^3
# Si number density = 17.055308 Si / 1000 Ang^3
#
#
#
# Elastic Constant Matrix: (Units=GPa)
#
#
# Indices 1 2 3 4 5 6 
#
# 1 137.6889 92.2321 67.7548 0.0000 0.0000 0.0000
# 2 92.2321 137.6889 67.7548 0.0000 0.0000 0.0000
# 3 67.7548 67.7548 98.2308 0.0000 0.0000 0.0000
# 4 0.0000 0.0000 0.0000 23.3493 0.0000 0.0000
# 5 0.0000 0.0000 0.0000 0.0000 23.3493 0.0000
# 6 0.0000 0.0000 0.0000 0.0000 0.0000 22.7284
#
#
#
# Elastic Compliance Matrix: (Units=1/GPa)
#
#
# Indices 1 2 3 4 5 6 
#
# 1 0.014664 -0.007335 -0.005055 0.000000 0.000000 0.000000
# 2 -0.007335 0.014664 -0.005055 0.000000 0.000000 0.000000
# 3 -0.005055 -0.005055 0.017153 0.000000 0.000000 0.000000
# 4 0.000000 0.000000 0.000000 0.042828 0.000000 0.000000
# 5 0.000000 0.000000 0.000000 0.000000 0.042828 0.000000
# 6 0.000000 0.000000 0.000000 0.000000 0.000000 0.043998
#
#
# Mechanical properties :
#
#
# Convention : Reuss Voigt Hill
#
# Bulk Modulus (GPa) = 86.27444 92.12129 89.19787
# Shear Modulus (GPa) = 23.26798 23.60987 23.43892
#
# Velocity S-wave (km/s) = 3.69760 3.72467 3.71116
# Velocity P-wave (km/s) = 8.30209 8.52221 8.41287
#
# Compressibility (1/GPa) = 0.01159092
#
# Stress axis : x y z
#
# Youngs Moduli (GPa) = 68.19554 68.19554 58.29784
#
# Poissons Ratio (x) = 0.50023 0.29469
# Poissons Ratio (y) = 0.50023 0.29469
# Poissons Ratio (z) = 0.34472 0.34472
#
# Static dielectric constant tensor:
#      x y z
#    x 1.554650 0.000000 0.000000 
#    y 0.000000 1.554650 0.000000 
#    z 0.000000 0.000000 1.567260 
# 
# From -- ./inp_files/585.got.cif
#   From: 2010.05.17/outbox.cif.g08.bks.cpg/sg191_1_cif.got.tgz:585.got - 2010.05.20 12:20:32.
