data_PCOD9588539
_publ_section_title
;
Structure prediction by ZEFSAII (Michael W. Deem and Ramdas Pophale) SiO2 
 PCOD9588539
Probable space group: P 6/M C C
;
_chemical_formula_sum "Si O2"
_cell_formula_units_Z 144
_cell_length_a 31.986862
_cell_length_b 31.986862
_cell_length_c 8.816765
_cell_angle_alpha 90.000000
_cell_angle_beta 90.000000
_cell_angle_gamma 120.000000
_cell_volume 7812.376598
_symmetry_space_group_name_H-M "P 6/M C C"
_symmetry_group_IT_number 192
_symmetry_cell_setting 'hexagonal'
loop_
_space_group_symop_operation_xyz
x,y,z
x-y,x,z
-y,x-y,z
-x,-y,z
-x+y,-x,z
y,-x+y,z
x-y,-y,1/2-z
-x,-x+y,1/2-z
y,x,1/2-z
-y,-x,1/2-z
-x+y,y,1/2-z
x,x-y,1/2-z
-x,-y,-z
-x+y,-x,-z
y,-x+y,-z
x,y,-z
x-y,x,-z
-y,x-y,-z
-x+y,y,1/2+z
x,x-y,1/2+z
-y,-x,1/2+z
y,x,1/2+z
x-y,-y,1/2+z
-x,-x+y,1/2+z
loop_
_atom_site_type_symbol
_atom_site_label
_atom_site_fract_x
_atom_site_fract_y
_atom_site_fract_z
Si Si1 0.758821 0.333175 0.180992
Si Si2 0.854487 0.237594 0.318622
Si Si3 0.571421 0.050309 0.818568
Si Si4 0.666707 0.516838 0.318456
Si Si5 0.051964 0.856329 0.818774
Si Si6 0.705962 0.948126 0.181238
O O1 0.716327 0.283674 0.250000
O O2 0.754663 0.377332 0.250000
O O3 0.809758 0.338886 0.230065
O O4 0.754650 0.332727 0.000000
O O5 0.811063 0.188938 0.250000
O O6 0.855126 0.233198 0.500000
O O7 0.846737 0.282562 0.283012
O O8 0.904902 0.246966 0.251488
O O9 0.528910 0.057820 0.750000
O O10 0.622795 0.096544 0.783081
O O11 0.562536 0.000000 0.750000
O O12 0.565888 0.045725 0.000000
O O13 0.665158 0.507563 0.500000
O O14 0.095142 0.904859 0.750000
O O15 0.060050 0.811160 0.783063
O O16 0.000000 0.841922 0.750000
O O17 0.050853 0.860135 0.000000
O O18 0.720168 0.000000 0.250000
O O19 0.701929 0.949119 0.000000
#
# Coordination Sequence:
#
# PCOD9588539 Si02
#       6
#    24  24  24  24  24  24
#     4  12  25  42  65  91 120 152 189 235 286 343
#     4  11  23  39  58  82 115 153 193 236 283 340
#     4  10  20  36  58  84 114 147 187 234 283 336
#     4  10  23  41  60  86 118 153 194 238 285 340
#     4  10  20  34  54  80 110 144 184 231 281 334
#     4  10  21  37  58  84 114 149 190 237 288 340
#
# _framework density 18.432292
#
# number of rings (size 3 to 8) (size 9 to 14) (size 15 to 20)
#    0.000    1.500    0.000    5.667    0.000    9.333 
#    0.000    1.667    0.000    0.167    0.000    1.167 
#    0.000    0.000    0.000    0.000    0.000    0.000 
#
# Total GULP energy -805238.646822 kJ/mol
# GULP energy per Si atom -5591.935047 kJ/mol
# Density = 1.839034 g / cm^3
# Si number density = 18.432292 Si / 1000 Ang^3
#
#
#
# Elastic Constant Matrix: (Units=GPa)
#
#
# Indices 1 2 3 4 5 6 
#
# 1 100.6611 41.5742 49.5619 0.0000 0.0000 0.0000
# 2 41.5742 100.6611 49.5619 0.0000 0.0000 0.0000
# 3 49.5619 49.5619 78.8884 0.0000 0.0000 0.0000
# 4 0.0000 0.0000 0.0000 24.8844 0.0000 0.0000
# 5 0.0000 0.0000 0.0000 0.0000 24.8844 0.0000
# 6 0.0000 0.0000 0.0000 0.0000 0.0000 29.5434
#
#
#
# Elastic Compliance Matrix: (Units=1/GPa)
#
#
# Indices 1 2 3 4 5 6 
#
# 1 0.014715 -0.002209 -0.007857 0.000000 0.000000 0.000000
# 2 -0.002209 0.014715 -0.007857 0.000000 0.000000 0.000000
# 3 -0.007857 -0.007857 0.022549 0.000000 0.000000 0.000000
# 4 0.000000 0.000000 0.000000 0.040186 0.000000 0.000000
# 5 0.000000 0.000000 0.000000 0.000000 0.040186 0.000000
# 6 0.000000 0.000000 0.000000 0.000000 0.000000 0.033848
#
#
# Mechanical properties :
#
#
# Convention : Reuss Voigt Hill
#
# Bulk Modulus (GPa) = 61.98577 62.40072 62.19325
# Shear Modulus (GPa) = 24.10535 25.16330 24.63433
#
# Velocity S-wave (km/s) = 3.62025 3.69884 3.65975
# Velocity P-wave (km/s) = 7.15380 7.22284 7.18840
#
# Compressibility (1/GPa) = 0.01613273
#
# Stress axis : x y z
#
# Youngs Moduli (GPa) = 67.95690 67.95690 44.34871
#
# Poissons Ratio (x) = 0.15012 0.34845
# Poissons Ratio (y) = 0.15012 0.34845
# Poissons Ratio (z) = 0.53394 0.53394
#
# Static dielectric constant tensor:
#      x y z
#    x 1.608030 0.000000 0.000000 
#    y 0.000000 1.608030 0.000000 
#    z 0.000000 0.000000 1.615720 
# 
# From -- ./inp_files/1160.got.cif
#   From: 2010.05.17/outbox.cif.g08.bks.cpg/sg192_1_cif.got.tgz:1160.got - 2010.05.20 12:28:01.
