data_PCOD9588038
_publ_section_title
;
Structure prediction by ZEFSAII (Michael W. Deem and Ramdas Pophale) SiO2 
 PCOD9588038
Probable space group: P 6/M M M
;
_chemical_formula_sum "Si O2"
_cell_formula_units_Z 132
_cell_length_a 18.089102
_cell_length_b 18.089102
_cell_length_c 29.594293
_cell_angle_alpha 90.000000
_cell_angle_beta 90.000000
_cell_angle_gamma 120.000000
_cell_volume 8386.342908
_symmetry_space_group_name_H-M "P 6/M M M"
_symmetry_group_IT_number 191
_symmetry_cell_setting 'hexagonal'
loop_
_space_group_symop_operation_xyz
x,y,z
x-y,x,z
-y,x-y,z
-x,-y,z
-x+y,-x,z
y,-x+y,z
x-y,-y,-z
-x,-x+y,-z
y,x,-z
-y,-x,-z
-x+y,y,-z
x,x-y,-z
-x,-y,-z
-x+y,-x,-z
y,-x+y,-z
x,y,-z
x-y,x,-z
-y,x-y,-z
-x+y,y,z
x,x-y,z
-y,-x,z
y,x,z
x-y,-y,z
-x,-x+y,z
loop_
_atom_site_type_symbol
_atom_site_label
_atom_site_fract_x
_atom_site_fract_y
_atom_site_fract_z
Si Si1 0.198579 0.397158 0.553974
Si Si2 0.267508 0.364967 0.299139
Si Si3 0.491261 0.158397 0.113360
Si Si4 0.900989 0.801977 0.555072
Si Si5 0.101471 0.465281 0.387756
Si Si6 0.506503 0.840143 0.217785
Si Si7 0.589880 0.000000 0.948212
O O1 0.199629 0.399258 0.500000
O O2 0.148629 0.297258 0.568817
O O3 0.293086 0.442873 0.574354
O O4 0.168270 0.336540 0.300526
O O5 0.290531 0.290531 0.303097
O O6 0.314688 0.430315 0.340389
O O7 0.307288 0.417862 0.253158
O O8 0.586929 0.173857 0.107708
O O9 0.490541 0.245271 0.105456
O O10 0.467851 0.132258 0.165850
O O11 0.430231 0.084000 0.079526
O O12 0.851023 0.851023 0.569653
O O13 0.901475 0.802949 0.500000
O O14 0.128463 0.564232 0.385368
O O15 0.000000 0.412759 0.396583
O O16 0.424973 0.849945 0.228669
O O17 0.481426 0.740713 0.220122
O O18 0.500000 0.000000 0.948613
O O19 0.615202 0.000000 0.000000
#
# Coordination Sequence:
#
# PCOD9588038 Si02
#       7
#    12  24  24  12  24  24  12
#     4  11  22  37  56  77 102 136 175 214 254 297
#     4  10  20  35  55  78 103 132 164 199 246 303
#     4   9  17  29  45  66  94 128 167 209 251 296
#     4   9  17  30  51  80 110 136 162 199 250 308
#     4  10  21  38  57  77 102 132 168 208 250 298
#     4   9  17  28  46  73 102 131 163 202 246 293
#     4   9  18  30  42  60  90 128 169 211 252 290
#
# _framework density 15.739876000000001
#
# number of rings (size 3 to 8) (size 9 to 14) (size 15 to 20)
#    0.000    2.455    0.909    1.545    1.273    4.727 
#    0.545    0.909    0.000    1.273    0.000    0.000 
#    0.000    0.000    0.000    0.273    0.000    1.182 
#
# Total GULP energy -736184.075217 kJ/mol
# GULP energy per Si atom -5577.152085 kJ/mol
# Density = 1.570405 g / cm^3
# Si number density = 15.739876 Si / 1000 Ang^3
#
#
#
# Elastic Constant Matrix: (Units=GPa)
#
#
# Indices 1 2 3 4 5 6 
#
# 1 93.0405 62.8411 50.5822 0.0000 0.0000 0.0000
# 2 62.8411 93.0405 50.5822 0.0000 0.0000 0.0000
# 3 50.5822 50.5822 89.5370 0.0000 0.0000 0.0000
# 4 0.0000 0.0000 0.0000 19.5729 0.0000 0.0000
# 5 0.0000 0.0000 0.0000 0.0000 19.5729 0.0000
# 6 0.0000 0.0000 0.0000 0.0000 0.0000 15.0997
#
#
#
# Elastic Compliance Matrix: (Units=1/GPa)
#
#
# Indices 1 2 3 4 5 6 
#
# 1 0.021621 -0.011492 -0.005722 0.000000 0.000000 0.000000
# 2 -0.011492 0.021621 -0.005722 0.000000 0.000000 0.000000
# 3 -0.005722 -0.005722 0.017634 0.000000 0.000000 0.000000
# 4 0.000000 0.000000 0.000000 0.051091 0.000000 0.000000
# 5 0.000000 0.000000 0.000000 0.000000 0.051091 0.000000
# 6 0.000000 0.000000 0.000000 0.000000 0.000000 0.066226
#
#
# Mechanical properties :
#
#
# Convention : Reuss Voigt Hill
#
# Bulk Modulus (GPa) = 66.65361 67.06991 66.86176
# Shear Modulus (GPa) = 17.84711 18.28993 18.06852
#
# Velocity S-wave (km/s) = 3.37096 3.41253 3.39181
# Velocity P-wave (km/s) = 7.58881 7.63093 7.60990
#
# Compressibility (1/GPa) = 0.01500294
#
# Stress axis : x y z
#
# Youngs Moduli (GPa) = 46.25154 46.25154 56.70999
#
# Poissons Ratio (x) = 0.53154 0.32449
# Poissons Ratio (y) = 0.53154 0.32449
# Poissons Ratio (z) = 0.26465 0.26465
#
# Static dielectric constant tensor:
#      x y z
#    x 1.511640 0.000000 0.000000 
#    y 0.000000 1.511640 0.000000 
#    z 0.000000 0.000000 1.530600 
# 
# From -- ./inp_files/10589.got.cif
#   From: 2010.05.17/outbox.cif.g08.bks.cpg/sg191_6_cif.got.tgz:10589.got - 2010.05.20 12:20:32.
