data_PCOD9588868
_publ_section_title
;
Structure prediction by ZEFSAII (Michael W. Deem and Ramdas Pophale) SiO2 
 PCOD9588868
Probable space group: P 6/M C C
;
_chemical_formula_sum "Si O2"
_cell_formula_units_Z 156
_cell_length_a 21.000000
_cell_length_b 21.000000
_cell_length_c 21.000000
_cell_angle_alpha 90.000000
_cell_angle_beta 90.000000
_cell_angle_gamma 120.000000
_cell_volume 8020.261264
_symmetry_space_group_name_H-M "P 6/M C C"
_symmetry_group_IT_number 192
_symmetry_cell_setting 'hexagonal'
loop_
_space_group_symop_operation_xyz
x,y,z
x-y,x,z
-y,x-y,z
-x,-y,z
-x+y,-x,z
y,-x+y,z
x-y,-y,1/2-z
-x,-x+y,1/2-z
y,x,1/2-z
-y,-x,1/2-z
-x+y,y,1/2-z
x,x-y,1/2-z
-x,-y,-z
-x+y,-x,-z
y,-x+y,-z
x,y,-z
x-y,x,-z
-y,x-y,-z
-x+y,y,1/2+z
x,x-y,1/2+z
-y,-x,1/2+z
y,x,1/2+z
x-y,-y,1/2+z
-x,-x+y,1/2+z
loop_
_atom_site_type_symbol
_atom_site_label
_atom_site_fract_x
_atom_site_fract_y
_atom_site_fract_z
Si Si1 0.165084 0.146129 0.000000
Si Si2 0.583104 0.682356 0.303873
Si Si3 0.939215 0.205590 0.377743
Si Si4 0.697378 0.199251 0.574541
Si Si5 0.347907 0.930449 0.835026
Si Si6 0.822381 0.082728 0.304629
Si Si7 0.534680 0.364636 0.927695
O O1 0.087988 0.148312 0.000000
O O2 0.218287 0.190379 0.940868
O O3 0.546010 0.695853 0.365642
O O4 0.551407 0.664304 0.232123
O O5 0.602137 0.619151 0.321900
O O6 0.659264 0.756497 0.289004
O O7 0.925277 0.274299 0.367500
O O8 0.863039 0.132148 0.365619
O O9 0.998514 0.215687 0.323875
O O10 0.701832 0.176492 0.500000
O O11 0.765243 0.281248 0.583416
O O12 0.620827 0.199239 0.578896
O O13 0.382473 0.896952 0.881975
O O14 0.883342 0.116659 0.250000
O O15 0.513882 0.369114 0.000000
#
# Coordination Sequence:
#
# PCOD9588868 Si02
#       7
#    12  24  24  24  24  24  24
#     4  12  25  44  60  84 124 171 209 259 315 373
#     4  10  22  39  62  87 124 157 194 251 309 373
#     4  11  22  37  59  86 118 154 202 250 310 371
#     4  10  22  41  62  90 120 162 207 249 304 365
#     4  10  22  40  59  91 122 158 197 248 320 364
#     4  11  20  37  60  85 116 153 195 253 312 366
#     4  10  22  40  63  88 123 162 205 254 301 360
#
# _framework density 19.450738000000001
#
# number of rings (size 3 to 8) (size 9 to 14) (size 15 to 20)
#    0.000    1.538    3.077    1.769    1.077    3.077 
#    5.538    3.077    0.000    1.846    0.000    2.154 
#    0.000    0.000    0.000    0.000    0.000    0.000 
#
# Total GULP energy -869028.782269 kJ/mol
# GULP energy per Si atom -5570.697322 kJ/mol
# Density = 1.940647 g / cm^3
# Si number density = 19.450738 Si / 1000 Ang^3
#
#
#
# Elastic Constant Matrix: (Units=GPa)
#
#
# Indices 1 2 3 4 5 6 
#
# 1 18.1385 -10.5881 2.7822 0.0000 0.0000 0.0000
# 2 -10.5881 18.1385 2.7822 0.0000 0.0000 0.0000
# 3 2.7822 2.7822 70.7481 0.0000 0.0000 0.0000
# 4 0.0000 0.0000 0.0000 19.4619 0.0000 0.0000
# 5 0.0000 0.0000 0.0000 0.0000 19.4619 0.0000
# 6 0.0000 0.0000 0.0000 0.0000 0.0000 14.3633
#
#
#
# Elastic Compliance Matrix: (Units=1/GPa)
#
#
# Indices 1 2 3 4 5 6 
#
# 1 0.085603 0.050792 -0.005364 0.000000 0.000000 0.000000
# 2 0.050792 0.085603 -0.005364 0.000000 0.000000 0.000000
# 3 -0.005364 -0.005364 0.014557 0.000000 0.000000 0.000000
# 4 0.000000 0.000000 0.000000 0.051383 0.000000 0.000000
# 5 0.000000 0.000000 0.000000 0.000000 0.051383 0.000000
# 6 0.000000 0.000000 0.000000 0.000000 0.000000 0.069622
#
#
# Mechanical properties :
#
#
# Convention : Reuss Voigt Hill
#
# Bulk Modulus (GPa) = 3.76093 10.77530 7.26812
# Shear Modulus (GPa) = 13.63696 18.12734 15.88215
#
# Velocity S-wave (km/s) = 2.65071 3.05612 2.86060
# Velocity P-wave (km/s) = 3.36245 4.24322 3.82825
#
# Compressibility (1/GPa) = 0.26589148
#
# Stress axis : x y z
#
# Youngs Moduli (GPa) = 11.68184 11.68184 68.69780
#
# Poissons Ratio (x) = -0.59334 0.36848
# Poissons Ratio (y) = -0.59334 0.36848
# Poissons Ratio (z) = 0.06266 0.06266
#
# Static dielectric constant tensor:
#      x y z
#    x 1.689130 0.000000 0.000000 
#    y 0.000000 1.689130 0.000000 
#    z 0.000000 0.000000 1.758520 
# 
# From -- ./inp_files/5275.got.cif
#   From: 2010.05.17/outbox.ucp.g08.bks.cvg/sg192_3_cif.got.tgz:5275.got - 2010.06.11 15:23:19.
