data_PCOD9588123
_publ_section_title
;
Structure prediction by ZEFSAII (Michael W. Deem and Ramdas Pophale) SiO2 
 PCOD9588123
Probable space group: P 6/M M M
;
_chemical_formula_sum "Si O2"
_cell_formula_units_Z 144
_cell_length_a 32.666913
_cell_length_b 32.666913
_cell_length_c 7.712467
_cell_angle_alpha 90.000000
_cell_angle_beta 90.000000
_cell_angle_gamma 120.000000
_cell_volume 7127.547861
_symmetry_space_group_name_H-M "P 6/M M M"
_symmetry_group_IT_number 191
_symmetry_cell_setting 'hexagonal'
loop_
_space_group_symop_operation_xyz
x,y,z
x-y,x,z
-y,x-y,z
-x,-y,z
-x+y,-x,z
y,-x+y,z
x-y,-y,-z
-x,-x+y,-z
y,x,-z
-y,-x,-z
-x+y,y,-z
x,x-y,-z
-x,-y,-z
-x+y,-x,-z
y,-x+y,-z
x,y,-z
x-y,x,-z
-y,x-y,-z
-x+y,y,z
x,x-y,z
-y,-x,z
y,x,z
x-y,-y,z
-x,-x+y,z
loop_
_atom_site_type_symbol
_atom_site_label
_atom_site_fract_x
_atom_site_fract_y
_atom_site_fract_z
Si Si1 0.052924 0.479324 0.209321
Si Si2 0.382501 0.237328 0.794850
Si Si3 0.666507 0.427715 0.712148
Si Si4 0.292684 0.052541 0.792620
Si Si5 0.330558 0.477500 0.295429
Si Si6 0.145007 0.197950 0.290287
O O1 0.060343 0.530172 0.266353
O O2 0.096300 0.473048 0.264765
O O3 0.000000 0.440089 0.266648
O O4 0.052456 0.479134 0.000000
O O5 0.382459 0.191230 0.722073
O O6 0.340792 0.244953 0.721379
O O7 0.432874 0.283917 0.776505
O O8 0.372938 0.229011 0.000000
O O9 0.666039 0.427475 0.500000
O O10 0.715494 0.430988 0.765809
O O11 0.621045 0.378956 0.768305
O O12 0.663030 0.472991 0.771736
O O13 0.249507 0.062119 0.761404
O O14 0.275674 0.000000 0.722220
O O15 0.297981 0.050260 0.000000
O O16 0.323355 0.477342 0.500000
O O17 0.143636 0.196419 0.500000
O O18 0.094975 0.189949 0.227284
O O19 0.160654 0.160654 0.229964
#
# Coordination Sequence:
#
# PCOD9588123 Si02
#       6
#    24  24  24  24  24  24
#     4   9  19  37  59  80 103 135 175 215 256 306
#     4  10  21  36  52  71 100 140 181 214 248 300
#     4   9  17  30  49  73 101 132 165 201 243 292
#     4   9  18  33  53  75  97 123 160 208 256 300
#     4  11  22  34  51  78 110 138 168 211 260 309
#     4   9  17  29  46  69  97 128 161 199 245 295
#
# _framework density 20.203301
#
# number of rings (size 3 to 8) (size 9 to 14) (size 15 to 20)
#    0.000    2.500    0.000    2.667    0.000    5.333 
#    0.000    2.500    0.000    0.167    0.000    1.167 
#    0.000    8.000    0.000    4.167    0.000    4.333 
#
# Total GULP energy -803802.344324 kJ/mol
# GULP energy per Si atom -5581.960724 kJ/mol
# Density = 2.015732 g / cm^3
# Si number density = 20.203301 Si / 1000 Ang^3
#
#
#
# Elastic Constant Matrix: (Units=GPa)
#
#
# Indices 1 2 3 4 5 6 
#
# 1 158.5422 105.9560 -2.2033 0.0000 0.0000 0.0000
# 2 105.9560 158.5422 -2.2033 0.0000 0.0000 0.0000
# 3 -2.2033 -2.2033 29.5439 0.0000 0.0000 0.0000
# 4 0.0000 0.0000 0.0000 21.7590 0.0000 0.0000
# 5 0.0000 0.0000 0.0000 0.0000 21.7590 0.0000
# 6 0.0000 0.0000 0.0000 0.0000 0.0000 26.2931
#
#
#
# Elastic Compliance Matrix: (Units=1/GPa)
#
#
# Indices 1 2 3 4 5 6 
#
# 1 0.011401 -0.007615 0.000282 0.000000 0.000000 0.000000
# 2 -0.007615 0.011401 0.000282 0.000000 0.000000 0.000000
# 3 0.000282 0.000282 0.033890 0.000000 0.000000 0.000000
# 4 0.000000 0.000000 0.000000 0.045958 0.000000 0.000000
# 5 0.000000 0.000000 0.000000 0.000000 0.045958 0.000000
# 6 0.000000 0.000000 0.000000 0.000000 0.000000 0.038033
#
#
# Mechanical properties :
#
#
# Convention : Reuss Voigt Hill
#
# Bulk Modulus (GPa) = 23.47961 61.08078 42.28020
# Shear Modulus (GPa) = 23.26241 30.30083 26.78162
#
# Velocity S-wave (km/s) = 3.39693 3.87692 3.64484
# Velocity P-wave (km/s) = 5.19927 7.09503 6.21980
#
# Compressibility (1/GPa) = 0.04259014
#
# Stress axis : x y z
#
# Youngs Moduli (GPa) = 87.71228 87.71228 29.50723
#
# Poissons Ratio (x) = 0.66797 -0.00833
# Poissons Ratio (y) = 0.66797 -0.00833
# Poissons Ratio (z) = -0.02476 -0.02476
#
# Static dielectric constant tensor:
#      x y z
#    x 1.701200 0.000000 0.000000 
#    y 0.000000 1.701200 0.000000 
#    z 0.000000 0.000000 1.750660 
# 
# From -- ./inp_files/1982.got.cif
#   From: 2010.05.17/outbox.cif.g08.bks.cpg/sg191_1_cif.got.tgz:1982.got - 2010.05.20 12:20:32.
