data_PCOD9588109
_publ_section_title
;
Structure prediction by ZEFSAII (Michael W. Deem and Ramdas Pophale) SiO2 
 PCOD9588109
Probable space group: P 6/M M M
;
_chemical_formula_sum "Si O2"
_cell_formula_units_Z 120
_cell_length_a 23.854882
_cell_length_b 23.854882
_cell_length_c 14.330025
_cell_angle_alpha 90.000000
_cell_angle_beta 90.000000
_cell_angle_gamma 120.000000
_cell_volume 7062.071740
_symmetry_space_group_name_H-M "P 6/M M M"
_symmetry_group_IT_number 191
_symmetry_cell_setting 'hexagonal'
loop_
_space_group_symop_operation_xyz
x,y,z
x-y,x,z
-y,x-y,z
-x,-y,z
-x+y,-x,z
y,-x+y,z
x-y,-y,-z
-x,-x+y,-z
y,x,-z
-y,-x,-z
-x+y,y,-z
x,x-y,-z
-x,-y,-z
-x+y,-x,-z
y,-x+y,-z
x,y,-z
x-y,x,-z
-y,x-y,-z
-x+y,y,z
x,x-y,z
-y,-x,z
y,x,z
x-y,-y,z
-x,-x+y,z
loop_
_atom_site_type_symbol
_atom_site_label
_atom_site_fract_x
_atom_site_fract_y
_atom_site_fract_z
Si Si1 0.207238 0.665725 0.112145
Si Si2 0.603872 0.527720 0.611495
Si Si3 0.805948 0.734734 0.612170
Si Si4 0.337731 0.412925 0.109316
Si Si5 0.398246 0.133110 0.285657
O O1 0.220205 0.610103 0.149908
O O2 0.262648 0.737353 0.144123
O O3 0.132340 0.645396 0.125869
O O4 0.213965 0.666776 0.000000
O O5 0.616475 0.531432 0.500000
O O6 0.543550 0.456451 0.631590
O O7 0.577997 0.577997 0.632064
O O8 0.667800 0.546418 0.670103
O O9 0.805545 0.735253 0.500000
O O10 0.877165 0.754329 0.644669
O O11 0.781166 0.781166 0.647762
O O12 0.758916 0.662420 0.645885
O O13 0.392415 0.392415 0.125172
O O14 0.281180 0.378442 0.185420
O O15 0.318714 0.398717 0.000000
O O16 0.413548 0.206774 0.279662
#
# Coordination Sequence:
#
# PCOD9588109 Si02
#       5
#    24  24  24  24  24
#     4   9  17  30  48  68  90 117 150 189 234 284
#     4   9  18  33  53  76 102 132 165 203 246 292
#     4   9  17  29  47  72  99 124 151 187 231 279
#     4  10  21  35  49  66  92 128 169 212 254 295
#     4  11  21  32  50  73  97 127 161 201 250 300
#
# _framework density 16.992180999999999
#
# number of rings (size 3 to 8) (size 9 to 14) (size 15 to 20)
#    0.000    2.400    0.000    3.800    0.000    6.000 
#    0.000    2.000    0.000    0.600    0.000    1.400 
#    0.000    0.000    0.000    0.000    0.000    0.000 
#
# Total GULP energy -668192.722725 kJ/mol
# GULP energy per Si atom -5568.272689 kJ/mol
# Density = 1.695351 g / cm^3
# Si number density = 16.992181 Si / 1000 Ang^3
#
#
#
# Elastic Constant Matrix: (Units=GPa)
#
#
# Indices 1 2 3 4 5 6 
#
# 1 102.8495 67.7990 28.0801 0.0000 0.0000 0.0000
# 2 67.7990 102.8495 28.0801 0.0000 0.0000 0.0000
# 3 28.0801 28.0801 43.5766 0.0000 0.0000 0.0000
# 4 0.0000 0.0000 0.0000 15.8324 0.0000 0.0000
# 5 0.0000 0.0000 0.0000 0.0000 15.8324 0.0000
# 6 0.0000 0.0000 0.0000 0.0000 0.0000 17.5253
#
#
#
# Elastic Compliance Matrix: (Units=1/GPa)
#
#
# Indices 1 2 3 4 5 6 
#
# 1 0.017984 -0.010547 -0.004792 0.000000 0.000000 0.000000
# 2 -0.010547 0.017984 -0.004792 0.000000 0.000000 0.000000
# 3 -0.004792 -0.004792 0.029124 0.000000 0.000000 0.000000
# 4 0.000000 0.000000 0.000000 0.063162 0.000000 0.000000
# 5 0.000000 0.000000 0.000000 0.000000 0.063162 0.000000
# 6 0.000000 0.000000 0.000000 0.000000 0.000000 0.057061
#
#
# Mechanical properties :
#
#
# Convention : Reuss Voigt Hill
#
# Bulk Modulus (GPa) = 40.27528 55.24377 47.75953
# Shear Modulus (GPa) = 16.83420 18.19245 17.51332
#
# Velocity S-wave (km/s) = 3.15096 3.27561 3.21389
# Velocity P-wave (km/s) = 6.08208 6.84748 6.47610
#
# Compressibility (1/GPa) = 0.02482912
#
# Stress axis : x y z
#
# Youngs Moduli (GPa) = 55.60588 55.60588 34.33555
#
# Poissons Ratio (x) = 0.58645 0.16455
# Poissons Ratio (y) = 0.58645 0.16455
# Poissons Ratio (z) = 0.26648 0.26648
#
# Static dielectric constant tensor:
#      x y z
#    x 1.597360 0.000000 0.000000 
#    y 0.000000 1.597360 0.000000 
#    z 0.000000 0.000000 1.609540 
# 
# From -- ./inp_files/4648.got.cif
#   From: 2010.05.17/outbox.cif.g08.bks.cpg/sg191_3_cif.got.tgz:4648.got - 2010.05.20 12:20:32.
