data_PCOD9588746
_publ_section_title
;
Structure prediction by ZEFSAII (Michael W. Deem and Ramdas Pophale) SiO2 
 PCOD9588746
Probable space group: P 6/M C C
;
_chemical_formula_sum "Si O2"
_cell_formula_units_Z 128
_cell_length_a 20.981326
_cell_length_b 20.981326
_cell_length_c 19.888878
_cell_angle_alpha 90.000000
_cell_angle_beta 90.000000
_cell_angle_gamma 120.000000
_cell_volume 7582.401529
_symmetry_space_group_name_H-M "P 6/M C C"
_symmetry_group_IT_number 192
_symmetry_cell_setting 'hexagonal'
loop_
_space_group_symop_operation_xyz
x,y,z
x-y,x,z
-y,x-y,z
-x,-y,z
-x+y,-x,z
y,-x+y,z
x-y,-y,1/2-z
-x,-x+y,1/2-z
y,x,1/2-z
-y,-x,1/2-z
-x+y,y,1/2-z
x,x-y,1/2-z
-x,-y,-z
-x+y,-x,-z
y,-x+y,-z
x,y,-z
x-y,x,-z
-y,x-y,-z
-x+y,y,1/2+z
x,x-y,1/2+z
-y,-x,1/2+z
y,x,1/2+z
x-y,-y,1/2+z
-x,-x+y,1/2+z
loop_
_atom_site_type_symbol
_atom_site_label
_atom_site_fract_x
_atom_site_fract_y
_atom_site_fract_z
Si Si1 0.802038 0.404616 0.927626
Si Si2 0.437833 0.140666 0.386933
Si Si3 0.333334 0.666667 0.169209
Si Si4 0.146715 0.704508 0.110621
Si Si5 0.912102 0.530845 0.748785
Si Si6 0.918012 0.234295 0.500000
Si Si7 0.318323 0.085096 0.000000
O O1 0.855088 0.491157 0.921614
O O2 0.746861 0.379299 0.864524
O O3 0.842567 0.357817 0.925265
O O4 0.763765 0.391634 0.000000
O O5 0.449881 0.222894 0.383461
O O6 0.440701 0.112945 0.312909
O O7 0.367138 0.095350 0.434059
O O8 0.333334 0.666667 0.250000
O O9 0.114813 0.669198 0.182681
O O10 0.099402 0.728801 0.064996
O O11 0.885967 0.442984 0.750000
O O12 0.000000 0.571963 0.750000
O O13 0.852334 0.149341 0.500000
O O14 0.001655 0.252255 0.500000
#
# Coordination Sequence:
#
# PCOD9588746 Si02
#       7
#    24  24   8  24  24  12  12
#     4  12  22  36  51  77 111 148 196 248 294 328
#     4  11  22  36  55  77 108 144 192 236 285 331
#     4  12  28  32  52  75 109 158 211 264 298 323
#     4  11  22  36  55  77 108 144 192 236 285 331
#     4  11  23  36  50  72 106 147 189 245 292 330
#     4  10  22  41  63  86 109 141 179 221 274 346
#     4  10  22  41  63  86 109 141 179 221 274 346
#
# _framework density 16.881195000000002
#
# number of rings (size 3 to 8) (size 9 to 14) (size 15 to 20)
#    0.000    0.938    5.625    2.250    2.625    0.000 
#    0.000    0.938    0.000    0.188    0.000    0.000 
#    0.000    0.000    0.000    0.000    0.000   39.000 
#
# Total GULP energy -714474.376236 kJ/mol
# GULP energy per Si atom -5581.831064 kJ/mol
# Density = 1.684277 g / cm^3
# Si number density = 16.881195 Si / 1000 Ang^3
#
#
#
# Elastic Constant Matrix: (Units=GPa)
#
#
# Indices 1 2 3 4 5 6 
#
# 1 67.9061 47.7894 29.2291 -0.0002 -0.0001 -0.0001
# 2 47.7894 67.9059 29.2290 -0.0002 -0.0002 -0.0001
# 3 29.2291 29.2290 151.1846 0.0000 -0.0001 0.0000
# 4 -0.0002 -0.0002 0.0000 35.9573 0.0001 0.0000
# 5 -0.0001 -0.0002 -0.0001 0.0001 35.9570 0.0000
# 6 -0.0001 -0.0001 0.0000 0.0000 0.0000 10.0583
#
#
#
# Elastic Compliance Matrix: (Units=1/GPa)
#
#
# Indices 1 2 3 4 5 6 
#
# 1 0.029645 -0.020066 -0.001852 0.000000 0.000000 0.000000
# 2 -0.020066 0.029645 -0.001852 0.000000 0.000000 0.000000
# 3 -0.001852 -0.001852 0.007331 0.000000 0.000000 0.000000
# 4 0.000000 0.000000 0.000000 0.027811 0.000000 0.000000
# 5 0.000000 0.000000 0.000000 0.000000 0.027811 0.000000
# 6 0.000000 0.000000 0.000000 0.000000 0.000000 0.099421
#
#
# Mechanical properties :
#
#
# Convention : Reuss Voigt Hill
#
# Bulk Modulus (GPa) = 52.40833 55.49906 53.95370
# Shear Modulus (GPa) = 18.14476 28.44445 23.29460
#
# Velocity S-wave (km/s) = 3.28205 4.10930 3.71875
# Velocity P-wave (km/s) = 6.74353 7.44733 7.10415
#
# Compressibility (1/GPa) = 0.01908093
#
# Stress axis : x y z
#
# Youngs Moduli (GPa) = 33.73287 33.73278 136.41584
#
# Poissons Ratio (x) = 0.67687 0.25264
# Poissons Ratio (y) = 0.67687 0.25264
# Poissons Ratio (z) = 0.06247 0.06247
#
# Static dielectric constant tensor:
#      x y z
#    x 1.576320 0.000000 0.000000 
#    y 0.000000 1.576320 0.000000 
#    z 0.000000 0.000000 1.611260 
# 
# From -- ./inp_files/5057.got.cif
#   From: 2010.05.17/outbox.cif.g08.bks.cpg/sg192_3_cif.got.tgz:5057.got - 2010.05.20 12:28:01.
