data_PCOD9588672
_publ_section_title
;
Structure prediction by ZEFSAII (Michael W. Deem and Ramdas Pophale) SiO2 
 PCOD9588672
Probable space group: P 6/M C C
;
_chemical_formula_sum "Si O2"
_cell_formula_units_Z 168
_cell_length_a 28.622396
_cell_length_b 28.622396
_cell_length_c 16.069620
_cell_angle_alpha 90.000000
_cell_angle_beta 90.000000
_cell_angle_gamma 120.000000
_cell_volume 11401.138221
_symmetry_space_group_name_H-M "P 6/M C C"
_symmetry_group_IT_number 192
_symmetry_cell_setting 'hexagonal'
loop_
_space_group_symop_operation_xyz
x,y,z
x-y,x,z
-y,x-y,z
-x,-y,z
-x+y,-x,z
y,-x+y,z
x-y,-y,1/2-z
-x,-x+y,1/2-z
y,x,1/2-z
-y,-x,1/2-z
-x+y,y,1/2-z
x,x-y,1/2-z
-x,-y,-z
-x+y,-x,-z
y,-x+y,-z
x,y,-z
x-y,x,-z
-y,x-y,-z
-x+y,y,1/2+z
x,x-y,1/2+z
-y,-x,1/2+z
y,x,1/2+z
x-y,-y,1/2+z
-x,-x+y,1/2+z
loop_
_atom_site_type_symbol
_atom_site_label
_atom_site_fract_x
_atom_site_fract_y
_atom_site_fract_z
Si Si1 0.065756 0.650884 0.403951
Si Si2 0.753128 0.691778 0.100274
Si Si3 0.061551 0.123100 0.400540
Si Si4 0.520988 0.934256 0.750000
Si Si5 0.650884 0.585128 0.903951
Si Si6 0.246758 0.123379 0.152609
Si Si7 0.691777 0.753128 0.100274
O O1 0.082598 0.649898 0.500000
O O2 0.082655 0.622451 0.333858
O O3 0.082138 0.711707 0.377973
O O4 0.000000 0.618612 0.405315
O O5 0.711707 0.629570 0.122027
O O6 0.814088 0.718689 0.128581
O O7 0.727175 0.727175 0.131821
O O8 0.752649 0.693269 0.000000
O O9 0.094498 0.094497 0.367844
O O10 0.057717 0.115433 0.500000
O O11 0.093604 0.187206 0.386722
O O12 0.458471 0.916941 0.750000
O O13 0.539796 0.917345 0.833858
O O14 0.554238 0.000000 0.750000
O O15 0.649898 0.567301 0.000000
O O16 0.237675 0.118838 0.250000
O O17 0.281312 0.185912 0.128581
O O18 0.693268 0.752648 0.000000
#
# Coordination Sequence:
#
# PCOD9588672 Si02
#       7
#    24  24  24  24  24  24  24
#     4   8  15  27  42  59  80 110 144 175 211 250
#     4   9  18  33  49  61  78 109 144 180 224 268
#     4  10  21  38  56  68  80 102 134 174 228 302
#     4   9  16  24  38  61  86 112 139 170 205 233
#     4   8  15  27  42  59  80 110 144 175 211 250
#     4  12  24  31  43  69  90 106 134 178 230 286
#     4   9  18  33  49  61  78 109 144 180 224 268
#
# _framework density 14.73537
#
# number of rings (size 3 to 8) (size 9 to 14) (size 15 to 20)
#    0.000    2.714    0.000    4.000    2.000    5.714 
#    0.000    2.857    0.000    0.857    0.000    0.000 
#    0.000    0.000    0.000    0.000    0.000    0.000 
#
# Total GULP energy -935762.681972 kJ/mol
# GULP energy per Si atom -5570.015964 kJ/mol
# Density = 1.470183 g / cm^3
# Si number density = 14.735370 Si / 1000 Ang^3
#
#
#
# Elastic Constant Matrix: (Units=GPa)
#
#
# Indices 1 2 3 4 5 6 
#
# 1 75.9068 62.1614 41.5449 0.0000 0.0000 0.0000
# 2 62.1614 75.9068 41.5449 0.0000 0.0000 0.0000
# 3 41.5449 41.5449 58.9367 0.0000 0.0000 0.0000
# 4 0.0000 0.0000 0.0000 48.6306 0.0000 0.0000
# 5 0.0000 0.0000 0.0000 0.0000 48.6306 0.0000
# 6 0.0000 0.0000 0.0000 0.0000 0.0000 6.8727
#
#
#
# Elastic Compliance Matrix: (Units=1/GPa)
#
#
# Indices 1 2 3 4 5 6 
#
# 1 0.042665 -0.030086 -0.008867 0.000000 0.000000 0.000000
# 2 -0.030086 0.042665 -0.008867 0.000000 0.000000 0.000000
# 3 -0.008867 -0.008867 0.029468 0.000000 0.000000 0.000000
# 4 0.000000 0.000000 0.000000 0.020563 0.000000 0.000000
# 5 0.000000 0.000000 0.000000 0.000000 0.020563 0.000000
# 6 0.000000 0.000000 0.000000 0.000000 0.000000 0.145503
#
#
# Mechanical properties :
#
#
# Convention : Reuss Voigt Hill
#
# Bulk Modulus (GPa) = 52.19723 55.69474 53.94598
# Shear Modulus (GPa) = 12.39298 25.19341 18.79320
#
# Velocity S-wave (km/s) = 2.90321 4.13937 3.57512
# Velocity P-wave (km/s) = 6.83653 7.79259 7.33016
#
# Compressibility (1/GPa) = 0.01915811
#
# Stress axis : x y z
#
# Youngs Moduli (GPa) = 23.43832 23.43832 33.93491
#
# Poissons Ratio (x) = 0.70517 0.30090
# Poissons Ratio (y) = 0.70517 0.30090
# Poissons Ratio (z) = 0.20783 0.20783
#
# Static dielectric constant tensor:
#      x y z
#    x 1.521530 0.000000 0.000000 
#    y 0.000000 1.521530 0.000000 
#    z 0.000000 0.000000 1.514800 
# 
# From -- ./inp_files/3525.got.cif
#   From: 2010.05.17/outbox.cif.g08.bks.cpg/sg192_2_cif.got.tgz:3525.got - 2010.05.20 12:28:01.
