data_PCOD9588182
_publ_section_title
;
Structure prediction by ZEFSAII (Michael W. Deem and Ramdas Pophale) SiO2 
 PCOD9588182
Probable space group: P 6/M M M
;
_chemical_formula_sum "Si O2"
_cell_formula_units_Z 138
_cell_length_a 31.648282
_cell_length_b 31.648282
_cell_length_c 8.490063
_cell_angle_alpha 90.000000
_cell_angle_beta 90.000000
_cell_angle_gamma 120.000000
_cell_volume 7364.475539
_symmetry_space_group_name_H-M "P 6/M M M"
_symmetry_group_IT_number 191
_symmetry_cell_setting 'hexagonal'
loop_
_space_group_symop_operation_xyz
x,y,z
x-y,x,z
-y,x-y,z
-x,-y,z
-x+y,-x,z
y,-x+y,z
x-y,-y,-z
-x,-x+y,-z
y,x,-z
-y,-x,-z
-x+y,y,-z
x,x-y,-z
-x,-y,-z
-x+y,-x,-z
y,-x+y,-z
x,y,-z
x-y,x,-z
-y,x-y,-z
-x+y,y,z
x,x-y,z
-y,-x,z
y,x,z
x-y,-y,z
-x,-x+y,z
loop_
_atom_site_type_symbol
_atom_site_label
_atom_site_fract_x
_atom_site_fract_y
_atom_site_fract_z
Si Si1 0.513961 0.854019 0.177613
Si Si2 0.802608 0.802608 0.192656
Si Si3 0.000000 0.901312 0.807743
Si Si4 0.364788 0.729576 0.500000
Si Si5 0.795122 0.397561 0.811343
Si Si6 0.849474 0.602908 0.685971
Si Si7 0.056463 0.578644 0.320238
Si Si8 0.098195 0.803914 0.189571
O O1 0.456122 0.825495 0.213553
O O2 0.551975 0.846745 0.279456
O O3 0.529282 0.910153 0.198431
O O4 0.519413 0.841569 0.000000
O O5 0.851969 0.851969 0.241454
O O6 0.801686 0.753142 0.243568
O O7 0.802984 0.802984 0.000000
O O8 0.950648 0.901295 0.758619
O O9 0.000000 0.901342 0.000000
O O10 0.306615 0.693386 0.500000
O O11 0.378741 0.757481 0.666229
O O12 0.779909 0.389955 0.000000
O O13 0.852427 0.610330 0.500000
O O14 0.799462 0.598924 0.746895
O O15 0.892786 0.652770 0.759367
O O16 0.073063 0.596005 0.500000
O O17 0.060452 0.530226 0.298134
O O18 0.000000 0.561663 0.308184
O O19 0.145461 0.854540 0.244415
O O20 0.098038 0.804886 0.000000
#
# Coordination Sequence:
#
# PCOD9588182 Si02
#       8
#    24  12  12   6  12  24  24  24
#     4  11  22  37  59  88 118 153 192 235 289 344
#     4   9  16  27  47  74 101 140 191 238 288 349
#     4   9  15  22  35  63 107 155 201 245 294 351
#     4  10  26  46  66  96 121 166 208 240 312 364
#     4  10  24  42  65  97 129 160 200 250 296 354
#     4  10  22  39  58  81 106 140 184 234 286 343
#     4   9  18  33  55  83 114 151 189 229 278 331
#     4   9  17  32  53  75 104 139 180 232 286 341
#
# _framework density 18.738606000000001
#
# number of rings (size 3 to 8) (size 9 to 14) (size 15 to 20)
#    0.087    2.261    0.870    2.174    2.435    4.870 
#    1.565    3.043    0.000    0.000    0.000    0.000 
#    0.000    0.000    0.000    0.522    0.000   16.087 
#
# Total GULP energy -768711.791954 kJ/mol
# GULP energy per Si atom -5570.375304 kJ/mol
# Density = 1.869596 g / cm^3
# Si number density = 18.738606 Si / 1000 Ang^3
#
#
#
# Elastic Constant Matrix: (Units=GPa)
#
#
# Indices 1 2 3 4 5 6 
#
# 1 97.7699 56.6253 33.9917 0.0000 0.0000 0.0000
# 2 56.6253 97.7699 33.9917 0.0000 0.0000 0.0000
# 3 33.9917 33.9917 29.6257 0.0000 0.0000 0.0000
# 4 0.0000 0.0000 0.0000 39.3607 0.0000 0.0000
# 5 0.0000 0.0000 0.0000 0.0000 39.3607 0.0000
# 6 0.0000 0.0000 0.0000 0.0000 0.0000 20.5723
#
#
#
# Elastic Compliance Matrix: (Units=1/GPa)
#
#
# Indices 1 2 3 4 5 6 
#
# 1 0.018697 -0.005607 -0.015019 0.000000 0.000000 0.000000
# 2 -0.005607 0.018697 -0.015019 0.000000 0.000000 0.000000
# 3 -0.015019 -0.015019 0.068220 0.000000 0.000000 0.000000
# 4 0.000000 0.000000 0.000000 0.025406 0.000000 0.000000
# 5 0.000000 0.000000 0.000000 0.000000 0.025406 0.000000
# 6 0.000000 0.000000 0.000000 0.000000 0.000000 0.048609
#
#
# Mechanical properties :
#
#
# Convention : Reuss Voigt Hill
#
# Bulk Modulus (GPa) = 29.13488 52.70921 40.92205
# Shear Modulus (GPa) = 17.37504 26.56251 21.96878
#
# Velocity S-wave (km/s) = 3.04835 3.76909 3.42772
# Velocity P-wave (km/s) = 5.28883 6.86521 6.12792
#
# Compressibility (1/GPa) = 0.03432312
#
# Stress axis : x y z
#
# Youngs Moduli (GPa) = 53.48336 53.48336 14.65842
#
# Poissons Ratio (x) = 0.29989 0.22016
# Poissons Ratio (y) = 0.29989 0.22016
# Poissons Ratio (z) = 0.80329 0.80329
#
# Static dielectric constant tensor:
#      x y z
#    x 1.656660 0.000000 0.000000 
#    y 0.000000 1.656660 0.000000 
#    z 0.000000 0.000000 1.660710 
# 
# From -- ./inp_files/2075.got.cif
#   From: 2010.05.17/outbox.cif.g08.bks.cpg/sg191_2_cif.got.tgz:2075.got - 2010.05.20 12:20:32.
