data_PCOD9588485
_publ_section_title
;
Structure prediction by ZEFSAII (Michael W. Deem and Ramdas Pophale) SiO2 
 PCOD9588485
Probable space group: P 6/M C C
;
_chemical_formula_sum "Si O2"
_cell_formula_units_Z 144
_cell_length_a 33.119815
_cell_length_b 33.119815
_cell_length_c 9.058459
_cell_angle_alpha 90.000000
_cell_angle_beta 90.000000
_cell_angle_gamma 120.000000
_cell_volume 8605.195851
_symmetry_space_group_name_H-M "P 6/M C C"
_symmetry_group_IT_number 192
_symmetry_cell_setting 'hexagonal'
loop_
_space_group_symop_operation_xyz
x,y,z
x-y,x,z
-y,x-y,z
-x,-y,z
-x+y,-x,z
y,-x+y,z
x-y,-y,1/2-z
-x,-x+y,1/2-z
y,x,1/2-z
-y,-x,1/2-z
-x+y,y,1/2-z
x,x-y,1/2-z
-x,-y,-z
-x+y,-x,-z
y,-x+y,-z
x,y,-z
x-y,x,-z
-y,x-y,-z
-x+y,y,1/2+z
x,x-y,1/2+z
-y,-x,1/2+z
y,x,1/2+z
x-y,-y,1/2+z
-x,-x+y,1/2+z
loop_
_atom_site_type_symbol
_atom_site_label
_atom_site_fract_x
_atom_site_fract_y
_atom_site_fract_z
Si Si1 0.620407 0.724084 0.322669
Si Si2 0.140844 0.613199 0.822149
Si Si3 0.950756 0.384442 0.177045
Si Si4 0.282212 0.232310 0.824653
Si Si5 0.812609 0.862765 0.823407
Si Si6 0.474684 0.279663 0.322551
O O1 0.626552 0.728917 0.500000
O O2 0.601760 0.669795 0.285061
O O3 0.668796 0.756749 0.242912
O O4 0.577785 0.732338 0.282278
O O5 0.150753 0.575377 0.750000
O O6 0.089595 0.604234 0.779523
O O7 0.176402 0.666746 0.779844
O O8 0.141711 0.610334 0.000000
O O9 0.000000 0.417252 0.250000
O O10 0.954840 0.387904 0.000000
O O11 0.266350 0.266350 0.750000
O O12 0.240104 0.179898 0.796716
O O13 0.286309 0.240041 0.000000
O O14 0.846274 0.846274 0.750000
O O15 0.818781 0.909391 0.750000
O O16 0.819765 0.867955 0.000000
O O17 0.486104 0.243052 0.250000
O O18 0.475840 0.277206 0.500000
#
# Coordination Sequence:
#
# PCOD9588485 Si02
#       6
#    24  24  24  24  24  24
#     4   9  18  32  48  68  99 136 171 209 248 286
#     4   9  19  35  52  72  98 126 158 198 244 292
#     4   9  18  31  46  67  97 132 168 205 243 282
#     4  10  20  32  48  72 102 137 176 214 250 289
#     4  10  21  37  56  78 104 134 168 207 252 300
#     4   9  19  35  53  74 100 128 160 201 248 297
#
# _framework density 16.734076000000002
#
# number of rings (size 3 to 8) (size 9 to 14) (size 15 to 20)
#    0.000    2.667    0.000    3.500    0.000    7.000 
#    0.000    8.333    0.000    0.500    0.000    1.167 
#    0.000    0.000    0.000    0.000    0.000    0.000 
#
# Total GULP energy -803271.428663 kJ/mol
# GULP energy per Si atom -5578.273810 kJ/mol
# Density = 1.669599 g / cm^3
# Si number density = 16.734076 Si / 1000 Ang^3
#
#
#
# Elastic Constant Matrix: (Units=GPa)
#
#
# Indices 1 2 3 4 5 6 
#
# 1 114.2235 98.0365 55.0893 0.0000 0.0000 0.0000
# 2 98.0365 114.2235 55.0893 0.0000 0.0000 0.0000
# 3 55.0893 55.0893 45.6418 0.0000 0.0000 0.0000
# 4 0.0000 0.0000 0.0000 30.4115 0.0000 0.0000
# 5 0.0000 0.0000 0.0000 0.0000 30.4115 0.0000
# 6 0.0000 0.0000 0.0000 0.0000 0.0000 8.0935
#
#
#
# Elastic Compliance Matrix: (Units=1/GPa)
#
#
# Indices 1 2 3 4 5 6 
#
# 1 0.037196 -0.024582 -0.015225 0.000000 0.000000 0.000000
# 2 -0.024582 0.037196 -0.015225 0.000000 0.000000 0.000000
# 3 -0.015225 -0.015225 0.058664 0.000000 0.000000 0.000000
# 4 0.000000 0.000000 0.000000 0.032882 0.000000 0.000000
# 5 0.000000 0.000000 0.000000 0.000000 0.032882 0.000000
# 6 0.000000 0.000000 0.000000 0.000000 0.000000 0.123556
#
#
# Mechanical properties :
#
#
# Convention : Reuss Voigt Hill
#
# Bulk Modulus (GPa) = 43.49585 76.72433 60.11009
# Shear Modulus (GPa) = 11.36091 18.17488 14.76789
#
# Velocity S-wave (km/s) = 2.60841 3.29918 2.97392
# Velocity P-wave (km/s) = 5.92626 7.77570 6.91310
#
# Compressibility (1/GPa) = 0.02299070
#
# Stress axis : x y z
#
# Youngs Moduli (GPa) = 26.88448 26.88448 17.04636
#
# Poissons Ratio (x) = 0.66087 0.25954
# Poissons Ratio (y) = 0.66087 0.25954
# Poissons Ratio (z) = 0.40933 0.40933
#
# Static dielectric constant tensor:
#      x y z
#    x 1.548500 0.000000 0.000000 
#    y 0.000000 1.548500 0.000000 
#    z 0.000000 0.000000 1.555020 
# 
# From -- ./inp_files/1187.got.cif
#   From: 2010.05.17/outbox.cif.g08.bks.cpg/sg192_1_cif.got.tgz:1187.got - 2010.05.20 12:28:01.
