data_PCOD9588543
_publ_section_title
;
Structure prediction by ZEFSAII (Michael W. Deem and Ramdas Pophale) SiO2 
 PCOD9588543
Probable space group: P 6/M C C
;
_chemical_formula_sum "Si O2"
_cell_formula_units_Z 144
_cell_length_a 32.640233
_cell_length_b 32.640233
_cell_length_c 8.780353
_cell_angle_alpha 90.000000
_cell_angle_beta 90.000000
_cell_angle_gamma 120.000000
_cell_volume 8101.195422
_symmetry_space_group_name_H-M "P 6/M C C"
_symmetry_group_IT_number 192
_symmetry_cell_setting 'hexagonal'
loop_
_space_group_symop_operation_xyz
x,y,z
x-y,x,z
-y,x-y,z
-x,-y,z
-x+y,-x,z
y,-x+y,z
x-y,-y,1/2-z
-x,-x+y,1/2-z
y,x,1/2-z
-y,-x,1/2-z
-x+y,y,1/2-z
x,x-y,1/2-z
-x,-y,-z
-x+y,-x,-z
y,-x+y,-z
x,y,-z
x-y,x,-z
-y,x-y,-z
-x+y,y,1/2+z
x,x-y,1/2+z
-y,-x,1/2+z
y,x,1/2+z
x-y,-y,1/2+z
-x,-x+y,1/2+z
loop_
_atom_site_type_symbol
_atom_site_label
_atom_site_fract_x
_atom_site_fract_y
_atom_site_fract_z
Si Si1 0.334411 0.479742 0.682927
Si Si2 0.194296 0.296861 0.682098
Si Si3 0.666760 0.424567 0.683065
Si Si4 0.478928 0.048995 0.317494
Si Si5 0.050128 0.191272 0.818015
Si Si6 0.607496 0.758028 0.680991
O O1 0.327389 0.473736 0.500000
O O2 0.338687 0.530000 0.721675
O O3 0.381386 0.477604 0.721348
O O4 0.289896 0.437614 0.765842
O O5 0.148052 0.296103 0.750000
O O6 0.195495 0.302275 0.500000
O O7 0.184159 0.244453 0.718274
O O8 0.236880 0.343641 0.755133
O O9 0.622713 0.377288 0.750000
O O10 0.715382 0.430763 0.750000
O O11 0.667279 0.420898 0.500000
O O12 0.526910 0.053819 0.250000
O O13 0.479310 0.045092 0.500000
O O14 0.436975 0.000000 0.250000
O O15 0.093290 0.186580 0.750000
O O16 0.000000 0.153797 0.750000
O O17 0.050496 0.187311 0.000000
O O18 0.603184 0.801592 0.750000
O O19 0.610131 0.762344 0.500000
#
# Coordination Sequence:
#
# PCOD9588543 Si02
#       6
#    24  24  24  24  24  24
#     4  10  22  38  56  80 109 141 179 222 267 320
#     4   9  17  31  51  74 102 136 174 215 258 307
#     4  11  23  39  58  80 108 143 183 228 277 328
#     4  10  20  36  58  81 105 133 168 212 262 317
#     4  10  20  34  55  82 112 147 187 232 279 328
#     4  11  21  33  53  78 107 142 178 218 265 318
#
# _framework density 17.775154000000001
#
# number of rings (size 3 to 8) (size 9 to 14) (size 15 to 20)
#    0.000    1.833    0.000    6.167    0.000    6.000 
#    0.000    0.833    0.000    0.167    0.000    1.167 
#    0.000    0.000    0.000    0.000    0.000    0.000 
#
# Total GULP energy -803737.701288 kJ/mol
# GULP energy per Si atom -5581.511815 kJ/mol
# Density = 1.773470 g / cm^3
# Si number density = 17.775154 Si / 1000 Ang^3
#
#
#
# Elastic Constant Matrix: (Units=GPa)
#
#
# Indices 1 2 3 4 5 6 
#
# 1 129.9000 77.7140 60.3895 0.0000 0.0000 0.0000
# 2 77.7140 129.9000 60.3895 0.0000 0.0000 0.0000
# 3 60.3895 60.3895 78.4205 0.0000 0.0000 0.0000
# 4 0.0000 0.0000 0.0000 38.4612 0.0000 0.0000
# 5 0.0000 0.0000 0.0000 0.0000 38.4612 0.0000
# 6 0.0000 0.0000 0.0000 0.0000 0.0000 26.0930
#
#
#
# Elastic Compliance Matrix: (Units=1/GPa)
#
#
# Indices 1 2 3 4 5 6 
#
# 1 0.013944 -0.005218 -0.006719 0.000000 0.000000 0.000000
# 2 -0.005218 0.013944 -0.006719 0.000000 0.000000 0.000000
# 3 -0.006719 -0.006719 0.023101 0.000000 0.000000 0.000000
# 4 0.000000 0.000000 0.000000 0.026000 0.000000 0.000000
# 5 0.000000 0.000000 0.000000 0.000000 0.026000 0.000000
# 6 0.000000 0.000000 0.000000 0.000000 0.000000 0.038324
#
#
# Mechanical properties :
#
#
# Convention : Reuss Voigt Hill
#
# Bulk Modulus (GPa) = 73.12959 81.68960 77.40960
# Shear Modulus (GPa) = 27.29478 29.91827 28.60652
#
# Velocity S-wave (km/s) = 3.92287 4.10707 4.01603
# Velocity P-wave (km/s) = 7.85807 8.27935 8.07146
#
# Compressibility (1/GPa) = 0.01367435
#
# Stress axis : x y z
#
# Youngs Moduli (GPa) = 71.71595 71.71595 43.28908
#
# Poissons Ratio (x) = 0.37424 0.29087
# Poissons Ratio (y) = 0.37424 0.29087
# Poissons Ratio (z) = 0.48188 0.48188
#
# Static dielectric constant tensor:
#      x y z
#    x 1.601590 0.000000 0.000000 
#    y 0.000000 1.601590 0.000000 
#    z 0.000000 0.000000 1.586160 
# 
# From -- ./inp_files/1207.got.cif
#   From: 2010.05.17/outbox.cif.g08.bks.cpg/sg192_1_cif.got.tgz:1207.got - 2010.05.20 12:28:01.
