data_PCOD9588315
_publ_section_title
;
Structure prediction by ZEFSAII (Michael W. Deem and Ramdas Pophale) SiO2 
 PCOD9588315
Probable space group: P 6/M C C
;
_chemical_formula_sum "Si O2"
_cell_formula_units_Z 104
_cell_length_a 21.225579
_cell_length_b 21.225579
_cell_length_c 15.011751
_cell_angle_alpha 90.000000
_cell_angle_beta 90.000000
_cell_angle_gamma 120.000000
_cell_volume 5857.078918
_symmetry_space_group_name_H-M "P 6/M C C"
_symmetry_group_IT_number 192
_symmetry_cell_setting 'hexagonal'
loop_
_space_group_symop_operation_xyz
x,y,z
x-y,x,z
-y,x-y,z
-x,-y,z
-x+y,-x,z
y,-x+y,z
x-y,-y,1/2-z
-x,-x+y,1/2-z
y,x,1/2-z
-y,-x,1/2-z
-x+y,y,1/2-z
x,x-y,1/2-z
-x,-y,-z
-x+y,-x,-z
y,-x+y,-z
x,y,-z
x-y,x,-z
-y,x-y,-z
-x+y,y,1/2+z
x,x-y,1/2+z
-y,-x,1/2+z
y,x,1/2+z
x-y,-y,1/2+z
-x,-x+y,1/2+z
loop_
_atom_site_type_symbol
_atom_site_label
_atom_site_fract_x
_atom_site_fract_y
_atom_site_fract_z
Si Si1 0.918633 0.227932 0.500000
Si Si2 0.666667 0.333333 0.893758
Si Si3 0.290313 0.858415 0.355619
Si Si4 0.568102 0.709686 0.144381
Si Si5 0.418578 0.581422 0.354412
Si Si6 0.690702 0.918633 0.000000
O O1 0.904636 0.265602 0.414513
O O2 0.855874 0.144126 0.500000
O O3 0.000000 0.243738 0.500000
O O4 0.625105 0.374894 0.862424
O O5 0.666667 0.333334 0.000000
O O6 0.295286 0.875103 0.250000
O O7 0.225731 0.774269 0.365885
O O8 0.365495 0.865067 0.388934
O O9 0.265602 0.904635 0.414513
O O10 0.499572 0.634505 0.111066
O O11 0.427523 0.572478 0.250000
#
# Coordination Sequence:
#
# PCOD9588315 Si02
#       6
#    12   8  24  24  24  12
#     4  10  22  39  59  78 101 127 161 203 250 314
#     4  12  22  20  40  72 103 143 193 249 271 296
#     4   9  18  31  50  74 104 141 179 218 255 293
#     4   9  18  31  50  74 104 141 179 218 255 293
#     4  10  18  30  44  67 104 143 185 231 268 289
#     4  10  22  39  59  78 101 127 161 203 250 314
#
# _framework density 17.756291000000001
#
# number of rings (size 3 to 8) (size 9 to 14) (size 15 to 20)
#    0.000    2.308    2.308    0.692    3.231    0.923 
#    0.000    2.308    0.000    4.385    0.000    0.000 
#    0.000    0.000    0.000   11.538    0.000    0.000 
#
# Total GULP energy -580172.812201 kJ/mol
# GULP energy per Si atom -5578.584733 kJ/mol
# Density = 1.771588 g / cm^3
# Si number density = 17.756291 Si / 1000 Ang^3
#
#
#
# Elastic Constant Matrix: (Units=GPa)
#
#
# Indices 1 2 3 4 5 6 
#
# 1 82.4286 61.1784 25.3495 0.0000 0.0000 0.0000
# 2 61.1784 82.4287 25.3495 0.0000 0.0000 0.0000
# 3 25.3495 25.3495 66.5846 0.0000 0.0000 0.0000
# 4 0.0000 0.0000 0.0000 13.2315 0.0000 0.0000
# 5 0.0000 0.0000 0.0000 0.0000 13.2315 0.0000
# 6 0.0000 0.0000 0.0000 0.0000 0.0000 10.6251
#
#
#
# Elastic Compliance Matrix: (Units=1/GPa)
#
#
# Indices 1 2 3 4 5 6 
#
# 1 0.027552 -0.019507 -0.003063 0.000000 0.000000 0.000000
# 2 -0.019507 0.027551 -0.003063 0.000000 0.000000 0.000000
# 3 -0.003063 -0.003063 0.017351 0.000000 0.000000 0.000000
# 4 0.000000 0.000000 0.000000 0.075577 0.000000 0.000000
# 5 0.000000 0.000000 0.000000 0.000000 0.075577 0.000000
# 6 0.000000 0.000000 0.000000 0.000000 0.000000 0.094117
#
#
# Mechanical properties :
#
#
# Convention : Reuss Voigt Hill
#
# Bulk Modulus (GPa) = 47.19413 50.57741 48.88577
# Shear Modulus (GPa) = 13.29604 15.38859 14.34231
#
# Velocity S-wave (km/s) = 2.73940 2.94710 2.84514
# Velocity P-wave (km/s) = 6.05329 6.33455 6.19552
#
# Compressibility (1/GPa) = 0.02118908
#
# Stress axis : x y z
#
# Youngs Moduli (GPa) = 36.29564 36.29568 57.63519
#
# Poissons Ratio (x) = 0.70801 0.17652
# Poissons Ratio (y) = 0.70801 0.17652
# Poissons Ratio (z) = 0.11116 0.11116
#
# Static dielectric constant tensor:
#      x y z
#    x 1.592390 0.000000 0.000000 
#    y 0.000000 1.592390 0.000000 
#    z 0.000000 0.000000 1.627140 
# 
# From -- ./inp_files/2959.got.cif
#   From: 2010.05.17/outbox.cif.g08.bks.cpg/sg192_2_cif.got.tgz:2959.got - 2010.05.20 12:28:01.
