data_PCOD9588398
_publ_section_title
;
Structure prediction by ZEFSAII (Michael W. Deem and Ramdas Pophale) SiO2 
 PCOD9588398
Probable space group: P 6/M C C
;
_chemical_formula_sum "Si O2"
_cell_formula_units_Z 120
_cell_length_a 20.234916
_cell_length_b 20.234916
_cell_length_c 15.259402
_cell_angle_alpha 90.000000
_cell_angle_beta 90.000000
_cell_angle_gamma 120.000000
_cell_volume 5410.918067
_symmetry_space_group_name_H-M "P 6/M C C"
_symmetry_group_IT_number 192
_symmetry_cell_setting 'hexagonal'
loop_
_space_group_symop_operation_xyz
x,y,z
x-y,x,z
-y,x-y,z
-x,-y,z
-x+y,-x,z
y,-x+y,z
x-y,-y,1/2-z
-x,-x+y,1/2-z
y,x,1/2-z
-y,-x,1/2-z
-x+y,y,1/2-z
x,x-y,1/2-z
-x,-y,-z
-x+y,-x,-z
y,-x+y,-z
x,y,-z
x-y,x,-z
-y,x-y,-z
-x+y,y,1/2+z
x,x-y,1/2+z
-y,-x,1/2+z
y,x,1/2+z
x-y,-y,1/2+z
-x,-x+y,1/2+z
loop_
_atom_site_type_symbol
_atom_site_label
_atom_site_fract_x
_atom_site_fract_y
_atom_site_fract_z
Si Si1 0.820589 0.662385 0.601957
Si Si2 0.696197 0.172660 0.779614
Si Si3 0.689461 0.644116 0.836429
Si Si4 0.523494 0.939847 0.600817
Si Si5 0.880788 0.050483 0.106955
O O1 0.798961 0.645571 0.500000
O O2 0.762489 0.594204 0.663541
O O3 0.905958 0.675026 0.613895
O O4 0.826315 0.741787 0.628356
O O5 0.739701 0.260300 0.750000
O O6 0.674634 0.112191 0.701067
O O7 0.623925 0.136593 0.842528
O O8 0.689511 0.689511 0.750000
O O9 0.615958 0.630959 0.890651
O O10 0.501221 0.922860 0.500000
O O11 0.500000 0.000000 0.634081
O O12 0.965958 0.110704 0.137772
O O13 0.882754 0.049434 0.000000
#
# Coordination Sequence:
#
# PCOD9588398 Si02
#       5
#    24  24  24  24  24
#     4  10  19  31  51  75 101 142 193 247 295 348
#     4   9  19  34  50  76 113 154 193 231 289 359
#     4   9  19  32  49  73 110 148 186 230 293 360
#     4  10  20  34  56  86 121 155 191 243 301 362
#     4   9  18  29  43  64  92 130 182 242 298 335
#
# _framework density 22.177382999999999
#
# number of rings (size 3 to 8) (size 9 to 14) (size 15 to 20)
#    0.000    2.600    0.000    1.400    5.600    4.400 
#    0.000    0.000    0.000    0.000    0.000    0.000 
#   52.000    0.000   14.400    0.000    0.000    0.000 
#
# Total GULP energy -670366.152215 kJ/mol
# GULP energy per Si atom -5586.384602 kJ/mol
# Density = 2.212691 g / cm^3
# Si number density = 22.177383 Si / 1000 Ang^3
#
#
#
# Elastic Constant Matrix: (Units=GPa)
#
#
# Indices 1 2 3 4 5 6 
#
# 1 66.6360 5.8551 13.6277 0.0000 0.0000 0.0000
# 2 5.8551 66.6360 13.6277 0.0000 0.0000 0.0000
# 3 13.6277 13.6277 49.1458 0.0000 0.0000 0.0000
# 4 0.0000 0.0000 0.0000 18.4679 0.0000 0.0000
# 5 0.0000 0.0000 0.0000 0.0000 18.4679 0.0000
# 6 0.0000 0.0000 0.0000 0.0000 0.0000 30.3904
#
#
#
# Elastic Compliance Matrix: (Units=1/GPa)
#
#
# Indices 1 2 3 4 5 6 
#
# 1 0.015926 -0.000526 -0.004270 0.000000 0.000000 0.000000
# 2 -0.000526 0.015926 -0.004270 0.000000 0.000000 0.000000
# 3 -0.004270 -0.004270 0.022716 0.000000 0.000000 0.000000
# 4 0.000000 0.000000 0.000000 0.054148 0.000000 0.000000
# 5 0.000000 0.000000 0.000000 0.000000 0.054148 0.000000
# 6 0.000000 0.000000 0.000000 0.000000 0.000000 0.032905
#
#
# Mechanical properties :
#
#
# Convention : Reuss Voigt Hill
#
# Bulk Modulus (GPa) = 27.44606 27.62654 27.53630
# Shear Modulus (GPa) = 22.11911 23.41905 22.76908
#
# Velocity S-wave (km/s) = 3.16155 3.25312 3.20766
# Velocity P-wave (km/s) = 5.07245 5.15699 5.11489
#
# Compressibility (1/GPa) = 0.03643510
#
# Stress axis : x y z
#
# Youngs Moduli (GPa) = 62.78854 62.78854 44.02205
#
# Poissons Ratio (x) = 0.03303 0.18799
# Poissons Ratio (y) = 0.03303 0.18799
# Poissons Ratio (z) = 0.26813 0.26813
#
# Static dielectric constant tensor:
#      x y z
#    x 1.857460 0.000000 0.000000 
#    y 0.000000 1.857460 0.000000 
#    z 0.000000 0.000000 1.819850 
# 
# From -- ./inp_files/3162.got.cif
#   From: 2010.05.17/outbox.cif.g08.bks.cpg/sg192_2_cif.got.tgz:3162.got - 2010.05.20 12:28:01.
