data_PCOD9588011
_publ_section_title
;
Structure prediction by ZEFSAII (Michael W. Deem and Ramdas Pophale) SiO2 
 PCOD9588011
Probable space group: P 6/M M M
;
_chemical_formula_sum "Si O2"
_cell_formula_units_Z 102
_cell_length_a 28.044366
_cell_length_b 28.044366
_cell_length_c 8.218616
_cell_angle_alpha 90.000000
_cell_angle_beta 90.000000
_cell_angle_gamma 120.000000
_cell_volume 5597.841193
_symmetry_space_group_name_H-M "P 6/M M M"
_symmetry_group_IT_number 191
_symmetry_cell_setting 'hexagonal'
loop_
_space_group_symop_operation_xyz
x,y,z
x-y,x,z
-y,x-y,z
-x,-y,z
-x+y,-x,z
y,-x+y,z
x-y,-y,-z
-x,-x+y,-z
y,x,-z
-y,-x,-z
-x+y,y,-z
x,x-y,-z
-x,-y,-z
-x+y,-x,-z
y,-x+y,-z
x,y,-z
x-y,x,-z
-y,x-y,-z
-x+y,y,z
x,x-y,z
-y,-x,z
y,x,z
x-y,-y,z
-x,-x+y,z
loop_
_atom_site_type_symbol
_atom_site_label
_atom_site_fract_x
_atom_site_fract_y
_atom_site_fract_z
Si Si1 0.442460 0.000000 0.683265
Si Si2 0.193177 0.193177 0.799521
Si Si3 0.000000 0.883268 0.500000
Si Si4 0.880538 0.386363 0.191970
Si Si5 0.429079 0.268414 0.692848
Si Si6 0.313040 0.102677 0.805094
O O1 0.459162 0.056584 0.771504
O O2 0.500000 0.000000 0.674437
O O3 0.423145 0.000000 0.500000
O O4 0.149933 0.149933 0.666497
O O5 0.201817 0.253606 0.765847
O O6 0.180884 0.180884 0.000000
O O7 0.943725 0.887450 0.500000
O O8 0.871980 0.435990 0.258893
O O9 0.843926 0.325635 0.259853
O O10 0.872917 0.384881 0.000000
O O11 0.427120 0.264713 0.500000
O O12 0.432547 0.216274 0.761771
O O13 0.370590 0.261599 0.748007
O O14 0.313608 0.156804 0.738782
O O15 0.315595 0.105052 0.000000
#
# Coordination Sequence:
#
# PCOD9588011 Si02
#       6
#    12  12   6  24  24  24
#     4   9  17  30  49  73 101 131 163 202 250 305
#     4  10  22  40  64  93 121 156 201 247 302 361
#     4  12  27  44  66  92 124 164 207 258 310 360
#     4  10  20  34  53  77 107 145 185 225 271 326
#     4  10  21  35  53  78 109 145 184 229 283 340
#     4   9  18  34  55  79 110 145 181 227 283 343
#
# _framework density 18.221309000000002
#
# number of rings (size 3 to 8) (size 9 to 14) (size 15 to 20)
#    0.000    2.235    0.000    2.529    1.647    6.588 
#    0.000    3.529    0.000    1.176    0.000    0.000 
#    0.000    0.000    0.000    0.000    0.000    0.000 
#
# Total GULP energy -567934.239776 kJ/mol
# GULP energy per Si atom -5567.982743 kJ/mol
# Density = 1.817984 g / cm^3
# Si number density = 18.221309 Si / 1000 Ang^3
#
#
#
# Elastic Constant Matrix: (Units=GPa)
#
#
# Indices 1 2 3 4 5 6 
#
# 1 114.1020 55.9299 30.8022 0.0000 0.0000 0.0000
# 2 55.9299 114.1020 30.8022 0.0000 0.0000 0.0000
# 3 30.8022 30.8022 53.3174 0.0000 0.0000 0.0000
# 4 0.0000 0.0000 0.0000 25.3533 0.0000 0.0000
# 5 0.0000 0.0000 0.0000 0.0000 25.3533 0.0000
# 6 0.0000 0.0000 0.0000 0.0000 0.0000 29.0860
#
#
#
# Elastic Compliance Matrix: (Units=1/GPa)
#
#
# Indices 1 2 3 4 5 6 
#
# 1 0.012314 -0.004876 -0.004297 0.000000 0.000000 0.000000
# 2 -0.004876 0.012314 -0.004297 0.000000 0.000000 0.000000
# 3 -0.004297 -0.004297 0.023721 0.000000 0.000000 0.000000
# 4 0.000000 0.000000 0.000000 0.039443 0.000000 0.000000
# 5 0.000000 0.000000 0.000000 0.000000 0.039443 0.000000
# 6 0.000000 0.000000 0.000000 0.000000 0.000000 0.034381
#
#
# Mechanical properties :
#
#
# Convention : Reuss Voigt Hill
#
# Bulk Modulus (GPa) = 46.71060 57.39892 52.05476
# Shear Modulus (GPa) = 25.55038 26.89101 26.22069
#
# Velocity S-wave (km/s) = 3.74869 3.84578 3.79755
# Velocity P-wave (km/s) = 6.66541 7.16166 6.91799
#
# Compressibility (1/GPa) = 0.02140842
#
# Stress axis : x y z
#
# Youngs Moduli (GPa) = 81.20667 81.20667 42.15740
#
# Poissons Ratio (x) = 0.39597 0.18116
# Poissons Ratio (y) = 0.39597 0.18116
# Poissons Ratio (z) = 0.34896 0.34896
#
# Static dielectric constant tensor:
#      x y z
#    x 1.653440 0.000000 0.000000 
#    y 0.000000 1.653440 0.000000 
#    z 0.000000 0.000000 1.637970 
# 
# From -- ./inp_files/1478.got.cif
#   From: 2010.05.17/outbox.cif.g08.bks.cpg/sg191_1_cif.got.tgz:1478.got - 2010.05.20 12:20:32.
