data_PCOD9588409
_publ_section_title
;
Structure prediction by ZEFSAII (Michael W. Deem and Ramdas Pophale) SiO2 
 PCOD9588409
Probable space group: P 6/M C C
;
_chemical_formula_sum "Si O2"
_cell_formula_units_Z 128
_cell_length_a 20.506949
_cell_length_b 20.506949
_cell_length_c 14.077987
_cell_angle_alpha 90.000000
_cell_angle_beta 90.000000
_cell_angle_gamma 120.000000
_cell_volume 5127.117781
_symmetry_space_group_name_H-M "P 6/M C C"
_symmetry_group_IT_number 192
_symmetry_cell_setting 'hexagonal'
loop_
_space_group_symop_operation_xyz
x,y,z
x-y,x,z
-y,x-y,z
-x,-y,z
-x+y,-x,z
y,-x+y,z
x-y,-y,1/2-z
-x,-x+y,1/2-z
y,x,1/2-z
-y,-x,1/2-z
-x+y,y,1/2-z
x,x-y,1/2-z
-x,-y,-z
-x+y,-x,-z
y,-x+y,-z
x,y,-z
x-y,x,-z
-y,x-y,-z
-x+y,y,1/2+z
x,x-y,1/2+z
-y,-x,1/2+z
y,x,1/2+z
x-y,-y,1/2+z
-x,-x+y,1/2+z
loop_
_atom_site_type_symbol
_atom_site_label
_atom_site_fract_x
_atom_site_fract_y
_atom_site_fract_z
Si Si1 0.174929 0.075168 0.115492
Si Si2 0.666668 0.333334 0.361010
Si Si3 0.258436 0.756644 0.889356
Si Si4 0.382886 0.963949 0.615482
Si Si5 0.117401 0.531726 0.883818
Si Si6 0.878933 0.658335 0.615837
O O1 0.137317 0.124850 0.144077
O O2 0.262090 0.110847 0.145952
O O3 0.175327 0.075418 0.000000
O O4 0.666668 0.333334 0.250000
O O5 0.681571 0.265812 0.391369
O O6 0.338491 0.814240 0.843517
O O7 0.192499 0.770832 0.853695
O O8 0.260840 0.775788 0.000000
O O9 0.381672 0.961567 0.500000
O O10 0.403391 0.900499 0.645826
O O11 0.301642 0.948282 0.645514
O O12 0.452858 0.043364 0.641352
O O13 0.122128 0.535913 0.000000
O O14 0.877798 0.659799 0.500000
#
# Coordination Sequence:
#
# PCOD9588409 Si02
#       6
#    24   8  24  24  24  24
#     4   9  17  27  39  59  98 149 187 212 253 321
#     4  12  25  38  52  72 103 143 175 207 259 326
#     4  10  19  32  51  74  98 130 176 226 265 300
#     4   8  13  22  34  57  91 121 148 194 261 315
#     4   8  14  23  40  62  90 122 153 198 261 311
#     4   9  17  25  41  67  97 128 171 225 267 301
#
# _framework density 24.965292999999999
#
# number of rings (size 3 to 8) (size 9 to 14) (size 15 to 20)
#    0.000    3.000    0.000    3.000    2.625    3.750 
#    0.000    0.000    0.000    0.000    0.000   10.500 
#    0.000    0.000    0.000    0.375    0.000    2.250 
#
# Total GULP energy -714651.883664 kJ/mol
# GULP energy per Si atom -5583.217841 kJ/mol
# Density = 2.490847 g / cm^3
# Si number density = 24.965293 Si / 1000 Ang^3
#
#
#
# Elastic Constant Matrix: (Units=GPa)
#
#
# Indices 1 2 3 4 5 6 
#
# 1 148.3540 87.7454 17.7346 0.0000 0.0000 0.0001
# 2 87.7454 148.3545 17.7348 -0.0001 0.0001 -0.0001
# 3 17.7346 17.7348 90.5633 0.0001 -0.0001 0.0000
# 4 0.0000 -0.0001 0.0001 -12.2057 0.0000 -0.0001
# 5 0.0000 0.0001 -0.0001 0.0000 -12.2056 0.0000
# 6 0.0001 -0.0001 0.0000 -0.0001 0.0000 30.3045
#
#
#
# Elastic Compliance Matrix: (Units=1/GPa)
#
#
# Indices 1 2 3 4 5 6 
#
# 1 0.010432 -0.006068 -0.000855 0.000000 0.000000 0.000000
# 2 -0.006068 0.010432 -0.000855 0.000000 0.000000 0.000000
# 3 -0.000855 -0.000855 0.011377 0.000000 0.000000 0.000000
# 4 0.000000 0.000000 0.000000 -0.081929 0.000000 0.000000
# 5 0.000000 0.000000 0.000000 0.000000 -0.081930 0.000000
# 6 0.000000 0.000000 0.000000 0.000000 0.000000 0.032998
#
#
# Mechanical properties :
#
#
# Convention : Reuss Voigt Hill
#
# Bulk Modulus (GPa) = 59.92977 70.41127 65.17052
# Shear Modulus (GPa) = -64.51206 18.78245 -22.86481
#
# Velocity S-wave (km/s) = -5.08889 2.74586 -3.02961
# Velocity P-wave (km/s) = 3.23600 6.19015 3.73137
#
# Compressibility (1/GPa) = 0.01668620
#
# Stress axis : x y z
#
# Youngs Moduli (GPa) = 95.86272 95.86299 87.89901
#
# Poissons Ratio (x) = 0.58167 0.07511
# Poissons Ratio (y) = 0.58167 0.07512
# Poissons Ratio (z) = 0.08192 0.08192
#
# Static dielectric constant tensor:
#      x y z
#    x 1.968740 0.000000 0.000000 
#    y 0.000000 1.968740 0.000000 
#    z 0.000000 0.000000 1.980170 
# 
# From -- ./inp_files/5005.got.cif
#   From: 2010.05.17/outbox.cif.g08.bks.cpg/sg192_3_cif.got.tgz:5005.got - 2010.05.20 12:28:01.
