data_PCOD9588414
_publ_section_title
;
Structure prediction by ZEFSAII (Michael W. Deem and Ramdas Pophale) SiO2 
 PCOD9588414
Probable space group: P 6/M C C
;
_chemical_formula_sum "Si O2"
_cell_formula_units_Z 192
_cell_length_a 24.467965
_cell_length_b 24.467965
_cell_length_c 21.418461
_cell_angle_alpha 90.000000
_cell_angle_beta 90.000000
_cell_angle_gamma 120.000000
_cell_volume 11104.898534
_symmetry_space_group_name_H-M "P 6/M C C"
_symmetry_group_IT_number 192
_symmetry_cell_setting 'hexagonal'
loop_
_space_group_symop_operation_xyz
x,y,z
x-y,x,z
-y,x-y,z
-x,-y,z
-x+y,-x,z
y,-x+y,z
x-y,-y,1/2-z
-x,-x+y,1/2-z
y,x,1/2-z
-y,-x,1/2-z
-x+y,y,1/2-z
x,x-y,1/2-z
-x,-y,-z
-x+y,-x,-z
y,-x+y,-z
x,y,-z
x-y,x,-z
-y,x-y,-z
-x+y,y,1/2+z
x,x-y,1/2+z
-y,-x,1/2+z
y,x,1/2+z
x-y,-y,1/2+z
-x,-x+y,1/2+z
loop_
_atom_site_type_symbol
_atom_site_label
_atom_site_fract_x
_atom_site_fract_y
_atom_site_fract_z
Si Si1 0.719541 0.475345 0.424257
Si Si2 0.010985 0.251636 0.683148
Si Si3 0.047696 0.571055 0.924193
Si Si4 0.956794 0.306117 0.072472
Si Si5 0.618136 0.812919 0.927548
Si Si6 0.740832 0.861786 0.852664
Si Si7 0.073679 0.932631 0.573956
Si Si8 0.612513 0.423357 0.076267
O O1 0.718495 0.472918 0.500000
O O2 0.758070 0.549071 0.408605
O O3 0.647360 0.437320 0.403170
O O4 0.759774 0.442881 0.403738
O O5 0.015593 0.293427 0.622952
O O6 0.078428 0.253379 0.685405
O O7 0.000000 0.274752 0.750000
O O8 0.948558 0.182996 0.674846
O O9 0.029167 0.624176 0.909429
O O10 0.118950 0.593708 0.903382
O O11 0.000000 0.500000 0.902646
O O12 0.048331 0.569619 0.000000
O O13 0.880723 0.259588 0.073234
O O14 0.976951 0.306277 0.000000
O O15 0.670888 0.819496 0.879461
O O16 0.630449 0.802671 0.000000
O O17 0.785915 0.897049 0.911194
O O18 0.069571 0.936632 0.500000
O O19 0.003119 0.894102 0.599555
O O20 0.612557 0.423758 0.000000
#
# Coordination Sequence:
#
# PCOD9588414 Si02
#       8
#    24  24  24  24  24  24  24  24
#     4   9  15  24  39  62  99 140 177 213 254 308
#     4  11  24  40  58  78 104 138 178 224 270 323
#     4   9  16  27  45  71 103 137 174 214 262 316
#     4   9  18  34  55  76 104 142 177 218 268 318
#     4   9  17  29  46  71 103 138 174 218 263 306
#     4  11  21  36  55  74  99 134 177 218 269 323
#     4  10  19  32  51  77 107 136 168 210 263 322
#     4   9  15  23  37  60  93 136 177 211 253 312
#
# _framework density 17.289667999999999
#
# number of rings (size 3 to 8) (size 9 to 14) (size 15 to 20)
#    0.000    2.375    2.500    1.125    0.000    4.000 
#    0.000    2.500    0.000    0.375    0.000    1.750 
#    0.000    0.000    0.000    0.000    0.000    0.000 
#
# Total GULP energy -1069092.803098 kJ/mol
# GULP energy per Si atom -5568.191683 kJ/mol
# Density = 1.725032 g / cm^3
# Si number density = 17.289668 Si / 1000 Ang^3
#
#
#
# Elastic Constant Matrix: (Units=GPa)
#
#
# Indices 1 2 3 4 5 6 
#
# 1 88.0606 46.6861 29.2003 0.0000 0.0000 0.0000
# 2 46.6861 88.0606 29.2003 0.0000 0.0000 0.0000
# 3 29.2003 29.2003 46.7566 0.0000 0.0000 0.0000
# 4 0.0000 0.0000 0.0000 5.1572 0.0000 0.0000
# 5 0.0000 0.0000 0.0000 0.0000 5.1572 0.0000
# 6 0.0000 0.0000 0.0000 0.0000 0.0000 20.6873
#
#
#
# Elastic Compliance Matrix: (Units=1/GPa)
#
#
# Indices 1 2 3 4 5 6 
#
# 1 0.017173 -0.006997 -0.006355 0.000000 0.000000 0.000000
# 2 -0.006997 0.017173 -0.006355 0.000000 0.000000 0.000000
# 3 -0.006355 -0.006355 0.029325 0.000000 0.000000 0.000000
# 4 0.000000 0.000000 0.000000 0.193902 0.000000 0.000000
# 5 0.000000 0.000000 0.000000 0.000000 0.193902 0.000000
# 6 0.000000 0.000000 0.000000 0.000000 0.000000 0.048339
#
#
# Mechanical properties :
#
#
# Convention : Reuss Voigt Hill
#
# Bulk Modulus (GPa) = 41.22587 48.11681 44.67134
# Shear Modulus (GPa) = 9.13556 14.05309 11.59433
#
# Velocity S-wave (km/s) = 2.30115 2.85406 2.59239
# Velocity P-wave (km/s) = 5.56385 6.22504 5.90371
#
# Compressibility (1/GPa) = 0.02425661
#
# Stress axis : x y z
#
# Youngs Moduli (GPa) = 58.23258 58.23258 34.10088
#
# Poissons Ratio (x) = 0.40745 0.21671
# Poissons Ratio (y) = 0.40745 0.21671
# Poissons Ratio (z) = 0.37006 0.37006
#
# Static dielectric constant tensor:
#      x y z
#    x 1.603000 0.000000 0.000000 
#    y 0.000000 1.603000 0.000000 
#    z 0.000000 0.000000 1.561980 
# 
# From -- ./inp_files/6182.got.cif
#   From: 2010.05.17/outbox.cif.g08.bks.cpg/sg192_4_cif.got.tgz:6182.got - 2010.05.20 12:28:01.
