data_PCOD9588736
_publ_section_title
;
Structure prediction by ZEFSAII (Michael W. Deem and Ramdas Pophale) SiO2 
 PCOD9588736
Probable space group: P 6/M C C
;
_chemical_formula_sum "Si O2"
_cell_formula_units_Z 168
_cell_length_a 18.902345
_cell_length_b 18.902345
_cell_length_c 26.781013
_cell_angle_alpha 90.000000
_cell_angle_beta 90.000000
_cell_angle_gamma 120.000000
_cell_volume 8286.840942
_symmetry_space_group_name_H-M "P 6/M C C"
_symmetry_group_IT_number 192
_symmetry_cell_setting 'hexagonal'
loop_
_space_group_symop_operation_xyz
x,y,z
x-y,x,z
-y,x-y,z
-x,-y,z
-x+y,-x,z
y,-x+y,z
x-y,-y,1/2-z
-x,-x+y,1/2-z
y,x,1/2-z
-y,-x,1/2-z
-x+y,y,1/2-z
x,x-y,1/2-z
-x,-y,-z
-x+y,-x,-z
y,-x+y,-z
x,y,-z
x-y,x,-z
-y,x-y,-z
-x+y,y,1/2+z
x,x-y,1/2+z
-y,-x,1/2+z
y,x,1/2+z
x-y,-y,1/2+z
-x,-x+y,1/2+z
loop_
_atom_site_type_symbol
_atom_site_label
_atom_site_fract_x
_atom_site_fract_y
_atom_site_fract_z
Si Si1 0.158526 0.746045 0.557703
Si Si2 0.448388 0.311962 0.374126
Si Si3 0.044035 0.184996 0.554899
Si Si4 0.826024 0.331672 0.239783
Si Si5 0.098112 0.554936 0.443245
Si Si6 0.013023 0.286106 0.116930
Si Si7 0.761008 0.087363 0.222960
O O1 0.182083 0.770424 0.500000
O O2 0.229702 0.801827 0.596220
O O3 0.131780 0.650798 0.563174
O O4 0.076518 0.747273 0.571960
O O5 0.473916 0.315270 0.317038
O O6 0.521748 0.385107 0.403701
O O7 0.369424 0.323814 0.375077
O O8 0.054818 0.224730 0.500000
O O9 0.047771 0.241642 0.599906
O O10 0.108005 0.154315 0.557919
O O11 0.730875 0.269126 0.250000
O O12 0.847607 0.423804 0.250000
O O13 0.877527 0.301319 0.272784
O O14 0.117757 0.541984 0.500000
O O15 0.000000 0.500000 0.438274
O O16 0.066536 0.298077 0.165866
O O17 0.844125 0.155876 0.250000
O O18 0.721805 0.000000 0.250000
#
# Coordination Sequence:
#
# PCOD9588736 Si02
#       7
#    24  24  24  24  24  24  24
#     4  11  24  42  66  96 135 175 216 269 329 400
#     4  12  25  42  69  96 129 173 218 275 330 391
#     4  10  22  39  62  94 132 171 212 261 324 396
#     4  11  26  46  69  97 131 170 220 279 338 398
#     4  10  22  42  65  94 132 174 217 264 323 393
#     4  12  24  40  66  98 127 168 219 271 330 388
#     4  11  25  46  66  96 134 173 220 274 333 396
#
# _framework density 20.273105000000001
#
# number of rings (size 3 to 8) (size 9 to 14) (size 15 to 20)
#    0.000    1.000    2.857    3.714    6.000    3.714 
#    0.857    0.000    0.000    0.143    0.000    0.000 
#    0.000    0.000    0.000    0.000    0.000    0.000 
#
# Total GULP energy -939280.165265 kJ/mol
# GULP energy per Si atom -5590.953365 kJ/mol
# Density = 2.022696 g / cm^3
# Si number density = 20.273105 Si / 1000 Ang^3
#
#
#
# Elastic Constant Matrix: (Units=GPa)
#
#
# Indices 1 2 3 4 5 6 
#
# 1 86.7525 23.4986 27.3569 0.0000 0.0000 0.0000
# 2 23.4986 86.7525 27.3569 0.0000 0.0000 0.0000
# 3 27.3569 27.3569 94.1941 0.0000 0.0000 0.0000
# 4 0.0000 0.0000 0.0000 23.6618 0.0000 0.0000
# 5 0.0000 0.0000 0.0000 0.0000 23.6618 0.0000
# 6 0.0000 0.0000 0.0000 0.0000 0.0000 31.6270
#
#
#
# Elastic Compliance Matrix: (Units=1/GPa)
#
#
# Indices 1 2 3 4 5 6 
#
# 1 0.013203 -0.002606 -0.003078 0.000000 0.000000 0.000000
# 2 -0.002606 0.013203 -0.003078 0.000000 0.000000 0.000000
# 3 -0.003078 -0.003078 0.012404 0.000000 0.000000 0.000000
# 4 0.000000 0.000000 0.000000 0.042262 0.000000 0.000000
# 5 0.000000 0.000000 0.000000 0.000000 0.042262 0.000000
# 6 0.000000 0.000000 0.000000 0.000000 0.000000 0.031619
#
#
# Mechanical properties :
#
#
# Convention : Reuss Voigt Hill
#
# Bulk Modulus (GPa) = 46.97490 47.12487 47.04988
# Shear Modulus (GPa) = 27.84380 28.42259 28.13319
#
# Velocity S-wave (km/s) = 3.71001 3.74837 3.72924
# Velocity P-wave (km/s) = 6.44776 6.48299 6.46540
#
# Compressibility (1/GPa) = 0.02128796
#
# Stress axis : x y z
#
# Youngs Moduli (GPa) = 75.73767 75.73767 80.61784
#
# Poissons Ratio (x) = 0.19736 0.24813
# Poissons Ratio (y) = 0.19736 0.24813
# Poissons Ratio (z) = 0.23311 0.23311
#
# Static dielectric constant tensor:
#      x y z
#    x 1.713940 0.000000 0.000000 
#    y 0.000000 1.713940 0.000000 
#    z 0.000000 0.000000 1.713470 
# 
# From -- ./inp_files/7186.got.cif
#   From: 2010.05.17/outbox.cif.g08.bks.cpg/sg192_4_cif.got.tgz:7186.got - 2010.05.20 12:28:01.
