data_PCOD9588336
_publ_section_title
;
Structure prediction by ZEFSAII (Michael W. Deem and Ramdas Pophale) SiO2 
 PCOD9588336
Probable space group: P 6/M C C
;
_chemical_formula_sum "Si O2"
_cell_formula_units_Z 168
_cell_length_a 24.903056
_cell_length_b 24.903056
_cell_length_c 18.552093
_cell_angle_alpha 90.000000
_cell_angle_beta 90.000000
_cell_angle_gamma 120.000000
_cell_volume 9963.887945
_symmetry_space_group_name_H-M "P 6/M C C"
_symmetry_group_IT_number 192
_symmetry_cell_setting 'hexagonal'
loop_
_space_group_symop_operation_xyz
x,y,z
x-y,x,z
-y,x-y,z
-x,-y,z
-x+y,-x,z
y,-x+y,z
x-y,-y,1/2-z
-x,-x+y,1/2-z
y,x,1/2-z
-y,-x,1/2-z
-x+y,y,1/2-z
x,x-y,1/2-z
-x,-y,-z
-x+y,-x,-z
y,-x+y,-z
x,y,-z
x-y,x,-z
-y,x-y,-z
-x+y,y,1/2+z
x,x-y,1/2+z
-y,-x,1/2+z
y,x,1/2+z
x-y,-y,1/2+z
-x,-x+y,1/2+z
loop_
_atom_site_type_symbol
_atom_site_label
_atom_site_fract_x
_atom_site_fract_y
_atom_site_fract_z
Si Si1 0.281224 0.751082 0.415150
Si Si2 0.294986 0.927864 0.342807
Si Si3 0.796387 0.601533 0.662161
Si Si4 0.417968 0.506825 0.317724
Si Si5 0.330712 0.564543 0.704464
Si Si6 0.371795 0.310982 0.829848
Si Si7 0.885003 0.384504 0.915014
O O1 0.272264 0.742192 0.500000
O O2 0.233966 0.770486 0.379822
O O3 0.265014 0.688876 0.373359
O O4 0.348441 0.810660 0.400985
O O5 0.227967 0.868990 0.360388
O O6 0.300496 0.933728 0.256348
O O7 0.345048 0.910239 0.373205
O O8 0.316770 0.998247 0.364488
O O9 0.798617 0.597233 0.750000
O O10 0.747752 0.623865 0.642356
O O11 0.465250 0.534751 0.250000
O O12 0.364189 0.524036 0.300708
O O13 0.378333 0.434516 0.335563
O O14 0.459299 0.547128 0.384207
O O15 0.375951 0.624050 0.750000
O O16 0.267283 0.534565 0.750000
O O17 0.894706 0.382791 0.000000
#
# Coordination Sequence:
#
# PCOD9588336 Si02
#       7
#    24  24  24  24  24  24  24
#     4  10  19  33  52  69  91 122 157 200 252 299
#     4   9  19  33  52  75  96 124 158 194 236 284
#     4   9  17  32  55  73  96 124 158 196 234 286
#     4  11  20  32  50  70  92 121 159 204 244 291
#     4  11  22  33  50  69  88 118 164 206 248 303
#     4  10  18  32  53  77  95 122 164 198 231 283
#     4  10  21  36  49  66  97 127 151 196 255 298
#
# _framework density 16.860889
#
# number of rings (size 3 to 8) (size 9 to 14) (size 15 to 20)
#    0.000    2.000    2.857    2.286    2.000    1.143 
#    0.000    2.857    0.000    0.000    0.000    0.000 
#    0.000    0.000    0.000    0.429    0.000   13.714 
#
# Total GULP energy -936675.475908 kJ/mol
# GULP energy per Si atom -5575.449261 kJ/mol
# Density = 1.682251 g / cm^3
# Si number density = 16.860889 Si / 1000 Ang^3
#
#
#
# Elastic Constant Matrix: (Units=GPa)
#
#
# Indices 1 2 3 4 5 6 
#
# 1 72.8430 44.0640 13.8515 0.0000 0.0000 0.0000
# 2 44.0640 72.8430 13.8515 0.0000 0.0000 0.0000
# 3 13.8515 13.8515 46.9397 0.0000 0.0000 0.0000
# 4 0.0000 0.0000 0.0000 8.8406 0.0000 0.0000
# 5 0.0000 0.0000 0.0000 0.0000 8.8406 0.0000
# 6 0.0000 0.0000 0.0000 0.0000 0.0000 14.3895
#
#
#
# Elastic Compliance Matrix: (Units=1/GPa)
#
#
# Indices 1 2 3 4 5 6 
#
# 1 0.021972 -0.012775 -0.002714 0.000000 0.000000 0.000000
# 2 -0.012775 0.021972 -0.002714 0.000000 0.000000 0.000000
# 3 -0.002714 -0.002714 0.022906 0.000000 0.000000 0.000000
# 4 0.000000 0.000000 0.000000 0.113115 0.000000 0.000000
# 5 0.000000 0.000000 0.000000 0.000000 0.113115 0.000000
# 6 0.000000 0.000000 0.000000 0.000000 0.000000 0.069495
#
#
# Mechanical properties :
#
#
# Convention : Reuss Voigt Hill
#
# Bulk Modulus (GPa) = 32.84744 37.35105 35.09925
# Shear Modulus (GPa) = 12.22107 14.47138 13.34623
#
# Velocity S-wave (km/s) = 2.69516 2.93282 2.81650
# Velocity P-wave (km/s) = 5.40453 5.80251 5.60705
#
# Compressibility (1/GPa) = 0.03044377
#
# Stress axis : x y z
#
# Youngs Moduli (GPa) = 45.51200 45.51200 43.65738
#
# Poissons Ratio (x) = 0.58143 0.11848
# Poissons Ratio (y) = 0.58143 0.11848
# Poissons Ratio (z) = 0.12352 0.12352
#
# Static dielectric constant tensor:
#      x y z
#    x 1.618610 0.000000 0.000000 
#    y 0.000000 1.618610 0.000000 
#    z 0.000000 0.000000 1.599740 
# 
# From -- ./inp_files/5367.got.cif
#   From: 2010.05.17/outbox.cif.g08.bks.cpg/sg192_3_cif.got.tgz:5367.got - 2010.05.20 12:28:01.
