data_PCOD9588150
_publ_section_title
;
Structure prediction by ZEFSAII (Michael W. Deem and Ramdas Pophale) SiO2 
 PCOD9588150
Probable space group: P 6/M M M
;
_chemical_formula_sum "Si O2"
_cell_formula_units_Z 144
_cell_length_a 21.879447
_cell_length_b 21.879447
_cell_length_c 20.459164
_cell_angle_alpha 90.000000
_cell_angle_beta 90.000000
_cell_angle_gamma 120.000000
_cell_volume 8481.861908
_symmetry_space_group_name_H-M "P 6/M M M"
_symmetry_group_IT_number 191
_symmetry_cell_setting 'hexagonal'
loop_
_space_group_symop_operation_xyz
x,y,z
x-y,x,z
-y,x-y,z
-x,-y,z
-x+y,-x,z
y,-x+y,z
x-y,-y,-z
-x,-x+y,-z
y,x,-z
-y,-x,-z
-x+y,y,-z
x,x-y,-z
-x,-y,-z
-x+y,-x,-z
y,-x+y,-z
x,y,-z
x-y,x,-z
-y,x-y,-z
-x+y,y,z
x,x-y,z
-y,-x,z
y,x,z
x-y,-y,z
-x,-x+y,z
loop_
_atom_site_type_symbol
_atom_site_label
_atom_site_fract_x
_atom_site_fract_y
_atom_site_fract_z
Si Si1 0.664344 0.472788 0.206758
Si Si2 0.352183 0.917897 0.316422
Si Si3 0.922057 0.705402 0.268055
Si Si4 0.845280 0.542665 0.929066
Si Si5 0.219674 0.920460 0.889350
Si Si6 0.524537 0.332996 0.578008
O O1 0.744669 0.489338 0.216387
O O2 0.610043 0.389957 0.212138
O O3 0.643133 0.513013 0.259426
O O4 0.657869 0.499257 0.134823
O O5 0.278308 0.915395 0.303243
O O6 0.349177 0.878284 0.383137
O O7 0.412174 0.000000 0.314690
O O8 0.859126 0.718252 0.287271
O O9 0.916836 0.691998 0.189640
O O10 0.000000 0.769677 0.280933
O O11 0.769313 0.538625 0.930344
O O12 0.900854 0.625190 0.918707
O O13 0.856116 0.518495 0.000000
O O14 0.141424 0.858577 0.908335
O O15 0.241048 0.000000 0.906794
O O16 0.513749 0.330850 0.500000
O O17 0.516630 0.258315 0.598729
O O18 0.603722 0.396279 0.591591
#
# Coordination Sequence:
#
# PCOD9588150 Si02
#       6
#    24  24  24  24  24  24
#     4  11  22  36  54  75 101 132 169 212 259 312
#     4  11  22  35  53  76 103 136 172 211 253 297
#     4   9  16  28  48  72  97 126 163 205 247 292
#     4   9  18  32  49  69  94 125 162 206 254 302
#     4   9  16  28  47  70  95 125 163 206 251 299
#     4  10  21  37  57  79 104 135 171 211 255 305
#
# _framework density 16.977404
#
# number of rings (size 3 to 8) (size 9 to 14) (size 15 to 20)
#    0.000    2.167    1.667    2.333    0.000    3.000 
#    0.000    2.500    0.000    1.333    0.000    4.667 
#    0.000    0.000    0.000    4.167    0.000    4.333 
#
# Total GULP energy -803149.115106 kJ/mol
# GULP energy per Si atom -5577.424410 kJ/mol
# Density = 1.693876 g / cm^3
# Si number density = 16.977404 Si / 1000 Ang^3
#
#
#
# Elastic Constant Matrix: (Units=GPa)
#
#
# Indices 1 2 3 4 5 6 
#
# 1 78.7830 36.6287 33.4169 0.0000 0.0000 0.0000
# 2 36.6287 78.7830 33.4169 0.0000 0.0000 0.0000
# 3 33.4169 33.4169 57.4554 0.0000 0.0000 0.0000
# 4 0.0000 0.0000 0.0000 -7.0684 0.0000 0.0000
# 5 0.0000 0.0000 0.0000 0.0000 -7.0684 0.0000
# 6 0.0000 0.0000 0.0000 0.0000 0.0000 21.0771
#
#
#
# Elastic Compliance Matrix: (Units=1/GPa)
#
#
# Indices 1 2 3 4 5 6 
#
# 1 0.018394 -0.005329 -0.007599 0.000000 0.000000 0.000000
# 2 -0.005329 0.018394 -0.007599 0.000000 0.000000 0.000000
# 3 -0.007599 -0.007599 0.026244 0.000000 0.000000 0.000000
# 4 0.000000 0.000000 0.000000 -0.141474 0.000000 0.000000
# 5 0.000000 0.000000 0.000000 0.000000 -0.141474 0.000000
# 6 0.000000 0.000000 0.000000 0.000000 0.000000 0.047445
#
#
# Mechanical properties :
#
#
# Convention : Reuss Voigt Hill
#
# Bulk Modulus (GPa) = 45.49843 46.88293 46.19068
# Shear Modulus (GPa) = -40.29254 8.82530 -15.73362
#
# Velocity S-wave (km/s) = -4.87694 2.28244 -3.04754
# Velocity P-wave (km/s) = 2.20345 5.88395 3.85783
#
# Compressibility (1/GPa) = 0.02197878
#
# Stress axis : x y z
#
# Youngs Moduli (GPa) = 54.36641 54.36641 38.10393
#
# Poissons Ratio (x) = 0.28970 0.28955
# Poissons Ratio (y) = 0.28970 0.28955
# Poissons Ratio (z) = 0.41312 0.41312
#
# Static dielectric constant tensor:
#      x y z
#    x 1.567780 0.000000 0.000000 
#    y 0.000000 1.567780 0.000000 
#    z 0.000000 0.000000 1.594800 
# 
# From -- ./inp_files/7590.got.cif
#   From: 2010.05.17/outbox.cif.g08.bks.cpg/sg191_4_cif.got.tgz:7590.got - 2010.05.20 12:20:32.
