data_PCOD9588859
_publ_section_title
;
Structure prediction by ZEFSAII (Michael W. Deem and Ramdas Pophale) SiO2 
 PCOD9588859
Probable space group: P 6/M C C
;
_chemical_formula_sum "Si O2"
_cell_formula_units_Z 168
_cell_length_a 21.000000
_cell_length_b 21.000000
_cell_length_c 24.000000
_cell_angle_alpha 90.000000
_cell_angle_beta 90.000000
_cell_angle_gamma 120.000000
_cell_volume 9166.012874
_symmetry_space_group_name_H-M "P 6/M C C"
_symmetry_group_IT_number 192
_symmetry_cell_setting 'hexagonal'
loop_
_space_group_symop_operation_xyz
x,y,z
x-y,x,z
-y,x-y,z
-x,-y,z
-x+y,-x,z
y,-x+y,z
x-y,-y,1/2-z
-x,-x+y,1/2-z
y,x,1/2-z
-y,-x,1/2-z
-x+y,y,1/2-z
x,x-y,1/2-z
-x,-y,-z
-x+y,-x,-z
y,-x+y,-z
x,y,-z
x-y,x,-z
-y,x-y,-z
-x+y,y,1/2+z
x,x-y,1/2+z
-y,-x,1/2+z
y,x,1/2+z
x-y,-y,1/2+z
-x,-x+y,1/2+z
loop_
_atom_site_type_symbol
_atom_site_label
_atom_site_fract_x
_atom_site_fract_y
_atom_site_fract_z
Si Si1 0.311501 0.084355 0.775565
Si Si2 0.256198 0.110381 0.934945
Si Si3 0.162666 0.046504 0.835877
Si Si4 0.485207 0.689375 0.932669
Si Si5 0.357806 0.822928 0.567497
Si Si6 0.075184 0.376350 0.614649
Si Si7 0.276060 0.354229 0.567217
O O1 0.333315 0.166658 0.750000
O O2 0.238645 0.068647 0.807702
O O3 0.371412 0.093991 0.821374
O O4 0.281560 0.000000 0.750000
O O5 0.183825 0.057333 0.900925
O O6 0.324053 0.097977 0.919600
O O7 0.286116 0.195638 0.919704
O O8 0.243516 0.100714 0.000000
O O9 0.136966 0.102938 0.819946
O O10 0.457421 0.744981 0.916133
O O11 0.431974 0.606493 0.913532
O O12 0.569984 0.721142 0.918007
O O13 0.482611 0.687113 0.000000
O O14 0.358784 0.828146 0.500000
O O15 0.342718 0.884551 0.591743
O O16 0.988772 0.336855 0.602204
O O17 0.287735 0.353542 0.500000
#
# Coordination Sequence:
#
# PCOD9588859 Si02
#       7
#    24  24  24  24  24  24  24
#     4  11  23  39  57  76  98 128 177 239 295 346
#     4  10  19  33  50  72 107 146 185 221 259 321
#     4  11  22  35  52  74 101 137 181 226 289 339
#     4   9  18  30  50  78 119 159 186 211 248 307
#     4  10  18  33  53  84 121 155 185 213 253 315
#     4  11  22  32  55  79 107 140 181 227 281 323
#     4  10  19  32  50  79 112 149 186 220 261 317
#
# _framework density 18.328579999999999
#
# number of rings (size 3 to 8) (size 9 to 14) (size 15 to 20)
#    0.000    1.714    2.857    3.429    2.000    3.429 
#    0.000    2.143    0.000    0.857    0.000    7.000 
#    0.000    0.000    0.000    0.000    0.000    0.000 
#
# Total GULP energy -935990.621046 kJ/mol
# GULP energy per Si atom -5571.372744 kJ/mol
# Density = 1.828686 g / cm^3
# Si number density = 18.328580 Si / 1000 Ang^3
#
#
#
# Elastic Constant Matrix: (Units=GPa)
#
#
# Indices 1 2 3 4 5 6 
#
# 1 93.7109 -45.3896 5.8847 0.0000 0.0000 0.0000
# 2 -45.3896 93.7109 5.8847 0.0000 0.0000 0.0000
# 3 5.8847 5.8847 25.8216 0.0000 0.0000 0.0000
# 4 0.0000 0.0000 0.0000 14.6394 0.0000 0.0000
# 5 0.0000 0.0000 0.0000 0.0000 14.6394 0.0000
# 6 0.0000 0.0000 0.0000 0.0000 0.0000 69.5503
#
#
#
# Elastic Compliance Matrix: (Units=1/GPa)
#
#
# Indices 1 2 3 4 5 6 
#
# 1 0.014550 0.007361 -0.004993 0.000000 0.000000 0.000000
# 2 0.007361 0.014550 -0.004993 0.000000 0.000000 0.000000
# 3 -0.004993 -0.004993 0.041003 0.000000 0.000000 0.000000
# 4 0.000000 0.000000 0.000000 0.068309 0.000000 0.000000
# 5 0.000000 0.000000 0.000000 0.000000 0.068309 0.000000
# 6 0.000000 0.000000 0.000000 0.000000 0.000000 0.014378
#
#
# Mechanical properties :
#
#
# Convention : Reuss Voigt Hill
#
# Bulk Modulus (GPa) = 15.41987 16.22256 15.82121
# Shear Modulus (GPa) = 20.16388 36.22338 28.19363
#
# Velocity S-wave (km/s) = 3.32042 4.45042 3.92629
# Velocity P-wave (km/s) = 4.80953 5.93957 5.40417
#
# Compressibility (1/GPa) = 0.06485141
#
# Stress axis : x y z
#
# Youngs Moduli (GPa) = 68.72831 68.72831 24.38829
#
# Poissons Ratio (x) = -0.50591 0.12178
# Poissons Ratio (y) = -0.50591 0.12178
# Poissons Ratio (z) = 0.34319 0.34319
#
# Static dielectric constant tensor:
#      x y z
#    x 1.644330 0.000000 0.000000 
#    y 0.000000 1.644330 0.000000 
#    z 0.000000 0.000000 1.682900 
# 
# From -- ./inp_files/6063.got.cif
#   From: 2010.05.17/outbox.ucp.g08.bks.cvg/sg192_4_cif.got.tgz:6063.got - 2010.06.11 15:23:19.
