data_PCOD9588106
_publ_section_title
;
Structure prediction by ZEFSAII (Michael W. Deem and Ramdas Pophale) SiO2 
 PCOD9588106
Probable space group: P 6/M M M
;
_chemical_formula_sum "Si O2"
_cell_formula_units_Z 132
_cell_length_a 18.890196
_cell_length_b 18.890196
_cell_length_c 27.184911
_cell_angle_alpha 90.000000
_cell_angle_beta 90.000000
_cell_angle_gamma 120.000000
_cell_volume 8401.009491
_symmetry_space_group_name_H-M "P 6/M M M"
_symmetry_group_IT_number 191
_symmetry_cell_setting 'hexagonal'
loop_
_space_group_symop_operation_xyz
x,y,z
x-y,x,z
-y,x-y,z
-x,-y,z
-x+y,-x,z
y,-x+y,z
x-y,-y,-z
-x,-x+y,-z
y,x,-z
-y,-x,-z
-x+y,y,-z
x,x-y,-z
-x,-y,-z
-x+y,-x,-z
y,-x+y,-z
x,y,-z
x-y,x,-z
-y,x-y,-z
-x+y,y,z
x,x-y,z
-y,-x,z
y,x,z
x-y,-y,z
-x,-x+y,z
loop_
_atom_site_type_symbol
_atom_site_label
_atom_site_fract_x
_atom_site_fract_y
_atom_site_fract_z
Si Si1 0.500836 0.333982 0.057482
Si Si2 0.832118 0.334281 0.306126
Si Si3 0.095349 0.358869 0.500000
Si Si4 0.253429 0.908392 0.759080
Si Si5 0.746044 0.091904 0.875250
Si Si6 0.167829 0.501538 0.422421
O O1 0.520534 0.260267 0.062930
O O2 0.580148 0.419853 0.069279
O O3 0.424820 0.311894 0.092430
O O4 0.479861 0.335168 0.000000
O O5 0.840464 0.420232 0.292571
O O6 0.739043 0.260958 0.298989
O O7 0.887905 0.311366 0.273566
O O8 0.849991 0.335984 0.364293
O O9 0.167040 0.334080 0.500000
O O10 0.114232 0.419986 0.453712
O O11 0.000000 0.288426 0.500000
O O12 0.160958 0.839043 0.748040
O O13 0.267849 0.901840 0.817108
O O14 0.274097 0.000000 0.749519
O O15 0.838638 0.161363 0.886358
O O16 0.724575 0.000000 0.885083
O O17 0.262156 0.524312 0.430015
O O18 0.156996 0.578498 0.436382
#
# Coordination Sequence:
#
# PCOD9588106 Si02
#       6
#    24  24  12  24  24  24
#     4   9  17  29  45  65  90 120 152 183 213 246
#     4   9  17  29  45  66  93 125 158 187 213 244
#     4  10  21  35  49  66  89 117 148 184 227 271
#     4   9  18  32  48  65  86 113 145 181 223 269
#     4   9  18  32  48  65  86 113 144 179 221 268
#     4   9  17  29  46  68  95 126 156 183 211 248
#
# _framework density 15.712398
#
# number of rings (size 3 to 8) (size 9 to 14) (size 15 to 20)
#    0.000    2.909    0.000    0.818    0.000    5.455 
#    0.000    5.455    0.000    2.636    0.000    2.545 
#    0.000    0.000    0.000   13.636    0.000    9.455 
#
# Total GULP energy -735409.447135 kJ/mol
# GULP energy per Si atom -5571.283690 kJ/mol
# Density = 1.567664 g / cm^3
# Si number density = 15.712398 Si / 1000 Ang^3
#
#
#
# Elastic Constant Matrix: (Units=GPa)
#
#
# Indices 1 2 3 4 5 6 
#
# 1 86.9355 75.6863 45.5829 0.0000 0.0000 0.0000
# 2 75.6863 86.9355 45.5829 0.0000 0.0000 0.0000
# 3 45.5829 45.5829 37.6787 0.0000 0.0000 0.0000
# 4 0.0000 0.0000 0.0000 19.8020 0.0000 0.0000
# 5 0.0000 0.0000 0.0000 0.0000 19.8020 0.0000
# 6 0.0000 0.0000 0.0000 0.0000 0.0000 5.6246
#
#
#
# Elastic Compliance Matrix: (Units=1/GPa)
#
#
# Indices 1 2 3 4 5 6 
#
# 1 0.054002 -0.034893 -0.023118 0.000000 0.000000 0.000000
# 2 -0.034893 0.054002 -0.023118 0.000000 0.000000 0.000000
# 3 -0.023118 -0.023118 0.082475 0.000000 0.000000 0.000000
# 4 0.000000 0.000000 0.000000 0.050500 0.000000 0.000000
# 5 0.000000 0.000000 0.000000 0.000000 0.050500 0.000000
# 6 0.000000 0.000000 0.000000 0.000000 0.000000 0.177791
#
#
# Mechanical properties :
#
#
# Convention : Reuss Voigt Hill
#
# Bulk Modulus (GPa) = 35.43328 60.58380 48.00854
# Shear Modulus (GPa) = 7.80110 12.02556 9.91333
#
# Velocity S-wave (km/s) = 2.23063 2.76951 2.51455
# Velocity P-wave (km/s) = 5.40688 6.99060 6.24912
#
# Compressibility (1/GPa) = 0.02822205
#
# Stress axis : x y z
#
# Youngs Moduli (GPa) = 18.51773 18.51773 12.12490
#
# Poissons Ratio (x) = 0.64614 0.28030
# Poissons Ratio (y) = 0.64614 0.28030
# Poissons Ratio (z) = 0.42809 0.42809
#
# Static dielectric constant tensor:
#      x y z
#    x 1.510430 0.000000 0.000000 
#    y 0.000000 1.510430 0.000000 
#    z 0.000000 0.000000 1.531980 
# 
# From -- ./inp_files/8711.got.cif
#   From: 2010.05.17/outbox.cif.g08.bks.cpg/sg191_5_cif.got.tgz:8711.got - 2010.05.20 12:20:32.
