data_PCOD9588621
_publ_section_title
;
Structure prediction by ZEFSAII (Michael W. Deem and Ramdas Pophale) SiO2 
 PCOD9588621
Probable space group: P 6/M C C
;
_chemical_formula_sum "Si O2"
_cell_formula_units_Z 72
_cell_length_a 13.397910
_cell_length_b 13.397910
_cell_length_c 24.880276
_cell_angle_alpha 90.000000
_cell_angle_beta 90.000000
_cell_angle_gamma 120.000000
_cell_volume 3867.763740
_symmetry_space_group_name_H-M "P 6/M C C"
_symmetry_group_IT_number 192
_symmetry_cell_setting 'hexagonal'
loop_
_space_group_symop_operation_xyz
x,y,z
x-y,x,z
-y,x-y,z
-x,-y,z
-x+y,-x,z
y,-x+y,z
x-y,-y,1/2-z
-x,-x+y,1/2-z
y,x,1/2-z
-y,-x,1/2-z
-x+y,y,1/2-z
x,x-y,1/2-z
-x,-y,-z
-x+y,-x,-z
y,-x+y,-z
x,y,-z
x-y,x,-z
-y,x-y,-z
-x+y,y,1/2+z
x,x-y,1/2+z
-y,-x,1/2+z
y,x,1/2+z
x-y,-y,1/2+z
-x,-x+y,1/2+z
loop_
_atom_site_type_symbol
_atom_site_label
_atom_site_fract_x
_atom_site_fract_y
_atom_site_fract_z
Si Si1 0.512216 0.641019 0.801305
Si Si2 0.438245 0.318571 0.657602
Si Si3 0.190548 0.265976 0.937431
O O1 0.429189 0.570812 0.750000
O O2 0.553595 0.773789 0.809031
O O3 0.423459 0.568565 0.849380
O O4 0.620998 0.622725 0.810004
O O5 0.368593 0.264470 0.603570
O O6 0.219199 0.163898 0.928248
O O7 0.215484 0.300698 0.000000
#
# Coordination Sequence:
#
# PCOD9588621 Si02
#       3
#    24  24  24
#     4  11  24  39  62  90 126 168 210 261 316 379
#     4  11  21  39  60  91 124 163 212 263 315 372
#     4  10  20  38  65  96 127 164 207 259 320 385
#
# _framework density 18.615407999999999
#
# number of rings (size 3 to 8) (size 9 to 14) (size 15 to 20)
#    0.000    1.333    3.333    4.000    0.000    4.000 
#    0.000    5.000    0.000    0.000    0.000    0.000 
#    0.000    0.000    0.000    0.000    0.000    0.000 
#
# Total GULP energy -401193.006661 kJ/mol
# GULP energy per Si atom -5572.125093 kJ/mol
# Density = 1.857304 g / cm^3
# Si number density = 18.615408 Si / 1000 Ang^3
#
#
#
# Elastic Constant Matrix: (Units=GPa)
#
#
# Indices 1 2 3 4 5 6 
#
# 1 135.7023 89.5359 70.2532 0.0000 0.0000 0.0000
# 2 89.5359 135.7023 70.2532 0.0000 0.0000 0.0000
# 3 70.2532 70.2532 126.1230 0.0000 0.0000 0.0000
# 4 0.0000 0.0000 0.0000 36.5946 0.0000 0.0000
# 5 0.0000 0.0000 0.0000 0.0000 36.5946 0.0000
# 6 0.0000 0.0000 0.0000 0.0000 0.0000 23.0832
#
#
#
# Elastic Compliance Matrix: (Units=1/GPa)
#
#
# Indices 1 2 3 4 5 6 
#
# 1 0.014232 -0.007428 -0.003790 0.000000 0.000000 0.000000
# 2 -0.007428 0.014232 -0.003790 0.000000 0.000000 0.000000
# 3 -0.003790 -0.003790 0.012151 0.000000 0.000000 0.000000
# 4 0.000000 0.000000 0.000000 0.027326 0.000000 0.000000
# 5 0.000000 0.000000 0.000000 0.000000 0.027326 0.000000
# 6 0.000000 0.000000 0.000000 0.000000 0.000000 0.043322
#
#
# Mechanical properties :
#
#
# Convention : Reuss Voigt Hill
#
# Bulk Modulus (GPa) = 94.34805 95.29025 94.81915
# Shear Modulus (GPa) = 29.04618 30.42016 29.73317
#
# Velocity S-wave (km/s) = 3.95439 4.04683 4.00088
# Velocity P-wave (km/s) = 8.46418 8.55195 8.50818
#
# Compressibility (1/GPa) = 0.01059905
#
# Stress axis : x y z
#
# Youngs Moduli (GPa) = 70.26243 70.26243 82.29817
#
# Poissons Ratio (x) = 0.52194 0.31191
# Poissons Ratio (y) = 0.52194 0.31191
# Poissons Ratio (z) = 0.26629 0.26629
#
# Static dielectric constant tensor:
#      x y z
#    x 1.670070 0.000000 0.000000 
#    y 0.000000 1.670070 0.000000 
#    z 0.000000 0.000000 1.694050 
# 
# From -- ./inp_files/3790.got.cif
#   From: 2010.05.17/outbox.cif.g08.bks.cpg/sg192_2_cif.got.tgz:3790.got - 2010.05.20 12:28:01.
