data_PCOD9588744
_publ_section_title
;
Structure prediction by ZEFSAII (Michael W. Deem and Ramdas Pophale) SiO2 
 PCOD9588744
Probable space group: P 6/M C C
;
_chemical_formula_sum "Si O2"
_cell_formula_units_Z 144
_cell_length_a 20.735887
_cell_length_b 20.735887
_cell_length_c 20.979088
_cell_angle_alpha 90.000000
_cell_angle_beta 90.000000
_cell_angle_gamma 120.000000
_cell_volume 7812.004259
_symmetry_space_group_name_H-M "P 6/M C C"
_symmetry_group_IT_number 192
_symmetry_cell_setting 'hexagonal'
loop_
_space_group_symop_operation_xyz
x,y,z
x-y,x,z
-y,x-y,z
-x,-y,z
-x+y,-x,z
y,-x+y,z
x-y,-y,1/2-z
-x,-x+y,1/2-z
y,x,1/2-z
-y,-x,1/2-z
-x+y,y,1/2-z
x,x-y,1/2-z
-x,-y,-z
-x+y,-x,-z
y,-x+y,-z
x,y,-z
x-y,x,-z
-y,x-y,-z
-x+y,y,1/2+z
x,x-y,1/2+z
-y,-x,1/2+z
y,x,1/2+z
x-y,-y,1/2+z
-x,-x+y,1/2+z
loop_
_atom_site_type_symbol
_atom_site_label
_atom_site_fract_x
_atom_site_fract_y
_atom_site_fract_z
Si Si1 0.000000 0.754679 0.877108
Si Si2 0.528547 0.617885 0.250000
Si Si3 0.156561 0.000000 0.250000
Si Si4 0.868758 0.283910 0.624241
Si Si5 0.000000 0.846403 0.000000
Si Si6 0.511273 0.177440 0.000000
Si Si7 0.868758 0.584847 0.624241
Si Si8 0.177440 0.511273 0.000000
O O1 0.929168 0.671946 0.880499
O O2 0.000000 0.797297 0.812486
O O3 0.070832 0.742778 0.880499
O O4 0.000000 0.801981 0.937324
O O5 0.572918 0.572918 0.250000
O O6 0.441565 0.558436 0.250000
O O7 0.552086 0.666880 0.186834
O O8 0.552086 0.666880 0.313166
O O9 0.150121 0.075061 0.250000
O O10 0.788937 0.211063 0.630219
O O11 0.864804 0.327089 0.561994
O O12 0.926637 0.853274 0.000000
O O13 0.462286 0.135196 0.938006
O O14 0.590367 0.180733 0.000000
O O15 0.521953 0.260976 0.000000
#
# Coordination Sequence:
#
# PCOD9588744 Si02
#       8
#    24  24  12  24  12  12  24  12
#     4  12  24  42  62  92 122 160 200 254 308 362
#     4  11  22  39  60  88 123 158 198 247 303 362
#     4  12  25  42  64  90 121 160 206 256 308 364
#     4  11  22  40  63  91 124 161 204 250 304 366
#     4  12  25  42  62  86 119 160 204 250 300 358
#     4  10  22  40  64  92 125 163 205 252 304 364
#     4  11  22  40  63  91 124 161 204 250 304 366
#     4  10  22  40  64  92 125 163 205 252 304 364
#
# _framework density 18.433168999999999
#
# number of rings (size 3 to 8) (size 9 to 14) (size 15 to 20)
#    0.000    0.833    1.667    6.833    0.000    1.333 
#    0.000    2.500    0.000    4.667    0.000    0.000 
#    0.000    0.000    0.000    0.000    0.000    0.000 
#
# Total GULP energy -805317.183046 kJ/mol
# GULP energy per Si atom -5592.480438 kJ/mol
# Density = 1.839121 g / cm^3
# Si number density = 18.433169 Si / 1000 Ang^3
#
#
#
# Elastic Constant Matrix: (Units=GPa)
#
#
# Indices 1 2 3 4 5 6 
#
# 1 16.3981 201.9930 100.1674 0.0000 0.0000 0.0000
# 2 201.9930 16.3981 100.1674 0.0000 0.0000 0.0000
# 3 100.1674 100.1674 219.9619 0.0000 0.0000 0.0000
# 4 0.0000 0.0000 0.0000 -55.2562 0.0000 0.0000
# 5 0.0000 0.0000 0.0000 0.0000 -55.2562 0.0000
# 6 0.0000 0.0000 0.0000 0.0000 0.0000 -92.7975
#
#
#
# Elastic Compliance Matrix: (Units=1/GPa)
#
#
# Indices 1 2 3 4 5 6 
#
# 1 0.001238 0.006626 -0.003581 0.000000 0.000000 0.000000
# 2 0.006626 0.001238 -0.003581 0.000000 0.000000 0.000000
# 3 -0.003581 -0.003581 0.007808 0.000000 0.000000 0.000000
# 4 0.000000 0.000000 0.000000 -0.018098 0.000000 0.000000
# 5 0.000000 0.000000 0.000000 0.000000 -0.018098 0.000000
# 6 0.000000 0.000000 0.000000 0.000000 0.000000 -0.010776
#
#
# Mechanical properties :
#
#
# Convention : Reuss Voigt Hill
#
# Bulk Modulus (GPa) = 108.56285 117.49041 113.02663
# Shear Modulus (GPa) = -153.63583 -50.63328 -102.13456
#
# Velocity S-wave (km/s) = -9.13939 -5.24673 -7.45173
# Velocity P-wave (km/s) = 7.23519 5.21274 3.54791
#
# Compressibility (1/GPa) = 0.00921125
#
# Stress axis : x y z
#
# Youngs Moduli (GPa) = 807.77757 807.77757 128.07628
#
# Poissons Ratio (x) = -5.35237 0.45866
# Poissons Ratio (y) = -5.35237 0.45866
# Poissons Ratio (z) = 2.89277 2.89277
#
# Static dielectric constant tensor:
#      x y z
#    x 1.612700 0.000000 0.000000 
#    y 0.000000 1.612700 0.000000 
#    z 0.000000 0.000000 1.616680 
# 
# From -- ./inp_files/5212.got.cif
#   From: 2010.05.17/outbox.cif.g08.bks.cpg/sg192_3_cif.got.tgz:5212.got - 2010.05.20 12:28:01.
