data_PCOD9588572
_publ_section_title
;
Structure prediction by ZEFSAII (Michael W. Deem and Ramdas Pophale) SiO2 
 PCOD9588572
Probable space group: P 6/M C C
;
_chemical_formula_sum "Si O2"
_cell_formula_units_Z 144
_cell_length_a 23.532416
_cell_length_b 23.532416
_cell_length_c 16.940525
_cell_angle_alpha 90.000000
_cell_angle_beta 90.000000
_cell_angle_gamma 120.000000
_cell_volume 8124.385666
_symmetry_space_group_name_H-M "P 6/M C C"
_symmetry_group_IT_number 192
_symmetry_cell_setting 'hexagonal'
loop_
_space_group_symop_operation_xyz
x,y,z
x-y,x,z
-y,x-y,z
-x,-y,z
-x+y,-x,z
y,-x+y,z
x-y,-y,1/2-z
-x,-x+y,1/2-z
y,x,1/2-z
-y,-x,1/2-z
-x+y,y,1/2-z
x,x-y,1/2-z
-x,-y,-z
-x+y,-x,-z
y,-x+y,-z
x,y,-z
x-y,x,-z
-y,x-y,-z
-x+y,y,1/2+z
x,x-y,1/2+z
-y,-x,1/2+z
y,x,1/2+z
x-y,-y,1/2+z
-x,-x+y,1/2+z
loop_
_atom_site_type_symbol
_atom_site_label
_atom_site_fract_x
_atom_site_fract_y
_atom_site_fract_z
Si Si1 0.542123 0.244021 0.410299
Si Si2 0.559776 0.573863 0.910163
Si Si3 0.218373 0.831201 0.910678
Si Si4 0.792135 0.370038 0.163121
Si Si5 0.881970 0.309610 0.128879
Si Si6 0.307769 0.376138 0.705166
O O1 0.551716 0.269507 0.500000
O O2 0.465114 0.200370 0.395281
O O3 0.575217 0.200479 0.397767
O O4 0.579786 0.302841 0.347985
O O5 0.500000 0.500000 0.890687
O O6 0.632485 0.581537 0.906991
O O7 0.572201 0.628749 0.845413
O O8 0.548010 0.588186 0.000000
O O9 0.148108 0.763780 0.905241
O O10 0.244007 0.891981 0.850374
O O11 0.227901 0.856077 0.000000
O O12 0.804722 0.402361 0.250000
O O13 0.836363 0.341740 0.128532
O O14 0.886606 0.299468 0.221425
O O15 0.324825 0.324825 0.750000
#
# Coordination Sequence:
#
# PCOD9588572 Si02
#       6
#    24  24  24  24  24  24
#     4  10  21  33  45  61  83 112 149 192 242 301
#     4  10  22  36  52  75 103 135 170 215 271 332
#     4  10  20  36  54  72  94 125 161 201 256 324
#     4  11  21  32  47  64  85 113 149 196 247 307
#     4  10  22  35  53  74  99 126 166 208 260 323
#     4  10  21  36  53  73  97 124 159 207 260 324
#
# _framework density 17.724416999999999
#
# number of rings (size 3 to 8) (size 9 to 14) (size 15 to 20)
#    0.000    1.833    0.000    3.833    4.667    7.000 
#    0.000    0.000    0.000    0.000    0.000    0.000 
#    0.000    0.000    0.000    0.000    0.000    0.000 
#
# Total GULP energy -801762.711055 kJ/mol
# GULP energy per Si atom -5567.796605 kJ/mol
# Density = 1.768408 g / cm^3
# Si number density = 17.724417 Si / 1000 Ang^3
#
#
#
# Elastic Constant Matrix: (Units=GPa)
#
#
# Indices 1 2 3 4 5 6 
#
# 1 30.3963 -3.1367 8.3678 0.0000 0.0000 0.0000
# 2 -3.1367 30.3963 8.3678 0.0000 0.0000 0.0000
# 3 8.3678 8.3678 81.1561 0.0000 0.0000 0.0000
# 4 0.0000 0.0000 0.0000 18.9779 0.0000 0.0000
# 5 0.0000 0.0000 0.0000 0.0000 18.9779 0.0000
# 6 0.0000 0.0000 0.0000 0.0000 0.0000 16.7665
#
#
#
# Elastic Compliance Matrix: (Units=1/GPa)
#
#
# Indices 1 2 3 4 5 6 
#
# 1 0.034492 0.004671 -0.004038 0.000000 0.000000 0.000000
# 2 0.004671 0.034492 -0.004038 0.000000 0.000000 0.000000
# 3 -0.004038 -0.004038 0.013155 0.000000 0.000000 0.000000
# 4 0.000000 0.000000 0.000000 0.052693 0.000000 0.000000
# 5 0.000000 0.000000 0.000000 0.000000 0.052693 0.000000
# 6 0.000000 0.000000 0.000000 0.000000 0.000000 0.059643
#
#
# Mechanical properties :
#
#
# Convention : Reuss Voigt Hill
#
# Bulk Modulus (GPa) = 13.27507 18.79406 16.03456
# Shear Modulus (GPa) = 17.91554 19.50114 18.70834
#
# Velocity S-wave (km/s) = 3.18273 3.32059 3.25239
# Velocity P-wave (km/s) = 4.58392 5.03272 4.81355
#
# Compressibility (1/GPa) = 0.07532917
#
# Stress axis : x y z
#
# Youngs Moduli (GPa) = 28.99196 28.99196 76.01882
#
# Poissons Ratio (x) = -0.13542 0.30697
# Poissons Ratio (y) = -0.13542 0.30697
# Poissons Ratio (z) = 0.11707 0.11707
#
# Static dielectric constant tensor:
#      x y z
#    x 1.718160 0.000000 0.000000 
#    y 0.000000 1.718160 0.000000 
#    z 0.000000 0.000000 2.050940 
# 
# From -- ./inp_files/4316.got.cif
#   From: 2010.05.17/outbox.cif.g08.bks.cpg/sg192_3_cif.got.tgz:4316.got - 2010.05.20 12:28:01.
