data_PCOD9588233
_publ_section_title
;
Structure prediction by ZEFSAII (Michael W. Deem and Ramdas Pophale) SiO2 
 PCOD9588233
Probable space group: P 6/M M M
;
_chemical_formula_sum "Si O2"
_cell_formula_units_Z 66
_cell_length_a 22.489399
_cell_length_b 22.489399
_cell_length_c 7.757847
_cell_angle_alpha 90.000000
_cell_angle_beta 90.000000
_cell_angle_gamma 120.000000
_cell_volume 3398.032601
_symmetry_space_group_name_H-M "P 6/M M M"
_symmetry_group_IT_number 191
_symmetry_cell_setting 'hexagonal'
loop_
_space_group_symop_operation_xyz
x,y,z
x-y,x,z
-y,x-y,z
-x,-y,z
-x+y,-x,z
y,-x+y,z
x-y,-y,-z
-x,-x+y,-z
y,x,-z
-y,-x,-z
-x+y,y,-z
x,x-y,-z
-x,-y,-z
-x+y,-x,-z
y,-x+y,-z
x,y,-z
x-y,x,-z
-y,x-y,-z
-x+y,y,z
x,x-y,z
-y,-x,z
y,x,z
x-y,-y,z
-x,-x+y,z
loop_
_atom_site_type_symbol
_atom_site_label
_atom_site_fract_x
_atom_site_fract_y
_atom_site_fract_z
Si Si1 0.881570 0.261394 0.301309
Si Si2 0.530359 0.196262 0.288979
Si Si3 0.764222 0.000000 0.186813
Si Si4 0.142792 0.000000 0.500000
O O1 0.905559 0.278379 0.500000
O O2 0.808826 0.191175 0.303450
O O3 0.862880 0.317593 0.233374
O O4 0.935075 0.246953 0.205215
O O5 0.528997 0.195565 0.500000
O O6 0.593911 0.187821 0.233146
O O7 0.540662 0.270331 0.237140
O O8 0.813216 0.000000 0.335772
O O9 0.793441 0.000000 0.000000
O O10 0.137378 0.068689 0.500000
#
# Coordination Sequence:
#
# PCOD9588233 Si02
#       4
#    24  24  12   6
#     4   9  17  32  53  78 111 150 192 239 287 339
#     4   8  13  22  42  74 111 150 194 245 299 349
#     4  12  24  39  64  92 119 156 195 231 278 335
#     4  12  27  48  72  98 127 152 180 222 274 336
#
# _framework density 19.423003000000001
#
# number of rings (size 3 to 8) (size 9 to 14) (size 15 to 20)
#    0.000    2.545    1.818    3.727    0.000    4.364 
#    0.000    0.909    0.000    7.636    0.000    0.000 
#    0.000    2.909    0.000    0.000    0.000    0.000 
#
# Total GULP energy -368196.165547 kJ/mol
# GULP energy per Si atom -5578.729781 kJ/mol
# Density = 1.937880 g / cm^3
# Si number density = 19.423003 Si / 1000 Ang^3
#
#
#
# Elastic Constant Matrix: (Units=GPa)
#
#
# Indices 1 2 3 4 5 6 
#
# 1 117.7989 62.0244 38.1256 0.0000 0.0000 0.0000
# 2 62.0244 117.7989 38.1256 0.0000 0.0000 0.0000
# 3 38.1256 38.1256 86.2262 0.0000 0.0000 0.0000
# 4 0.0000 0.0000 0.0000 -84.8150 0.0000 0.0000
# 5 0.0000 0.0000 0.0000 0.0000 -84.8150 0.0000
# 6 0.0000 0.0000 0.0000 0.0000 0.0000 27.8873
#
#
#
# Elastic Compliance Matrix: (Units=1/GPa)
#
#
# Indices 1 2 3 4 5 6 
#
# 1 0.012387 -0.005543 -0.003026 0.000000 0.000000 0.000000
# 2 -0.005543 0.012387 -0.003026 0.000000 0.000000 0.000000
# 3 -0.003026 -0.003026 0.014274 0.000000 0.000000 0.000000
# 4 0.000000 0.000000 0.000000 -0.011790 0.000000 0.000000
# 5 0.000000 0.000000 0.000000 0.000000 -0.011790 0.000000
# 6 0.000000 0.000000 0.000000 0.000000 0.000000 0.035859
#
#
# Mechanical properties :
#
#
# Convention : Reuss Voigt Hill
#
# Bulk Modulus (GPa) = 63.06326 66.48612 64.77469
# Shear Modulus (GPa) = 62.65608 -16.11196 23.27206
#
# Velocity S-wave (km/s) = 5.68584 -2.88328 3.46521
# Velocity P-wave (km/s) = 8.69734 4.81877 7.03080
#
# Compressibility (1/GPa) = 0.01585709
#
# Stress axis : x y z
#
# Youngs Moduli (GPa) = 80.73122 80.73122 70.05969
#
# Poissons Ratio (x) = 0.44746 0.21202
# Poissons Ratio (y) = 0.44746 0.21202
# Poissons Ratio (z) = 0.24431 0.24431
#
# Static dielectric constant tensor:
#      x y z
#    x 1.668970 0.000000 0.000000 
#    y 0.000000 1.668970 0.000000 
#    z 0.000000 0.000000 1.740720 
# 
# From -- ./inp_files/690.got.cif
#   From: 2010.05.17/outbox.cif.g08.bks.cpg/sg191_1_cif.got.tgz:690.got - 2010.05.20 12:20:32.
