data_PCOD9588451
_publ_section_title
;
Structure prediction by ZEFSAII (Michael W. Deem and Ramdas Pophale) SiO2 
 PCOD9588451
Probable space group: P 6/M C C
;
_chemical_formula_sum "Si O2"
_cell_formula_units_Z 84
_cell_length_a 14.744041
_cell_length_b 14.744041
_cell_length_c 22.767719
_cell_angle_alpha 90.000000
_cell_angle_beta 90.000000
_cell_angle_gamma 120.000000
_cell_volume 4286.306415
_symmetry_space_group_name_H-M "P 6/M C C"
_symmetry_group_IT_number 192
_symmetry_cell_setting 'hexagonal'
loop_
_space_group_symop_operation_xyz
x,y,z
x-y,x,z
-y,x-y,z
-x,-y,z
-x+y,-x,z
y,-x+y,z
x-y,-y,1/2-z
-x,-x+y,1/2-z
y,x,1/2-z
-y,-x,1/2-z
-x+y,y,1/2-z
x,x-y,1/2-z
-x,-y,-z
-x+y,-x,-z
y,-x+y,-z
x,y,-z
x-y,x,-z
-y,x-y,-z
-x+y,y,1/2+z
x,x-y,1/2+z
-y,-x,1/2+z
y,x,1/2+z
x-y,-y,1/2+z
-x,-x+y,1/2+z
loop_
_atom_site_type_symbol
_atom_site_label
_atom_site_fract_x
_atom_site_fract_y
_atom_site_fract_z
Si Si1 0.551218 0.801986 0.818297
Si Si2 0.883005 0.414300 0.370709
Si Si3 0.032058 0.811490 0.819871
Si Si4 0.196175 0.608323 0.500000
O O1 0.551410 0.775705 0.750000
O O2 0.451509 0.810121 0.837959
O O3 0.547634 0.704651 0.852293
O O4 0.655299 0.913698 0.830492
O O5 0.867656 0.418167 0.440316
O O6 0.000000 0.500000 0.353774
O O7 0.923305 0.797523 0.842354
O O8 0.000000 0.796724 0.750000
O O9 0.268497 0.554014 0.500000
#
# Coordination Sequence:
#
# PCOD9588451 Si02
#       4
#    24  24  24  12
#     4  12  23  39  55  89 127 161 196 237 289 365
#     4  12  25  39  66  87 118 161 200 254 306 353
#     4  10  19  34  55  78 114 158 198 233 271 332
#     4  10  19  46  66  82 112 156 204 260 307 356
#
# _framework density 19.597293000000001
#
# number of rings (size 3 to 8) (size 9 to 14) (size 15 to 20)
#    0.286    0.571    5.714    3.857    0.000    2.286 
#    0.000    0.000    0.000    0.000    0.000    0.000 
#    0.000    0.000    0.000   12.286    2.286    0.000 
#
# Total GULP energy -468025.736637 kJ/mol
# GULP energy per Si atom -5571.734960 kJ/mol
# Density = 1.955269 g / cm^3
# Si number density = 19.597293 Si / 1000 Ang^3
#
#
#
# Elastic Constant Matrix: (Units=GPa)
#
#
# Indices 1 2 3 4 5 6 
#
# 1 105.6005 28.2223 13.7602 0.0000 0.0000 0.0000
# 2 28.2223 105.6005 13.7602 0.0000 0.0000 0.0000
# 3 13.7602 13.7602 39.4650 0.0000 0.0000 0.0000
# 4 0.0000 0.0000 0.0000 44.2949 0.0000 0.0000
# 5 0.0000 0.0000 0.0000 0.0000 44.2949 0.0000
# 6 0.0000 0.0000 0.0000 0.0000 0.0000 38.6891
#
#
#
# Elastic Compliance Matrix: (Units=1/GPa)
#
#
# Indices 1 2 3 4 5 6 
#
# 1 0.010487 -0.002437 -0.002807 0.000000 0.000000 0.000000
# 2 -0.002437 0.010487 -0.002807 0.000000 0.000000 0.000000
# 3 -0.002807 -0.002807 0.027296 0.000000 0.000000 0.000000
# 4 0.000000 0.000000 0.000000 0.022576 0.000000 0.000000
# 5 0.000000 0.000000 0.000000 0.000000 0.022576 0.000000
# 6 0.000000 0.000000 0.000000 0.000000 0.000000 0.025847
#
#
# Mechanical properties :
#
#
# Convention : Reuss Voigt Hill
#
# Bulk Modulus (GPa) = 31.08598 40.23904 35.66251
# Shear Modulus (GPa) = 34.22506 38.45069 36.33787
#
# Velocity S-wave (km/s) = 4.18355 4.43430 4.31075
# Velocity P-wave (km/s) = 6.26362 6.84068 6.55850
#
# Compressibility (1/GPa) = 0.03216884
#
# Stress axis : x y z
#
# Youngs Moduli (GPa) = 95.35942 95.35942 36.63529
#
# Poissons Ratio (x) = 0.23238 0.10282
# Poissons Ratio (y) = 0.23238 0.10282
# Poissons Ratio (z) = 0.26764 0.26764
#
# Static dielectric constant tensor:
#      x y z
#    x 1.725130 0.000000 0.000000 
#    y 0.000000 1.725130 0.000000 
#    z 0.000000 0.000000 1.660290 
# 
# From -- ./inp_files/6299.got.cif
#   From: 2010.05.17/outbox.cif.g08.bks.cpg/sg192_4_cif.got.tgz:6299.got - 2010.05.20 12:28:01.
