data_PCOD9588450
_publ_section_title
;
Structure prediction by ZEFSAII (Michael W. Deem and Ramdas Pophale) SiO2 
 PCOD9588450
Probable space group: P 6/M C C
;
_chemical_formula_sum "Si O2"
_cell_formula_units_Z 152
_cell_length_a 26.872423
_cell_length_b 26.872423
_cell_length_c 14.106535
_cell_angle_alpha 90.000000
_cell_angle_beta 90.000000
_cell_angle_gamma 120.000000
_cell_volume 8821.950908
_symmetry_space_group_name_H-M "P 6/M C C"
_symmetry_group_IT_number 192
_symmetry_cell_setting 'hexagonal'
loop_
_space_group_symop_operation_xyz
x,y,z
x-y,x,z
-y,x-y,z
-x,-y,z
-x+y,-x,z
y,-x+y,z
x-y,-y,1/2-z
-x,-x+y,1/2-z
y,x,1/2-z
-y,-x,1/2-z
-x+y,y,1/2-z
x,x-y,1/2-z
-x,-y,-z
-x+y,-x,-z
y,-x+y,-z
x,y,-z
x-y,x,-z
-y,x-y,-z
-x+y,y,1/2+z
x,x-y,1/2+z
-y,-x,1/2+z
y,x,1/2+z
x-y,-y,1/2+z
-x,-x+y,1/2+z
loop_
_atom_site_type_symbol
_atom_site_label
_atom_site_fract_x
_atom_site_fract_y
_atom_site_fract_z
Si Si1 0.665523 0.433048 0.191304
Si Si2 0.639431 0.788320 0.110785
Si Si3 0.666668 0.333334 0.868857
Si Si4 0.910186 0.039821 0.615840
Si Si5 0.740075 0.821607 0.612596
Si Si6 0.062027 0.346996 0.726633
Si Si7 0.282127 0.442771 0.112700
O O1 0.606350 0.393651 0.250000
O O2 0.722746 0.445492 0.250000
O O3 0.662825 0.389145 0.109886
O O4 0.679190 0.494091 0.154434
O O5 0.697786 0.849843 0.123419
O O6 0.641952 0.743299 0.180820
O O7 0.587146 0.800364 0.133424
O O8 0.635355 0.772432 0.000000
O O9 0.666668 0.333334 0.750000
O O10 0.910777 0.039838 0.500000
O O11 0.865543 0.060649 0.642924
O O12 0.974945 0.084957 0.646155
O O13 0.740012 0.808996 0.500000
O O14 0.710104 0.763864 0.673583
O O15 0.099307 0.399262 0.656683
O O16 0.000000 0.336908 0.750000
O O17 0.286731 0.444218 0.000000
#
# Coordination Sequence:
#
# PCOD9588450 Si02
#       7
#    24  24   8  24  24  24  24
#     4   8  14  28  52  80 114 151 182 212 241 283
#     4   9  19  34  52  72  98 130 171 221 274 326
#     4   6  12  24  43  80 115 147 178 206 236 260
#     4   9  17  28  44  65  91 124 161 205 262 333
#     4   9  18  32  49  71  96 122 157 208 268 331
#     4  11  22  33  51  75 100 134 175 223 271 319
#     4  10  19  34  54  79 110 144 176 214 264 317
#
# _framework density 17.229749000000002
#
# number of rings (size 3 to 8) (size 9 to 14) (size 15 to 20)
#    0.000    3.158    0.000    4.579    2.211    1.895 
#    0.000    3.158    0.000    1.421    0.000    1.105 
#    0.000    0.000    0.000    0.000    0.000    0.000 
#
# Total GULP energy -847141.290929 kJ/mol
# GULP energy per Si atom -5573.297967 kJ/mol
# Density = 1.719053 g / cm^3
# Si number density = 17.229749 Si / 1000 Ang^3
#
#
#
# Elastic Constant Matrix: (Units=GPa)
#
#
# Indices 1 2 3 4 5 6 
#
# 1 101.5815 81.9121 39.0379 0.0001 0.0000 -0.0001
# 2 81.9121 101.5812 39.0380 -0.0001 0.0000 -0.0001
# 3 39.0379 39.0380 78.0550 -0.0004 0.0001 0.0000
# 4 0.0001 -0.0001 -0.0004 -16.0468 0.0035 0.0000
# 5 0.0000 0.0000 0.0001 0.0035 -16.0588 -0.0001
# 6 -0.0001 -0.0001 0.0000 0.0000 -0.0001 9.8346
#
#
#
# Elastic Compliance Matrix: (Units=1/GPa)
#
#
# Indices 1 2 3 4 5 6 
#
# 1 0.028882 -0.021959 -0.003462 0.000000 0.000000 0.000000
# 2 -0.021959 0.028882 -0.003462 0.000000 0.000000 0.000000
# 3 -0.003462 -0.003462 0.016275 0.000000 0.000000 0.000000
# 4 0.000000 0.000000 0.000000 -0.062318 -0.000013 0.000000
# 5 0.000000 0.000000 0.000000 -0.000013 -0.062271 -0.000001
# 6 0.000000 0.000000 0.000000 0.000000 -0.000001 0.101682
#
#
# Mechanical properties :
#
#
# Convention : Reuss Voigt Hill
#
# Bulk Modulus (GPa) = 61.45847 66.79930 64.12888
# Shear Modulus (GPa) = 43.73554 3.62777 23.68165
#
# Velocity S-wave (km/s) = 5.04369 1.45262 3.71140
# Velocity P-wave (km/s) = 8.34661 6.45503 7.46101
#
# Compressibility (1/GPa) = 0.01627115
#
# Stress axis : x y z
#
# Youngs Moduli (GPa) = 34.62377 34.62361 61.44444
#
# Poissons Ratio (x) = 0.76030 0.21275
# Poissons Ratio (y) = 0.76030 0.21275
# Poissons Ratio (z) = 0.11988 0.11988
#
# Static dielectric constant tensor:
#      x y z
#    x 1.586920 0.000000 0.000000 
#    y 0.000000 1.586920 0.000000 
#    z 0.000000 0.000000 1.646340 
# 
# From -- ./inp_files/3419.got.cif
#   From: 2010.05.17/outbox.cif.g08.bks.cpg/sg192_2_cif.got.tgz:3419.got - 2010.05.20 12:28:01.
