data_PCOD9588521
_publ_section_title
;
Structure prediction by ZEFSAII (Michael W. Deem and Ramdas Pophale) SiO2 
 PCOD9588521
Probable space group: P 6/M C C
;
_chemical_formula_sum "Si O2"
_cell_formula_units_Z 168
_cell_length_a 17.795197
_cell_length_b 17.795197
_cell_length_c 27.267200
_cell_angle_alpha 90.000000
_cell_angle_beta 90.000000
_cell_angle_gamma 120.000000
_cell_volume 7477.850455
_symmetry_space_group_name_H-M "P 6/M C C"
_symmetry_group_IT_number 192
_symmetry_cell_setting 'hexagonal'
loop_
_space_group_symop_operation_xyz
x,y,z
x-y,x,z
-y,x-y,z
-x,-y,z
-x+y,-x,z
y,-x+y,z
x-y,-y,1/2-z
-x,-x+y,1/2-z
y,x,1/2-z
-y,-x,1/2-z
-x+y,y,1/2-z
x,x-y,1/2-z
-x,-y,-z
-x+y,-x,-z
y,-x+y,-z
x,y,-z
x-y,x,-z
-y,x-y,-z
-x+y,y,1/2+z
x,x-y,1/2+z
-y,-x,1/2+z
y,x,1/2+z
x-y,-y,1/2+z
-x,-x+y,1/2+z
loop_
_atom_site_type_symbol
_atom_site_label
_atom_site_fract_x
_atom_site_fract_y
_atom_site_fract_z
Si Si1 0.492905 0.823614 0.393283
Si Si2 0.175106 0.667335 0.056449
Si Si3 0.373005 0.282096 0.703406
Si Si4 0.812627 0.289940 0.288854
Si Si5 0.404087 0.988550 0.611602
Si Si6 0.836173 0.806431 0.163114
Si Si7 0.836999 0.030658 0.553108
O O1 0.415332 0.818544 0.425272
O O2 0.506750 0.746880 0.410636
O O3 0.472253 0.817930 0.335154
O O4 0.578794 0.916181 0.399012
O O5 0.077838 0.643917 0.067977
O O6 0.197983 0.685147 0.000000
O O7 0.407653 0.214422 0.691966
O O8 0.318849 0.420933 0.744240
O O9 0.405268 0.354202 0.661818
O O10 0.269732 0.225623 0.699950
O O11 0.734914 0.265087 0.250000
O O12 0.500000 0.000000 0.615616
O O13 0.828650 0.892758 0.168484
O O14 0.804740 0.768057 0.107530
O O15 0.799731 0.038210 0.500000
O O16 0.937226 0.106470 0.552972
#
# Coordination Sequence:
#
# PCOD9588521 Si02
#       7
#    24  24  24  24  24  24  24
#     4  11  22  42  70 102 137 180 225 282 334 420
#     4  11  23  42  68 103 141 181 228 277 343 411
#     4   9  20  40  63  92 127 177 225 282 350 405
#     4   8  20  41  67  91 130 166 223 274 338 407
#     4  10  23  41  68  99 139 176 225 286 342 419
#     4  10  20  33  55  86 129 181 239 299 349 407
#     4   8  13  23  41  67 102 148 205 270 336 394
#
# _framework density 22.466349999999998
#
# number of rings (size 3 to 8) (size 9 to 14) (size 15 to 20)
#    0.857    1.429    1.429    1.000    2.000    5.429 
#    2.571    9.286    0.000    1.714    0.000    4.000 
#    0.000    0.000    0.000    0.000    0.000    1.571 
#
# Total GULP energy -937232.929232 kJ/mol
# GULP energy per Si atom -5578.767436 kJ/mol
# Density = 2.241522 g / cm^3
# Si number density = 22.466350 Si / 1000 Ang^3
#
#
#
# Elastic Constant Matrix: (Units=GPa)
#
#
# Indices 1 2 3 4 5 6 
#
# 1 41.2602 7.6552 11.3258 0.0000 0.0000 0.0000
# 2 7.6552 41.2602 11.3258 0.0000 0.0000 0.0000
# 3 11.3258 11.3258 115.0795 0.0000 0.0000 0.0000
# 4 0.0000 0.0000 0.0000 20.5132 0.0000 0.0000
# 5 0.0000 0.0000 0.0000 0.0000 20.5132 0.0000
# 6 0.0000 0.0000 0.0000 0.0000 0.0000 16.8025
#
#
#
# Elastic Compliance Matrix: (Units=1/GPa)
#
#
# Indices 1 2 3 4 5 6 
#
# 1 0.025589 -0.004169 -0.002108 0.000000 0.000000 0.000000
# 2 -0.004169 0.025589 -0.002108 0.000000 0.000000 0.000000
# 3 -0.002108 -0.002108 0.009105 0.000000 0.000000 0.000000
# 4 0.000000 0.000000 0.000000 0.048749 0.000000 0.000000
# 5 0.000000 0.000000 0.000000 0.000000 0.048749 0.000000
# 6 0.000000 0.000000 0.000000 0.000000 0.000000 0.059515
#
#
# Mechanical properties :
#
#
# Convention : Reuss Voigt Hill
#
# Bulk Modulus (GPa) = 22.98235 28.69039 25.83637
# Shear Modulus (GPa) = 20.11514 22.71865 21.41690
#
# Velocity S-wave (km/s) = 2.99548 3.18343 3.09089
# Velocity P-wave (km/s) = 4.71336 5.12937 4.92576
#
# Compressibility (1/GPa) = 0.04351165
#
# Stress axis : x y z
#
# Youngs Moduli (GPa) = 39.07992 39.07992 109.83479
#
# Poissons Ratio (x) = 0.16292 0.23154
# Poissons Ratio (y) = 0.16292 0.23154
# Poissons Ratio (z) = 0.08238 0.08238
#
# Static dielectric constant tensor:
#      x y z
#    x 1.854350 0.000000 0.000000 
#    y 0.000000 1.854350 0.000000 
#    z 0.000000 0.000000 1.879540 
# 
# From -- ./inp_files/7176.got.cif
#   From: 2010.05.17/outbox.cif.g08.bks.cpg/sg192_4_cif.got.tgz:7176.got - 2010.05.20 12:28:01.
