data_PCOD9588057
_publ_section_title
;
Structure prediction by ZEFSAII (Michael W. Deem and Ramdas Pophale) SiO2 
 PCOD9588057
Probable space group: P 6/M M M
;
_chemical_formula_sum "Si O2"
_cell_formula_units_Z 162
_cell_length_a 24.424975
_cell_length_b 24.424975
_cell_length_c 17.180997
_cell_angle_alpha 90.000000
_cell_angle_beta 90.000000
_cell_angle_gamma 120.000000
_cell_volume 8876.612252
_symmetry_space_group_name_H-M "P 6/M M M"
_symmetry_group_IT_number 191
_symmetry_cell_setting 'hexagonal'
loop_
_space_group_symop_operation_xyz
x,y,z
x-y,x,z
-y,x-y,z
-x,-y,z
-x+y,-x,z
y,-x+y,z
x-y,-y,-z
-x,-x+y,-z
y,x,-z
-y,-x,-z
-x+y,y,-z
x,x-y,-z
-x,-y,-z
-x+y,-x,-z
y,-x+y,-z
x,y,-z
x-y,x,-z
-y,x-y,-z
-x+y,y,z
x,x-y,z
-y,-x,z
y,x,z
x-y,-y,z
-x,-x+y,z
loop_
_atom_site_type_symbol
_atom_site_label
_atom_site_fract_x
_atom_site_fract_y
_atom_site_fract_z
Si Si1 0.074008 0.799865 0.593986
Si Si2 0.695421 0.105475 0.659060
Si Si3 0.736350 0.928697 0.906044
Si Si4 0.333152 0.544358 0.691504
Si Si5 0.310022 0.384106 0.158387
Si Si6 0.831180 0.475811 0.128155
Si Si7 0.727109 0.272892 0.000000
Si Si8 0.437223 0.000000 0.592957
O O1 0.072808 0.800225 0.500000
O O2 0.129077 0.870924 0.618944
O O3 0.096558 0.750458 0.620503
O O4 0.000000 0.771491 0.619907
O O5 0.697993 0.172412 0.655184
O O6 0.693686 0.087054 0.749552
O O7 0.627563 0.058780 0.622114
O O8 0.755602 0.877801 0.881720
O O9 0.668065 0.909836 0.872636
O O10 0.784237 0.000000 0.880683
O O11 0.732567 0.928262 0.000000
O O12 0.284853 0.569705 0.680121
O O13 0.403483 0.596518 0.664307
O O14 0.338613 0.534082 0.783754
O O15 0.356451 0.356451 0.143641
O O16 0.333306 0.451030 0.118555
O O17 0.860069 0.430035 0.119085
O O18 0.775268 0.455661 0.067679
O O19 0.500000 0.000000 0.622433
O O20 0.438898 0.000000 0.500000
#
# Coordination Sequence:
#
# PCOD9588057 Si02
#       8
#    24  24  24  24  24  24   6  12
#     4  10  20  35  57  85 118 153 188 230 279 333
#     4  11  20  36  56  83 114 147 184 232 283 341
#     4   9  19  34  55  80 110 148 189 237 286 334
#     4  10  20  36  53  76 107 143 188 235 284 337
#     4  10  21  36  55  81 108 144 182 223 284 346
#     4  10  23  37  52  75  99 136 186 238 289 337
#     4  12  22  40  54  70 100 136 188 244 296 336
#     4  11  22  36  58  88 117 147 182 226 279 340
#
# _framework density 18.250205000000001
#
# number of rings (size 3 to 8) (size 9 to 14) (size 15 to 20)
#    0.000    1.852    2.222    1.704    2.074    2.074 
#    1.778    0.000    0.000    1.185    0.000    2.074 
#    0.000    7.111    0.000    3.704    0.000    4.741 
#
# Total GULP energy -901881.675402 kJ/mol
# GULP energy per Si atom -5567.170836 kJ/mol
# Density = 1.820867 g / cm^3
# Si number density = 18.250205 Si / 1000 Ang^3
#
#
#
# Elastic Constant Matrix: (Units=GPa)
#
#
# Indices 1 2 3 4 5 6 
#
# 1 118.5957 77.4057 18.0905 0.0000 0.0000 0.0000
# 2 77.4057 118.5957 18.0905 0.0000 0.0000 0.0000
# 3 18.0905 18.0905 17.6531 0.0000 0.0000 0.0000
# 4 0.0000 0.0000 0.0000 19.6163 0.0000 0.0000
# 5 0.0000 0.0000 0.0000 0.0000 19.6163 0.0000
# 6 0.0000 0.0000 0.0000 0.0000 0.0000 20.5950
#
#
#
# Elastic Compliance Matrix: (Units=1/GPa)
#
#
# Indices 1 2 3 4 5 6 
#
# 1 0.015285 -0.008993 -0.006448 0.000000 0.000000 0.000000
# 2 -0.008993 0.015285 -0.006448 0.000000 0.000000 0.000000
# 3 -0.006448 -0.006448 0.069863 0.000000 0.000000 0.000000
# 4 0.000000 0.000000 0.000000 0.050978 0.000000 0.000000
# 5 0.000000 0.000000 0.000000 0.000000 0.050978 0.000000
# 6 0.000000 0.000000 0.000000 0.000000 0.000000 0.048555
#
#
# Mechanical properties :
#
#
# Convention : Reuss Voigt Hill
#
# Bulk Modulus (GPa) = 17.65068 53.55754 35.60411
# Shear Modulus (GPa) = 15.94346 21.38271 18.66308
#
# Velocity S-wave (km/s) = 2.95889 3.42664 3.20132
# Velocity P-wave (km/s) = 4.62232 6.71311 5.76332
#
# Compressibility (1/GPa) = 0.05665503
#
# Stress axis : x y z
#
# Youngs Moduli (GPa) = 65.42357 65.42357 14.31366
#
# Poissons Ratio (x) = 0.58833 0.09230
# Poissons Ratio (y) = 0.58833 0.09230
# Poissons Ratio (z) = 0.42187 0.42187
#
# Static dielectric constant tensor:
#      x y z
#    x 1.640210 0.000000 0.000000 
#    y 0.000000 1.640210 0.000000 
#    z 0.000000 0.000000 1.618590 
# 
# From -- ./inp_files/6773.got.cif
#   From: 2010.05.17/outbox.cif.g08.bks.cpg/sg191_4_cif.got.tgz:6773.got - 2010.05.20 12:20:32.
