data_PCOD9588743
_publ_section_title
;
Structure prediction by ZEFSAII (Michael W. Deem and Ramdas Pophale) SiO2 
 PCOD9588743
Probable space group: P 6/M C C
;
_chemical_formula_sum "Si O2"
_cell_formula_units_Z 144
_cell_length_a 21.050885
_cell_length_b 21.050885
_cell_length_c 17.345922
_cell_angle_alpha 90.000000
_cell_angle_beta 90.000000
_cell_angle_gamma 120.000000
_cell_volume 6656.849498
_symmetry_space_group_name_H-M "P 6/M C C"
_symmetry_group_IT_number 192
_symmetry_cell_setting 'hexagonal'
loop_
_space_group_symop_operation_xyz
x,y,z
x-y,x,z
-y,x-y,z
-x,-y,z
-x+y,-x,z
y,-x+y,z
x-y,-y,1/2-z
-x,-x+y,1/2-z
y,x,1/2-z
-y,-x,1/2-z
-x+y,y,1/2-z
x,x-y,1/2-z
-x,-y,-z
-x+y,-x,-z
y,-x+y,-z
x,y,-z
x-y,x,-z
-y,x-y,-z
-x+y,y,1/2+z
x,x-y,1/2+z
-y,-x,1/2+z
y,x,1/2+z
x-y,-y,1/2+z
-x,-x+y,1/2+z
loop_
_atom_site_type_symbol
_atom_site_label
_atom_site_fract_x
_atom_site_fract_y
_atom_site_fract_z
Si Si1 0.971660 0.375875 0.326425
Si Si2 0.012918 0.860983 0.342297
Si Si3 0.817815 0.452870 0.821805
Si Si4 0.766697 0.690093 0.589847
Si Si5 0.553176 0.779897 0.090960
Si Si6 0.507064 0.608686 0.412595
O O1 0.896025 0.371473 0.302876
O O2 0.959481 0.319536 0.393876
O O3 0.000000 0.355696 0.250000
O O4 0.032997 0.454499 0.356219
O O5 0.937179 0.854531 0.370245
O O6 0.000000 0.855926 0.250000
O O7 0.032889 0.799783 0.367006
O O8 0.791958 0.395979 0.750000
O O9 0.771920 0.489140 0.855791
O O10 0.840298 0.416216 0.889781
O O11 0.782430 0.705474 0.500000
O O12 0.794106 0.633397 0.614901
O O13 0.550201 0.853784 0.095258
O O14 0.542162 0.756192 0.000000
O O15 0.510180 0.587353 0.500000
#
# Coordination Sequence:
#
# PCOD9588743 Si02
#       6
#    24  24  24  24  24  24
#     4  11  22  39  62  93 130 160 204 262 316 376
#     4  10  22  41  64  92 126 169 216 261 312 371
#     4  11  22  40  63  93 129 163 208 264 323 376
#     4  10  22  40  63  92 128 163 203 259 316 376
#     4   9  22  43  62  91 131 168 212 264 316 382
#     4  11  23  39  66  93 122 168 213 257 317 383
#
# _framework density 21.631855000000002
#
# number of rings (size 3 to 8) (size 9 to 14) (size 15 to 20)
#    0.000    1.667    1.667    2.167    2.333    4.667 
#    1.000    0.000    0.000    1.000    0.000    0.000 
#    0.000    0.000    0.000    0.000    0.000    0.000 
#
# Total GULP energy -803743.545025 kJ/mol
# GULP energy per Si atom -5581.552396 kJ/mol
# Density = 2.158262 g / cm^3
# Si number density = 21.631855 Si / 1000 Ang^3
#
#
#
# Elastic Constant Matrix: (Units=GPa)
#
#
# Indices 1 2 3 4 5 6 
#
# 1 72.1454 28.5776 9.4264 0.0000 0.0000 0.0000
# 2 28.5776 72.1454 9.4264 0.0000 0.0000 0.0000
# 3 9.4264 9.4264 32.9999 0.0000 0.0000 0.0000
# 4 0.0000 0.0000 0.0000 21.1236 0.0000 0.0000
# 5 0.0000 0.0000 0.0000 0.0000 21.1236 0.0000
# 6 0.0000 0.0000 0.0000 0.0000 0.0000 21.7839
#
#
#
# Elastic Compliance Matrix: (Units=1/GPa)
#
#
# Indices 1 2 3 4 5 6 
#
# 1 0.016721 -0.006232 -0.002996 0.000000 0.000000 0.000000
# 2 -0.006232 0.016721 -0.002996 0.000000 0.000000 0.000000
# 3 -0.002996 -0.002996 0.032015 0.000000 0.000000 0.000000
# 4 0.000000 0.000000 0.000000 0.047340 0.000000 0.000000
# 5 0.000000 0.000000 0.000000 0.000000 0.047340 0.000000
# 6 0.000000 0.000000 0.000000 0.000000 0.000000 0.045905
#
#
# Mechanical properties :
#
#
# Convention : Reuss Voigt Hill
#
# Bulk Modulus (GPa) = 24.38543 30.23909 27.31226
# Shear Modulus (GPa) = 20.47831 21.46357 20.97094
#
# Velocity S-wave (km/s) = 3.08014 3.15337 3.11697
# Velocity P-wave (km/s) = 4.89358 5.22184 5.06037
#
# Compressibility (1/GPa) = 0.04100809
#
# Stress axis : x y z
#
# Youngs Moduli (GPa) = 59.80549 59.80549 31.23553
#
# Poissons Ratio (x) = 0.37270 0.09359
# Poissons Ratio (y) = 0.37270 0.09359
# Poissons Ratio (z) = 0.17919 0.17919
#
# Static dielectric constant tensor:
#      x y z
#    x 1.793550 0.000000 0.000000 
#    y 0.000000 1.793550 0.000000 
#    z 0.000000 0.000000 1.795070 
# 
# From -- ./inp_files/5137.got.cif
#   From: 2010.05.17/outbox.cif.g08.bks.cpg/sg192_3_cif.got.tgz:5137.got - 2010.05.20 12:28:01.
