data_PCOD9588688
_publ_section_title
;
Structure prediction by ZEFSAII (Michael W. Deem and Ramdas Pophale) SiO2 
 PCOD9588688
Probable space group: P 6/M C C
;
_chemical_formula_sum "Si O2"
_cell_formula_units_Z 114
_cell_length_a 21.326823
_cell_length_b 21.326823
_cell_length_c 15.654362
_cell_angle_alpha 90.000000
_cell_angle_beta 90.000000
_cell_angle_gamma 120.000000
_cell_volume 6166.210314
_symmetry_space_group_name_H-M "P 6/M C C"
_symmetry_group_IT_number 192
_symmetry_cell_setting 'hexagonal'
loop_
_space_group_symop_operation_xyz
x,y,z
x-y,x,z
-y,x-y,z
-x,-y,z
-x+y,-x,z
y,-x+y,z
x-y,-y,1/2-z
-x,-x+y,1/2-z
y,x,1/2-z
-y,-x,1/2-z
-x+y,y,1/2-z
x,x-y,1/2-z
-x,-y,-z
-x+y,-x,-z
y,-x+y,-z
x,y,-z
x-y,x,-z
-y,x-y,-z
-x+y,y,1/2+z
x,x-y,1/2+z
-y,-x,1/2+z
y,x,1/2+z
x-y,-y,1/2+z
-x,-x+y,1/2+z
loop_
_atom_site_type_symbol
_atom_site_label
_atom_site_fract_x
_atom_site_fract_y
_atom_site_fract_z
Si Si1 0.500000 0.000000 0.500000
Si Si2 0.845100 0.150324 0.851589
Si Si3 0.274920 0.000758 0.097168
Si Si4 0.274856 0.573217 0.000000
Si Si5 0.963943 0.390880 0.662418
Si Si6 0.799010 0.529707 0.839936
O O1 0.457347 0.018370 0.577197
O O2 0.850651 0.149350 0.750000
O O3 0.802681 0.068455 0.883699
O O4 0.793637 0.184452 0.869872
O O5 0.924109 0.201822 0.887723
O O6 0.335122 0.994238 0.151317
O O7 0.293103 0.995943 0.000000
O O8 0.362367 0.617807 0.000000
O O9 0.244425 0.526258 0.085066
O O10 0.877056 0.341027 0.672263
O O11 0.000000 0.432668 0.750000
O O12 0.756434 0.512868 0.750000
#
# Coordination Sequence:
#
# PCOD9588688 Si02
#       6
#     6  24  24  12  24  24
#     4  12  24  44  56  90 136 168 194 264 338 394
#     4  10  21  38  63  94 128 170 215 265 322 383
#     4  11  21  37  63  97 131 169 214 266 320 386
#     4  10  25  46  60  89 119 161 218 261 314 390
#     4  11  23  44  63  95 132 163 215 265 327 402
#     4  10  22  44  67  90 123 167 215 275 322 380
#
# _framework density 18.487853999999999
#
# number of rings (size 3 to 8) (size 9 to 14) (size 15 to 20)
#    0.211    1.263    1.053    6.000    5.895    0.842 
#   18.947    0.000    0.000    0.421    0.000    2.947 
#    0.000    0.000    0.000    0.000    0.000    0.000 
#
# Total GULP energy -634953.789134 kJ/mol
# GULP energy per Si atom -5569.770080 kJ/mol
# Density = 1.844578 g / cm^3
# Si number density = 18.487854 Si / 1000 Ang^3
#
#
#
# Elastic Constant Matrix: (Units=GPa)
#
#
# Indices 1 2 3 4 5 6 
#
# 1 110.2617 73.8796 73.9087 0.0000 0.0000 0.0000
# 2 73.8796 110.2617 73.9087 0.0000 0.0000 0.0000
# 3 73.9087 73.9087 158.3045 0.0000 0.0000 0.0000
# 4 0.0000 0.0000 0.0000 27.3715 0.0000 0.0000
# 5 0.0000 0.0000 0.0000 0.0000 27.3715 0.0000
# 6 0.0000 0.0000 0.0000 0.0000 0.0000 18.1910
#
#
#
# Elastic Compliance Matrix: (Units=1/GPa)
#
#
# Indices 1 2 3 4 5 6 
#
# 1 0.018086 -0.009400 -0.004055 0.000000 0.000000 0.000000
# 2 -0.009400 0.018086 -0.004055 0.000000 0.000000 0.000000
# 3 -0.004055 -0.004055 0.010104 0.000000 0.000000 0.000000
# 4 0.000000 0.000000 0.000000 0.036534 0.000000 0.000000
# 5 0.000000 0.000000 0.000000 0.000000 0.036534 0.000000
# 6 0.000000 0.000000 0.000000 0.000000 0.000000 0.054972
#
#
# Mechanical properties :
#
#
# Convention : Reuss Voigt Hill
#
# Bulk Modulus (GPa) = 88.85434 91.35797 90.10615
# Shear Modulus (GPa) = 23.46438 25.06221 24.26330
#
# Velocity S-wave (km/s) = 3.56642 3.68585 3.62662
# Velocity P-wave (km/s) = 8.06997 8.22413 8.14741
#
# Compressibility (1/GPa) = 0.01125437
#
# Stress axis : x y z
#
# Youngs Moduli (GPa) = 55.29141 55.29141 98.97515
#
# Poissons Ratio (x) = 0.51974 0.40137
# Poissons Ratio (y) = 0.51974 0.40137
# Poissons Ratio (z) = 0.22422 0.22422
#
# Static dielectric constant tensor:
#      x y z
#    x 1.615790 0.000000 0.000000 
#    y 0.000000 1.615790 0.000000 
#    z 0.000000 0.000000 1.630800 
# 
# From -- ./inp_files/3017.got.cif
#   From: 2010.05.17/outbox.cif.g08.bks.cpg/sg192_2_cif.got.tgz:3017.got - 2010.05.20 12:28:01.
