data_PCOD9588249
_publ_section_title
;
Structure prediction by ZEFSAII (Michael W. Deem and Ramdas Pophale) SiO2 
 PCOD9588249
Probable space group: P 6/M M M
;
_chemical_formula_sum "Si O2"
_cell_formula_units_Z 120
_cell_length_a 18.777280
_cell_length_b 18.777280
_cell_length_c 28.694383
_cell_angle_alpha 90.000000
_cell_angle_beta 90.000000
_cell_angle_gamma 120.000000
_cell_volume 8761.790954
_symmetry_space_group_name_H-M "P 6/M M M"
_symmetry_group_IT_number 191
_symmetry_cell_setting 'hexagonal'
loop_
_space_group_symop_operation_xyz
x,y,z
x-y,x,z
-y,x-y,z
-x,-y,z
-x+y,-x,z
y,-x+y,z
x-y,-y,-z
-x,-x+y,-z
y,x,-z
-y,-x,-z
-x+y,y,-z
x,x-y,-z
-x,-y,-z
-x+y,-x,-z
y,-x+y,-z
x,y,-z
x-y,x,-z
-y,x-y,-z
-x+y,y,z
x,x-y,z
-y,-x,z
y,x,z
x-y,-y,z
-x,-x+y,z
loop_
_atom_site_type_symbol
_atom_site_label
_atom_site_fract_x
_atom_site_fract_y
_atom_site_fract_z
Si Si1 0.666108 0.498988 0.620273
Si Si2 0.347677 0.255339 0.445533
Si Si3 0.000000 0.413525 0.784741
Si Si4 0.497846 0.332834 0.730451
Si Si5 0.586527 0.586527 0.892176
Si Si6 0.332645 0.499352 0.944151
O O1 0.738658 0.477315 0.613781
O O2 0.578721 0.421280 0.608707
O O3 0.688750 0.576243 0.587779
O O4 0.666437 0.518118 0.675102
O O5 0.372600 0.272808 0.500000
O O6 0.323292 0.161646 0.436525
O O7 0.275812 0.275812 0.437778
O O8 0.915918 0.350294 0.758731
O O9 0.000000 0.500000 0.783936
O O10 0.000000 0.390541 0.838471
O O11 0.494131 0.247066 0.741745
O O12 0.590017 0.409984 0.738904
O O13 0.500000 0.500000 0.893079
O O14 0.649715 0.566056 0.918380
O O15 0.247107 0.494214 0.931204
O O16 0.409532 0.590469 0.933738
O O17 0.332979 0.488232 0.000000
#
# Coordination Sequence:
#
# PCOD9588249 Si02
#       6
#    24  24  12  24  12  24
#     4   9  17  28  43  61  82 108 138 170 203 240
#     4   9  18  31  45  62  84 109 136 166 204 250
#     4   9  18  29  40  57  79 104 136 173 211 246
#     4   9  17  29  44  60  79 106 140 176 211 247
#     4   9  17  28  39  54  80 109 135 167 211 253
#     4   9  16  26  41  60  81 107 140 174 204 238
#
# _framework density 13.695831
#
# number of rings (size 3 to 8) (size 9 to 14) (size 15 to 20)
#    0.000    3.000    0.000    0.900    1.400    5.200 
#    0.000    1.000    0.000    3.800    0.000    1.400 
#    0.000    0.000    0.000    0.600    0.000    7.100 
#
# Total GULP energy -668209.696670 kJ/mol
# GULP energy per Si atom -5568.414139 kJ/mol
# Density = 1.366466 g / cm^3
# Si number density = 13.695831 Si / 1000 Ang^3
#
#
#
# Elastic Constant Matrix: (Units=GPa)
#
#
# Indices 1 2 3 4 5 6 
#
# 1 88.8621 63.1087 53.2188 0.0000 0.0000 0.0000
# 2 63.1087 88.8621 53.2188 0.0000 0.0000 0.0000
# 3 53.2188 53.2188 50.8673 0.0000 0.0000 0.0000
# 4 0.0000 0.0000 0.0000 16.1153 0.0000 0.0000
# 5 0.0000 0.0000 0.0000 0.0000 16.1153 0.0000
# 6 0.0000 0.0000 0.0000 0.0000 0.0000 12.8767
#
#
#
# Elastic Compliance Matrix: (Units=1/GPa)
#
#
# Indices 1 2 3 4 5 6 
#
# 1 0.031726 -0.007103 -0.025761 0.000000 0.000000 0.000000
# 2 -0.007103 0.031726 -0.025761 0.000000 0.000000 0.000000
# 3 -0.025761 -0.025761 0.073563 0.000000 0.000000 0.000000
# 4 0.000000 0.000000 0.000000 0.062053 0.000000 0.000000
# 5 0.000000 0.000000 0.000000 0.000000 0.062053 0.000000
# 6 0.000000 0.000000 0.000000 0.000000 0.000000 0.077660
#
#
# Mechanical properties :
#
#
# Convention : Reuss Voigt Hill
#
# Bulk Modulus (GPa) = 50.59639 63.07605 56.83622
# Shear Modulus (GPa) = 10.80798 12.95781 11.88289
#
# Velocity S-wave (km/s) = 2.81222 3.07923 2.94875
# Velocity P-wave (km/s) = 6.89695 7.66793 7.29263
#
# Compressibility (1/GPa) = 0.01976426
#
# Stress axis : x y z
#
# Youngs Moduli (GPa) = 31.51952 31.51952 13.59373
#
# Poissons Ratio (x) = 0.22390 0.35019
# Poissons Ratio (y) = 0.22390 0.35019
# Poissons Ratio (z) = 0.81198 0.81198
#
# Static dielectric constant tensor:
#      x y z
#    x 1.433030 0.000000 0.000000 
#    y 0.000000 1.433030 0.000000 
#    z 0.000000 0.000000 1.455400 
# 
# From -- ./inp_files/10315.got.cif
#   From: 2010.05.17/outbox.cif.g08.bks.cpg/sg191_6_cif.got.tgz:10315.got - 2010.05.20 12:20:32.
