data_PCOD9588959
_publ_section_title
;
Structure prediction by ZEFSAII (Michael W. Deem and Ramdas Pophale) SiO2 
 PCOD9588959
Probable space group: P 63/M C M
;
_chemical_formula_sum "Si O2"
_cell_formula_units_Z 144
_cell_length_a 20.742995
_cell_length_b 20.742995
_cell_length_c 22.851714
_cell_angle_alpha 90.000000
_cell_angle_beta 90.000000
_cell_angle_gamma 120.000000
_cell_volume 8515.150672
_symmetry_space_group_name_H-M "P 63/M C M"
_symmetry_group_IT_number 193
_symmetry_cell_setting 'hexagonal'
loop_
_space_group_symop_operation_xyz
x,y,z
x-y,x,1/2+z
-y,x-y,z
-x,-y,1/2+z
-x+y,-x,z
y,-x+y,1/2+z
x-y,-y,1/2-z
-x,-x+y,1/2-z
y,x,1/2-z
-y,-x,-z
-x+y,y,-z
x,x-y,-z
-x,-y,-z
-x+y,-x,1/2-z
y,-x+y,-z
x,y,1/2-z
x-y,x,-z
-y,x-y,1/2-z
-x+y,y,1/2+z
x,x-y,1/2+z
-y,-x,1/2+z
y,x,z
x-y,-y,z
-x,-x+y,z
loop_
_atom_site_type_symbol
_atom_site_label
_atom_site_fract_x
_atom_site_fract_y
_atom_site_fract_z
Si Si1 0.913591 0.086157 0.069778
Si Si2 0.910373 0.315837 0.449296
Si Si3 0.468149 0.909425 0.876304
Si Si4 0.837590 0.167604 0.371600
Si Si5 0.669140 0.910690 0.750000
Si Si6 0.515412 0.910573 0.750000
Si Si7 0.674748 0.089620 0.086483
O O1 0.862534 0.111397 0.102927
O O2 0.000000 0.138213 0.085617
O O3 0.886247 0.000000 0.081196
O O4 0.906390 0.093611 0.000000
O O5 0.888264 0.373243 0.420517
O O6 0.872473 0.239743 0.413573
O O7 0.893063 0.304728 0.518029
O O8 0.000000 0.354368 0.443018
O O9 0.471353 0.882875 0.810738
O O10 0.385926 0.886957 0.896648
O O11 0.513716 0.000000 0.875728
O O12 0.872767 0.194706 0.307923
O O13 0.748781 0.129269 0.375016
O O14 0.585807 0.898323 0.750000
O O15 0.724752 0.000000 0.750000
O O16 0.550924 0.000000 0.750000
O O17 0.634540 0.000000 0.093046
#
# Coordination Sequence:
#
# PCOD9588959 Si02
#       7
#    24  24  24  24  12  12  24
#     4  10  20  35  55  79 109 148 193 240 292 351
#     4  10  18  32  55  80 107 139 180 227 274 332
#     4   9  17  31  53  78 104 135 172 214 261 316
#     4  12  22  34  54  80 111 144 185 236 288 337
#     4  11  22  37  55  79 107 137 184 237 281 329
#     4   9  16  31  54  77  99 129 174 219 251 299
#     4  10  21  34  50  80 116 144 172 217 284 345
#
# _framework density 16.911033
#
# number of rings (size 3 to 8) (size 9 to 14) (size 15 to 20)
#    0.000    1.833    1.667    4.167    0.000    6.000 
#    0.000    2.500    0.000    0.667    0.000    3.500 
#    0.000    0.000    0.000    0.000    0.000    0.000 
#
# Total GULP energy -803725.693854 kJ/mol
# GULP energy per Si atom -5581.428430 kJ/mol
# Density = 1.687254 g / cm^3
# Si number density = 16.911033 Si / 1000 Ang^3
#
#
#
# Elastic Constant Matrix: (Units=GPa)
#
#
# Indices 1 2 3 4 5 6 
#
# 1 40.8873 5.7796 22.3723 0.0000 0.0000 0.0000
# 2 5.7796 40.8873 22.3723 0.0000 0.0000 0.0000
# 3 22.3723 22.3723 70.8208 0.0000 0.0000 0.0000
# 4 0.0000 0.0000 0.0000 17.3764 0.0000 0.0000
# 5 0.0000 0.0000 0.0000 0.0000 17.3764 0.0000
# 6 0.0000 0.0000 0.0000 0.0000 0.0000 17.5539
#
#
#
# Elastic Compliance Matrix: (Units=1/GPa)
#
#
# Indices 1 2 3 4 5 6 
#
# 1 0.029611 0.001128 -0.009710 0.000000 0.000000 0.000000
# 2 0.001128 0.029611 -0.009710 0.000000 0.000000 0.000000
# 3 -0.009710 -0.009710 0.020255 0.000000 0.000000 0.000000
# 4 0.000000 0.000000 0.000000 0.057549 0.000000 0.000000
# 5 0.000000 0.000000 0.000000 0.000000 0.057549 0.000000
# 6 0.000000 0.000000 0.000000 0.000000 0.000000 0.056967
#
#
# Mechanical properties :
#
#
# Convention : Reuss Voigt Hill
#
# Bulk Modulus (GPa) = 23.31475 28.18265 25.74870
# Shear Modulus (GPa) = 16.53290 17.26610 16.89950
#
# Velocity S-wave (km/s) = 3.13012 3.19877 3.16463
# Velocity P-wave (km/s) = 5.18461 5.50856 5.34904
#
# Compressibility (1/GPa) = 0.04289131
#
# Stress axis : x y z
#
# Youngs Moduli (GPa) = 33.77087 33.77087 49.37006
#
# Poissons Ratio (x) = -0.03808 0.47940
# Poissons Ratio (y) = -0.03808 0.47940
# Poissons Ratio (z) = 0.32793 0.32793
#
# Static dielectric constant tensor:
#      x y z
#    x 1.555020 0.000000 0.000000 
#    y 0.000000 1.555020 0.000000 
#    z 0.000000 0.000000 1.568070 
# 
# From -- ./inp_files/6638.got.cif
#   From: 2010.05.17/outbox.cif.g08.bks.cpg/sg193_4_cif.got.tgz:6638.got - 2010.05.20 12:33:02.
