data_PCOD9588190
_publ_section_title
;
Structure prediction by ZEFSAII (Michael W. Deem and Ramdas Pophale) SiO2 
 PCOD9588190
Probable space group: P 6/M M M
;
_chemical_formula_sum "Si O2"
_cell_formula_units_Z 168
_cell_length_a 23.423091
_cell_length_b 23.423091
_cell_length_c 23.216354
_cell_angle_alpha 90.000000
_cell_angle_beta 90.000000
_cell_angle_gamma 120.000000
_cell_volume 11030.953662
_symmetry_space_group_name_H-M "P 6/M M M"
_symmetry_group_IT_number 191
_symmetry_cell_setting 'hexagonal'
loop_
_space_group_symop_operation_xyz
x,y,z
x-y,x,z
-y,x-y,z
-x,-y,z
-x+y,-x,z
y,-x+y,z
x-y,-y,-z
-x,-x+y,-z
y,x,-z
-y,-x,-z
-x+y,y,-z
x,x-y,-z
-x,-y,-z
-x+y,-x,-z
y,-x+y,-z
x,y,-z
x-y,x,-z
-y,x-y,-z
-x+y,y,z
x,x-y,z
-y,-x,z
y,x,z
x-y,-y,z
-x,-x+y,z
loop_
_atom_site_type_symbol
_atom_site_label
_atom_site_fract_x
_atom_site_fract_y
_atom_site_fract_z
Si Si1 0.923308 0.394899 0.431068
Si Si2 0.799651 0.075790 0.166756
Si Si3 0.360675 0.080262 0.936817
Si Si4 0.923589 0.206513 0.700080
Si Si5 0.281850 0.853046 0.341824
Si Si6 0.393609 0.470682 0.750677
Si Si7 0.523295 0.602970 0.113807
O O1 0.918120 0.386125 0.500000
O O2 0.910595 0.455298 0.417121
O O3 0.874894 0.328871 0.397412
O O4 0.000000 0.421661 0.414848
O O5 0.877367 0.122634 0.163627
O O6 0.766806 0.098061 0.117823
O O7 0.779004 0.081357 0.231928
O O8 0.775823 0.000000 0.156732
O O9 0.436641 0.103600 0.924693
O O10 0.321530 0.000000 0.936965
O O11 0.351061 0.101446 0.000000
O O12 0.870938 0.129063 0.691698
O O13 0.897475 0.247032 0.663944
O O14 0.000000 0.231074 0.688533
O O15 0.222611 0.777390 0.341085
O O16 0.332618 0.874552 0.288418
O O17 0.458972 0.541029 0.738204
O O18 0.415598 0.415598 0.740667
O O19 0.379249 0.470458 0.818564
O O20 0.447568 0.552433 0.099363
O O21 0.561239 0.561239 0.107980
#
# Coordination Sequence:
#
# PCOD9588190 Si02
#       7
#    24  24  24  24  24  24  24
#     4   9  18  33  52  70  87 112 148 186 216 240
#     4   9  17  29  43  58  79 108 141 175 212 257
#     4   9  16  24  35  53  78 107 134 160 196 248
#     4   9  17  28  43  63  86 112 140 173 214 258
#     4  11  20  27  41  66  93 118 141 170 213 259
#     4   9  16  27  45  64  81 106 142 184 220 246
#     4   8  14  24  38  57  79 103 132 166 205 243
#
# _framework density 15.229872
#
# number of rings (size 3 to 8) (size 9 to 14) (size 15 to 20)
#    0.000    2.857    0.000    3.857    0.000    4.286 
#    0.000    1.429    0.000    2.571    0.000    2.000 
#    0.000    0.000    0.000    4.000    0.000    6.286 
#
# Total GULP energy -935385.568861 kJ/mol
# GULP energy per Si atom -5567.771243 kJ/mol
# Density = 1.519521 g / cm^3
# Si number density = 15.229872 Si / 1000 Ang^3
#
#
#
# Elastic Constant Matrix: (Units=GPa)
#
#
# Indices 1 2 3 4 5 6 
#
# 1 74.6396 38.0228 29.3683 0.0000 0.0000 0.0000
# 2 38.0228 74.6396 29.3683 0.0000 0.0000 0.0000
# 3 29.3683 29.3683 35.6854 0.0000 0.0000 0.0000
# 4 0.0000 0.0000 0.0000 11.9175 0.0000 0.0000
# 5 0.0000 0.0000 0.0000 0.0000 11.9175 0.0000
# 6 0.0000 0.0000 0.0000 0.0000 0.0000 18.3084
#
#
#
# Elastic Compliance Matrix: (Units=1/GPa)
#
#
# Indices 1 2 3 4 5 6 
#
# 1 0.021428 -0.005882 -0.012794 0.000000 0.000000 0.000000
# 2 -0.005882 0.021428 -0.012794 0.000000 0.000000 0.000000
# 3 -0.012794 -0.012794 0.049082 0.000000 0.000000 0.000000
# 4 0.000000 0.000000 0.000000 0.083910 0.000000 0.000000
# 5 0.000000 0.000000 0.000000 0.000000 0.083910 0.000000
# 6 0.000000 0.000000 0.000000 0.000000 0.000000 0.054620
#
#
# Mechanical properties :
#
#
# Convention : Reuss Voigt Hill
#
# Bulk Modulus (GPa) = 34.48630 42.05370 38.27000
# Shear Modulus (GPa) = 12.92041 14.30903 13.61472
#
# Velocity S-wave (km/s) = 2.91582 3.06851 2.99314
# Velocity P-wave (km/s) = 5.83344 6.34247 6.09327
#
# Compressibility (1/GPa) = 0.02899702
#
# Stress axis : x y z
#
# Youngs Moduli (GPa) = 46.66758 46.66758 20.37422
#
# Poissons Ratio (x) = 0.27449 0.26068
# Poissons Ratio (y) = 0.27449 0.26068
# Poissons Ratio (z) = 0.59708 0.59708
#
# Static dielectric constant tensor:
#      x y z
#    x 1.501960 0.000000 0.000000 
#    y 0.000000 1.501960 0.000000 
#    z 0.000000 0.000000 1.530180 
# 
# From -- ./inp_files/9232.got.cif
#   From: 2010.05.17/outbox.cif.g08.bks.cpg/sg191_5_cif.got.tgz:9232.got - 2010.05.20 12:20:32.
