data_PCOD9588927
_publ_section_title
;
Structure prediction by ZEFSAII (Michael W. Deem and Ramdas Pophale) SiO2 
 PCOD9588927
Probable space group: P 63/M C M
;
_chemical_formula_sum "Si O2"
_cell_formula_units_Z 138
_cell_length_a 31.736369
_cell_length_b 31.736369
_cell_length_c 9.154663
_cell_angle_alpha 90.000000
_cell_angle_beta 90.000000
_cell_angle_gamma 120.000000
_cell_volume 7985.230696
_symmetry_space_group_name_H-M "P 63/M C M"
_symmetry_group_IT_number 193
_symmetry_cell_setting 'hexagonal'
loop_
_space_group_symop_operation_xyz
x,y,z
x-y,x,1/2+z
-y,x-y,z
-x,-y,1/2+z
-x+y,-x,z
y,-x+y,1/2+z
x-y,-y,1/2-z
-x,-x+y,1/2-z
y,x,1/2-z
-y,-x,-z
-x+y,y,-z
x,x-y,-z
-x,-y,-z
-x+y,-x,1/2-z
y,-x+y,-z
x,y,1/2-z
x-y,x,-z
-y,x-y,1/2-z
-x+y,y,1/2+z
x,x-y,1/2+z
-y,-x,1/2+z
y,x,z
x-y,-y,z
-x,-x+y,z
loop_
_atom_site_type_symbol
_atom_site_label
_atom_site_fract_x
_atom_site_fract_y
_atom_site_fract_z
Si Si1 0.488407 0.844616 0.584619
Si Si2 0.000000 0.475899 0.750000
Si Si3 0.307706 0.198937 0.924292
Si Si4 0.924822 0.462411 0.500000
Si Si5 0.741079 0.741079 0.425090
Si Si6 0.418893 0.750822 0.077886
Si Si7 0.697172 0.097038 0.921951
Si Si8 0.000000 0.349742 0.923344
O O1 0.473693 0.824277 0.750000
O O2 0.481468 0.891013 0.570662
O O3 0.455030 0.806461 0.463925
O O4 0.544815 0.860879 0.562348
O O5 0.042053 0.499863 0.877432
O O6 0.308973 0.193166 0.750000
O O7 0.264965 0.212110 0.955202
O O8 0.358594 0.248034 0.965652
O O9 0.302285 0.151143 0.000000
O O10 0.731107 0.731107 0.250000
O O11 0.698492 0.698492 0.519485
O O12 0.413139 0.742887 0.250000
O O13 0.368182 0.736364 0.000000
O O14 0.439241 0.719621 0.000000
O O15 0.692451 0.083807 0.750000
O O16 0.657881 0.049871 0.009978
O O17 0.000000 0.353530 0.750000
#
# Coordination Sequence:
#
# PCOD9588927 Si02
#       8
#    24   6  24  12  12  24  24  12
#     4  11  23  41  64  86 116 153 189 231 284 337
#     4  10  24  38  60  88 118 154 200 238 276 350
#     4   9  17  31  52  74 102 140 182 227 272 321
#     4  11  22  42  60  86 118 154 194 238 288 336
#     4   8  16  32  50  68  99 146 188 218 273 344
#     4  12  26  45  70  94 118 144 177 221 276 343
#     4   9  20  37  53  72 105 148 185 217 265 333
#     4  10  18  30  48  76 104 135 183 237 271 302
#
# _framework density 17.281905999999999
#
# number of rings (size 3 to 8) (size 9 to 14) (size 15 to 20)
#    0.000    1.913    1.739    3.565    1.217    5.565 
#    1.565    1.739    0.000    0.000    0.000    0.000 
#    0.000    0.000    0.000    0.261    0.000    3.130 
#
# Total GULP energy -768237.461792 kJ/mol
# GULP energy per Si atom -5566.938129 kJ/mol
# Density = 1.724257 g / cm^3
# Si number density = 17.281906 Si / 1000 Ang^3
#
#
#
# Elastic Constant Matrix: (Units=GPa)
#
#
# Indices 1 2 3 4 5 6 
#
# 1 12.8573 80.0977 20.2801 0.0000 0.0000 0.0000
# 2 80.0977 12.8573 20.2801 0.0000 0.0000 0.0000
# 3 20.2801 20.2801 95.0277 0.0000 0.0000 0.0000
# 4 0.0000 0.0000 0.0000 21.0386 0.0000 0.0000
# 5 0.0000 0.0000 0.0000 0.0000 21.0386 0.0000
# 6 0.0000 0.0000 0.0000 0.0000 0.0000 -33.6202
#
#
#
# Elastic Compliance Matrix: (Units=1/GPa)
#
#
# Indices 1 2 3 4 5 6 
#
# 1 -0.001505 0.013367 -0.002532 0.000000 0.000000 0.000000
# 2 0.013367 -0.001505 -0.002532 0.000000 0.000000 0.000000
# 3 -0.002532 -0.002532 0.011604 0.000000 0.000000 0.000000
# 4 0.000000 0.000000 0.000000 0.047532 0.000000 0.000000
# 5 0.000000 0.000000 0.000000 0.000000 0.047532 0.000000
# 6 0.000000 0.000000 0.000000 0.000000 0.000000 -0.029744
#
#
# Mechanical properties :
#
#
# Convention : Reuss Voigt Hill
#
# Bulk Modulus (GPa) = 39.67873 40.22870 39.95371
# Shear Modulus (GPa) = 76.09590 1.69700 38.89645
#
# Velocity S-wave (km/s) = 6.64287 0.99201 4.74930
# Velocity P-wave (km/s) = 9.04690 4.96393 7.29682
#
# Compressibility (1/GPa) = 0.02520242
#
# Stress axis : x y z
#
# Youngs Moduli (GPa) = -664.57546 -664.57546 86.17858
#
# Poissons Ratio (x) = 8.88356 0.21817
# Poissons Ratio (y) = 8.88356 0.21817
# Poissons Ratio (z) = -1.68245 -1.68245
#
# Static dielectric constant tensor:
#      x y z
#    x 1.612970 0.000000 0.000000 
#    y 0.000000 1.612970 0.000000 
#    z 0.000000 0.000000 1.583780 
# 
# From -- ./inp_files/1621.got.cif
#   From: 2010.05.17/outbox.cif.g08.bks.cpg/sg193_1_cif.got.tgz:1621.got - 2010.05.20 12:33:02.
