data_PCOD9588669
_publ_section_title
;
Structure prediction by ZEFSAII (Michael W. Deem and Ramdas Pophale) SiO2 
 PCOD9588669
Probable space group: P 6/M C C
;
_chemical_formula_sum "Si O2"
_cell_formula_units_Z 162
_cell_length_a 20.281419
_cell_length_b 20.281419
_cell_length_c 23.323352
_cell_angle_alpha 90.000000
_cell_angle_beta 90.000000
_cell_angle_gamma 120.000000
_cell_volume 8308.416761
_symmetry_space_group_name_H-M "P 6/M C C"
_symmetry_group_IT_number 192
_symmetry_cell_setting 'hexagonal'
loop_
_space_group_symop_operation_xyz
x,y,z
x-y,x,z
-y,x-y,z
-x,-y,z
-x+y,-x,z
y,-x+y,z
x-y,-y,1/2-z
-x,-x+y,1/2-z
y,x,1/2-z
-y,-x,1/2-z
-x+y,y,1/2-z
x,x-y,1/2-z
-x,-y,-z
-x+y,-x,-z
y,-x+y,-z
x,y,-z
x-y,x,-z
-y,x-y,-z
-x+y,y,1/2+z
x,x-y,1/2+z
-y,-x,1/2+z
y,x,1/2+z
x-y,-y,1/2+z
-x,-x+y,1/2+z
loop_
_atom_site_type_symbol
_atom_site_label
_atom_site_fract_x
_atom_site_fract_y
_atom_site_fract_z
Si Si1 0.795212 0.586836 0.686052
Si Si2 0.035611 0.305034 0.811097
Si Si3 0.059546 0.632013 0.840234
Si Si4 0.153374 0.994299 0.500000
Si Si5 0.277502 0.783658 0.933808
Si Si6 0.838822 0.844336 0.625822
Si Si7 0.544543 0.391109 0.563701
Si Si8 0.000000 0.500000 0.250000
O O1 0.773797 0.547594 0.750000
O O2 0.786526 0.660832 0.693394
O O3 0.876224 0.594520 0.674087
O O4 0.750512 0.552606 0.625959
O O5 0.997721 0.218764 0.832245
O O6 0.000000 0.304156 0.750000
O O7 0.015028 0.359746 0.848518
O O8 0.091620 0.606466 0.892974
O O9 0.047843 0.573011 0.790084
O O10 0.147127 0.069537 0.500000
O O11 0.186793 0.993097 0.561580
O O12 0.229728 0.691630 0.933074
O O13 0.367678 0.820483 0.927663
O O14 0.263428 0.803909 0.000000
O O15 0.848591 0.928010 0.631841
O O16 0.522030 0.400118 0.500000
#
# Coordination Sequence:
#
# PCOD9588669 Si02
#       8
#    24  24  24  12  24  24  24   6
#     4  11  22  40  63  90 124 162 222 260 309 387
#     4  12  24  42  61  85 123 176 210 256 326 386
#     4  11  24  40  63  91 122 168 210 264 318 384
#     4   8  15  32  54  86 118 155 198 256 320 372
#     4   9  19  37  62  92 126 168 207 264 331 391
#     4  10  21  37  63  91 123 159 210 265 318 377
#     4   9  19  37  63  93 128 165 210 261 326 394
#     4  12  24  44  66  92 124 164 210 258 340 376
#
# _framework density 19.4983
#
# number of rings (size 3 to 8) (size 9 to 14) (size 15 to 20)
#    0.000    1.778    2.222    1.407    4.148    2.370 
#    2.667    0.370    0.000    0.889    0.000    0.000 
#    0.000    0.000    0.000    0.000    0.000    0.000 
#
# Total GULP energy -901844.946782 kJ/mol
# GULP energy per Si atom -5566.944116 kJ/mol
# Density = 1.945392 g / cm^3
# Si number density = 19.498300 Si / 1000 Ang^3
#
#
#
# Elastic Constant Matrix: (Units=GPa)
#
#
# Indices 1 2 3 4 5 6 
#
# 1 74.9481 38.7171 44.1976 0.0000 0.0000 0.0000
# 2 38.7171 74.9481 44.1976 0.0000 0.0000 0.0000
# 3 44.1976 44.1976 123.9330 0.0000 0.0000 0.0000
# 4 0.0000 0.0000 0.0000 29.3829 0.0000 0.0000
# 5 0.0000 0.0000 0.0000 0.0000 29.3829 0.0000
# 6 0.0000 0.0000 0.0000 0.0000 0.0000 18.1155
#
#
#
# Elastic Compliance Matrix: (Units=1/GPa)
#
#
# Indices 1 2 3 4 5 6 
#
# 1 0.019887 -0.007713 -0.004342 0.000000 0.000000 0.000000
# 2 -0.007713 0.019887 -0.004342 0.000000 0.000000 0.000000
# 3 -0.004342 -0.004342 0.011166 0.000000 0.000000 0.000000
# 4 0.000000 0.000000 0.000000 0.034033 0.000000 0.000000
# 5 0.000000 0.000000 0.000000 0.000000 0.034033 0.000000
# 6 0.000000 0.000000 0.000000 0.000000 0.000000 0.055201
#
#
# Mechanical properties :
#
#
# Convention : Reuss Voigt Hill
#
# Bulk Modulus (GPa) = 55.10429 58.67264 56.88847
# Shear Modulus (GPa) = 23.46862 25.15740 24.31301
#
# Velocity S-wave (km/s) = 3.47309 3.59588 3.53502
# Velocity P-wave (km/s) = 6.66375 6.88455 6.77505
#
# Compressibility (1/GPa) = 0.01814741
#
# Stress axis : x y z
#
# Youngs Moduli (GPa) = 50.28306 50.28306 89.56136
#
# Poissons Ratio (x) = 0.38785 0.38884
# Poissons Ratio (y) = 0.38785 0.38884
# Poissons Ratio (z) = 0.21831 0.21831
#
# Static dielectric constant tensor:
#      x y z
#    x 1.671880 0.000000 0.000000 
#    y 0.000000 1.671880 0.000000 
#    z 0.000000 0.000000 1.766180 
# 
# From -- ./inp_files/6076.got.cif
#   From: 2010.05.17/outbox.cif.g08.bks.cpg/sg192_4_cif.got.tgz:6076.got - 2010.05.20 12:28:01.
