data_PCOD9588430
_publ_section_title
;
Structure prediction by ZEFSAII (Michael W. Deem and Ramdas Pophale) SiO2 
 PCOD9588430
Probable space group: P 6/M C C
;
_chemical_formula_sum "Si O2"
_cell_formula_units_Z 126
_cell_length_a 31.838396
_cell_length_b 31.838396
_cell_length_c 9.394127
_cell_angle_alpha 90.000000
_cell_angle_beta 90.000000
_cell_angle_gamma 120.000000
_cell_volume 8246.875136
_symmetry_space_group_name_H-M "P 6/M C C"
_symmetry_group_IT_number 192
_symmetry_cell_setting 'hexagonal'
loop_
_space_group_symop_operation_xyz
x,y,z
x-y,x,z
-y,x-y,z
-x,-y,z
-x+y,-x,z
y,-x+y,z
x-y,-y,1/2-z
-x,-x+y,1/2-z
y,x,1/2-z
-y,-x,1/2-z
-x+y,y,1/2-z
x,x-y,1/2-z
-x,-y,-z
-x+y,-x,-z
y,-x+y,-z
x,y,-z
x-y,x,-z
-y,x-y,-z
-x+y,y,1/2+z
x,x-y,1/2+z
-y,-x,1/2+z
y,x,1/2+z
x-y,-y,1/2+z
-x,-x+y,1/2+z
loop_
_atom_site_type_symbol
_atom_site_label
_atom_site_fract_x
_atom_site_fract_y
_atom_site_fract_z
Si Si1 0.924426 0.533057 0.339259
Si Si2 0.484570 0.321966 0.836902
Si Si3 0.765852 0.146411 0.173766
Si Si4 0.000000 0.500000 0.250000
Si Si5 0.664194 0.412202 0.664897
Si Si6 0.306512 0.355888 0.170946
O O1 0.906895 0.524440 0.500000
O O2 0.877232 0.507286 0.241779
O O3 0.963294 0.515033 0.323797
O O4 0.945286 0.590489 0.310493
O O5 0.436930 0.272936 0.790478
O O6 0.530876 0.315716 0.827986
O O7 0.475673 0.329103 0.000000
O O8 0.816260 0.183740 0.250000
O O9 0.738728 0.093603 0.248250
O O10 0.770217 0.144977 0.000000
O O11 0.614243 0.385758 0.750000
O O12 0.699920 0.399839 0.750000
O O13 0.658703 0.397444 0.500000
O O14 0.318988 0.318988 0.250000
O O15 0.298846 0.348160 0.000000
#
# Coordination Sequence:
#
# PCOD9588430 Si02
#       6
#    24  24  24   6  24  24
#     4  10  22  35  51  71  94 124 155 186 222 267
#     4   9  21  38  55  73  96 119 147 184 227 272
#     4  10  19  33  53  77 100 126 157 197 237 283
#     4  12  22  36  48  74  98 128 156 190 222 264
#     4  11  23  39  56  74  92 114 139 174 217 267
#     4  10  19  34  51  71  97 129 162 196 237 285
#
# _framework density 15.278515000000001
#
# number of rings (size 3 to 8) (size 9 to 14) (size 15 to 20)
#    0.000    1.905    0.952    2.762    1.333    4.571 
#    0.000    0.000    0.000    0.000    0.000    0.000 
#    0.000    0.000    0.000    0.000    0.000    0.000 
#
# Total GULP energy -701979.274896 kJ/mol
# GULP energy per Si atom -5571.264086 kJ/mol
# Density = 1.524374 g / cm^3
# Si number density = 15.278515 Si / 1000 Ang^3
#
#
#
# Elastic Constant Matrix: (Units=GPa)
#
#
# Indices 1 2 3 4 5 6 
#
# 1 69.7807 31.3040 44.1105 0.0000 0.0000 0.0000
# 2 31.3040 69.7807 44.1105 0.0000 0.0000 0.0000
# 3 44.1105 44.1105 85.4202 0.0000 0.0000 0.0000
# 4 0.0000 0.0000 0.0000 82.7647 0.0000 0.0000
# 5 0.0000 0.0000 0.0000 0.0000 82.7647 0.0000
# 6 0.0000 0.0000 0.0000 0.0000 0.0000 19.2383
#
#
#
# Elastic Compliance Matrix: (Units=1/GPa)
#
#
# Indices 1 2 3 4 5 6 
#
# 1 0.021999 -0.003990 -0.009300 0.000000 0.000000 0.000000
# 2 -0.003990 0.021999 -0.009300 0.000000 0.000000 0.000000
# 3 -0.009300 -0.009300 0.021311 0.000000 0.000000 0.000000
# 4 0.000000 0.000000 0.000000 0.012082 0.000000 0.000000
# 5 0.000000 0.000000 0.000000 0.000000 0.012082 0.000000
# 6 0.000000 0.000000 0.000000 0.000000 0.000000 0.051980
#
#
# Mechanical properties :
#
#
# Convention : Reuss Voigt Hill
#
# Bulk Modulus (GPa) = 49.67585 51.55907 50.61746
# Shear Modulus (GPa) = 25.86058 43.98401 34.92229
#
# Velocity S-wave (km/s) = 4.11860 5.37128 4.78610
# Velocity P-wave (km/s) = 7.42975 8.50217 7.98399
#
# Compressibility (1/GPa) = 0.02013051
#
# Stress axis : x y z
#
# Youngs Moduli (GPa) = 45.45586 45.45586 46.92305
#
# Poissons Ratio (x) = 0.18139 0.43637
# Poissons Ratio (y) = 0.18139 0.43637
# Poissons Ratio (z) = 0.42273 0.42273
#
# Static dielectric constant tensor:
#      x y z
#    x 1.509450 0.000000 0.000000 
#    y 0.000000 1.509450 0.000000 
#    z 0.000000 0.000000 1.525230 
# 
# From -- ./inp_files/1102.got.cif
#   From: 2010.05.17/outbox.cif.g08.bks.cpg/sg192_1_cif.got.tgz:1102.got - 2010.05.20 12:28:01.
