data_PCOD9588341
_publ_section_title
;
Structure prediction by ZEFSAII (Michael W. Deem and Ramdas Pophale) SiO2 
 PCOD9588341
Probable space group: P 6/M C C
;
_chemical_formula_sum "Si O2"
_cell_formula_units_Z 132
_cell_length_a 17.380783
_cell_length_b 17.380783
_cell_length_c 30.094432
_cell_angle_alpha 90.000000
_cell_angle_beta 90.000000
_cell_angle_gamma 120.000000
_cell_volume 7873.275663
_symmetry_space_group_name_H-M "P 6/M C C"
_symmetry_group_IT_number 192
_symmetry_cell_setting 'hexagonal'
loop_
_space_group_symop_operation_xyz
x,y,z
x-y,x,z
-y,x-y,z
-x,-y,z
-x+y,-x,z
y,-x+y,z
x-y,-y,1/2-z
-x,-x+y,1/2-z
y,x,1/2-z
-y,-x,1/2-z
-x+y,y,1/2-z
x,x-y,1/2-z
-x,-y,-z
-x+y,-x,-z
y,-x+y,-z
x,y,-z
x-y,x,-z
-y,x-y,-z
-x+y,y,1/2+z
x,x-y,1/2+z
-y,-x,1/2+z
y,x,1/2+z
x-y,-y,1/2+z
-x,-x+y,1/2+z
loop_
_atom_site_type_symbol
_atom_site_label
_atom_site_fract_x
_atom_site_fract_y
_atom_site_fract_z
Si Si1 0.792906 0.585813 0.083415
Si Si2 0.451612 0.725806 0.500000
Si Si3 0.508655 0.669184 0.750000
Si Si4 0.894999 0.535408 0.154015
Si Si5 0.895955 0.791910 0.446261
Si Si6 0.359591 0.464592 0.845985
O O1 0.854831 0.564965 0.114768
O O2 0.844542 0.689084 0.068947
O O3 0.710133 0.564964 0.114768
O O4 0.758423 0.516845 0.042329
O O5 0.381134 0.762269 0.500000
O O6 0.433579 0.566422 0.750000
O O7 0.468126 0.734063 0.750000
O O8 0.557694 0.683756 0.796827
O O9 0.557694 0.683756 0.703173
O O10 0.858916 0.429458 0.152191
O O11 1.000000 0.584524 0.149346
O O12 0.844243 0.844243 0.432093
O O13 0.895803 0.791606 0.500000
#
# Coordination Sequence:
#
# PCOD9588341 Si02
#       6
#    24  12  24  24  24  24
#     4  12  20  38  58  81 112 146 195 229 268 343
#     4  10  24  40  54  78 114 158 192 232 276 308
#     4  10  18  33  51  78 109 141 182 227 274 333
#     4  10  21  35  54  80 111 146 182 229 281 327
#     4  10  21  38  61  85 110 139 180 237 293 340
#     4  10  21  35  54  80 111 146 182 229 281 327
#
# _framework density 16.765575999999999
#
# number of rings (size 3 to 8) (size 9 to 14) (size 15 to 20)
#    0.182    1.455    2.727    3.091    0.000    2.909 
#    1.091    0.000    0.000    4.364    0.000    0.000 
#    0.000    0.000    0.000    7.818    0.000    0.000 
#
# Total GULP energy -735451.109455 kJ/mol
# GULP energy per Si atom -5571.599314 kJ/mol
# Density = 1.672742 g / cm^3
# Si number density = 16.765576 Si / 1000 Ang^3
#
#
#
# Elastic Constant Matrix: (Units=GPa)
#
#
# Indices 1 2 3 4 5 6 
#
# 1 102.7376 52.3958 58.7661 0.0000 0.0000 0.0000
# 2 52.3958 102.7376 58.7661 0.0000 0.0000 0.0000
# 3 58.7661 58.7661 135.6475 0.0000 0.0000 0.0000
# 4 0.0000 0.0000 0.0000 24.2720 0.0000 0.0000
# 5 0.0000 0.0000 0.0000 0.0000 24.2720 0.0000
# 6 0.0000 0.0000 0.0000 0.0000 0.0000 25.1709
#
#
#
# Elastic Compliance Matrix: (Units=1/GPa)
#
#
# Indices 1 2 3 4 5 6 
#
# 1 0.014730 -0.005134 -0.004157 0.000000 0.000000 0.000000
# 2 -0.005134 0.014730 -0.004157 0.000000 0.000000 0.000000
# 3 -0.004157 -0.004157 0.010974 0.000000 0.000000 0.000000
# 4 0.000000 0.000000 0.000000 0.041200 0.000000 0.000000
# 5 0.000000 0.000000 0.000000 0.000000 0.041200 0.000000
# 6 0.000000 0.000000 0.000000 0.000000 0.000000 0.039728
#
#
# Mechanical properties :
#
#
# Convention : Reuss Voigt Hill
#
# Bulk Modulus (GPa) = 73.87255 75.66430 74.76842
# Shear Modulus (GPa) = 25.77709 26.15595 25.96652
#
# Velocity S-wave (km/s) = 3.92535 3.95409 3.93975
# Velocity P-wave (km/s) = 8.04377 8.12866 8.08633
#
# Compressibility (1/GPa) = 0.01353683
#
# Stress axis : x y z
#
# Youngs Moduli (GPa) = 67.88927 67.88927 91.12515
#
# Poissons Ratio (x) = 0.34857 0.37881
# Poissons Ratio (y) = 0.34857 0.37881
# Poissons Ratio (z) = 0.28222 0.28222
#
# Static dielectric constant tensor:
#      x y z
#    x 1.571100 0.000000 0.000000 
#    y 0.000000 1.571100 0.000000 
#    z 0.000000 0.000000 1.564490 
# 
# From -- ./inp_files/5817.got.cif
#   From: 2010.05.17/outbox.cif.g08.bks.cpg/sg192_3_cif.got.tgz:5817.got - 2010.05.20 12:28:01.
