data_PCOD9588648
_publ_section_title
;
Structure prediction by ZEFSAII (Michael W. Deem and Ramdas Pophale) SiO2 
 PCOD9588648
Probable space group: P 6/M C C
;
_chemical_formula_sum "Si O2"
_cell_formula_units_Z 104
_cell_length_a 21.231293
_cell_length_b 21.231293
_cell_length_c 15.062793
_cell_angle_alpha 90.000000
_cell_angle_beta 90.000000
_cell_angle_gamma 120.000000
_cell_volume 5880.158425
_symmetry_space_group_name_H-M "P 6/M C C"
_symmetry_group_IT_number 192
_symmetry_cell_setting 'hexagonal'
loop_
_space_group_symop_operation_xyz
x,y,z
x-y,x,z
-y,x-y,z
-x,-y,z
-x+y,-x,z
y,-x+y,z
x-y,-y,1/2-z
-x,-x+y,1/2-z
y,x,1/2-z
-y,-x,1/2-z
-x+y,y,1/2-z
x,x-y,1/2-z
-x,-y,-z
-x+y,-x,-z
y,-x+y,-z
x,y,-z
x-y,x,-z
-y,x-y,-z
-x+y,y,1/2+z
x,x-y,1/2+z
-y,-x,1/2+z
y,x,1/2+z
x-y,-y,1/2+z
-x,-x+y,1/2+z
loop_
_atom_site_type_symbol
_atom_site_label
_atom_site_fract_x
_atom_site_fract_y
_atom_site_fract_z
Si Si1 0.688177 0.773160 0.500000
Si Si2 0.311823 0.226839 0.000000
Si Si3 0.333334 0.666668 0.894207
Si Si4 0.582300 0.668438 0.646221
Si Si5 0.668439 0.086140 0.853779
Si Si6 0.164000 0.581999 0.646086
O O1 0.716266 0.858132 0.500000
O O2 0.748797 0.748796 0.500000
O O3 0.636539 0.735220 0.585197
O O4 0.363462 0.264779 0.914803
O O5 0.374835 0.749664 0.862769
O O6 0.333334 0.666668 0.000000
O O7 0.584595 0.689294 0.749999
O O8 0.610598 0.610597 0.641776
O O9 0.499799 0.629987 0.611243
O O10 0.629990 0.130191 0.888756
O O11 0.143451 0.571726 0.750000
#
# Coordination Sequence:
#
# PCOD9588648 Si02
#       6
#    12  12   8  24  24  24
#     4  10  22  37  57  82 109 135 167 209 257 313
#     4  10  22  37  57  82 109 135 167 209 257 313
#     4  12  28  35  43  69 103 143 190 231 265 314
#     4   9  19  35  56  80 103 134 175 220 268 313
#     4   9  19  35  56  80 103 134 175 220 268 313
#     4  10  21  36  51  67 100 141 181 225 268 315
#
# _framework density 17.686598
#
# number of rings (size 3 to 8) (size 9 to 14) (size 15 to 20)
#    0.000    2.308    0.000    1.385    6.462    3.692 
#    0.000    3.462    0.000    0.231    0.000    0.000 
#    0.000    0.000    0.000   11.538    0.000    0.000 
#
# Total GULP energy -580501.999768 kJ/mol
# GULP energy per Si atom -5581.749998 kJ/mol
# Density = 1.764634 g / cm^3
# Si number density = 17.686598 Si / 1000 Ang^3
#
#
#
# Elastic Constant Matrix: (Units=GPa)
#
#
# Indices 1 2 3 4 5 6 
#
# 1 137.7819 28.3325 25.6524 -0.0005 -0.0001 0.0034
# 2 28.3325 137.7885 25.6495 0.0004 0.0001 -0.0044
# 3 25.6524 25.6495 75.5601 0.0000 0.0000 0.0002
# 4 -0.0005 0.0004 0.0000 17.2000 0.0000 -0.0001
# 5 -0.0001 0.0001 0.0000 0.0000 17.1999 0.0005
# 6 0.0034 -0.0044 0.0002 -0.0001 0.0005 54.7974
#
#
#
# Elastic Compliance Matrix: (Units=1/GPa)
#
#
# Indices 1 2 3 4 5 6 
#
# 1 0.007931 -0.001206 -0.002283 0.000000 0.000000 -0.000001
# 2 -0.001206 0.007930 -0.002283 0.000000 0.000000 0.000001
# 3 -0.002283 -0.002283 0.014785 0.000000 0.000000 0.000000
# 4 0.000000 0.000000 0.000000 0.058140 0.000000 0.000000
# 5 0.000000 0.000000 0.000000 0.000000 0.058140 0.000000
# 6 -0.000001 0.000001 0.000000 0.000000 0.000000 0.018249
#
#
# Mechanical properties :
#
#
# Convention : Reuss Voigt Hill
#
# Bulk Modulus (GPa) = 52.34924 56.71105 54.53015
# Shear Modulus (GPa) = 27.30970 35.93918 31.62444
#
# Velocity S-wave (km/s) = 3.93375 4.51266 4.23312
# Velocity P-wave (km/s) = 7.09190 7.69975 7.40207
#
# Compressibility (1/GPa) = 0.01910247
#
# Stress axis : x y z
#
# Youngs Moduli (GPa) = 126.08935 126.09779 67.63836
#
# Poissons Ratio (x) = 0.15204 0.15443
# Poissons Ratio (y) = 0.15203 0.15440
# Poissons Ratio (z) = 0.28789 0.28784
#
# Static dielectric constant tensor:
#      x y z
#    x 1.629140 -0.000010 0.000000 
#    y -0.000010 1.629370 0.000000 
#    z 0.000000 0.000000 1.647170 
# 
# From -- ./inp_files/2930.got.cif
#   From: 2010.05.17/outbox.cif.g08.bks.cpg/sg192_2_cif.got.tgz:2930.got - 2010.05.20 12:28:01.
