data_PCOD9588642
_publ_section_title
;
Structure prediction by ZEFSAII (Michael W. Deem and Ramdas Pophale) SiO2 
 PCOD9588642
Probable space group: P 6/M C C
;
_chemical_formula_sum "Si O2"
_cell_formula_units_Z 168
_cell_length_a 29.238841
_cell_length_b 29.238841
_cell_length_c 14.715050
_cell_angle_alpha 90.000000
_cell_angle_beta 90.000000
_cell_angle_gamma 120.000000
_cell_volume 10894.634906
_symmetry_space_group_name_H-M "P 6/M C C"
_symmetry_group_IT_number 192
_symmetry_cell_setting 'hexagonal'
loop_
_space_group_symop_operation_xyz
x,y,z
x-y,x,z
-y,x-y,z
-x,-y,z
-x+y,-x,z
y,-x+y,z
x-y,-y,1/2-z
-x,-x+y,1/2-z
y,x,1/2-z
-y,-x,1/2-z
-x+y,y,1/2-z
x,x-y,1/2-z
-x,-y,-z
-x+y,-x,-z
y,-x+y,-z
x,y,-z
x-y,x,-z
-y,x-y,-z
-x+y,y,1/2+z
x,x-y,1/2+z
-y,-x,1/2+z
y,x,1/2+z
x-y,-y,1/2+z
-x,-x+y,1/2+z
loop_
_atom_site_type_symbol
_atom_site_label
_atom_site_fract_x
_atom_site_fract_y
_atom_site_fract_z
Si Si1 0.649953 0.542063 0.396877
Si Si2 0.801457 0.711945 0.250000
Si Si3 0.061856 0.530928 0.610844
Si Si4 0.646392 0.646392 0.140044
Si Si5 0.846893 0.261849 0.750000
Si Si6 0.107890 0.457937 0.603123
Si Si7 0.246950 1.000000 0.895647
O O1 0.656561 0.529002 0.500000
O O2 0.592154 0.498586 0.361611
O O3 0.646506 0.595192 0.394990
O O4 0.700273 0.556425 0.335368
O O5 0.858710 0.717419 0.250000
O O6 0.759019 0.648495 0.250000
O O7 0.791590 0.739495 0.162771
O O8 0.791590 0.739495 0.337229
O O9 0.060074 0.530037 0.500000
O O10 0.093568 0.501414 0.638389
O O11 0.000000 0.500000 0.640439
O O12 0.645622 0.645622 0.250000
O O13 0.646506 0.595192 0.105010
O O14 0.698050 0.698050 0.106698
O O15 0.790156 0.209845 0.750000
O O16 0.856152 0.299727 0.835368
O O17 0.127559 0.470998 0.500000
O O18 0.231001 1.000000 0.000000
#
# Coordination Sequence:
#
# PCOD9588642 Si02
#       7
#    24  24  24  24  24  24  24
#     4  11  20  33  50  70 100 133 161 197 245 298
#     4  10  21  35  47  69 101 127 166 217 247 276
#     4   9  18  29  47  77 106 129 155 188 235 305
#     4  12  18  30  46  70 102 134 169 197 236 293
#     4  11  23  36  47  66  95 129 171 210 245 285
#     4  11  20  33  50  70 100 133 161 197 245 298
#     4  11  19  32  52  70  92 135 176 205 244 286
#
# _framework density 15.420434
#
# number of rings (size 3 to 8) (size 9 to 14) (size 15 to 20)
#    0.000    1.286    7.143    1.286    0.000    1.714 
#    0.000    4.286    0.000    0.000    0.000    0.000 
#    5.714    0.000    1.714   13.714    0.000   29.714 
#
# Total GULP energy -937248.241395 kJ/mol
# GULP energy per Si atom -5578.858580 kJ/mol
# Density = 1.538534 g / cm^3
# Si number density = 15.420434 Si / 1000 Ang^3
#
#
#
# Elastic Constant Matrix: (Units=GPa)
#
#
# Indices 1 2 3 4 5 6 
#
# 1 93.1472 45.9561 38.1289 0.0000 0.0000 0.0000
# 2 45.9561 93.1472 38.1289 0.0000 0.0000 0.0000
# 3 38.1289 38.1289 121.3364 0.0000 0.0000 0.0000
# 4 0.0000 0.0000 0.0000 -6.3840 0.0000 0.0000
# 5 0.0000 0.0000 0.0000 0.0000 -6.3840 0.0000
# 6 0.0000 0.0000 0.0000 0.0000 0.0000 23.5955
#
#
#
# Elastic Compliance Matrix: (Units=1/GPa)
#
#
# Indices 1 2 3 4 5 6 
#
# 1 0.014938 -0.006253 -0.002729 0.000000 0.000000 0.000000
# 2 -0.006253 0.014938 -0.002729 0.000000 0.000000 0.000000
# 3 -0.002729 -0.002729 0.009957 0.000000 0.000000 0.000000
# 4 0.000000 0.000000 0.000000 -0.156642 0.000000 0.000000
# 5 0.000000 0.000000 0.000000 0.000000 -0.156642 0.000000
# 6 0.000000 0.000000 0.000000 0.000000 0.000000 0.042381
#
#
# Mechanical properties :
#
#
# Convention : Reuss Voigt Hill
#
# Bulk Modulus (GPa) = 60.93798 61.33986 61.13892
# Shear Modulus (GPa) = -24.73063 14.52664 -5.10199
#
# Velocity S-wave (km/s) = -4.00904 3.07259 -1.82093
# Velocity P-wave (km/s) = 4.26305 7.24241 5.94248
#
# Compressibility (1/GPa) = 0.01641013
#
# Stress axis : x y z
#
# Youngs Moduli (GPa) = 66.94445 66.94445 100.43379
#
# Poissons Ratio (x) = 0.41858 0.27410
# Poissons Ratio (y) = 0.41858 0.27410
# Poissons Ratio (z) = 0.18271 0.18271
#
# Static dielectric constant tensor:
#      x y z
#    x 1.494970 0.000000 0.000000 
#    y 0.000000 1.494970 0.000000 
#    z 0.000000 0.000000 1.589530 
# 
# From -- ./inp_files/3507.got.cif
#   From: 2010.05.17/outbox.cif.g08.bks.cpg/sg192_2_cif.got.tgz:3507.got - 2010.05.20 12:28:01.
