data_PCOD9588905
_publ_section_title
;
Structure prediction by ZEFSAII (Michael W. Deem and Ramdas Pophale) SiO2 
 PCOD9588905
Probable space group: P 63/M C M
;
_chemical_formula_sum "Si O2"
_cell_formula_units_Z 192
_cell_length_a 30.512552
_cell_length_b 30.512552
_cell_length_c 14.026863
_cell_angle_alpha 90.000000
_cell_angle_beta 90.000000
_cell_angle_gamma 120.000000
_cell_volume 11309.626226
_symmetry_space_group_name_H-M "P 63/M C M"
_symmetry_group_IT_number 193
_symmetry_cell_setting 'hexagonal'
loop_
_space_group_symop_operation_xyz
x,y,z
x-y,x,1/2+z
-y,x-y,z
-x,-y,1/2+z
-x+y,-x,z
y,-x+y,1/2+z
x-y,-y,1/2-z
-x,-x+y,1/2-z
y,x,1/2-z
-y,-x,-z
-x+y,y,-z
x,x-y,-z
-x,-y,-z
-x+y,-x,1/2-z
y,-x+y,-z
x,y,1/2-z
x-y,x,-z
-y,x-y,1/2-z
-x+y,y,1/2+z
x,x-y,1/2+z
-y,-x,1/2+z
y,x,z
x-y,-y,z
-x,-x+y,z
loop_
_atom_site_type_symbol
_atom_site_label
_atom_site_fract_x
_atom_site_fract_y
_atom_site_fract_z
Si Si1 0.154663 0.287181 0.637949
Si Si2 0.769688 0.436035 0.389406
Si Si3 0.941922 0.298369 0.856558
Si Si4 0.208397 0.940084 0.532193
Si Si5 0.568727 0.235727 0.118587
Si Si6 0.793717 0.200008 0.141186
Si Si7 0.457910 0.315857 0.071243
Si Si8 0.679169 0.537417 0.146193
O O1 0.158737 0.280130 0.750000
O O2 0.096626 0.258798 0.601781
O O3 0.188437 0.272489 0.571863
O O4 0.175040 0.346927 0.620326
O O5 0.721419 0.439081 0.353108
O O6 0.763489 0.383405 0.354101
O O7 0.764261 0.431822 0.503836
O O8 0.824190 0.487038 0.379889
O O9 0.934240 0.275569 0.750000
O O10 0.933424 0.255503 0.932976
O O11 0.905371 0.320836 0.871831
O O12 0.000000 0.341088 0.863956
O O13 0.228642 0.000000 0.537409
O O14 0.520999 0.184287 0.150690
O O15 0.773838 0.185351 0.250000
O O16 0.745200 0.180354 0.073644
O O17 0.829250 0.259978 0.142280
O O18 0.458048 0.335471 0.963318
O O19 0.664111 0.550516 0.250000
#
# Coordination Sequence:
#
# PCOD9588905 Si02
#       8
#    24  24  24  24  24  24  24  24
#     4  10  20  33  51  74 104 145 185 219 260 315
#     4   9  17  27  49  67  90 129 162 201 249 305
#     4  10  20  34  53  77 103 128 158 209 272 321
#     4  10  20  32  49  75 107 142 180 224 270 314
#     4   9  16  30  42  66  93 121 162 198 243 298
#     4  10  18  28  46  71  93 119 163 211 251 295
#     4  11  18  30  50  73  96 126 166 204 250 302
#     4  10  20  30  43  64  95 128 160 199 239 288
#
# _framework density 16.976687999999999
#
# number of rings (size 3 to 8) (size 9 to 14) (size 15 to 20)
#    0.000    2.125    2.500    2.125    1.750    2.000 
#    0.000    1.875    0.000    1.125    0.000    7.000 
#    0.000    0.000    0.000   12.000    0.000   26.000 
#
# Total GULP energy -1069402.258784 kJ/mol
# GULP energy per Si atom -5569.803431 kJ/mol
# Density = 1.693805 g / cm^3
# Si number density = 16.976688 Si / 1000 Ang^3
#
#
#
# Elastic Constant Matrix: (Units=GPa)
#
#
# Indices 1 2 3 4 5 6 
#
# 1 66.7253 27.1295 19.0686 0.0000 0.0000 0.0000
# 2 27.1295 66.7253 19.0686 0.0000 0.0000 0.0000
# 3 19.0686 19.0686 115.9557 0.0000 0.0000 0.0000
# 4 0.0000 0.0000 0.0000 -48.4828 0.0000 0.0000
# 5 0.0000 0.0000 0.0000 0.0000 -48.4828 0.0000
# 6 0.0000 0.0000 0.0000 0.0000 0.0000 19.7979
#
#
#
# Elastic Compliance Matrix: (Units=1/GPa)
#
#
# Indices 1 2 3 4 5 6 
#
# 1 0.018336 -0.006919 -0.001878 0.000000 0.000000 0.000000
# 2 -0.006919 0.018336 -0.001878 0.000000 0.000000 0.000000
# 3 -0.001878 -0.001878 0.009242 0.000000 0.000000 0.000000
# 4 0.000000 0.000000 0.000000 -0.020626 0.000000 0.000000
# 5 0.000000 0.000000 0.000000 0.000000 -0.020626 0.000000
# 6 0.000000 0.000000 0.000000 0.000000 0.000000 0.050510
#
#
# Mechanical properties :
#
#
# Convention : Reuss Voigt Hill
#
# Bulk Modulus (GPa) = 40.70584 42.21551 41.46068
# Shear Modulus (GPa) = 59.02511 -3.15754 27.93378
#
# Velocity S-wave (km/s) = 5.90286 -1.36527 4.06078
# Velocity P-wave (km/s) = 8.39571 4.73661 6.81628
#
# Compressibility (1/GPa) = 0.02456650
#
# Stress axis : x y z
#
# Youngs Moduli (GPa) = 54.53621 54.53621 108.20734
#
# Poissons Ratio (x) = 0.37732 0.20317
# Poissons Ratio (y) = 0.37732 0.20317
# Poissons Ratio (z) = 0.10240 0.10240
#
# Static dielectric constant tensor:
#      x y z
#    x 1.566320 0.000000 0.000000 
#    y 0.000000 1.566320 0.000000 
#    z 0.000000 0.000000 1.678640 
# 
# From -- ./inp_files/4479.got.cif
#   From: 2010.05.17/outbox.cif.g08.bks.cpg/sg193_3_cif.got.tgz:4479.got - 2010.05.20 12:33:02.
