data_PCOD9588825
_publ_section_title
;
Structure prediction by ZEFSAII (Michael W. Deem and Ramdas Pophale) SiO2 
 PCOD9588825
Probable space group: P 6/M C C
;
_chemical_formula_sum "Si O2"
_cell_formula_units_Z 54
_cell_length_a 14.277355
_cell_length_b 14.277355
_cell_length_c 14.158145
_cell_angle_alpha 90.000000
_cell_angle_beta 90.000000
_cell_angle_gamma 120.000000
_cell_volume 2499.381229
_symmetry_space_group_name_H-M "P 6/M C C"
_symmetry_group_IT_number 192
_symmetry_cell_setting 'hexagonal'
loop_
_space_group_symop_operation_xyz
x,y,z
x-y,x,z
-y,x-y,z
-x,-y,z
-x+y,-x,z
y,-x+y,z
x-y,-y,1/2-z
-x,-x+y,1/2-z
y,x,1/2-z
-y,-x,1/2-z
-x+y,y,1/2-z
x,x-y,1/2-z
-x,-y,-z
-x+y,-x,-z
y,-x+y,-z
x,y,-z
x-y,x,-z
-y,x-y,-z
-x+y,y,1/2+z
x,x-y,1/2+z
-y,-x,1/2+z
y,x,1/2+z
x-y,-y,1/2+z
-x,-x+y,1/2+z
loop_
_atom_site_type_symbol
_atom_site_label
_atom_site_fract_x
_atom_site_fract_y
_atom_site_fract_z
Si Si1 0.000000 0.500000 0.750000
Si Si2 0.130236 0.737137 0.836544
Si Si3 0.255258 0.527685 0.000000
Si Si4 0.792977 0.025926 0.500000
O O1 0.920809 0.387324 0.804205
O O2 0.178395 0.821606 0.750000
O O3 0.042017 0.741098 0.904597
O O4 0.231974 0.773479 0.906306
O O5 0.386057 0.602040 0.000000
O O6 0.914085 0.124566 0.500000
#
# Coordination Sequence:
#
# PCOD9588825 Si02
#       4
#     6  24  12  12
#     4  12  24  38  68  96 134 182 216 266 344 394
#     4  11  23  41  65  96 135 171 223 271 335 403
#     4   9  20  35  57  90 127 173 211 263 321 400
#     4  11  25  45  69  94 128 173 227 286 332 385
#
# _framework density 21.605346999999998
#
# number of rings (size 3 to 8) (size 9 to 14) (size 15 to 20)
#    0.444    0.889    0.000    5.556    0.000    7.111 
#    1.333    0.000    0.000    2.667    0.000    0.000 
#    0.000    0.000    0.000    0.000    0.000    0.000 
#
# Total GULP energy -301572.435156 kJ/mol
# GULP energy per Si atom -5584.674725 kJ/mol
# Density = 2.155617 g / cm^3
# Si number density = 21.605347 Si / 1000 Ang^3
#
#
#
# Elastic Constant Matrix: (Units=GPa)
#
#
# Indices 1 2 3 4 5 6 
#
# 1 112.0590 22.3862 49.8038 0.0000 0.0000 0.0000
# 2 22.3862 112.0590 49.8038 0.0000 0.0000 0.0000
# 3 49.8038 49.8038 144.9161 0.0000 0.0000 0.0000
# 4 0.0000 0.0000 0.0000 36.5826 0.0000 0.0000
# 5 0.0000 0.0000 0.0000 0.0000 36.5826 0.0000
# 6 0.0000 0.0000 0.0000 0.0000 0.0000 44.8364
#
#
#
# Elastic Compliance Matrix: (Units=1/GPa)
#
#
# Indices 1 2 3 4 5 6 
#
# 1 0.010565 -0.000586 -0.003429 0.000000 0.000000 0.000000
# 2 -0.000586 0.010565 -0.003429 0.000000 0.000000 0.000000
# 3 -0.003429 -0.003429 0.009258 0.000000 0.000000 0.000000
# 4 0.000000 0.000000 0.000000 0.027335 0.000000 0.000000
# 5 0.000000 0.000000 0.000000 0.000000 0.027335 0.000000
# 6 0.000000 0.000000 0.000000 0.000000 0.000000 0.022303
#
#
# Mechanical properties :
#
#
# Convention : Reuss Voigt Hill
#
# Bulk Modulus (GPa) = 64.52633 68.11353 66.31993
# Shear Modulus (GPa) = 39.24069 40.06968 39.65518
#
# Velocity S-wave (km/s) = 4.26637 4.31120 4.28884
# Velocity P-wave (km/s) = 7.36206 7.50844 7.43561
#
# Compressibility (1/GPa) = 0.01549755
#
# Stress axis : x y z
#
# Youngs Moduli (GPa) = 94.65025 94.65025 108.01753
#
# Poissons Ratio (x) = 0.05551 0.37044
# Poissons Ratio (y) = 0.05551 0.37044
# Poissons Ratio (z) = 0.32460 0.32460
#
# Static dielectric constant tensor:
#      x y z
#    x 1.776410 0.000000 0.000000 
#    y 0.000000 1.776410 0.000000 
#    z 0.000000 0.000000 1.800610 
# 
# From -- ./inp_files/2172.got.cif
#   From: 2010.05.17/outbox.cif.g08.bks.cpg/sg192_2_cif.got.tgz:2172.got - 2010.05.20 12:28:01.
