data_PCOD9588350
_publ_section_title
;
Structure prediction by ZEFSAII (Michael W. Deem and Ramdas Pophale) SiO2 
 PCOD9588350
Probable space group: P 6/M C C
;
_chemical_formula_sum "Si O2"
_cell_formula_units_Z 84
_cell_length_a 13.845423
_cell_length_b 13.845423
_cell_length_c 23.444298
_cell_angle_alpha 90.000000
_cell_angle_beta 90.000000
_cell_angle_gamma 120.000000
_cell_volume 3892.067128
_symmetry_space_group_name_H-M "P 6/M C C"
_symmetry_group_IT_number 192
_symmetry_cell_setting 'hexagonal'
loop_
_space_group_symop_operation_xyz
x,y,z
x-y,x,z
-y,x-y,z
-x,-y,z
-x+y,-x,z
y,-x+y,z
x-y,-y,1/2-z
-x,-x+y,1/2-z
y,x,1/2-z
-y,-x,1/2-z
-x+y,y,1/2-z
x,x-y,1/2-z
-x,-y,-z
-x+y,-x,-z
y,-x+y,-z
x,y,-z
x-y,x,-z
-y,x-y,-z
-x+y,y,1/2+z
x,x-y,1/2+z
-y,-x,1/2+z
y,x,1/2+z
x-y,-y,1/2+z
-x,-x+y,1/2+z
loop_
_atom_site_type_symbol
_atom_site_label
_atom_site_fract_x
_atom_site_fract_y
_atom_site_fract_z
Si Si1 0.127756 0.601090 0.434577
Si Si2 0.257112 0.816182 0.371796
Si Si3 0.981584 0.220114 0.814957
Si Si4 0.738759 0.477518 0.750000
O O1 0.165964 0.609931 0.500000
O O2 0.162823 0.725331 0.413302
O O3 0.183818 0.551279 0.392580
O O4 0.000000 0.500000 0.434092
O O5 0.278630 0.941192 0.361744
O O6 0.226056 0.770559 0.307730
O O7 0.094212 0.215700 0.821595
O O8 0.000000 0.269502 0.750000
O O9 0.606041 0.393960 0.750000
#
# Coordination Sequence:
#
# PCOD9588350 Si02
#       4
#    24  24  24  12
#     4  11  24  40  61  89 121 165 213 257 308 369
#     4  12  21  40  61  89 127 167 206 256 317 381
#     4  10  21  38  61  89 121 162 208 260 321 381
#     4  10  18  34  52  84 116 158 192 232 296 368
#
# _framework density 21.582360999999999
#
# number of rings (size 3 to 8) (size 9 to 14) (size 15 to 20)
#    0.286    0.857    2.857    5.143    0.000    1.143 
#    0.000    1.429    0.000    0.000    0.000    0.000 
#    0.000   13.714    0.000    0.000    0.000    0.000 
#
# Total GULP energy -467845.265577 kJ/mol
# GULP energy per Si atom -5569.586495 kJ/mol
# Density = 2.153324 g / cm^3
# Si number density = 21.582361 Si / 1000 Ang^3
#
#
#
# Elastic Constant Matrix: (Units=GPa)
#
#
# Indices 1 2 3 4 5 6 
#
# 1 89.9161 15.3812 33.7285 0.0000 0.0000 0.0000
# 2 15.3812 89.9161 33.7285 0.0000 0.0000 0.0000
# 3 33.7285 33.7285 122.0155 0.0000 0.0000 0.0000
# 4 0.0000 0.0000 0.0000 24.2142 0.0000 0.0000
# 5 0.0000 0.0000 0.0000 0.0000 24.2142 0.0000
# 6 0.0000 0.0000 0.0000 0.0000 0.0000 37.2675
#
#
#
# Elastic Compliance Matrix: (Units=1/GPa)
#
#
# Indices 1 2 3 4 5 6 
#
# 1 0.012479 -0.000938 -0.003190 0.000000 0.000000 0.000000
# 2 -0.000938 0.012479 -0.003190 0.000000 0.000000 0.000000
# 3 -0.003190 -0.003190 0.009959 0.000000 0.000000 0.000000
# 4 0.000000 0.000000 0.000000 0.041298 0.000000 0.000000
# 5 0.000000 0.000000 0.000000 0.000000 0.041298 0.000000
# 6 0.000000 0.000000 0.000000 0.000000 0.000000 0.026833
#
#
# Mechanical properties :
#
#
# Convention : Reuss Voigt Hill
#
# Bulk Modulus (GPa) = 49.30957 51.94711 50.62834
# Shear Modulus (GPa) = 30.16731 31.73981 30.95356
#
# Velocity S-wave (km/s) = 3.74274 3.83905 3.79120
# Velocity P-wave (km/s) = 6.44781 6.61608 6.53249
#
# Compressibility (1/GPa) = 0.02028004
#
# Stress axis : x y z
#
# Youngs Moduli (GPa) = 80.13726 80.13726 100.40784
#
# Poissons Ratio (x) = 0.07516 0.32032
# Poissons Ratio (y) = 0.07516 0.32032
# Poissons Ratio (z) = 0.25565 0.25565
#
# Static dielectric constant tensor:
#      x y z
#    x 1.876700 0.000000 0.000000 
#    y 0.000000 1.876700 0.000000 
#    z 0.000000 0.000000 1.759760 
# 
# From -- ./inp_files/5591.got.cif
#   From: 2010.05.17/outbox.cif.g08.bks.cpg/sg192_3_cif.got.tgz:5591.got - 2010.05.20 12:28:01.
