data_PCOD9588757
_publ_section_title
;
Structure prediction by ZEFSAII (Michael W. Deem and Ramdas Pophale) SiO2 
 PCOD9588757
Probable space group: P 6/M C C
;
_chemical_formula_sum "Si O2"
_cell_formula_units_Z 48
_cell_length_a 13.772667
_cell_length_b 13.772667
_cell_length_c 14.118181
_cell_angle_alpha 90.000000
_cell_angle_beta 90.000000
_cell_angle_gamma 120.000000
_cell_volume 2319.238818
_symmetry_space_group_name_H-M "P 6/M C C"
_symmetry_group_IT_number 192
_symmetry_cell_setting 'hexagonal'
loop_
_space_group_symop_operation_xyz
x,y,z
x-y,x,z
-y,x-y,z
-x,-y,z
-x+y,-x,z
y,-x+y,z
x-y,-y,1/2-z
-x,-x+y,1/2-z
y,x,1/2-z
-y,-x,1/2-z
-x+y,y,1/2-z
x,x-y,1/2-z
-x,-y,-z
-x+y,-x,-z
y,-x+y,-z
x,y,-z
x-y,x,-z
-y,x-y,-z
-x+y,y,1/2+z
x,x-y,1/2+z
-y,-x,1/2+z
y,x,1/2+z
x-y,-y,1/2+z
-x,-x+y,1/2+z
loop_
_atom_site_type_symbol
_atom_site_label
_atom_site_fract_x
_atom_site_fract_y
_atom_site_fract_z
Si Si1 0.211165 0.247150 0.000000
Si Si2 0.403102 0.028583 0.639590
Si Si3 0.470631 0.780957 0.500000
O O1 0.218197 0.134019 0.000000
O O2 0.284084 0.321927 0.911913
O O3 0.459183 0.153503 0.593069
O O4 0.500000 0.000000 0.613989
O O5 0.379985 0.000000 0.750000
O O6 0.351008 0.778067 0.500000
#
# Coordination Sequence:
#
# PCOD9588757 Si02
#       3
#    12  24  12
#     4  11  25  44  69  95 137 182 231 281 342 408
#     4  10  23  42  66  98 136 173 224 281 347 402
#     4   9  20  38  69  93 128 173 221 276 336 411
#
# _framework density 20.696446000000002
#
# number of rings (size 3 to 8) (size 9 to 14) (size 15 to 20)
#    0.500    1.500    0.000    3.250   14.000    2.000 
#    9.000    0.000    0.000    3.000    0.000    0.000 
#    0.000    0.000    0.000    0.000    0.000    0.000 
#
# Total GULP energy -267438.622615 kJ/mol
# GULP energy per Si atom -5571.637971 kJ/mol
# Density = 2.064934 g / cm^3
# Si number density = 20.696446 Si / 1000 Ang^3
#
#
#
# Elastic Constant Matrix: (Units=GPa)
#
#
# Indices 1 2 3 4 5 6 
#
# 1 160.0717 50.5631 67.3113 0.0000 0.0000 0.0000
# 2 50.5631 160.0717 67.3113 0.0000 0.0000 0.0000
# 3 67.3113 67.3113 173.3257 0.0000 0.0000 0.0000
# 4 0.0000 0.0000 0.0000 40.3005 0.0000 0.0000
# 5 0.0000 0.0000 0.0000 0.0000 40.3005 0.0000
# 6 0.0000 0.0000 0.0000 0.0000 0.0000 54.7543
#
#
#
# Elastic Compliance Matrix: (Units=1/GPa)
#
#
# Indices 1 2 3 4 5 6 
#
# 1 0.007723 -0.001408 -0.002452 0.000000 0.000000 0.000000
# 2 -0.001408 0.007723 -0.002452 0.000000 0.000000 0.000000
# 3 -0.002452 -0.002452 0.007674 0.000000 0.000000 0.000000
# 4 0.000000 0.000000 0.000000 0.024814 0.000000 0.000000
# 5 0.000000 0.000000 0.000000 0.000000 0.024814 0.000000
# 6 0.000000 0.000000 0.000000 0.000000 0.000000 0.018263
#
#
# Mechanical properties :
#
#
# Convention : Reuss Voigt Hill
#
# Bulk Modulus (GPa) = 95.28785 95.98230 95.63507
# Shear Modulus (GPa) = 46.66958 47.62329 47.14644
#
# Velocity S-wave (km/s) = 4.75379 4.80212 4.77801
# Velocity P-wave (km/s) = 8.73338 8.78772 8.76059
#
# Compressibility (1/GPa) = 0.01049452
#
# Stress axis : x y z
#
# Youngs Moduli (GPa) = 129.47771 129.47771 130.30516
#
# Poissons Ratio (x) = 0.18235 0.31956
# Poissons Ratio (y) = 0.18235 0.31956
# Poissons Ratio (z) = 0.31753 0.31753
#
# Static dielectric constant tensor:
#      x y z
#    x 1.775720 0.000000 0.000000 
#    y 0.000000 1.775720 0.000000 
#    z 0.000000 0.000000 1.653470 
# 
# From -- ./inp_files/2133.got.cif
#   From: 2010.05.17/outbox.cif.g08.bks.cpg/sg192_2_cif.got.tgz:2133.got - 2010.05.20 12:28:01.
