data_PCOD9588961
_publ_section_title
;
Structure prediction by ZEFSAII (Michael W. Deem and Ramdas Pophale) SiO2 
 PCOD9588961
Probable space group: P 63/M C M
;
_chemical_formula_sum "Si O2"
_cell_formula_units_Z 120
_cell_length_a 18.647769
_cell_length_b 18.647769
_cell_length_c 22.677234
_cell_angle_alpha 90.000000
_cell_angle_beta 90.000000
_cell_angle_gamma 120.000000
_cell_volume 6829.273009
_symmetry_space_group_name_H-M "P 63/M C M"
_symmetry_group_IT_number 193
_symmetry_cell_setting 'hexagonal'
loop_
_space_group_symop_operation_xyz
x,y,z
x-y,x,1/2+z
-y,x-y,z
-x,-y,1/2+z
-x+y,-x,z
y,-x+y,1/2+z
x-y,-y,1/2-z
-x,-x+y,1/2-z
y,x,1/2-z
-y,-x,-z
-x+y,y,-z
x,x-y,-z
-x,-y,-z
-x+y,-x,1/2-z
y,-x+y,-z
x,y,1/2-z
x-y,x,-z
-y,x-y,1/2-z
-x+y,y,1/2+z
x,x-y,1/2+z
-y,-x,1/2+z
y,x,z
x-y,-y,z
-x,-x+y,z
loop_
_atom_site_type_symbol
_atom_site_label
_atom_site_fract_x
_atom_site_fract_y
_atom_site_fract_z
Si Si1 0.226746 0.823640 0.181977
Si Si2 0.902855 0.507204 0.863887
Si Si3 0.501231 0.665392 0.492831
Si Si4 0.564016 0.658427 0.882733
Si Si5 0.910726 0.910726 0.321292
Si Si6 0.000000 0.250111 0.321970
O O1 0.199458 0.811169 0.250000
O O2 0.320130 0.840673 0.176894
O O3 0.161475 0.745883 0.144296
O O4 0.240017 0.912278 0.160316
O O5 0.881217 0.524571 0.929818
O O6 0.890061 0.415407 0.860961
O O7 0.000000 0.568666 0.850235
O O8 0.405256 0.594745 0.500000
O O9 0.509652 0.754826 0.500000
O O10 0.552521 0.657499 0.546714
O O11 0.631290 0.631290 0.867757
O O12 0.906067 0.906067 0.250000
O O13 0.831445 0.831445 0.343808
O O14 0.000000 0.922144 0.337724
O O15 0.000000 0.253257 0.250000
#
# Coordination Sequence:
#
# PCOD9588961 Si02
#       6
#    24  24  24  24  12  12
#     4  11  22  36  54  79 109 150 190 221 265 324
#     4  10  20  37  59  79 107 146 183 227 275 328
#     4  10  18  32  57  85 109 135 175 229 285 333
#     4  10  22  38  56  82 112 141 181 229 281 328
#     4   7  12  24  44  70  97 125 161 213 273 308
#     4   9  18  32  52  76 104 139 187 227 258 318
#
# _framework density 17.571415999999999
#
# number of rings (size 3 to 8) (size 9 to 14) (size 15 to 20)
#    0.200    2.000    3.000    0.800    0.000    4.400 
#    1.200    4.000    0.000    0.000    0.000    0.000 
#    0.000    0.000    0.000    2.900    0.000    1.200 
#
# Total GULP energy -668205.585061 kJ/mol
# GULP energy per Si atom -5568.379876 kJ/mol
# Density = 1.753142 g / cm^3
# Si number density = 17.571416 Si / 1000 Ang^3
#
#
#
# Elastic Constant Matrix: (Units=GPa)
#
#
# Indices 1 2 3 4 5 6 
#
# 1 104.1874 56.4171 23.1058 0.0000 0.0000 0.0000
# 2 56.4171 104.1874 23.1058 0.0000 0.0000 0.0000
# 3 23.1058 23.1058 39.4822 0.0000 0.0000 0.0000
# 4 0.0000 0.0000 0.0000 16.1633 0.0000 0.0000
# 5 0.0000 0.0000 0.0000 0.0000 16.1633 0.0000
# 6 0.0000 0.0000 0.0000 0.0000 0.0000 23.8851
#
#
#
# Elastic Compliance Matrix: (Units=1/GPa)
#
#
# Indices 1 2 3 4 5 6 
#
# 1 0.014210 -0.006723 -0.004382 0.000000 0.000000 0.000000
# 2 -0.006723 0.014210 -0.004382 0.000000 0.000000 0.000000
# 3 -0.004382 -0.004382 0.030456 0.000000 0.000000 0.000000
# 4 0.000000 0.000000 0.000000 0.061869 0.000000 0.000000
# 5 0.000000 0.000000 0.000000 0.000000 0.061869 0.000000
# 6 0.000000 0.000000 0.000000 0.000000 0.000000 0.041867
#
#
# Mechanical properties :
#
#
# Convention : Reuss Voigt Hill
#
# Bulk Modulus (GPa) = 35.83701 50.34603 43.09152
# Shear Modulus (GPa) = 18.88533 20.92423 19.90478
#
# Velocity S-wave (km/s) = 3.28193 3.45456 3.36935
# Velocity P-wave (km/s) = 5.89922 6.68030 6.30187
#
# Compressibility (1/GPa) = 0.02790412
#
# Stress axis : x y z
#
# Youngs Moduli (GPa) = 70.37110 70.37110 32.83382
#
# Poissons Ratio (x) = 0.47311 0.14387
# Poissons Ratio (y) = 0.47311 0.14387
# Poissons Ratio (z) = 0.30834 0.30834
#
# Static dielectric constant tensor:
#      x y z
#    x 1.605540 0.000000 0.000000 
#    y 0.000000 1.605540 0.000000 
#    z 0.000000 0.000000 1.614320 
# 
# From -- ./inp_files/7389.got.cif
#   From: 2010.05.17/outbox.cif.g08.bks.cpg/sg193_4_cif.got.tgz:7389.got - 2010.05.20 12:33:02.
