data_PCOD9588250
_publ_section_title
;
Structure prediction by ZEFSAII (Michael W. Deem and Ramdas Pophale) SiO2 
 PCOD9588250
Probable space group: P 6/M M M
;
_chemical_formula_sum "Si O2"
_cell_formula_units_Z 168
_cell_length_a 29.277170
_cell_length_b 29.277170
_cell_length_c 15.060617
_cell_angle_alpha 90.000000
_cell_angle_beta 90.000000
_cell_angle_gamma 120.000000
_cell_volume 11179.736948
_symmetry_space_group_name_H-M "P 6/M M M"
_symmetry_group_IT_number 191
_symmetry_cell_setting 'hexagonal'
loop_
_space_group_symop_operation_xyz
x,y,z
x-y,x,z
-y,x-y,z
-x,-y,z
-x+y,-x,z
y,-x+y,z
x-y,-y,-z
-x,-x+y,-z
y,x,-z
-y,-x,-z
-x+y,y,-z
x,x-y,-z
-x,-y,-z
-x+y,-x,-z
y,-x+y,-z
x,y,-z
x-y,x,-z
-y,x-y,-z
-x+y,y,z
x,x-y,z
-y,-x,z
y,x,z
x-y,-y,z
-x,-x+y,z
loop_
_atom_site_type_symbol
_atom_site_label
_atom_site_fract_x
_atom_site_fract_y
_atom_site_fract_z
Si Si1 0.519852 0.583653 0.249999
Si Si2 0.062700 0.656969 0.105795
Si Si3 0.839387 0.780568 0.143630
Si Si4 0.222387 0.342276 0.893463
Si Si5 0.937300 0.594267 0.394205
Si Si6 0.119889 0.342276 0.393462
Si Si7 0.780567 0.941180 0.356361
O O1 0.457865 0.542136 0.249999
O O2 0.549000 0.549000 0.249998
O O3 0.542642 0.620466 0.163477
O O4 0.542642 0.620465 0.336521
O O5 0.096147 0.717649 0.136309
O O6 0.000000 0.634627 0.119780
O O7 0.070014 0.653670 0.000000
O O8 0.895976 0.791951 0.108767
O O9 0.816438 0.816438 0.108249
O O10 0.798849 0.718944 0.127167
O O11 0.844207 0.787424 0.249996
O O12 0.177390 0.354780 0.859861
O O13 0.223571 0.346958 0.000000
O O14 0.929987 0.583654 0.500000
O O15 0.903852 0.621500 0.363693
O O16 0.000000 0.634627 0.380220
O O17 0.123385 0.346954 0.500000
O O18 0.177392 0.354783 0.359863
O O19 0.079907 0.281057 0.372823
O O20 0.791950 0.895975 0.391225
O O21 0.816436 0.000000 0.391742
#
# Coordination Sequence:
#
# PCOD9588250 Si02
#       7
#    24  24  24  24  24  24  24
#     4   9  18  30  43  60  80 106 142 176 201 230
#     4   9  17  28  42  60  83 112 143 175 209 243
#     4   9  17  27  39  55  75 101 133 172 217 264
#     4   9  17  28  41  59  83 108 135 168 207 254
#     4   9  17  28  42  60  83 112 143 175 209 243
#     4   9  17  28  41  59  83 108 135 168 207 254
#     4   9  17  27  39  55  75 101 133 172 217 264
#
# _framework density 15.027188000000001
#
# number of rings (size 3 to 8) (size 9 to 14) (size 15 to 20)
#    0.000    3.000    0.000    0.857    2.000    2.286 
#    0.000    2.857    0.000    0.286    0.000    2.000 
#    0.000    0.000    0.000   10.571    0.000   29.714 
#
# Total GULP energy -935817.108996 kJ/mol
# GULP energy per Si atom -5570.339935 kJ/mol
# Density = 1.499299 g / cm^3
# Si number density = 15.027188 Si / 1000 Ang^3
#
#
#
# Elastic Constant Matrix: (Units=GPa)
#
#
# Indices 1 2 3 4 5 6 
#
# 1 115.5107 68.7401 31.2929 0.0000 0.0000 0.0000
# 2 68.7401 115.5107 31.2929 0.0000 0.0000 0.0000
# 3 31.2929 31.2929 53.5901 0.0000 0.0000 0.0000
# 4 0.0000 0.0000 0.0000 88.9380 0.0000 0.0000
# 5 0.0000 0.0000 0.0000 0.0000 88.9380 0.0000
# 6 0.0000 0.0000 0.0000 0.0000 0.0000 23.3853
#
#
#
# Elastic Compliance Matrix: (Units=1/GPa)
#
#
# Indices 1 2 3 4 5 6 
#
# 1 0.014076 -0.007305 -0.003953 0.000000 0.000000 0.000000
# 2 -0.007305 0.014076 -0.003953 0.000000 0.000000 0.000000
# 3 -0.003953 -0.003953 0.023277 0.000000 0.000000 0.000000
# 4 0.000000 0.000000 0.000000 0.011244 0.000000 0.000000
# 5 0.000000 0.000000 0.000000 0.000000 0.011244 0.000000
# 6 0.000000 0.000000 0.000000 0.000000 0.000000 0.042762
#
#
# Mechanical properties :
#
#
# Convention : Reuss Voigt Hill
#
# Bulk Modulus (GPa) = 47.60950 60.80701 54.20826
# Shear Modulus (GPa) = 32.44575 50.47129 41.45852
#
# Velocity S-wave (km/s) = 4.65169 5.80169 5.25822
# Velocity P-wave (km/s) = 7.78473 9.24294 8.54500
#
# Compressibility (1/GPa) = 0.02100421
#
# Stress axis : x y z
#
# Youngs Moduli (GPa) = 71.04486 71.04486 42.96068
#
# Poissons Ratio (x) = 0.51901 0.16984
# Poissons Ratio (y) = 0.51901 0.16984
# Poissons Ratio (z) = 0.28086 0.28086
#
# Static dielectric constant tensor:
#      x y z
#    x 1.492300 0.000000 0.000000 
#    y 0.000000 1.492300 0.000000 
#    z 0.000000 0.000000 1.548230 
# 
# From -- ./inp_files/5403.got.cif
#   From: 2010.05.17/outbox.cif.g08.bks.cpg/sg191_3_cif.got.tgz:5403.got - 2010.05.20 12:20:32.
