data_PCOD9588692
_publ_section_title
;
Structure prediction by ZEFSAII (Michael W. Deem and Ramdas Pophale) SiO2 
 PCOD9588692
Probable space group: P 6/M C C
;
_chemical_formula_sum "Si O2"
_cell_formula_units_Z 168
_cell_length_a 17.861558
_cell_length_b 17.861558
_cell_length_c 31.377252
_cell_angle_alpha 90.000000
_cell_angle_beta 90.000000
_cell_angle_gamma 120.000000
_cell_volume 8669.303629
_symmetry_space_group_name_H-M "P 6/M C C"
_symmetry_group_IT_number 192
_symmetry_cell_setting 'hexagonal'
loop_
_space_group_symop_operation_xyz
x,y,z
x-y,x,z
-y,x-y,z
-x,-y,z
-x+y,-x,z
y,-x+y,z
x-y,-y,1/2-z
-x,-x+y,1/2-z
y,x,1/2-z
-y,-x,1/2-z
-x+y,y,1/2-z
x,x-y,1/2-z
-x,-y,-z
-x+y,-x,-z
y,-x+y,-z
x,y,-z
x-y,x,-z
-y,x-y,-z
-x+y,y,1/2+z
x,x-y,1/2+z
-y,-x,1/2+z
y,x,1/2+z
x-y,-y,1/2+z
-x,-x+y,1/2+z
loop_
_atom_site_type_symbol
_atom_site_label
_atom_site_fract_x
_atom_site_fract_y
_atom_site_fract_z
Si Si1 0.097879 0.201951 0.403874
Si Si2 0.676891 0.507981 0.860110
Si Si3 0.936219 0.263429 0.290663
Si Si4 0.508276 0.656603 0.151407
Si Si5 0.893107 0.208165 0.829745
Si Si6 0.262959 0.116258 0.000000
Si Si7 0.996217 0.583505 0.417955
Si Si8 0.660172 0.959959 0.500000
O O1 0.145451 0.148760 0.393639
O O2 0.130182 0.288381 0.375219
O O3 0.110539 0.218735 0.454559
O O4 0.588913 0.424724 0.844328
O O5 0.760094 0.495478 0.866049
O O6 0.717025 0.585643 0.826526
O O7 0.649267 0.549321 0.899051
O O8 0.886809 0.313691 0.307639
O O9 0.861705 0.163161 0.294213
O O10 0.000000 0.305456 0.250000
O O11 0.005291 0.266021 0.324452
O O12 0.558315 0.627208 0.118598
O O13 0.345060 0.212648 0.000000
O O14 0.275623 0.034856 0.000000
O O15 0.023534 0.647486 0.457057
O O16 0.000000 0.500000 0.432573
#
# Coordination Sequence:
#
# PCOD9588692 Si02
#       8
#    24  24  24  24  24  12  24  12
#     4  12  23  41  59  89 125 172 212 263 314 382
#     4  10  21  38  64  91 127 163 206 252 314 386
#     4  11  23  40  64  93 124 162 209 262 317 375
#     4  10  22  40  65  95 128 167 206 258 318 386
#     4  11  22  38  65  89 127 161 211 259 319 373
#     4  12  26  34  57  90 124 162 211 257 316 374
#     4  10  22  40  63  90 124 159 213 263 317 378
#     4  12  25  38  58  87 122 160 209 261 320 371
#
# _framework density 19.378719
#
# number of rings (size 3 to 8) (size 9 to 14) (size 15 to 20)
#    0.000    1.143    4.286    1.929    6.000    0.000 
#    0.000    2.143    0.000    0.000    0.000    4.000 
#    0.000    0.000    0.000    0.000    0.000    0.000 
#
# Total GULP energy -935302.765648 kJ/mol
# GULP energy per Si atom -5567.278367 kJ/mol
# Density = 1.933461 g / cm^3
# Si number density = 19.378719 Si / 1000 Ang^3
#
#
#
# Elastic Constant Matrix: (Units=GPa)
#
#
# Indices 1 2 3 4 5 6 
#
# 1 116.8131 47.4570 35.5620 0.0000 0.0000 0.0000
# 2 47.4570 116.8131 35.5620 0.0000 0.0000 0.0000
# 3 35.5620 35.5620 63.6470 0.0000 0.0000 0.0000
# 4 0.0000 0.0000 0.0000 22.2175 0.0000 0.0000
# 5 0.0000 0.0000 0.0000 0.0000 22.2175 0.0000
# 6 0.0000 0.0000 0.0000 0.0000 0.0000 34.6781
#
#
#
# Elastic Compliance Matrix: (Units=1/GPa)
#
#
# Indices 1 2 3 4 5 6 
#
# 1 0.011224 -0.003194 -0.004487 0.000000 0.000000 0.000000
# 2 -0.003194 0.011224 -0.004487 0.000000 0.000000 0.000000
# 3 -0.004487 -0.004487 0.020726 0.000000 0.000000 0.000000
# 4 0.000000 0.000000 0.000000 0.045010 0.000000 0.000000
# 5 0.000000 0.000000 0.000000 0.000000 0.045010 0.000000
# 6 0.000000 0.000000 0.000000 0.000000 0.000000 0.028837
#
#
# Mechanical properties :
#
#
# Convention : Reuss Voigt Hill
#
# Bulk Modulus (GPa) = 53.08192 59.38168 56.23180
# Shear Modulus (GPa) = 25.95455 27.73545 26.84500
#
# Velocity S-wave (km/s) = 3.66366 3.78727 3.72598
# Velocity P-wave (km/s) = 6.73408 7.05930 6.89861
#
# Compressibility (1/GPa) = 0.01883881
#
# Stress axis : x y z
#
# Youngs Moduli (GPa) = 89.09282 89.09282 48.24974
#
# Poissons Ratio (x) = 0.28457 0.21648
# Poissons Ratio (y) = 0.28457 0.21648
# Poissons Ratio (z) = 0.39974 0.39974
#
# Static dielectric constant tensor:
#      x y z
#    x 1.708040 0.000000 0.000000 
#    y 0.000000 1.708040 0.000000 
#    z 0.000000 0.000000 2.006480 
# 
# From -- ./inp_files/7233.got.cif
#   From: 2010.05.17/outbox.cif.g08.bks.cpg/sg192_4_cif.got.tgz:7233.got - 2010.05.20 12:28:01.
