data_PCOD9588069
_publ_section_title
;
Structure prediction by ZEFSAII (Michael W. Deem and Ramdas Pophale) SiO2 
 PCOD9588069
Probable space group: P 6/M M M
;
_chemical_formula_sum "Si O2"
_cell_formula_units_Z 108
_cell_length_a 26.473688
_cell_length_b 26.473688
_cell_length_c 10.636513
_cell_angle_alpha 90.000000
_cell_angle_beta 90.000000
_cell_angle_gamma 120.000000
_cell_volume 6455.929802
_symmetry_space_group_name_H-M "P 6/M M M"
_symmetry_group_IT_number 191
_symmetry_cell_setting 'hexagonal'
loop_
_space_group_symop_operation_xyz
x,y,z
x-y,x,z
-y,x-y,z
-x,-y,z
-x+y,-x,z
y,-x+y,z
x-y,-y,-z
-x,-x+y,-z
y,x,-z
-y,-x,-z
-x+y,y,-z
x,x-y,-z
-x,-y,-z
-x+y,-x,-z
y,-x+y,-z
x,y,-z
x-y,x,-z
-y,x-y,-z
-x+y,y,z
x,x-y,z
-y,-x,z
y,x,z
x-y,-y,z
-x,-x+y,z
loop_
_atom_site_type_symbol
_atom_site_label
_atom_site_fract_x
_atom_site_fract_y
_atom_site_fract_z
Si Si1 0.217660 0.551125 0.848876
Si Si2 0.594318 0.069878 0.500000
Si Si3 0.882043 0.316811 0.728095
Si Si4 0.818006 0.636011 0.647210
Si Si5 0.258088 0.129044 0.153068
Si Si6 0.000000 0.333788 0.150705
Si Si7 0.781908 0.000000 0.150905
O O1 0.278469 0.556938 0.803812
O O2 0.210780 0.605390 0.803433
O O3 0.164523 0.488709 0.810402
O O4 0.220124 0.554021 0.000000
O O5 0.541255 0.082509 0.500000
O O6 0.635328 0.096745 0.380462
O O7 0.565997 0.000000 0.500000
O O8 0.849644 0.251373 0.672199
O O9 0.940354 0.329148 0.801545
O O10 0.827837 0.655674 0.500000
O O11 0.842931 0.685862 0.755509
O O12 0.222234 0.060612 0.183466
O O13 0.272312 0.136156 0.000000
O O14 0.000000 0.275752 0.197910
O O15 0.000000 0.334159 0.000000
O O16 0.778492 0.000000 0.000000
#
# Coordination Sequence:
#
# PCOD9588069 Si02
#       7
#    24  12  24  12  12  12  12
#     4  10  21  37  58  83 111 144 184 234 287 337
#     4  11  24  41  60  78 104 152 198 226 273 346
#     4  12  22  39  58  81 115 150 184 236 285 346
#     4  12  24  36  58  90 121 149 193 240 298 351
#     4  10  20  36  58  85 120 162 202 242 292 356
#     4  11  22  35  57  90 118 147 188 232 290 355
#     4   9  18  32  54  83 117 157 199 240 285 346
#
# _framework density 16.728805999999999
#
# number of rings (size 3 to 8) (size 9 to 14) (size 15 to 20)
#    0.000    1.222    5.556    1.556    0.000    1.778 
#    0.000    1.667    0.000    2.889    0.000    1.556 
#    0.000    0.000    0.000    1.000    0.000    1.111 
#
# Total GULP energy -602420.182993 kJ/mol
# GULP energy per Si atom -5577.964657 kJ/mol
# Density = 1.669073 g / cm^3
# Si number density = 16.728806 Si / 1000 Ang^3
#
#
#
# Elastic Constant Matrix: (Units=GPa)
#
#
# Indices 1 2 3 4 5 6 
#
# 1 143.7258 75.8019 39.0504 0.0000 0.0000 0.0000
# 2 75.8019 143.7258 39.0504 0.0000 0.0000 0.0000
# 3 39.0504 39.0504 61.8610 0.0000 0.0000 0.0000
# 4 0.0000 0.0000 0.0000 -0.7692 0.0000 0.0000
# 5 0.0000 0.0000 0.0000 0.0000 -0.7692 0.0000
# 6 0.0000 0.0000 0.0000 0.0000 0.0000 33.9619
#
#
#
# Elastic Compliance Matrix: (Units=1/GPa)
#
#
# Indices 1 2 3 4 5 6 
#
# 1 0.010298 -0.004424 -0.003708 0.000000 0.000000 0.000000
# 2 -0.004424 0.010298 -0.003708 0.000000 0.000000 0.000000
# 3 -0.003708 -0.003708 0.020847 0.000000 0.000000 0.000000
# 4 0.000000 0.000000 0.000000 -1.300060 0.000000 0.000000
# 5 0.000000 0.000000 0.000000 0.000000 -1.300060 0.000000
# 6 0.000000 0.000000 0.000000 0.000000 0.000000 0.029445
#
#
# Mechanical properties :
#
#
# Convention : Reuss Voigt Hill
#
# Bulk Modulus (GPa) = 56.29746 73.01310 64.65528
# Shear Modulus (GPa) = -2.00030 19.51203 8.75587
#
# Velocity S-wave (km/s) = -1.09468 3.41893 2.29028
# Velocity P-wave (km/s) = 5.66818 7.70229 6.76216
#
# Compressibility (1/GPa) = 0.01776279
#
# Stress axis : x y z
#
# Youngs Moduli (GPa) = 97.10189 97.10189 47.96811
#
# Poissons Ratio (x) = 0.42957 0.17788
# Poissons Ratio (y) = 0.42957 0.17788
# Poissons Ratio (z) = 0.36009 0.36009
#
# Static dielectric constant tensor:
#      x y z
#    x 1.555840 0.000000 0.000000 
#    y 0.000000 1.555840 0.000000 
#    z 0.000000 0.000000 1.538660 
# 
# From -- ./inp_files/3022.got.cif
#   From: 2010.05.17/outbox.cif.g08.bks.cpg/sg191_2_cif.got.tgz:3022.got - 2010.05.20 12:20:32.
