data_PCOD9588807
_publ_section_title
;
Structure prediction by ZEFSAII (Michael W. Deem and Ramdas Pophale) SiO2 
 PCOD9588807
Probable space group: P 6/M C C
;
_chemical_formula_sum "Si O2"
_cell_formula_units_Z 108
_cell_length_a 18.096560
_cell_length_b 18.096560
_cell_length_c 20.863355
_cell_angle_alpha 90.000000
_cell_angle_beta 90.000000
_cell_angle_gamma 120.000000
_cell_volume 5917.071725
_symmetry_space_group_name_H-M "P 6/M C C"
_symmetry_group_IT_number 192
_symmetry_cell_setting 'hexagonal'
loop_
_space_group_symop_operation_xyz
x,y,z
x-y,x,z
-y,x-y,z
-x,-y,z
-x+y,-x,z
y,-x+y,z
x-y,-y,1/2-z
-x,-x+y,1/2-z
y,x,1/2-z
-y,-x,1/2-z
-x+y,y,1/2-z
x,x-y,1/2-z
-x,-y,-z
-x+y,-x,-z
y,-x+y,-z
x,y,-z
x-y,x,-z
-y,x-y,-z
-x+y,y,1/2+z
x,x-y,1/2+z
-y,-x,1/2+z
y,x,1/2+z
x-y,-y,1/2+z
-x,-x+y,1/2+z
loop_
_atom_site_type_symbol
_atom_site_label
_atom_site_fract_x
_atom_site_fract_y
_atom_site_fract_z
Si Si1 0.157599 0.665800 0.179916
Si Si2 0.665590 0.163963 0.170019
Si Si3 0.178653 0.000000 0.750000
Si Si4 0.241350 0.346815 0.572342
Si Si5 0.936071 0.696250 0.628592
O O1 0.256643 0.738141 0.169437
O O2 0.149765 0.577655 0.157654
O O3 0.137593 0.663094 0.255755
O O4 0.097709 0.695466 0.146229
O O5 0.694833 0.118088 0.119009
O O6 0.222581 0.981359 0.689100
O O7 0.084992 0.915009 0.750000
O O8 0.239510 0.375534 0.500000
O O9 0.272332 0.278624 0.574021
O O10 0.148427 0.304855 0.604657
#
# Coordination Sequence:
#
# PCOD9588807 Si02
#       5
#    24  24  12  24  24
#     4   9  18  33  59  87 117 150 196 253 306 355
#     4   9  18  34  56  86 117 153 196 246 305 357
#     4  12  23  40  66  95 124 150 194 264 329 384
#     4  11  23  40  58  80 115 161 204 243 299 378
#     4  11  22  38  60  86 115 154 198 249 311 371
#
# _framework density 18.252272000000001
#
# number of rings (size 3 to 8) (size 9 to 14) (size 15 to 20)
#    0.000    1.778    2.222    2.556    3.111    2.667 
#    0.000    8.889    0.000    0.000    0.000    3.111 
#    0.000    0.000    0.000    0.000    0.000    0.000 
#
# Total GULP energy -602200.317613 kJ/mol
# GULP energy per Si atom -5575.928867 kJ/mol
# Density = 1.821073 g / cm^3
# Si number density = 18.252272 Si / 1000 Ang^3
#
#
#
# Elastic Constant Matrix: (Units=GPa)
#
#
# Indices 1 2 3 4 5 6 
#
# 1 93.4361 61.3729 48.4185 0.0000 0.0000 0.0000
# 2 61.3729 93.4361 48.4185 0.0000 0.0000 0.0000
# 3 48.4185 48.4185 89.7656 0.0000 0.0000 0.0000
# 4 0.0000 0.0000 0.0000 14.8722 0.0000 0.0000
# 5 0.0000 0.0000 0.0000 0.0000 14.8722 0.0000
# 6 0.0000 0.0000 0.0000 0.0000 0.0000 16.0316
#
#
#
# Elastic Compliance Matrix: (Units=1/GPa)
#
#
# Indices 1 2 3 4 5 6 
#
# 1 0.020469 -0.010720 -0.005258 0.000000 0.000000 0.000000
# 2 -0.010720 0.020469 -0.005258 0.000000 0.000000 0.000000
# 3 -0.005258 -0.005258 0.016813 0.000000 0.000000 0.000000
# 4 0.000000 0.000000 0.000000 0.067239 0.000000 0.000000
# 5 0.000000 0.000000 0.000000 0.000000 0.067239 0.000000
# 6 0.000000 0.000000 0.000000 0.000000 0.000000 0.062377
#
#
# Mechanical properties :
#
#
# Convention : Reuss Voigt Hill
#
# Bulk Modulus (GPa) = 65.45866 65.89529 65.67697
# Shear Modulus (GPa) = 16.54690 17.05039 16.79865
#
# Velocity S-wave (km/s) = 3.01419 3.05971 3.03703
# Velocity P-wave (km/s) = 6.93217 6.97591 6.95407
#
# Compressibility (1/GPa) = 0.01527682
#
# Stress axis : x y z
#
# Youngs Moduli (GPa) = 48.85522 48.85522 59.47860
#
# Poissons Ratio (x) = 0.52372 0.31276
# Poissons Ratio (y) = 0.52372 0.31276
# Poissons Ratio (z) = 0.25690 0.25690
#
# Static dielectric constant tensor:
#      x y z
#    x 1.625380 0.000000 0.000000 
#    y 0.000000 1.625380 0.000000 
#    z 0.000000 0.000000 1.611380 
# 
# From -- ./inp_files/4829.got.cif
#   From: 2010.05.17/outbox.cif.g08.bks.cpg/sg192_3_cif.got.tgz:4829.got - 2010.05.20 12:28:01.
