data_PCOD9588607
_publ_section_title
;
Structure prediction by ZEFSAII (Michael W. Deem and Ramdas Pophale) SiO2 
 PCOD9588607
Probable space group: P 6/M C C
;
_chemical_formula_sum "Si O2"
_cell_formula_units_Z 116
_cell_length_a 15.358489
_cell_length_b 15.358489
_cell_length_c 30.327128
_cell_angle_alpha 90.000000
_cell_angle_beta 90.000000
_cell_angle_gamma 120.000000
_cell_volume 6195.250879
_symmetry_space_group_name_H-M "P 6/M C C"
_symmetry_group_IT_number 192
_symmetry_cell_setting 'hexagonal'
loop_
_space_group_symop_operation_xyz
x,y,z
x-y,x,z
-y,x-y,z
-x,-y,z
-x+y,-x,z
y,-x+y,z
x-y,-y,1/2-z
-x,-x+y,1/2-z
y,x,1/2-z
-y,-x,1/2-z
-x+y,y,1/2-z
x,x-y,1/2-z
-x,-y,-z
-x+y,-x,-z
y,-x+y,-z
x,y,-z
x-y,x,-z
-y,x-y,-z
-x+y,y,1/2+z
x,x-y,1/2+z
-y,-x,1/2+z
y,x,1/2+z
x-y,-y,1/2+z
-x,-x+y,1/2+z
loop_
_atom_site_type_symbol
_atom_site_label
_atom_site_fract_x
_atom_site_fract_y
_atom_site_fract_z
Si Si1 0.991678 0.787290 0.200282
Si Si2 0.878846 0.285822 0.083889
Si Si3 0.458373 0.766825 0.000000
Si Si4 0.443800 0.557598 0.655865
Si Si5 0.722729 0.077128 0.116512
Si Si6 0.666668 0.333334 0.198437
O O1 0.894422 0.801165 0.196990
O O2 0.975333 0.711632 0.160445
O O3 0.000000 0.751689 0.250000
O O4 0.820300 0.295907 0.042672
O O5 0.880711 0.359148 0.122346
O O6 0.824406 0.172495 0.101264
O O7 0.995537 0.321801 0.077930
O O8 0.353617 0.768960 0.000000
O O9 0.500000 0.500000 0.676703
O O10 0.352387 0.469724 0.628784
O O11 0.395792 0.612474 0.683288
O O12 0.666668 0.333334 0.250000
#
# Coordination Sequence:
#
# PCOD9588607 Si02
#       6
#    24  24  12  24  24   8
#     4  10  20  37  61  97 131 169 221 278 330 385
#     4  11  22  41  63  93 123 169 210 266 331 389
#     4  10  24  40  70  97 124 161 211 278 326 400
#     4  10  23  42  62  86 123 167 211 261 326 395
#     4  11  21  38  65  87 130 171 211 265 327 398
#     4  12  24  42  66  88 125 169 219 279 315 390
#
# _framework density 18.724021
#
# number of rings (size 3 to 8) (size 9 to 14) (size 15 to 20)
#    0.207    1.241    4.138    1.448    0.000    2.069 
#   11.172    5.690    0.000    0.000    0.000    0.000 
#    0.000    3.310    0.000    0.000    0.000    0.000 
#
# Total GULP energy -646624.647317 kJ/mol
# GULP energy per Si atom -5574.350408 kJ/mol
# Density = 1.868140 g / cm^3
# Si number density = 18.724021 Si / 1000 Ang^3
#
#
#
# Elastic Constant Matrix: (Units=GPa)
#
#
# Indices 1 2 3 4 5 6 
#
# 1 91.7298 45.0160 51.2270 -0.0009 0.0010 0.0002
# 2 45.0160 91.7269 51.2271 0.0004 -0.0008 0.0001
# 3 51.2270 51.2271 94.5893 0.0001 -0.0004 0.0002
# 4 -0.0009 0.0004 0.0001 46.3386 0.0022 0.0009
# 5 0.0010 -0.0008 -0.0004 0.0022 46.3368 0.0007
# 6 0.0002 0.0001 0.0002 0.0009 0.0007 23.3555
#
#
#
# Elastic Compliance Matrix: (Units=1/GPa)
#
#
# Indices 1 2 3 4 5 6 
#
# 1 0.016857 -0.004551 -0.006665 0.000000 0.000000 0.000000
# 2 -0.004551 0.016857 -0.006665 0.000000 0.000000 0.000000
# 3 -0.006665 -0.006665 0.017791 0.000000 0.000000 0.000000
# 4 0.000000 0.000000 0.000000 0.021580 -0.000001 -0.000001
# 5 0.000000 0.000000 0.000000 -0.000001 0.021581 -0.000001
# 6 0.000000 0.000000 0.000000 -0.000001 -0.000001 0.042816
#
#
# Mechanical properties :
#
#
# Convention : Reuss Voigt Hill
#
# Bulk Modulus (GPa) = 63.51399 63.66512 63.58955
# Shear Modulus (GPa) = 28.01250 31.91125 29.96187
#
# Velocity S-wave (km/s) = 3.87211 4.13279 4.00457
# Velocity P-wave (km/s) = 7.34750 7.53982 7.44428
#
# Compressibility (1/GPa) = 0.01574456
#
# Stress axis : x y z
#
# Youngs Moduli (GPa) = 59.32381 59.32091 56.20802
#
# Poissons Ratio (x) = 0.26994 0.37461
# Poissons Ratio (y) = 0.26996 0.37463
# Poissons Ratio (z) = 0.39537 0.39538
#
# Static dielectric constant tensor:
#      x y z
#    x 1.666780 0.000000 0.000000 
#    y 0.000000 1.666780 0.000000 
#    z 0.000000 0.000000 1.633970 
# 
# From -- ./inp_files/6968.got.cif
#   From: 2010.05.17/outbox.cif.g08.bks.cpg/sg192_4_cif.got.tgz:6968.got - 2010.05.20 12:28:01.
