data_PCOD9588331
_publ_section_title
;
Structure prediction by ZEFSAII (Michael W. Deem and Ramdas Pophale) SiO2 
 PCOD9588331
Probable space group: P 6/M C C
;
_chemical_formula_sum "Si O2"
_cell_formula_units_Z 144
_cell_length_a 21.233291
_cell_length_b 21.233291
_cell_length_c 19.496173
_cell_angle_alpha 90.000000
_cell_angle_beta 90.000000
_cell_angle_gamma 120.000000
_cell_volume 7612.277734
_symmetry_space_group_name_H-M "P 6/M C C"
_symmetry_group_IT_number 192
_symmetry_cell_setting 'hexagonal'
loop_
_space_group_symop_operation_xyz
x,y,z
x-y,x,z
-y,x-y,z
-x,-y,z
-x+y,-x,z
y,-x+y,z
x-y,-y,1/2-z
-x,-x+y,1/2-z
y,x,1/2-z
-y,-x,1/2-z
-x+y,y,1/2-z
x,x-y,1/2-z
-x,-y,-z
-x+y,-x,-z
y,-x+y,-z
x,y,-z
x-y,x,-z
-y,x-y,-z
-x+y,y,1/2+z
x,x-y,1/2+z
-y,-x,1/2+z
y,x,1/2+z
x-y,-y,1/2+z
-x,-x+y,1/2+z
loop_
_atom_site_type_symbol
_atom_site_label
_atom_site_fract_x
_atom_site_fract_y
_atom_site_fract_z
Si Si1 0.426235 0.325882 0.921650
Si Si2 0.296049 0.218778 0.274932
Si Si3 0.476746 0.209156 0.076306
Si Si4 0.442820 0.079322 0.727550
Si Si5 0.663849 0.720729 0.422689
Si Si6 0.670709 0.451426 0.208565
O O1 0.431252 0.252010 0.915063
O O2 0.465517 0.368699 0.852096
O O3 0.348347 0.323272 0.916886
O O4 0.452982 0.353092 0.000000
O O5 0.231756 0.231756 0.250000
O O6 0.289068 0.144534 0.250000
O O7 0.369989 0.285303 0.241758
O O8 0.300559 0.228482 0.357126
O O9 0.419896 0.122802 0.082427
O O10 0.541599 0.235500 0.130567
O O11 0.506505 0.224533 0.000000
O O12 0.502584 0.134602 0.778749
O O13 0.422025 0.000000 0.750000
O O14 0.687757 0.751090 0.500000
O O15 0.622224 0.377777 0.250000
O O16 0.746132 0.492264 0.250000
#
# Coordination Sequence:
#
# PCOD9588331 Si02
#       6
#    24  24  24  24  24  24
#     4  10  18  31  53  82 113 150 187 230 298 360
#     4  11  20  32  52  80 115 151 195 241 297 356
#     4  10  20  36  58  84 116 153 191 243 299 348
#     4  11  19  34  57  85 111 142 181 237 298 354
#     4  10  19  30  51  86 118 148 186 235 296 360
#     4  12  24  40  59  80 112 151 198 238 278 340
#
# _framework density 18.916809000000001
#
# number of rings (size 3 to 8) (size 9 to 14) (size 15 to 20)
#    0.000    1.333    6.667    1.667    0.000    0.333 
#    0.000    1.667    0.000    0.167    0.000    5.833 
#    0.000    0.000    0.000    1.500    0.000    0.333 
#
# Total GULP energy -802076.004661 kJ/mol
# GULP energy per Si atom -5569.972255 kJ/mol
# Density = 1.887375 g / cm^3
# Si number density = 18.916809 Si / 1000 Ang^3
#
#
#
# Elastic Constant Matrix: (Units=GPa)
#
#
# Indices 1 2 3 4 5 6 
#
# 1 47.5615 29.2365 29.4324 0.0000 0.0000 0.0000
# 2 29.2365 47.5615 29.4324 0.0000 0.0000 0.0000
# 3 29.4324 29.4324 197.4089 0.0000 0.0000 0.0000
# 4 0.0000 0.0000 0.0000 -5.1668 0.0000 0.0000
# 5 0.0000 0.0000 0.0000 0.0000 -5.1668 0.0000
# 6 0.0000 0.0000 0.0000 0.0000 0.0000 9.1625
#
#
#
# Elastic Compliance Matrix: (Units=1/GPa)
#
#
# Indices 1 2 3 4 5 6 
#
# 1 0.034636 -0.019934 -0.002192 0.000000 0.000000 0.000000
# 2 -0.019934 0.034636 -0.002192 0.000000 0.000000 0.000000
# 3 -0.002192 -0.002192 0.005719 0.000000 0.000000 0.000000
# 4 0.000000 0.000000 0.000000 -0.193545 0.000000 0.000000
# 5 0.000000 0.000000 0.000000 0.000000 -0.193545 0.000000
# 6 0.000000 0.000000 0.000000 0.000000 0.000000 0.109140
#
#
# Mechanical properties :
#
#
# Convention : Reuss Voigt Hill
#
# Bulk Modulus (GPa) = 37.94464 52.08164 45.01314
# Shear Modulus (GPa) = -34.35546 13.39450 -10.48048
#
# Velocity S-wave (km/s) = -4.26624 2.66385 -2.35634
# Velocity P-wave (km/s) = 2.04094 6.08713 4.05510
#
# Compressibility (1/GPa) = 0.02635418
#
# Stress axis : x y z
#
# Youngs Moduli (GPa) = 28.87196 28.87196 174.84926
#
# Poissons Ratio (x) = 0.57555 0.38324
# Poissons Ratio (y) = 0.57555 0.38324
# Poissons Ratio (z) = 0.06328 0.06328
#
# Static dielectric constant tensor:
#      x y z
#    x 2.068980 0.000000 0.000000 
#    y 0.000000 2.068980 0.000000 
#    z 0.000000 0.000000 1.718980 
# 
# From -- ./inp_files/5130.got.cif
#   From: 2010.05.17/outbox.cif.g08.bks.cpg/sg192_3_cif.got.tgz:5130.got - 2010.05.20 12:28:01.
