data_PCOD9588965
_publ_section_title
;
Structure prediction by ZEFSAII (Michael W. Deem and Ramdas Pophale) SiO2 
 PCOD9588965
Probable space group: P 63/M C M
;
_chemical_formula_sum "Si O2"
_cell_formula_units_Z 104
_cell_length_a 20.839056
_cell_length_b 20.839056
_cell_length_c 15.488993
_cell_angle_alpha 90.000000
_cell_angle_beta 90.000000
_cell_angle_gamma 120.000000
_cell_volume 5825.187362
_symmetry_space_group_name_H-M "P 63/M C M"
_symmetry_group_IT_number 193
_symmetry_cell_setting 'hexagonal'
loop_
_space_group_symop_operation_xyz
x,y,z
x-y,x,1/2+z
-y,x-y,z
-x,-y,1/2+z
-x+y,-x,z
y,-x+y,1/2+z
x-y,-y,1/2-z
-x,-x+y,1/2-z
y,x,1/2-z
-y,-x,-z
-x+y,y,-z
x,x-y,-z
-x,-y,-z
-x+y,-x,1/2-z
y,-x+y,-z
x,y,1/2-z
x-y,x,-z
-y,x-y,1/2-z
-x+y,y,1/2+z
x,x-y,1/2+z
-y,-x,1/2+z
y,x,z
x-y,-y,z
-x,-x+y,z
loop_
_atom_site_type_symbol
_atom_site_label
_atom_site_fract_x
_atom_site_fract_y
_atom_site_fract_z
Si Si1 0.914518 0.218085 0.957992
Si Si2 0.530156 0.346636 0.649182
Si Si3 0.554962 0.915974 0.501266
Si Si4 0.666668 0.333334 0.145208
Si Si5 0.558930 0.727620 0.652212
O O1 0.914738 0.282758 0.017698
O O2 0.000000 0.242503 0.943686
O O3 0.861275 0.138726 0.000000
O O4 0.874376 0.228207 0.873421
O O5 0.532787 0.367286 0.750000
O O6 0.496908 0.380706 0.583298
O O7 0.609620 0.359596 0.619871
O O8 0.477683 0.256782 0.643344
O O9 0.525367 0.863699 0.417437
O O10 0.579509 0.000000 0.480934
O O11 0.666667 0.333334 0.250000
O O12 0.547700 0.700508 0.750000
#
# Coordination Sequence:
#
# PCOD9588965 Si02
#       5
#    24  24  24   8  24
#     4   9  16  28  48  70 103 134 167 211 256 309
#     4  10  18  33  54  76 103 131 170 213 256 311
#     4   9  17  30  50  74 104 132 165 212 259 308
#     4   9  21  36  55  80 101 137 178 213 250 302
#     4   9  16  28  49  72 100 135 168 213 255 298
#
# _framework density 17.853504000000001
#
# number of rings (size 3 to 8) (size 9 to 14) (size 15 to 20)
#    1.385    1.385    2.308    0.692    0.000    2.308 
#    0.000    4.615    0.000    5.077    0.000   12.923 
#    0.000    0.000    0.000    0.000    0.000    0.000 
#
# Total GULP energy -579024.577411 kJ/mol
# GULP energy per Si atom -5567.544014 kJ/mol
# Density = 1.781287 g / cm^3
# Si number density = 17.853504 Si / 1000 Ang^3
#
#
#
# Elastic Constant Matrix: (Units=GPa)
#
#
# Indices 1 2 3 4 5 6 
#
# 1 58.7724 10.1609 11.5623 0.0001 0.0002 0.0001
# 2 10.1609 58.7709 11.5621 0.0004 0.0001 -0.0001
# 3 11.5623 11.5621 74.8570 0.0001 0.0000 0.0001
# 4 0.0001 0.0004 0.0001 -40.6416 0.0149 0.0000
# 5 0.0002 0.0001 0.0000 0.0149 -40.6580 0.0002
# 6 0.0001 -0.0001 0.0001 0.0000 0.0002 24.3050
#
#
#
# Elastic Compliance Matrix: (Units=1/GPa)
#
#
# Indices 1 2 3 4 5 6 
#
# 1 0.017935 -0.002636 -0.002363 0.000000 0.000000 0.000000
# 2 -0.002636 0.017936 -0.002363 0.000000 0.000000 0.000000
# 3 -0.002363 -0.002363 0.014089 0.000000 0.000000 0.000000
# 4 0.000000 0.000000 0.000000 -0.024605 -0.000009 0.000000
# 5 0.000000 0.000000 0.000000 -0.000009 -0.024595 0.000000
# 6 0.000000 0.000000 0.000000 0.000000 0.000000 0.041144
#
#
# Mechanical properties :
#
#
# Convention : Reuss Voigt Hill
#
# Bulk Modulus (GPa) = 28.38039 28.77454 28.57746
# Shear Modulus (GPa) = 73.12844 -0.79126 36.16859
#
# Velocity S-wave (km/s) = 6.40696 -0.66645 4.50583
# Velocity P-wave (km/s) = 8.40613 3.94459 6.56593
#
# Compressibility (1/GPa) = 0.03523560
#
# Stress axis : x y z
#
# Youngs Moduli (GPa) = 55.75564 55.75423 70.97828
#
# Poissons Ratio (x) = 0.14697 0.16773
# Poissons Ratio (y) = 0.14697 0.16773
# Poissons Ratio (z) = 0.13176 0.13176
#
# Static dielectric constant tensor:
#      x y z
#    x 1.634680 0.000000 0.000000 
#    y 0.000000 1.634680 0.000000 
#    z 0.000000 0.000000 1.613380 
# 
# From -- ./inp_files/3706.got.cif
#   From: 2010.05.17/outbox.cif.g08.bks.cpg/sg193_2_cif.got.tgz:3706.got - 2010.05.20 12:33:02.
