data_PCOD9588211
_publ_section_title
;
Structure prediction by ZEFSAII (Michael W. Deem and Ramdas Pophale) SiO2 
 PCOD9588211
Probable space group: P 6/M M M
;
_chemical_formula_sum "Si O2"
_cell_formula_units_Z 132
_cell_length_a 27.976621
_cell_length_b 27.976621
_cell_length_c 14.307601
_cell_angle_alpha 90.000000
_cell_angle_beta 90.000000
_cell_angle_gamma 120.000000
_cell_volume 9698.129322
_symmetry_space_group_name_H-M "P 6/M M M"
_symmetry_group_IT_number 191
_symmetry_cell_setting 'hexagonal'
loop_
_space_group_symop_operation_xyz
x,y,z
x-y,x,z
-y,x-y,z
-x,-y,z
-x+y,-x,z
y,-x+y,z
x-y,-y,-z
-x,-x+y,-z
y,x,-z
-y,-x,-z
-x+y,y,-z
x,x-y,-z
-x,-y,-z
-x+y,-x,-z
y,-x+y,-z
x,y,-z
x-y,x,-z
-y,x-y,-z
-x+y,y,z
x,x-y,z
-y,-x,z
y,x,z
x-y,-y,z
-x,-x+y,z
loop_
_atom_site_type_symbol
_atom_site_label
_atom_site_fract_x
_atom_site_fract_y
_atom_site_fract_z
Si Si1 0.822215 0.177786 0.113661
Si Si2 0.666971 0.938648 0.113232
Si Si3 0.445536 0.445536 0.613830
Si Si4 0.498233 0.618411 0.393505
Si Si5 0.062301 0.446914 0.887609
Si Si6 0.640730 0.468314 0.792513
Si Si7 0.242745 0.485489 0.111690
O O1 0.885377 0.215518 0.146521
O O2 0.789698 0.210303 0.136841
O O3 0.823901 0.176100 0.000000
O O4 0.606570 0.931081 0.132337
O O5 0.711833 0.000000 0.146661
O O6 0.670928 0.939399 0.000000
O O7 0.500000 0.500000 0.649831
O O8 0.448333 0.448333 0.500000
O O9 0.393737 0.452956 0.636727
O O10 0.507179 0.639028 0.500000
O O11 0.441835 0.558166 0.394172
O O12 0.488280 0.652608 0.314995
O O13 0.111343 0.498829 0.837634
O O14 0.000000 0.430016 0.859942
O O15 0.066656 0.454921 0.000000
O O16 0.596191 0.403809 0.795794
O O17 0.696009 0.485653 0.847939
O O18 0.244324 0.488648 0.000000
#
# Coordination Sequence:
#
# PCOD9588211 Si02
#       7
#    12  24  12  24  24  24  12
#     4   9  14  24  42  55  73 109 134 156 193 230
#     4   8  13  22  37  56  76 101 134 164 190 225
#     4   7  10  20  40  64  89 111 123 139 180 240
#     4   8  15  28  45  65  87 106 125 154 195 243
#     4   9  17  28  41  61  88 110 130 160 196 240
#     4  11  22  33  48  64  79 104 138 171 207 256
#     4  11  22  36  47  59  79 105 140 173 208 254
#
# _framework density 13.610873
#
# number of rings (size 3 to 8) (size 9 to 14) (size 15 to 20)
#    0.000    3.000    1.818    2.727    1.273    1.818 
#    0.545    1.364    0.000    0.000    0.000    0.000 
#    0.000    0.000    0.000    0.273    0.000    8.727 
#
# Total GULP energy -734812.027745 kJ/mol
# GULP energy per Si atom -5566.757786 kJ/mol
# Density = 1.357989 g / cm^3
# Si number density = 13.610873 Si / 1000 Ang^3
#
#
#
# Elastic Constant Matrix: (Units=GPa)
#
#
# Indices 1 2 3 4 5 6 
#
# 1 62.1626 31.7288 20.9395 0.0000 0.0000 0.0000
# 2 31.7288 62.1626 20.9395 0.0000 0.0000 0.0000
# 3 20.9395 20.9395 43.5668 0.0000 0.0000 0.0000
# 4 0.0000 0.0000 0.0000 12.2668 0.0000 0.0000
# 5 0.0000 0.0000 0.0000 0.0000 12.2668 0.0000
# 6 0.0000 0.0000 0.0000 0.0000 0.0000 15.2169
#
#
#
# Elastic Compliance Matrix: (Units=1/GPa)
#
#
# Indices 1 2 3 4 5 6 
#
# 1 0.023208 -0.009651 -0.006516 0.000000 0.000000 0.000000
# 2 -0.009651 0.023208 -0.006516 0.000000 0.000000 0.000000
# 3 -0.006516 -0.006516 0.029217 0.000000 0.000000 0.000000
# 4 0.000000 0.000000 0.000000 0.081521 0.000000 0.000000
# 5 0.000000 0.000000 0.000000 0.000000 0.081521 0.000000
# 6 0.000000 0.000000 0.000000 0.000000 0.000000 0.065717
#
#
# Mechanical properties :
#
#
# Convention : Reuss Voigt Hill
#
# Bulk Modulus (GPa) = 33.03922 35.01198 34.02560
# Shear Modulus (GPa) = 13.89490 14.23570 14.06530
#
# Velocity S-wave (km/s) = 3.19857 3.23756 3.21812
# Velocity P-wave (km/s) = 6.16181 6.30516 6.23390
#
# Compressibility (1/GPa) = 0.03026706
#
# Stress axis : x y z
#
# Youngs Moduli (GPa) = 43.08937 43.08937 34.22704
#
# Poissons Ratio (x) = 0.41584 0.22302
# Poissons Ratio (y) = 0.41584 0.22302
# Poissons Ratio (z) = 0.28076 0.28076
#
# Static dielectric constant tensor:
#      x y z
#    x 1.462330 0.000000 0.000000 
#    y 0.000000 1.462330 0.000000 
#    z 0.000000 0.000000 1.472020 
# 
# From -- ./inp_files/5204.got.cif
#   From: 2010.05.17/outbox.cif.g08.bks.cpg/sg191_3_cif.got.tgz:5204.got - 2010.05.20 12:20:32.
