data_PCOD9588800
_publ_section_title
;
Structure prediction by ZEFSAII (Michael W. Deem and Ramdas Pophale) SiO2 
 PCOD9588800
Probable space group: P 6/M C C
;
_chemical_formula_sum "Si O2"
_cell_formula_units_Z 102
_cell_length_a 25.849212
_cell_length_b 25.849212
_cell_length_c 8.973522
_cell_angle_alpha 90.000000
_cell_angle_beta 90.000000
_cell_angle_gamma 120.000000
_cell_volume 5192.639592
_symmetry_space_group_name_H-M "P 6/M C C"
_symmetry_group_IT_number 192
_symmetry_cell_setting 'hexagonal'
loop_
_space_group_symop_operation_xyz
x,y,z
x-y,x,z
-y,x-y,z
-x,-y,z
-x+y,-x,z
y,-x+y,z
x-y,-y,1/2-z
-x,-x+y,1/2-z
y,x,1/2-z
-y,-x,1/2-z
-x+y,y,1/2-z
x,x-y,1/2-z
-x,-y,-z
-x+y,-x,-z
y,-x+y,-z
x,y,-z
x-y,x,-z
-y,x-y,-z
-x+y,y,1/2+z
x,x-y,1/2+z
-y,-x,1/2+z
y,x,1/2+z
x-y,-y,1/2+z
-x,-x+y,1/2+z
loop_
_atom_site_type_symbol
_atom_site_label
_atom_site_fract_x
_atom_site_fract_y
_atom_site_fract_z
Si Si1 0.176241 0.243021 0.319467
Si Si2 0.000000 0.500000 0.750000
Si Si3 0.902698 0.535264 0.836047
Si Si4 0.766886 0.330611 0.670347
Si Si5 0.716337 0.065063 0.676782
O O1 0.203956 0.203956 0.250000
O O2 0.111652 0.223303 0.250000
O O3 0.175695 0.240728 0.500000
O O4 0.220556 0.310610 0.260113
O O5 0.045855 0.482536 0.826591
O O6 0.838067 0.477306 0.823929
O O7 0.905742 0.581651 0.713659
O O8 0.908084 0.562990 0.000000
O O9 0.733064 0.266937 0.750000
O O10 0.749598 0.374799 0.750000
O O11 0.748114 0.322523 0.500000
O O12 0.724151 0.062212 0.500000
O O13 0.677786 0.000000 0.750000
#
# Coordination Sequence:
#
# PCOD9588800 Si02
#       5
#    24   6  24  24  24
#     4  11  22  40  65  95 131 172 219 268 323 385
#     4  12  22  40  68  94 130 164 214 256 336 388
#     4  11  24  40  62  93 126 162 206 259 318 387
#     4  11  24  43  64  88 116 152 198 250 307 368
#     4  11  22  37  59  87 122 163 205 253 307 368
#
# _framework density 19.643187999999999
#
# number of rings (size 3 to 8) (size 9 to 14) (size 15 to 20)
#    0.000    0.941    2.353    6.941    0.000    3.765 
#    0.000    2.353    0.000    0.235    0.000    1.647 
#    0.000    0.000    0.000    0.000    0.000    0.000 
#
# Total GULP energy -569259.680466 kJ/mol
# GULP energy per Si atom -5580.977259 kJ/mol
# Density = 1.959848 g / cm^3
# Si number density = 19.643188 Si / 1000 Ang^3
#
#
#
# Elastic Constant Matrix: (Units=GPa)
#
#
# Indices 1 2 3 4 5 6 
#
# 1 86.6564 29.2382 49.8362 0.0000 0.0000 0.0000
# 2 29.2382 86.6564 49.8362 0.0000 0.0000 0.0000
# 3 49.8362 49.8362 188.5942 0.0000 0.0000 0.0000
# 4 0.0000 0.0000 0.0000 24.5210 0.0000 0.0000
# 5 0.0000 0.0000 0.0000 0.0000 24.5210 0.0000
# 6 0.0000 0.0000 0.0000 0.0000 0.0000 28.7091
#
#
#
# Elastic Compliance Matrix: (Units=1/GPa)
#
#
# Indices 1 2 3 4 5 6 
#
# 1 0.014291 -0.003125 -0.002951 0.000000 0.000000 0.000000
# 2 -0.003125 0.014291 -0.002951 0.000000 0.000000 0.000000
# 3 -0.002951 -0.002951 0.006862 0.000000 0.000000 0.000000
# 4 0.000000 0.000000 0.000000 0.040781 0.000000 0.000000
# 5 0.000000 0.000000 0.000000 0.000000 0.040781 0.000000
# 6 0.000000 0.000000 0.000000 0.000000 0.000000 0.034832
#
#
# Mechanical properties :
#
#
# Convention : Reuss Voigt Hill
#
# Bulk Modulus (GPa) = 57.49935 68.85868 63.17901
# Shear Modulus (GPa) = 28.45939 31.08329 29.77134
#
# Velocity S-wave (km/s) = 3.81046 3.98225 3.89730
# Velocity P-wave (km/s) = 6.97818 7.50168 7.24466
#
# Compressibility (1/GPa) = 0.01739150
#
# Stress axis : x y z
#
# Youngs Moduli (GPa) = 69.97344 69.97344 145.73378
#
# Poissons Ratio (x) = 0.21866 0.43001
# Poissons Ratio (y) = 0.21866 0.43001
# Poissons Ratio (z) = 0.20647 0.20647
#
# Static dielectric constant tensor:
#      x y z
#    x 1.726090 0.000000 0.000000 
#    y 0.000000 1.726090 0.000000 
#    z 0.000000 0.000000 1.692950 
# 
# From -- ./inp_files/882.got.cif
#   From: 2010.05.17/outbox.cif.g08.bks.cpg/sg192_1_cif.got.tgz:882.got - 2010.05.20 12:28:01.
