data_PCOD9588488
_publ_section_title
;
Structure prediction by ZEFSAII (Michael W. Deem and Ramdas Pophale) SiO2 
 PCOD9588488
Probable space group: P 6/M C C
;
_chemical_formula_sum "Si O2"
_cell_formula_units_Z 144
_cell_length_a 33.027277
_cell_length_b 33.027277
_cell_length_c 8.784061
_cell_angle_alpha 90.000000
_cell_angle_beta 90.000000
_cell_angle_gamma 120.000000
_cell_volume 8297.963353
_symmetry_space_group_name_H-M "P 6/M C C"
_symmetry_group_IT_number 192
_symmetry_cell_setting 'hexagonal'
loop_
_space_group_symop_operation_xyz
x,y,z
x-y,x,z
-y,x-y,z
-x,-y,z
-x+y,-x,z
y,-x+y,z
x-y,-y,1/2-z
-x,-x+y,1/2-z
y,x,1/2-z
-y,-x,1/2-z
-x+y,y,1/2-z
x,x-y,1/2-z
-x,-y,-z
-x+y,-x,-z
y,-x+y,-z
x,y,-z
x-y,x,-z
-y,x-y,-z
-x+y,y,1/2+z
x,x-y,1/2+z
-y,-x,1/2+z
y,x,1/2+z
x-y,-y,1/2+z
-x,-x+y,1/2+z
loop_
_atom_site_type_symbol
_atom_site_label
_atom_site_fract_x
_atom_site_fract_y
_atom_site_fract_z
Si Si1 0.232965 0.949524 0.818842
Si Si2 0.195559 0.716700 0.816768
Si Si3 0.382766 0.105113 0.818744
Si Si4 0.189952 0.050749 0.317294
Si Si5 0.438209 0.051229 0.817283
Si Si6 0.614181 0.140498 0.182385
O O1 0.245133 0.911021 0.762317
O O2 0.181496 0.939672 0.774384
O O3 0.269489 0.000000 0.750000
O O4 0.236418 0.952967 0.000000
O O5 0.244751 0.755250 0.750000
O O6 0.156162 0.730795 0.777625
O O7 0.176567 0.665627 0.745702
O O8 0.196885 0.713910 0.000000
O O9 0.401518 0.069207 0.783702
O O10 0.375760 0.103998 0.000000
O O11 0.182342 0.091171 0.250000
O O12 0.186733 0.049741 0.500000
O O13 0.154271 0.000000 0.250000
O O14 0.486745 0.089629 0.743030
O O15 0.418978 0.000000 0.750000
O O16 0.443482 0.051558 0.000000
O O17 0.575563 0.151125 0.250000
O O18 0.613836 0.140850 0.000000
#
# Coordination Sequence:
#
# PCOD9588488 Si02
#       6
#    24  24  24  24  24  24
#     4  10  20  32  49  73 104 142 184 224 264 307
#     4  10  21  38  58  82 109 140 177 218 265 319
#     4   9  19  33  50  73 106 144 183 224 264 307
#     4  10  21  37  56  79 105 136 172 214 261 313
#     4  10  20  34  51  76 108 145 187 229 270 315
#     4  11  22  38  59  82 108 140 176 219 268 321
#
# _framework density 17.353656999999998
#
# number of rings (size 3 to 8) (size 9 to 14) (size 15 to 20)
#    0.000    2.000    0.000    5.000    0.000    8.333 
#    0.000    5.000    0.000    0.500    0.000    3.500 
#    0.000    0.000    0.000    0.000    0.000    0.000 
#
# Total GULP energy -804295.747457 kJ/mol
# GULP energy per Si atom -5585.387135 kJ/mol
# Density = 1.731416 g / cm^3
# Si number density = 17.353657 Si / 1000 Ang^3
#
#
#
# Elastic Constant Matrix: (Units=GPa)
#
#
# Indices 1 2 3 4 5 6 
#
# 1 111.4750 94.8906 60.6465 0.0000 0.0000 0.0000
# 2 94.8906 111.4750 60.6465 0.0000 0.0000 0.0000
# 3 60.6465 60.6465 88.1296 0.0000 0.0000 0.0000
# 4 0.0000 0.0000 0.0000 27.3792 0.0000 0.0000
# 5 0.0000 0.0000 0.0000 0.0000 27.3792 0.0000
# 6 0.0000 0.0000 0.0000 0.0000 0.0000 8.2922
#
#
#
# Elastic Compliance Matrix: (Units=1/GPa)
#
#
# Indices 1 2 3 4 5 6 
#
# 1 0.034217 -0.026080 -0.005599 0.000000 0.000000 0.000000
# 2 -0.026080 0.034217 -0.005599 0.000000 0.000000 0.000000
# 3 -0.005599 -0.005599 0.019053 0.000000 0.000000 0.000000
# 4 0.000000 0.000000 0.000000 0.036524 0.000000 0.000000
# 5 0.000000 0.000000 0.000000 0.000000 0.036524 0.000000
# 6 0.000000 0.000000 0.000000 0.000000 0.000000 0.120596
#
#
# Mechanical properties :
#
#
# Convention : Reuss Voigt Hill
#
# Bulk Modulus (GPa) = 77.34230 82.60521 79.97375
# Shear Modulus (GPa) = 13.88888 18.93649 16.41268
#
# Velocity S-wave (km/s) = 2.83210 3.30693 3.07868
# Velocity P-wave (km/s) = 7.44039 7.89211 7.66958
#
# Compressibility (1/GPa) = 0.01292954
#
# Stress axis : x y z
#
# Youngs Moduli (GPa) = 29.22495 29.22495 52.48412
#
# Poissons Ratio (x) = 0.76220 0.29388
# Poissons Ratio (y) = 0.76220 0.29388
# Poissons Ratio (z) = 0.16364 0.16364
#
# Static dielectric constant tensor:
#      x y z
#    x 1.573360 0.000000 0.000000 
#    y 0.000000 1.573360 0.000000 
#    z 0.000000 0.000000 1.576840 
# 
# From -- ./inp_files/1136.got.cif
#   From: 2010.05.17/outbox.cif.g08.bks.cpg/sg192_1_cif.got.tgz:1136.got - 2010.05.20 12:28:01.
