data_PCOD9588210
_publ_section_title
;
Structure prediction by ZEFSAII (Michael W. Deem and Ramdas Pophale) SiO2 
 PCOD9588210
Probable space group: P 6/M M M
;
_chemical_formula_sum "Si O2"
_cell_formula_units_Z 96
_cell_length_a 21.885074
_cell_length_b 21.885074
_cell_length_c 15.052776
_cell_angle_alpha 90.000000
_cell_angle_beta 90.000000
_cell_angle_gamma 120.000000
_cell_volume 6243.717853
_symmetry_space_group_name_H-M "P 6/M M M"
_symmetry_group_IT_number 191
_symmetry_cell_setting 'hexagonal'
loop_
_space_group_symop_operation_xyz
x,y,z
x-y,x,z
-y,x-y,z
-x,-y,z
-x+y,-x,z
y,-x+y,z
x-y,-y,-z
-x,-x+y,-z
y,x,-z
-y,-x,-z
-x+y,y,-z
x,x-y,-z
-x,-y,-z
-x+y,-x,-z
y,-x+y,-z
x,y,-z
x-y,x,-z
-y,x-y,-z
-x+y,y,z
x,x-y,z
-y,-x,z
y,x,z
x-y,-y,z
-x,-x+y,z
loop_
_atom_site_type_symbol
_atom_site_label
_atom_site_fract_x
_atom_site_fract_y
_atom_site_fract_z
Si Si1 0.665384 0.190347 0.250668
Si Si2 0.292626 0.215111 0.892624
Si Si3 0.560574 0.919673 0.894673
Si Si4 0.534578 0.613905 0.397360
O O1 0.605601 0.211201 0.269570
O O2 0.740923 0.259078 0.238826
O O3 0.640879 0.140104 0.164555
O O4 0.663999 0.140353 0.330589
O O5 0.287716 0.143858 0.857909
O O6 0.234772 0.234772 0.859750
O O7 0.369068 0.283564 0.877816
O O8 0.285653 0.208782 0.000000
O O9 0.581393 0.000000 0.871879
O O10 0.545430 0.910151 0.000000
O O11 0.545861 0.637367 0.500000
O O12 0.460616 0.539385 0.394278
O O13 0.594338 0.594338 0.371362
#
# Coordination Sequence:
#
# PCOD9588210 Si02
#       4
#    24  24  24  24
#     4  11  22  33  45  63  90 121 147 172 210 267
#     4   8  13  22  37  56  77 101 130 165 205 247
#     4   9  18  32  49  66  81 103 143 194 237 264
#     4   8  15  30  51  70  85 105 139 182 220 249
#
# _framework density 15.375455000000001
#
# number of rings (size 3 to 8) (size 9 to 14) (size 15 to 20)
#    0.000    3.000    0.000    4.000    0.000    4.000 
#    0.000    1.250    0.000    3.250    0.000    1.750 
#    0.000    0.000    0.000    0.000    0.000    0.000 
#
# Total GULP energy -534664.459976 kJ/mol
# GULP energy per Si atom -5569.421458 kJ/mol
# Density = 1.534046 g / cm^3
# Si number density = 15.375455 Si / 1000 Ang^3
#
#
#
# Elastic Constant Matrix: (Units=GPa)
#
#
# Indices 1 2 3 4 5 6 
#
# 1 70.0851 46.9618 31.2959 0.0000 0.0000 0.0000
# 2 46.9618 70.0851 31.2959 0.0000 0.0000 0.0000
# 3 31.2959 31.2959 52.1144 0.0000 0.0000 0.0000
# 4 0.0000 0.0000 0.0000 13.2593 0.0000 0.0000
# 5 0.0000 0.0000 0.0000 0.0000 13.2593 0.0000
# 6 0.0000 0.0000 0.0000 0.0000 0.0000 11.5616
#
#
#
# Elastic Compliance Matrix: (Units=1/GPa)
#
#
# Indices 1 2 3 4 5 6 
#
# 1 0.027916 -0.015331 -0.007558 0.000000 0.000000 0.000000
# 2 -0.015331 0.027916 -0.007558 0.000000 0.000000 0.000000
# 3 -0.007558 -0.007558 0.028266 0.000000 0.000000 0.000000
# 4 0.000000 0.000000 0.000000 0.075419 0.000000 0.000000
# 5 0.000000 0.000000 0.000000 0.000000 0.075419 0.000000
# 6 0.000000 0.000000 0.000000 0.000000 0.000000 0.086493
#
#
# Mechanical properties :
#
#
# Convention : Reuss Voigt Hill
#
# Bulk Modulus (GPa) = 43.09372 45.71023 44.40197
# Shear Modulus (GPa) = 12.81869 13.13142 12.97505
#
# Velocity S-wave (km/s) = 2.89054 2.92559 2.90811
# Velocity P-wave (km/s) = 6.26328 6.41919 6.34171
#
# Compressibility (1/GPa) = 0.02320524
#
# Stress axis : x y z
#
# Youngs Moduli (GPa) = 35.82194 35.82194 35.37866
#
# Poissons Ratio (x) = 0.54918 0.26738
# Poissons Ratio (y) = 0.54918 0.26738
# Poissons Ratio (z) = 0.27073 0.27073
#
# Static dielectric constant tensor:
#      x y z
#    x 1.523890 0.000000 0.000000 
#    y 0.000000 1.523890 0.000000 
#    z 0.000000 0.000000 1.521010 
# 
# From -- ./inp_files/4161.got.cif
#   From: 2010.05.17/outbox.cif.g08.bks.cpg/sg191_3_cif.got.tgz:4161.got - 2010.05.20 12:20:32.
