data_PCOD9588238
_publ_section_title
;
Structure prediction by ZEFSAII (Michael W. Deem and Ramdas Pophale) SiO2 
 PCOD9588238
Probable space group: P 6/M M M
;
_chemical_formula_sum "Si O2"
_cell_formula_units_Z 144
_cell_length_a 33.260284
_cell_length_b 33.260284
_cell_length_c 7.531610
_cell_angle_alpha 90.000000
_cell_angle_beta 90.000000
_cell_angle_gamma 120.000000
_cell_volume 7215.565303
_symmetry_space_group_name_H-M "P 6/M M M"
_symmetry_group_IT_number 191
_symmetry_cell_setting 'hexagonal'
loop_
_space_group_symop_operation_xyz
x,y,z
x-y,x,z
-y,x-y,z
-x,-y,z
-x+y,-x,z
y,-x+y,z
x-y,-y,-z
-x,-x+y,-z
y,x,-z
-y,-x,-z
-x+y,y,-z
x,x-y,-z
-x,-y,-z
-x+y,-x,-z
y,-x+y,-z
x,y,-z
x-y,x,-z
-y,x-y,-z
-x+y,y,z
x,x-y,z
-y,-x,z
y,x,z
x-y,-y,z
-x,-x+y,z
loop_
_atom_site_type_symbol
_atom_site_label
_atom_site_fract_x
_atom_site_fract_y
_atom_site_fract_z
Si Si1 0.240309 0.666661 0.283190
Si Si2 0.807240 0.706136 0.788979
Si Si3 0.427591 0.478791 0.283735
Si Si4 0.848440 0.242959 0.711414
Si Si5 0.854911 0.337460 0.282280
Si Si6 0.949558 0.808090 0.709674
O O1 0.240515 0.666993 0.500000
O O2 0.244134 0.622067 0.227751
O O3 0.284911 0.715090 0.226600
O O4 0.191347 0.661661 0.227679
O O5 0.852208 0.704415 0.715885
O O6 0.763970 0.656479 0.741947
O O7 0.815719 0.755550 0.727730
O O8 0.810062 0.708330 0.000000
O O9 0.426181 0.477606 0.500000
O O10 0.472504 0.527497 0.233564
O O11 0.438399 0.438399 0.226906
O O12 0.381417 0.478224 0.223400
O O13 0.842624 0.242983 0.500000
O O14 0.802498 0.197503 0.783981
O O15 0.852599 0.290173 0.778049
O O16 0.855027 0.338058 0.500000
O O17 0.950844 0.817145 0.500000
O O18 0.904924 0.809848 0.784040
O O19 0.000000 0.843560 0.785373
#
# Coordination Sequence:
#
# PCOD9588238 Si02
#       6
#    24  24  24  24  24  24
#     4   9  15  21  29  43  66  96 129 164 204 254
#     4   9  17  29  45  64  86 114 148 184 221 260
#     4   8  13  21  32  45  63  89 121 159 203 246
#     4   9  16  26  40  58  82 111 141 173 211 257
#     4   9  15  22  33  49  70  99 132 163 201 257
#     4   9  17  30  49  72  97 125 157 191 225 262
#
# _framework density 19.956855999999998
#
# number of rings (size 3 to 8) (size 9 to 14) (size 15 to 20)
#    0.000    3.167    0.000    2.167    0.000    7.000 
#    0.000    0.833    0.000    3.167    0.000    1.167 
#    0.000    2.667    0.000    6.333    0.000   10.167 
#
# Total GULP energy -802514.503717 kJ/mol
# GULP energy per Si atom -5573.017387 kJ/mol
# Density = 1.991143 g / cm^3
# Si number density = 19.956856 Si / 1000 Ang^3
#
#
#
# Elastic Constant Matrix: (Units=GPa)
#
#
# Indices 1 2 3 4 5 6 
#
# 1 155.2176 107.3215 4.0566 0.0000 0.0000 0.0000
# 2 107.3215 155.2176 4.0566 0.0000 0.0000 0.0000
# 3 4.0566 4.0566 50.4296 0.0000 0.0000 0.0000
# 4 0.0000 0.0000 0.0000 -21.5533 0.0000 0.0000
# 5 0.0000 0.0000 0.0000 0.0000 -21.5533 0.0000
# 6 0.0000 0.0000 0.0000 0.0000 0.0000 23.9481
#
#
#
# Elastic Compliance Matrix: (Units=1/GPa)
#
#
# Indices 1 2 3 4 5 6 
#
# 1 0.012348 -0.008530 -0.000307 0.000000 0.000000 0.000000
# 2 -0.008530 0.012348 -0.000307 0.000000 0.000000 0.000000
# 3 -0.000307 -0.000307 0.019879 0.000000 0.000000 0.000000
# 4 0.000000 0.000000 0.000000 -0.046397 0.000000 0.000000
# 5 0.000000 0.000000 0.000000 0.000000 -0.046397 0.000000
# 6 0.000000 0.000000 0.000000 0.000000 0.000000 0.041757
#
#
# Mechanical properties :
#
#
# Convention : Reuss Voigt Hill
#
# Bulk Modulus (GPa) = 38.04121 65.74827 51.89474
# Shear Modulus (GPa) = 242.82490 12.53030 127.67760
#
# Velocity S-wave (km/s) = 11.04260 2.50845 8.00723
# Velocity P-wave (km/s) = 13.47919 6.43479 10.56161
#
# Compressibility (1/GPa) = 0.02628728
#
# Stress axis : x y z
#
# Youngs Moduli (GPa) = 80.98164 80.98164 50.30425
#
# Poissons Ratio (x) = 0.69078 0.01545
# Poissons Ratio (y) = 0.69078 0.01545
# Poissons Ratio (z) = 0.02487 0.02487
#
# Static dielectric constant tensor:
#      x y z
#    x 1.700850 0.000000 0.000000 
#    y 0.000000 1.700850 0.000000 
#    z 0.000000 0.000000 1.729070 
# 
# From -- ./inp_files/1981.got.cif
#   From: 2010.05.17/outbox.cif.g08.bks.cpg/sg191_1_cif.got.tgz:1981.got - 2010.05.20 12:20:32.
