data_PCOD9588567
_publ_section_title
;
Structure prediction by ZEFSAII (Michael W. Deem and Ramdas Pophale) SiO2 
 PCOD9588567
Probable space group: P 6/M C C
;
_chemical_formula_sum "Si O2"
_cell_formula_units_Z 84
_cell_length_a 21.373302
_cell_length_b 21.373302
_cell_length_c 11.062239
_cell_angle_alpha 90.000000
_cell_angle_beta 90.000000
_cell_angle_gamma 120.000000
_cell_volume 4376.399033
_symmetry_space_group_name_H-M "P 6/M C C"
_symmetry_group_IT_number 192
_symmetry_cell_setting 'hexagonal'
loop_
_space_group_symop_operation_xyz
x,y,z
x-y,x,z
-y,x-y,z
-x,-y,z
-x+y,-x,z
y,-x+y,z
x-y,-y,1/2-z
-x,-x+y,1/2-z
y,x,1/2-z
-y,-x,1/2-z
-x+y,y,1/2-z
x,x-y,1/2-z
-x,-y,-z
-x+y,-x,-z
y,-x+y,-z
x,y,-z
x-y,x,-z
-y,x-y,-z
-x+y,y,1/2+z
x,x-y,1/2+z
-y,-x,1/2+z
y,x,1/2+z
x-y,-y,1/2+z
-x,-x+y,1/2+z
loop_
_atom_site_type_symbol
_atom_site_label
_atom_site_fract_x
_atom_site_fract_y
_atom_site_fract_z
Si Si1 0.629186 0.770199 0.360932
Si Si2 0.640144 0.640144 0.250000
Si Si3 0.727182 0.467364 0.625566
Si Si4 0.592194 0.099427 0.130564
O O1 0.654860 0.827430 0.250000
O O2 0.653592 0.795505 0.500000
O O3 0.647773 0.709465 0.319475
O O4 0.542029 0.737954 0.365070
O O5 0.575381 0.615627 0.154261
O O6 0.713307 0.426614 0.750000
O O7 0.728922 0.431968 0.500000
O O8 0.664432 0.487685 0.622241
O O9 0.549237 0.098473 0.250000
O O10 0.554184 0.087788 0.000000
#
# Coordination Sequence:
#
# PCOD9588567 Si02
#       4
#    24  12  24  24
#     4  10  20  35  58  83 113 151 189 230 283 348
#     4  12  21  36  60  88 114 148 191 240 290 346
#     4   9  17  35  56  75 101 141 180 220 277 343
#     4  11  24  38  54  82 116 146 187 240 293 348
#
# _framework density 19.193863
#
# number of rings (size 3 to 8) (size 9 to 14) (size 15 to 20)
#    0.000    1.714    5.714    1.286    0.000    5.714 
#    0.000    0.000    0.000    0.571    0.000    0.000 
#    0.000    0.000    0.000    0.429    0.000    3.714 
#
# Total GULP energy -468564.880705 kJ/mol
# GULP energy per Si atom -5578.153342 kJ/mol
# Density = 1.915018 g / cm^3
# Si number density = 19.193863 Si / 1000 Ang^3
#
#
#
# Elastic Constant Matrix: (Units=GPa)
#
#
# Indices 1 2 3 4 5 6 
#
# 1 77.0843 33.3548 38.7063 0.0000 0.0000 0.0000
# 2 33.3548 77.0843 38.7063 0.0000 0.0000 0.0000
# 3 38.7063 38.7063 252.3547 0.0000 0.0000 0.0000
# 4 0.0000 0.0000 0.0000 3.6403 0.0000 0.0000
# 5 0.0000 0.0000 0.0000 0.0000 3.6403 0.0000
# 6 0.0000 0.0000 0.0000 0.0000 0.0000 21.8648
#
#
#
# Elastic Compliance Matrix: (Units=1/GPa)
#
#
# Indices 1 2 3 4 5 6 
#
# 1 0.016507 -0.006361 -0.001556 0.000000 0.000000 0.000000
# 2 -0.006361 0.016507 -0.001556 0.000000 0.000000 0.000000
# 3 -0.001556 -0.001556 0.004440 0.000000 0.000000 0.000000
# 4 0.000000 0.000000 0.000000 0.274700 0.000000 0.000000
# 5 0.000000 0.000000 0.000000 0.000000 0.274700 0.000000
# 6 0.000000 0.000000 0.000000 0.000000 0.000000 0.045736
#
#
# Mechanical properties :
#
#
# Convention : Reuss Voigt Hill
#
# Bulk Modulus (GPa) = 54.03479 69.78425 61.90952
# Shear Modulus (GPa) = 7.60219 25.54615 16.57417
#
# Velocity S-wave (km/s) = 1.99232 3.65218 2.94175
# Velocity P-wave (km/s) = 5.78841 7.36350 6.62294
#
# Compressibility (1/GPa) = 0.01850660
#
# Stress axis : x y z
#
# Youngs Moduli (GPa) = 60.58152 60.58152 225.22341
#
# Poissons Ratio (x) = 0.38537 0.35048
# Poissons Ratio (y) = 0.38537 0.35048
# Poissons Ratio (z) = 0.09427 0.09427
#
# Static dielectric constant tensor:
#      x y z
#    x 1.659810 0.000000 0.000000 
#    y 0.000000 1.659810 0.000000 
#    z 0.000000 0.000000 1.809040 
# 
# From -- ./inp_files/1567.got.cif
#   From: 2010.05.17/outbox.cif.g08.bks.cpg/sg192_1_cif.got.tgz:1567.got - 2010.05.20 12:28:01.
