data_PCOD9588595
_publ_section_title
;
Structure prediction by ZEFSAII (Michael W. Deem and Ramdas Pophale) SiO2 
 PCOD9588595
Probable space group: P 6/M C C
;
_chemical_formula_sum "Si O2"
_cell_formula_units_Z 104
_cell_length_a 19.948251
_cell_length_b 19.948251
_cell_length_c 17.127910
_cell_angle_alpha 90.000000
_cell_angle_beta 90.000000
_cell_angle_gamma 120.000000
_cell_volume 5902.617651
_symmetry_space_group_name_H-M "P 6/M C C"
_symmetry_group_IT_number 192
_symmetry_cell_setting 'hexagonal'
loop_
_space_group_symop_operation_xyz
x,y,z
x-y,x,z
-y,x-y,z
-x,-y,z
-x+y,-x,z
y,-x+y,z
x-y,-y,1/2-z
-x,-x+y,1/2-z
y,x,1/2-z
-y,-x,1/2-z
-x+y,y,1/2-z
x,x-y,1/2-z
-x,-y,-z
-x+y,-x,-z
y,-x+y,-z
x,y,-z
x-y,x,-z
-y,x-y,-z
-x+y,y,1/2+z
x,x-y,1/2+z
-y,-x,1/2+z
y,x,1/2+z
x-y,-y,1/2+z
-x,-x+y,1/2+z
loop_
_atom_site_type_symbol
_atom_site_label
_atom_site_fract_x
_atom_site_fract_y
_atom_site_fract_z
Si Si1 0.212829 0.717273 0.405542
Si Si2 0.714634 0.715406 0.406289
Si Si3 0.041608 0.587739 0.594821
Si Si4 0.834440 0.164473 0.657226
Si Si5 0.666668 0.333334 0.404739
O O1 0.214763 0.724847 0.500000
O O2 0.132089 0.639985 0.384812
O O3 0.208991 0.789447 0.370598
O O4 0.284281 0.706958 0.380430
O O5 0.716374 0.716604 0.500000
O O6 0.637313 0.635831 0.381036
O O7 0.710323 0.788101 0.374909
O O8 0.786599 0.707913 0.375924
O O9 0.038471 0.584267 0.500000
O O10 0.000000 0.500000 0.624224
O O11 0.836504 0.163497 0.750000
O O12 0.666667 0.333334 0.500000
#
# Coordination Sequence:
#
# PCOD9588595 Si02
#       5
#    24  24  24  24   8
#     4   9  18  32  50  76 105 140 191 235 276 325
#     4  10  20  36  60  84 109 142 187 233 274 326
#     4   8  15  27  48  77 102 131 177 234 280 311
#     4  11  22  37  56  82 116 148 179 221 282 341
#     4   9  18  30  52  77 100 141 196 245 277 315
#
# _framework density 17.619302000000001
#
# number of rings (size 3 to 8) (size 9 to 14) (size 15 to 20)
#    0.000    2.538    0.000    4.154    3.231    0.000 
#    0.000    1.154    0.000    1.846    0.000    3.231 
#    0.000    0.000    0.000    0.000    0.000    0.000 
#
# Total GULP energy -580195.747504 kJ/mol
# GULP energy per Si atom -5578.805264 kJ/mol
# Density = 1.757920 g / cm^3
# Si number density = 17.619302 Si / 1000 Ang^3
#
#
#
# Elastic Constant Matrix: (Units=GPa)
#
#
# Indices 1 2 3 4 5 6 
#
# 1 116.4672 90.6005 40.5246 0.0000 0.0000 0.0002
# 2 90.6005 116.4688 40.5246 -0.0001 0.0000 0.0000
# 3 40.5246 40.5246 64.9972 -0.0001 0.0000 0.0000
# 4 0.0000 -0.0001 -0.0001 2.5935 -0.0001 0.0000
# 5 0.0000 0.0000 0.0000 -0.0001 2.5946 -0.0001
# 6 0.0002 0.0000 0.0000 0.0000 -0.0001 12.9336
#
#
#
# Elastic Compliance Matrix: (Units=1/GPa)
#
#
# Indices 1 2 3 4 5 6 
#
# 1 0.022524 -0.016135 -0.003983 -0.000001 0.000000 0.000000
# 2 -0.016135 0.022523 -0.003983 0.000001 0.000001 0.000000
# 3 -0.003983 -0.003983 0.020352 0.000001 0.000000 0.000000
# 4 -0.000001 0.000001 0.000001 0.385577 0.000019 -0.000001
# 5 0.000000 0.000001 0.000000 0.000019 0.385414 0.000002
# 6 0.000000 0.000000 0.000000 -0.000001 0.000002 0.077318
#
#
# Mechanical properties :
#
#
# Convention : Reuss Voigt Hill
#
# Bulk Modulus (GPa) = 58.15115 71.24807 64.69961
# Shear Modulus (GPa) = 5.16720 12.04323 8.60522
#
# Velocity S-wave (km/s) = 1.71437 2.61727 2.21237
# Velocity P-wave (km/s) = 6.08232 7.04690 6.58230
#
# Compressibility (1/GPa) = 0.01719656
#
# Stress axis : x y z
#
# Youngs Moduli (GPa) = 44.39778 44.39856 49.13533
#
# Poissons Ratio (x) = 0.71638 0.19571
# Poissons Ratio (y) = 0.71636 0.19570
# Poissons Ratio (z) = 0.17684 0.17683
#
# Static dielectric constant tensor:
#      x y z
#    x 1.590280 0.000000 0.000000 
#    y 0.000000 1.590280 0.000000 
#    z 0.000000 0.000000 1.595630 
# 
# From -- ./inp_files/2860.got.cif
#   From: 2010.05.17/outbox.cif.g08.bks.cpg/sg192_2_cif.got.tgz:2860.got - 2010.05.20 12:28:01.
