data_PCOD9588835
_publ_section_title
;
Structure prediction by ZEFSAII (Michael W. Deem and Ramdas Pophale) SiO2 
 PCOD9588835
Probable space group: P 6/M C C
;
_chemical_formula_sum "Si O2"
_cell_formula_units_Z 74
_cell_length_a 17.658510
_cell_length_b 17.658510
_cell_length_c 13.744445
_cell_angle_alpha 90.000000
_cell_angle_beta 90.000000
_cell_angle_gamma 120.000000
_cell_volume 3711.640891
_symmetry_space_group_name_H-M "P 6/M C C"
_symmetry_group_IT_number 192
_symmetry_cell_setting 'hexagonal'
loop_
_space_group_symop_operation_xyz
x,y,z
x-y,x,z
-y,x-y,z
-x,-y,z
-x+y,-x,z
y,-x+y,z
x-y,-y,1/2-z
-x,-x+y,1/2-z
y,x,1/2-z
-y,-x,1/2-z
-x+y,y,1/2-z
x,x-y,1/2-z
-x,-y,-z
-x+y,-x,-z
y,-x+y,-z
x,y,-z
x-y,x,-z
-y,x-y,-z
-x+y,y,1/2+z
x,x-y,1/2+z
-y,-x,1/2+z
y,x,1/2+z
x-y,-y,1/2+z
-x,-x+y,1/2+z
loop_
_atom_site_type_symbol
_atom_site_label
_atom_site_fract_x
_atom_site_fract_y
_atom_site_fract_z
Si Si1 0.349607 0.497873 0.382759
Si Si2 0.500000 0.000000 0.250000
Si Si3 0.082684 0.771692 0.312914
Si Si4 0.030131 0.192233 0.000000
Si Si5 0.333334 0.666667 0.617103
O O1 0.362054 0.499093 0.500000
O O2 0.424535 0.491476 0.323316
O O3 0.263272 0.408803 0.351647
O O4 0.343488 0.583540 0.355197
O O5 0.141860 0.858141 0.250000
O O6 0.042013 0.792742 0.405294
O O7 0.000000 0.701833 0.250000
O O8 0.106332 0.169040 0.000000
O O9 0.333334 0.666668 0.500000
#
# Coordination Sequence:
#
# PCOD9588835 Si02
#       5
#    24   6  24  12   8
#     4  11  25  46  69 102 140 187 237 290 349 419
#     4  12  26  40  68 102 140 180 236 292 348 410
#     4  12  25  43  68 101 139 180 236 293 354 422
#     4  12  25  46  72 101 139 183 233 294 357 438
#     4   9  24  46  68 100 145 185 229 283 353 421
#
# _framework density 19.937273000000001
#
# number of rings (size 3 to 8) (size 9 to 14) (size 15 to 20)
#    0.000    0.649    6.486    0.649    4.541    0.000 
#    0.000    0.000    0.000    0.000    0.000    0.000 
#    0.000    0.000    0.000    0.000    0.000    0.000 
#
# Total GULP energy -413435.325168 kJ/mol
# GULP energy per Si atom -5586.963854 kJ/mol
# Density = 1.989190 g / cm^3
# Si number density = 19.937273 Si / 1000 Ang^3
#
#
#
# Elastic Constant Matrix: (Units=GPa)
#
#
# Indices 1 2 3 4 5 6 
#
# 1 140.5899 35.5892 51.2657 -0.0011 0.0003 0.0000
# 2 35.5892 140.5904 51.2658 -0.0006 -0.0009 0.0001
# 3 51.2657 51.2658 153.2099 0.0005 -0.0009 0.0001
# 4 -0.0011 -0.0006 0.0005 528.6052 0.0328 0.0006
# 5 0.0003 -0.0009 -0.0009 0.0328 528.5291 0.0002
# 6 0.0000 0.0001 0.0001 0.0006 0.0002 52.5005
#
#
#
# Elastic Compliance Matrix: (Units=1/GPa)
#
#
# Indices 1 2 3 4 5 6 
#
# 1 0.008286 -0.001238 -0.002359 0.000000 0.000000 0.000000
# 2 -0.001238 0.008286 -0.002359 0.000000 0.000000 0.000000
# 3 -0.002359 -0.002359 0.008105 0.000000 0.000000 0.000000
# 4 0.000000 0.000000 0.000000 0.001892 0.000000 0.000000
# 5 0.000000 0.000000 0.000000 0.000000 0.001892 0.000000
# 6 0.000000 0.000000 0.000000 0.000000 0.000000 0.019047
#
#
# Mechanical properties :
#
#
# Convention : Reuss Voigt Hill
#
# Bulk Modulus (GPa) = 78.31795 78.95905 78.63850
# Shear Modulus (GPa) = 78.52441 241.67825 160.10133
#
# Velocity S-wave (km/s) = 6.28261 11.02191 8.97089
# Velocity P-wave (km/s) = 9.59144 14.20093 12.11739
#
# Compressibility (1/GPa) = 0.01276846
#
# Stress axis : x y z
#
# Youngs Moduli (GPa) = 120.68253 120.68298 123.37474
#
# Poissons Ratio (x) = 0.14935 0.29099
# Poissons Ratio (y) = 0.14935 0.29099
# Poissons Ratio (z) = 0.28464 0.28464
#
# Static dielectric constant tensor:
#      x y z
#    x 1.680650 0.000000 0.000000 
#    y 0.000000 1.680650 0.000000 
#    z 0.000000 0.000000 1.651450 
# 
# From -- ./inp_files/2515.got.cif
#   From: 2010.05.17/outbox.cif.g08.bks.cpg/sg192_2_cif.got.tgz:2515.got - 2010.05.20 12:28:01.
