data_PCOD9588855
_publ_section_title
;
Structure prediction by ZEFSAII (Michael W. Deem and Ramdas Pophale) SiO2 
 PCOD9588855
Probable space group: P 6/M C C
;
_chemical_formula_sum "Si O2"
_cell_formula_units_Z 168
_cell_length_a 26.834310
_cell_length_b 26.834310
_cell_length_c 18.789559
_cell_angle_alpha 90.000000
_cell_angle_beta 90.000000
_cell_angle_gamma 120.000000
_cell_volume 11717.314425
_symmetry_space_group_name_H-M "P 6/M C C"
_symmetry_group_IT_number 192
_symmetry_cell_setting 'hexagonal'
loop_
_space_group_symop_operation_xyz
x,y,z
x-y,x,z
-y,x-y,z
-x,-y,z
-x+y,-x,z
y,-x+y,z
x-y,-y,1/2-z
-x,-x+y,1/2-z
y,x,1/2-z
-y,-x,1/2-z
-x+y,y,1/2-z
x,x-y,1/2-z
-x,-y,-z
-x+y,-x,-z
y,-x+y,-z
x,y,-z
x-y,x,-z
-y,x-y,-z
-x+y,y,1/2+z
x,x-y,1/2+z
-y,-x,1/2+z
y,x,1/2+z
x-y,-y,1/2+z
-x,-x+y,1/2+z
loop_
_atom_site_type_symbol
_atom_site_label
_atom_site_fract_x
_atom_site_fract_y
_atom_site_fract_z
Si Si1 0.264097 0.331063 0.665470
Si Si2 0.234882 0.765118 0.582147
Si Si3 0.835107 0.670213 0.918284
Si Si4 0.333486 0.467677 0.335029
Si Si5 0.134191 0.467677 0.664970
Si Si6 0.466844 0.533156 0.336609
Si Si7 0.735903 0.668937 0.834530
O O1 0.206030 0.311979 0.622337
O O2 0.306417 0.399270 0.652883
O O3 0.251904 0.324488 0.750000
O O4 0.296005 0.296005 0.646313
O O5 0.244155 0.755844 0.500000
O O6 0.199894 0.800105 0.583048
O O7 0.193253 0.706154 0.623215
O O8 0.293846 0.806747 0.623215
O O9 0.793970 0.688021 0.877663
O O10 0.844379 0.688759 0.000000
O O11 0.330202 0.475650 0.250000
O O12 0.399987 0.500842 0.357459
O O13 0.100855 0.500842 0.642540
O O14 0.092853 0.399270 0.652883
O O15 0.500000 0.500000 0.361334
O O16 0.467846 0.532155 0.250000
#
# Coordination Sequence:
#
# PCOD9588855 Si02
#       7
#    24  24  24  24  24  24  24
#     4   9  16  26  41  60  82 109 139 169 201 240
#     4   9  17  29  43  58  78 105 137 171 205 242
#     4   9  17  27  39  57  80 106 136 168 200 234
#     4   9  16  27  44  64  84 107 137 171 208 252
#     4   9  16  27  44  64  84 107 137 171 208 252
#     4   9  16  26  43  68  93 112 133 168 215 265
#     4   9  16  26  41  60  82 109 139 169 201 240
#
# _framework density 14.337756000000001
#
# number of rings (size 3 to 8) (size 9 to 14) (size 15 to 20)
#    0.000    3.000    0.000    1.714    0.000    7.429 
#    0.000    0.714    0.000    4.000    0.000    2.000 
#    0.000    0.000    0.000    0.429    0.000    8.286 
#
# Total GULP energy -935641.805500 kJ/mol
# GULP energy per Si atom -5569.296461 kJ/mol
# Density = 1.430512 g / cm^3
# Si number density = 14.337756 Si / 1000 Ang^3
#
#
#
# Elastic Constant Matrix: (Units=GPa)
#
#
# Indices 1 2 3 4 5 6 
#
# 1 108.4302 66.8816 55.8090 0.0000 0.0000 0.0000
# 2 66.8816 108.4302 55.8090 0.0000 0.0000 0.0000
# 3 55.8090 55.8090 53.3659 0.0000 0.0000 0.0000
# 4 0.0000 0.0000 0.0000 9.3372 0.0000 0.0000
# 5 0.0000 0.0000 0.0000 0.0000 9.3372 0.0000
# 6 0.0000 0.0000 0.0000 0.0000 0.0000 20.7743
#
#
#
# Elastic Compliance Matrix: (Units=1/GPa)
#
#
# Indices 1 2 3 4 5 6 
#
# 1 0.020569 -0.003499 -0.017851 0.000000 0.000000 0.000000
# 2 -0.003499 0.020569 -0.017851 0.000000 0.000000 0.000000
# 3 -0.017851 -0.017851 0.056075 0.000000 0.000000 0.000000
# 4 0.000000 0.000000 0.000000 0.107098 0.000000 0.000000
# 5 0.000000 0.000000 0.000000 0.000000 0.107098 0.000000
# 6 0.000000 0.000000 0.000000 0.000000 0.000000 0.048136
#
#
# Mechanical properties :
#
#
# Convention : Reuss Voigt Hill
#
# Bulk Modulus (GPa) = 53.16288 69.69173 61.42731
# Shear Modulus (GPa) = 11.25572 14.00484 12.63028
#
# Velocity S-wave (km/s) = 2.80490 3.12874 2.97123
# Velocity P-wave (km/s) = 6.90285 7.85905 7.39642
#
# Compressibility (1/GPa) = 0.01881012
#
# Stress axis : x y z
#
# Youngs Moduli (GPa) = 48.61710 48.61710 17.83325
#
# Poissons Ratio (x) = 0.17013 0.31834
# Poissons Ratio (y) = 0.17013 0.31834
# Poissons Ratio (z) = 0.86786 0.86786
#
# Static dielectric constant tensor:
#      x y z
#    x 1.456450 0.000000 0.000000 
#    y 0.000000 1.456450 0.000000 
#    z 0.000000 0.000000 1.475420 
# 
# From -- ./inp_files/5364.got.cif
#   From: 2010.05.17/outbox.cif.g08.bks.cpg/sg192_3_cif.got.tgz:5364.got - 2010.05.20 12:28:01.
