data_PCOD9588947
_publ_section_title
;
Structure prediction by ZEFSAII (Michael W. Deem and Ramdas Pophale) SiO2 
 PCOD9588947
Probable space group: P 63/M C M
;
_chemical_formula_sum "Si O2"
_cell_formula_units_Z 192
_cell_length_a 23.900248
_cell_length_b 23.900248
_cell_length_c 21.484551
_cell_angle_alpha 90.000000
_cell_angle_beta 90.000000
_cell_angle_gamma 120.000000
_cell_volume 10628.249192
_symmetry_space_group_name_H-M "P 63/M C M"
_symmetry_group_IT_number 193
_symmetry_cell_setting 'hexagonal'
loop_
_space_group_symop_operation_xyz
x,y,z
x-y,x,1/2+z
-y,x-y,z
-x,-y,1/2+z
-x+y,-x,z
y,-x+y,1/2+z
x-y,-y,1/2-z
-x,-x+y,1/2-z
y,x,1/2-z
-y,-x,-z
-x+y,y,-z
x,x-y,-z
-x,-y,-z
-x+y,-x,1/2-z
y,-x+y,-z
x,y,1/2-z
x-y,x,-z
-y,x-y,1/2-z
-x+y,y,1/2+z
x,x-y,1/2+z
-y,-x,1/2+z
y,x,z
x-y,-y,z
-x,-x+y,z
loop_
_atom_site_type_symbol
_atom_site_label
_atom_site_fract_x
_atom_site_fract_y
_atom_site_fract_z
Si Si1 0.758603 0.287670 0.434844
Si Si2 0.536128 0.931369 0.038834
Si Si3 0.722581 0.924058 0.480065
Si Si4 0.189492 0.484153 0.818819
Si Si5 0.403281 0.108365 0.441254
Si Si6 0.923220 0.564824 0.820295
Si Si7 0.578404 0.155006 0.622118
Si Si8 0.073861 0.714596 0.369706
O O1 0.721903 0.278098 0.500000
O O2 0.728977 0.237205 0.378064
O O3 0.819126 0.278502 0.454163
O O4 0.782980 0.357566 0.404022
O O5 0.467735 0.876821 0.062486
O O6 0.589664 0.927769 0.081702
O O7 0.542595 0.000000 0.050466
O O8 0.561850 0.928530 0.971045
O O9 0.742440 0.871220 0.500000
O O10 0.663665 0.911649 0.526058
O O11 0.689495 0.912979 0.411311
O O12 0.776615 0.000000 0.483760
O O13 0.218978 0.492579 0.750000
O O14 0.161762 0.533000 0.826994
O O15 0.133031 0.409189 0.826836
O O16 0.396234 0.096217 0.368100
O O17 0.901929 0.564896 0.750000
O O18 0.889063 0.492836 0.847157
O O19 0.000000 0.596522 0.821025
O O20 0.000000 0.681547 0.343712
#
# Coordination Sequence:
#
# PCOD9588947 Si02
#       8
#    24  24  24  24  24  24  24  24
#     4  11  23  38  56  73  96 131 179 229 276 325
#     4   9  16  30  55  82 102 120 148 196 260 321
#     4  10  18  31  53  81 112 145 181 222 263 311
#     4  11  23  38  56  76 101 136 177 222 277 334
#     4  10  19  33  54  76 102 130 165 208 268 322
#     4  10  20  32  47  72 105 134 159 193 249 323
#     4  10  22  38  54  72  96 127 167 219 263 321
#     4   8  16  31  53  82 110 133 164 210 266 329
#
# _framework density 18.065064
#
# number of rings (size 3 to 8) (size 9 to 14) (size 15 to 20)
#    0.000    2.125    0.000    6.000    0.000    7.750 
#    0.750    3.125    2.750    0.875    0.000    0.000 
#    0.000    0.000    0.000    0.000    0.000    0.000 
#
# Total GULP energy -1070055.164162 kJ/mol
# GULP energy per Si atom -5573.203980 kJ/mol
# Density = 1.802395 g / cm^3
# Si number density = 18.065064 Si / 1000 Ang^3
#
#
#
# Elastic Constant Matrix: (Units=GPa)
#
#
# Indices 1 2 3 4 5 6 
#
# 1 53.0651 25.0252 16.8497 0.0000 0.0000 0.0000
# 2 25.0252 53.0651 16.8497 0.0000 0.0000 0.0000
# 3 16.8497 16.8497 93.0788 0.0000 0.0000 0.0000
# 4 0.0000 0.0000 0.0000 15.7268 0.0000 0.0000
# 5 0.0000 0.0000 0.0000 0.0000 15.7268 0.0000
# 6 0.0000 0.0000 0.0000 0.0000 0.0000 14.0199
#
#
#
# Elastic Compliance Matrix: (Units=1/GPa)
#
#
# Indices 1 2 3 4 5 6 
#
# 1 0.024777 -0.010886 -0.002515 0.000000 0.000000 0.000000
# 2 -0.010886 0.024777 -0.002515 0.000000 0.000000 0.000000
# 3 -0.002515 -0.002515 0.011654 0.000000 0.000000 0.000000
# 4 0.000000 0.000000 0.000000 0.063586 0.000000 0.000000
# 5 0.000000 0.000000 0.000000 0.000000 0.063586 0.000000
# 6 0.000000 0.000000 0.000000 0.000000 0.000000 0.071327
#
#
# Mechanical properties :
#
#
# Convention : Reuss Voigt Hill
#
# Bulk Modulus (GPa) = 34.03992 35.18425 34.61208
# Shear Modulus (GPa) = 16.59309 18.46033 17.52671
#
# Velocity S-wave (km/s) = 3.03399 3.20015 3.11818
# Velocity P-wave (km/s) = 5.58188 5.75963 5.67145
#
# Compressibility (1/GPa) = 0.02937727
#
# Stress axis : x y z
#
# Youngs Moduli (GPa) = 40.35972 40.35972 85.80732
#
# Poissons Ratio (x) = 0.43937 0.21577
# Poissons Ratio (y) = 0.43937 0.21577
# Poissons Ratio (z) = 0.10149 0.10149
#
# Static dielectric constant tensor:
#      x y z
#    x 1.694340 0.000000 0.000000 
#    y 0.000000 1.694340 0.000000 
#    z 0.000000 0.000000 1.667160 
# 
# From -- ./inp_files/6927.got.cif
#   From: 2010.05.17/outbox.cif.g08.bks.cpg/sg193_4_cif.got.tgz:6927.got - 2010.05.20 12:33:02.
