data_PCOD9588027
_publ_section_title
;
Structure prediction by ZEFSAII (Michael W. Deem and Ramdas Pophale) SiO2 
 PCOD9588027
Probable space group: P 6/M M M
;
_chemical_formula_sum "Si O2"
_cell_formula_units_Z 156
_cell_length_a 22.113016
_cell_length_b 22.113016
_cell_length_c 22.542511
_cell_angle_alpha 90.000000
_cell_angle_beta 90.000000
_cell_angle_gamma 120.000000
_cell_volume 9546.163805
_symmetry_space_group_name_H-M "P 6/M M M"
_symmetry_group_IT_number 191
_symmetry_cell_setting 'hexagonal'
loop_
_space_group_symop_operation_xyz
x,y,z
x-y,x,z
-y,x-y,z
-x,-y,z
-x+y,-x,z
y,-x+y,z
x-y,-y,-z
-x,-x+y,-z
y,x,-z
-y,-x,-z
-x+y,y,-z
x,x-y,-z
-x,-y,-z
-x+y,-x,-z
y,-x+y,-z
x,y,-z
x-y,x,-z
-y,x-y,-z
-x+y,y,z
x,x-y,z
-y,-x,z
y,x,z
x-y,-y,z
-x,-x+y,z
loop_
_atom_site_type_symbol
_atom_site_label
_atom_site_fract_x
_atom_site_fract_y
_atom_site_fract_z
Si Si1 0.565725 0.647495 0.162860
Si Si2 0.705018 0.153806 0.614306
Si Si3 0.531819 0.919053 0.500000
Si Si4 0.474262 0.665700 0.262632
Si Si5 0.077459 0.292580 0.808677
Si Si6 0.472494 0.805681 0.070712
Si Si7 0.215052 0.294153 0.665624
O O1 0.588915 0.588915 0.165399
O O2 0.519850 0.647114 0.218584
O O3 0.636994 0.721911 0.164554
O O4 0.521671 0.645203 0.105666
O O5 0.771762 0.228239 0.597883
O O6 0.655939 0.118850 0.558613
O O7 0.668371 0.167357 0.670407
O O8 0.735690 0.105430 0.637454
O O9 0.458469 0.916937 0.500000
O O10 0.591769 0.000000 0.500000
O O11 0.484785 0.742393 0.249435
O O12 0.394011 0.605990 0.256806
O O13 0.140532 0.281064 0.827050
O O14 0.081276 0.302134 0.737129
O O15 0.000000 0.230264 0.822754
O O16 0.392598 0.785195 0.082335
O O17 0.484623 0.742312 0.089882
O O18 0.483711 0.814719 0.000000
O O19 0.135808 0.271615 0.649656
O O20 0.240777 0.240777 0.648244
#
# Coordination Sequence:
#
# PCOD9588027 Si02
#       7
#    24  24  12  24  24  24  24
#     4  11  22  34  51  75 103 134 167 205 250 299
#     4  10  20  35  54  72  94 126 165 208 249 294
#     4  11  23  36  50  70  98 129 159 195 246 306
#     4  11  22  36  54  75 100 128 163 208 256 304
#     4   9  16  28  47  71  98 127 161 199 240 287
#     4  10  21  37  56  75  98 131 171 212 253 301
#     4   9  16  28  48  72  97 126 160 199 242 287
#
# _framework density 16.341642
#
# number of rings (size 3 to 8) (size 9 to 14) (size 15 to 20)
#    0.000    1.923    1.538    3.308    0.000    2.769 
#    0.000    2.308    0.000    2.462    0.000    2.154 
#    0.000    0.000    0.000    0.000    0.000   16.000 
#
# Total GULP energy -870484.907797 kJ/mol
# GULP energy per Si atom -5580.031460 kJ/mol
# Density = 1.630445 g / cm^3
# Si number density = 16.341642 Si / 1000 Ang^3
#
#
#
# Elastic Constant Matrix: (Units=GPa)
#
#
# Indices 1 2 3 4 5 6 
#
# 1 92.1459 47.9733 37.7021 0.0000 0.0000 0.0000
# 2 47.9733 92.1459 37.7021 0.0000 0.0000 0.0000
# 3 37.7021 37.7021 57.3769 0.0000 0.0000 0.0000
# 4 0.0000 0.0000 0.0000 11.7744 0.0000 0.0000
# 5 0.0000 0.0000 0.0000 0.0000 11.7744 0.0000
# 6 0.0000 0.0000 0.0000 0.0000 0.0000 22.0863
#
#
#
# Elastic Compliance Matrix: (Units=1/GPa)
#
#
# Indices 1 2 3 4 5 6 
#
# 1 0.016840 -0.005799 -0.007255 0.000000 0.000000 0.000000
# 2 -0.005799 0.016840 -0.007255 0.000000 0.000000 0.000000
# 3 -0.007255 -0.007255 0.026963 0.000000 0.000000 0.000000
# 4 0.000000 0.000000 0.000000 0.084930 0.000000 0.000000
# 5 0.000000 0.000000 0.000000 0.000000 0.084930 0.000000
# 6 0.000000 0.000000 0.000000 0.000000 0.000000 0.045277
#
#
# Mechanical properties :
#
#
# Convention : Reuss Voigt Hill
#
# Bulk Modulus (GPa) = 49.93736 54.26932 52.10334
# Shear Modulus (GPa) = 15.47640 17.01308 16.24474
#
# Velocity S-wave (km/s) = 3.08076 3.23009 3.15631
# Velocity P-wave (km/s) = 6.57871 6.86969 6.72577
#
# Compressibility (1/GPa) = 0.02002509
#
# Stress axis : x y z
#
# Youngs Moduli (GPa) = 59.38334 59.38334 37.08780
#
# Poissons Ratio (x) = 0.34435 0.26907
# Poissons Ratio (y) = 0.34435 0.26907
# Poissons Ratio (z) = 0.43083 0.43083
#
# Static dielectric constant tensor:
#      x y z
#    x 1.543160 0.000000 0.000000 
#    y 0.000000 1.543160 0.000000 
#    z 0.000000 0.000000 1.537650 
# 
# From -- ./inp_files/7738.got.cif
#   From: 2010.05.17/outbox.cif.g08.bks.cpg/sg191_4_cif.got.tgz:7738.got - 2010.05.20 12:20:32.
