data_PCOD9588077
_publ_section_title
;
Structure prediction by ZEFSAII (Michael W. Deem and Ramdas Pophale) SiO2 
 PCOD9588077
Probable space group: P 6/M M M
;
_chemical_formula_sum "Si O2"
_cell_formula_units_Z 72
_cell_length_a 22.697960
_cell_length_b 22.697960
_cell_length_c 7.667729
_cell_angle_alpha 90.000000
_cell_angle_beta 90.000000
_cell_angle_gamma 120.000000
_cell_volume 3421.141519
_symmetry_space_group_name_H-M "P 6/M M M"
_symmetry_group_IT_number 191
_symmetry_cell_setting 'hexagonal'
loop_
_space_group_symop_operation_xyz
x,y,z
x-y,x,z
-y,x-y,z
-x,-y,z
-x+y,-x,z
y,-x+y,z
x-y,-y,-z
-x,-x+y,-z
y,x,-z
-y,-x,-z
-x+y,y,-z
x,x-y,-z
-x,-y,-z
-x+y,-x,-z
y,-x+y,-z
x,y,-z
x-y,x,-z
-y,x-y,-z
-x+y,y,z
x,x-y,z
-y,-x,z
y,x,z
x-y,-y,z
-x,-x+y,z
loop_
_atom_site_type_symbol
_atom_site_label
_atom_site_fract_x
_atom_site_fract_y
_atom_site_fract_z
Si Si1 0.199312 0.666595 0.290102
Si Si2 0.922274 0.077727 0.289350
Si Si3 0.311639 0.922896 0.209387
Si Si4 0.842873 0.157128 0.208218
O O1 0.204455 0.667540 0.500000
O O2 0.205701 0.602851 0.225934
O O3 0.261480 0.738521 0.225126
O O4 0.127120 0.659326 0.246697
O O5 0.924089 0.075912 0.500000
O O6 0.882931 0.117070 0.239893
O O7 0.000000 0.117562 0.226558
O O8 0.234009 0.885267 0.277800
O O9 0.356156 0.000000 0.275959
O O10 0.308280 0.927356 0.000000
O O11 0.837257 0.162744 0.000000
#
# Coordination Sequence:
#
# PCOD9588077 Si02
#       4
#    24  12  24  12
#     4  10  21  38  60  85 114 148 187 230 276 327
#     4  10  21  36  54  78 110 148 190 238 292 347
#     4  10  21  37  58  84 114 148 186 231 280 330
#     4  10  20  37  59  81 110 148 192 236 283 337
#
# _framework density 21.045608000000001
#
# number of rings (size 3 to 8) (size 9 to 14) (size 15 to 20)
#    0.000    2.000    1.667    1.500    0.000    7.333 
#    0.000    3.333    0.000    3.000    0.000    0.000 
#    0.000    0.000    0.000    0.000    0.000    0.000 
#
# Total GULP energy -402313.971350 kJ/mol
# GULP energy per Si atom -5587.694047 kJ/mol
# Density = 2.099771 g / cm^3
# Si number density = 21.045608 Si / 1000 Ang^3
#
#
#
# Elastic Constant Matrix: (Units=GPa)
#
#
# Indices 1 2 3 4 5 6 
#
# 1 164.4457 83.4033 3.8289 0.0000 0.0000 0.0000
# 2 83.4033 164.4457 3.8289 0.0000 0.0000 0.0000
# 3 3.8289 3.8289 37.5107 0.0000 0.0000 0.0000
# 4 0.0000 0.0000 0.0000 28.4127 0.0000 0.0000
# 5 0.0000 0.0000 0.0000 0.0000 28.4127 0.0000
# 6 0.0000 0.0000 0.0000 0.0000 0.0000 40.5212
#
#
#
# Elastic Compliance Matrix: (Units=1/GPa)
#
#
# Indices 1 2 3 4 5 6 
#
# 1 0.008193 -0.004146 -0.000413 0.000000 0.000000 0.000000
# 2 -0.004146 0.008193 -0.000413 0.000000 0.000000 0.000000
# 3 -0.000413 -0.000413 0.026743 0.000000 0.000000 0.000000
# 4 0.000000 0.000000 0.000000 0.035196 0.000000 0.000000
# 5 0.000000 0.000000 0.000000 0.000000 0.035196 0.000000
# 6 0.000000 0.000000 0.000000 0.000000 0.000000 0.024678
#
#
# Mechanical properties :
#
#
# Convention : Reuss Voigt Hill
#
# Bulk Modulus (GPa) = 30.13338 60.94714 45.54026
# Shear Modulus (GPa) = 31.40589 37.82540 34.61564
#
# Velocity S-wave (km/s) = 3.86719 4.24406 4.06000
# Velocity P-wave (km/s) = 5.85572 7.28276 6.60787
#
# Compressibility (1/GPa) = 0.03318579
#
# Stress axis : x y z
#
# Youngs Moduli (GPa) = 122.05027 122.05027 37.39240
#
# Poissons Ratio (x) = 0.50600 0.01545
# Poissons Ratio (y) = 0.50600 0.01545
# Poissons Ratio (z) = 0.05042 0.05042
#
# Static dielectric constant tensor:
#      x y z
#    x 1.728140 0.000000 0.000000 
#    y 0.000000 1.728140 0.000000 
#    z 0.000000 0.000000 1.790060 
# 
# From -- ./inp_files/2305.got.cif
#   From: 2010.05.17/outbox.cif.g08.bks.cpg/sg191_2_cif.got.tgz:2305.got - 2010.05.20 12:20:32.
