data_PCOD9588646
_publ_section_title
;
Structure prediction by ZEFSAII (Michael W. Deem and Ramdas Pophale) SiO2 
 PCOD9588646
Probable space group: P 6/M C C
;
_chemical_formula_sum "Si O2"
_cell_formula_units_Z 66
_cell_length_a 14.410224
_cell_length_b 14.410224
_cell_length_c 19.011626
_cell_angle_alpha 90.000000
_cell_angle_beta 90.000000
_cell_angle_gamma 120.000000
_cell_volume 3418.939040
_symmetry_space_group_name_H-M "P 6/M C C"
_symmetry_group_IT_number 192
_symmetry_cell_setting 'hexagonal'
loop_
_space_group_symop_operation_xyz
x,y,z
x-y,x,z
-y,x-y,z
-x,-y,z
-x+y,-x,z
y,-x+y,z
x-y,-y,1/2-z
-x,-x+y,1/2-z
y,x,1/2-z
-y,-x,1/2-z
-x+y,y,1/2-z
x,x-y,1/2-z
-x,-y,-z
-x+y,-x,-z
y,-x+y,-z
x,y,-z
x-y,x,-z
-y,x-y,-z
-x+y,y,1/2+z
x,x-y,1/2+z
-y,-x,1/2+z
y,x,1/2+z
x-y,-y,1/2+z
-x,-x+y,1/2+z
loop_
_atom_site_type_symbol
_atom_site_label
_atom_site_fract_x
_atom_site_fract_y
_atom_site_fract_z
Si Si1 0.000000 0.500000 0.750000
Si Si2 0.536268 0.223517 0.000000
Si Si3 0.979088 0.203381 0.585117
Si Si4 0.379650 0.943175 0.616079
O O1 0.070898 0.473202 0.697226
O O2 0.650782 0.226678 0.000000
O O3 0.470285 0.160913 0.068723
O O4 0.091006 0.212086 0.607144
O O5 0.977491 0.206350 0.500000
O O6 0.981431 0.309488 0.611958
O O7 0.500000 0.000000 0.585197
#
# Coordination Sequence:
#
# PCOD9588646 Si02
#       4
#     6  12  24  24
#     4   8  24  38  60  88 118 178 204 256 312 406
#     4  10  23  34  62  92 119 151 206 273 330 379
#     4  10  21  35  61  93 128 164 205 261 319 376
#     4  10  21  39  60  88 121 161 216 252 328 382
#
# _framework density 19.304234000000001
#
# number of rings (size 3 to 8) (size 9 to 14) (size 15 to 20)
#    1.455    0.727    1.818    0.909    5.091    1.455 
#    0.000    7.273    0.000    0.000    0.000    2.545 
#    0.000    0.000    0.000    0.000    0.000    0.000 
#
# Total GULP energy -367487.779260 kJ/mol
# GULP energy per Si atom -5567.996655 kJ/mol
# Density = 1.926030 g / cm^3
# Si number density = 19.304234 Si / 1000 Ang^3
#
#
#
# Elastic Constant Matrix: (Units=GPa)
#
#
# Indices 1 2 3 4 5 6 
#
# 1 88.6490 20.9801 10.7784 0.0000 0.0000 0.0000
# 2 20.9801 88.6490 10.7784 0.0000 0.0000 0.0000
# 3 10.7784 10.7784 89.9923 0.0000 0.0000 0.0000
# 4 0.0000 0.0000 0.0000 -1.1977 0.0000 0.0000
# 5 0.0000 0.0000 0.0000 0.0000 -1.1977 0.0000
# 6 0.0000 0.0000 0.0000 0.0000 0.0000 33.8344
#
#
#
# Elastic Compliance Matrix: (Units=1/GPa)
#
#
# Indices 1 2 3 4 5 6 
#
# 1 0.012060 -0.002718 -0.001119 0.000000 0.000000 0.000000
# 2 -0.002718 0.012060 -0.001119 0.000000 0.000000 0.000000
# 3 -0.001119 -0.001119 0.011380 0.000000 0.000000 0.000000
# 4 0.000000 0.000000 0.000000 -0.834916 0.000000 0.000000
# 5 0.000000 0.000000 0.000000 0.000000 -0.834916 0.000000
# 6 0.000000 0.000000 0.000000 0.000000 0.000000 0.029556
#
#
# Mechanical properties :
#
#
# Convention : Reuss Voigt Hill
#
# Bulk Modulus (GPa) = 39.08080 39.15154 39.11617
# Shear Modulus (GPa) = -3.15192 21.27136 9.05972
#
# Velocity S-wave (km/s) = -1.27918 3.32309 2.16871
# Velocity P-wave (km/s) = 4.25522 5.92024 5.15539
#
# Compressibility (1/GPa) = 0.02558801
#
# Stress axis : x y z
#
# Youngs Moduli (GPa) = 82.92041 82.92041 87.87291
#
# Poissons Ratio (x) = 0.22538 0.09832
# Poissons Ratio (y) = 0.22538 0.09832
# Poissons Ratio (z) = 0.09278 0.09278
#
# Static dielectric constant tensor:
#      x y z
#    x 1.695650 0.000000 0.000000 
#    y 0.000000 1.695650 0.000000 
#    z 0.000000 0.000000 1.661250 
# 
# From -- ./inp_files/4581.got.cif
#   From: 2010.05.17/outbox.cif.g08.bks.cpg/sg192_3_cif.got.tgz:4581.got - 2010.05.20 12:28:01.
