data_PCOD9588254
_publ_section_title
;
Structure prediction by ZEFSAII (Michael W. Deem and Ramdas Pophale) SiO2 
 PCOD9588254
Probable space group: P 6/M M M
;
_chemical_formula_sum "Si O2"
_cell_formula_units_Z 108
_cell_length_a 18.000000
_cell_length_b 18.000000
_cell_length_c 24.000000
_cell_angle_alpha 90.000000
_cell_angle_beta 90.000000
_cell_angle_gamma 120.000000
_cell_volume 6734.213540
_symmetry_space_group_name_H-M "P 6/M M M"
_symmetry_group_IT_number 191
_symmetry_cell_setting 'hexagonal'
loop_
_space_group_symop_operation_xyz
x,y,z
x-y,x,z
-y,x-y,z
-x,-y,z
-x+y,-x,z
y,-x+y,z
x-y,-y,-z
-x,-x+y,-z
y,x,-z
-y,-x,-z
-x+y,y,-z
x,x-y,-z
-x,-y,-z
-x+y,-x,-z
y,-x+y,-z
x,y,-z
x-y,x,-z
-y,x-y,-z
-x+y,y,z
x,x-y,z
-y,-x,z
y,x,z
x-y,-y,z
-x,-x+y,z
loop_
_atom_site_type_symbol
_atom_site_label
_atom_site_fract_x
_atom_site_fract_y
_atom_site_fract_z
Si Si1 0.368108 0.099921 0.772653
Si Si2 0.491366 0.158363 0.333095
Si Si3 0.497339 0.166638 0.000000
Si Si4 0.533679 0.897276 0.881310
Si Si5 0.268742 0.902202 0.564501
O O1 0.334598 0.167299 0.767919
O O2 0.427314 0.114047 0.718734
O O3 0.427508 0.123910 0.827808
O O4 0.296846 0.000000 0.776215
O O5 0.574429 0.148858 0.328431
O O6 0.515807 0.257904 0.332202
O O7 0.440498 0.119024 0.390625
O O8 0.450134 0.132839 0.941081
O O9 0.570152 0.140304 0.000000
O O10 0.536283 0.268142 0.000000
O O11 0.431967 0.863933 0.874963
O O12 0.580934 0.000000 0.883293
O O13 0.289884 0.893812 0.500000
O O14 0.169351 0.830650 0.573155
O O15 0.292213 0.000000 0.572483
#
# Coordination Sequence:
#
# PCOD9588254 Si02
#       5
#    24  24  12  24  24
#     4  10  20  33  49  69  92 118 149 186 228 272
#     4  10  20  33  49  70  96 125 155 187 223 263
#     4  10  18  27  39  57  84 117 151 183 215 254
#     4   9  17  29  45  64  86 114 148 185 224 265
#     4   9  18  32  49  69  93 122 156 193 233 275
#
# _framework density 16.037507000000002
#
# number of rings (size 3 to 8) (size 9 to 14) (size 15 to 20)
#    0.000    2.444    0.000    2.667    0.000    4.444 
#    0.000    1.111    0.000    8.889    0.000    1.556 
#    0.000    5.333    0.000    0.222    0.000   23.111 
#
# Total GULP energy -601677.355481 kJ/mol
# GULP energy per Si atom -5571.086625 kJ/mol
# Density = 1.600101 g / cm^3
# Si number density = 16.037507 Si / 1000 Ang^3
#
#
#
# Elastic Constant Matrix: (Units=GPa)
#
#
# Indices 1 2 3 4 5 6 
#
# 1 70.9110 54.7693 42.9032 0.0000 0.0000 0.0000
# 2 54.7693 70.9110 42.9032 0.0000 0.0000 0.0000
# 3 42.9032 42.9032 112.1883 0.0000 0.0000 0.0000
# 4 0.0000 0.0000 0.0000 19.9765 0.0000 0.0000
# 5 0.0000 0.0000 0.0000 0.0000 19.9765 0.0000
# 6 0.0000 0.0000 0.0000 0.0000 0.0000 8.0708
#
#
#
# Elastic Compliance Matrix: (Units=1/GPa)
#
#
# Indices 1 2 3 4 5 6 
#
# 1 0.036360 -0.025592 -0.004118 0.000000 0.000000 0.000000
# 2 -0.025592 0.036360 -0.004118 0.000000 0.000000 0.000000
# 3 -0.004118 -0.004118 0.012063 0.000000 0.000000 0.000000
# 4 0.000000 0.000000 0.000000 0.050059 0.000000 0.000000
# 5 0.000000 0.000000 0.000000 0.000000 0.050059 0.000000
# 6 0.000000 0.000000 0.000000 0.000000 0.000000 0.123903
#
#
# Mechanical properties :
#
#
# Convention : Reuss Voigt Hill
#
# Bulk Modulus (GPa) = 58.38519 59.46243 58.92381
# Shear Modulus (GPa) = 13.08325 17.16708 15.12516
#
# Velocity S-wave (km/s) = 2.85930 3.27530 3.07434
# Velocity P-wave (km/s) = 6.88370 7.17363 7.03016
#
# Compressibility (1/GPa) = 0.01712763
#
# Stress axis : x y z
#
# Youngs Moduli (GPa) = 27.50286 27.50286 82.89678
#
# Poissons Ratio (x) = 0.70384 0.34137
# Poissons Ratio (y) = 0.70384 0.34137
# Poissons Ratio (z) = 0.11326 0.11326
#
# Static dielectric constant tensor:
#      x y z
#    x 1.525770 0.000000 0.000000 
#    y 0.000000 1.525770 0.000000 
#    z 0.000000 0.000000 1.556510 
# 
# From -- ./inp_files/7295.got.cif
#   From: 2010.05.17/outbox.ucp.g08.bks.cvg/sg191_4_cif.got.tgz:7295.got - 2010.06.11 15:22:43.
