data_PCOD9588821
_publ_section_title
;
Structure prediction by ZEFSAII (Michael W. Deem and Ramdas Pophale) SiO2 
 PCOD9588821
Probable space group: P 6/M C C
;
_chemical_formula_sum "Si O2"
_cell_formula_units_Z 120
_cell_length_a 14.626511
_cell_length_b 14.626511
_cell_length_c 29.209817
_cell_angle_alpha 90.000000
_cell_angle_beta 90.000000
_cell_angle_gamma 120.000000
_cell_volume 5411.790202
_symmetry_space_group_name_H-M "P 6/M C C"
_symmetry_group_IT_number 192
_symmetry_cell_setting 'hexagonal'
loop_
_space_group_symop_operation_xyz
x,y,z
x-y,x,z
-y,x-y,z
-x,-y,z
-x+y,-x,z
y,-x+y,z
x-y,-y,1/2-z
-x,-x+y,1/2-z
y,x,1/2-z
-y,-x,1/2-z
-x+y,y,1/2-z
x,x-y,1/2-z
-x,-y,-z
-x+y,-x,-z
y,-x+y,-z
x,y,-z
x-y,x,-z
-y,x-y,-z
-x+y,y,1/2+z
x,x-y,1/2+z
-y,-x,1/2+z
y,x,1/2+z
x-y,-y,1/2+z
-x,-x+y,1/2+z
loop_
_atom_site_type_symbol
_atom_site_label
_atom_site_fract_x
_atom_site_fract_y
_atom_site_fract_z
Si Si1 0.463249 0.586842 0.144794
Si Si2 0.914906 0.143878 0.196282
Si Si3 0.201011 0.222467 0.444327
Si Si4 0.466601 0.218583 0.197618
Si Si5 0.624302 0.086161 0.949082
O O1 0.500000 0.500000 0.145208
O O2 0.350511 0.542352 0.168663
O O3 0.540926 0.686135 0.175069
O O4 0.469800 0.627001 0.093022
O O5 0.893876 0.106125 0.250000
O O6 0.880833 0.231093 0.195029
O O7 0.029976 0.191643 0.175133
O O8 0.215253 0.124139 0.428986
O O9 0.195935 0.215765 0.500000
O O10 0.302198 0.338494 0.435012
O O11 0.499914 0.249957 0.250000
O O12 0.500000 0.000000 0.952667
O O13 0.659371 0.133693 0.000000
#
# Coordination Sequence:
#
# PCOD9588821 Si02
#       5
#    24  24  24  24  24
#     4  11  24  42  65  91 122 163 209 263 327 393
#     4   9  17  31  54  85 121 160 200 243 296 364
#     4   9  17  32  60  98 138 177 216 264 327 401
#     4  11  23  39  61  91 123 157 205 261 318 383
#     4   9  20  39  62  90 127 172 222 274 326 387
#
# _framework density 22.173808999999999
#
# number of rings (size 3 to 8) (size 9 to 14) (size 15 to 20)
#    0.000    2.200    0.000    2.600    0.000    8.000 
#    0.000    3.000    0.000    0.800    0.000    8.400 
#    0.000    0.000    0.000    0.000    0.000    0.600 
#
# Total GULP energy -669314.955286 kJ/mol
# GULP energy per Si atom -5577.624627 kJ/mol
# Density = 2.212334 g / cm^3
# Si number density = 22.173809 Si / 1000 Ang^3
#
#
#
# Elastic Constant Matrix: (Units=GPa)
#
#
# Indices 1 2 3 4 5 6 
#
# 1 91.6577 53.1991 36.9395 0.0000 0.0000 0.0000
# 2 53.1991 91.6577 36.9395 0.0000 0.0000 0.0000
# 3 36.9395 36.9395 134.0873 0.0000 0.0000 0.0000
# 4 0.0000 0.0000 0.0000 21.3112 0.0000 0.0000
# 5 0.0000 0.0000 0.0000 0.0000 21.3112 0.0000
# 6 0.0000 0.0000 0.0000 0.0000 0.0000 19.2293
#
#
#
# Elastic Compliance Matrix: (Units=1/GPa)
#
#
# Indices 1 2 3 4 5 6 
#
# 1 0.017017 -0.008985 -0.002213 0.000000 0.000000 0.000000
# 2 -0.008985 0.017017 -0.002213 0.000000 0.000000 0.000000
# 3 -0.002213 -0.002213 0.008677 0.000000 0.000000 0.000000
# 4 0.000000 0.000000 0.000000 0.046924 0.000000 0.000000
# 5 0.000000 0.000000 0.000000 0.000000 0.046924 0.000000
# 6 0.000000 0.000000 0.000000 0.000000 0.000000 0.052004
#
#
# Mechanical properties :
#
#
# Convention : Reuss Voigt Hill
#
# Bulk Modulus (GPa) = 62.93281 63.50653 63.21967
# Shear Modulus (GPa) = 22.65725 25.05863 23.85794
#
# Velocity S-wave (km/s) = 3.20003 3.36534 3.28373
# Velocity P-wave (km/s) = 6.48821 6.61840 6.55363
#
# Compressibility (1/GPa) = 0.01588996
#
# Stress axis : x y z
#
# Youngs Moduli (GPa) = 58.76498 58.76498 115.24762
#
# Poissons Ratio (x) = 0.52801 0.25501
# Poissons Ratio (y) = 0.52801 0.25501
# Poissons Ratio (z) = 0.13003 0.13003
#
# Static dielectric constant tensor:
#      x y z
#    x 1.861100 0.000000 0.000000 
#    y 0.000000 1.861100 0.000000 
#    z 0.000000 0.000000 1.958150 
# 
# From -- ./inp_files/6926.got.cif
#   From: 2010.05.17/outbox.cif.g08.bks.cpg/sg192_4_cif.got.tgz:6926.got - 2010.05.20 12:28:01.
