data_PCOD9588546
_publ_section_title
;
Structure prediction by ZEFSAII (Michael W. Deem and Ramdas Pophale) SiO2 
 PCOD9588546
Probable space group: P 6/M C C
;
_chemical_formula_sum "Si O2"
_cell_formula_units_Z 144
_cell_length_a 31.938912
_cell_length_b 31.938912
_cell_length_c 8.701407
_cell_angle_alpha 90.000000
_cell_angle_beta 90.000000
_cell_angle_gamma 120.000000
_cell_volume 7687.061403
_symmetry_space_group_name_H-M "P 6/M C C"
_symmetry_group_IT_number 192
_symmetry_cell_setting 'hexagonal'
loop_
_space_group_symop_operation_xyz
x,y,z
x-y,x,z
-y,x-y,z
-x,-y,z
-x+y,-x,z
y,-x+y,z
x-y,-y,1/2-z
-x,-x+y,1/2-z
y,x,1/2-z
-y,-x,1/2-z
-x+y,y,1/2-z
x,x-y,1/2-z
-x,-y,-z
-x+y,-x,-z
y,-x+y,-z
x,y,-z
x-y,x,-z
-y,x-y,-z
-x+y,y,1/2+z
x,x-y,1/2+z
-y,-x,1/2+z
y,x,1/2+z
x-y,-y,1/2+z
-x,-x+y,1/2+z
loop_
_atom_site_type_symbol
_atom_site_label
_atom_site_fract_x
_atom_site_fract_y
_atom_site_fract_z
Si Si1 0.330885 0.479996 0.684777
Si Si2 0.243064 0.295566 0.684315
Si Si3 0.666731 0.426305 0.815829
Si Si4 0.479079 0.051269 0.316283
Si Si5 0.052301 0.197014 0.816645
Si Si6 0.614019 0.760782 0.683737
O O1 0.327728 0.482163 0.500000
O O2 0.340180 0.529900 0.757529
O O3 0.375703 0.471879 0.722429
O O4 0.281638 0.436415 0.750771
O O5 0.281047 0.281047 0.750000
O O6 0.247493 0.300613 0.500000
O O7 0.189914 0.250162 0.721620
O O8 0.248259 0.343391 0.759127
O O9 0.623485 0.376516 0.750000
O O10 0.716959 0.433918 0.750000
O O11 0.666953 0.424889 0.000000
O O12 0.529879 0.059758 0.250000
O O13 0.480251 0.047634 0.500000
O O14 0.438411 0.000000 0.250000
O O15 0.095703 0.191405 0.750000
O O16 0.000000 0.158922 0.750000
O O17 0.051322 0.192888 0.000000
O O18 0.623101 0.811551 0.750000
O O19 0.612633 0.761616 0.500000
#
# Coordination Sequence:
#
# PCOD9588546 Si02
#       6
#    24  24  24  24  24  24
#     4  11  24  42  62  88 120 157 199 244 293 350
#     4  10  21  38  60  87 118 153 194 242 293 348
#     4  12  25  43  66  93 123 156 194 240 293 351
#     4  10  21  37  61  88 118 152 191 238 288 342
#     4  10  20  34  55  82 113 148 189 236 288 342
#     4  12  25  41  61  85 117 158 199 243 293 350
#
# _framework density 18.732776999999999
#
# number of rings (size 3 to 8) (size 9 to 14) (size 15 to 20)
#    0.000    1.167    0.000    7.167    0.000    8.000 
#    0.000    1.667    0.000    0.167    0.000    1.167 
#    0.000    0.000    0.000    0.000    0.000    0.000 
#
# Total GULP energy -805675.321233 kJ/mol
# GULP energy per Si atom -5594.967509 kJ/mol
# Density = 1.869014 g / cm^3
# Si number density = 18.732777 Si / 1000 Ang^3
#
#
#
# Elastic Constant Matrix: (Units=GPa)
#
#
# Indices 1 2 3 4 5 6 
#
# 1 81.5192 23.0085 39.7068 0.0000 0.0000 0.0000
# 2 23.0085 81.5192 39.7068 0.0000 0.0000 0.0000
# 3 39.7068 39.7068 109.1275 0.0000 0.0000 0.0000
# 4 0.0000 0.0000 0.0000 25.4107 0.0000 0.0000
# 5 0.0000 0.0000 0.0000 0.0000 25.4107 0.0000
# 6 0.0000 0.0000 0.0000 0.0000 0.0000 29.2554
#
#
#
# Elastic Compliance Matrix: (Units=1/GPa)
#
#
# Indices 1 2 3 4 5 6 
#
# 1 0.015156 -0.001935 -0.004811 0.000000 0.000000 0.000000
# 2 -0.001935 0.015156 -0.004811 0.000000 0.000000 0.000000
# 3 -0.004811 -0.004811 0.012665 0.000000 0.000000 0.000000
# 4 0.000000 0.000000 0.000000 0.039353 0.000000 0.000000
# 5 0.000000 0.000000 0.000000 0.000000 0.039353 0.000000
# 6 0.000000 0.000000 0.000000 0.000000 0.000000 0.034182
#
#
# Mechanical properties :
#
#
# Convention : Reuss Voigt Hill
#
# Bulk Modulus (GPa) = 50.34039 53.00111 51.67075
# Shear Modulus (GPa) = 26.93965 27.33161 27.13563
#
# Velocity S-wave (km/s) = 3.79635 3.82386 3.81013
# Velocity P-wave (km/s) = 6.79320 6.91741 6.85559
#
# Compressibility (1/GPa) = 0.01986476
#
# Stress axis : x y z
#
# Youngs Moduli (GPa) = 65.97893 65.97893 78.96081
#
# Poissons Ratio (x) = 0.12764 0.37987
# Poissons Ratio (y) = 0.12764 0.37987
# Poissons Ratio (z) = 0.31741 0.31741
#
# Static dielectric constant tensor:
#      x y z
#    x 1.625030 0.000000 0.000000 
#    y 0.000000 1.625030 0.000000 
#    z 0.000000 0.000000 1.623580 
# 
# From -- ./inp_files/1200.got.cif
#   From: 2010.05.17/outbox.cif.g08.bks.cpg/sg192_1_cif.got.tgz:1200.got - 2010.05.20 12:28:01.
