data_PCOD9588904
_publ_section_title
;
Structure prediction by ZEFSAII (Michael W. Deem and Ramdas Pophale) SiO2 
 PCOD9588904
Probable space group: P 63/M C M
;
_chemical_formula_sum "Si O2"
_cell_formula_units_Z 144
_cell_length_a 23.045124
_cell_length_b 23.045124
_cell_length_c 18.792559
_cell_angle_alpha 90.000000
_cell_angle_beta 90.000000
_cell_angle_gamma 120.000000
_cell_volume 8643.201795
_symmetry_space_group_name_H-M "P 63/M C M"
_symmetry_group_IT_number 193
_symmetry_cell_setting 'hexagonal'
loop_
_space_group_symop_operation_xyz
x,y,z
x-y,x,1/2+z
-y,x-y,z
-x,-y,1/2+z
-x+y,-x,z
y,-x+y,1/2+z
x-y,-y,1/2-z
-x,-x+y,1/2-z
y,x,1/2-z
-y,-x,-z
-x+y,y,-z
x,x-y,-z
-x,-y,-z
-x+y,-x,1/2-z
y,-x+y,-z
x,y,1/2-z
x-y,x,-z
-y,x-y,1/2-z
-x+y,y,1/2+z
x,x-y,1/2+z
-y,-x,1/2+z
y,x,z
x-y,-y,z
-x,-x+y,z
loop_
_atom_site_type_symbol
_atom_site_label
_atom_site_fract_x
_atom_site_fract_y
_atom_site_fract_z
Si Si1 0.715415 0.579136 0.412959
Si Si2 0.278192 0.128358 0.077544
Si Si3 0.258774 0.334414 0.331484
Si Si4 0.000000 0.643126 0.667640
Si Si5 0.000000 0.784205 0.669038
Si Si6 0.724717 0.203540 0.168246
Si Si7 0.666353 0.204058 0.475840
O O1 0.779762 0.651251 0.431426
O O2 0.661066 0.593116 0.374596
O O3 0.743987 0.544058 0.359240
O O4 0.688864 0.532156 0.482561
O O5 0.295963 0.197250 0.115576
O O6 0.231485 0.066325 0.127128
O O7 0.249332 0.124666 0.000000
O O8 0.235153 0.313860 0.250000
O O9 0.316098 0.316098 0.346012
O O10 0.281627 0.412279 0.335480
O O11 0.000000 0.713570 0.670613
O O12 0.000000 0.622789 0.750000
O O13 0.000000 0.804603 0.750000
O O14 0.715182 0.217116 0.250000
O O15 0.674638 0.202742 0.108849
O O16 0.720999 0.279002 0.500000
O O17 0.593477 0.186954 0.500000
#
# Coordination Sequence:
#
# PCOD9588904 Si02
#       7
#    24  24  24  12  12  24  24
#     4   9  17  31  49  74 100 130 162 197 247 301
#     4  10  18  28  45  71 100 128 164 203 240 292
#     4   9  17  29  48  72 100 131 162 199 245 293
#     4   9  16  28  49  75 100 130 164 198 238 290
#     4   9  18  30  44  65  98 135 163 196 244 293
#     4   9  17  32  52  73  98 130 167 203 244 298
#     4  10  20  36  54  73  97 128 164 208 256 297
#
# _framework density 16.660492999999999
#
# number of rings (size 3 to 8) (size 9 to 14) (size 15 to 20)
#    0.000    2.667    0.000    3.667    1.167    4.000 
#    4.500    4.583    0.000    0.000    0.000    0.000 
#    0.833    0.667    1.000    0.000    0.000    0.000 
#
# Total GULP energy -802467.765625 kJ/mol
# GULP energy per Si atom -5572.692817 kJ/mol
# Density = 1.662257 g / cm^3
# Si number density = 16.660493 Si / 1000 Ang^3
#
#
#
# Elastic Constant Matrix: (Units=GPa)
#
#
# Indices 1 2 3 4 5 6 
#
# 1 44.1963 19.3404 34.6193 0.0000 0.0000 0.0000
# 2 19.3404 44.1963 34.6193 0.0000 0.0000 0.0000
# 3 34.6193 34.6193 144.8414 0.0000 0.0000 0.0000
# 4 0.0000 0.0000 0.0000 16.2144 0.0000 0.0000
# 5 0.0000 0.0000 0.0000 0.0000 16.2144 0.0000
# 6 0.0000 0.0000 0.0000 0.0000 0.0000 12.4279
#
#
#
# Elastic Compliance Matrix: (Units=1/GPa)
#
#
# Indices 1 2 3 4 5 6 
#
# 1 0.030757 -0.009475 -0.005087 0.000000 0.000000 0.000000
# 2 -0.009475 0.030757 -0.005087 0.000000 0.000000 0.000000
# 3 -0.005087 -0.005087 0.009336 0.000000 0.000000 0.000000
# 4 0.000000 0.000000 0.000000 0.061674 0.000000 0.000000
# 5 0.000000 0.000000 0.000000 0.000000 0.061674 0.000000
# 6 0.000000 0.000000 0.000000 0.000000 0.000000 0.080464
#
#
# Mechanical properties :
#
#
# Convention : Reuss Voigt Hill
#
# Bulk Modulus (GPa) = 31.69268 45.59911 38.64589
# Shear Modulus (GPa) = 15.40948 18.61501 17.01224
#
# Velocity S-wave (km/s) = 3.04454 3.34625 3.19895
# Velocity P-wave (km/s) = 5.60561 6.50837 6.07379
#
# Compressibility (1/GPa) = 0.03155303
#
# Stress axis : x y z
#
# Youngs Moduli (GPa) = 32.51288 32.51288 107.11536
#
# Poissons Ratio (x) = 0.30806 0.54487
# Poissons Ratio (y) = 0.30806 0.54487
# Poissons Ratio (z) = 0.16539 0.16539
#
# Static dielectric constant tensor:
#      x y z
#    x 1.548970 0.000000 0.000000 
#    y 0.000000 1.548970 0.000000 
#    z 0.000000 0.000000 1.579360 
# 
# From -- ./inp_files/5623.got.cif
#   From: 2010.05.17/outbox.cif.g08.bks.cpg/sg193_3_cif.got.tgz:5623.got - 2010.05.20 12:33:02.
