data_PCOD9588287
_publ_section_title
;
Structure prediction by ZEFSAII (Michael W. Deem and Ramdas Pophale) SiO2 
 PCOD9588287
Probable space group: P 6/M C C
;
_chemical_formula_sum "Si O2"
_cell_formula_units_Z 168
_cell_length_a 23.096709
_cell_length_b 23.096709
_cell_length_c 21.001653
_cell_angle_alpha 90.000000
_cell_angle_beta 90.000000
_cell_angle_gamma 120.000000
_cell_volume 9702.514836
_symmetry_space_group_name_H-M "P 6/M C C"
_symmetry_group_IT_number 192
_symmetry_cell_setting 'hexagonal'
loop_
_space_group_symop_operation_xyz
x,y,z
x-y,x,z
-y,x-y,z
-x,-y,z
-x+y,-x,z
y,-x+y,z
x-y,-y,1/2-z
-x,-x+y,1/2-z
y,x,1/2-z
-y,-x,1/2-z
-x+y,y,1/2-z
x,x-y,1/2-z
-x,-y,-z
-x+y,-x,-z
y,-x+y,-z
x,y,-z
x-y,x,-z
-y,x-y,-z
-x+y,y,1/2+z
x,x-y,1/2+z
-y,-x,1/2+z
y,x,1/2+z
x-y,-y,1/2+z
-x,-x+y,1/2+z
loop_
_atom_site_type_symbol
_atom_site_label
_atom_site_fract_x
_atom_site_fract_y
_atom_site_fract_z
Si Si1 0.302497 0.926913 0.820499
Si Si2 0.305441 0.391577 0.821664
Si Si3 0.982030 0.153038 0.000000
Si Si4 0.084013 0.602823 0.072174
Si Si5 0.946224 0.849658 0.359351
Si Si6 0.921867 0.388871 0.571779
Si Si7 0.152216 0.306688 0.142701
Si Si8 0.281830 0.130833 0.500000
O O1 0.320052 0.908494 0.752143
O O2 0.331419 0.901341 0.876516
O O3 0.223178 0.897057 0.822306
O O4 0.338806 0.006893 0.829105
O O5 0.343415 0.450734 0.872110
O O6 0.227267 0.354407 0.835759
O O7 0.963934 0.108890 0.064103
O O8 0.929267 0.179292 0.000000
O O9 0.055244 0.217693 0.000000
O O10 0.101776 0.544570 0.083891
O O11 0.002960 0.568082 0.072875
O O12 0.105334 0.629093 0.000000
O O13 0.897217 0.875830 0.335423
O O14 0.904418 0.770107 0.347544
O O15 0.902722 0.362310 0.500000
O O16 0.142383 0.316386 0.067614
#
# Coordination Sequence:
#
# PCOD9588287 Si02
#       8
#    24  24  12  24  24  24  24  12
#     4  10  21  35  50  73 101 138 180 213 258 315
#     4  10  21  34  51  74 101 138 176 216 261 308
#     4  10  16  30  43  64  90 116 162 231 301 374
#     4   8  15  30  51  78 105 129 158 191 235 290
#     4  11  19  31  45  65  91 128 179 242 312 370
#     4   8  15  30  52  76 104 132 158 192 233 287
#     4  11  22  34  48  67 102 140 173 228 276 344
#     4  10  22  30  48  69  94 124 177 225 299 357
#
# _framework density 17.315099
#
# number of rings (size 3 to 8) (size 9 to 14) (size 15 to 20)
#    0.000    2.286    2.857    2.286    4.000    0.571 
#    0.000    3.571    0.000    0.000    0.000    0.000 
#    1.429    6.857    0.857    0.000    1.143    0.000 
#
# Total GULP energy -935499.658792 kJ/mol
# GULP energy per Si atom -5568.450350 kJ/mol
# Density = 1.727569 g / cm^3
# Si number density = 17.315099 Si / 1000 Ang^3
#
#
#
# Elastic Constant Matrix: (Units=GPa)
#
#
# Indices 1 2 3 4 5 6 
#
# 1 51.3422 22.6338 36.6851 0.0000 0.0000 0.0000
# 2 22.6338 51.3422 36.6851 0.0000 0.0000 0.0000
# 3 36.6851 36.6851 79.6964 0.0000 0.0000 0.0000
# 4 0.0000 0.0000 0.0000 9.7995 0.0000 0.0000
# 5 0.0000 0.0000 0.0000 0.0000 9.7995 0.0000
# 6 0.0000 0.0000 0.0000 0.0000 0.0000 14.3542
#
#
#
# Elastic Compliance Matrix: (Units=1/GPa)
#
#
# Indices 1 2 3 4 5 6 
#
# 1 0.029853 -0.004980 -0.011450 0.000000 0.000000 0.000000
# 2 -0.004980 0.029853 -0.011450 0.000000 0.000000 0.000000
# 3 -0.011450 -0.011450 0.023088 0.000000 0.000000 0.000000
# 4 0.000000 0.000000 0.000000 0.102046 0.000000 0.000000
# 5 0.000000 0.000000 0.000000 0.000000 0.102046 0.000000
# 6 0.000000 0.000000 0.000000 0.000000 0.000000 0.069666
#
#
# Mechanical properties :
#
#
# Convention : Reuss Voigt Hill
#
# Bulk Modulus (GPa) = 36.98588 41.59877 39.29233
# Shear Modulus (GPa) = 11.86735 12.54908 12.20822
#
# Velocity S-wave (km/s) = 2.62081 2.69503 2.65818
# Velocity P-wave (km/s) = 5.52857 5.81042 5.67124
#
# Compressibility (1/GPa) = 0.02703734
#
# Stress axis : x y z
#
# Youngs Moduli (GPa) = 33.49695 33.49695 43.31163
#
# Poissons Ratio (x) = 0.16680 0.49591
# Poissons Ratio (y) = 0.16680 0.49591
# Poissons Ratio (z) = 0.38353 0.38353
#
# Static dielectric constant tensor:
#      x y z
#    x 1.580950 0.000000 0.000000 
#    y 0.000000 1.580950 0.000000 
#    z 0.000000 0.000000 1.669530 
# 
# From -- ./inp_files/5398.got.cif
#   From: 2010.05.17/outbox.cif.g08.bks.cpg/sg192_3_cif.got.tgz:5398.got - 2010.05.20 12:28:01.
