data_PCOD9588110
_publ_section_title
;
Structure prediction by ZEFSAII (Michael W. Deem and Ramdas Pophale) SiO2 
 PCOD9588110
Probable space group: P 6/M M M
;
_chemical_formula_sum "Si O2"
_cell_formula_units_Z 120
_cell_length_a 21.577819
_cell_length_b 21.577819
_cell_length_c 17.619207
_cell_angle_alpha 90.000000
_cell_angle_beta 90.000000
_cell_angle_gamma 120.000000
_cell_volume 7104.476487
_symmetry_space_group_name_H-M "P 6/M M M"
_symmetry_group_IT_number 191
_symmetry_cell_setting 'hexagonal'
loop_
_space_group_symop_operation_xyz
x,y,z
x-y,x,z
-y,x-y,z
-x,-y,z
-x+y,-x,z
y,-x+y,z
x-y,-y,-z
-x,-x+y,-z
y,x,-z
-y,-x,-z
-x+y,y,-z
x,x-y,-z
-x,-y,-z
-x+y,-x,-z
y,-x+y,-z
x,y,-z
x-y,x,-z
-y,x-y,-z
-x+y,y,z
x,x-y,z
-y,-x,z
y,x,z
x-y,-y,z
-x,-x+y,z
loop_
_atom_site_type_symbol
_atom_site_label
_atom_site_fract_x
_atom_site_fract_y
_atom_site_fract_z
Si Si1 0.696879 0.918177 0.123203
Si Si2 0.543223 0.456778 0.828140
Si Si3 0.162788 0.694568 0.912525
Si Si4 0.217489 0.298937 0.694826
Si Si5 0.325404 0.912812 0.585497
Si Si6 0.542986 0.085971 0.352627
O O1 0.721765 0.860883 0.103966
O O2 0.617712 0.887243 0.090294
O O3 0.688066 0.916689 0.214897
O O4 0.749542 0.000000 0.100559
O O5 0.500000 0.500000 0.843174
O O6 0.622667 0.497542 0.863521
O O7 0.548322 0.451679 0.737550
O O8 0.241912 0.758089 0.887431
O O9 0.168702 0.676789 0.000000
O O10 0.135129 0.270257 0.678455
O O11 0.244528 0.244528 0.673495
O O12 0.264738 0.371261 0.647845
O O13 0.298322 0.890112 0.500000
O O14 0.380282 0.886710 0.609707
O O15 0.370928 0.000000 0.585749
O O16 0.500000 0.000000 0.364443
#
# Coordination Sequence:
#
# PCOD9588110 Si02
#       6
#    24  12  24  24  24  12
#     4   9  17  30  48  68  93 126 161 199 244 295
#     4  11  21  33  53  77  99 127 165 205 243 287
#     4  10  21  35  49  70  99 128 161 201 246 292
#     4   9  17  29  45  66  93 125 161 200 243 292
#     4   9  16  26  42  65  93 122 151 187 233 281
#     4   9  17  29  45  67  95 123 151 187 231 277
#
# _framework density 16.890758999999999
#
# number of rings (size 3 to 8) (size 9 to 14) (size 15 to 20)
#    0.000    2.600    0.000    2.400    0.000    6.800 
#    0.600    0.000    0.000    0.400    0.000    2.800 
#    1.000    0.000    0.600   10.000    0.000   10.400 
#
# Total GULP energy -668709.153132 kJ/mol
# GULP energy per Si atom -5572.576276 kJ/mol
# Density = 1.685232 g / cm^3
# Si number density = 16.890759 Si / 1000 Ang^3
#
#
#
# Elastic Constant Matrix: (Units=GPa)
#
#
# Indices 1 2 3 4 5 6 
#
# 1 73.8886 28.6300 16.4705 0.0000 0.0000 0.0000
# 2 28.6300 73.8886 16.4705 0.0000 0.0000 0.0000
# 3 16.4705 16.4705 35.5469 0.0000 0.0000 0.0000
# 4 0.0000 0.0000 0.0000-1488.3541 -0.0014 0.0000
# 5 0.0000 0.0000 0.0000 -0.0014-1488.3525 0.0000
# 6 0.0000 0.0000 0.0000 0.0000 0.0000 22.6293
#
#
#
# Elastic Compliance Matrix: (Units=1/GPa)
#
#
# Indices 1 2 3 4 5 6 
#
# 1 0.016778 -0.005317 -0.005310 0.000000 0.000000 0.000000
# 2 -0.005317 0.016778 -0.005310 0.000000 0.000000 0.000000
# 3 -0.005310 -0.005310 0.033053 0.000000 0.000000 0.000000
# 4 0.000000 0.000000 0.000000 -0.000672 0.000000 0.000000
# 5 0.000000 0.000000 0.000000 0.000000 -0.000672 0.000000
# 6 0.000000 0.000000 0.000000 0.000000 0.000000 0.044190
#
#
# Mechanical properties :
#
#
# Convention : Reuss Voigt Hill
#
# Bulk Modulus (GPa) = 28.79100 34.05179 31.42140
# Shear Modulus (GPa) = 32.69933 -582.69858 -274.99963
#
# Velocity S-wave (km/s) = 4.40469 -18.59381 -12.77357
# Velocity P-wave (km/s) = 6.55369 20.99450 14.10351
#
# Compressibility (1/GPa) = 0.03473308
#
# Stress axis : x y z
#
# Youngs Moduli (GPa) = 59.60220 59.60220 30.25469
#
# Poissons Ratio (x) = 0.31692 0.16066
# Poissons Ratio (y) = 0.31692 0.16066
# Poissons Ratio (z) = 0.31650 0.31650
#
# Static dielectric constant tensor:
#      x y z
#    x 1.563830 0.000000 0.000000 
#    y 0.000000 1.563830 0.000000 
#    z 0.000000 0.000000 1.587490 
# 
# From -- ./inp_files/6272.got.cif
#   From: 2010.05.17/outbox.cif.g08.bks.cpg/sg191_4_cif.got.tgz:6272.got - 2010.05.20 12:20:32.
