data_PCOD9588918
_publ_section_title
;
Structure prediction by ZEFSAII (Michael W. Deem and Ramdas Pophale) SiO2 
 PCOD9588918
Probable space group: P 63/M C M
;
_chemical_formula_sum "Si O2"
_cell_formula_units_Z 80
_cell_length_a 18.102415
_cell_length_b 18.102415
_cell_length_c 17.152881
_cell_angle_alpha 90.000000
_cell_angle_beta 90.000000
_cell_angle_gamma 120.000000
_cell_volume 4867.889824
_symmetry_space_group_name_H-M "P 63/M C M"
_symmetry_group_IT_number 193
_symmetry_cell_setting 'hexagonal'
loop_
_space_group_symop_operation_xyz
x,y,z
x-y,x,1/2+z
-y,x-y,z
-x,-y,1/2+z
-x+y,-x,z
y,-x+y,1/2+z
x-y,-y,1/2-z
-x,-x+y,1/2-z
y,x,1/2-z
-y,-x,-z
-x+y,y,-z
x,x-y,-z
-x,-y,-z
-x+y,-x,1/2-z
y,-x+y,-z
x,y,1/2-z
x-y,x,-z
-y,x-y,1/2-z
-x+y,y,1/2+z
x,x-y,1/2+z
-y,-x,1/2+z
y,x,z
x-y,-y,z
-x,-x+y,z
loop_
_atom_site_type_symbol
_atom_site_label
_atom_site_fract_x
_atom_site_fract_y
_atom_site_fract_z
Si Si1 0.461943 0.101909 0.663459
Si Si2 0.333334 0.666668 0.657828
Si Si3 0.734993 0.101389 0.011762
Si Si4 0.541013 0.177525 0.421823
O O1 0.466071 0.137923 0.750000
O O2 0.413400 0.122383 0.595927
O O3 0.555702 0.125519 0.634094
O O4 0.408343 0.000000 0.668537
O O5 0.333334 0.666668 0.750000
O O6 0.425398 0.733092 0.622391
O O7 0.698210 0.000000 0.006692
O O8 0.835451 0.164550 0.000000
O O9 0.685575 0.129286 0.949500
O O10 0.597018 0.194035 0.500000
#
# Coordination Sequence:
#
# PCOD9588918 Si02
#       4
#    24   8  24  24
#     4   9  17  30  49  72  98 130 165 199 236 278
#     4  12  22  29  43  66  97 140 175 198 226 260
#     4  10  20  34  53  72  93 124 161 202 247 295
#     4  10  18  30  45  65  95 129 166 201 231 266
#
# _framework density 16.434225000000001
#
# number of rings (size 3 to 8) (size 9 to 14) (size 15 to 20)
#    0.000    2.100    0.000    6.300    0.000    3.600 
#    0.000    1.500    0.000    4.800    0.000    0.000 
#    0.000    0.000    0.000    0.000    0.000    0.300 
#
# Total GULP energy -446096.532663 kJ/mol
# GULP energy per Si atom -5576.206658 kJ/mol
# Density = 1.639682 g / cm^3
# Si number density = 16.434225 Si / 1000 Ang^3
#
#
#
# Elastic Constant Matrix: (Units=GPa)
#
#
# Indices 1 2 3 4 5 6 
#
# 1 92.0086 42.5335 37.6105 -0.0001 0.0001 0.0000
# 2 42.5335 92.0088 37.6105 -0.0001 0.0000 0.0001
# 3 37.6105 37.6105 90.8985 -0.0001 0.0000 0.0000
# 4 -0.0001 -0.0001 -0.0001 16.8972 0.0001 0.0000
# 5 0.0001 0.0000 0.0000 0.0001 16.8971 0.0000
# 6 0.0000 0.0001 0.0000 0.0000 0.0000 24.7376
#
#
#
# Elastic Compliance Matrix: (Units=1/GPa)
#
#
# Indices 1 2 3 4 5 6 
#
# 1 0.014941 -0.005271 -0.004001 0.000000 0.000000 0.000000
# 2 -0.005271 0.014941 -0.004001 0.000000 0.000000 0.000000
# 3 -0.004001 -0.004001 0.014312 0.000000 0.000000 0.000000
# 4 0.000000 0.000000 0.000000 0.059181 0.000000 0.000000
# 5 0.000000 0.000000 0.000000 0.000000 0.059182 0.000000
# 6 0.000000 0.000000 0.000000 0.000000 0.000000 0.040424
#
#
# Mechanical properties :
#
#
# Convention : Reuss Voigt Hill
#
# Bulk Modulus (GPa) = 56.66513 56.71389 56.68951
# Shear Modulus (GPa) = 21.23954 22.18380 21.71167
#
# Velocity S-wave (km/s) = 3.59889 3.67802 3.63867
# Velocity P-wave (km/s) = 7.19890 7.25408 7.22654
#
# Compressibility (1/GPa) = 0.01764754
#
# Stress axis : x y z
#
# Youngs Moduli (GPa) = 66.93073 66.93085 69.87088
#
# Poissons Ratio (x) = 0.35282 0.27954
# Poissons Ratio (y) = 0.35282 0.27954
# Poissons Ratio (z) = 0.26778 0.26778
#
# Static dielectric constant tensor:
#      x y z
#    x 1.575000 0.000000 0.000000 
#    y 0.000000 1.575000 0.000000 
#    z 0.000000 0.000000 1.593960 
# 
# From -- ./inp_files/4996.got.cif
#   From: 2010.05.17/outbox.cif.g08.bks.cpg/sg193_3_cif.got.tgz:4996.got - 2010.05.20 12:33:02.
