data_PCOD9588173
_publ_section_title
;
Structure prediction by ZEFSAII (Michael W. Deem and Ramdas Pophale) SiO2 
 PCOD9588173
Probable space group: P 6/M M M
;
_chemical_formula_sum "Si O2"
_cell_formula_units_Z 114
_cell_length_a 21.810263
_cell_length_b 21.810263
_cell_length_c 14.014674
_cell_angle_alpha 90.000000
_cell_angle_beta 90.000000
_cell_angle_gamma 120.000000
_cell_volume 5773.450369
_symmetry_space_group_name_H-M "P 6/M M M"
_symmetry_group_IT_number 191
_symmetry_cell_setting 'hexagonal'
loop_
_space_group_symop_operation_xyz
x,y,z
x-y,x,z
-y,x-y,z
-x,-y,z
-x+y,-x,z
y,-x+y,z
x-y,-y,-z
-x,-x+y,-z
y,x,-z
-y,-x,-z
-x+y,y,-z
x,x-y,-z
-x,-y,-z
-x+y,-x,-z
y,-x+y,-z
x,y,-z
x-y,x,-z
-y,x-y,-z
-x+y,y,z
x,x-y,z
-y,-x,z
y,x,z
x-y,-y,z
-x,-x+y,z
loop_
_atom_site_type_symbol
_atom_site_label
_atom_site_fract_x
_atom_site_fract_y
_atom_site_fract_z
Si Si1 0.666480 0.474073 0.366301
Si Si2 0.637557 0.919364 0.607633
Si Si3 0.133262 0.866739 0.694842
Si Si4 0.085360 0.170720 0.500000
Si Si5 0.332570 0.527406 0.861305
Si Si6 0.535851 0.922994 0.000000
Si Si7 0.914548 0.829095 0.111991
O O1 0.730442 0.460883 0.395226
O O2 0.590248 0.409753 0.396824
O O3 0.687124 0.553571 0.392158
O O4 0.665722 0.474053 0.251803
O O5 0.662335 0.915488 0.500000
O O6 0.681226 0.898835 0.680154
O O7 0.657709 0.000000 0.624301
O O8 0.107417 0.892584 0.600950
O O9 0.112776 0.887225 0.796892
O O10 0.123562 0.123562 0.500000
O O11 0.258263 0.516526 0.892432
O O12 0.395485 0.604516 0.891158
O O13 0.348109 0.470248 0.907808
O O14 0.464209 0.928418 0.000000
O O15 0.601576 0.000000 0.000000
O O16 0.876865 0.876865 0.120977
O O17 0.900691 0.801382 0.000000
#
# Coordination Sequence:
#
# PCOD9588173 Si02
#       7
#    24  24  12   6  24  12  12
#     4  10  21  38  60  87 118 155 202 261 329 397
#     4  11  23  40  63  90 121 163 216 270 326 394
#     4  12  22  40  65  92 130 180 236 280 331 401
#     4  12  23  36  60 100 142 182 226 286 346 396
#     4   9  17  30  51  77 106 140 184 237 297 361
#     4   9  17  28  44  70 106 145 182 226 288 366
#     4  10  21  38  64 100 144 190 234 280 334 397
#
# _framework density 19.745557999999999
#
# number of rings (size 3 to 8) (size 9 to 14) (size 15 to 20)
#    0.000    1.789    2.105    2.789    0.000    3.789 
#    0.000    5.263    2.316    1.263    0.000    0.000 
#    0.000    0.000    0.000    0.000    0.000    0.000 
#
# Total GULP energy -635800.603852 kJ/mol
# GULP energy per Si atom -5577.198279 kJ/mol
# Density = 1.970062 g / cm^3
# Si number density = 19.745558 Si / 1000 Ang^3
#
#
#
# Elastic Constant Matrix: (Units=GPa)
#
#
# Indices 1 2 3 4 5 6 
#
# 1 136.0042 72.9563 50.3432 0.0000 0.0000 0.0000
# 2 72.9563 136.0042 50.3432 0.0000 0.0000 0.0000
# 3 50.3432 50.3432 147.0294 0.0000 0.0000 0.0000
# 4 0.0000 0.0000 0.0000 31.3874 0.0000 0.0000
# 5 0.0000 0.0000 0.0000 0.0000 31.3874 0.0000
# 6 0.0000 0.0000 0.0000 0.0000 0.0000 31.5239
#
#
#
# Elastic Compliance Matrix: (Units=1/GPa)
#
#
# Indices 1 2 3 4 5 6 
#
# 1 0.010796 -0.005065 -0.001962 0.000000 0.000000 0.000000
# 2 -0.005065 0.010796 -0.001962 0.000000 0.000000 0.000000
# 3 -0.001962 -0.001962 0.008145 0.000000 0.000000 0.000000
# 4 0.000000 0.000000 0.000000 0.031860 0.000000 0.000000
# 5 0.000000 0.000000 0.000000 0.000000 0.031860 0.000000
# 6 0.000000 0.000000 0.000000 0.000000 0.000000 0.031722
#
#
# Mechanical properties :
#
#
# Convention : Reuss Voigt Hill
#
# Bulk Modulus (GPa) = 85.04811 85.14703 85.09757
# Shear Modulus (GPa) = 33.99566 35.21942 34.60754
#
# Velocity S-wave (km/s) = 4.15382 4.22793 4.19104
# Velocity P-wave (km/s) = 8.13457 8.18838 8.16152
#
# Compressibility (1/GPa) = 0.01175805
#
# Stress axis : x y z
#
# Youngs Moduli (GPa) = 92.62644 92.62644 122.77180
#
# Poissons Ratio (x) = 0.46914 0.24092
# Poissons Ratio (y) = 0.46914 0.24092
# Poissons Ratio (z) = 0.18177 0.18177
#
# Static dielectric constant tensor:
#      x y z
#    x 1.683370 0.000000 0.000000 
#    y 0.000000 1.683370 0.000000 
#    z 0.000000 0.000000 1.727130 
# 
# From -- ./inp_files/4452.got.cif
#   From: 2010.05.17/outbox.cif.g08.bks.cpg/sg191_3_cif.got.tgz:4452.got - 2010.05.20 12:20:32.
