data_PCOD9588206
_publ_section_title
;
Structure prediction by ZEFSAII (Michael W. Deem and Ramdas Pophale) SiO2 
 PCOD9588206
Probable space group: P 6/M M M
;
_chemical_formula_sum "Si O2"
_cell_formula_units_Z 120
_cell_length_a 21.299097
_cell_length_b 21.299097
_cell_length_c 17.590820
_cell_angle_alpha 90.000000
_cell_angle_beta 90.000000
_cell_angle_gamma 120.000000
_cell_volume 6910.971455
_symmetry_space_group_name_H-M "P 6/M M M"
_symmetry_group_IT_number 191
_symmetry_cell_setting 'hexagonal'
loop_
_space_group_symop_operation_xyz
x,y,z
x-y,x,z
-y,x-y,z
-x,-y,z
-x+y,-x,z
y,-x+y,z
x-y,-y,-z
-x,-x+y,-z
y,x,-z
-y,-x,-z
-x+y,y,-z
x,x-y,-z
-x,-y,-z
-x+y,-x,-z
y,-x+y,-z
x,y,-z
x-y,x,-z
-y,x-y,-z
-x+y,y,z
x,x-y,z
-y,-x,z
y,x,z
x-y,-y,z
-x,-x+y,z
loop_
_atom_site_type_symbol
_atom_site_label
_atom_site_fract_x
_atom_site_fract_y
_atom_site_fract_z
Si Si1 0.543151 0.456850 0.908438
Si Si2 0.083673 0.916328 0.407406
Si Si3 0.336365 0.168183 0.591526
Si Si4 0.325487 0.912029 0.331004
Si Si5 0.912372 0.456186 0.413465
Si Si6 0.920017 0.705306 0.908579
Si Si7 0.298434 0.846529 0.837823
O O1 0.500000 0.500000 0.887141
O O2 0.503504 0.376106 0.874746
O O3 0.544766 0.455235 0.000000
O O4 0.082980 0.917021 0.500000
O O5 0.125828 0.874173 0.385568
O O6 0.000000 0.874113 0.382361
O O7 0.340807 0.170404 0.500000
O O8 0.374121 0.124453 0.624075
O O9 0.382206 0.892658 0.370606
O O10 0.309984 0.878786 0.246793
O O11 0.363593 0.000000 0.329244
O O12 0.885053 0.442527 0.500000
O O13 0.000000 0.500000 0.416373
O O14 0.866136 0.732272 0.881035
O O15 0.884683 0.622186 0.885705
O O16 0.000000 0.750541 0.876777
O O17 0.923222 0.709690 0.000000
O O18 0.239351 0.760650 0.837604
#
# Coordination Sequence:
#
# PCOD9588206 Si02
#       7
#    12  12  12  24  12  24  24
#     4  11  23  39  63  92 121 157 201 243 284 339
#     4   9  17  30  49  74 106 146 190 235 290 359
#     4  11  22  35  52  81 116 150 191 250 310 361
#     4  11  21  36  58  83 113 149 190 241 299 357
#     4   9  19  35  57  82 104 135 182 234 290 352
#     4   9  17  30  51  78 109 145 184 227 274 325
#     4  11  22  38  57  84 119 152 188 234 282 341
#
# _framework density 17.363695
#
# number of rings (size 3 to 8) (size 9 to 14) (size 15 to 20)
#    0.000    1.800    1.000    4.300    0.000    6.000 
#    0.600    0.000    0.000    0.600    0.000    2.800 
#    0.000    0.000    0.000    0.000    0.000    0.000 
#
# Total GULP energy -669497.122341 kJ/mol
# GULP energy per Si atom -5579.142686 kJ/mol
# Density = 1.732417 g / cm^3
# Si number density = 17.363695 Si / 1000 Ang^3
#
#
#
# Elastic Constant Matrix: (Units=GPa)
#
#
# Indices 1 2 3 4 5 6 
#
# 1 151.2089 95.2499 42.9072 0.0000 0.0000 0.0000
# 2 95.2499 151.2089 42.9072 0.0000 0.0000 0.0000
# 3 42.9072 42.9072 49.5184 0.0000 0.0000 0.0000
# 4 0.0000 0.0000 0.0000 19.6231 0.0000 0.0000
# 5 0.0000 0.0000 0.0000 0.0000 19.6231 0.0000
# 6 0.0000 0.0000 0.0000 0.0000 0.0000 27.9795
#
#
#
# Elastic Compliance Matrix: (Units=1/GPa)
#
#
# Indices 1 2 3 4 5 6 
#
# 1 0.011840 -0.006030 -0.005035 0.000000 0.000000 0.000000
# 2 -0.006030 0.011840 -0.005035 0.000000 0.000000 0.000000
# 3 -0.005035 -0.005035 0.028920 0.000000 0.000000 0.000000
# 4 0.000000 0.000000 0.000000 0.050960 0.000000 0.000000
# 5 0.000000 0.000000 0.000000 0.000000 0.050960 0.000000
# 6 0.000000 0.000000 0.000000 0.000000 0.000000 0.035741
#
#
# Mechanical properties :
#
#
# Convention : Reuss Voigt Hill
#
# Bulk Modulus (GPa) = 49.01560 79.34053 64.17807
# Shear Modulus (GPa) = 21.80918 24.83656 23.32287
#
# Velocity S-wave (km/s) = 3.54788 3.78613 3.66894
# Velocity P-wave (km/s) = 6.71367 8.05640 7.41549
#
# Compressibility (1/GPa) = 0.02040167
#
# Stress axis : x y z
#
# Youngs Moduli (GPa) = 84.45668 84.45668 34.57851
#
# Poissons Ratio (x) = 0.50926 0.17409
# Poissons Ratio (y) = 0.50926 0.17409
# Poissons Ratio (z) = 0.42522 0.42522
#
# Static dielectric constant tensor:
#      x y z
#    x 1.591090 0.000000 0.000000 
#    y 0.000000 1.591090 0.000000 
#    z 0.000000 0.000000 1.583120 
# 
# From -- ./inp_files/6308.got.cif
#   From: 2010.05.17/outbox.cif.g08.bks.cpg/sg191_4_cif.got.tgz:6308.got - 2010.05.20 12:20:32.
