data_PCOD9588815
_publ_section_title
;
Structure prediction by ZEFSAII (Michael W. Deem and Ramdas Pophale) SiO2 
 PCOD9588815
Probable space group: P 6/M C C
;
_chemical_formula_sum "Si O2"
_cell_formula_units_Z 78
_cell_length_a 15.670021
_cell_length_b 15.670021
_cell_length_c 14.776780
_cell_angle_alpha 90.000000
_cell_angle_beta 90.000000
_cell_angle_gamma 120.000000
_cell_volume 3142.314114
_symmetry_space_group_name_H-M "P 6/M C C"
_symmetry_group_IT_number 192
_symmetry_cell_setting 'hexagonal'
loop_
_space_group_symop_operation_xyz
x,y,z
x-y,x,z
-y,x-y,z
-x,-y,z
-x+y,-x,z
y,-x+y,z
x-y,-y,1/2-z
-x,-x+y,1/2-z
y,x,1/2-z
-y,-x,1/2-z
-x+y,y,1/2-z
x,x-y,1/2-z
-x,-y,-z
-x+y,-x,-z
y,-x+y,-z
x,y,-z
x-y,x,-z
-y,x-y,-z
-x+y,y,1/2+z
x,x-y,1/2+z
-y,-x,1/2+z
y,x,1/2+z
x-y,-y,1/2+z
-x,-x+y,1/2+z
loop_
_atom_site_type_symbol
_atom_site_label
_atom_site_fract_x
_atom_site_fract_y
_atom_site_fract_z
Si Si1 0.222867 0.065154 0.389562
Si Si2 0.255544 0.810732 0.104546
Si Si3 0.878434 0.404431 0.151784
Si Si4 0.500000 0.000000 0.000000
O O1 0.190989 0.144871 0.360148
O O2 0.220069 0.061711 0.500000
O O3 0.336914 0.107272 0.361999
O O4 0.368570 0.836202 0.102495
O O5 0.197090 0.709927 0.159035
O O6 0.221940 0.790302 0.000000
O O7 0.902865 0.451433 0.250000
O O8 0.961371 0.416842 0.081430
#
# Coordination Sequence:
#
# PCOD9588815 Si02
#       4
#    24  24  24   6
#     4   9  19  34  61  96 138 186 237 286 343 407
#     4  11  22  41  70  97 139 190 235 289 354 417
#     4  12  26  44  69 101 138 182 233 286 351 425
#     4  12  26  44  68  98 144 182 218 288 360 422
#
# _framework density 24.822471
#
# number of rings (size 3 to 8) (size 9 to 14) (size 15 to 20)
#    0.000    1.231    3.077    2.308    4.308    1.231 
#    0.000    0.000    0.000    0.000    0.000    0.000 
#    0.000    9.846    0.000    0.308    0.000    0.308 
#
# Total GULP energy -434520.140040 kJ/mol
# GULP energy per Si atom -5570.771026 kJ/mol
# Density = 2.476597 g / cm^3
# Si number density = 24.822471 Si / 1000 Ang^3
#
#
#
# Elastic Constant Matrix: (Units=GPa)
#
#
# Indices 1 2 3 4 5 6 
#
# 1 128.1051 47.0534 -5.6505 0.0000 0.0000 0.0000
# 2 47.0534 128.1051 -5.6505 0.0000 0.0000 0.0000
# 3 -5.6505 -5.6505 147.4285 0.0000 0.0000 0.0000
# 4 0.0000 0.0000 0.0000 24.2035 0.0000 0.0000
# 5 0.0000 0.0000 0.0000 0.0000 24.2035 0.0000
# 6 0.0000 0.0000 0.0000 0.0000 0.0000 40.5259
#
#
#
# Elastic Compliance Matrix: (Units=1/GPa)
#
#
# Indices 1 2 3 4 5 6 
#
# 1 0.009031 -0.003307 0.000219 0.000000 0.000000 0.000000
# 2 -0.003307 0.009031 0.000219 0.000000 0.000000 0.000000
# 3 0.000219 0.000219 0.006800 0.000000 0.000000 0.000000
# 4 0.000000 0.000000 0.000000 0.041316 0.000000 0.000000
# 5 0.000000 0.000000 0.000000 0.000000 0.041316 0.000000
# 6 0.000000 0.000000 0.000000 0.000000 0.000000 0.024676
#
#
# Mechanical properties :
#
#
# Convention : Reuss Voigt Hill
#
# Bulk Modulus (GPa) = 52.29107 52.79372 52.54240
# Shear Modulus (GPa) = 34.65465 42.31233 38.48349
#
# Velocity S-wave (km/s) = 3.74050 4.13316 3.94172
# Velocity P-wave (km/s) = 6.30609 6.64018 6.47529
#
# Compressibility (1/GPa) = 0.01912372
#
# Stress axis : x y z
#
# Youngs Moduli (GPa) = 110.73543 110.73543 147.06392
#
# Poissons Ratio (x) = 0.36623 -0.03226
# Poissons Ratio (y) = 0.36623 -0.03226
# Poissons Ratio (z) = -0.02429 -0.02429
#
# Static dielectric constant tensor:
#      x y z
#    x 2.205670 0.000000 0.000000 
#    y 0.000000 2.205670 0.000000 
#    z 0.000000 0.000000 2.094140 
# 
# From -- ./inp_files/2504.got.cif
#   From: 2010.05.17/outbox.cif.g08.bks.cpg/sg192_2_cif.got.tgz:2504.got - 2010.05.20 12:28:01.
