data_PCOD9588624
_publ_section_title
;
Structure prediction by ZEFSAII (Michael W. Deem and Ramdas Pophale) SiO2 
 PCOD9588624
Probable space group: P 6/M C C
;
_chemical_formula_sum "Si O2"
_cell_formula_units_Z 104
_cell_length_a 17.213757
_cell_length_b 17.213757
_cell_length_c 19.234079
_cell_angle_alpha 90.000000
_cell_angle_beta 90.000000
_cell_angle_gamma 120.000000
_cell_volume 4935.752373
_symmetry_space_group_name_H-M "P 6/M C C"
_symmetry_group_IT_number 192
_symmetry_cell_setting 'hexagonal'
loop_
_space_group_symop_operation_xyz
x,y,z
x-y,x,z
-y,x-y,z
-x,-y,z
-x+y,-x,z
y,-x+y,z
x-y,-y,1/2-z
-x,-x+y,1/2-z
y,x,1/2-z
-y,-x,1/2-z
-x+y,y,1/2-z
x,x-y,1/2-z
-x,-y,-z
-x+y,-x,-z
y,-x+y,-z
x,y,-z
x-y,x,-z
-y,x-y,-z
-x+y,y,1/2+z
x,x-y,1/2+z
-y,-x,1/2+z
y,x,1/2+z
x-y,-y,1/2+z
-x,-x+y,1/2+z
loop_
_atom_site_type_symbol
_atom_site_label
_atom_site_fract_x
_atom_site_fract_y
_atom_site_fract_z
Si Si1 0.441605 0.084495 0.000000
Si Si2 0.945848 0.793804 0.000000
Si Si3 0.477016 0.354379 0.000000
Si Si4 0.333334 0.666668 0.586120
Si Si5 0.531311 0.746861 0.386656
Si Si6 0.178148 0.821853 0.750000
Si Si7 0.054617 0.208914 0.846305
O O1 0.547997 0.115996 0.000000
O O2 0.422551 0.127679 0.066151
O O3 0.380881 0.979547 0.000000
O O4 0.876825 0.830584 0.000000
O O5 0.933951 0.750193 0.075749
O O6 0.468936 0.295004 0.067474
O O7 0.333334 0.666668 0.500000
O O8 0.251864 0.574824 0.614648
O O9 0.578818 0.766736 0.313006
O O10 0.201496 0.914009 0.789961
O O11 0.126062 0.172933 0.839636
#
# Coordination Sequence:
#
# PCOD9588624 Si02
#       7
#    12  12  12   8  24  12  24
#     4  10  20  39  70 101 124 158 214 278 336 387
#     4   8  15  30  58  86 106 142 212 292 334 358
#     4  10  20  39  70 101 124 158 214 278 336 387
#     4  12  18  46  83 100 111 157 233 274 330 388
#     4  11  22  42  67  96 130 169 213 269 319 405
#     4  12  28  36  51  90 138 174 209 258 328 384
#     4  10  21  41  65  89 122 174 238 288 328 383
#
# _framework density 21.070748999999999
#
# number of rings (size 3 to 8) (size 9 to 14) (size 15 to 20)
#    0.000    1.615    4.615    1.038    0.000    8.308 
#    0.000    3.462    0.000    2.769    0.000    0.000 
#    0.000    0.000    0.000    4.615    0.000    0.000 
#
# Total GULP energy -580326.141036 kJ/mol
# GULP energy per Si atom -5580.059048 kJ/mol
# Density = 2.102279 g / cm^3
# Si number density = 21.070749 Si / 1000 Ang^3
#
#
#
# Elastic Constant Matrix: (Units=GPa)
#
#
# Indices 1 2 3 4 5 6 
#
# 1 64.9864 37.2160 52.4176 -0.0001 0.0001 -0.0003
# 2 37.2160 64.9855 52.4178 -0.0001 0.0001 -0.0003
# 3 52.4176 52.4178 204.5775 0.0000 0.0000 -0.0001
# 4 -0.0001 -0.0001 0.0000 28.7707 -0.0001 0.0000
# 5 0.0001 0.0001 0.0000 -0.0001 28.7710 0.0000
# 6 -0.0003 -0.0003 -0.0001 0.0000 0.0000 13.8850
#
#
#
# Elastic Compliance Matrix: (Units=1/GPa)
#
#
# Indices 1 2 3 4 5 6 
#
# 1 0.024641 -0.011369 -0.003401 0.000000 0.000000 0.000000
# 2 -0.011369 0.024642 -0.003401 0.000000 0.000000 0.000000
# 3 -0.003401 -0.003401 0.006631 0.000000 0.000000 0.000000
# 4 0.000000 0.000000 0.000000 0.034758 0.000000 0.000000
# 5 0.000000 0.000000 0.000000 0.000000 0.034757 0.000000
# 6 0.000000 0.000000 0.000000 0.000000 0.000000 0.072020
#
#
# Mechanical properties :
#
#
# Convention : Reuss Voigt Hill
#
# Bulk Modulus (GPa) = 51.08946 68.73912 59.91429
# Shear Modulus (GPa) = 20.80613 27.11857 23.96235
#
# Velocity S-wave (km/s) = 3.14577 3.59140 3.37595
# Velocity P-wave (km/s) = 6.12321 7.06338 6.61004
#
# Compressibility (1/GPa) = 0.01957351
#
# Stress axis : x y z
#
# Youngs Moduli (GPa) = 40.58219 40.58141 150.80920
#
# Poissons Ratio (x) = 0.46135 0.51287
# Poissons Ratio (y) = 0.46136 0.51289
# Poissons Ratio (z) = 0.13801 0.13802
#
# Static dielectric constant tensor:
#      x y z
#    x 1.789080 0.000000 0.000000 
#    y 0.000000 1.789080 0.000000 
#    z 0.000000 0.000000 1.812940 
# 
# From -- ./inp_files/4944.got.cif
#   From: 2010.05.17/outbox.cif.g08.bks.cpg/sg192_3_cif.got.tgz:4944.got - 2010.05.20 12:28:01.
