data_PCOD9588184
_publ_section_title
;
Structure prediction by ZEFSAII (Michael W. Deem and Ramdas Pophale) SiO2 
 PCOD9588184
Probable space group: P 6/M M M
;
_chemical_formula_sum "Si O2"
_cell_formula_units_Z 75
_cell_length_a 15.907798
_cell_length_b 15.907798
_cell_length_c 19.068045
_cell_angle_alpha 90.000000
_cell_angle_beta 90.000000
_cell_angle_gamma 120.000000
_cell_volume 4178.851469
_symmetry_space_group_name_H-M "P 6/M M M"
_symmetry_group_IT_number 191
_symmetry_cell_setting 'hexagonal'
loop_
_space_group_symop_operation_xyz
x,y,z
x-y,x,z
-y,x-y,z
-x,-y,z
-x+y,-x,z
y,-x+y,z
x-y,-y,-z
-x,-x+y,-z
y,x,-z
-y,-x,-z
-x+y,y,-z
x,x-y,-z
-x,-y,-z
-x+y,-x,-z
y,-x+y,-z
x,y,-z
x-y,x,-z
-y,x-y,-z
-x+y,y,z
x,x-y,z
-y,-x,z
y,x,z
x-y,-y,z
-x,-x+y,z
loop_
_atom_site_type_symbol
_atom_site_label
_atom_site_fract_x
_atom_site_fract_y
_atom_site_fract_z
Si Si1 0.775814 0.551627 0.693968
Si Si2 0.111849 0.223698 0.132865
Si Si3 0.888170 0.111831 0.696165
Si Si4 0.892300 0.446150 0.354781
Si Si5 0.500000 0.000000 0.500000
Si Si6 0.556133 0.443868 0.915904
Si Si7 0.552000 0.776000 0.862612
O O1 0.832441 0.664881 0.672733
O O2 0.665914 0.499005 0.666798
O O3 0.774686 0.549372 0.778321
O O4 0.168021 0.168021 0.109720
O O5 0.111314 0.222627 0.218451
O O6 0.168125 0.336250 0.112536
O O7 0.000000 0.167816 0.673231
O O8 0.917118 0.458559 0.437190
O O9 0.000000 0.500000 0.319542
O O10 0.500000 0.500000 0.892460
O O11 0.666052 0.498541 0.889072
O O12 0.556966 0.443035 0.000000
#
# Coordination Sequence:
#
# PCOD9588184 Si02
#       7
#    12  12  12  12   3  12  12
#     4  11  21  34  62  86 118 151 188 241 311 343
#     4   9  17  30  50  78 114 147 180 221 281 340
#     4   9  17  29  48  80 115 150 180 220 275 336
#     4  10  22  41  57  88 117 151 197 243 288 363
#     4   8  24  44  60  80 120 158 194 248 284 344
#     4  11  24  41  60  81 116 166 205 241 298 362
#     4  11  22  36  56  89 116 150 192 253 292 346
#
# _framework density 17.947516
#
# number of rings (size 3 to 8) (size 9 to 14) (size 15 to 20)
#    0.480    1.440    0.000    4.320    0.000    7.040 
#    0.000    0.000    0.000    0.000    0.000    0.000 
#    0.000    8.960    0.000    0.000    0.000    0.000 
#
# Total GULP energy -417832.451510 kJ/mol
# GULP energy per Si atom -5571.099353 kJ/mol
# Density = 1.790667 g / cm^3
# Si number density = 17.947516 Si / 1000 Ang^3
#
#
#
# Elastic Constant Matrix: (Units=GPa)
#
#
# Indices 1 2 3 4 5 6 
#
# 1 221.6552 138.9909 39.1231 0.0000 0.0000 0.0000
# 2 138.9909 221.6552 39.1231 0.0000 0.0000 0.0000
# 3 39.1231 39.1231 52.5109 0.0000 0.0000 0.0000
# 4 0.0000 0.0000 0.0000 22.0015 0.0000 0.0000
# 5 0.0000 0.0000 0.0000 0.0000 22.0015 0.0000
# 6 0.0000 0.0000 0.0000 0.0000 0.0000 41.3322
#
#
#
# Elastic Compliance Matrix: (Units=1/GPa)
#
#
# Indices 1 2 3 4 5 6 
#
# 1 0.007702 -0.004395 -0.002464 0.000000 0.000000 0.000000
# 2 -0.004395 0.007702 -0.002464 0.000000 0.000000 0.000000
# 3 -0.002464 -0.002464 0.022716 0.000000 0.000000 0.000000
# 4 0.000000 0.000000 0.000000 0.045451 0.000000 0.000000
# 5 0.000000 0.000000 0.000000 0.000000 0.045451 0.000000
# 6 0.000000 0.000000 0.000000 0.000000 0.000000 0.024194
#
#
# Mechanical properties :
#
#
# Convention : Reuss Voigt Hill
#
# Bulk Modulus (GPa) = 51.35151 103.36618 77.35885
# Shear Modulus (GPa) = 28.03400 35.63932 31.83666
#
# Velocity S-wave (km/s) = 3.95650 4.46101 4.21631
# Velocity P-wave (km/s) = 7.03889 9.17893 8.17921
#
# Compressibility (1/GPa) = 0.01947362
#
# Stress axis : x y z
#
# Youngs Moduli (GPa) = 129.83178 129.83178 44.02274
#
# Poissons Ratio (x) = 0.57059 0.10848
# Poissons Ratio (y) = 0.57059 0.10848
# Poissons Ratio (z) = 0.31993 0.31993
#
# Static dielectric constant tensor:
#      x y z
#    x 1.595890 0.000000 0.000000 
#    y 0.000000 1.595890 0.000000 
#    z 0.000000 0.000000 1.583450 
# 
# From -- ./inp_files/6959.got.cif
#   From: 2010.05.17/outbox.cif.g08.bks.cpg/sg191_4_cif.got.tgz:6959.got - 2010.05.20 12:20:32.
