data_PCOD9588305
_publ_section_title
;
Structure prediction by ZEFSAII (Michael W. Deem and Ramdas Pophale) SiO2 
 PCOD9588305
Probable space group: P 6/M C C
;
_chemical_formula_sum "Si O2"
_cell_formula_units_Z 192
_cell_length_a 30.019464
_cell_length_b 30.019464
_cell_length_c 17.584414
_cell_angle_alpha 90.000000
_cell_angle_beta 90.000000
_cell_angle_gamma 120.000000
_cell_volume 13723.484589
_symmetry_space_group_name_H-M "P 6/M C C"
_symmetry_group_IT_number 192
_symmetry_cell_setting 'hexagonal'
loop_
_space_group_symop_operation_xyz
x,y,z
x-y,x,z
-y,x-y,z
-x,-y,z
-x+y,-x,z
y,-x+y,z
x-y,-y,1/2-z
-x,-x+y,1/2-z
y,x,1/2-z
-y,-x,1/2-z
-x+y,y,1/2-z
x,x-y,1/2-z
-x,-y,-z
-x+y,-x,-z
y,-x+y,-z
x,y,-z
x-y,x,-z
-y,x-y,-z
-x+y,y,1/2+z
x,x-y,1/2+z
-y,-x,1/2+z
y,x,1/2+z
x-y,-y,1/2+z
-x,-x+y,1/2+z
loop_
_atom_site_type_symbol
_atom_site_label
_atom_site_fract_x
_atom_site_fract_y
_atom_site_fract_z
Si Si1 0.693024 0.579133 0.158335
Si Si2 0.886108 0.306976 0.341665
Si Si3 0.418928 0.939312 0.091265
Si Si4 0.848801 0.697601 0.337377
Si Si5 0.693191 0.940421 0.408922
Si Si6 0.418928 0.479616 0.091265
Si Si7 0.213700 0.786301 0.337315
Si Si8 0.693191 0.752770 0.591078
O O1 0.696682 0.582853 0.250000
O O2 0.635117 0.542607 0.132330
O O3 0.731331 0.558992 0.129542
O O4 0.715326 0.636574 0.125566
O O5 0.907489 0.364882 0.367671
O O6 0.921248 0.284674 0.374434
O O7 0.827661 0.268669 0.370458
O O8 0.462522 0.925044 0.112213
O O9 0.443544 1.000000 0.108228
O O10 0.411720 0.933618 0.000000
O O11 0.857352 0.714703 0.250000
O O12 0.810001 0.712094 0.378094
O O13 0.817506 0.635011 0.336896
O O14 0.902093 0.712094 0.378095
O O15 0.688559 0.936085 0.500000
O O16 0.730542 1.000000 0.388747
O O17 0.411720 0.478102 0.000000
O O18 0.222839 0.777162 0.250000
O O19 0.688558 0.752473 0.500000
#
# Coordination Sequence:
#
# PCOD9588305 Si02
#       8
#    24  24  24  24  24  24  24  24
#     4  10  18  28  43  61  82 107 138 174 208 243
#     4  10  18  28  43  61  82 107 138 174 208 243
#     4   9  18  31  43  56  80 112 139 166 205 251
#     4   9  17  29  43  59  81 107 138 178 213 239
#     4  10  19  29  42  60  83 113 145 173 206 250
#     4   9  18  31  43  56  80 112 139 166 205 251
#     4   7  14  27  39  55  79 103 125 158 204 241
#     4  10  19  29  42  60  83 113 145 173 206 250
#
# _framework density 13.990615999999999
#
# number of rings (size 3 to 8) (size 9 to 14) (size 15 to 20)
#    0.000    2.750    0.000    4.875    0.000    6.000 
#    0.000    3.125    0.000    0.000    0.000    0.000 
#    1.250    0.000    0.750    0.375    1.000    7.250 
#
# Total GULP energy -1069187.164104 kJ/mol
# GULP energy per Si atom -5568.683146 kJ/mol
# Density = 1.395877 g / cm^3
# Si number density = 13.990616 Si / 1000 Ang^3
#
#
#
# Elastic Constant Matrix: (Units=GPa)
#
#
# Indices 1 2 3 4 5 6 
#
# 1 107.5898 60.4258 40.2466 0.0000 0.0000 0.0000
# 2 60.4258 107.5898 40.2466 0.0000 0.0000 0.0000
# 3 40.2466 40.2466 45.6110 0.0000 0.0000 0.0000
# 4 0.0000 0.0000 0.0000 19.3823 0.0000 0.0000
# 5 0.0000 0.0000 0.0000 0.0000 19.3823 0.0000
# 6 0.0000 0.0000 0.0000 0.0000 0.0000 23.5820
#
#
#
# Elastic Compliance Matrix: (Units=1/GPa)
#
#
# Indices 1 2 3 4 5 6 
#
# 1 0.015757 -0.005446 -0.009098 0.000000 0.000000 0.000000
# 2 -0.005446 0.015757 -0.009098 0.000000 0.000000 0.000000
# 3 -0.009098 -0.009098 0.037980 0.000000 0.000000 0.000000
# 4 0.000000 0.000000 0.000000 0.051593 0.000000 0.000000
# 5 0.000000 0.000000 0.000000 0.000000 0.051593 0.000000
# 6 0.000000 0.000000 0.000000 0.000000 0.000000 0.042405
#
#
# Mechanical properties :
#
#
# Convention : Reuss Voigt Hill
#
# Bulk Modulus (GPa) = 45.02523 60.29208 52.65865
# Shear Modulus (GPa) = 18.53421 20.46079 19.49750
#
# Velocity S-wave (km/s) = 3.64367 3.82837 3.73716
# Velocity P-wave (km/s) = 7.06782 7.92023 7.50614
#
# Compressibility (1/GPa) = 0.02220977
#
# Stress axis : x y z
#
# Youngs Moduli (GPa) = 63.46587 63.46587 26.32960
#
# Poissons Ratio (x) = 0.34564 0.23954
# Poissons Ratio (y) = 0.34564 0.23954
# Poissons Ratio (z) = 0.57740 0.57740
#
# Static dielectric constant tensor:
#      x y z
#    x 1.457790 0.000000 0.000000 
#    y 0.000000 1.457790 0.000000 
#    z 0.000000 0.000000 1.475440 
# 
# From -- ./inp_files/3584.got.cif
#   From: 2010.05.17/outbox.cif.g08.bks.cpg/sg192_2_cif.got.tgz:3584.got - 2010.05.20 12:28:01.
