data_PCOD9588293
_publ_section_title
;
Structure prediction by ZEFSAII (Michael W. Deem and Ramdas Pophale) SiO2 
 PCOD9588293
Probable space group: P 6/M C C
;
_chemical_formula_sum "Si O2"
_cell_formula_units_Z 144
_cell_length_a 24.177816
_cell_length_b 24.177816
_cell_length_c 17.352383
_cell_angle_alpha 90.000000
_cell_angle_beta 90.000000
_cell_angle_gamma 120.000000
_cell_volume 8784.638468
_symmetry_space_group_name_H-M "P 6/M C C"
_symmetry_group_IT_number 192
_symmetry_cell_setting 'hexagonal'
loop_
_space_group_symop_operation_xyz
x,y,z
x-y,x,z
-y,x-y,z
-x,-y,z
-x+y,-x,z
y,-x+y,z
x-y,-y,1/2-z
-x,-x+y,1/2-z
y,x,1/2-z
-y,-x,1/2-z
-x+y,y,1/2-z
x,x-y,1/2-z
-x,-y,-z
-x+y,-x,-z
y,-x+y,-z
x,y,-z
x-y,x,-z
-y,x-y,-z
-x+y,y,1/2+z
x,x-y,1/2+z
-y,-x,1/2+z
y,x,1/2+z
x-y,-y,1/2+z
-x,-x+y,1/2+z
loop_
_atom_site_type_symbol
_atom_site_label
_atom_site_fract_x
_atom_site_fract_y
_atom_site_fract_z
Si Si1 0.674245 0.533295 0.413682
Si Si2 0.654325 0.836162 0.411656
Si Si3 0.884335 0.294274 0.818229
Si Si4 0.667719 0.208590 0.235292
Si Si5 0.246037 0.298507 0.307982
Si Si6 0.366835 0.368152 0.408782
O O1 0.659594 0.506720 0.500000
O O2 0.745742 0.594534 0.414358
O O3 0.671040 0.484645 0.350835
O O4 0.630239 0.564611 0.395125
O O5 0.676903 0.840326 0.500000
O O6 0.624978 0.766163 0.375311
O O7 0.704376 0.890499 0.352755
O O8 0.829968 0.308122 0.788825
O O9 0.913434 0.275555 0.745513
O O10 0.939790 0.355722 0.861351
O O11 0.717499 0.282502 0.250000
O O12 0.596429 0.192858 0.250000
O O13 0.245446 0.245446 0.250000
O O14 0.298620 0.313797 0.374341
O O15 0.369897 0.360509 0.500000
#
# Coordination Sequence:
#
# PCOD9588293 Si02
#       6
#    24  24  24  24  24  24
#     4   9  18  35  54  72  98 128 153 191 250 301
#     4  10  17  28  49  71  96 129 161 200 247 298
#     4  11  18  31  49  75  98 121 164 200 245 306
#     4  12  23  39  56  75  94 121 163 207 251 305
#     4   9  16  26  46  67  98 127 158 201 244 294
#     4   9  17  29  49  76 101 124 152 195 247 302
#
# _framework density 16.392251000000002
#
# number of rings (size 3 to 8) (size 9 to 14) (size 15 to 20)
#    0.000    2.000    5.000    2.667    0.000    0.000 
#    0.000    4.167    0.000    2.000    0.000    0.000 
#    0.000    0.000    0.000    0.000    0.000    0.000 
#
# Total GULP energy -801868.003995 kJ/mol
# GULP energy per Si atom -5568.527806 kJ/mol
# Density = 1.635494 g / cm^3
# Si number density = 16.392251 Si / 1000 Ang^3
#
#
#
# Elastic Constant Matrix: (Units=GPa)
#
#
# Indices 1 2 3 4 5 6 
#
# 1 30.5788 28.7462 28.0000 0.0000 0.0000 0.0000
# 2 28.7462 30.5788 28.0000 0.0000 0.0000 0.0000
# 3 28.0000 28.0000 119.5484 0.0000 0.0000 0.0000
# 4 0.0000 0.0000 0.0000 13.4782 0.0000 0.0000
# 5 0.0000 0.0000 0.0000 0.0000 13.4782 0.0000
# 6 0.0000 0.0000 0.0000 0.0000 0.0000 0.9163
#
#
#
# Elastic Compliance Matrix: (Units=1/GPa)
#
#
# Indices 1 2 3 4 5 6 
#
# 1 0.283661 -0.262020 -0.005069 0.000000 0.000000 0.000000
# 2 -0.262020 0.283661 -0.005069 0.000000 0.000000 0.000000
# 3 -0.005069 -0.005069 0.010739 0.000000 0.000000 0.000000
# 4 0.000000 0.000000 0.000000 0.074194 0.000000 0.000000
# 5 0.000000 0.000000 0.000000 0.000000 0.074194 0.000000
# 6 0.000000 0.000000 0.000000 0.000000 0.000000 1.091362
#
#
# Mechanical properties :
#
#
# Convention : Reuss Voigt Hill
#
# Bulk Modulus (GPa) = 29.63288 38.91097 34.27192
# Shear Modulus (GPa) = 2.10671 11.97185 7.03928
#
# Velocity S-wave (km/s) = 1.13489 2.70540 2.07451
# Velocity P-wave (km/s) = 4.45353 5.79205 5.16632
#
# Compressibility (1/GPa) = 0.03374630
#
# Stress axis : x y z
#
# Youngs Moduli (GPa) = 3.52534 3.52534 93.11770
#
# Poissons Ratio (x) = 0.92371 0.47198
# Poissons Ratio (y) = 0.92371 0.47198
# Poissons Ratio (z) = 0.01787 0.01787
#
# Static dielectric constant tensor:
#      x y z
#    x 1.568060 0.000000 0.000000 
#    y 0.000000 1.568060 0.000000 
#    z 0.000000 0.000000 1.587490 
# 
# From -- ./inp_files/4326.got.cif
#   From: 2010.05.17/outbox.cif.g08.bks.cpg/sg192_3_cif.got.tgz:4326.got - 2010.05.20 12:28:01.
