data_PCOD9588874
_publ_section_title
;
Structure prediction by ZEFSAII (Michael W. Deem and Ramdas Pophale) SiO2 
 PCOD9588874
Probable space group: P 63/M C M
;
_chemical_formula_sum "Si O2"
_cell_formula_units_Z 168
_cell_length_a 19.437804
_cell_length_b 19.437804
_cell_length_c 25.186566
_cell_angle_alpha 90.000000
_cell_angle_beta 90.000000
_cell_angle_gamma 120.000000
_cell_volume 8241.267058
_symmetry_space_group_name_H-M "P 63/M C M"
_symmetry_group_IT_number 193
_symmetry_cell_setting 'hexagonal'
loop_
_space_group_symop_operation_xyz
x,y,z
x-y,x,1/2+z
-y,x-y,z
-x,-y,1/2+z
-x+y,-x,z
y,-x+y,1/2+z
x-y,-y,1/2-z
-x,-x+y,1/2-z
y,x,1/2-z
-y,-x,-z
-x+y,y,-z
x,x-y,-z
-x,-y,-z
-x+y,-x,1/2-z
y,-x+y,-z
x,y,1/2-z
x-y,x,-z
-y,x-y,1/2-z
-x+y,y,1/2+z
x,x-y,1/2+z
-y,-x,1/2+z
y,x,z
x-y,-y,z
-x,-x+y,z
loop_
_atom_site_type_symbol
_atom_site_label
_atom_site_fract_x
_atom_site_fract_y
_atom_site_fract_z
Si Si1 0.540076 0.093857 0.884330
Si Si2 0.672256 0.759002 0.093679
Si Si3 0.302810 0.432027 0.191041
Si Si4 0.638677 0.724763 0.525609
Si Si5 0.502019 0.791393 0.640429
Si Si6 0.540919 0.322159 0.046129
Si Si7 0.187744 0.914504 0.866385
O O1 0.469025 0.098077 0.853856
O O2 0.618876 0.146395 0.848563
O O3 0.564509 0.152072 0.936497
O O4 0.509889 0.000000 0.893152
O O5 0.687754 0.687754 0.106532
O O6 0.585442 0.738953 0.110765
O O7 0.733509 0.836728 0.126188
O O8 0.676298 0.767191 0.030019
O O9 0.335217 0.439450 0.250000
O O10 0.252609 0.477892 0.186488
O O11 0.241749 0.340850 0.175967
O O12 0.644319 0.644319 0.525024
O O13 0.550755 0.708915 0.531181
O O14 0.687837 0.772709 0.576658
O O15 0.451078 0.720343 0.599041
O O16 0.569968 0.284984 0.000000
O O17 0.197450 0.000000 0.857920
#
# Coordination Sequence:
#
# PCOD9588874 Si02
#       7
#    24  24  24  24  24  24  24
#     4  11  23  39  59  85 115 150 194 245 297 347
#     4  10  18  30  52  80 113 146 178 214 263 329
#     4  10  22  40  61  81 103 135 183 238 293 348
#     4  10  16  28  53  80 105 139 176 219 266 314
#     4  10  21  37  56  77 111 142 181 233 289 338
#     4  11  19  36  54  75 116 151 187 226 274 335
#     4  10  18  31  53  80 110 140 176 224 270 316
#
# _framework density 20.385214999999999
#
# number of rings (size 3 to 8) (size 9 to 14) (size 15 to 20)
#    0.000    1.714    5.714    1.714    0.000    2.286 
#    6.857    0.714    0.000   10.571    0.000    0.000 
#    0.000    3.429    0.000    0.429    0.000    0.000 
#
# Total GULP energy -935820.908819 kJ/mol
# GULP energy per Si atom -5570.362552 kJ/mol
# Density = 2.033882 g / cm^3
# Si number density = 20.385215 Si / 1000 Ang^3
#
#
#
# Elastic Constant Matrix: (Units=GPa)
#
#
# Indices 1 2 3 4 5 6 
#
# 1 73.0068 26.2196 0.1016 0.0000 0.0000 0.0000
# 2 26.2196 73.0068 0.1016 0.0000 0.0000 0.0000
# 3 0.1016 0.1016 65.1165 0.0000 0.0000 0.0000
# 4 0.0000 0.0000 0.0000 7.8271 0.0000 0.0000
# 5 0.0000 0.0000 0.0000 0.0000 7.8271 0.0000
# 6 0.0000 0.0000 0.0000 0.0000 0.0000 23.3936
#
#
#
# Elastic Compliance Matrix: (Units=1/GPa)
#
#
# Indices 1 2 3 4 5 6 
#
# 1 0.015726 -0.005648 -0.000016 0.000000 0.000000 0.000000
# 2 -0.005648 0.015726 -0.000016 0.000000 0.000000 0.000000
# 3 -0.000016 -0.000016 0.015357 0.000000 0.000000 0.000000
# 4 0.000000 0.000000 0.000000 0.127761 0.000000 0.000000
# 5 0.000000 0.000000 0.000000 0.000000 0.127761 0.000000
# 6 0.000000 0.000000 0.000000 0.000000 0.000000 0.042747
#
#
# Mechanical properties :
#
#
# Convention : Reuss Voigt Hill
#
# Bulk Modulus (GPa) = 28.20853 29.33061 28.76957
# Shear Modulus (GPa) = 13.57763 20.12338 16.85050
#
# Velocity S-wave (km/s) = 2.58360 3.14531 2.87819
# Velocity P-wave (km/s) = 4.77156 5.25453 5.01886
#
# Compressibility (1/GPa) = 0.03545026
#
# Stress axis : x y z
#
# Youngs Moduli (GPa) = 63.59022 63.59022 65.11627
#
# Poissons Ratio (x) = 0.35914 0.00102
# Poissons Ratio (y) = 0.35914 0.00102
# Poissons Ratio (z) = 0.00100 0.00100
#
# Static dielectric constant tensor:
#      x y z
#    x 1.806410 0.000000 0.000000 
#    y 0.000000 1.806410 0.000000 
#    z 0.000000 0.000000 1.739140 
# 
# From -- ./inp_files/8491.got.cif
#   From: 2010.05.17/outbox.cif.g08.bks.cpg/sg193_5_cif.got.tgz:8491.got - 2010.05.20 12:33:02.
