data_PCOD9588362
_publ_section_title
;
Structure prediction by ZEFSAII (Michael W. Deem and Ramdas Pophale) SiO2 
 PCOD9588362
Probable space group: P 6/M C C
;
_chemical_formula_sum "Si O2"
_cell_formula_units_Z 168
_cell_length_a 18.254842
_cell_length_b 18.254842
_cell_length_c 31.008383
_cell_angle_alpha 90.000000
_cell_angle_beta 90.000000
_cell_angle_gamma 120.000000
_cell_volume 8948.822791
_symmetry_space_group_name_H-M "P 6/M C C"
_symmetry_group_IT_number 192
_symmetry_cell_setting 'hexagonal'
loop_
_space_group_symop_operation_xyz
x,y,z
x-y,x,z
-y,x-y,z
-x,-y,z
-x+y,-x,z
y,-x+y,z
x-y,-y,1/2-z
-x,-x+y,1/2-z
y,x,1/2-z
-y,-x,1/2-z
-x+y,y,1/2-z
x,x-y,1/2-z
-x,-y,-z
-x+y,-x,-z
y,-x+y,-z
x,y,-z
x-y,x,-z
-y,x-y,-z
-x+y,y,1/2+z
x,x-y,1/2+z
-y,-x,1/2+z
y,x,1/2+z
x-y,-y,1/2+z
-x,-x+y,1/2+z
loop_
_atom_site_type_symbol
_atom_site_label
_atom_site_fract_x
_atom_site_fract_y
_atom_site_fract_z
Si Si1 0.000000 0.632039 0.250000
Si Si2 0.817517 0.495145 0.904963
Si Si3 0.488724 0.652794 0.633606
Si Si4 0.177274 0.665623 0.236347
Si Si5 0.938027 0.269007 0.159966
Si Si6 0.431997 0.669900 0.000000
Si Si7 0.206942 0.889134 0.875646
Si Si8 0.798775 0.902648 0.548897
O O1 0.914751 0.543224 0.241680
O O2 0.971631 0.661425 0.292952
O O3 0.848963 0.435001 0.884163
O O4 0.724844 0.473106 0.887290
O O5 0.807604 0.479416 0.956282
O O6 0.874385 0.591305 0.889831
O O7 0.486260 0.658432 0.685095
O O8 0.586347 0.675123 0.629426
O O9 0.238437 0.761564 0.250000
O O10 0.215276 0.607638 0.250000
O O11 0.851824 0.178763 0.160328
O O12 0.015207 0.263120 0.139750
O O13 0.410921 0.746931 0.000000
O O14 0.146591 0.871715 0.916392
O O15 0.854417 0.857784 0.554031
O O16 0.764846 0.885976 0.500000
#
# Coordination Sequence:
#
# PCOD9588362 Si02
#       8
#    12  24  24  24  24  12  24  24
#     4  10  25  40  60  86 122 161 200 250 307 360
#     4  11  21  36  60  83 122 152 210 242 292 346
#     4  10  21  38  57  87 113 164 194 251 290 346
#     4  11  23  38  59  89 121 158 203 253 305 356
#     4  10  24  40  63  86 119 157 199 243 304 359
#     4  10  18  36  58  83 113 157 207 252 284 341
#     4  11  23  39  61  90 117 159 193 245 300 364
#     4  10  20  38  63  92 120 148 191 243 303 366
#
# _framework density 18.773419000000001
#
# number of rings (size 3 to 8) (size 9 to 14) (size 15 to 20)
#    0.143    1.429    2.857    1.643    9.000    1.143 
#    0.000    0.000    1.571    0.857    0.000    0.000 
#    0.000    2.286    0.000    0.000    0.000    0.071 
#
# Total GULP energy -936825.781581 kJ/mol
# GULP energy per Si atom -5576.343938 kJ/mol
# Density = 1.873069 g / cm^3
# Si number density = 18.773419 Si / 1000 Ang^3
#
#
#
# Elastic Constant Matrix: (Units=GPa)
#
#
# Indices 1 2 3 4 5 6 
#
# 1 82.4514 29.1521 26.1601 0.0000 0.0000 0.0000
# 2 29.1521 82.4514 26.1601 0.0000 0.0000 0.0000
# 3 26.1601 26.1601 92.4230 0.0000 0.0000 0.0000
# 4 0.0000 0.0000 0.0000 65.9693 0.0000 0.0000
# 5 0.0000 0.0000 0.0000 0.0000 65.9693 0.0000
# 6 0.0000 0.0000 0.0000 0.0000 0.0000 26.6496
#
#
#
# Elastic Compliance Matrix: (Units=1/GPa)
#
#
# Indices 1 2 3 4 5 6 
#
# 1 0.014547 -0.004215 -0.002924 0.000000 0.000000 0.000000
# 2 -0.004215 0.014547 -0.002924 0.000000 0.000000 0.000000
# 3 -0.002924 -0.002924 0.012475 0.000000 0.000000 0.000000
# 4 0.000000 0.000000 0.000000 0.015159 0.000000 0.000000
# 5 0.000000 0.000000 0.000000 0.000000 0.015159 0.000000
# 6 0.000000 0.000000 0.000000 0.000000 0.000000 0.037524
#
#
# Mechanical properties :
#
#
# Convention : Reuss Voigt Hill
#
# Bulk Modulus (GPa) = 46.64028 46.69671 46.66849
# Shear Modulus (GPa) = 36.58071 43.44120 40.01096
#
# Velocity S-wave (km/s) = 4.41901 4.81560 4.62156
# Velocity P-wave (km/s) = 7.13685 7.47314 7.30693
#
# Compressibility (1/GPa) = 0.02144070
#
# Stress axis : x y z
#
# Youngs Moduli (GPa) = 68.74467 68.74467 80.15904
#
# Poissons Ratio (x) = 0.28979 0.23440
# Poissons Ratio (y) = 0.28979 0.23440
# Poissons Ratio (z) = 0.20102 0.20102
#
# Static dielectric constant tensor:
#      x y z
#    x 1.666540 0.000000 0.000000 
#    y 0.000000 1.666540 0.000000 
#    z 0.000000 0.000000 1.649960 
# 
# From -- ./inp_files/7238.got.cif
#   From: 2010.05.17/outbox.cif.g08.bks.cpg/sg192_4_cif.got.tgz:7238.got - 2010.05.20 12:28:01.
