data_PCOD9588498
_publ_section_title
;
Structure prediction by ZEFSAII (Michael W. Deem and Ramdas Pophale) SiO2 
 PCOD9588498
Probable space group: P 6/M C C
;
_chemical_formula_sum "Si O2"
_cell_formula_units_Z 168
_cell_length_a 17.928000
_cell_length_b 17.928000
_cell_length_c 36.365033
_cell_angle_alpha 90.000000
_cell_angle_beta 90.000000
_cell_angle_gamma 120.000000
_cell_volume 10122.279028
_symmetry_space_group_name_H-M "P 6/M C C"
_symmetry_group_IT_number 192
_symmetry_cell_setting 'hexagonal'
loop_
_space_group_symop_operation_xyz
x,y,z
x-y,x,z
-y,x-y,z
-x,-y,z
-x+y,-x,z
y,-x+y,z
x-y,-y,1/2-z
-x,-x+y,1/2-z
y,x,1/2-z
-y,-x,1/2-z
-x+y,y,1/2-z
x,x-y,1/2-z
-x,-y,-z
-x+y,-x,-z
y,-x+y,-z
x,y,-z
x-y,x,-z
-y,x-y,-z
-x+y,y,1/2+z
x,x-y,1/2+z
-y,-x,1/2+z
y,x,1/2+z
x-y,-y,1/2+z
-x,-x+y,1/2+z
loop_
_atom_site_type_symbol
_atom_site_label
_atom_site_fract_x
_atom_site_fract_y
_atom_site_fract_z
Si Si1 0.667404 0.509391 0.679108
Si Si2 0.096656 0.366499 0.609737
Si Si3 0.841987 0.332596 0.820892
Si Si4 0.630233 0.728430 0.750000
Si Si5 0.666573 0.158312 0.042402
Si Si6 0.158312 0.491739 0.542402
Si Si7 0.730156 0.096656 0.890263
O O1 0.573752 0.426248 0.680367
O O2 0.741293 0.482586 0.679293
O O3 0.686322 0.570609 0.714238
O O4 0.682609 0.565230 0.642486
O O5 0.117379 0.434770 0.642486
O O6 0.108167 0.416574 0.571527
O O7 0.170203 0.340407 0.611490
O O8 1.000000 0.289718 0.613530
O O9 0.884287 0.313678 0.785762
O O10 0.706085 0.706085 0.750000
O O11 0.658195 0.829098 0.750000
O O12 0.574559 0.149118 0.050569
O O13 0.741613 0.258387 0.045364
O O14 0.691593 0.108167 0.071527
O O15 0.666055 0.131960 0.000000
O O16 0.131960 0.465905 0.500000
#
# Coordination Sequence:
#
# PCOD9588498 Si02
#       7
#    24  24  24  24  24  24  24
#     4  10  20  33  50  73 102 134 164 192 224 267
#     4  10  21  35  50  69  93 122 156 196 242 286
#     4  10  20  33  50  73 102 134 164 192 224 267
#     4  10  21  35  51  72  97 127 162 202 247 287
#     4   9  17  29  46  69  98 131 163 192 223 264
#     4   9  17  29  46  69  98 131 163 192 223 264
#     4  10  21  35  50  69  93 122 156 196 242 286
#
# _framework density 16.597052000000001
#
# number of rings (size 3 to 8) (size 9 to 14) (size 15 to 20)
#    0.000    2.286    0.000    2.714    0.000    6.286 
#    0.000    5.714    0.000    0.429    0.000    0.000 
#    0.000    6.857    0.000    7.143    0.000    0.571 
#
# Total GULP energy -937722.096099 kJ/mol
# GULP energy per Si atom -5581.679143 kJ/mol
# Density = 1.655928 g / cm^3
# Si number density = 16.597052 Si / 1000 Ang^3
#
#
#
# Elastic Constant Matrix: (Units=GPa)
#
#
# Indices 1 2 3 4 5 6 
#
# 1 94.5161 87.1235 43.1431 0.0000 0.0000 0.0000
# 2 87.1235 94.5161 43.1431 0.0000 0.0000 0.0000
# 3 43.1431 43.1431 81.9534 0.0000 0.0000 0.0000
# 4 0.0000 0.0000 0.0000 5.4290 0.0000 0.0000
# 5 0.0000 0.0000 0.0000 0.0000 5.4290 0.0000
# 6 0.0000 0.0000 0.0000 0.0000 0.0000 3.6963
#
#
#
# Elastic Compliance Matrix: (Units=1/GPa)
#
#
# Indices 1 2 3 4 5 6 
#
# 1 0.071306 -0.063965 -0.003865 0.000000 0.000000 0.000000
# 2 -0.063965 0.071306 -0.003865 0.000000 0.000000 0.000000
# 3 -0.003865 -0.003865 0.016271 0.000000 0.000000 0.000000
# 4 0.000000 0.000000 0.000000 0.184196 0.000000 0.000000
# 5 0.000000 0.000000 0.000000 0.000000 0.184196 0.000000
# 6 0.000000 0.000000 0.000000 0.000000 0.000000 0.270541
#
#
# Mechanical properties :
#
#
# Convention : Reuss Voigt Hill
#
# Bulk Modulus (GPa) = 64.53762 68.64500 66.59131
# Shear Modulus (GPa) = 5.28335 9.41592 7.34963
#
# Velocity S-wave (km/s) = 1.78612 2.38444 2.10663
# Velocity P-wave (km/s) = 6.57442 7.00216 6.79166
#
# Compressibility (1/GPa) = 0.01549484
#
# Stress axis : x y z
#
# Youngs Moduli (GPa) = 14.02407 14.02407 61.45870
#
# Poissons Ratio (x) = 0.89704 0.23752
# Poissons Ratio (y) = 0.89704 0.23752
# Poissons Ratio (z) = 0.05420 0.05420
#
# Static dielectric constant tensor:
#      x y z
#    x 1.538670 0.000000 0.000000 
#    y 0.000000 1.538670 0.000000 
#    z 0.000000 0.000000 1.568530 
# 
# From -- ./inp_files/7198.got.cif
#   From: 2010.05.17/outbox.cif.g08.bks.cpg/sg192_4_cif.got.tgz:7198.got - 2010.05.20 12:28:01.
