data_PCOD9588809
_publ_section_title
;
Structure prediction by ZEFSAII (Michael W. Deem and Ramdas Pophale) SiO2 
 PCOD9588809
Probable space group: P 6/M C C
;
_chemical_formula_sum "Si O2"
_cell_formula_units_Z 84
_cell_length_a 14.062681
_cell_length_b 14.062681
_cell_length_c 23.339396
_cell_angle_alpha 90.000000
_cell_angle_beta 90.000000
_cell_angle_gamma 120.000000
_cell_volume 3997.205672
_symmetry_space_group_name_H-M "P 6/M C C"
_symmetry_group_IT_number 192
_symmetry_cell_setting 'hexagonal'
loop_
_space_group_symop_operation_xyz
x,y,z
x-y,x,z
-y,x-y,z
-x,-y,z
-x+y,-x,z
y,-x+y,z
x-y,-y,1/2-z
-x,-x+y,1/2-z
y,x,1/2-z
-y,-x,1/2-z
-x+y,y,1/2-z
x,x-y,1/2-z
-x,-y,-z
-x+y,-x,-z
y,-x+y,-z
x,y,-z
x-y,x,-z
-y,x-y,-z
-x+y,y,1/2+z
x,x-y,1/2+z
-y,-x,1/2+z
y,x,1/2+z
x-y,-y,1/2+z
-x,-x+y,1/2+z
loop_
_atom_site_type_symbol
_atom_site_label
_atom_site_fract_x
_atom_site_fract_y
_atom_site_fract_z
Si Si1 0.515622 0.396267 0.435508
Si Si2 0.435232 0.263138 0.098789
Si Si3 0.331815 0.881478 0.227772
Si Si4 0.743189 0.817844 0.000000
O O1 0.500000 0.500000 0.424349
O O2 0.475856 0.356694 0.500000
O O3 0.646272 0.453003 0.431685
O O4 0.451046 0.293237 0.394467
O O5 0.438052 0.316484 0.159419
O O6 0.334333 0.233528 0.056257
O O7 0.219519 0.780482 0.250000
O O8 0.433254 0.866508 0.250000
O O9 0.359417 0.000000 0.250000
O O10 0.840882 0.789738 0.000000
#
# Coordination Sequence:
#
# PCOD9588809 Si02
#       4
#    24  24  24  12
#     4  11  22  38  63 102 142 177 219 279 353 433
#     4  12  24  42  72 100 143 185 235 287 361 440
#     4  11  27  48  71 104 145 196 249 302 361 433
#     4  12  27  46  72 106 142 192 239 308 370 426
#
# _framework density 21.014679000000001
#
# number of rings (size 3 to 8) (size 9 to 14) (size 15 to 20)
#    0.000    0.571    2.857    4.429   12.000    0.000 
#    0.000    0.000    0.000    0.286    0.000    0.000 
#    0.000    0.000    0.000    0.000    0.000    0.000 
#
# Total GULP energy -469804.649254 kJ/mol
# GULP energy per Si atom -5592.912491 kJ/mol
# Density = 2.096685 g / cm^3
# Si number density = 21.014679 Si / 1000 Ang^3
#
#
#
# Elastic Constant Matrix: (Units=GPa)
#
#
# Indices 1 2 3 4 5 6 
#
# 1 134.3339 51.1072 63.8345 0.0000 0.0000 0.0000
# 2 51.1072 134.3339 63.8345 0.0000 0.0000 0.0000
# 3 63.8345 63.8345 165.8173 0.0000 0.0000 0.0000
# 4 0.0000 0.0000 0.0000 23.2985 0.0000 0.0000
# 5 0.0000 0.0000 0.0000 0.0000 23.2985 0.0000
# 6 0.0000 0.0000 0.0000 0.0000 0.0000 41.6134
#
#
#
# Elastic Compliance Matrix: (Units=1/GPa)
#
#
# Indices 1 2 3 4 5 6 
#
# 1 0.009676 -0.002339 -0.002825 0.000000 0.000000 0.000000
# 2 -0.002339 0.009676 -0.002825 0.000000 0.000000 0.000000
# 3 -0.002825 -0.002825 0.008205 0.000000 0.000000 0.000000
# 4 0.000000 0.000000 0.000000 0.042921 0.000000 0.000000
# 5 0.000000 0.000000 0.000000 0.000000 0.042921 0.000000
# 6 0.000000 0.000000 0.000000 0.000000 0.000000 0.024031
#
#
# Mechanical properties :
#
#
# Convention : Reuss Voigt Hill
#
# Bulk Modulus (GPa) = 86.34468 88.00417 87.17443
# Shear Modulus (GPa) = 31.79283 34.68934 33.24108
#
# Velocity S-wave (km/s) = 3.89380 4.06731 3.98150
# Velocity P-wave (km/s) = 7.83534 8.00161 7.91891
#
# Compressibility (1/GPa) = 0.01158149
#
# Stress axis : x y z
#
# Youngs Moduli (GPa) = 103.34566 103.34566 121.86974
#
# Poissons Ratio (x) = 0.24174 0.34423
# Poissons Ratio (y) = 0.24174 0.34423
# Poissons Ratio (z) = 0.29191 0.29191
#
# Static dielectric constant tensor:
#      x y z
#    x 1.826370 0.000000 0.000000 
#    y 0.000000 1.826370 0.000000 
#    z 0.000000 0.000000 1.832690 
# 
# From -- ./inp_files/5593.got.cif
#   From: 2010.05.17/outbox.cif.g08.bks.cpg/sg192_3_cif.got.tgz:5593.got - 2010.05.20 12:28:01.
