data_PCOD9588361
_publ_section_title
;
Structure prediction by ZEFSAII (Michael W. Deem and Ramdas Pophale) SiO2 
 PCOD9588361
Probable space group: P 6/M C C
;
_chemical_formula_sum "Si O2"
_cell_formula_units_Z 72
_cell_length_a 22.058746
_cell_length_b 22.058746
_cell_length_c 9.751061
_cell_angle_alpha 90.000000
_cell_angle_beta 90.000000
_cell_angle_gamma 120.000000
_cell_volume 4109.075725
_symmetry_space_group_name_H-M "P 6/M C C"
_symmetry_group_IT_number 192
_symmetry_cell_setting 'hexagonal'
loop_
_space_group_symop_operation_xyz
x,y,z
x-y,x,z
-y,x-y,z
-x,-y,z
-x+y,-x,z
y,-x+y,z
x-y,-y,1/2-z
-x,-x+y,1/2-z
y,x,1/2-z
-y,-x,1/2-z
-x+y,y,1/2-z
x,x-y,1/2-z
-x,-y,-z
-x+y,-x,-z
y,-x+y,-z
x,y,-z
x-y,x,-z
-y,x-y,-z
-x+y,y,1/2+z
x,x-y,1/2+z
-y,-x,1/2+z
y,x,1/2+z
x-y,-y,1/2+z
-x,-x+y,1/2+z
loop_
_atom_site_type_symbol
_atom_site_label
_atom_site_fract_x
_atom_site_fract_y
_atom_site_fract_z
Si Si1 0.793925 0.460431 0.168106
Si Si2 0.219402 0.307687 0.000000
Si Si3 0.920819 0.309997 0.258961
Si Si4 0.070438 0.289188 0.000000
O O1 0.732806 0.465612 0.250000
O O2 0.798024 0.399012 0.250000
O O3 0.864917 0.532959 0.197560
O O4 0.782937 0.449816 0.000000
O O5 0.261731 0.359293 0.125071
O O6 0.136966 0.278979 0.000000
O O7 0.229203 0.239708 0.000000
O O8 0.922258 0.258957 0.371990
O O9 0.000000 0.374996 0.250000
#
# Coordination Sequence:
#
# PCOD9588361 Si02
#       4
#    24  12  24  12
#     4  12  26  44  64  88 119 158 202 243 293 349
#     4  10  20  32  59  82 123 149 199 237 300 346
#     4  10  22  38  60  89 118 148 192 247 303 353
#     4  10  18  36  53  88 113 159 189 247 290 356
#
# _framework density 17.522188
#
# number of rings (size 3 to 8) (size 9 to 14) (size 15 to 20)
#    0.000    1.333    1.667    4.333    4.667    0.667 
#    0.000    1.667    0.000    0.333    0.000    0.000 
#    0.000    8.000    0.000    0.000    0.000    1.333 
#
# Total GULP energy -401162.922612 kJ/mol
# GULP energy per Si atom -5571.707258 kJ/mol
# Density = 1.748231 g / cm^3
# Si number density = 17.522188 Si / 1000 Ang^3
#
#
#
# Elastic Constant Matrix: (Units=GPa)
#
#
# Indices 1 2 3 4 5 6 
#
# 1 33.5911 180.8761 44.8932 0.0000 0.0000 0.0000
# 2 180.8761 33.5911 44.8932 0.0000 0.0000 0.0000
# 3 44.8932 44.8932 174.6056 0.0000 0.0000 0.0000
# 4 0.0000 0.0000 0.0000 42.2651 0.0000 0.0000
# 5 0.0000 0.0000 0.0000 0.0000 42.2651 0.0000
# 6 0.0000 0.0000 0.0000 0.0000 0.0000 -73.6425
#
#
#
# Elastic Compliance Matrix: (Units=1/GPa)
#
#
# Indices 1 2 3 4 5 6 
#
# 1 -0.000782 0.006007 -0.001343 0.000000 0.000000 0.000000
# 2 0.006007 -0.000782 -0.001343 0.000000 0.000000 0.000000
# 3 -0.001343 -0.001343 0.006418 0.000000 0.000000 0.000000
# 4 0.000000 0.000000 0.000000 0.023660 0.000000 0.000000
# 5 0.000000 0.000000 0.000000 0.000000 0.023660 0.000000
# 6 0.000000 0.000000 0.000000 0.000000 0.000000 -0.013579
#
#
# Mechanical properties :
#
#
# Convention : Reuss Voigt Hill
#
# Bulk Modulus (GPa) = 86.99788 87.01253 87.00520
# Shear Modulus (GPa) = 139.72148 0.25255 69.98702
#
# Velocity S-wave (km/s) = 8.93940 0.38006 6.32682
# Velocity P-wave (km/s) = 12.50234 7.06816 10.15547
#
# Compressibility (1/GPa) = 0.01149453
#
# Stress axis : x y z
#
# Youngs Moduli (GPa) = -1278.44128 -1278.44128 155.81107
#
# Poissons Ratio (x) = 7.68005 0.20932
# Poissons Ratio (y) = 7.68005 0.20932
# Poissons Ratio (z) = -1.71752 -1.71752
#
# Static dielectric constant tensor:
#      x y z
#    x 1.668580 0.000000 0.000000 
#    y 0.000000 1.668580 0.000000 
#    z 0.000000 0.000000 1.575510 
# 
# From -- ./inp_files/548.got.cif
#   From: 2010.05.17/outbox.cif.g08.bks.cpg/sg192_1_cif.got.tgz:548.got - 2010.05.20 12:28:01.
