data_PCOD9588355
_publ_section_title
;
Structure prediction by ZEFSAII (Michael W. Deem and Ramdas Pophale) SiO2 
 PCOD9588355
Probable space group: P 6/M C C
;
_chemical_formula_sum "Si O2"
_cell_formula_units_Z 104
_cell_length_a 18.964514
_cell_length_b 18.964514
_cell_length_c 15.567935
_cell_angle_alpha 90.000000
_cell_angle_beta 90.000000
_cell_angle_gamma 120.000000
_cell_volume 4848.920643
_symmetry_space_group_name_H-M "P 6/M C C"
_symmetry_group_IT_number 192
_symmetry_cell_setting 'hexagonal'
loop_
_space_group_symop_operation_xyz
x,y,z
x-y,x,z
-y,x-y,z
-x,-y,z
-x+y,-x,z
y,-x+y,z
x-y,-y,1/2-z
-x,-x+y,1/2-z
y,x,1/2-z
-y,-x,1/2-z
-x+y,y,1/2-z
x,x-y,1/2-z
-x,-y,-z
-x+y,-x,-z
y,-x+y,-z
x,y,-z
x-y,x,-z
-y,x-y,-z
-x+y,y,1/2+z
x,x-y,1/2+z
-y,-x,1/2+z
y,x,1/2+z
x-y,-y,1/2+z
-x,-x+y,1/2+z
loop_
_atom_site_type_symbol
_atom_site_label
_atom_site_fract_x
_atom_site_fract_y
_atom_site_fract_z
Si Si1 0.504089 0.917399 0.098584
Si Si2 0.199128 0.329240 0.657777
Si Si3 0.666668 0.333334 0.603808
Si Si4 0.722606 0.043160 0.597946
Si Si5 0.322627 0.812027 0.895245
O O1 0.590031 0.933214 0.135826
O O2 0.415741 0.857538 0.136218
O O3 0.500000 0.000000 0.094866
O O4 0.503166 0.888636 0.000000
O O5 0.158530 0.317060 0.750000
O O6 0.245870 0.279423 0.643339
O O7 0.123304 0.312440 0.597632
O O8 0.268555 0.422610 0.643528
O O9 0.666667 0.333334 0.500000
O O10 0.572682 0.281062 0.628214
O O11 0.694834 0.015524 0.500000
O O12 0.322386 0.820540 0.000000
#
# Coordination Sequence:
#
# PCOD9588355 Si02
#       5
#    24  24   8  24  24
#     4   9  16  30  58  90 115 145 200 262 299 337
#     4  12  25  40  59  88 128 159 197 251 323 377
#     4   9  18  30  52  80 109 153 214 263 301 345
#     4  11  22  41  67  92 117 160 213 260 308 372
#     4  10  18  34  57  84 116 159 209 258 301 362
#
# _framework density 21.448072
#
# number of rings (size 3 to 8) (size 9 to 14) (size 15 to 20)
#    0.000    1.615    2.308    4.154    0.000    3.692 
#    0.000    4.615    0.000    0.462    0.000    3.231 
#    0.000    0.000    0.000    0.000    0.000    0.000 
#
# Total GULP energy -580578.111417 kJ/mol
# GULP energy per Si atom -5582.481841 kJ/mol
# Density = 2.139926 g / cm^3
# Si number density = 21.448072 Si / 1000 Ang^3
#
#
#
# Elastic Constant Matrix: (Units=GPa)
#
#
# Indices 1 2 3 4 5 6 
#
# 1 129.3173 63.6350 12.0699 -0.0003 -0.0002 0.0005
# 2 63.6350 129.3191 12.0701 0.0000 0.0003 -0.0003
# 3 12.0699 12.0701 50.1193 -0.0001 0.0000 0.0001
# 4 -0.0003 0.0000 -0.0001 6.1918 0.0000 -0.0002
# 5 -0.0002 0.0003 0.0000 0.0000 6.1940 0.0002
# 6 0.0005 -0.0003 0.0001 -0.0002 0.0002 32.8411
#
#
#
# Elastic Compliance Matrix: (Units=1/GPa)
#
#
# Indices 1 2 3 4 5 6 
#
# 1 0.010284 -0.004940 -0.001287 0.000001 0.000001 0.000000
# 2 -0.004940 0.010284 -0.001287 0.000000 -0.000001 0.000000
# 3 -0.001287 -0.001287 0.020572 0.000000 0.000000 0.000000
# 4 0.000001 0.000000 0.000000 0.161505 -0.000001 0.000001
# 5 0.000001 -0.000001 0.000000 -0.000001 0.161447 -0.000001
# 6 0.000000 0.000000 0.000000 0.000001 -0.000001 0.030450
#
#
# Mechanical properties :
#
#
# Convention : Reuss Voigt Hill
#
# Bulk Modulus (GPa) = 38.29670 53.81175 46.05423
# Shear Modulus (GPa) = 11.95388 23.77742 17.86565
#
# Velocity S-wave (km/s) = 2.36337 3.33318 2.88926
# Velocity P-wave (km/s) = 5.03405 6.32118 5.71397
#
# Compressibility (1/GPa) = 0.02611191
#
# Stress axis : x y z
#
# Youngs Moduli (GPa) = 97.23687 97.23819 48.60925
#
# Poissons Ratio (x) = 0.48040 0.06255
# Poissons Ratio (y) = 0.48040 0.06255
# Poissons Ratio (z) = 0.12513 0.12514
#
# Static dielectric constant tensor:
#      x y z
#    x 1.804170 0.000000 0.000000 
#    y 0.000000 1.804170 0.000000 
#    z 0.000000 0.000000 1.891700 
# 
# From -- ./inp_files/2842.got.cif
#   From: 2010.05.17/outbox.cif.g08.bks.cpg/sg192_2_cif.got.tgz:2842.got - 2010.05.20 12:28:01.
