data_PCOD9588698
_publ_section_title
;
Structure prediction by ZEFSAII (Michael W. Deem and Ramdas Pophale) SiO2 
 PCOD9588698
Probable space group: P 6/M C C
;
_chemical_formula_sum "Si O2"
_cell_formula_units_Z 92
_cell_length_a 18.116589
_cell_length_b 18.116589
_cell_length_c 14.324006
_cell_angle_alpha 90.000000
_cell_angle_beta 90.000000
_cell_angle_gamma 120.000000
_cell_volume 4071.439537
_symmetry_space_group_name_H-M "P 6/M C C"
_symmetry_group_IT_number 192
_symmetry_cell_setting 'hexagonal'
loop_
_space_group_symop_operation_xyz
x,y,z
x-y,x,z
-y,x-y,z
-x,-y,z
-x+y,-x,z
y,-x+y,z
x-y,-y,1/2-z
-x,-x+y,1/2-z
y,x,1/2-z
-y,-x,1/2-z
-x+y,y,1/2-z
x,x-y,1/2-z
-x,-y,-z
-x+y,-x,-z
y,-x+y,-z
x,y,-z
x-y,x,-z
-y,x-y,-z
-x+y,y,1/2+z
x,x-y,1/2+z
-y,-x,1/2+z
y,x,1/2+z
x-y,-y,1/2+z
-x,-x+y,1/2+z
loop_
_atom_site_type_symbol
_atom_site_label
_atom_site_fract_x
_atom_site_fract_y
_atom_site_fract_z
Si Si1 0.405829 0.457564 0.391958
Si Si2 0.068684 0.324117 0.393191
Si Si3 0.666667 0.333333 0.886944
Si Si4 0.174985 0.000000 0.250000
Si Si5 0.226959 0.476584 0.885509
O O1 0.500000 0.500000 0.351274
O O2 0.416597 0.488950 0.500000
O O3 0.369602 0.357184 0.392596
O O4 0.332675 0.473371 0.351958
O O5 0.079538 0.304514 0.500000
O O6 0.162071 0.393706 0.355546
O O7 0.016569 0.237593 0.336586
O O8 0.734119 0.303959 0.858936
O O9 0.666667 0.333334 0.000000
O O10 0.166521 0.083261 0.250000
O O11 0.226107 0.473055 0.000000
#
# Coordination Sequence:
#
# PCOD9588698 Si02
#       5
#    24  24   8  12  24
#     4   9  16  28  50  82 119 158 200 244 290 344
#     4  10  21  39  63  90 121 159 203 249 298 357
#     4   9  15  24  45  84 130 170 206 242 286 348
#     4  12  27  46  67  90 116 148 190 246 313 378
#     4   9  16  27  47  79 119 160 200 242 290 348
#
# _framework density 22.596430999999999
#
# number of rings (size 3 to 8) (size 9 to 14) (size 15 to 20)
#    0.000    2.348    0.000    3.261    0.000    9.391 
#    0.000    0.652    0.000    1.565    0.000    5.478 
#    0.000    0.000    0.000    0.000    0.000    0.000 
#
# Total GULP energy -514183.849240 kJ/mol
# GULP energy per Si atom -5588.954883 kJ/mol
# Density = 2.254500 g / cm^3
# Si number density = 22.596431 Si / 1000 Ang^3
#
#
#
# Elastic Constant Matrix: (Units=GPa)
#
#
# Indices 1 2 3 4 5 6 
#
# 1 97.4398 69.7842 36.9049 0.0000 0.0000 0.0008
# 2 69.7842 97.4404 36.9048 0.0000 0.0000 -0.0003
# 3 36.9049 36.9048 89.4441 0.0000 0.0000 0.0000
# 4 0.0000 0.0000 0.0000 7.0199 0.0000 0.0000
# 5 0.0000 0.0000 0.0000 0.0000 7.0199 0.0000
# 6 0.0008 -0.0003 0.0000 0.0000 0.0000 13.8270
#
#
#
# Elastic Compliance Matrix: (Units=1/GPa)
#
#
# Indices 1 2 3 4 5 6 
#
# 1 0.021735 -0.014424 -0.003017 0.000000 0.000000 -0.000002
# 2 -0.014424 0.021735 -0.003017 0.000000 0.000000 0.000001
# 3 -0.003017 -0.003017 0.013670 0.000000 0.000000 0.000000
# 4 0.000000 0.000000 0.000000 0.142452 0.000000 0.000000
# 5 0.000000 0.000000 0.000000 0.000000 0.142453 0.000000
# 6 -0.000002 0.000001 0.000000 0.000000 0.000000 0.072322
#
#
# Mechanical properties :
#
#
# Convention : Reuss Voigt Hill
#
# Bulk Modulus (GPa) = 61.63082 63.50135 62.56609
# Shear Modulus (GPa) = 10.85330 14.95539 12.90434
#
# Velocity S-wave (km/s) = 2.19398 2.57543 2.39232
# Velocity P-wave (km/s) = 5.80963 6.08335 5.94807
#
# Compressibility (1/GPa) = 0.01622565
#
# Stress axis : x y z
#
# Youngs Moduli (GPa) = 46.00835 46.00873 73.15500
#
# Poissons Ratio (x) = 0.66361 0.22070
# Poissons Ratio (y) = 0.66360 0.22069
# Poissons Ratio (z) = 0.13880 0.13879
#
# Static dielectric constant tensor:
#      x y z
#    x 1.804330 0.000000 0.000000 
#    y 0.000000 1.804330 0.000000 
#    z 0.000000 0.000000 1.928860 
# 
# From -- ./inp_files/4014.got.cif
#   From: 2010.05.17/outbox.cif.g08.bks.cpg/sg192_3_cif.got.tgz:4014.got - 2010.05.20 12:28:01.
