data_PCOD9588703
_publ_section_title
;
Structure prediction by ZEFSAII (Michael W. Deem and Ramdas Pophale) SiO2 
 PCOD9588703
Probable space group: P 6/M C C
;
_chemical_formula_sum "Si O2"
_cell_formula_units_Z 92
_cell_length_a 18.707540
_cell_length_b 18.707540
_cell_length_c 13.871892
_cell_angle_alpha 90.000000
_cell_angle_beta 90.000000
_cell_angle_gamma 120.000000
_cell_volume 4204.358064
_symmetry_space_group_name_H-M "P 6/M C C"
_symmetry_group_IT_number 192
_symmetry_cell_setting 'hexagonal'
loop_
_space_group_symop_operation_xyz
x,y,z
x-y,x,z
-y,x-y,z
-x,-y,z
-x+y,-x,z
y,-x+y,z
x-y,-y,1/2-z
-x,-x+y,1/2-z
y,x,1/2-z
-y,-x,1/2-z
-x+y,y,1/2-z
x,x-y,1/2-z
-x,-y,-z
-x+y,-x,-z
y,-x+y,-z
x,y,-z
x-y,x,-z
-y,x-y,-z
-x+y,y,1/2+z
x,x-y,1/2+z
-y,-x,1/2+z
y,x,1/2+z
x-y,-y,1/2+z
-x,-x+y,1/2+z
loop_
_atom_site_type_symbol
_atom_site_label
_atom_site_fract_x
_atom_site_fract_y
_atom_site_fract_z
Si Si1 0.891601 0.234526 0.884213
Si Si2 0.409312 0.984673 0.882900
Si Si3 0.801737 0.288982 0.616724
Si Si4 0.333334 0.666667 0.382327
Si Si5 0.899907 0.799815 0.750000
O O1 0.959077 0.328251 0.855426
O O2 0.804941 0.228574 0.861323
O O3 0.891242 0.156322 0.834447
O O4 0.898115 0.227441 0.000000
O O5 0.500000 0.000000 0.856004
O O6 0.346872 0.893265 0.847725
O O7 0.411106 0.988508 0.000000
O O8 0.805341 0.295325 0.500000
O O9 0.740181 0.319264 0.648915
O O10 0.333334 0.666668 0.500000
O O11 0.858499 0.858499 0.750000
#
# Coordination Sequence:
#
# PCOD9588703 Si02
#       5
#    24  24  24   8  12
#     4  10  21  39  64  93 125 162 207 262 324 392
#     4   9  16  28  51  85 121 158 203 252 306 377
#     4   9  16  27  47  77 113 152 193 238 292 353
#     4   9  15  24  45  82 122 160 202 242 286 355
#     4  12  27  46  68  92 122 162 214 276 343 410
#
# _framework density 21.882058000000001
#
# number of rings (size 3 to 8) (size 9 to 14) (size 15 to 20)
#    0.000    2.348    0.000    3.261    0.000    9.391 
#    0.000    0.000    0.000   16.435    0.000    0.000 
#    0.000    0.000    0.000    0.000    0.000    0.000 
#
# Total GULP energy -513460.415419 kJ/mol
# GULP energy per Si atom -5581.091472 kJ/mol
# Density = 2.183225 g / cm^3
# Si number density = 21.882058 Si / 1000 Ang^3
#
#
#
# Elastic Constant Matrix: (Units=GPa)
#
#
# Indices 1 2 3 4 5 6 
#
# 1 215.8627 129.0861 36.2362 -0.0003 0.0003 0.0001
# 2 129.0861 215.8667 36.2369 0.0000 0.0001 0.0006
# 3 36.2362 36.2369 116.7710 0.0001 -0.0001 0.0000
# 4 -0.0003 0.0000 0.0001 -0.2642 -0.0005 0.0001
# 5 0.0003 0.0001 -0.0001 -0.0005 -0.2640 0.0001
# 6 0.0001 0.0006 0.0000 0.0001 0.0001 43.3902
#
#
#
# Elastic Compliance Matrix: (Units=1/GPa)
#
#
# Indices 1 2 3 4 5 6 
#
# 1 0.007312 -0.004211 -0.000962 -0.000009 0.000008 0.000000
# 2 -0.004211 0.007312 -0.000962 0.000004 -0.000003 0.000000
# 3 -0.000962 -0.000962 0.009161 0.000005 -0.000003 0.000000
# 4 -0.000009 0.000004 0.000005 -3.784386 0.006470 0.000011
# 5 0.000008 -0.000003 -0.000003 0.006470 -3.788433 0.000013
# 6 0.000000 0.000000 0.000000 0.000011 0.000013 0.023047
#
#
# Mechanical properties :
#
#
# Convention : Reuss Voigt Hill
#
# Bulk Modulus (GPa) = 86.85125 105.73542 96.29333
# Shear Modulus (GPa) = -0.66579 31.70181 15.51801
#
# Velocity S-wave (km/s) = -0.55220 3.81038 2.66591
# Velocity P-wave (km/s) = 6.27457 8.23312 7.31965
#
# Compressibility (1/GPa) = 0.01151394
#
# Stress axis : x y z
#
# Youngs Moduli (GPa) = 136.75345 136.75581 109.15778
#
# Poissons Ratio (x) = 0.57591 0.10505
# Poissons Ratio (y) = 0.57590 0.10505
# Poissons Ratio (z) = 0.13160 0.13161
#
# Static dielectric constant tensor:
#      x y z
#    x 1.804170 0.000000 0.000000 
#    y 0.000000 1.804170 0.000000 
#    z 0.000000 0.000000 1.877390 
# 
# From -- ./inp_files/4008.got.cif
#   From: 2010.05.17/outbox.cif.g08.bks.cpg/sg192_3_cif.got.tgz:4008.got - 2010.05.20 12:28:01.
