data_PCOD9588332
_publ_section_title
;
Structure prediction by ZEFSAII (Michael W. Deem and Ramdas Pophale) SiO2 
 PCOD9588332
Probable space group: P 6/M C C
;
_chemical_formula_sum "Si O2"
_cell_formula_units_Z 168
_cell_length_a 25.860874
_cell_length_b 25.860874
_cell_length_c 14.727638
_cell_angle_alpha 90.000000
_cell_angle_beta 90.000000
_cell_angle_gamma 120.000000
_cell_volume 8530.021565
_symmetry_space_group_name_H-M "P 6/M C C"
_symmetry_group_IT_number 192
_symmetry_cell_setting 'hexagonal'
loop_
_space_group_symop_operation_xyz
x,y,z
x-y,x,z
-y,x-y,z
-x,-y,z
-x+y,-x,z
y,-x+y,z
x-y,-y,1/2-z
-x,-x+y,1/2-z
y,x,1/2-z
-y,-x,1/2-z
-x+y,y,1/2-z
x,x-y,1/2-z
-x,-y,-z
-x+y,-x,-z
y,-x+y,-z
x,y,-z
x-y,x,-z
-y,x-y,-z
-x+y,y,1/2+z
x,x-y,1/2+z
-y,-x,1/2+z
y,x,1/2+z
x-y,-y,1/2+z
-x,-x+y,1/2+z
loop_
_atom_site_type_symbol
_atom_site_label
_atom_site_fract_x
_atom_site_fract_y
_atom_site_fract_z
Si Si1 0.930070 0.462289 0.138512
Si Si2 0.259157 0.138218 0.392125
Si Si3 0.203663 0.401057 0.359718
Si Si4 0.327539 0.451292 0.144896
Si Si5 0.661471 0.116942 0.148490
Si Si6 0.988644 0.772635 0.110881
Si Si7 0.000270 0.339815 0.890655
O O1 0.930950 0.465475 0.250000
O O2 0.899631 0.393724 0.107324
O O3 0.890504 0.491408 0.107484
O O4 0.000000 0.500000 0.110709
O O5 0.249121 0.134411 0.500000
O O6 0.330916 0.169524 0.381412
O O7 0.231518 0.177693 0.356270
O O8 0.227974 0.070578 0.357027
O O9 0.201639 0.403278 0.250000
O O10 0.175495 0.440839 0.394402
O O11 0.271978 0.427502 0.391591
O O12 0.332002 0.471921 0.248847
O O13 0.319912 0.385565 0.141887
O O14 0.646325 0.048502 0.150653
O O15 0.981994 0.709167 0.134691
O O16 0.989125 0.775048 0.000000
O O17 0.001678 0.345292 0.000000
#
# Coordination Sequence:
#
# PCOD9588332 Si02
#       7
#    24  24  24  24  24  24  24
#     4   9  16  28  48  67  87 124 157 179 222 279
#     4  10  18  32  48  67  93 125 157 185 228 283
#     4  10  20  30  46  71  93 118 151 196 234 265
#     4  10  19  32  47  67  95 125 156 187 228 277
#     4  10  19  32  47  67  95 125 156 187 228 277
#     4   9  18  29  46  67  93 125 154 183 224 277
#     4  11  19  28  46  73  97 124 154 186 229 274
#
# _framework density 19.695143999999999
#
# number of rings (size 3 to 8) (size 9 to 14) (size 15 to 20)
#    0.000    2.143    4.286    0.429    0.000    0.000 
#    0.000    2.143    0.000    0.857    0.000    6.000 
#    0.000    0.000    0.000    3.857    0.000    4.286 
#
# Total GULP energy -937145.758451 kJ/mol
# GULP energy per Si atom -5578.248562 kJ/mol
# Density = 1.965032 g / cm^3
# Si number density = 19.695144 Si / 1000 Ang^3
#
#
#
# Elastic Constant Matrix: (Units=GPa)
#
#
# Indices 1 2 3 4 5 6 
#
# 1 117.4814 45.6242 -13.5747 0.0000 0.0000 0.0000
# 2 45.6242 117.4814 -13.5747 0.0000 0.0000 0.0000
# 3 -13.5747 -13.5747 63.1927 0.0000 0.0000 0.0000
# 4 0.0000 0.0000 0.0000 29.7120 0.0000 0.0000
# 5 0.0000 0.0000 0.0000 0.0000 29.7120 0.0000
# 6 0.0000 0.0000 0.0000 0.0000 0.0000 35.9286
#
#
#
# Elastic Compliance Matrix: (Units=1/GPa)
#
#
# Indices 1 2 3 4 5 6 
#
# 1 0.010137 -0.003779 0.001366 0.000000 0.000000 0.000000
# 2 -0.003779 0.010137 0.001366 0.000000 0.000000 0.000000
# 3 0.001366 0.001366 0.016411 0.000000 0.000000 0.000000
# 4 0.000000 0.000000 0.000000 0.033656 0.000000 0.000000
# 5 0.000000 0.000000 0.000000 0.000000 0.033656 0.000000
# 6 0.000000 0.000000 0.000000 0.000000 0.000000 0.027833
#
#
# Mechanical properties :
#
#
# Convention : Reuss Voigt Hill
#
# Bulk Modulus (GPa) = 28.90873 37.23387 33.07130
# Shear Modulus (GPa) = 34.37434 37.71591 36.04513
#
# Velocity S-wave (km/s) = 4.18224 4.38080 4.28267
# Velocity P-wave (km/s) = 6.16696 6.67343 6.42519
#
# Compressibility (1/GPa) = 0.03459163
#
# Stress axis : x y z
#
# Youngs Moduli (GPa) = 98.64448 98.64448 60.93309
#
# Poissons Ratio (x) = 0.37278 -0.08323
# Poissons Ratio (y) = 0.37278 -0.08323
# Poissons Ratio (z) = -0.13474 -0.13474
#
# Static dielectric constant tensor:
#      x y z
#    x 1.689100 0.000000 0.000000 
#    y 0.000000 1.689100 0.000000 
#    z 0.000000 0.000000 1.772350 
# 
# From -- ./inp_files/5342.got.cif
#   From: 2010.05.17/outbox.cif.g08.bks.cpg/sg192_3_cif.got.tgz:5342.got - 2010.05.20 12:28:01.
