data_PCOD9588454
_publ_section_title
;
Structure prediction by ZEFSAII (Michael W. Deem and Ramdas Pophale) SiO2 
 PCOD9588454
Probable space group: P 6/M C C
;
_chemical_formula_sum "Si O2"
_cell_formula_units_Z 132
_cell_length_a 23.156473
_cell_length_b 23.156473
_cell_length_c 14.864301
_cell_angle_alpha 90.000000
_cell_angle_beta 90.000000
_cell_angle_gamma 120.000000
_cell_volume 6902.715068
_symmetry_space_group_name_H-M "P 6/M C C"
_symmetry_group_IT_number 192
_symmetry_cell_setting 'hexagonal'
loop_
_space_group_symop_operation_xyz
x,y,z
x-y,x,z
-y,x-y,z
-x,-y,z
-x+y,-x,z
y,-x+y,z
x-y,-y,1/2-z
-x,-x+y,1/2-z
y,x,1/2-z
-y,-x,1/2-z
-x+y,y,1/2-z
x,x-y,1/2-z
-x,-y,-z
-x+y,-x,-z
y,-x+y,-z
x,y,-z
x-y,x,-z
-y,x-y,-z
-x+y,y,1/2+z
x,x-y,1/2+z
-y,-x,1/2+z
y,x,1/2+z
x-y,-y,1/2+z
-x,-x+y,1/2+z
loop_
_atom_site_type_symbol
_atom_site_label
_atom_site_fract_x
_atom_site_fract_y
_atom_site_fract_z
Si Si1 0.694512 0.020563 0.650159
Si Si2 0.773642 0.695147 0.500000
Si Si3 0.813618 0.426707 0.609860
Si Si4 0.807351 0.636567 0.148826
Si Si5 0.763675 0.278861 0.390702
Si Si6 0.959406 0.536251 0.609069
O O1 0.742783 0.099034 0.631387
O O2 0.619758 0.008500 0.642390
O O3 0.702943 0.000000 0.750000
O O4 0.704863 0.976122 0.578040
O O5 0.813434 0.678053 0.422009
O O6 0.814757 0.425426 0.500000
O O7 0.802619 0.355454 0.640253
O O8 0.754168 0.440193 0.634588
O O9 0.883403 0.488886 0.639241
O O10 0.829961 0.659922 0.250000
O O11 0.790878 0.559851 0.141803
O O12 0.767732 0.278823 0.500000
O O13 0.959585 0.539535 0.500000
O O14 0.000000 0.500000 0.635535
#
# Coordination Sequence:
#
# PCOD9588454 Si02
#       6
#    24  12  24  24  24  24
#     4  12  25  44  67  98 134 176 231 283 348 413
#     4  12  26  42  71  94 133 180 213 277 342 402
#     4   9  18  30  52  81 112 161 214 282 351 418
#     4  12  25  43  66 100 131 173 233 282 340 419
#     4  10  19  34  57  83 121 166 221 289 362 422
#     4  10  21  34  56  86 125 167 220 290 355 413
#
# _framework density 19.122910000000001
#
# number of rings (size 3 to 8) (size 9 to 14) (size 15 to 20)
#    0.000    1.273    5.455    0.909    2.545    1.818 
#    0.000    0.909    0.000    0.000    0.000    0.000 
#    0.000    0.000    0.000   17.455   32.000    0.000 
#
# Total GULP energy -734851.469214 kJ/mol
# GULP energy per Si atom -5567.056585 kJ/mol
# Density = 1.907939 g / cm^3
# Si number density = 19.122910 Si / 1000 Ang^3
#
#
#
# Elastic Constant Matrix: (Units=GPa)
#
#
# Indices 1 2 3 4 5 6 
#
# 1 31.1273 0.9960 13.8937 0.0000 0.0000 0.0000
# 2 0.9960 31.1273 13.8937 0.0000 0.0000 0.0000
# 3 13.8937 13.8937 117.7992 0.0000 0.0000 0.0000
# 4 0.0000 0.0000 0.0000 11.7995 0.0000 0.0000
# 5 0.0000 0.0000 0.0000 0.0000 11.7995 0.0000
# 6 0.0000 0.0000 0.0000 0.0000 0.0000 15.0656
#
#
#
# Elastic Compliance Matrix: (Units=1/GPa)
#
#
# Indices 1 2 3 4 5 6 
#
# 1 0.033928 0.000739 -0.004089 0.000000 0.000000 0.000000
# 2 0.000739 0.033928 -0.004089 0.000000 0.000000 0.000000
# 3 -0.004089 -0.004089 0.009454 0.000000 0.000000 0.000000
# 4 0.000000 0.000000 0.000000 0.084750 0.000000 0.000000
# 5 0.000000 0.000000 0.000000 0.000000 0.084750 0.000000
# 6 0.000000 0.000000 0.000000 0.000000 0.000000 0.066376
#
#
# Mechanical properties :
#
#
# Convention : Reuss Voigt Hill
#
# Bulk Modulus (GPa) = 16.01734 26.40230 21.20982
# Shear Modulus (GPa) = 14.33194 17.81760 16.07477
#
# Velocity S-wave (km/s) = 2.74060 3.05575 2.90246
# Velocity P-wave (km/s) = 4.29054 5.12706 4.72734
#
# Compressibility (1/GPa) = 0.06243235
#
# Stress axis : x y z
#
# Youngs Moduli (GPa) = 29.47460 29.47460 105.78080
#
# Poissons Ratio (x) = -0.02179 0.43251
# Poissons Ratio (y) = -0.02179 0.43251
# Poissons Ratio (z) = 0.12051 0.12051
#
# Static dielectric constant tensor:
#      x y z
#    x 1.655670 0.000000 0.000000 
#    y 0.000000 1.655670 0.000000 
#    z 0.000000 0.000000 1.722290 
# 
# From -- ./inp_files/3222.got.cif
#   From: 2010.05.17/outbox.cif.g08.bks.cpg/sg192_2_cif.got.tgz:3222.got - 2010.05.20 12:28:01.
