data_PCOD9588093
_publ_section_title
;
Structure prediction by ZEFSAII (Michael W. Deem and Ramdas Pophale) SiO2 
 PCOD9588093
Probable space group: P 6/M M M
;
_chemical_formula_sum "Si O2"
_cell_formula_units_Z 132
_cell_length_a 24.811496
_cell_length_b 24.811496
_cell_length_c 13.759761
_cell_angle_alpha 90.000000
_cell_angle_beta 90.000000
_cell_angle_gamma 120.000000
_cell_volume 7335.799006
_symmetry_space_group_name_H-M "P 6/M M M"
_symmetry_group_IT_number 191
_symmetry_cell_setting 'hexagonal'
loop_
_space_group_symop_operation_xyz
x,y,z
x-y,x,z
-y,x-y,z
-x,-y,z
-x+y,-x,z
y,-x+y,z
x-y,-y,-z
-x,-x+y,-z
y,x,-z
-y,-x,-z
-x+y,y,-z
x,x-y,-z
-x,-y,-z
-x+y,-x,-z
y,-x+y,-z
x,y,-z
x-y,x,-z
-y,x-y,-z
-x+y,y,z
x,x-y,z
-y,-x,z
y,x,z
x-y,-y,z
-x,-x+y,z
loop_
_atom_site_type_symbol
_atom_site_label
_atom_site_fract_x
_atom_site_fract_y
_atom_site_fract_z
Si Si1 0.394780 0.260174 0.188109
Si Si2 0.258982 0.069407 0.884957
Si Si3 0.599194 0.525930 0.882379
Si Si4 0.583951 0.887061 0.614157
Si Si5 0.000000 0.439642 0.383583
Si Si6 0.666132 0.218470 0.617188
O O1 0.414335 0.207168 0.175899
O O2 0.332340 0.238083 0.126846
O O3 0.446514 0.331010 0.159734
O O4 0.373602 0.259867 0.300253
O O5 0.247374 0.123687 0.844127
O O6 0.218114 0.000000 0.843785
O O7 0.246676 0.065723 0.000000
O O8 0.544592 0.455409 0.855407
O O9 0.571378 0.571378 0.855629
O O10 0.603698 0.526890 0.000000
O O11 0.601627 0.890822 0.500000
O O12 0.566778 0.940306 0.635982
O O13 0.519832 0.823893 0.633434
O O14 0.000000 0.500000 0.342439
O O15 0.000000 0.445858 0.500000
O O16 0.663843 0.220956 0.500000
O O17 0.596598 0.193196 0.653454
O O18 0.712485 0.287516 0.653325
#
# Coordination Sequence:
#
# PCOD9588093 Si02
#       6
#    24  24  24  24  12  24
#     4  11  22  33  50  76 103 136 176 214 257 309
#     4   9  18  33  55  82 109 135 163 200 245 293
#     4   9  19  36  57  80 104 131 167 216 273 324
#     4  10  21  34  46  64  94 131 168 210 256 304
#     4   9  18  32  48  66  87 115 159 213 265 312
#     4   9  16  27  43  60  79 107 146 192 241 294
#
# _framework density 17.993949000000001
#
# number of rings (size 3 to 8) (size 9 to 14) (size 15 to 20)
#    0.000    2.455    0.000    2.909    2.545    8.000 
#    0.000    0.000    0.000    0.545    0.000    1.273 
#    0.000    0.000    0.000    0.000    0.000    0.000 
#
# Total GULP energy -734992.914246 kJ/mol
# GULP energy per Si atom -5568.128138 kJ/mol
# Density = 1.795299 g / cm^3
# Si number density = 17.993949 Si / 1000 Ang^3
#
#
#
# Elastic Constant Matrix: (Units=GPa)
#
#
# Indices 1 2 3 4 5 6 
#
# 1 98.4129 48.0038 17.4142 0.0000 0.0000 0.0000
# 2 48.0038 98.4129 17.4142 0.0000 0.0000 0.0000
# 3 17.4142 17.4142 52.4701 0.0000 0.0000 0.0000
# 4 0.0000 0.0000 0.0000 10.8782 0.0000 0.0000
# 5 0.0000 0.0000 0.0000 0.0000 10.8782 0.0000
# 6 0.0000 0.0000 0.0000 0.0000 0.0000 25.2046
#
#
#
# Elastic Compliance Matrix: (Units=1/GPa)
#
#
# Indices 1 2 3 4 5 6 
#
# 1 0.013626 -0.006211 -0.002461 0.000000 0.000000 0.000000
# 2 -0.006211 0.013626 -0.002461 0.000000 0.000000 0.000000
# 3 -0.002461 -0.002461 0.020692 0.000000 0.000000 0.000000
# 4 0.000000 0.000000 0.000000 0.091927 0.000000 0.000000
# 5 0.000000 0.000000 0.000000 0.000000 0.091927 0.000000
# 6 0.000000 0.000000 0.000000 0.000000 0.000000 0.039675
#
#
# Mechanical properties :
#
#
# Convention : Reuss Voigt Hill
#
# Bulk Modulus (GPa) = 38.94324 46.10671 42.52497
# Shear Modulus (GPa) = 16.53981 20.48975 18.51478
#
# Velocity S-wave (km/s) = 3.03510 3.37813 3.21120
# Velocity P-wave (km/s) = 5.82854 6.39490 6.11827
#
# Compressibility (1/GPa) = 0.02567840
#
# Stress axis : x y z
#
# Youngs Moduli (GPa) = 73.38664 73.38664 48.32769
#
# Poissons Ratio (x) = 0.45582 0.11894
# Poissons Ratio (y) = 0.45582 0.11894
# Poissons Ratio (z) = 0.18061 0.18061
#
# Static dielectric constant tensor:
#      x y z
#    x 1.711530 0.000000 0.000000 
#    y 0.000000 1.711530 0.000000 
#    z 0.000000 0.000000 1.681410 
# 
# From -- ./inp_files/4912.got.cif
#   From: 2010.05.17/outbox.cif.g08.bks.cpg/sg191_3_cif.got.tgz:4912.got - 2010.05.20 12:20:32.
