data_PCOD9588739
_publ_section_title
;
Structure prediction by ZEFSAII (Michael W. Deem and Ramdas Pophale) SiO2 
 PCOD9588739
Probable space group: P 6/M C C
;
_chemical_formula_sum "Si O2"
_cell_formula_units_Z 114
_cell_length_a 20.232323
_cell_length_b 20.232323
_cell_length_c 15.492833
_cell_angle_alpha 90.000000
_cell_angle_beta 90.000000
_cell_angle_gamma 120.000000
_cell_volume 5492.283806
_symmetry_space_group_name_H-M "P 6/M C C"
_symmetry_group_IT_number 192
_symmetry_cell_setting 'hexagonal'
loop_
_space_group_symop_operation_xyz
x,y,z
x-y,x,z
-y,x-y,z
-x,-y,z
-x+y,-x,z
y,-x+y,z
x-y,-y,1/2-z
-x,-x+y,1/2-z
y,x,1/2-z
-y,-x,1/2-z
-x+y,y,1/2-z
x,x-y,1/2-z
-x,-y,-z
-x+y,-x,-z
y,-x+y,-z
x,y,-z
x-y,x,-z
-y,x-y,-z
-x+y,y,1/2+z
x,x-y,1/2+z
-y,-x,1/2+z
y,x,1/2+z
x-y,-y,1/2+z
-x,-x+y,1/2+z
loop_
_atom_site_type_symbol
_atom_site_label
_atom_site_fract_x
_atom_site_fract_y
_atom_site_fract_z
Si Si1 0.000000 0.500000 0.500000
Si Si2 0.427451 0.689744 0.000000
Si Si3 0.662974 0.901925 0.897861
Si Si4 0.073913 0.900338 0.146301
Si Si5 0.593916 0.619903 0.157372
Si Si6 0.204645 0.737646 0.336516
O O1 0.015183 0.564316 0.422761
O O2 0.393647 0.746900 0.000000
O O3 0.475057 0.703291 0.085058
O O4 0.741112 0.902326 0.879369
O O5 0.596180 0.823894 0.858981
O O6 0.658735 0.973712 0.859937
O O7 0.651643 0.901406 0.000000
O O8 0.086297 0.913704 0.250000
O O9 0.986867 0.863383 0.115000
O O10 0.578640 0.578640 0.250000
O O11 0.571042 0.684901 0.169536
O O12 0.252440 0.747561 0.250000
#
# Coordination Sequence:
#
# PCOD9588739 Si02
#       6
#     6  12  24  24  24  24
#     4  12  28  52  68 108 146 194 234 320 366 470
#     4  10  27  52  72 107 138 183 232 292 367 447
#     4  12  25  43  71 106 148 196 247 310 373 444
#     4  10  22  39  64  98 144 198 254 312 371 435
#     4  12  27  48  75 113 150 195 250 304 383 449
#     4  12  25  46  77 106 148 192 243 304 364 449
#
# _framework density 20.756392999999999
#
# number of rings (size 3 to 8) (size 9 to 14) (size 15 to 20)
#    0.211    0.421    4.211    3.053    2.947    7.579 
#    3.789    0.000    0.000    1.263    0.000    0.000 
#    0.000    0.000    0.000    0.000    0.000    0.000 
#
# Total GULP energy -635520.721902 kJ/mol
# GULP energy per Si atom -5574.743175 kJ/mol
# Density = 2.070915 g / cm^3
# Si number density = 20.756393 Si / 1000 Ang^3
#
#
#
# Elastic Constant Matrix: (Units=GPa)
#
#
# Indices 1 2 3 4 5 6 
#
# 1 84.8472 10.5230 34.4960 0.0000 0.0000 0.0000
# 2 10.5230 84.8472 34.4960 0.0000 0.0000 0.0000
# 3 34.4960 34.4960 165.2671 0.0000 0.0000 0.0000
# 4 0.0000 0.0000 0.0000 33.9408 0.0000 0.0000
# 5 0.0000 0.0000 0.0000 0.0000 33.9408 0.0000
# 6 0.0000 0.0000 0.0000 0.0000 0.0000 37.1621
#
#
#
# Elastic Compliance Matrix: (Units=1/GPa)
#
#
# Indices 1 2 3 4 5 6 
#
# 1 0.012902 -0.000552 -0.002578 0.000000 0.000000 0.000000
# 2 -0.000552 0.012902 -0.002578 0.000000 0.000000 0.000000
# 3 -0.002578 -0.002578 0.007127 0.000000 0.000000 0.000000
# 4 0.000000 0.000000 0.000000 0.029463 0.000000 0.000000
# 5 0.000000 0.000000 0.000000 0.000000 0.029463 0.000000
# 6 0.000000 0.000000 0.000000 0.000000 0.000000 0.026909
#
#
# Mechanical properties :
#
#
# Convention : Reuss Voigt Hill
#
# Bulk Modulus (GPa) = 46.47673 54.88791 50.68232
# Shear Modulus (GPa) = 36.40206 38.03851 37.22028
#
# Velocity S-wave (km/s) = 4.19235 4.28555 4.23921
# Velocity P-wave (km/s) = 6.77308 7.14067 6.95930
#
# Compressibility (1/GPa) = 0.02151614
#
# Stress axis : x y z
#
# Youngs Moduli (GPa) = 77.50468 77.50468 140.31233
#
# Poissons Ratio (x) = 0.04279 0.36171
# Poissons Ratio (y) = 0.04279 0.36171
# Poissons Ratio (z) = 0.19980 0.19980
#
# Static dielectric constant tensor:
#      x y z
#    x 1.710350 0.000000 0.000000 
#    y 0.000000 1.710350 0.000000 
#    z 0.000000 0.000000 1.768960 
# 
# From -- ./inp_files/2991.got.cif
#   From: 2010.05.17/outbox.cif.g08.bks.cpg/sg192_2_cif.got.tgz:2991.got - 2010.05.20 12:28:01.
