data_PCOD9588494
_publ_section_title
;
Structure prediction by ZEFSAII (Michael W. Deem and Ramdas Pophale) SiO2 
 PCOD9588494
Probable space group: P 6/M C C
;
_chemical_formula_sum "Si O2"
_cell_formula_units_Z 152
_cell_length_a 17.974946
_cell_length_b 17.974946
_cell_length_c 35.294340
_cell_angle_alpha 90.000000
_cell_angle_beta 90.000000
_cell_angle_gamma 120.000000
_cell_volume 9875.768147
_symmetry_space_group_name_H-M "P 6/M C C"
_symmetry_group_IT_number 192
_symmetry_cell_setting 'hexagonal'
loop_
_space_group_symop_operation_xyz
x,y,z
x-y,x,z
-y,x-y,z
-x,-y,z
-x+y,-x,z
y,-x+y,z
x-y,-y,1/2-z
-x,-x+y,1/2-z
y,x,1/2-z
-y,-x,1/2-z
-x+y,y,1/2-z
x,x-y,1/2-z
-x,-y,-z
-x+y,-x,-z
y,-x+y,-z
x,y,-z
x-y,x,-z
-y,x-y,-z
-x+y,y,1/2+z
x,x-y,1/2+z
-y,-x,1/2+z
y,x,1/2+z
x-y,-y,1/2+z
-x,-x+y,1/2+z
loop_
_atom_site_type_symbol
_atom_site_label
_atom_site_fract_x
_atom_site_fract_y
_atom_site_fract_z
Si Si1 0.464213 0.362323 0.900735
Si Si2 0.898109 0.535787 0.599265
Si Si3 0.333334 0.666667 0.454694
Si Si4 0.100588 0.727401 0.823955
Si Si5 0.509605 0.842065 0.750000
Si Si6 0.727400 0.626813 0.323954
Si Si7 0.532589 0.766295 0.545249
O O1 0.413945 0.413946 0.905577
O O2 0.565054 0.434945 0.900886
O O3 0.433771 0.313386 0.860745
O O4 0.436596 0.292547 0.934001
O O5 0.879614 0.566229 0.639254
O O6 0.855949 0.563401 0.565998
O O7 0.333334 0.666668 0.500000
O O8 0.284121 0.568237 0.444047
O O9 0.116170 0.684552 0.786948
O O10 0.171204 0.828797 0.822778
O O11 0.000000 0.699836 0.825539
O O12 0.426238 0.852475 0.750000
O O13 0.483439 0.741720 0.750000
O O14 0.568383 0.883831 0.713053
O O15 0.543726 0.771864 0.500000
#
# Coordination Sequence:
#
# PCOD9588494 Si02
#       7
#    24  24   8  24  24  24  24
#     4  10  20  33  49  70  96 126 162 201 241 286
#     4  10  20  33  49  70  96 126 162 201 241 286
#     4   9  18  30  45  66  90 121 158 193 243 291
#     4  10  20  34  52  73  98 129 162 199 242 288
#     4  10  20  33  50  75 106 138 171 202 232 269
#     4  10  20  34  52  73  98 129 162 199 242 288
#     4  11  20  32  48  66  93 126 160 201 243 288
#
# _framework density 15.391207
#
# number of rings (size 3 to 8) (size 9 to 14) (size 15 to 20)
#    0.000    1.895    3.158    1.579    0.000    3.158 
#    0.000    1.579    0.000    0.316    0.000    0.000 
#    0.000    3.789    0.000    0.000    0.000   14.368 
#
# Total GULP energy -846889.752728 kJ/mol
# GULP energy per Si atom -5571.643110 kJ/mol
# Density = 1.535618 g / cm^3
# Si number density = 15.391207 Si / 1000 Ang^3
#
#
#
# Elastic Constant Matrix: (Units=GPa)
#
#
# Indices 1 2 3 4 5 6 
#
# 1 74.8437 49.5870 42.0298 0.0001 0.0000 -0.0005
# 2 49.5870 74.8438 42.0290 -0.0001 0.0000 0.0006
# 3 42.0298 42.0290 130.4984 0.0000 0.0000 -0.0002
# 4 0.0001 -0.0001 0.0000 19.0392 0.0000 0.0000
# 5 0.0000 0.0000 0.0000 0.0000 19.0393 -0.0001
# 6 -0.0005 0.0006 -0.0002 0.0000 -0.0001 12.6274
#
#
#
# Elastic Compliance Matrix: (Units=1/GPa)
#
#
# Indices 1 2 3 4 5 6 
#
# 1 0.024932 -0.014661 -0.003308 0.000000 0.000000 0.000002
# 2 -0.014661 0.024932 -0.003308 0.000000 0.000000 -0.000002
# 3 -0.003308 -0.003308 0.009794 0.000000 0.000000 0.000000
# 4 0.000000 0.000000 0.000000 0.052523 0.000000 0.000000
# 5 0.000000 0.000000 0.000000 0.000000 0.052523 0.000001
# 6 0.000002 -0.000002 0.000000 0.000000 0.000001 0.079193
#
#
# Mechanical properties :
#
#
# Convention : Reuss Voigt Hill
#
# Bulk Modulus (GPa) = 58.46520 60.83082 59.64801
# Shear Modulus (GPa) = 17.11431 19.91053 18.51242
#
# Velocity S-wave (km/s) = 3.33822 3.60061 3.47189
# Velocity P-wave (km/s) = 7.27508 7.54286 7.41018
#
# Compressibility (1/GPa) = 0.01710419
#
# Stress axis : x y z
#
# Youngs Moduli (GPa) = 40.10836 40.10877 102.10556
#
# Poissons Ratio (x) = 0.58803 0.33779
# Poissons Ratio (y) = 0.58803 0.33776
# Poissons Ratio (z) = 0.13269 0.13268
#
# Static dielectric constant tensor:
#      x y z
#    x 1.608420 0.000010 0.000000 
#    y 0.000010 1.608410 0.000000 
#    z 0.000000 0.000000 1.502090 
# 
# From -- ./inp_files/7143.got.cif
#   From: 2010.05.17/outbox.cif.g08.bks.cpg/sg192_4_cif.got.tgz:7143.got - 2010.05.20 12:28:01.
