data_PCOD9588689
_publ_section_title
;
Structure prediction by ZEFSAII (Michael W. Deem and Ramdas Pophale) SiO2 
 PCOD9588689
Probable space group: P 6/M C C
;
_chemical_formula_sum "Si O2"
_cell_formula_units_Z 96
_cell_length_a 14.419212
_cell_length_b 14.419212
_cell_length_c 24.560293
_cell_angle_alpha 90.000000
_cell_angle_beta 90.000000
_cell_angle_gamma 120.000000
_cell_volume 4422.290109
_symmetry_space_group_name_H-M "P 6/M C C"
_symmetry_group_IT_number 192
_symmetry_cell_setting 'hexagonal'
loop_
_space_group_symop_operation_xyz
x,y,z
x-y,x,z
-y,x-y,z
-x,-y,z
-x+y,-x,z
y,-x+y,z
x-y,-y,1/2-z
-x,-x+y,1/2-z
y,x,1/2-z
-y,-x,1/2-z
-x+y,y,1/2-z
x,x-y,1/2-z
-x,-y,-z
-x+y,-x,-z
y,-x+y,-z
x,y,-z
x-y,x,-z
-y,x-y,-z
-x+y,y,1/2+z
x,x-y,1/2+z
-y,-x,1/2+z
y,x,1/2+z
x-y,-y,1/2+z
-x,-x+y,1/2+z
loop_
_atom_site_type_symbol
_atom_site_label
_atom_site_fract_x
_atom_site_fract_y
_atom_site_fract_z
Si Si1 0.455753 0.122747 0.230297
Si Si2 0.179088 0.228360 0.065235
Si Si3 0.276855 0.820264 0.605549
Si Si4 0.395858 0.885361 0.062657
O O1 0.572241 0.144482 0.250000
O O2 0.431380 0.215690 0.250000
O O3 0.463655 0.140979 0.165478
O O4 0.372409 0.000000 0.250000
O O5 0.204993 0.140188 0.086518
O O6 0.262072 0.348367 0.079887
O O7 0.173979 0.219471 0.000000
O O8 0.362675 0.807929 0.569926
O O9 0.164805 0.708671 0.600694
O O10 0.500000 0.000000 0.076578
O O11 0.364603 0.889808 0.000000
#
# Coordination Sequence:
#
# PCOD9588689 Si02
#       4
#    24  24  24  24
#     4  11  27  48  73 102 137 181 244 309 374 432
#     4  10  21  38  63  97 136 177 221 268 330 412
#     4  12  24  40  69  91 136 178 226 285 348 414
#     4  11  24  40  64 101 143 181 223 272 341 431
#
# _framework density 21.708210000000001
#
# number of rings (size 3 to 8) (size 9 to 14) (size 15 to 20)
#    0.000    1.000    0.000    6.250   10.500    5.000 
#    0.000    0.000    0.000    0.250    0.000    0.000 
#    0.000    0.000    0.000    0.000    0.000    0.000 
#
# Total GULP energy -536453.989787 kJ/mol
# GULP energy per Si atom -5588.062394 kJ/mol
# Density = 2.165880 g / cm^3
# Si number density = 21.708210 Si / 1000 Ang^3
#
#
#
# Elastic Constant Matrix: (Units=GPa)
#
#
# Indices 1 2 3 4 5 6 
#
# 1 132.4556 52.4668 31.8248 0.0000 0.0000 0.0000
# 2 52.4668 132.4556 31.8248 0.0000 0.0000 0.0000
# 3 31.8248 31.8248 92.3248 0.0000 0.0000 0.0000
# 4 0.0000 0.0000 0.0000 -5.7227 0.0000 0.0000
# 5 0.0000 0.0000 0.0000 0.0000 -5.7227 0.0000
# 6 0.0000 0.0000 0.0000 0.0000 0.0000 39.9944
#
#
#
# Elastic Compliance Matrix: (Units=1/GPa)
#
#
# Indices 1 2 3 4 5 6 
#
# 1 0.009319 -0.003183 -0.002115 0.000000 0.000000 0.000000
# 2 -0.003183 0.009319 -0.002115 0.000000 0.000000 0.000000
# 3 -0.002115 -0.002115 0.012289 0.000000 0.000000 0.000000
# 4 0.000000 0.000000 0.000000 -0.174742 0.000000 0.000000
# 5 0.000000 0.000000 0.000000 0.000000 -0.174742 0.000000
# 6 0.000000 0.000000 0.000000 0.000000 0.000000 0.025004
#
#
# Mechanical properties :
#
#
# Convention : Reuss Voigt Hill
#
# Bulk Modulus (GPa) = 62.10886 65.49652 63.80269
# Shear Modulus (GPa) = -18.29089 21.78442 1.74676
#
# Velocity S-wave (km/s) = -2.90587 3.17126 0.89800
# Velocity P-wave (km/s) = 4.17302 6.60651 5.52540
#
# Compressibility (1/GPa) = 0.01610076
#
# Stress axis : x y z
#
# Youngs Moduli (GPa) = 107.31111 107.31111 81.37082
#
# Poissons Ratio (x) = 0.34158 0.17210
# Poissons Ratio (y) = 0.34158 0.17210
# Poissons Ratio (z) = 0.22696 0.22696
#
# Static dielectric constant tensor:
#      x y z
#    x 1.852910 0.000000 0.000000 
#    y 0.000000 1.852910 0.000000 
#    z 0.000000 0.000000 1.773970 
# 
# From -- ./inp_files/6350.got.cif
#   From: 2010.05.17/outbox.cif.g08.bks.cpg/sg192_4_cif.got.tgz:6350.got - 2010.05.20 12:28:01.
