data_PCOD9588921
_publ_section_title
;
Structure prediction by ZEFSAII (Michael W. Deem and Ramdas Pophale) SiO2 
 PCOD9588921
Probable space group: P 63/M C M
;
_chemical_formula_sum "Si O2"
_cell_formula_units_Z 152
_cell_length_a 26.506342
_cell_length_b 26.506342
_cell_length_c 14.429753
_cell_angle_alpha 90.000000
_cell_angle_beta 90.000000
_cell_angle_gamma 120.000000
_cell_volume 8779.890979
_symmetry_space_group_name_H-M "P 63/M C M"
_symmetry_group_IT_number 193
_symmetry_cell_setting 'hexagonal'
loop_
_space_group_symop_operation_xyz
x,y,z
x-y,x,1/2+z
-y,x-y,z
-x,-y,1/2+z
-x+y,-x,z
y,-x+y,1/2+z
x-y,-y,1/2-z
-x,-x+y,1/2-z
y,x,1/2-z
-y,-x,-z
-x+y,y,-z
x,x-y,-z
-x,-y,-z
-x+y,-x,1/2-z
y,-x+y,-z
x,y,1/2-z
x-y,x,-z
-y,x-y,1/2-z
-x+y,y,1/2+z
x,x-y,1/2+z
-y,-x,1/2+z
y,x,z
x-y,-y,z
-x,-x+y,z
loop_
_atom_site_type_symbol
_atom_site_label
_atom_site_fract_x
_atom_site_fract_y
_atom_site_fract_z
Si Si1 0.137218 0.319659 0.644732
Si Si2 0.703862 0.771552 0.457972
Si Si3 0.650034 0.481248 0.141981
Si Si4 0.933807 0.597519 0.641143
Si Si5 0.213769 0.648849 0.137506
Si Si6 0.333334 0.666668 0.362839
Si Si7 0.759478 0.545769 0.895683
O O1 0.117096 0.299805 0.750000
O O2 0.088883 0.303817 0.564700
O O3 0.176436 0.292912 0.605257
O O4 0.176589 0.390672 0.648577
O O5 0.754119 0.754119 0.447958
O O6 0.645093 0.716043 0.419886
O O7 0.634806 0.476051 0.250000
O O8 0.643419 0.533848 0.103600
O O9 0.604796 0.417680 0.104705
O O10 0.719616 0.506313 0.139066
O O11 0.919213 0.602250 0.750000
O O12 0.000000 0.612991 0.640050
O O13 0.212793 0.649576 0.250000
O O14 0.281240 0.676727 0.107970
O O15 0.188669 0.690085 0.106915
O O16 0.333334 0.666668 0.250000
O O17 0.780172 0.560344 0.000000
#
# Coordination Sequence:
#
# PCOD9588921 Si02
#       7
#    24  24  24  24  24   8  24
#     4  11  21  36  57  82 113 150 185 225 275 325
#     4  10  20  35  55  85 115 143 184 232 277 326
#     4  10  18  30  46  65  90 124 165 211 268 330
#     4   9  16  28  50  76 101 132 175 230 280 322
#     4  10  19  30  45  63  89 126 162 206 270 344
#     4   9  15  27  40  56  82 114 154 197 253 325
#     4  12  21  32  47  70  99 130 173 222 273 337
#
# _framework density 17.312287999999999
#
# number of rings (size 3 to 8) (size 9 to 14) (size 15 to 20)
#    0.000    1.737    4.737    1.895    0.000    1.895 
#    0.000    0.000    0.000    0.947    0.000    5.526 
#    0.000    0.000    0.000   15.158    0.000   32.842 
#
# Total GULP energy -846863.932388 kJ/mol
# GULP energy per Si atom -5571.473239 kJ/mol
# Density = 1.727288 g / cm^3
# Si number density = 17.312288 Si / 1000 Ang^3
#
#
#
# Elastic Constant Matrix: (Units=GPa)
#
#
# Indices 1 2 3 4 5 6 
#
# 1 63.5305 34.2770 13.2793 0.0000 0.0000 0.0002
# 2 34.2770 63.5306 13.2793 0.0000 0.0000 0.0001
# 3 13.2793 13.2793 87.2102 0.0000 0.0000 0.0000
# 4 0.0000 0.0000 0.0000 17.2071 0.0000 0.0000
# 5 0.0000 0.0000 0.0000 0.0000 17.2071 0.0000
# 6 0.0002 0.0001 0.0000 0.0000 0.0000 14.6266
#
#
#
# Elastic Compliance Matrix: (Units=1/GPa)
#
#
# Indices 1 2 3 4 5 6 
#
# 1 0.022425 -0.011759 -0.001624 0.000000 0.000000 0.000000
# 2 -0.011759 0.022424 -0.001624 0.000000 0.000000 0.000000
# 3 -0.001624 -0.001624 0.011961 0.000000 0.000000 0.000000
# 4 0.000000 0.000000 0.000000 0.058116 0.000000 0.000000
# 5 0.000000 0.000000 0.000000 0.000000 0.058116 0.000000
# 6 0.000000 0.000000 0.000000 0.000000 0.000000 0.068369
#
#
# Mechanical properties :
#
#
# Convention : Reuss Voigt Hill
#
# Bulk Modulus (GPa) = 37.31964 37.32693 37.32328
# Shear Modulus (GPa) = 17.83445 20.03721 18.93583
#
# Velocity S-wave (km/s) = 3.21309 3.40575 3.31082
# Velocity P-wave (km/s) = 5.94717 6.08878 6.01839
#
# Compressibility (1/GPa) = 0.02679554
#
# Stress axis : x y z
#
# Youngs Moduli (GPa) = 44.59398 44.59412 83.60434
#
# Poissons Ratio (x) = 0.52440 0.13577
# Poissons Ratio (y) = 0.52440 0.13577
# Poissons Ratio (z) = 0.07242 0.07242
#
# Static dielectric constant tensor:
#      x y z
#    x 1.614790 0.000000 0.000000 
#    y 0.000000 1.614790 0.000000 
#    z 0.000000 0.000000 1.647470 
# 
# From -- ./inp_files/4342.got.cif
#   From: 2010.05.17/outbox.cif.g08.bks.cpg/sg193_3_cif.got.tgz:4342.got - 2010.05.20 12:33:02.
