data_PCOD9588243
_publ_section_title
;
Structure prediction by ZEFSAII (Michael W. Deem and Ramdas Pophale) SiO2 
 PCOD9588243
Probable space group: P 6/M M M
;
_chemical_formula_sum "Si O2"
_cell_formula_units_Z 168
_cell_length_a 23.342963
_cell_length_b 23.342963
_cell_length_c 22.620567
_cell_angle_alpha 90.000000
_cell_angle_beta 90.000000
_cell_angle_gamma 120.000000
_cell_volume 10674.464116
_symmetry_space_group_name_H-M "P 6/M M M"
_symmetry_group_IT_number 191
_symmetry_cell_setting 'hexagonal'
loop_
_space_group_symop_operation_xyz
x,y,z
x-y,x,z
-y,x-y,z
-x,-y,z
-x+y,-x,z
y,-x+y,z
x-y,-y,-z
-x,-x+y,-z
y,x,-z
-y,-x,-z
-x+y,y,-z
x,x-y,-z
-x,-y,-z
-x+y,-x,-z
y,-x+y,-z
x,y,-z
x-y,x,-z
-y,x-y,-z
-x+y,y,z
x,x-y,z
-y,-x,z
y,x,z
x-y,-y,z
-x,-x+y,z
loop_
_atom_site_type_symbol
_atom_site_label
_atom_site_fract_x
_atom_site_fract_y
_atom_site_fract_z
Si Si1 0.207761 0.925533 0.799419
Si Si2 0.666149 0.197904 0.930241
Si Si3 0.533696 0.199684 0.401351
Si Si4 0.794447 0.073615 0.341094
Si Si5 0.574069 0.717802 0.166554
Si Si6 0.799920 0.466036 0.259286
Si Si7 0.736289 0.124671 0.564841
O O1 0.133934 0.866067 0.814538
O O2 0.215793 0.920081 0.728611
O O3 0.262333 0.912372 0.830247
O O4 0.224218 0.000000 0.811553
O O5 0.597851 0.195702 0.915538
O O6 0.728062 0.271939 0.920103
O O7 0.679109 0.149131 0.889773
O O8 0.665683 0.183871 0.000000
O O9 0.597488 0.194976 0.418920
O O10 0.543781 0.271891 0.416842
O O11 0.526905 0.193502 0.329979
O O12 0.464162 0.144004 0.427068
O O13 0.868178 0.131822 0.355801
O O14 0.744230 0.084657 0.381651
O O15 0.780510 0.000000 0.351325
O O16 0.577657 0.788829 0.166959
O O17 0.531438 0.680280 0.224364
O O18 0.726677 0.453353 0.244558
O O19 0.805806 0.402903 0.241682
O O20 0.731205 0.094788 0.500000
O O21 0.804511 0.195490 0.566361
#
# Coordination Sequence:
#
# PCOD9588243 Si02
#       7
#    24  24  24  24  24  24  24
#     4   9  17  30  49  71  92 112 135 165 202 245
#     4   9  16  25  38  58  87 123 161 199 236 270
#     4   9  16  25  37  54  77 105 138 179 228 275
#     4   9  17  30  49  71  92 112 134 162 197 238
#     4   9  16  25  39  60  84 112 147 184 220 255
#     4   9  15  22  34  53  78 107 141 183 228 268
#     4   9  17  28  41  58  81 109 141 175 209 246
#
# _framework density 15.738495
#
# number of rings (size 3 to 8) (size 9 to 14) (size 15 to 20)
#    0.000    3.000    0.000    1.714    0.000    5.714 
#    0.000    1.429    0.000    3.714    0.000   10.000 
#    0.000    0.000    0.000    3.571    0.000    3.714 
#
# Total GULP energy -935333.479060 kJ/mol
# GULP energy per Si atom -5567.461185 kJ/mol
# Density = 1.570267 g / cm^3
# Si number density = 15.738495 Si / 1000 Ang^3
#
#
#
# Elastic Constant Matrix: (Units=GPa)
#
#
# Indices 1 2 3 4 5 6 
#
# 1 73.1899 39.2062 23.5717 0.0000 0.0000 0.0000
# 2 39.2062 73.1899 23.5717 0.0000 0.0000 0.0000
# 3 23.5717 23.5717 34.6059 0.0000 0.0000 0.0000
# 4 0.0000 0.0000 0.0000 10.4050 0.0000 0.0000
# 5 0.0000 0.0000 0.0000 0.0000 10.4050 0.0000
# 6 0.0000 0.0000 0.0000 0.0000 0.0000 16.9919
#
#
#
# Elastic Compliance Matrix: (Units=1/GPa)
#
#
# Indices 1 2 3 4 5 6 
#
# 1 0.020941 -0.008485 -0.008484 0.000000 0.000000 0.000000
# 2 -0.008485 0.020941 -0.008484 0.000000 0.000000 0.000000
# 3 -0.008484 -0.008484 0.040455 0.000000 0.000000 0.000000
# 4 0.000000 0.000000 0.000000 0.096108 0.000000 0.000000
# 5 0.000000 0.000000 0.000000 0.000000 0.096108 0.000000
# 6 0.000000 0.000000 0.000000 0.000000 0.000000 0.058852
#
#
# Mechanical properties :
#
#
# Convention : Reuss Voigt Hill
#
# Bulk Modulus (GPa) = 31.81724 39.29832 35.55778
# Shear Modulus (GPa) = 12.66506 13.86944 13.26725
#
# Velocity S-wave (km/s) = 2.83983 2.97179 2.90656
# Velocity P-wave (km/s) = 5.56893 6.06623 5.82289
#
# Compressibility (1/GPa) = 0.03142951
#
# Stress axis : x y z
#
# Youngs Moduli (GPa) = 47.75371 47.75371 24.71895
#
# Poissons Ratio (x) = 0.40519 0.20972
# Poissons Ratio (y) = 0.40519 0.20972
# Poissons Ratio (z) = 0.40515 0.40515
#
# Static dielectric constant tensor:
#      x y z
#    x 1.519780 0.000000 0.000000 
#    y 0.000000 1.519780 0.000000 
#    z 0.000000 0.000000 1.548750 
# 
# From -- ./inp_files/7925.got.cif
#   From: 2010.05.17/outbox.cif.g08.bks.cpg/sg191_4_cif.got.tgz:7925.got - 2010.05.20 12:20:32.
