data_PCOD9588198
_publ_section_title
;
Structure prediction by ZEFSAII (Michael W. Deem and Ramdas Pophale) SiO2 
 PCOD9588198
Probable space group: P 6/M M M
;
_chemical_formula_sum "Si O2"
_cell_formula_units_Z 96
_cell_length_a 21.643224
_cell_length_b 21.643224
_cell_length_c 17.682667
_cell_angle_alpha 90.000000
_cell_angle_beta 90.000000
_cell_angle_gamma 120.000000
_cell_volume 7173.354745
_symmetry_space_group_name_H-M "P 6/M M M"
_symmetry_group_IT_number 191
_symmetry_cell_setting 'hexagonal'
loop_
_space_group_symop_operation_xyz
x,y,z
x-y,x,z
-y,x-y,z
-x,-y,z
-x+y,-x,z
y,-x+y,z
x-y,-y,-z
-x,-x+y,-z
y,x,-z
-y,-x,-z
-x+y,y,-z
x,x-y,-z
-x,-y,-z
-x+y,-x,-z
y,-x+y,-z
x,y,-z
x-y,x,-z
-y,x-y,-z
-x+y,y,z
x,x-y,z
-y,-x,z
y,x,z
x-y,-y,z
-x,-x+y,z
loop_
_atom_site_type_symbol
_atom_site_label
_atom_site_fract_x
_atom_site_fract_y
_atom_site_fract_z
Si Si1 0.918339 0.692793 0.500000
Si Si2 0.336777 0.916995 0.614454
Si Si3 0.666677 0.480025 0.914564
Si Si4 0.385599 0.469165 0.776384
Si Si5 0.664222 0.191113 0.500000
O O1 0.855859 0.711717 0.500000
O O2 0.910066 0.643059 0.572852
O O3 0.000000 0.756918 0.500000
O O4 0.336185 0.902712 0.703327
O O5 0.351132 0.860753 0.571060
O O6 0.397613 0.000000 0.602528
O O7 0.740546 0.481092 0.904717
O O8 0.600882 0.399119 0.909859
O O9 0.654003 0.522706 0.848492
O O10 0.664928 0.505600 0.000000
O O11 0.451735 0.548266 0.756193
O O12 0.422315 0.422315 0.795422
O O13 0.745451 0.254550 0.500000
O O14 0.610511 0.221021 0.500000
#
# Coordination Sequence:
#
# PCOD9588198 Si02
#       5
#    12  24  24  24  12
#     4   9  17  29  45  64  84 105 129 156 187 222
#     4   9  17  29  45  61  75  96 128 164 197 227
#     4   9  17  28  41  56  74  98 127 157 189 226
#     4   9  17  28  41  58  78  97 122 158 197 234
#     4  11  21  30  39  53  77 105 131 158 190 230
#
# _framework density 13.382859
#
# number of rings (size 3 to 8) (size 9 to 14) (size 15 to 20)
#    0.000    2.750    0.000    3.750    0.000    5.500 
#    0.000    2.500    0.000    3.125    0.000    0.000 
#    0.000    0.000    0.000    0.000    0.000    0.000 
#
# Total GULP energy -534452.756272 kJ/mol
# GULP energy per Si atom -5567.216211 kJ/mol
# Density = 1.335240 g / cm^3
# Si number density = 13.382859 Si / 1000 Ang^3
#
#
#
# Elastic Constant Matrix: (Units=GPa)
#
#
# Indices 1 2 3 4 5 6 
#
# 1 62.5295 30.4600 52.9200 0.0000 0.0000 0.0000
# 2 30.4600 62.5295 52.9200 0.0000 0.0000 0.0000
# 3 52.9200 52.9200 124.8142 0.0000 0.0000 0.0000
# 4 0.0000 0.0000 0.0000 10.2245 0.0000 0.0000
# 5 0.0000 0.0000 0.0000 0.0000 10.2245 0.0000
# 6 0.0000 0.0000 0.0000 0.0000 0.0000 16.0348
#
#
#
# Elastic Compliance Matrix: (Units=1/GPa)
#
#
# Indices 1 2 3 4 5 6 
#
# 1 0.025983 -0.005199 -0.008812 0.000000 0.000000 0.000000
# 2 -0.005199 0.025983 -0.008812 0.000000 0.000000 0.000000
# 3 -0.008812 -0.008812 0.015484 0.000000 0.000000 0.000000
# 4 0.000000 0.000000 0.000000 0.097804 0.000000 0.000000
# 5 0.000000 0.000000 0.000000 0.000000 0.097804 0.000000
# 6 0.000000 0.000000 0.000000 0.000000 0.000000 0.062365
#
#
# Mechanical properties :
#
#
# Convention : Reuss Voigt Hill
#
# Bulk Modulus (GPa) = 45.86420 58.05258 51.95839
# Shear Modulus (GPa) = 13.21569 14.86831 14.04200
#
# Velocity S-wave (km/s) = 3.14587 3.33678 3.24273
# Velocity P-wave (km/s) = 6.89497 7.63662 7.27525
#
# Compressibility (1/GPa) = 0.02180350
#
# Stress axis : x y z
#
# Youngs Moduli (GPa) = 38.48668 38.48668 64.58114
#
# Poissons Ratio (x) = 0.20010 0.56910
# Poissons Ratio (y) = 0.20010 0.56910
# Poissons Ratio (z) = 0.33915 0.33915
#
# Static dielectric constant tensor:
#      x y z
#    x 1.426280 0.000000 0.000000 
#    y 0.000000 1.426280 0.000000 
#    z 0.000000 0.000000 1.448410 
# 
# From -- ./inp_files/5964.got.cif
#   From: 2010.05.17/outbox.cif.g08.bks.cpg/sg191_3_cif.got.tgz:5964.got - 2010.05.20 12:20:32.
