data_PCOD9588707
_publ_section_title
;
Structure prediction by ZEFSAII (Michael W. Deem and Ramdas Pophale) SiO2 
 PCOD9588707
Probable space group: P 6/M C C
;
_chemical_formula_sum "Si O2"
_cell_formula_units_Z 132
_cell_length_a 23.065741
_cell_length_b 23.065741
_cell_length_c 15.097657
_cell_angle_alpha 90.000000
_cell_angle_beta 90.000000
_cell_angle_gamma 120.000000
_cell_volume 6956.247226
_symmetry_space_group_name_H-M "P 6/M C C"
_symmetry_group_IT_number 192
_symmetry_cell_setting 'hexagonal'
loop_
_space_group_symop_operation_xyz
x,y,z
x-y,x,z
-y,x-y,z
-x,-y,z
-x+y,-x,z
y,-x+y,z
x-y,-y,1/2-z
-x,-x+y,1/2-z
y,x,1/2-z
-y,-x,1/2-z
-x+y,y,1/2-z
x,x-y,1/2-z
-x,-y,-z
-x+y,-x,-z
y,-x+y,-z
x,y,-z
x-y,x,-z
-y,x-y,-z
-x+y,y,1/2+z
x,x-y,1/2+z
-y,-x,1/2+z
y,x,1/2+z
x-y,-y,1/2+z
-x,-x+y,1/2+z
loop_
_atom_site_type_symbol
_atom_site_label
_atom_site_fract_x
_atom_site_fract_y
_atom_site_fract_z
Si Si1 0.842721 0.909438 0.500000
Si Si2 0.856510 0.585013 0.146203
Si Si3 0.421263 0.141408 0.854545
Si Si4 0.466680 0.665309 0.500000
Si Si5 0.848386 0.056258 0.688222
Si Si6 0.997595 0.705086 0.602585
Si Si7 0.196542 0.527368 0.000000
O O1 0.892799 0.881103 0.500000
O O2 0.805498 0.885468 0.593992
O O3 0.799062 0.604743 0.126591
O O4 0.853883 0.567186 0.249474
O O5 0.930722 0.644805 0.125591
O O6 0.836836 0.521167 0.084323
O O7 0.368282 0.065805 0.881373
O O8 0.486918 0.166133 0.913785
O O9 0.448913 0.724646 0.500000
O O10 0.403343 0.591986 0.500000
O O11 0.878409 0.121592 0.750000
O O12 0.771469 0.019763 0.661260
O O13 0.852791 0.000000 0.750000
O O14 0.998797 0.723437 0.500000
#
# Coordination Sequence:
#
# PCOD9588707 Si02
#       7
#    12  24  24  12  24  24  12
#     4  12  25  44  62  82 110 152 209 260 324 406
#     4  10  22  41  64  92 131 177 215 269 330 393
#     4  10  22  40  62  92 132 171 219 267 325 392
#     4  10  21  40  66 100 135 170 214 270 318 386
#     4  12  26  42  63  91 125 159 207 273 336 396
#     4  12  24  40  66  95 127 167 219 268 335 399
#     4  10  21  40  68 100 135 172 218 264 328 384
#
# _framework density 18.975749
#
# number of rings (size 3 to 8) (size 9 to 14) (size 15 to 20)
#    0.000    1.091    4.545    1.909    5.091    0.727 
#    0.000    1.818    0.000    4.364    0.000    0.000 
#    0.000    0.000    0.000    0.000    0.000    0.000 
#
# Total GULP energy -737320.706958 kJ/mol
# GULP energy per Si atom -5585.762931 kJ/mol
# Density = 1.893256 g / cm^3
# Si number density = 18.975749 Si / 1000 Ang^3
#
#
#
# Elastic Constant Matrix: (Units=GPa)
#
#
# Indices 1 2 3 4 5 6 
#
# 1 130.1124 75.3636 64.8592 0.0000 0.0000 0.0000
# 2 75.3636 130.1124 64.8592 0.0000 0.0000 0.0000
# 3 64.8592 64.8592 171.0439 0.0000 0.0000 0.0000
# 4 0.0000 0.0000 0.0000 15.3719 0.0000 0.0000
# 5 0.0000 0.0000 0.0000 0.0000 15.3719 0.0000
# 6 0.0000 0.0000 0.0000 0.0000 0.0000 27.3744
#
#
#
# Elastic Compliance Matrix: (Units=1/GPa)
#
#
# Indices 1 2 3 4 5 6 
#
# 1 0.012332 -0.005933 -0.002426 0.000000 0.000000 0.000000
# 2 -0.005933 0.012332 -0.002426 0.000000 0.000000 0.000000
# 3 -0.002426 -0.002426 0.007687 0.000000 0.000000 0.000000
# 4 0.000000 0.000000 0.000000 0.065054 0.000000 0.000000
# 5 0.000000 0.000000 0.000000 0.000000 0.065054 0.000000
# 6 0.000000 0.000000 0.000000 0.000000 0.000000 0.036530
#
#
# Mechanical properties :
#
#
# Convention : Reuss Voigt Hill
#
# Bulk Modulus (GPa) = 92.77845 93.49249 93.13547
# Shear Modulus (GPa) = 22.30617 26.70273 24.50445
#
# Velocity S-wave (km/s) = 3.43229 3.75534 3.59744
# Velocity P-wave (km/s) = 8.04405 8.25711 8.15128
#
# Compressibility (1/GPa) = 0.01077837
#
# Stress axis : x y z
#
# Youngs Moduli (GPa) = 81.09078 81.09078 130.09778
#
# Poissons Ratio (x) = 0.48114 0.31565
# Poissons Ratio (y) = 0.48114 0.31565
# Poissons Ratio (z) = 0.19675 0.19675
#
# Static dielectric constant tensor:
#      x y z
#    x 1.658470 0.000000 0.000000 
#    y 0.000000 1.658470 0.000000 
#    z 0.000000 0.000000 1.028390 
# 
# From -- ./inp_files/3289.got.cif
#   From: 2010.05.17/outbox.cif.g08.bks.cpg/sg192_2_cif.got.tgz:3289.got - 2010.05.20 12:28:01.
