data_PCOD9588656
_publ_section_title
;
Structure prediction by ZEFSAII (Michael W. Deem and Ramdas Pophale) SiO2 
 PCOD9588656
Probable space group: P 6/M C C
;
_chemical_formula_sum "Si O2"
_cell_formula_units_Z 102
_cell_length_a 25.641695
_cell_length_b 25.641695
_cell_length_c 9.429520
_cell_angle_alpha 90.000000
_cell_angle_beta 90.000000
_cell_angle_gamma 120.000000
_cell_volume 5369.250643
_symmetry_space_group_name_H-M "P 6/M C C"
_symmetry_group_IT_number 192
_symmetry_cell_setting 'hexagonal'
loop_
_space_group_symop_operation_xyz
x,y,z
x-y,x,z
-y,x-y,z
-x,-y,z
-x+y,-x,z
y,-x+y,z
x-y,-y,1/2-z
-x,-x+y,1/2-z
y,x,1/2-z
-y,-x,1/2-z
-x+y,y,1/2-z
x,x-y,1/2-z
-x,-y,-z
-x+y,-x,-z
y,-x+y,-z
x,y,-z
x-y,x,-z
-y,x-y,-z
-x+y,y,1/2+z
x,x-y,1/2+z
-y,-x,1/2+z
y,x,1/2+z
x-y,-y,1/2+z
-x,-x+y,1/2+z
loop_
_atom_site_type_symbol
_atom_site_label
_atom_site_fract_x
_atom_site_fract_y
_atom_site_fract_z
Si Si1 0.937560 0.644716 0.333897
Si Si2 0.566761 0.330153 0.163573
Si Si3 0.500000 0.000000 0.250000
Si Si4 0.172632 0.935497 0.670462
Si Si5 0.467756 0.368205 0.155918
O O1 0.947602 0.642326 0.500000
O O2 0.913941 0.691743 0.313440
O O3 0.901469 0.578123 0.271866
O O4 0.000000 0.673657 0.250000
O O5 0.626720 0.373281 0.250000
O O6 0.535725 0.267863 0.250000
O O7 0.526810 0.362292 0.163447
O O8 0.577654 0.321045 0.000000
O O9 0.437187 0.953920 0.172702
O O10 0.112079 0.887922 0.750000
O O11 0.165081 0.940574 0.500000
O O12 0.200690 0.000000 0.750000
O O13 0.440032 0.346990 0.000000
#
# Coordination Sequence:
#
# PCOD9588656 Si02
#       5
#    24  24   6  24  24
#     4  10  21  36  57  84 118 156 197 243 297 354
#     4  11  24  43  63  87 114 150 195 246 302 361
#     4  12  22  40  64  94 126 160 206 248 320 372
#     4  10  21  38  61  91 125 166 210 258 310 371
#     4  11  24  39  61  91 123 158 200 249 309 374
#
# _framework density 18.997063000000001
#
# number of rings (size 3 to 8) (size 9 to 14) (size 15 to 20)
#    0.000    1.412    2.353    2.706    0.000    6.588 
#    0.000    4.706    0.000    0.235    0.000    1.647 
#    0.000    0.000    0.000    0.000    0.000    0.000 
#
# Total GULP energy -568962.765605 kJ/mol
# GULP energy per Si atom -5578.066329 kJ/mol
# Density = 1.895383 g / cm^3
# Si number density = 18.997063 Si / 1000 Ang^3
#
#
#
# Elastic Constant Matrix: (Units=GPa)
#
#
# Indices 1 2 3 4 5 6 
#
# 1 87.1237 33.7598 57.4322 0.0000 0.0000 0.0000
# 2 33.7598 87.1237 57.4322 0.0000 0.0000 0.0000
# 3 57.4322 57.4322 162.1082 0.0000 0.0000 0.0000
# 4 0.0000 0.0000 0.0000 26.4053 0.0000 0.0000
# 5 0.0000 0.0000 0.0000 0.0000 26.4053 0.0000
# 6 0.0000 0.0000 0.0000 0.0000 0.0000 26.6820
#
#
#
# Elastic Compliance Matrix: (Units=1/GPa)
#
#
# Indices 1 2 3 4 5 6 
#
# 1 0.015605 -0.003134 -0.004418 0.000000 0.000000 0.000000
# 2 -0.003134 0.015605 -0.004418 0.000000 0.000000 0.000000
# 3 -0.004418 -0.004418 0.009299 0.000000 0.000000 0.000000
# 4 0.000000 0.000000 0.000000 0.037871 0.000000 0.000000
# 5 0.000000 0.000000 0.000000 0.000000 0.037871 0.000000
# 6 0.000000 0.000000 0.000000 0.000000 0.000000 0.037479
#
#
# Mechanical properties :
#
#
# Convention : Reuss Voigt Hill
#
# Bulk Modulus (GPa) = 60.35761 70.40041 65.37901
# Shear Modulus (GPa) = 27.29354 28.41396 27.85375
#
# Velocity S-wave (km/s) = 3.79453 3.87163 3.83327
# Velocity P-wave (km/s) = 7.14416 7.55811 7.35405
#
# Compressibility (1/GPa) = 0.01656792
#
# Stress axis : x y z
#
# Youngs Moduli (GPa) = 64.08245 64.08245 107.53571
#
# Poissons Ratio (x) = 0.20086 0.47510
# Poissons Ratio (y) = 0.20086 0.47510
# Poissons Ratio (z) = 0.28312 0.28312
#
# Static dielectric constant tensor:
#      x y z
#    x 1.675150 0.000000 0.000000 
#    y 0.000000 1.675150 0.000000 
#    z 0.000000 0.000000 1.653070 
# 
# From -- ./inp_files/879.got.cif
#   From: 2010.05.17/outbox.cif.g08.bks.cpg/sg192_1_cif.got.tgz:879.got - 2010.05.20 12:28:01.
