data_PCOD9588269
_publ_section_title
;
Structure prediction by ZEFSAII (Michael W. Deem and Ramdas Pophale) SiO2 
 PCOD9588269
Probable space group: P 6/M M M
;
_chemical_formula_sum "Si O2"
_cell_formula_units_Z 60
_cell_length_a 21.000000
_cell_length_b 21.000000
_cell_length_c 9.000000
_cell_angle_alpha 90.000000
_cell_angle_beta 90.000000
_cell_angle_gamma 120.000000
_cell_volume 3437.254828
_symmetry_space_group_name_H-M "P 6/M M M"
_symmetry_group_IT_number 191
_symmetry_cell_setting 'hexagonal'
loop_
_space_group_symop_operation_xyz
x,y,z
x-y,x,z
-y,x-y,z
-x,-y,z
-x+y,-x,z
y,-x+y,z
x-y,-y,-z
-x,-x+y,-z
y,x,-z
-y,-x,-z
-x+y,y,-z
x,x-y,-z
-x,-y,-z
-x+y,-x,-z
y,-x+y,-z
x,y,-z
x-y,x,-z
-y,x-y,-z
-x+y,y,z
x,x-y,z
-y,-x,z
y,x,z
x-y,-y,z
-x,-x+y,z
loop_
_atom_site_type_symbol
_atom_site_label
_atom_site_fract_x
_atom_site_fract_y
_atom_site_fract_z
Si Si1 0.000000 0.849242 0.176243
Si Si2 0.569997 0.860176 0.820017
Si Si3 0.543020 0.456981 0.819921
Si Si4 0.000000 0.711744 0.677932
O O1 0.000000 0.785098 0.270971
O O2 0.927052 0.854103 0.204867
O O3 0.000000 0.832460 0.000000
O O4 0.561088 0.780544 0.781988
O O5 0.502025 0.872848 0.777140
O O6 0.642268 0.927035 0.745890
O O7 0.577806 0.867495 0.000000
O O8 0.500000 0.500000 0.769722
O O9 0.541864 0.458137 0.000000
O O10 0.000000 0.706142 0.500000
#
# Coordination Sequence:
#
# PCOD9588269 Si02
#       4
#    12  24  12  12
#     4  10  21  38  59  81 106 139 179 221 270 330
#     4  10  20  36  59  84 112 147 185 227 278 336
#     4   9  16  32  58  84 112 142 180 228 278 330
#     4  12  24  36  54  81 113 145 186 233 274 319
#
# _framework density 17.45579
#
# number of rings (size 3 to 8) (size 9 to 14) (size 15 to 20)
#    0.000    1.800    2.000    3.200    0.000    7.200 
#    1.200    2.000    0.000    1.200    0.000    0.000 
#    0.000    0.000    0.000    0.000    0.000    0.000 
#
# Total GULP energy -334959.356268 kJ/mol
# GULP energy per Si atom -5582.655938 kJ/mol
# Density = 1.741606 g / cm^3
# Si number density = 17.455790 Si / 1000 Ang^3
#
#
#
# Elastic Constant Matrix: (Units=GPa)
#
#
# Indices 1 2 3 4 5 6 
#
# 1 179.1965 100.6790 48.9135 0.0000 0.0000 0.0000
# 2 100.6790 179.1965 48.9135 0.0000 0.0000 0.0000
# 3 48.9135 48.9135 44.8927 0.0000 0.0000 0.0000
# 4 0.0000 0.0000 0.0000 5.8296 0.0000 0.0000
# 5 0.0000 0.0000 0.0000 0.0000 5.8296 0.0000
# 6 0.0000 0.0000 0.0000 0.0000 0.0000 39.2587
#
#
#
# Elastic Compliance Matrix: (Units=1/GPa)
#
#
# Indices 1 2 3 4 5 6 
#
# 1 0.009253 -0.003483 -0.006288 0.000000 0.000000 0.000000
# 2 -0.003483 0.009253 -0.006288 0.000000 0.000000 0.000000
# 3 -0.006288 -0.006288 0.035977 0.000000 0.000000 0.000000
# 4 0.000000 0.000000 0.000000 0.171540 0.000000 0.000000
# 5 0.000000 0.000000 0.000000 0.000000 0.171540 0.000000
# 6 0.000000 0.000000 0.000000 0.000000 0.000000 0.025472
#
#
# Mechanical properties :
#
#
# Convention : Reuss Voigt Hill
#
# Bulk Modulus (GPa) = 44.70687 88.92196 66.81442
# Shear Modulus (GPa) = 10.80831 23.83554 17.32193
#
# Velocity S-wave (km/s) = 2.49104 3.69925 3.15355
# Velocity P-wave (km/s) = 5.82587 8.32453 7.18465
#
# Compressibility (1/GPa) = 0.02236792
#
# Stress axis : x y z
#
# Youngs Moduli (GPa) = 108.06835 108.06835 27.79560
#
# Poissons Ratio (x) = 0.37636 0.17477
# Poissons Ratio (y) = 0.37636 0.17477
# Poissons Ratio (z) = 0.67949 0.67949
#
# Static dielectric constant tensor:
#      x y z
#    x 1.585340 0.000000 0.000000 
#    y 0.000000 1.585340 0.000000 
#    z 0.000000 0.000000 1.574290 
# 
# From -- ./inp_files/587.got.cif
#   From: 2010.05.17/outbox.ucp.g08.bks.cvg/sg191_1_cif.got.tgz:587.got - 2010.06.11 15:22:43.
