data_PCOD9588478
_publ_section_title
;
Structure prediction by ZEFSAII (Michael W. Deem and Ramdas Pophale) SiO2 
 PCOD9588478
Probable space group: P 6/M C C
;
_chemical_formula_sum "Si O2"
_cell_formula_units_Z 156
_cell_length_a 20.649097
_cell_length_b 20.649097
_cell_length_c 21.611016
_cell_angle_alpha 90.000000
_cell_angle_beta 90.000000
_cell_angle_gamma 120.000000
_cell_volume 7980.092866
_symmetry_space_group_name_H-M "P 6/M C C"
_symmetry_group_IT_number 192
_symmetry_cell_setting 'hexagonal'
loop_
_space_group_symop_operation_xyz
x,y,z
x-y,x,z
-y,x-y,z
-x,-y,z
-x+y,-x,z
y,-x+y,z
x-y,-y,1/2-z
-x,-x+y,1/2-z
y,x,1/2-z
-y,-x,1/2-z
-x+y,y,1/2-z
x,x-y,1/2-z
-x,-y,-z
-x+y,-x,-z
y,-x+y,-z
x,y,-z
x-y,x,-z
-y,x-y,-z
-x+y,y,1/2+z
x,x-y,1/2+z
-y,-x,1/2+z
y,x,1/2+z
x-y,-y,1/2+z
-x,-x+y,1/2+z
loop_
_atom_site_type_symbol
_atom_site_label
_atom_site_fract_x
_atom_site_fract_y
_atom_site_fract_z
Si Si1 0.590287 0.868275 0.000000
Si Si2 0.710015 0.923106 0.782541
Si Si3 0.230356 0.213474 0.500000
Si Si4 0.098516 0.488275 0.613363
Si Si5 0.543773 0.624019 0.113791
Si Si6 0.377793 0.264718 0.000000
Si Si7 0.915069 0.359166 0.244373
Si Si8 0.040162 0.871969 0.875526
O O1 0.678649 0.931695 0.000000
O O2 0.547668 0.873008 0.061607
O O3 0.591771 0.792214 0.000000
O O4 0.701276 0.850638 0.750000
O O5 0.631754 0.919951 0.780114
O O6 0.750211 0.930610 0.846252
O O7 0.768310 0.000000 0.750000
O O8 0.221730 0.287390 0.500000
O O9 0.188208 0.157469 0.555533
O O10 0.109608 0.568147 0.593314
O O11 0.124697 0.497984 0.685838
O O12 0.009637 0.428882 0.617124
O O13 0.590575 0.685451 0.062178
O O14 0.543418 0.653807 0.183675
O O15 0.000000 0.427516 0.250000
O O16 0.957126 0.856129 0.858934
#
# Coordination Sequence:
#
# PCOD9588478 Si02
#       8
#    12  24  12  24  24  12  24  24
#     4  12  23  38  60  89 128 166 212 259 308 385
#     4  11  22  37  58  85 119 157 200 257 321 378
#     4  12  26  42  58  84 116 160 208 270 336 380
#     4  10  19  38  63  92 123 160 195 241 305 364
#     4  10  20  38  63  91 126 155 197 246 297 373
#     4  12  25  38  60  93 124 164 214 259 318 379
#     4   9  20  33  57  92 122 152 188 234 302 377
#     4  12  25  42  60  79 109 159 221 278 330 385
#
# _framework density 19.548645
#
# number of rings (size 3 to 8) (size 9 to 14) (size 15 to 20)
#    0.000    1.231    3.077    3.385    4.308    5.538 
#    0.000    0.769    0.000    2.462    0.000    0.000 
#    0.000    0.000    0.000    0.000    0.000    0.000 
#
# Total GULP energy -869295.386183 kJ/mol
# GULP energy per Si atom -5572.406322 kJ/mol
# Density = 1.950415 g / cm^3
# Si number density = 19.548645 Si / 1000 Ang^3
#
#
#
# Elastic Constant Matrix: (Units=GPa)
#
#
# Indices 1 2 3 4 5 6 
#
# 1 92.0242 -4.4868 7.6840 0.0000 0.0000 0.0000
# 2 -4.4868 92.0242 7.6840 0.0000 0.0000 0.0000
# 3 7.6840 7.6840 69.7767 0.0000 0.0000 0.0000
# 4 0.0000 0.0000 0.0000 -3.2041 0.0000 0.0000
# 5 0.0000 0.0000 0.0000 0.0000 -3.2041 0.0000
# 6 0.0000 0.0000 0.0000 0.0000 0.0000 48.2555
#
#
#
# Elastic Compliance Matrix: (Units=1/GPa)
#
#
# Indices 1 2 3 4 5 6 
#
# 1 0.011005 0.000644 -0.001283 0.000000 0.000000 0.000000
# 2 0.000644 0.011005 -0.001283 0.000000 0.000000 0.000000
# 3 -0.001283 -0.001283 0.014614 0.000000 0.000000 0.000000
# 4 0.000000 0.000000 0.000000 -0.312096 0.000000 0.000000
# 5 0.000000 0.000000 0.000000 0.000000 -0.312096 0.000000
# 6 0.000000 0.000000 0.000000 0.000000 0.000000 0.020723
#
#
# Mechanical properties :
#
#
# Convention : Reuss Voigt Hill
#
# Bulk Modulus (GPa) = 30.50592 30.62083 30.56337
# Shear Modulus (GPa) = -9.05675 24.56572 7.75449
#
# Velocity S-wave (km/s) = -2.15476 3.54877 1.99383
# Velocity P-wave (km/s) = 3.07382 5.69996 4.57919
#
# Compressibility (1/GPa) = 0.03278053
#
# Stress axis : x y z
#
# Youngs Moduli (GPa) = 90.86612 90.86612 68.42773
#
# Poissons Ratio (x) = -0.05849 0.08778
# Poissons Ratio (y) = -0.05849 0.08778
# Poissons Ratio (z) = 0.11656 0.11656
#
# Static dielectric constant tensor:
#      x y z
#    x 1.683790 0.000000 0.000000 
#    y 0.000000 1.683790 0.000000 
#    z 0.000000 0.000000 2.021710 
# 
# From -- ./inp_files/5287.got.cif
#   From: 2010.05.17/outbox.cif.g08.bks.cpg/sg192_3_cif.got.tgz:5287.got - 2010.05.20 12:28:01.
