data_PCOD9588568
_publ_section_title
;
Structure prediction by ZEFSAII (Michael W. Deem and Ramdas Pophale) SiO2 
 PCOD9588568
Probable space group: P 6/M C C
;
_chemical_formula_sum "Si O2"
_cell_formula_units_Z 56
_cell_length_a 13.860897
_cell_length_b 13.860897
_cell_length_c 14.104962
_cell_angle_alpha 90.000000
_cell_angle_beta 90.000000
_cell_angle_gamma 120.000000
_cell_volume 2346.849419
_symmetry_space_group_name_H-M "P 6/M C C"
_symmetry_group_IT_number 192
_symmetry_cell_setting 'hexagonal'
loop_
_space_group_symop_operation_xyz
x,y,z
x-y,x,z
-y,x-y,z
-x,-y,z
-x+y,-x,z
y,-x+y,z
x-y,-y,1/2-z
-x,-x+y,1/2-z
y,x,1/2-z
-y,-x,1/2-z
-x+y,y,1/2-z
x,x-y,1/2-z
-x,-y,-z
-x+y,-x,-z
y,-x+y,-z
x,y,-z
x-y,x,-z
-y,x-y,-z
-x+y,y,1/2+z
x,x-y,1/2+z
-y,-x,1/2+z
y,x,1/2+z
x-y,-y,1/2+z
-x,-x+y,1/2+z
loop_
_atom_site_type_symbol
_atom_site_label
_atom_site_fract_x
_atom_site_fract_y
_atom_site_fract_z
Si Si1 0.391658 0.901319 0.849433
Si Si2 0.246761 0.198913 0.884958
Si Si3 0.666667 0.333333 0.865057
O O1 0.445524 0.891048 0.750000
O O2 0.293848 0.930359 0.842459
O O3 0.341026 0.780738 0.894886
O O4 0.500000 0.000000 0.898568
O O5 0.145191 0.219612 0.859638
O O6 0.258452 0.208313 0.000000
O O7 0.666668 0.333334 0.750000
#
# Coordination Sequence:
#
# PCOD9588568 Si02
#       3
#    24  24   8
#     4  10  20  35  58  86 121 165 213 265 321 384
#     4  10  21  39  64  95 131 170 213 265 329 399
#     4   9  18  33  52  80 115 159 208 254 313 384
#
# _framework density 23.86178
#
# number of rings (size 3 to 8) (size 9 to 14) (size 15 to 20)
#    0.000    2.143    0.000    3.000    0.000    6.000 
#    0.000    2.143    0.000    0.000    0.000   12.000 
#    0.000    0.000    0.000    0.000    0.000    0.857 
#
# Total GULP energy -313043.860223 kJ/mol
# GULP energy per Si atom -5590.068933 kJ/mol
# Density = 2.380747 g / cm^3
# Si number density = 23.861780 Si / 1000 Ang^3
#
#
#
# Elastic Constant Matrix: (Units=GPa)
#
#
# Indices 1 2 3 4 5 6 
#
# 1 266.7563 151.1394 33.4204 0.0000 -0.0002 0.0002
# 2 151.1394 266.7563 33.4203 -0.0002 0.0001 -0.0003
# 3 33.4204 33.4203 123.8336 -0.0002 0.0001 0.0000
# 4 0.0000 -0.0002 -0.0002 -31.3890 0.0004 -0.0002
# 5 -0.0002 0.0001 0.0001 0.0004 -31.3886 -0.0001
# 6 0.0002 -0.0003 0.0000 -0.0002 -0.0001 57.8087
#
#
#
# Elastic Compliance Matrix: (Units=1/GPa)
#
#
# Indices 1 2 3 4 5 6 
#
# 1 0.005575 -0.003074 -0.000675 0.000000 0.000000 0.000000
# 2 -0.003074 0.005575 -0.000675 0.000000 0.000000 0.000000
# 3 -0.000675 -0.000675 0.008440 0.000000 0.000000 0.000000
# 4 0.000000 0.000000 0.000000 -0.031858 0.000000 0.000000
# 5 0.000000 0.000000 0.000000 0.000000 -0.031859 0.000000
# 6 0.000000 0.000000 0.000000 0.000000 0.000000 0.017298
#
#
# Mechanical properties :
#
#
# Convention : Reuss Voigt Hill
#
# Bulk Modulus (GPa) = 93.09534 121.47848 107.28691
# Shear Modulus (GPa) = -347.21989 28.29731 -159.46129
#
# Velocity S-wave (km/s) = -12.07596 3.44740 -8.18365
# Velocity P-wave (km/s) = 12.46352 8.17716 6.65107
#
# Compressibility (1/GPa) = 0.01074168
#
# Stress axis : x y z
#
# Youngs Moduli (GPa) = 179.36976 179.36984 118.48816
#
# Poissons Ratio (x) = 0.55141 0.07997
# Poissons Ratio (y) = 0.55141 0.07997
# Poissons Ratio (z) = 0.12107 0.12106
#
# Static dielectric constant tensor:
#      x y z
#    x 1.911590 0.000000 0.000000 
#    y 0.000000 1.911580 0.000000 
#    z 0.000000 0.000000 2.244050 
# 
# From -- ./inp_files/3697.got.cif
#   From: 2010.05.17/outbox.cif.g08.bks.cpg/sg192_2_cif.got.tgz:3697.got - 2010.05.20 12:28:01.
