data_PCOD9588880
_publ_section_title
;
Structure prediction by ZEFSAII (Michael W. Deem and Ramdas Pophale) SiO2 
 PCOD9588880
Probable space group: P 63/M C M
;
_chemical_formula_sum "Si O2"
_cell_formula_units_Z 168
_cell_length_a 20.278286
_cell_length_b 20.278286
_cell_length_c 25.703277
_cell_angle_alpha 90.000000
_cell_angle_beta 90.000000
_cell_angle_gamma 120.000000
_cell_volume 9153.382609
_symmetry_space_group_name_H-M "P 63/M C M"
_symmetry_group_IT_number 193
_symmetry_cell_setting 'hexagonal'
loop_
_space_group_symop_operation_xyz
x,y,z
x-y,x,1/2+z
-y,x-y,z
-x,-y,1/2+z
-x+y,-x,z
y,-x+y,1/2+z
x-y,-y,1/2-z
-x,-x+y,1/2-z
y,x,1/2-z
-y,-x,-z
-x+y,y,-z
x,x-y,-z
-x,-y,-z
-x+y,-x,1/2-z
y,-x+y,-z
x,y,1/2-z
x-y,x,-z
-y,x-y,1/2-z
-x+y,y,1/2+z
x,x-y,1/2+z
-y,-x,1/2+z
y,x,z
x-y,-y,z
-x,-x+y,z
loop_
_atom_site_type_symbol
_atom_site_label
_atom_site_fract_x
_atom_site_fract_y
_atom_site_fract_z
Si Si1 0.495652 0.791336 0.051164
Si Si2 0.405521 0.083109 0.367826
Si Si3 0.159264 0.605064 0.193107
Si Si4 0.810102 0.081801 0.929929
Si Si5 0.758383 0.673512 0.547616
Si Si6 0.721367 0.241655 0.837360
Si Si7 0.086498 0.542084 0.083894
O O1 0.586522 0.850514 0.056530
O O2 0.469654 0.737858 0.102255
O O3 0.460069 0.847135 0.053144
O O4 0.481118 0.740559 0.000000
O O5 0.332883 0.083147 0.390442
O O6 0.449909 0.156441 0.332603
O O7 0.465541 0.092627 0.413681
O O8 0.378054 0.000000 0.344417
O O9 0.126001 0.576596 0.250000
O O10 0.203564 0.696059 0.190852
O O11 0.227973 0.587342 0.182334
O O12 0.102465 0.569638 0.144505
O O13 0.888599 0.160209 0.925481
O O14 0.804364 0.000000 0.925712
O O15 0.775935 0.083598 0.986544
O O16 0.694590 0.694590 0.563048
O O17 0.000000 0.516081 0.068072
#
# Coordination Sequence:
#
# PCOD9588880 Si02
#       7
#    24  24  24  24  24  24  24
#     4  11  19  33  50  70 105 138 171 209 261 311
#     4   9  16  31  51  68  94 127 160 209 265 307
#     4  10  20  33  53  72  92 129 167 213 269 316
#     4   9  16  28  46  66  92 129 172 210 244 296
#     4  10  17  27  45  68  94 128 171 210 246 295
#     4  10  19  33  50  72 100 125 172 217 251 316
#     4   9  20  34  50  75 100 129 172 218 260 309
#
# _framework density 18.353870000000001
#
# number of rings (size 3 to 8) (size 9 to 14) (size 15 to 20)
#    0.000    2.286    2.857    1.143    0.000    0.286 
#    0.000   12.143    0.000   14.429    0.000    2.000 
#    0.000    0.000    0.000    0.000    0.000    0.000 
#
# Total GULP energy -936073.774925 kJ/mol
# GULP energy per Si atom -5571.867708 kJ/mol
# Density = 1.831210 g / cm^3
# Si number density = 18.353870 Si / 1000 Ang^3
#
#
#
# Elastic Constant Matrix: (Units=GPa)
#
#
# Indices 1 2 3 4 5 6 
#
# 1 39.8018 -2.7694 8.5490 0.0000 0.0000 0.0000
# 2 -2.7694 39.8018 8.5490 0.0000 0.0000 0.0000
# 3 8.5490 8.5490 67.2495 0.0000 0.0000 0.0000
# 4 0.0000 0.0000 0.0000 4.2657 0.0000 0.0000
# 5 0.0000 0.0000 0.0000 0.0000 4.2657 0.0000
# 6 0.0000 0.0000 0.0000 0.0000 0.0000 21.2856
#
#
#
# Elastic Compliance Matrix: (Units=1/GPa)
#
#
# Indices 1 2 3 4 5 6 
#
# 1 0.026089 0.002599 -0.003647 0.000000 0.000000 0.000000
# 2 0.002599 0.026089 -0.003647 0.000000 0.000000 0.000000
# 3 -0.003647 -0.003647 0.015797 0.000000 0.000000 0.000000
# 4 0.000000 0.000000 0.000000 0.234428 0.000000 0.000000
# 5 0.000000 0.000000 0.000000 0.000000 0.234428 0.000000
# 6 0.000000 0.000000 0.000000 0.000000 0.000000 0.046980
#
#
# Mechanical properties :
#
#
# Convention : Reuss Voigt Hill
#
# Bulk Modulus (GPa) = 17.06947 19.50116 18.28532
# Shear Modulus (GPa) = 8.16021 14.79835 11.47928
#
# Velocity S-wave (km/s) = 2.11085 2.84259 2.50360
# Velocity P-wave (km/s) = 3.90657 4.62838 4.28271
#
# Compressibility (1/GPa) = 0.05858413
#
# Stress axis : x y z
#
# Youngs Moduli (GPa) = 38.33092 38.33092 63.30233
#
# Poissons Ratio (x) = -0.09960 0.23085
# Poissons Ratio (y) = -0.09960 0.23085
# Poissons Ratio (z) = 0.13979 0.13979
#
# Static dielectric constant tensor:
#      x y z
#    x 1.682110 0.000000 0.000000 
#    y 0.000000 1.682110 0.000000 
#    z 0.000000 0.000000 1.670370 
# 
# From -- ./inp_files/7682.got.cif
#   From: 2010.05.17/outbox.cif.g08.bks.cpg/sg193_4_cif.got.tgz:7682.got - 2010.05.20 12:33:02.
