data_PCOD9588717
_publ_section_title
;
Structure prediction by ZEFSAII (Michael W. Deem and Ramdas Pophale) SiO2 
 PCOD9588717
Probable space group: P 6/M C C
;
_chemical_formula_sum "Si O2"
_cell_formula_units_Z 60
_cell_length_a 14.211840
_cell_length_b 14.211840
_cell_length_c 13.494341
_cell_angle_alpha 90.000000
_cell_angle_beta 90.000000
_cell_angle_gamma 120.000000
_cell_volume 2360.385462
_symmetry_space_group_name_H-M "P 6/M C C"
_symmetry_group_IT_number 192
_symmetry_cell_setting 'hexagonal'
loop_
_space_group_symop_operation_xyz
x,y,z
x-y,x,z
-y,x-y,z
-x,-y,z
-x+y,-x,z
y,-x+y,z
x-y,-y,1/2-z
-x,-x+y,1/2-z
y,x,1/2-z
-y,-x,1/2-z
-x+y,y,1/2-z
x,x-y,1/2-z
-x,-y,-z
-x+y,-x,-z
y,-x+y,-z
x,y,-z
x-y,x,-z
-y,x-y,-z
-x+y,y,1/2+z
x,x-y,1/2+z
-y,-x,1/2+z
y,x,1/2+z
x-y,-y,1/2+z
-x,-x+y,1/2+z
loop_
_atom_site_type_symbol
_atom_site_label
_atom_site_fract_x
_atom_site_fract_y
_atom_site_fract_z
Si Si1 0.738287 0.161776 0.380793
Si Si2 0.602988 0.489164 0.618209
Si Si3 0.228015 0.228015 0.250000
O O1 0.744658 0.151506 0.500000
O O2 0.839522 0.275434 0.343379
O O3 0.639119 0.184606 0.363611
O O4 0.729435 0.053109 0.334925
O O5 0.500000 0.500000 0.648404
O O6 0.613642 0.506810 0.500000
O O7 0.209288 0.104644 0.250000
#
# Coordination Sequence:
#
# PCOD9588717 Si02
#       3
#    24  24  12
#     4  10  21  41  71 106 142 182 233 296 365 437
#     4   9  17  33  62  98 134 171 217 280 351 418
#     4  12  27  46  67  96 142 200 256 308 364 426
#
# _framework density 25.419578000000001
#
# number of rings (size 3 to 8) (size 9 to 14) (size 15 to 20)
#    0.000    2.000    0.000    3.400    0.000    8.000 
#    0.000    9.000    0.000    2.400    0.000    2.800 
#    0.000    1.600    0.000    0.000    0.000    0.000 
#
# Total GULP energy -334092.323716 kJ/mol
# GULP energy per Si atom -5568.205395 kJ/mol
# Density = 2.536172 g / cm^3
# Si number density = 25.419578 Si / 1000 Ang^3
#
#
#
# Elastic Constant Matrix: (Units=GPa)
#
#
# Indices 1 2 3 4 5 6 
#
# 1 217.4472 93.6763 52.7197 0.0000 0.0000 0.0000
# 2 93.6763 217.4472 52.7197 0.0000 0.0000 0.0000
# 3 52.7197 52.7197 131.3199 0.0000 0.0000 0.0000
# 4 0.0000 0.0000 0.0000 39.8225 0.0000 0.0000
# 5 0.0000 0.0000 0.0000 0.0000 39.8225 0.0000
# 6 0.0000 0.0000 0.0000 0.0000 0.0000 61.8854
#
#
#
# Elastic Compliance Matrix: (Units=1/GPa)
#
#
# Indices 1 2 3 4 5 6 
#
# 1 0.005900 -0.002180 -0.001494 0.000000 0.000000 0.000000
# 2 -0.002180 0.005900 -0.001494 0.000000 0.000000 0.000000
# 3 -0.001494 -0.001494 0.008814 0.000000 0.000000 0.000000
# 4 0.000000 0.000000 0.000000 0.025111 0.000000 0.000000
# 5 0.000000 0.000000 0.000000 0.000000 0.025111 0.000000
# 6 0.000000 0.000000 0.000000 0.000000 0.000000 0.016159
#
#
# Mechanical properties :
#
#
# Convention : Reuss Voigt Hill
#
# Bulk Modulus (GPa) = 97.27056 107.16065 102.21561
# Shear Modulus (GPa) = 49.62488 52.77934 51.20211
#
# Velocity S-wave (km/s) = 4.42320 4.56162 4.49294
# Velocity P-wave (km/s) = 8.02716 8.36616 8.19842
#
# Compressibility (1/GPa) = 0.01028060
#
# Stress axis : x y z
#
# Youngs Moduli (GPa) = 169.49484 169.49484 113.45320
#
# Poissons Ratio (x) = 0.36942 0.16945
# Poissons Ratio (y) = 0.36942 0.16945
# Poissons Ratio (z) = 0.25315 0.25315
#
# Static dielectric constant tensor:
#      x y z
#    x 2.360170 0.000000 0.000000 
#    y 0.000000 2.360170 0.000000 
#    z 0.000000 0.000000 2.059370 
# 
# From -- ./inp_files/2248.got.cif
#   From: 2010.05.17/outbox.cif.g08.bks.cpg/sg192_2_cif.got.tgz:2248.got - 2010.05.20 12:28:01.
