data_PCOD9588201
_publ_section_title
;
Structure prediction by ZEFSAII (Michael W. Deem and Ramdas Pophale) SiO2 
 PCOD9588201
Probable space group: P 6/M M M
;
_chemical_formula_sum "Si O2"
_cell_formula_units_Z 168
_cell_length_a 21.961653
_cell_length_b 21.961653
_cell_length_c 28.056306
_cell_angle_alpha 90.000000
_cell_angle_beta 90.000000
_cell_angle_gamma 120.000000
_cell_volume 11719.016666
_symmetry_space_group_name_H-M "P 6/M M M"
_symmetry_group_IT_number 191
_symmetry_cell_setting 'hexagonal'
loop_
_space_group_symop_operation_xyz
x,y,z
x-y,x,z
-y,x-y,z
-x,-y,z
-x+y,-x,z
y,-x+y,z
x-y,-y,-z
-x,-x+y,-z
y,x,-z
-y,-x,-z
-x+y,y,-z
x,x-y,-z
-x,-y,-z
-x+y,-x,-z
y,-x+y,-z
x,y,-z
x-y,x,-z
-y,x-y,-z
-x+y,y,z
x,x-y,z
-y,-x,z
y,x,z
x-y,-y,z
-x,-x+y,z
loop_
_atom_site_type_symbol
_atom_site_label
_atom_site_fract_x
_atom_site_fract_y
_atom_site_fract_z
Si Si1 0.916045 0.392671 0.913576
Si Si2 0.479448 0.813402 0.278522
Si Si3 0.614069 0.080858 0.635807
Si Si4 0.667217 0.190404 0.443406
Si Si5 0.359737 0.251026 0.051675
Si Si6 0.780720 0.076851 0.155331
Si Si7 0.352236 0.918253 0.194198
O O1 0.887583 0.443792 0.928043
O O2 0.888478 0.321539 0.941668
O O3 0.905734 0.376939 0.857136
O O4 0.000000 0.434162 0.920840
O O5 0.399328 0.798655 0.282329
O O6 0.481160 0.740580 0.278683
O O7 0.524039 0.865846 0.321746
O O8 0.515400 0.860561 0.231620
O O9 0.538271 0.076541 0.637522
O O10 0.650484 0.122009 0.587150
O O11 0.596175 0.000000 0.639407
O O12 0.668377 0.178772 0.500000
O O13 0.602385 0.204769 0.434493
O O14 0.740606 0.259395 0.430043
O O15 0.372906 0.186453 0.051871
O O16 0.315424 0.239978 0.099537
O O17 0.328653 0.251368 0.000000
O O18 0.858074 0.141927 0.162756
O O19 0.722997 0.087307 0.184265
O O20 0.767605 0.000000 0.167534
O O21 0.406294 0.000000 0.208441
#
# Coordination Sequence:
#
# PCOD9588201 Si02
#       7
#    24  24  24  24  24  24  24
#     4   9  17  28  42  60  79  98 123 156 194 235
#     4  11  21  31  43  59  82 109 137 170 208 252
#     4   9  18  30  42  57  76 101 135 172 208 243
#     4   9  16  26  41  60  82 107 134 165 203 248
#     4   9  17  28  41  57  78 103 129 159 194 230
#     4   9  17  29  45  64  84 105 130 159 192 232
#     4   9  17  30  47  63  80 104 133 166 202 240
#
# _framework density 14.335673
#
# number of rings (size 3 to 8) (size 9 to 14) (size 15 to 20)
#    0.000    2.714    0.000    3.286    0.000    4.286 
#    0.000    3.571    0.000    0.429    0.000    0.000 
#    0.000    0.000    0.000    3.571    0.000    0.000 
#
# Total GULP energy -935319.939093 kJ/mol
# GULP energy per Si atom -5567.380590 kJ/mol
# Density = 1.430304 g / cm^3
# Si number density = 14.335673 Si / 1000 Ang^3
#
#
#
# Elastic Constant Matrix: (Units=GPa)
#
#
# Indices 1 2 3 4 5 6 
#
# 1 81.0134 37.2456 21.8880 0.0000 0.0000 0.0000
# 2 37.2456 81.0134 21.8880 0.0000 0.0000 0.0000
# 3 21.8880 21.8880 40.6493 0.0000 0.0000 0.0000
# 4 0.0000 0.0000 0.0000 30.4037 0.0000 0.0000
# 5 0.0000 0.0000 0.0000 0.0000 30.4037 0.0000
# 6 0.0000 0.0000 0.0000 0.0000 0.0000 21.8839
#
#
#
# Elastic Compliance Matrix: (Units=1/GPa)
#
#
# Indices 1 2 3 4 5 6 
#
# 1 0.016704 -0.006143 -0.005687 0.000000 0.000000 0.000000
# 2 -0.006143 0.016704 -0.005687 0.000000 0.000000 0.000000
# 3 -0.005687 -0.005687 0.030725 0.000000 0.000000 0.000000
# 4 0.000000 0.000000 0.000000 0.032891 0.000000 0.000000
# 5 0.000000 0.000000 0.000000 0.000000 0.032891 0.000000
# 6 0.000000 0.000000 0.000000 0.000000 0.000000 0.045696
#
#
# Mechanical properties :
#
#
# Convention : Reuss Voigt Hill
#
# Bulk Modulus (GPa) = 34.36415 40.52436 37.44425
# Shear Modulus (GPa) = 22.69174 24.64855 23.67014
#
# Velocity S-wave (km/s) = 3.98287 4.15105 4.06783
# Velocity P-wave (km/s) = 6.72117 7.16271 6.94545
#
# Compressibility (1/GPa) = 0.02910009
#
# Stress axis : x y z
#
# Youngs Moduli (GPa) = 59.86427 59.86427 32.54703
#
# Poissons Ratio (x) = 0.36777 0.18509
# Poissons Ratio (y) = 0.36777 0.18509
# Poissons Ratio (z) = 0.34043 0.34043
#
# Static dielectric constant tensor:
#      x y z
#    x 1.460980 0.000000 0.000000 
#    y 0.000000 1.460980 0.000000 
#    z 0.000000 0.000000 1.501820 
# 
# From -- ./inp_files/10004.got.cif
#   From: 2010.05.17/outbox.cif.g08.bks.cpg/sg191_6_cif.got.tgz:10004.got - 2010.05.20 12:20:32.
