data_PCOD9588604
_publ_section_title
;
Structure prediction by ZEFSAII (Michael W. Deem and Ramdas Pophale) SiO2 
 PCOD9588604
Probable space group: P 6/M C C
;
_chemical_formula_sum "Si O2"
_cell_formula_units_Z 104
_cell_length_a 19.815137
_cell_length_b 19.815137
_cell_length_c 17.358855
_cell_angle_alpha 90.000000
_cell_angle_beta 90.000000
_cell_angle_gamma 120.000000
_cell_volume 5902.634146
_symmetry_space_group_name_H-M "P 6/M C C"
_symmetry_group_IT_number 192
_symmetry_cell_setting 'hexagonal'
loop_
_space_group_symop_operation_xyz
x,y,z
x-y,x,z
-y,x-y,z
-x,-y,z
-x+y,-x,z
y,-x+y,z
x-y,-y,1/2-z
-x,-x+y,1/2-z
y,x,1/2-z
-y,-x,1/2-z
-x+y,y,1/2-z
x,x-y,1/2-z
-x,-y,-z
-x+y,-x,-z
y,-x+y,-z
x,y,-z
x-y,x,-z
-y,x-y,-z
-x+y,y,1/2+z
x,x-y,1/2+z
-y,-x,1/2+z
y,x,1/2+z
x-y,-y,1/2+z
-x,-x+y,1/2+z
loop_
_atom_site_type_symbol
_atom_site_label
_atom_site_fract_x
_atom_site_fract_y
_atom_site_fract_z
Si Si1 0.333334 0.666668 0.654554
Si Si2 0.965733 0.411126 0.164321
Si Si3 0.786804 0.502246 0.333730
Si Si4 0.836375 0.671992 0.657056
Si Si5 0.715653 0.714655 0.091315
O O1 0.333334 0.666667 0.750000
O O2 0.273791 0.579211 0.628774
O O3 0.871762 0.361915 0.171085
O O4 0.000000 0.500000 0.136611
O O5 0.000000 0.418128 0.250000
O O6 0.991201 0.359341 0.114822
O O7 0.750398 0.500796 0.250000
O O8 0.799975 0.582108 0.370487
O O9 0.836045 0.672090 0.750000
O O10 0.783682 0.705363 0.625767
O O11 0.924524 0.714959 0.627509
O O12 0.722653 0.720731 0.000000
#
# Coordination Sequence:
#
# PCOD9588604 Si02
#       5
#     8  24  24  24  24
#     4   9  18  24  45  72 106 131 178 237 301 329
#     4  10  21  32  54  77 108 147 199 246 293 344
#     4   9  18  29  47  77 107 139 181 242 296 334
#     4  10  20  37  60  84 114 146 193 234 282 340
#     4  11  22  37  57  85 116 151 185 234 295 352
#
# _framework density 17.619251999999999
#
# number of rings (size 3 to 8) (size 9 to 14) (size 15 to 20)
#    0.000    2.077    0.000    5.538   12.923    0.462 
#    0.000    0.000    0.000    0.462    0.000    3.231 
#    0.000    0.000    0.000    0.000    0.000    0.000 
#
# Total GULP energy -580192.928850 kJ/mol
# GULP energy per Si atom -5578.778162 kJ/mol
# Density = 1.757915 g / cm^3
# Si number density = 17.619252 Si / 1000 Ang^3
#
#
#
# Elastic Constant Matrix: (Units=GPa)
#
#
# Indices 1 2 3 4 5 6 
#
# 1 160.8671 97.7588 42.6430 -0.0002 0.0000 0.0001
# 2 97.7588 160.8659 42.6431 -0.0001 -0.0001 -0.0001
# 3 42.6430 42.6431 74.0184 0.0000 0.0000 0.0000
# 4 -0.0002 -0.0001 0.0000 19.5533 -0.0004 0.0000
# 5 0.0000 -0.0001 0.0000 -0.0004 19.5527 0.0000
# 6 0.0001 -0.0001 0.0000 0.0000 0.0000 31.5540
#
#
#
# Elastic Compliance Matrix: (Units=1/GPa)
#
#
# Indices 1 2 3 4 5 6 
#
# 1 0.010310 -0.005536 -0.002750 0.000000 0.000000 0.000000
# 2 -0.005536 0.010310 -0.002750 0.000000 0.000000 0.000000
# 3 -0.002750 -0.002750 0.016679 0.000000 0.000000 0.000000
# 4 0.000000 0.000000 0.000000 0.051142 0.000001 0.000000
# 5 0.000000 0.000000 0.000000 0.000001 0.051144 0.000000
# 6 0.000000 0.000000 0.000000 0.000000 0.000000 0.031692
#
#
# Mechanical properties :
#
#
# Convention : Reuss Voigt Hill
#
# Bulk Modulus (GPa) = 65.67908 84.64902 75.16405
# Shear Modulus (GPa) = 25.19858 28.31244 26.75551
#
# Velocity S-wave (km/s) = 3.78587 4.01297 3.90107
# Velocity P-wave (km/s) = 7.51453 8.34384 7.94002
#
# Compressibility (1/GPa) = 0.01522555
#
# Stress axis : x y z
#
# Youngs Moduli (GPa) = 96.99645 96.99553 59.95612
#
# Poissons Ratio (x) = 0.53699 0.16488
# Poissons Ratio (y) = 0.53699 0.16489
# Poissons Ratio (z) = 0.26674 0.26675
#
# Static dielectric constant tensor:
#      x y z
#    x 1.620680 0.000000 0.000000 
#    y 0.000000 1.620680 0.000000 
#    z 0.000000 0.000000 1.579870 
# 
# From -- ./inp_files/2852.got.cif
#   From: 2010.05.17/outbox.cif.g08.bks.cpg/sg192_2_cif.got.tgz:2852.got - 2010.05.20 12:28:01.
