data_PCOD9588854
_publ_section_title
;
Structure prediction by ZEFSAII (Michael W. Deem and Ramdas Pophale) SiO2 
 PCOD9588854
Probable space group: P 6/M C C
;
_chemical_formula_sum "Si O2"
_cell_formula_units_Z 168
_cell_length_a 30.791089
_cell_length_b 30.791089
_cell_length_c 15.105894
_cell_angle_alpha 90.000000
_cell_angle_beta 90.000000
_cell_angle_gamma 120.000000
_cell_volume 12403.011964
_symmetry_space_group_name_H-M "P 6/M C C"
_symmetry_group_IT_number 192
_symmetry_cell_setting 'hexagonal'
loop_
_space_group_symop_operation_xyz
x,y,z
x-y,x,z
-y,x-y,z
-x,-y,z
-x+y,-x,z
y,-x+y,z
x-y,-y,1/2-z
-x,-x+y,1/2-z
y,x,1/2-z
-y,-x,1/2-z
-x+y,y,1/2-z
x,x-y,1/2-z
-x,-y,-z
-x+y,-x,-z
y,-x+y,-z
x,y,-z
x-y,x,-z
-y,x-y,-z
-x+y,y,1/2+z
x,x-y,1/2+z
-y,-x,1/2+z
y,x,1/2+z
x-y,-y,1/2+z
-x,-x+y,1/2+z
loop_
_atom_site_type_symbol
_atom_site_label
_atom_site_fract_x
_atom_site_fract_y
_atom_site_fract_z
Si Si1 0.883051 0.528006 0.895169
Si Si2 0.294188 0.941494 0.896001
Si Si3 0.648052 0.873232 0.250000
Si Si4 0.187298 0.473617 0.250000
Si Si5 0.705811 0.058506 0.603999
Si Si6 0.644955 0.528006 0.104831
Si Si7 0.471220 0.528780 0.607783
O O1 0.919747 0.587776 0.882895
O O2 0.834245 0.512491 0.835896
O O3 0.912391 0.499419 0.866768
O O4 0.871468 0.519340 0.000000
O O5 0.246196 0.908569 0.835555
O O6 0.322343 1.000000 0.872262
O O7 0.281660 0.936387 0.000000
O O8 0.666921 0.833461 0.250000
O O9 0.587201 0.840739 0.250000
O O10 0.662373 0.908569 0.164445
O O11 0.246195 0.492389 0.250000
O O12 0.165755 0.487509 0.335896
O O13 0.718339 0.063612 0.500000
O O14 0.668029 0.080253 0.617106
O O15 0.587028 0.499418 0.133232
O O16 0.647872 0.519340 0.000000
O O17 0.500000 0.500000 0.638843
O O18 0.472146 0.527854 0.500000
#
# Coordination Sequence:
#
# PCOD9588854 Si02
#       7
#    24  24  24  24  24  24  24
#     4   9  17  28  42  60  82 106 130 156 188 230
#     4   9  16  26  40  56  75 102 133 160 188 226
#     4   9  17  27  38  53  73  97 125 160 196 225
#     4   9  18  30  41  55  75  98 128 162 193 226
#     4   9  16  26  40  56  75 102 133 160 188 226
#     4   9  17  28  42  60  82 106 130 156 188 230
#     4   9  16  27  43  63  90 117 133 150 183 233
#
# _framework density 13.545097
#
# number of rings (size 3 to 8) (size 9 to 14) (size 15 to 20)
#    0.000    3.000    0.000    1.286    0.000    5.143 
#    0.000    8.571    0.000    0.000    0.000    0.000 
#    5.714    0.000    1.714    0.000    0.000    0.000 
#
# Total GULP energy -935848.763004 kJ/mol
# GULP energy per Si atom -5570.528351 kJ/mol
# Density = 1.351427 g / cm^3
# Si number density = 13.545097 Si / 1000 Ang^3
#
#
#
# Elastic Constant Matrix: (Units=GPa)
#
#
# Indices 1 2 3 4 5 6 
#
# 1 89.1837 51.8794 50.0275 0.0000 0.0000 0.0000
# 2 51.8794 89.1837 50.0275 0.0000 0.0000 0.0000
# 3 50.0275 50.0275 67.4181 0.0000 0.0000 0.0000
# 4 0.0000 0.0000 0.0000 15.4802 0.0000 0.0000
# 5 0.0000 0.0000 0.0000 0.0000 15.4802 0.0000
# 6 0.0000 0.0000 0.0000 0.0000 0.0000 18.6522
#
#
#
# Elastic Compliance Matrix: (Units=1/GPa)
#
#
# Indices 1 2 3 4 5 6 
#
# 1 0.020886 -0.005920 -0.011106 0.000000 0.000000 0.000000
# 2 -0.005920 0.020886 -0.011106 0.000000 0.000000 0.000000
# 3 -0.011106 -0.011106 0.031315 0.000000 0.000000 0.000000
# 4 0.000000 0.000000 0.000000 0.064599 0.000000 0.000000
# 5 0.000000 0.000000 0.000000 0.000000 0.064599 0.000000
# 6 0.000000 0.000000 0.000000 0.000000 0.000000 0.053613
#
#
# Mechanical properties :
#
#
# Convention : Reuss Voigt Hill
#
# Bulk Modulus (GPa) = 59.43720 61.07269 60.25495
# Shear Modulus (GPa) = 15.73471 16.17926 15.95699
#
# Velocity S-wave (km/s) = 3.41200 3.45986 3.43602
# Velocity P-wave (km/s) = 7.71353 7.81967 7.76678
#
# Compressibility (1/GPa) = 0.01682448
#
# Stress axis : x y z
#
# Youngs Moduli (GPa) = 47.87813 47.87813 31.93389
#
# Poissons Ratio (x) = 0.28345 0.35465
# Poissons Ratio (y) = 0.28345 0.35465
# Poissons Ratio (z) = 0.53172 0.53172
#
# Static dielectric constant tensor:
#      x y z
#    x 1.423580 0.000000 0.000000 
#    y 0.000000 1.423580 0.000000 
#    z 0.000000 0.000000 1.480230 
# 
# From -- ./inp_files/3517.got.cif
#   From: 2010.05.17/outbox.cif.g08.bks.cpg/sg192_2_cif.got.tgz:3517.got - 2010.05.20 12:28:01.
