data_PCOD9588244
_publ_section_title
;
Structure prediction by ZEFSAII (Michael W. Deem and Ramdas Pophale) SiO2 
 PCOD9588244
Probable space group: P 6/M M M
;
_chemical_formula_sum "Si O2"
_cell_formula_units_Z 96
_cell_length_a 31.580530
_cell_length_b 31.580530
_cell_length_c 7.880634
_cell_angle_alpha 90.000000
_cell_angle_beta 90.000000
_cell_angle_gamma 120.000000
_cell_volume 6806.606095
_symmetry_space_group_name_H-M "P 6/M M M"
_symmetry_group_IT_number 191
_symmetry_cell_setting 'hexagonal'
loop_
_space_group_symop_operation_xyz
x,y,z
x-y,x,z
-y,x-y,z
-x,-y,z
-x+y,-x,z
y,-x+y,z
x-y,-y,-z
-x,-x+y,-z
y,x,-z
-y,-x,-z
-x+y,y,-z
x,x-y,-z
-x,-y,-z
-x+y,-x,-z
y,-x+y,-z
x,y,-z
x-y,x,-z
-y,x-y,-z
-x+y,y,z
x,x-y,z
-y,-x,z
y,x,z
x-y,-y,z
-x,-x+y,z
loop_
_atom_site_type_symbol
_atom_site_label
_atom_site_fract_x
_atom_site_fract_y
_atom_site_fract_z
Si Si1 0.701249 0.196070 0.500000
Si Si2 0.767454 0.333518 0.196523
Si Si3 0.848949 0.794370 0.294371
Si Si4 0.756805 0.617280 0.500000
Si Si5 0.209219 0.315600 0.811121
O O1 0.753505 0.246496 0.500000
O O2 0.673912 0.199091 0.667708
O O3 0.714534 0.153380 0.500000
O O4 0.767170 0.383585 0.226788
O O5 0.712547 0.287454 0.216911
O O6 0.781643 0.332914 0.000000
O O7 0.848768 0.792885 0.500000
O O8 0.901974 0.803948 0.237231
O O9 0.833722 0.833722 0.240472
O O10 0.808672 0.740553 0.232401
O O11 0.808671 0.617341 0.500000
O O12 0.757912 0.647324 0.665841
O O13 0.158753 0.317505 0.810530
O O14 0.230221 0.328144 0.000000
#
# Coordination Sequence:
#
# PCOD9588244 Si02
#       5
#    12  24  24  12  24
#     4   9  17  25  35  50  69  94 125 164 207 249
#     4   9  16  25  36  50  69  95 130 171 211 246
#     4   9  16  27  43  62  85 111 140 174 207 237
#     4   9  16  27  38  52  75  98 125 163 203 242
#     4   9  16  26  41  58  76 101 131 162 197 237
#
# _framework density 14.103945
#
# number of rings (size 3 to 8) (size 9 to 14) (size 15 to 20)
#    0.000    3.000    1.250    0.625    0.000    2.500 
#    0.000    6.250    0.000    0.250    0.000    1.750 
#    0.000    0.000    0.000    6.250    0.000   16.500 
#
# Total GULP energy -534416.021669 kJ/mol
# GULP energy per Si atom -5566.833559 kJ/mol
# Density = 1.407184 g / cm^3
# Si number density = 14.103945 Si / 1000 Ang^3
#
#
#
# Elastic Constant Matrix: (Units=GPa)
#
#
# Indices 1 2 3 4 5 6 
#
# 1 63.3991 45.3896 49.6295 0.0000 0.0000 0.0000
# 2 45.3896 63.3991 49.6295 0.0000 0.0000 0.0000
# 3 49.6295 49.6295 93.3339 0.0000 0.0000 0.0000
# 4 0.0000 0.0000 0.0000 3.4381 0.0000 0.0000
# 5 0.0000 0.0000 0.0000 0.0000 3.4381 0.0000
# 6 0.0000 0.0000 0.0000 0.0000 0.0000 9.0047
#
#
#
# Elastic Compliance Matrix: (Units=1/GPa)
#
#
# Indices 1 2 3 4 5 6 
#
# 1 0.036690 -0.018836 -0.009494 0.000000 0.000000 0.000000
# 2 -0.018836 0.036690 -0.009494 0.000000 0.000000 0.000000
# 3 -0.009494 -0.009494 0.020811 0.000000 0.000000 0.000000
# 4 0.000000 0.000000 0.000000 0.290860 0.000000 0.000000
# 5 0.000000 0.000000 0.000000 0.000000 0.290860 0.000000
# 6 0.000000 0.000000 0.000000 0.000000 0.000000 0.111053
#
#
# Mechanical properties :
#
#
# Convention : Reuss Voigt Hill
#
# Bulk Modulus (GPa) = 53.92590 56.60326 55.26458
# Shear Modulus (GPa) = 5.75511 8.20841 6.98176
#
# Velocity S-wave (km/s) = 2.02222 2.41507 2.22732
# Velocity P-wave (km/s) = 6.61590 6.92797 6.77373
#
# Compressibility (1/GPa) = 0.01854396
#
# Stress axis : x y z
#
# Youngs Moduli (GPa) = 27.25512 27.25512 48.05176
#
# Poissons Ratio (x) = 0.51337 0.45620
# Poissons Ratio (y) = 0.51337 0.45620
# Poissons Ratio (z) = 0.25876 0.25876
#
# Static dielectric constant tensor:
#      x y z
#    x 1.444530 0.000000 0.000000 
#    y 0.000000 1.444530 0.000000 
#    z 0.000000 0.000000 1.498390 
# 
# From -- ./inp_files/1587.got.cif
#   From: 2010.05.17/outbox.cif.g08.bks.cpg/sg191_1_cif.got.tgz:1587.got - 2010.05.20 12:20:32.
