data_PCOD9588320
_publ_section_title
;
Structure prediction by ZEFSAII (Michael W. Deem and Ramdas Pophale) SiO2 
 PCOD9588320
Probable space group: P 6/M C C
;
_chemical_formula_sum "Si O2"
_cell_formula_units_Z 56
_cell_length_a 13.020335
_cell_length_b 13.020335
_cell_length_c 19.698810
_cell_angle_alpha 90.000000
_cell_angle_beta 90.000000
_cell_angle_gamma 120.000000
_cell_volume 2892.110883
_symmetry_space_group_name_H-M "P 6/M C C"
_symmetry_group_IT_number 192
_symmetry_cell_setting 'hexagonal'
loop_
_space_group_symop_operation_xyz
x,y,z
x-y,x,z
-y,x-y,z
-x,-y,z
-x+y,-x,z
y,-x+y,z
x-y,-y,1/2-z
-x,-x+y,1/2-z
y,x,1/2-z
-y,-x,1/2-z
-x+y,y,1/2-z
x,x-y,1/2-z
-x,-y,-z
-x+y,-x,-z
y,-x+y,-z
x,y,-z
x-y,x,-z
-y,x-y,-z
-x+y,y,1/2+z
x,x-y,1/2+z
-y,-x,1/2+z
y,x,1/2+z
x-y,-y,1/2+z
-x,-x+y,1/2+z
loop_
_atom_site_type_symbol
_atom_site_label
_atom_site_fract_x
_atom_site_fract_y
_atom_site_fract_z
Si Si1 0.608353 0.132472 0.323477
Si Si2 0.895444 0.734131 0.329445
Si Si3 0.666668 0.333334 0.419986
O O1 0.588042 0.176084 0.250000
O O2 0.733969 0.136628 0.329938
O O3 0.598103 0.205028 0.385483
O O4 0.500000 0.000000 0.327342
O O5 0.809522 0.780175 0.358800
O O6 0.877165 0.754329 0.250000
O O7 0.666667 0.333334 0.500000
#
# Coordination Sequence:
#
# PCOD9588320 Si02
#       3
#    24  24   8
#     4  11  21  37  60  83 112 151 200 248 291 348
#     4  10  18  30  50  80 112 142 179 231 294 350
#     4  12  25  38  55  84 121 155 190 237 298 368
#
# _framework density 19.363021
#
# number of rings (size 3 to 8) (size 9 to 14) (size 15 to 20)
#    0.000    1.286    0.000   12.000    0.000    2.571 
#    0.000    0.000    0.000    0.000    0.000    0.000 
#    0.000    6.857    0.000    0.000    0.000    0.000 
#
# Total GULP energy -311841.679259 kJ/mol
# GULP energy per Si atom -5568.601415 kJ/mol
# Density = 1.931895 g / cm^3
# Si number density = 19.363021 Si / 1000 Ang^3
#
#
#
# Elastic Constant Matrix: (Units=GPa)
#
#
# Indices 1 2 3 4 5 6 
#
# 1 137.7962 61.1591 41.4727 0.0001 -0.0005 0.0000
# 2 61.1591 137.7955 41.4708 -0.0001 0.0008 0.0006
# 3 41.4727 41.4708 123.1034 -0.0008 0.0001 -0.0004
# 4 0.0001 -0.0001 -0.0008 -0.4481 -0.0001 -0.0006
# 5 -0.0005 0.0008 0.0001 -0.0001 -0.4487 -0.0001
# 6 0.0000 0.0006 -0.0004 -0.0006 -0.0001 38.3207
#
#
#
# Elastic Compliance Matrix: (Units=1/GPa)
#
#
# Indices 1 2 3 4 5 6 
#
# 1 0.009448 -0.003601 -0.001970 0.000007 -0.000016 0.000000
# 2 -0.003601 0.009448 -0.001970 0.000001 0.000019 0.000000
# 3 -0.001970 -0.001970 0.009451 -0.000018 0.000001 0.000000
# 4 0.000007 0.000001 -0.000018 -2.231731 0.000605 -0.000035
# 5 -0.000016 0.000019 0.000001 0.000605 -2.228416 -0.000006
# 6 0.000000 0.000000 0.000000 -0.000035 -0.000006 0.026096
#
#
# Mechanical properties :
#
#
# Convention : Reuss Voigt Hill
#
# Bulk Modulus (GPa) = 75.38174 76.32225 75.85199
# Shear Modulus (GPa) = -1.13994 24.45761 11.65883
#
# Velocity S-wave (km/s) = -0.76811 3.55788 2.45647
# Velocity P-wave (km/s) = 6.18293 7.50867 6.87782
#
# Compressibility (1/GPa) = 0.01326581
#
# Stress axis : x y z
#
# Youngs Moduli (GPa) = 105.84174 105.84225 105.81400
#
# Poissons Ratio (x) = 0.38109 0.20846
# Poissons Ratio (y) = 0.38109 0.20844
# Poissons Ratio (z) = 0.20851 0.20849
#
# Static dielectric constant tensor:
#      x y z
#    x 1.782220 0.000000 0.000000 
#    y 0.000000 1.782230 0.000000 
#    z 0.000000 0.000000 1.652420 
# 
# From -- ./inp_files/3705.got.cif
#   From: 2010.05.17/outbox.cif.g08.bks.cpg/sg192_2_cif.got.tgz:3705.got - 2010.05.20 12:28:01.
