data_PCOD9588299
_publ_section_title
;
Structure prediction by ZEFSAII (Michael W. Deem and Ramdas Pophale) SiO2 
 PCOD9588299
Probable space group: P 6/M C C
;
_chemical_formula_sum "Si O2"
_cell_formula_units_Z 132
_cell_length_a 18.696451
_cell_length_b 18.696451
_cell_length_c 23.013423
_cell_angle_alpha 90.000000
_cell_angle_beta 90.000000
_cell_angle_gamma 120.000000
_cell_volume 6966.749629
_symmetry_space_group_name_H-M "P 6/M C C"
_symmetry_group_IT_number 192
_symmetry_cell_setting 'hexagonal'
loop_
_space_group_symop_operation_xyz
x,y,z
x-y,x,z
-y,x-y,z
-x,-y,z
-x+y,-x,z
y,-x+y,z
x-y,-y,1/2-z
-x,-x+y,1/2-z
y,x,1/2-z
-y,-x,1/2-z
-x+y,y,1/2-z
x,x-y,1/2-z
-x,-y,-z
-x+y,-x,-z
y,-x+y,-z
x,y,-z
x-y,x,-z
-y,x-y,-z
-x+y,y,1/2+z
x,x-y,1/2+z
-y,-x,1/2+z
y,x,1/2+z
x-y,-y,1/2+z
-x,-x+y,1/2+z
loop_
_atom_site_type_symbol
_atom_site_label
_atom_site_fract_x
_atom_site_fract_y
_atom_site_fract_z
Si Si1 0.334052 0.334052 0.000000
Si Si2 0.900580 0.801159 0.750000
Si Si3 0.802770 0.901385 0.876798
Si Si4 0.145984 0.291968 0.000000
Si Si5 0.831083 0.331534 0.180240
Si Si6 1.000000 0.413761 0.379375
Si Si7 0.831083 0.331534 0.680240
O O1 0.245379 0.330540 0.000000
O O2 0.330540 0.245379 0.000000
O O3 0.382019 0.382019 0.057037
O O4 0.858172 0.858172 0.750000
O O5 0.878299 0.756597 0.813369
O O6 0.858808 0.858808 0.877100
O O7 0.754603 0.877301 0.937559
O O8 0.917152 0.349535 0.153636
O O9 0.835733 0.329601 0.250000
O O10 0.818389 0.409194 0.165721
O O11 0.753308 0.246692 0.159920
O O12 0.000000 0.500000 0.380034
O O13 0.917152 0.349535 0.346364
#
# Coordination Sequence:
#
# PCOD9588299 Si02
#       7
#    12  12  24  12  24  24  24
#     4  12  27  42  62  79 116 154 200 254 300 355
#     4   8  15  24  48  72 104 136 184 244 304 336
#     4  10  17  32  52  80 108 146 194 248 294 342
#     4  12  24  40  59  82 112 158 204 242 300 351
#     4   9  17  32  59  94 130 161 197 241 294 353
#     4  10  22  40  63  87 115 157 202 242 294 360
#     4   9  17  32  59  94 130 161 197 241 294 353
#
# _framework density 18.947143000000001
#
# number of rings (size 3 to 8) (size 9 to 14) (size 15 to 20)
#    0.000    2.182    1.818    1.455    2.545    5.091 
#    0.000    0.909    8.000    0.000    0.000    0.000 
#    0.000    0.000    0.000    0.000    0.000    8.182 
#
# Total GULP energy -735731.293914 kJ/mol
# GULP energy per Si atom -5573.721924 kJ/mol
# Density = 1.890402 g / cm^3
# Si number density = 18.947143 Si / 1000 Ang^3
#
#
#
# Elastic Constant Matrix: (Units=GPa)
#
#
# Indices 1 2 3 4 5 6 
#
# 1 92.3252 27.6947 32.3951 0.0000 0.0000 0.0000
# 2 27.6947 92.3252 32.3951 0.0000 0.0000 0.0000
# 3 32.3951 32.3951 103.3166 0.0000 0.0000 0.0000
# 4 0.0000 0.0000 0.0000 11.9579 0.0000 0.0000
# 5 0.0000 0.0000 0.0000 0.0000 11.9579 0.0000
# 6 0.0000 0.0000 0.0000 0.0000 0.0000 32.3152
#
#
#
# Elastic Compliance Matrix: (Units=1/GPa)
#
#
# Indices 1 2 3 4 5 6 
#
# 1 0.012751 -0.002721 -0.003145 0.000000 0.000000 0.000000
# 2 -0.002721 0.012751 -0.003145 0.000000 0.000000 0.000000
# 3 -0.003145 -0.003145 0.011651 0.000000 0.000000 0.000000
# 4 0.000000 0.000000 0.000000 0.083626 0.000000 0.000000
# 5 0.000000 0.000000 0.000000 0.000000 0.083626 0.000000
# 6 0.000000 0.000000 0.000000 0.000000 0.000000 0.030945
#
#
# Mechanical properties :
#
#
# Convention : Reuss Voigt Hill
#
# Bulk Modulus (GPa) = 52.27087 52.54852 52.40970
# Shear Modulus (GPa) = 19.24923 24.27836 21.76379
#
# Velocity S-wave (km/s) = 3.19085 3.58351 3.39286
# Velocity P-wave (km/s) = 6.42051 6.70198 6.56275
#
# Compressibility (1/GPa) = 0.01913112
#
# Stress axis : x y z
#
# Youngs Moduli (GPa) = 78.42464 78.42464 85.82877
#
# Poissons Ratio (x) = 0.21343 0.26991
# Poissons Ratio (y) = 0.21343 0.26991
# Poissons Ratio (z) = 0.24663 0.24663
#
# Static dielectric constant tensor:
#      x y z
#    x 1.656880 0.000000 0.000000 
#    y 0.000000 1.656880 0.000000 
#    z 0.000000 0.000000 1.652270 
# 
# From -- ./inp_files/5880.got.cif
#   From: 2010.05.17/outbox.cif.g08.bks.cpg/sg192_3_cif.got.tgz:5880.got - 2010.05.20 12:28:01.
