data_PCOD9588196
_publ_section_title
;
Structure prediction by ZEFSAII (Michael W. Deem and Ramdas Pophale) SiO2 
 PCOD9588196
Probable space group: P 6/M M M
;
_chemical_formula_sum "Si O2"
_cell_formula_units_Z 102
_cell_length_a 26.385016
_cell_length_b 26.385016
_cell_length_c 10.210152
_cell_angle_alpha 90.000000
_cell_angle_beta 90.000000
_cell_angle_gamma 120.000000
_cell_volume 6155.701655
_symmetry_space_group_name_H-M "P 6/M M M"
_symmetry_group_IT_number 191
_symmetry_cell_setting 'hexagonal'
loop_
_space_group_symop_operation_xyz
x,y,z
x-y,x,z
-y,x-y,z
-x,-y,z
-x+y,-x,z
y,-x+y,z
x-y,-y,-z
-x,-x+y,-z
y,x,-z
-y,-x,-z
-x+y,y,-z
x,x-y,-z
-x,-y,-z
-x+y,-x,-z
y,-x+y,-z
x,y,-z
x-y,x,-z
-y,x-y,-z
-x+y,y,z
x,x-y,z
-y,-x,z
y,x,z
x-y,-y,z
-x,-x+y,z
loop_
_atom_site_type_symbol
_atom_site_label
_atom_site_fract_x
_atom_site_fract_y
_atom_site_fract_z
Si Si1 0.308643 0.000000 0.158926
Si Si2 0.474339 0.406860 0.000000
Si Si3 0.326366 0.892422 0.237765
Si Si4 0.801569 0.603137 0.161493
Si Si5 0.000000 0.123130 0.500000
Si Si6 0.474547 0.403484 0.500000
Si Si7 0.869840 0.739679 0.847654
Si Si8 0.199320 0.000000 0.745295
O O1 0.312867 0.943680 0.196748
O O2 0.260398 0.000000 0.255441
O O3 0.296005 0.000000 0.000000
O O4 0.473078 0.371306 0.873777
O O5 0.420178 0.420178 0.000000
O O6 0.531303 0.468698 0.000000
O O7 0.263669 0.835119 0.219619
O O8 0.360930 0.904738 0.373847
O O9 0.836219 0.672437 0.205034
O O10 0.800264 0.600528 0.000000
O O11 0.058937 0.117873 0.500000
O O12 0.000000 0.161940 0.378103
O O13 0.435579 0.435579 0.500000
O O14 0.542454 0.457547 0.500000
O O15 0.840615 0.778464 0.813704
O O16 0.864799 0.729597 0.000000
#
# Coordination Sequence:
#
# PCOD9588196 Si02
#       8
#    12  12  24  12   6  12  12  12
#     4  12  20  36  60  90 127 167 197 247 305 351
#     4  11  20  33  58  88 118 162 214 250 289 350
#     4  12  21  37  58  86 129 169 204 249 301 357
#     4  11  22  37  61  91 127 166 205 248 310 366
#     4  12  27  50  66  78 106 148 205 274 338 392
#     4  11  24  40  59  88 129 169 203 245 297 353
#     4  11  22  37  59  89 120 156 201 255 309 371
#     4  12  24  39  62  86 118 159 204 248 308 378
#
# _framework density 16.570003
#
# number of rings (size 3 to 8) (size 9 to 14) (size 15 to 20)
#    0.000    0.471    8.235    1.824    0.000    3.294 
#    0.000    1.176    0.000    0.000    0.000    1.647 
#   23.529    0.000    0.000    0.000    0.000    0.000 
#
# Total GULP energy -568329.351376 kJ/mol
# GULP energy per Si atom -5571.856386 kJ/mol
# Density = 1.653229 g / cm^3
# Si number density = 16.570003 Si / 1000 Ang^3
#
#
#
# Elastic Constant Matrix: (Units=GPa)
#
#
# Indices 1 2 3 4 5 6 
#
# 1 72.5911 109.8627 55.0961 0.0000 0.0000 0.0000
# 2 109.8627 72.5911 55.0961 0.0000 0.0000 0.0000
# 3 55.0961 55.0961 130.7909 0.0000 0.0000 0.0000
# 4 0.0000 0.0000 0.0000 8.1330 0.0000 0.0000
# 5 0.0000 0.0000 0.0000 0.0000 8.1330 0.0000
# 6 0.0000 0.0000 0.0000 0.0000 0.0000 -18.6358
#
#
#
# Elastic Compliance Matrix: (Units=1/GPa)
#
#
# Indices 1 2 3 4 5 6 
#
# 1 -0.009739 0.017091 -0.003097 0.000000 0.000000 0.000000
# 2 0.017091 -0.009739 -0.003097 0.000000 0.000000 0.000000
# 3 -0.003097 -0.003097 0.010255 0.000000 0.000000 0.000000
# 4 0.000000 0.000000 0.000000 0.122956 0.000000 0.000000
# 5 0.000000 0.000000 0.000000 0.000000 0.122956 0.000000
# 6 0.000000 0.000000 0.000000 0.000000 0.000000 -0.053660
#
#
# Mechanical properties :
#
#
# Convention : Reuss Voigt Hill
#
# Bulk Modulus (GPa) = 79.55305 79.56476 79.55891
# Shear Modulus (GPa) = 30.22542 3.25390 16.73966
#
# Velocity S-wave (km/s) = 4.27559 1.40285 3.18187
# Velocity P-wave (km/s) = 8.51403 7.12359 7.84966
#
# Compressibility (1/GPa) = 0.01257023
#
# Stress axis : x y z
#
# Youngs Moduli (GPa) = -102.67469 -102.67469 97.51583
#
# Poissons Ratio (x) = 1.75477 0.30197
# Poissons Ratio (y) = 1.75477 0.30197
# Poissons Ratio (z) = -0.31795 -0.31795
#
# Static dielectric constant tensor:
#      x y z
#    x 1.451160 0.000000 0.000000 
#    y 0.000000 1.451160 0.000000 
#    z 0.000000 0.000000 1.606970 
# 
# From -- ./inp_files/1500.got.cif
#   From: 2010.05.17/outbox.cif.g08.bks.cpg/sg191_1_cif.got.tgz:1500.got - 2010.05.20 12:20:32.
