data_PCOD9588308
_publ_section_title
;
Structure prediction by ZEFSAII (Michael W. Deem and Ramdas Pophale) SiO2 
 PCOD9588308
Probable space group: P 6/M C C
;
_chemical_formula_sum "Si O2"
_cell_formula_units_Z 192
_cell_length_a 30.574039
_cell_length_b 30.574039
_cell_length_c 14.187205
_cell_angle_alpha 90.000000
_cell_angle_beta 90.000000
_cell_angle_gamma 120.000000
_cell_volume 11485.055715
_symmetry_space_group_name_H-M "P 6/M C C"
_symmetry_group_IT_number 192
_symmetry_cell_setting 'hexagonal'
loop_
_space_group_symop_operation_xyz
x,y,z
x-y,x,z
-y,x-y,z
-x,-y,z
-x+y,-x,z
y,-x+y,z
x-y,-y,1/2-z
-x,-x+y,1/2-z
y,x,1/2-z
-y,-x,1/2-z
-x+y,y,1/2-z
x,x-y,1/2-z
-x,-y,-z
-x+y,-x,-z
y,-x+y,-z
x,y,-z
x-y,x,-z
-y,x-y,-z
-x+y,y,1/2+z
x,x-y,1/2+z
-y,-x,1/2+z
y,x,1/2+z
x-y,-y,1/2+z
-x,-x+y,1/2+z
loop_
_atom_site_type_symbol
_atom_site_label
_atom_site_fract_x
_atom_site_fract_y
_atom_site_fract_z
Si Si1 0.228747 0.081512 0.895726
Si Si2 0.944045 0.239288 0.778128
Si Si3 0.134922 0.750707 0.889295
Si Si4 0.115486 0.053283 0.137178
Si Si5 0.478053 0.291266 0.738147
Si Si6 0.771013 0.440583 0.112394
Si Si7 0.676118 0.869376 0.393812
Si Si8 0.234365 0.571295 0.387851
O O1 0.244649 0.055434 0.814946
O O2 0.173928 0.075166 0.886127
O O3 0.271278 0.140224 0.891257
O O4 0.232105 0.062424 0.000000
O O5 0.918124 0.253204 0.862899
O O6 0.906412 0.225786 0.689274
O O7 0.000000 0.280701 0.750000
O O8 0.145646 0.719453 0.810206
O O9 0.176759 0.810598 0.878765
O O10 0.136721 0.737917 0.000000
O O11 0.089644 0.085049 0.104123
O O12 0.112681 0.056341 0.250000
O O13 0.472356 0.236178 0.750000
O O14 0.507751 0.318218 0.834752
O O15 0.519894 0.324628 0.661051
O O16 0.712926 0.424944 0.135492
O O17 0.773707 0.391114 0.139888
O O18 0.777187 0.447766 0.000000
O O19 0.669610 0.884029 0.500000
O O20 0.230235 0.567786 0.500000
#
# Coordination Sequence:
#
# PCOD9588308 Si02
#       8
#    24  24  24  24  24  24  24  24
#     4  10  21  35  52  74  98 126 157 190 232 284
#     4  11  22  35  56  78 100 122 150 197 248 307
#     4  10  20  37  55  73  99 132 165 200 245 307
#     4  10  21  35  52  69  94 127 165 201 236 278
#     4  10  18  28  45  67  96 134 182 222 252 296
#     4   9  17  27  41  65 102 144 190 233 267 297
#     4   9  19  35  54  74  97 122 153 192 241 297
#     4   9  16  26  40  63  96 142 187 227 264 293
#
# _framework density 16.717376999999999
#
# number of rings (size 3 to 8) (size 9 to 14) (size 15 to 20)
#    0.000    2.250    0.000    5.250    3.500    3.500 
#    0.000    1.875    0.000    0.750    0.000    0.000 
#    0.000    2.000    0.000    7.500    0.000    0.250 
#
# Total GULP energy -1069527.455346 kJ/mol
# GULP energy per Si atom -5570.455497 kJ/mol
# Density = 1.667933 g / cm^3
# Si number density = 16.717377 Si / 1000 Ang^3
#
#
#
# Elastic Constant Matrix: (Units=GPa)
#
#
# Indices 1 2 3 4 5 6 
#
# 1 56.6010 38.2593 25.5647 0.0000 0.0000 0.0000
# 2 38.2593 56.6010 25.5647 0.0000 0.0000 0.0000
# 3 25.5647 25.5647 101.7481 0.0000 0.0000 0.0000
# 4 0.0000 0.0000 0.0000 1.5684 0.0000 0.0000
# 5 0.0000 0.0000 0.0000 0.0000 1.5684 0.0000
# 6 0.0000 0.0000 0.0000 0.0000 0.0000 9.1709
#
#
#
# Elastic Compliance Matrix: (Units=1/GPa)
#
#
# Indices 1 2 3 4 5 6 
#
# 1 0.033357 -0.021164 -0.003064 0.000000 0.000000 0.000000
# 2 -0.021164 0.033357 -0.003064 0.000000 0.000000 0.000000
# 3 -0.003064 -0.003064 0.011368 0.000000 0.000000 0.000000
# 4 0.000000 0.000000 0.000000 0.637596 0.000000 0.000000
# 5 0.000000 0.000000 0.000000 0.000000 0.637596 0.000000
# 6 0.000000 0.000000 0.000000 0.000000 0.000000 0.109041
#
#
# Mechanical properties :
#
#
# Convention : Reuss Voigt Hill
#
# Bulk Modulus (GPa) = 42.55402 43.74750 43.15076
# Shear Modulus (GPa) = 3.27927 10.83229 7.05578
#
# Velocity S-wave (km/s) = 1.40209 2.54828 2.05665
# Velocity P-wave (km/s) = 5.30390 5.90627 5.61317
#
# Compressibility (1/GPa) = 0.02349954
#
# Stress axis : x y z
#
# Youngs Moduli (GPa) = 29.97893 29.97893 87.96882
#
# Poissons Ratio (x) = 0.63446 0.26950
# Poissons Ratio (y) = 0.63446 0.26950
# Poissons Ratio (z) = 0.09184 0.09184
#
# Static dielectric constant tensor:
#      x y z
#    x 1.566130 0.000000 0.000000 
#    y 0.000000 1.566130 0.000000 
#    z 0.000000 0.000000 1.639650 
# 
# From -- ./inp_files/3571.got.cif
#   From: 2010.05.17/outbox.cif.g08.bks.cpg/sg192_2_cif.got.tgz:3571.got - 2010.05.20 12:28:01.
