data_PCOD9588078
_publ_section_title
;
Structure prediction by ZEFSAII (Michael W. Deem and Ramdas Pophale) SiO2 
 PCOD9588078
Probable space group: P 6/M M M
;
_chemical_formula_sum "Si O2"
_cell_formula_units_Z 72
_cell_length_a 23.810923
_cell_length_b 23.810923
_cell_length_c 7.172746
_cell_angle_alpha 90.000000
_cell_angle_beta 90.000000
_cell_angle_gamma 120.000000
_cell_volume 3521.831267
_symmetry_space_group_name_H-M "P 6/M M M"
_symmetry_group_IT_number 191
_symmetry_cell_setting 'hexagonal'
loop_
_space_group_symop_operation_xyz
x,y,z
x-y,x,z
-y,x-y,z
-x,-y,z
-x+y,-x,z
y,-x+y,z
x-y,-y,-z
-x,-x+y,-z
y,x,-z
-y,-x,-z
-x+y,y,-z
x,x-y,-z
-x,-y,-z
-x+y,-x,-z
y,-x+y,-z
x,y,-z
x-y,x,-z
-y,x-y,-z
-x+y,y,z
x,x-y,z
-y,-x,z
y,x,z
x-y,-y,z
-x,-x+y,z
loop_
_atom_site_type_symbol
_atom_site_label
_atom_site_fract_x
_atom_site_fract_y
_atom_site_fract_z
Si Si1 0.404889 0.111653 0.223696
Si Si2 0.210471 0.289029 0.500000
Si Si3 0.333220 0.545313 0.774408
Si Si4 0.436367 0.000000 0.775506
O O1 0.338826 0.095059 0.326435
O O2 0.470541 0.175519 0.282073
O O3 0.427011 0.059809 0.272823
O O4 0.395700 0.111904 0.000000
O O5 0.236413 0.236413 0.500000
O O6 0.132923 0.265846 0.500000
O O7 0.287117 0.574235 0.728750
O O8 0.406400 0.593601 0.710353
O O9 0.336966 0.542754 0.000000
O O10 0.500000 0.000000 0.705462
O O11 0.440644 0.000000 0.000000
#
# Coordination Sequence:
#
# PCOD9588078 Si02
#       4
#    24  12  24  12
#     4  10  20  37  59  86 119 156 200 245 294 347
#     4  12  26  44  66  93 122 150 186 234 292 361
#     4   9  16  27  46  73 107 151 202 253 300 342
#     4   9  16  29  53  83 120 163 203 247 296 349
#
# _framework density 20.443909000000001
#
# number of rings (size 3 to 8) (size 9 to 14) (size 15 to 20)
#    0.000    2.167    1.667    2.333    0.000    7.333 
#    0.000    4.167    0.000    0.167    0.000    2.333 
#    0.000    0.000    0.000    3.000    0.000    0.000 
#
# Total GULP energy -401409.355294 kJ/mol
# GULP energy per Si atom -5575.129935 kJ/mol
# Density = 2.039738 g / cm^3
# Si number density = 20.443909 Si / 1000 Ang^3
#
#
#
# Elastic Constant Matrix: (Units=GPa)
#
#
# Indices 1 2 3 4 5 6 
#
# 1 3.5628 197.7427 16.8309 0.0000 0.0000 0.0000
# 2 197.7427 3.5628 16.8309 0.0000 0.0000 0.0000
# 3 16.8309 16.8309 116.9807 0.0000 0.0000 0.0000
# 4 0.0000 0.0000 0.0000 24.3293 0.0000 0.0000
# 5 0.0000 0.0000 0.0000 0.0000 24.3293 0.0000
# 6 0.0000 0.0000 0.0000 0.0000 0.0000 -97.0900
#
#
#
# Elastic Compliance Matrix: (Units=1/GPa)
#
#
# Indices 1 2 3 4 5 6 
#
# 1 -0.000030 0.005120 -0.000732 0.000000 0.000000 0.000000
# 2 0.005120 -0.000030 -0.000732 0.000000 0.000000 0.000000
# 3 -0.000732 -0.000732 0.008759 0.000000 0.000000 0.000000
# 4 0.000000 0.000000 0.000000 0.041103 0.000000 0.000000
# 5 0.000000 0.000000 0.000000 0.000000 0.041103 0.000000
# 6 0.000000 0.000000 0.000000 0.000000 0.000000 -0.010300
#
#
# Mechanical properties :
#
#
# Convention : Reuss Voigt Hill
#
# Bulk Modulus (GPa) = 62.46151 65.21279 63.83715
# Shear Modulus (GPa) = 63.58806 -16.83948 23.37429
#
# Velocity S-wave (km/s) = 5.58312 -2.87312 3.38500
# Velocity P-wave (km/s) = 8.49591 4.57835 6.82429
#
# Compressibility (1/GPa) = 0.01600986
#
# Stress axis : x y z
#
# Youngs Moduli (GPa) = -33428.58468 -33428.58757 114.16634
#
# Poissons Ratio (x) = 171.15267 0.08361
# Poissons Ratio (y) = 171.15265 0.08361
# Poissons Ratio (z) = -24.48108 -24.48109
#
# Static dielectric constant tensor:
#      x y z
#    x 2.016420 0.000000 0.000000 
#    y 0.000000 2.016420 0.000000 
#    z 0.000000 0.000000 1.812420 
# 
# From -- ./inp_files/891.got.cif
#   From: 2010.05.17/outbox.cif.g08.bks.cpg/sg191_1_cif.got.tgz:891.got - 2010.05.20 12:20:32.
