data_PCOD9588087
_publ_section_title
;
Structure prediction by ZEFSAII (Michael W. Deem and Ramdas Pophale) SiO2 
 PCOD9588087
Probable space group: P 6/M M M
;
_chemical_formula_sum "Si O2"
_cell_formula_units_Z 138
_cell_length_a 31.835041
_cell_length_b 31.835041
_cell_length_c 7.754874
_cell_angle_alpha 90.000000
_cell_angle_beta 90.000000
_cell_angle_gamma 120.000000
_cell_volume 6806.380196
_symmetry_space_group_name_H-M "P 6/M M M"
_symmetry_group_IT_number 191
_symmetry_cell_setting 'hexagonal'
loop_
_space_group_symop_operation_xyz
x,y,z
x-y,x,z
-y,x-y,z
-x,-y,z
-x+y,-x,z
y,-x+y,z
x-y,-y,-z
-x,-x+y,-z
y,x,-z
-y,-x,-z
-x+y,y,-z
x,x-y,-z
-x,-y,-z
-x+y,-x,-z
y,-x+y,-z
x,y,-z
x-y,x,-z
-y,x-y,-z
-x+y,y,z
x,x-y,z
-y,-x,z
y,x,z
x-y,-y,z
-x,-x+y,z
loop_
_atom_site_type_symbol
_atom_site_label
_atom_site_fract_x
_atom_site_fract_y
_atom_site_fract_z
Si Si1 0.666454 0.430309 0.711070
Si Si2 0.137267 0.768495 0.795212
Si Si3 0.209652 0.944733 0.209887
Si Si4 0.146055 0.676796 0.700759
Si Si5 0.883515 0.941758 0.000000
Si Si6 0.195312 0.097656 0.303868
Si Si7 0.945530 0.424226 0.791395
O O1 0.665286 0.430326 0.500000
O O2 0.712731 0.425462 0.761395
O O3 0.615877 0.384124 0.767508
O O4 0.672899 0.481453 0.773112
O O5 0.186288 0.813713 0.723097
O O6 0.090793 0.770908 0.729459
O O7 0.138270 0.719328 0.771579
O O8 0.137121 0.775521 0.000000
O O9 0.155168 0.925679 0.273071
O O10 0.244141 0.000000 0.264152
O O11 0.207797 0.943944 0.000000
O O12 0.156542 0.687613 0.500000
O O13 0.097249 0.625769 0.723354
O O14 0.915991 0.915991 0.000000
O O15 0.847954 0.923977 0.834123
O O16 0.177317 0.088659 0.500000
O O17 0.938239 0.469120 0.739437
O O18 0.000000 0.438748 0.737709
O O19 0.944247 0.422220 0.000000
#
# Coordination Sequence:
#
# PCOD9588087 Si02
#       7
#    24  24  24  24   6  12  24
#     4   9  17  30  49  74 105 144 189 236 288 350
#     4  10  21  38  58  82 115 157 202 242 288 351
#     4  10  20  39  66  92 121 159 205 259 314 371
#     4  11  22  34  52  81 118 152 186 235 299 366
#     4  12  27  48  72 100 140 184 228 276 326 386
#     4  12  24  41  69 103 134 170 218 272 328 386
#     4   9  19  37  59  80 104 140 189 240 287 344
#
# _framework density 20.275095
#
# number of rings (size 3 to 8) (size 9 to 14) (size 15 to 20)
#    0.000    1.913    1.739    2.826    0.000    5.913 
#    0.000    2.609    0.000    0.522    0.000    0.000 
#    0.000    8.348    0.000    0.000    0.000    0.000 
#
# Total GULP energy -770981.349883 kJ/mol
# GULP energy per Si atom -5586.821376 kJ/mol
# Density = 2.022895 g / cm^3
# Si number density = 20.275095 Si / 1000 Ang^3
#
#
#
# Elastic Constant Matrix: (Units=GPa)
#
#
# Indices 1 2 3 4 5 6 
#
# 1 170.1560 119.6051 19.7974 0.0000 0.0000 0.0000
# 2 119.6051 170.1560 19.7974 0.0000 0.0000 0.0000
# 3 19.7974 19.7974 45.7876 0.0000 0.0000 0.0000
# 4 0.0000 0.0000 0.0000 -7.8259 0.0000 0.0000
# 5 0.0000 0.0000 0.0000 0.0000 -7.8259 0.0000
# 6 0.0000 0.0000 0.0000 0.0000 0.0000 25.2754
#
#
#
# Elastic Compliance Matrix: (Units=1/GPa)
#
#
# Indices 1 2 3 4 5 6 
#
# 1 0.011725 -0.008057 -0.001586 0.000000 0.000000 0.000000
# 2 -0.008057 0.011725 -0.001586 0.000000 0.000000 0.000000
# 3 -0.001586 -0.001586 0.023211 0.000000 0.000000 0.000000
# 4 0.000000 0.000000 0.000000 -0.127781 0.000000 0.000000
# 5 0.000000 0.000000 0.000000 0.000000 -0.127781 0.000000
# 6 0.000000 0.000000 0.000000 0.000000 0.000000 0.039564
#
#
# Mechanical properties :
#
#
# Convention : Reuss Voigt Hill
#
# Bulk Modulus (GPa) = 41.31635 78.27772 59.79703
# Shear Modulus (GPa) = -36.02003 17.05138 -9.48432
#
# Velocity S-wave (km/s) = -4.21950 2.90315 -2.16517
# Velocity P-wave (km/s) = 1.82122 7.06607 4.82765
#
# Compressibility (1/GPa) = 0.02420349
#
# Stress axis : x y z
#
# Youngs Moduli (GPa) = 85.28830 85.28830 43.08240
#
# Poissons Ratio (x) = 0.68718 0.06832
# Poissons Ratio (y) = 0.68718 0.06832
# Poissons Ratio (z) = 0.13526 0.13526
#
# Static dielectric constant tensor:
#      x y z
#    x 1.693200 0.000000 0.000000 
#    y 0.000000 1.693200 0.000000 
#    z 0.000000 0.000000 1.767850 
# 
# From -- ./inp_files/2048.got.cif
#   From: 2010.05.17/outbox.cif.g08.bks.cpg/sg191_2_cif.got.tgz:2048.got - 2010.05.20 12:20:32.
