data_PCOD9588246
_publ_section_title
;
Structure prediction by ZEFSAII (Michael W. Deem and Ramdas Pophale) SiO2 
 PCOD9588246
Probable space group: P 6/M M M
;
_chemical_formula_sum "Si O2"
_cell_formula_units_Z 60
_cell_length_a 23.927602
_cell_length_b 23.927602
_cell_length_c 7.954130
_cell_angle_alpha 90.000000
_cell_angle_beta 90.000000
_cell_angle_gamma 120.000000
_cell_volume 3943.861626
_symmetry_space_group_name_H-M "P 6/M M M"
_symmetry_group_IT_number 191
_symmetry_cell_setting 'hexagonal'
loop_
_space_group_symop_operation_xyz
x,y,z
x-y,x,z
-y,x-y,z
-x,-y,z
-x+y,-x,z
y,-x+y,z
x-y,-y,-z
-x,-x+y,-z
y,x,-z
-y,-x,-z
-x+y,y,-z
x,x-y,-z
-x,-y,-z
-x+y,-x,-z
y,-x+y,-z
x,y,-z
x-y,x,-z
-y,x-y,-z
-x+y,y,z
x,x-y,z
-y,-x,z
y,x,z
x-y,-y,z
-x,-x+y,z
loop_
_atom_site_type_symbol
_atom_site_label
_atom_site_fract_x
_atom_site_fract_y
_atom_site_fract_z
Si Si1 0.396030 0.921128 0.000000
Si Si2 0.801378 0.727796 0.203736
Si Si3 0.321560 0.921642 0.312805
O O1 0.351720 0.899563 0.834347
O O2 0.450660 0.901319 0.000000
O O3 0.434618 0.000000 0.000000
O O4 0.873270 0.746539 0.254736
O O5 0.776270 0.776270 0.258229
O O6 0.750321 0.656876 0.270485
O O7 0.797971 0.724781 0.000000
O O8 0.324957 0.899122 0.500000
O O9 0.363473 0.000000 0.312759
#
# Coordination Sequence:
#
# PCOD9588246 Si02
#       3
#    12  24  24
#     4   9  16  26  39  56  81 110 138 165 192 230
#     4   9  16  27  43  61  83 113 151 195 242 291
#     4   9  16  26  40  58  81 109 141 175 212 257
#
# _framework density 15.213517
#
# number of rings (size 3 to 8) (size 9 to 14) (size 15 to 20)
#    0.000    3.000    2.000    0.000    0.000    1.600 
#    0.000    4.000    0.000    0.400    0.000    2.800 
#    0.000    0.000    0.000   14.800    0.000   24.000 
#
# Total GULP energy -334022.203256 kJ/mol
# GULP energy per Si atom -5567.036721 kJ/mol
# Density = 1.517889 g / cm^3
# Si number density = 15.213517 Si / 1000 Ang^3
#
#
#
# Elastic Constant Matrix: (Units=GPa)
#
#
# Indices 1 2 3 4 5 6 
#
# 1 71.1868 43.3393 43.0191 0.0000 0.0000 0.0000
# 2 43.3393 71.1868 43.0191 0.0000 0.0000 0.0000
# 3 43.0191 43.0191 92.0887 0.0000 0.0000 0.0000
# 4 0.0000 0.0000 0.0000 2.5806 0.0000 0.0000
# 5 0.0000 0.0000 0.0000 0.0000 2.5806 0.0000
# 6 0.0000 0.0000 0.0000 0.0000 0.0000 13.9237
#
#
#
# Elastic Compliance Matrix: (Units=1/GPa)
#
#
# Indices 1 2 3 4 5 6 
#
# 1 0.024681 -0.011228 -0.006285 0.000000 0.000000 0.000000
# 2 -0.011228 0.024681 -0.006285 0.000000 0.000000 0.000000
# 3 -0.006285 -0.006285 0.016731 0.000000 0.000000 0.000000
# 4 0.000000 0.000000 0.000000 0.387505 0.000000 0.000000
# 5 0.000000 0.000000 0.000000 0.000000 0.387505 0.000000
# 6 0.000000 0.000000 0.000000 0.000000 0.000000 0.071820
#
#
# Mechanical properties :
#
#
# Convention : Reuss Voigt Hill
#
# Bulk Modulus (GPa) = 54.05853 54.80193 54.43023
# Shear Modulus (GPa) = 5.17232 10.82264 7.99748
#
# Velocity S-wave (km/s) = 1.84586 2.67007 2.29526
# Velocity P-wave (km/s) = 6.33666 6.75320 6.54825
#
# Compressibility (1/GPa) = 0.01849847
#
# Stress axis : x y z
#
# Youngs Moduli (GPa) = 40.51636 40.51636 59.77040
#
# Poissons Ratio (x) = 0.45494 0.37563
# Poissons Ratio (y) = 0.45494 0.37563
# Poissons Ratio (z) = 0.25463 0.25463
#
# Static dielectric constant tensor:
#      x y z
#    x 1.487060 0.000000 0.000000 
#    y 0.000000 1.487060 0.000000 
#    z 0.000000 0.000000 1.543640 
# 
# From -- ./inp_files/551.got.cif
#   From: 2010.05.17/outbox.cif.g08.bks.cpg/sg191_1_cif.got.tgz:551.got - 2010.05.20 12:20:32.
