data_PCOD9588912
_publ_section_title
;
Structure prediction by ZEFSAII (Michael W. Deem and Ramdas Pophale) SiO2 
 PCOD9588912
Probable space group: P 63/M C M
;
_chemical_formula_sum "Si O2"
_cell_formula_units_Z 104
_cell_length_a 20.629832
_cell_length_b 20.629832
_cell_length_c 14.831426
_cell_angle_alpha 90.000000
_cell_angle_beta 90.000000
_cell_angle_gamma 120.000000
_cell_volume 5466.444253
_symmetry_space_group_name_H-M "P 63/M C M"
_symmetry_group_IT_number 193
_symmetry_cell_setting 'hexagonal'
loop_
_space_group_symop_operation_xyz
x,y,z
x-y,x,1/2+z
-y,x-y,z
-x,-y,1/2+z
-x+y,-x,z
y,-x+y,1/2+z
x-y,-y,1/2-z
-x,-x+y,1/2-z
y,x,1/2-z
-y,-x,-z
-x+y,y,-z
x,x-y,-z
-x,-y,-z
-x+y,-x,1/2-z
y,-x+y,-z
x,y,1/2-z
x-y,x,-z
-y,x-y,1/2-z
-x+y,y,1/2+z
x,x-y,1/2+z
-y,-x,1/2+z
y,x,z
x-y,-y,z
-x,-x+y,z
loop_
_atom_site_type_symbol
_atom_site_label
_atom_site_fract_x
_atom_site_fract_y
_atom_site_fract_z
Si Si1 0.666668 0.333334 0.392343
Si Si2 0.537655 0.180431 0.349149
Si Si3 0.917047 0.361791 0.004927
Si Si4 0.243884 0.422455 0.146825
Si Si5 0.242587 0.323628 0.643482
O O1 0.666668 0.333334 0.500000
O O2 0.620887 0.248947 0.358176
O O3 0.525665 0.146314 0.250000
O O4 0.516186 0.123019 0.429935
O O5 0.484620 0.217758 0.358824
O O6 0.924166 0.305093 0.075438
O O7 0.000000 0.421278 0.974691
O O8 0.866732 0.309256 0.923969
O O9 0.267060 0.421489 0.250000
O O10 0.166878 0.342742 0.127609
O O11 0.260694 0.343682 0.750000
O O12 0.247150 0.247150 0.632554
#
# Coordination Sequence:
#
# PCOD9588912 Si02
#       5
#     8  24  24  24  24
#     4  12  22  35  58  81 103 125 152 200 256 309
#     4  10  20  34  53  77 101 126 163 208 254 300
#     4  10  18  29  47  70  98 132 168 206 252 305
#     4   9  17  29  44  65  97 132 167 208 253 304
#     4   8  13  22  39  63  89 120 160 205 250 294
#
# _framework density 19.025164
#
# number of rings (size 3 to 8) (size 9 to 14) (size 15 to 20)
#    0.000    2.538    0.000    6.923    0.000    1.846 
#    0.000    0.000    0.000    6.231    0.000    6.462 
#    0.000    0.000    0.000    0.692    0.000   36.923 
#
# Total GULP energy -579165.550931 kJ/mol
# GULP energy per Si atom -5568.899528 kJ/mol
# Density = 1.898186 g / cm^3
# Si number density = 19.025164 Si / 1000 Ang^3
#
#
#
# Elastic Constant Matrix: (Units=GPa)
#
#
# Indices 1 2 3 4 5 6 
#
# 1 41.4178 25.1315 33.2383 0.0010 0.0005 0.0001
# 2 25.1315 41.4183 33.2382 -0.0001 0.0001 0.0001
# 3 33.2383 33.2382 120.0660 0.0004 -0.0011 0.0000
# 4 0.0010 -0.0001 0.0004 2.2586 0.0059 0.0002
# 5 0.0005 0.0001 -0.0011 0.0059 2.2543 -0.0005
# 6 0.0001 0.0001 0.0000 0.0002 -0.0005 8.1434
#
#
#
# Elastic Compliance Matrix: (Units=1/GPa)
#
#
# Indices 1 2 3 4 5 6 
#
# 1 0.041085 -0.020315 -0.005750 -0.000017 -0.000010 0.000000
# 2 -0.020315 0.041085 -0.005750 0.000011 -0.000001 0.000000
# 3 -0.005750 -0.005750 0.011512 0.000000 0.000007 0.000000
# 4 -0.000017 0.000011 0.000000 0.442749 -0.001152 -0.000010
# 5 -0.000010 -0.000001 0.000007 -0.001152 0.443590 0.000028
# 6 0.000000 0.000000 0.000000 -0.000010 0.000028 0.122799
#
#
# Mechanical properties :
#
#
# Convention : Reuss Voigt Hill
#
# Bulk Modulus (GPa) = 33.27478 42.90201 38.08840
# Shear Modulus (GPa) = 4.25001 9.95088 7.10045
#
# Velocity S-wave (km/s) = 1.49624 2.28948 1.93397
# Velocity P-wave (km/s) = 4.52911 5.43949 5.00504
#
# Compressibility (1/GPa) = 0.03005279
#
# Stress axis : x y z
#
# Youngs Moduli (GPa) = 24.33950 24.33989 86.86429
#
# Poissons Ratio (x) = 0.49447 0.49946
# Poissons Ratio (y) = 0.49446 0.49944
# Poissons Ratio (z) = 0.13995 0.13995
#
# Static dielectric constant tensor:
#      x y z
#    x 1.719090 0.000000 0.000000 
#    y 0.000000 1.719090 0.000000 
#    z 0.000000 0.000000 1.680110 
# 
# From -- ./inp_files/3647.got.cif
#   From: 2010.05.17/outbox.cif.g08.bks.cpg/sg193_2_cif.got.tgz:3647.got - 2010.05.20 12:33:02.
