data_PCOD9588387
_publ_section_title
;
Structure prediction by ZEFSAII (Michael W. Deem and Ramdas Pophale) SiO2 
 PCOD9588387
Probable space group: P 6/M C C
;
_chemical_formula_sum "Si O2"
_cell_formula_units_Z 120
_cell_length_a 22.005065
_cell_length_b 22.005065
_cell_length_c 15.735564
_cell_angle_alpha 90.000000
_cell_angle_beta 90.000000
_cell_angle_gamma 120.000000
_cell_volume 6598.698064
_symmetry_space_group_name_H-M "P 6/M C C"
_symmetry_group_IT_number 192
_symmetry_cell_setting 'hexagonal'
loop_
_space_group_symop_operation_xyz
x,y,z
x-y,x,z
-y,x-y,z
-x,-y,z
-x+y,-x,z
y,-x+y,z
x-y,-y,1/2-z
-x,-x+y,1/2-z
y,x,1/2-z
-y,-x,1/2-z
-x+y,y,1/2-z
x,x-y,1/2-z
-x,-y,-z
-x+y,-x,-z
y,-x+y,-z
x,y,-z
x-y,x,-z
-y,x-y,-z
-x+y,y,1/2+z
x,x-y,1/2+z
-y,-x,1/2+z
y,x,1/2+z
x-y,-y,1/2+z
-x,-x+y,1/2+z
loop_
_atom_site_type_symbol
_atom_site_label
_atom_site_fract_x
_atom_site_fract_y
_atom_site_fract_z
Si Si1 0.727933 0.823614 0.164772
Si Si2 0.262268 0.216233 0.404618
Si Si3 0.295007 0.425071 0.903753
Si Si4 0.146255 0.421399 0.903207
Si Si5 0.521836 0.334737 0.753395
O O1 0.723592 0.861796 0.250000
O O2 0.744180 0.884536 0.097421
O O3 0.780285 0.793746 0.156326
O O4 0.653435 0.755744 0.142610
O O5 0.250224 0.233224 0.500000
O O6 0.343981 0.269997 0.382915
O O7 0.223389 0.428969 0.907935
O O8 0.336647 0.476951 0.827086
O O9 0.325243 0.441002 0.000000
O O10 0.151725 0.481349 0.840972
O O11 0.123293 0.422099 0.000000
O O12 0.598779 0.401222 0.750000
O O13 0.524636 0.262318 0.750000
#
# Coordination Sequence:
#
# PCOD9588387 Si02
#       5
#    24  24  24  24  24
#     4  11  20  32  53  81 108 134 171 218 265 309
#     4  10  19  33  53  78 105 135 170 213 261 312
#     4   8  16  31  50  70  97 134 177 219 260 304
#     4   9  17  31  49  70  97 134 175 215 258 308
#     4  10  19  31  48  72 101 132 169 217 269 322
#
# _framework density 18.185406
#
# number of rings (size 3 to 8) (size 9 to 14) (size 15 to 20)
#    0.000    2.400    0.000    6.800    0.000    0.800 
#    0.000    0.000    0.000    5.200    0.000    7.000 
#    0.000    0.000    0.000    0.000    0.000    0.000 
#
# Total GULP energy -668337.809194 kJ/mol
# GULP energy per Si atom -5569.481743 kJ/mol
# Density = 1.814401 g / cm^3
# Si number density = 18.185406 Si / 1000 Ang^3
#
#
#
# Elastic Constant Matrix: (Units=GPa)
#
#
# Indices 1 2 3 4 5 6 
#
# 1 70.7987 31.3256 41.9634 0.0000 0.0000 0.0000
# 2 31.3256 70.7987 41.9634 0.0000 0.0000 0.0000
# 3 41.9634 41.9634 129.4789 0.0000 0.0000 0.0000
# 4 0.0000 0.0000 0.0000 16.7016 0.0000 0.0000
# 5 0.0000 0.0000 0.0000 0.0000 16.7016 0.0000
# 6 0.0000 0.0000 0.0000 0.0000 0.0000 19.7366
#
#
#
# Elastic Compliance Matrix: (Units=1/GPa)
#
#
# Indices 1 2 3 4 5 6 
#
# 1 0.019340 -0.005993 -0.004326 0.000000 0.000000 0.000000
# 2 -0.005993 0.019340 -0.004326 0.000000 0.000000 0.000000
# 3 -0.004326 -0.004326 0.010527 0.000000 0.000000 0.000000
# 4 0.000000 0.000000 0.000000 0.059874 0.000000 0.000000
# 5 0.000000 0.000000 0.000000 0.000000 0.059874 0.000000
# 6 0.000000 0.000000 0.000000 0.000000 0.000000 0.050667
#
#
# Mechanical properties :
#
#
# Convention : Reuss Voigt Hill
#
# Bulk Modulus (GPa) = 50.20526 55.73124 52.96825
# Shear Modulus (GPa) = 19.56545 21.01623 20.29084
#
# Velocity S-wave (km/s) = 3.28363 3.40320 3.34395
# Velocity P-wave (km/s) = 6.48411 6.79375 6.64073
#
# Compressibility (1/GPa) = 0.01991823
#
# Stress axis : x y z
#
# Youngs Moduli (GPa) = 51.70560 51.70560 94.99293
#
# Poissons Ratio (x) = 0.30989 0.41091
# Poissons Ratio (y) = 0.30989 0.41091
# Poissons Ratio (z) = 0.22366 0.22366
#
# Static dielectric constant tensor:
#      x y z
#    x 1.621500 0.000000 0.000000 
#    y 0.000000 1.621500 0.000000 
#    z 0.000000 0.000000 1.739280 
# 
# From -- ./inp_files/3164.got.cif
#   From: 2010.05.17/outbox.cif.g08.bks.cpg/sg192_2_cif.got.tgz:3164.got - 2010.05.20 12:28:01.
