data_PCOD9588988
_publ_section_title
;
Structure prediction by ZEFSAII (Michael W. Deem and Ramdas Pophale) SiO2 
 PCOD9588988
Probable space group: P 63/M C M
;
_chemical_formula_sum "Si O2"
_cell_formula_units_Z 96
_cell_length_a 29.359870
_cell_length_b 29.359870
_cell_length_c 7.653202
_cell_angle_alpha 90.000000
_cell_angle_beta 90.000000
_cell_angle_gamma 120.000000
_cell_volume 5713.234691
_symmetry_space_group_name_H-M "P 63/M C M"
_symmetry_group_IT_number 193
_symmetry_cell_setting 'hexagonal'
loop_
_space_group_symop_operation_xyz
x,y,z
x-y,x,1/2+z
-y,x-y,z
-x,-y,1/2+z
-x+y,-x,z
y,-x+y,1/2+z
x-y,-y,1/2-z
-x,-x+y,1/2-z
y,x,1/2-z
-y,-x,-z
-x+y,y,-z
x,x-y,-z
-x,-y,-z
-x+y,-x,1/2-z
y,-x+y,-z
x,y,1/2-z
x-y,x,-z
-y,x-y,1/2-z
-x+y,y,1/2+z
x,x-y,1/2+z
-y,-x,1/2+z
y,x,z
x-y,-y,z
-x,-x+y,z
loop_
_atom_site_type_symbol
_atom_site_label
_atom_site_fract_x
_atom_site_fract_y
_atom_site_fract_z
Si Si1 0.401553 0.401553 0.463570
Si Si2 0.393310 0.501343 0.040260
Si Si3 0.217039 0.884870 0.959748
Si Si4 0.705015 0.000000 0.036439
Si Si5 0.452976 0.176005 0.540476
O O1 0.401551 0.401551 0.250000
O O2 0.453906 0.401874 0.523109
O O3 0.348449 0.348449 0.514357
O O4 0.390460 0.497249 0.250000
O O5 0.336148 0.488678 0.975415
O O6 0.442068 0.557933 0.000000
O O7 0.221468 0.887089 0.750000
O O8 0.245078 0.945073 0.022273
O O9 0.250815 0.858154 0.025597
O O10 0.156323 0.843677 0.000000
O O11 0.705905 0.000000 0.250000
O O12 0.472512 0.236256 0.500000
O O13 0.449872 0.170660 0.750000
#
# Coordination Sequence:
#
# PCOD9588988 Si02
#       5
#    12  24  24  12  24
#     4   9  15  27  44  62  86 116 146 171 201 251
#     4  10  19  30  45  64  86 112 140 172 212 257
#     4   9  16  27  44  64  85 113 148 179 207 243
#     4   9  14  25  46  64  84 120 155 175 200 251
#     4   9  17  29  45  63  82 105 135 172 211 252
#
# _framework density 16.803090999999998
#
# number of rings (size 3 to 8) (size 9 to 14) (size 15 to 20)
#    0.000    2.750    2.500    0.375    0.000    1.000 
#    0.000    0.625    0.000    2.000    0.000    0.000 
#    0.000    0.000    0.000    0.375    0.000    4.500 
#
# Total GULP energy -535127.140648 kJ/mol
# GULP energy per Si atom -5574.241048 kJ/mol
# Density = 1.676485 g / cm^3
# Si number density = 16.803091 Si / 1000 Ang^3
#
#
#
# Elastic Constant Matrix: (Units=GPa)
#
#
# Indices 1 2 3 4 5 6 
#
# 1 146.5306 96.2551 5.2077 0.0000 0.0000 0.0000
# 2 96.2551 146.5306 5.2077 0.0000 0.0000 0.0000
# 3 5.2077 5.2077 28.6957 0.0000 0.0000 0.0000
# 4 0.0000 0.0000 0.0000 13.0790 0.0000 0.0000
# 5 0.0000 0.0000 0.0000 0.0000 13.0790 0.0000
# 6 0.0000 0.0000 0.0000 0.0000 0.0000 25.1378
#
#
#
# Elastic Compliance Matrix: (Units=1/GPa)
#
#
# Indices 1 2 3 4 5 6 
#
# 1 0.012021 -0.007870 -0.000753 0.000000 0.000000 0.000000
# 2 -0.007870 0.012021 -0.000753 0.000000 0.000000 0.000000
# 3 -0.000753 -0.000753 0.035122 0.000000 0.000000 0.000000
# 4 0.000000 0.000000 0.000000 0.076458 0.000000 0.000000
# 5 0.000000 0.000000 0.000000 0.000000 0.076458 0.000000
# 6 0.000000 0.000000 0.000000 0.000000 0.000000 0.039781
#
#
# Mechanical properties :
#
#
# Convention : Reuss Voigt Hill
#
# Bulk Modulus (GPa) = 24.74587 59.45532 42.10059
# Shear Modulus (GPa) = 17.60045 24.59826 21.09936
#
# Velocity S-wave (km/s) = 3.23995 3.83026 3.54741
# Velocity P-wave (km/s) = 5.36240 7.41765 6.47213
#
# Compressibility (1/GPa) = 0.04041079
#
# Stress axis : x y z
#
# Youngs Moduli (GPa) = 83.18922 83.18922 28.47229
#
# Poissons Ratio (x) = 0.65467 0.02145
# Poissons Ratio (y) = 0.65467 0.02145
# Poissons Ratio (z) = 0.06267 0.06267
#
# Static dielectric constant tensor:
#      x y z
#    x 1.571080 0.000000 0.000000 
#    y 0.000000 1.571080 0.000000 
#    z 0.000000 0.000000 1.636020 
# 
# From -- ./inp_files/1245.got.cif
#   From: 2010.05.17/outbox.cif.g08.bks.cpg/sg193_1_cif.got.tgz:1245.got - 2010.05.20 12:33:02.
