data_PCOD9588766
_publ_section_title
;
Structure prediction by ZEFSAII (Michael W. Deem and Ramdas Pophale) SiO2 
 PCOD9588766
Probable space group: P 6/M C C
;
_chemical_formula_sum "Si O2"
_cell_formula_units_Z 132
_cell_length_a 15.961301
_cell_length_b 15.961301
_cell_length_c 25.617132
_cell_angle_alpha 90.000000
_cell_angle_beta 90.000000
_cell_angle_gamma 120.000000
_cell_volume 5651.942216
_symmetry_space_group_name_H-M "P 6/M C C"
_symmetry_group_IT_number 192
_symmetry_cell_setting 'hexagonal'
loop_
_space_group_symop_operation_xyz
x,y,z
x-y,x,z
-y,x-y,z
-x,-y,z
-x+y,-x,z
y,-x+y,z
x-y,-y,1/2-z
-x,-x+y,1/2-z
y,x,1/2-z
-y,-x,1/2-z
-x+y,y,1/2-z
x,x-y,1/2-z
-x,-y,-z
-x+y,-x,-z
y,-x+y,-z
x,y,-z
x-y,x,-z
-y,x-y,-z
-x+y,y,1/2+z
x,x-y,1/2+z
-y,-x,1/2+z
y,x,1/2+z
x-y,-y,1/2+z
-x,-x+y,1/2+z
loop_
_atom_site_type_symbol
_atom_site_label
_atom_site_fract_x
_atom_site_fract_y
_atom_site_fract_z
Si Si1 0.742658 0.204314 0.651196
Si Si2 0.000000 0.500000 0.383394
Si Si3 0.811782 0.801131 0.403027
Si Si4 0.459532 0.866498 0.309036
Si Si5 0.202131 0.937300 0.708610
Si Si6 0.588706 0.892002 0.560434
O O1 0.626612 0.148379 0.650608
O O2 0.776383 0.301099 0.684509
O O3 0.780577 0.142618 0.681502
O O4 0.797781 0.238458 0.596489
O O5 0.960281 0.414525 0.335750
O O6 0.936015 0.415303 0.425809
O O7 0.911963 0.807670 0.419277
O O8 0.800776 0.800999 0.339854
O O9 0.727915 0.699350 0.424447
O O10 0.438662 0.877323 0.250000
O O11 0.112868 0.887133 0.750000
O O12 0.286461 0.000000 0.750000
O O13 0.584215 0.867853 0.500000
#
# Coordination Sequence:
#
# PCOD9588766 Si02
#       6
#    24  12  24  24  24  24
#     4  11  24  43  66 105 145 187 245 294 356 463
#     4  10  24  42  70 108 138 174 244 294 356 464
#     4  12  25  44  68 104 141 188 256 318 376 465
#     4  11  22  38  65 101 142 184 220 285 363 440
#     4  12  22  39  68 100 143 190 238 302 376 451
#     4  11  25  48  74 101 142 196 247 318 381 431
#
# _framework density 23.354801999999999
#
# number of rings (size 3 to 8) (size 9 to 14) (size 15 to 20)
#    0.000    0.727    3.636    3.818    0.000    5.091 
#    0.000    3.636    0.000    1.091    0.000    0.000 
#    0.000    0.000    0.000    0.000    0.000    0.000 
#
# Total GULP energy -735651.241755 kJ/mol
# GULP energy per Si atom -5573.115468 kJ/mol
# Density = 2.330165 g / cm^3
# Si number density = 23.354802 Si / 1000 Ang^3
#
#
#
# Elastic Constant Matrix: (Units=GPa)
#
#
# Indices 1 2 3 4 5 6 
#
# 1 88.3628 42.3365 33.3359 0.0000 0.0000 0.0000
# 2 42.3365 88.3628 33.3359 0.0000 0.0000 0.0000
# 3 33.3359 33.3359 170.6277 0.0000 0.0000 0.0000
# 4 0.0000 0.0000 0.0000 21.8816 0.0000 0.0000
# 5 0.0000 0.0000 0.0000 0.0000 21.8816 0.0000
# 6 0.0000 0.0000 0.0000 0.0000 0.0000 23.0132
#
#
#
# Elastic Compliance Matrix: (Units=1/GPa)
#
#
# Indices 1 2 3 4 5 6 
#
# 1 0.015112 -0.006614 -0.001660 0.000000 0.000000 0.000000
# 2 -0.006614 0.015112 -0.001660 0.000000 0.000000 0.000000
# 3 -0.001660 -0.001660 0.006509 0.000000 0.000000 0.000000
# 4 0.000000 0.000000 0.000000 0.045701 0.000000 0.000000
# 5 0.000000 0.000000 0.000000 0.000000 0.045701 0.000000
# 6 0.000000 0.000000 0.000000 0.000000 0.000000 0.043453
#
#
# Mechanical properties :
#
#
# Convention : Reuss Voigt Hill
#
# Bulk Modulus (GPa) = 59.29625 62.81892 61.05758
# Shear Modulus (GPa) = 25.37042 29.24494 27.30768
#
# Velocity S-wave (km/s) = 3.29949 3.54249 3.42314
# Velocity P-wave (km/s) = 6.32139 6.60971 6.46716
#
# Compressibility (1/GPa) = 0.01686447
#
# Stress axis : x y z
#
# Youngs Moduli (GPa) = 66.17085 66.17085 153.62251
#
# Poissons Ratio (x) = 0.43767 0.25506
# Poissons Ratio (y) = 0.43767 0.25506
# Poissons Ratio (z) = 0.10986 0.10986
#
# Static dielectric constant tensor:
#      x y z
#    x 1.715420 0.000000 0.000000 
#    y 0.000000 1.715420 0.000000 
#    z 0.000000 0.000000 1.854070 
# 
# From -- ./inp_files/5844.got.cif
#   From: 2010.05.17/outbox.cif.g08.bks.cpg/sg192_3_cif.got.tgz:5844.got - 2010.05.20 12:28:01.
