data_PCOD9588763
_publ_section_title
;
Structure prediction by ZEFSAII (Michael W. Deem and Ramdas Pophale) SiO2 
 PCOD9588763
Probable space group: P 6/M C C
;
_chemical_formula_sum "Si O2"
_cell_formula_units_Z 72
_cell_length_a 14.472274
_cell_length_b 14.472274
_cell_length_c 18.129544
_cell_angle_alpha 90.000000
_cell_angle_beta 90.000000
_cell_angle_gamma 120.000000
_cell_volume 3288.448653
_symmetry_space_group_name_H-M "P 6/M C C"
_symmetry_group_IT_number 192
_symmetry_cell_setting 'hexagonal'
loop_
_space_group_symop_operation_xyz
x,y,z
x-y,x,z
-y,x-y,z
-x,-y,z
-x+y,-x,z
y,-x+y,z
x-y,-y,1/2-z
-x,-x+y,1/2-z
y,x,1/2-z
-y,-x,1/2-z
-x+y,y,1/2-z
x,x-y,1/2-z
-x,-y,-z
-x+y,-x,-z
y,-x+y,-z
x,y,-z
x-y,x,-z
-y,x-y,-z
-x+y,y,1/2+z
x,x-y,1/2+z
-y,-x,1/2+z
y,x,1/2+z
x-y,-y,1/2+z
-x,-x+y,1/2+z
loop_
_atom_site_type_symbol
_atom_site_label
_atom_site_fract_x
_atom_site_fract_y
_atom_site_fract_z
Si Si1 0.806045 0.037672 0.911364
Si Si2 0.690334 0.464532 0.915782
Si Si3 0.978967 0.383745 0.836632
O O1 0.791005 0.922808 0.889714
O O2 0.707650 0.044314 0.877331
O O3 0.799635 0.040298 0.000000
O O4 0.578770 0.351591 0.907702
O O5 0.692844 0.547838 0.858513
O O6 0.697459 0.503616 0.000000
O O7 0.000000 0.500000 0.860582
O O8 0.000000 0.388357 0.750000
#
# Coordination Sequence:
#
# PCOD9588763 Si02
#       3
#    24  24  24
#     4  10  23  44  72 101 133 175 228 286 340 401
#     4   8  18  38  67  94 120 163 223 279 330 391
#     4  11  25  42  59  97 139 178 220 270 343 413
#
# _framework density 21.894821
#
# number of rings (size 3 to 8) (size 9 to 14) (size 15 to 20)
#    0.667    1.667    0.000    1.333    4.667    5.333 
#    6.000    0.000    0.000    2.000    0.000    0.000 
#    0.000    0.000    0.000    0.000    0.000    0.000 
#
# Total GULP energy -402070.050044 kJ/mol
# GULP energy per Si atom -5584.306251 kJ/mol
# Density = 2.184499 g / cm^3
# Si number density = 21.894821 Si / 1000 Ang^3
#
#
#
# Elastic Constant Matrix: (Units=GPa)
#
#
# Indices 1 2 3 4 5 6 
#
# 1 117.5548 45.9624 42.7658 0.0000 0.0000 0.0000
# 2 45.9624 117.5548 42.7658 0.0000 0.0000 0.0000
# 3 42.7658 42.7658 53.7341 0.0000 0.0000 0.0000
# 4 0.0000 0.0000 0.0000 29.2054 0.0000 0.0000
# 5 0.0000 0.0000 0.0000 0.0000 29.2054 0.0000
# 6 0.0000 0.0000 0.0000 0.0000 0.0000 35.7962
#
#
#
# Elastic Compliance Matrix: (Units=1/GPa)
#
#
# Indices 1 2 3 4 5 6 
#
# 1 0.012223 -0.001745 -0.008339 0.000000 0.000000 0.000000
# 2 -0.001745 0.012223 -0.008339 0.000000 0.000000 0.000000
# 3 -0.008339 -0.008339 0.031883 0.000000 0.000000 0.000000
# 4 0.000000 0.000000 0.000000 0.034240 0.000000 0.000000
# 5 0.000000 0.000000 0.000000 0.000000 0.034240 0.000000
# 6 0.000000 0.000000 0.000000 0.000000 0.000000 0.027936
#
#
# Mechanical properties :
#
#
# Convention : Reuss Voigt Hill
#
# Bulk Modulus (GPa) = 51.32614 61.31464 56.32039
# Shear Modulus (GPa) = 25.49920 29.33139 27.41529
#
# Velocity S-wave (km/s) = 3.41636 3.66409 3.54239
# Velocity P-wave (km/s) = 6.24940 6.77980 6.52000
#
# Compressibility (1/GPa) = 0.01948325
#
# Stress axis : x y z
#
# Youngs Moduli (GPa) = 81.81546 81.81546 31.36440
#
# Poissons Ratio (x) = 0.14280 0.26154
# Poissons Ratio (y) = 0.14280 0.26154
# Poissons Ratio (z) = 0.68223 0.68223
#
# Static dielectric constant tensor:
#      x y z
#    x 1.848350 0.000000 0.000000 
#    y 0.000000 1.848350 0.000000 
#    z 0.000000 0.000000 1.725030 
# 
# From -- ./inp_files/3776.got.cif
#   From: 2010.05.17/outbox.cif.g08.bks.cpg/sg192_2_cif.got.tgz:3776.got - 2010.05.20 12:28:01.
