data_PCOD9588388
_publ_section_title
;
Structure prediction by ZEFSAII (Michael W. Deem and Ramdas Pophale) SiO2 
 PCOD9588388
Probable space group: P 6/M C C
;
_chemical_formula_sum "Si O2"
_cell_formula_units_Z 168
_cell_length_a 21.486926
_cell_length_b 21.486926
_cell_length_c 24.262179
_cell_angle_alpha 90.000000
_cell_angle_beta 90.000000
_cell_angle_gamma 120.000000
_cell_volume 9700.832603
_symmetry_space_group_name_H-M "P 6/M C C"
_symmetry_group_IT_number 192
_symmetry_cell_setting 'hexagonal'
loop_
_space_group_symop_operation_xyz
x,y,z
x-y,x,z
-y,x-y,z
-x,-y,z
-x+y,-x,z
y,-x+y,z
x-y,-y,1/2-z
-x,-x+y,1/2-z
y,x,1/2-z
-y,-x,1/2-z
-x+y,y,1/2-z
x,x-y,1/2-z
-x,-y,-z
-x+y,-x,-z
y,-x+y,-z
x,y,-z
x-y,x,-z
-y,x-y,-z
-x+y,y,1/2+z
x,x-y,1/2+z
-y,-x,1/2+z
y,x,1/2+z
x-y,-y,1/2+z
-x,-x+y,1/2+z
loop_
_atom_site_type_symbol
_atom_site_label
_atom_site_fract_x
_atom_site_fract_y
_atom_site_fract_z
Si Si1 0.067792 0.906638 0.433454
Si Si2 0.527380 0.444307 0.185501
Si Si3 0.351655 0.536964 0.898788
Si Si4 0.219637 0.685176 0.561771
Si Si5 0.155284 0.826101 0.566117
Si Si6 0.415688 0.327423 0.114232
Si Si7 0.677982 0.065588 0.562761
O O1 0.064492 0.911249 0.500000
O O2 0.104879 0.859704 0.424012
O O3 0.987096 0.870524 0.412195
O O4 0.500000 0.500000 0.167752
O O5 0.543835 0.456166 0.250000
O O6 0.598914 0.455665 0.153962
O O7 0.461391 0.365791 0.168903
O O8 0.389973 0.614499 0.927876
O O9 0.269114 0.519572 0.896183
O O10 0.351458 0.472384 0.932148
O O11 0.240996 0.713777 0.500000
O O12 0.135157 0.656312 0.570474
O O13 0.150764 0.806626 0.500000
O O14 0.126707 0.757904 0.605958
O O15 0.237616 0.886443 0.576696
O O16 0.366376 0.361497 0.099335
O O17 0.672918 0.040506 0.500000
#
# Coordination Sequence:
#
# PCOD9588388 Si02
#       7
#    24  24  24  24  24  24  24
#     4   9  16  26  41  65 101 153 204 237 262 301
#     4  10  22  43  63  80 104 138 184 240 284 319
#     4  11  22  37  56  82 106 146 183 215 273 332
#     4  11  21  34  53  79 116 144 170 213 265 327
#     4  10  19  31  48  74 115 152 182 229 281 329
#     4  11  21  34  54  81 104 143 186 223 274 331
#     4  11  20  32  51  79 115 148 184 222 270 335
#
# _framework density 17.318102
#
# number of rings (size 3 to 8) (size 9 to 14) (size 15 to 20)
#    0.000    1.571    2.857    3.857    0.000    2.857 
#    0.000    5.000    0.000    0.000    0.000    0.000 
#    0.000    0.000    0.000    0.000    0.000    0.143 
#
# Total GULP energy -935727.793140 kJ/mol
# GULP energy per Si atom -5569.808293 kJ/mol
# Density = 1.727868 g / cm^3
# Si number density = 17.318102 Si / 1000 Ang^3
#
#
#
# Elastic Constant Matrix: (Units=GPa)
#
#
# Indices 1 2 3 4 5 6 
#
# 1 94.8412 37.8371 29.8563 0.0000 0.0000 0.0000
# 2 37.8371 94.8412 29.8563 0.0000 0.0000 0.0000
# 3 29.8563 29.8563 56.5858 0.0000 0.0000 0.0000
# 4 0.0000 0.0000 0.0000 18.1975 0.0000 0.0000
# 5 0.0000 0.0000 0.0000 0.0000 18.1975 0.0000
# 6 0.0000 0.0000 0.0000 0.0000 0.0000 28.5020
#
#
#
# Elastic Compliance Matrix: (Units=1/GPa)
#
#
# Indices 1 2 3 4 5 6 
#
# 1 0.013713 -0.003829 -0.005215 0.000000 0.000000 0.000000
# 2 -0.003829 0.013713 -0.005215 0.000000 0.000000 0.000000
# 3 -0.005215 -0.005215 0.023176 0.000000 0.000000 0.000000
# 4 0.000000 0.000000 0.000000 0.054952 0.000000 0.000000
# 5 0.000000 0.000000 0.000000 0.000000 0.054952 0.000000
# 6 0.000000 0.000000 0.000000 0.000000 0.000000 0.035085
#
#
# Mechanical properties :
#
#
# Convention : Reuss Voigt Hill
#
# Bulk Modulus (GPa) = 45.28315 49.04083 47.16199
# Shear Modulus (GPa) = 21.60082 22.89398 22.24740
#
# Velocity S-wave (km/s) = 3.53554 3.63983 3.58807
# Velocity P-wave (km/s) = 6.54762 6.78555 6.66765
#
# Compressibility (1/GPa) = 0.02208327
#
# Stress axis : x y z
#
# Youngs Moduli (GPa) = 72.92150 72.92150 43.14881
#
# Poissons Ratio (x) = 0.27923 0.22503
# Poissons Ratio (y) = 0.27923 0.22503
# Poissons Ratio (z) = 0.38030 0.38030
#
# Static dielectric constant tensor:
#      x y z
#    x 1.629760 0.000000 0.000000 
#    y 0.000000 1.629760 0.000000 
#    z 0.000000 0.000000 1.555180 
# 
# From -- ./inp_files/6026.got.cif
#   From: 2010.05.17/outbox.cif.g08.bks.cpg/sg192_4_cif.got.tgz:6026.got - 2010.05.20 12:28:01.
