data_PCOD9588167
_publ_section_title
;
Structure prediction by ZEFSAII (Michael W. Deem and Ramdas Pophale) SiO2 
 PCOD9588167
Probable space group: P 6/M M M
;
_chemical_formula_sum "Si O2"
_cell_formula_units_Z 78
_cell_length_a 28.021101
_cell_length_b 28.021101
_cell_length_c 7.379728
_cell_angle_alpha 90.000000
_cell_angle_beta 90.000000
_cell_angle_gamma 120.000000
_cell_volume 5018.123873
_symmetry_space_group_name_H-M "P 6/M M M"
_symmetry_group_IT_number 191
_symmetry_cell_setting 'hexagonal'
loop_
_space_group_symop_operation_xyz
x,y,z
x-y,x,z
-y,x-y,z
-x,-y,z
-x+y,-x,z
y,-x+y,z
x-y,-y,-z
-x,-x+y,-z
y,x,-z
-y,-x,-z
-x+y,y,-z
x,x-y,-z
-x,-y,-z
-x+y,-x,-z
y,-x+y,-z
x,y,-z
x-y,x,-z
-y,x-y,-z
-x+y,y,z
x,x-y,z
-y,-x,z
y,x,z
x-y,-y,z
-x,-x+y,z
loop_
_atom_site_type_symbol
_atom_site_label
_atom_site_fract_x
_atom_site_fract_y
_atom_site_fract_z
Si Si1 0.680915 0.783731 0.500000
Si Si2 0.583712 0.064840 0.219802
Si Si3 0.804001 0.804001 0.500000
Si Si4 0.066290 0.689471 0.215795
Si Si5 0.887724 0.000000 0.784075
O O1 0.678247 0.839124 0.500000
O O2 0.744047 0.797817 0.500000
O O3 0.650610 0.745240 0.672557
O O4 0.544226 0.088451 0.280395
O O5 0.646265 0.085978 0.275633
O O6 0.550879 0.000000 0.268055
O O7 0.585032 0.067000 0.000000
O O8 0.839013 0.839013 0.672621
O O9 0.000000 0.658681 0.247783
O O10 0.074535 0.698269 0.000000
O O11 0.945399 0.054602 0.739968
O O12 0.878982 0.000000 0.000000
#
# Coordination Sequence:
#
# PCOD9588167 Si02
#       5
#    12  24   6  24  12
#     4  12  24  36  50  66  89 123 166 208 240 280
#     4   7  10  19  40  69  96 121 147 175 210 253
#     4  12  24  40  53  68  93 120 158 200 238 278
#     4   9  17  32  51  69  93 123 154 190 233 280
#     4  10  21  38  60  82  98 109 126 167 240 324
#
# _framework density 15.543656
#
# number of rings (size 3 to 8) (size 9 to 14) (size 15 to 20)
#    0.000    2.769    1.538    4.308    0.000    2.462 
#    0.000    1.538    0.000    3.692    0.000    0.000 
#    0.000    0.000    0.000    3.692    0.000   24.000 
#
# Total GULP energy -434491.336470 kJ/mol
# GULP energy per Si atom -5570.401750 kJ/mol
# Density = 1.550828 g / cm^3
# Si number density = 15.543656 Si / 1000 Ang^3
#
#
#
# Elastic Constant Matrix: (Units=GPa)
#
#
# Indices 1 2 3 4 5 6 
#
# 1 108.5428 89.6576 45.1962 0.0000 0.0000 0.0000
# 2 89.6576 108.5428 45.1962 0.0000 0.0000 0.0000
# 3 45.1962 45.1962 67.0893 0.0000 0.0000 0.0000
# 4 0.0000 0.0000 0.0000 37.2271 0.0000 0.0000
# 5 0.0000 0.0000 0.0000 0.0000 37.2271 0.0000
# 6 0.0000 0.0000 0.0000 0.0000 0.0000 9.4426
#
#
#
# Elastic Compliance Matrix: (Units=1/GPa)
#
#
# Indices 1 2 3 4 5 6 
#
# 1 0.030117 -0.022834 -0.004906 0.000000 0.000000 0.000000
# 2 -0.022834 0.030117 -0.004906 0.000000 0.000000 0.000000
# 3 -0.004906 -0.004906 0.021516 0.000000 0.000000 0.000000
# 4 0.000000 0.000000 0.000000 0.026862 0.000000 0.000000
# 5 0.000000 0.000000 0.000000 0.000000 0.026862 0.000000
# 6 0.000000 0.000000 0.000000 0.000000 0.000000 0.105903
#
#
# Mechanical properties :
#
#
# Convention : Reuss Voigt Hill
#
# Bulk Modulus (GPa) = 60.76574 71.58610 66.17592
# Shear Modulus (GPa) = 16.01753 23.72100 19.86926
#
# Velocity S-wave (km/s) = 3.21360 3.91076 3.57919
# Velocity P-wave (km/s) = 7.27655 8.15763 7.72965
#
# Compressibility (1/GPa) = 0.01645664
#
# Stress axis : x y z
#
# Youngs Moduli (GPa) = 33.20347 33.20347 46.47686
#
# Poissons Ratio (x) = 0.75818 0.22803
# Poissons Ratio (y) = 0.75818 0.22803
# Poissons Ratio (z) = 0.16291 0.16291
#
# Static dielectric constant tensor:
#      x y z
#    x 1.512830 0.000000 0.000000 
#    y 0.000000 1.512830 0.000000 
#    z 0.000000 0.000000 1.568480 
# 
# From -- ./inp_files/1068.got.cif
#   From: 2010.05.17/outbox.cif.g08.bks.cpg/sg191_1_cif.got.tgz:1068.got - 2010.05.20 12:20:32.
