data_PCOD9588265
_publ_section_title
;
Structure prediction by ZEFSAII (Michael W. Deem and Ramdas Pophale) SiO2 
 PCOD9588265
Probable space group: P 6/M M M
;
_chemical_formula_sum "Si O2"
_cell_formula_units_Z 180
_cell_length_a 27.000000
_cell_length_b 27.000000
_cell_length_c 18.000000
_cell_angle_alpha 90.000000
_cell_angle_beta 90.000000
_cell_angle_gamma 120.000000
_cell_volume 11363.985348
_symmetry_space_group_name_H-M "P 6/M M M"
_symmetry_group_IT_number 191
_symmetry_cell_setting 'hexagonal'
loop_
_space_group_symop_operation_xyz
x,y,z
x-y,x,z
-y,x-y,z
-x,-y,z
-x+y,-x,z
y,-x+y,z
x-y,-y,-z
-x,-x+y,-z
y,x,-z
-y,-x,-z
-x+y,y,-z
x,x-y,-z
-x,-y,-z
-x+y,-x,-z
y,-x+y,-z
x,y,-z
x-y,x,-z
-y,x-y,-z
-x+y,y,z
x,x-y,z
-y,-x,z
y,x,z
x-y,-y,z
-x,-x+y,z
loop_
_atom_site_type_symbol
_atom_site_label
_atom_site_fract_x
_atom_site_fract_y
_atom_site_fract_z
Si Si1 0.358975 0.522602 0.347548
Si Si2 0.442106 0.280625 0.913695
Si Si3 0.782428 0.679950 0.415669
Si Si4 0.549515 0.216916 0.811284
Si Si5 0.065988 0.399708 0.660416
Si Si6 0.821609 0.065077 0.271065
Si Si7 0.277461 0.934249 0.182639
Si Si8 0.449118 0.668483 0.500000
O O1 0.419932 0.580069 0.350373
O O2 0.328767 0.527832 0.273373
O O3 0.365178 0.467249 0.342028
O O4 0.326034 0.518196 0.423655
O O5 0.436938 0.218469 0.908759
O O6 0.498542 0.322438 0.866554
O O7 0.386293 0.276455 0.876533
O O8 0.447865 0.297137 0.000000
O O9 0.783031 0.699557 0.500000
O O10 0.831009 0.662018 0.410312
O O11 0.720583 0.628563 0.394161
O O12 0.799206 0.727980 0.352471
O O13 0.606277 0.212553 0.821217
O O14 0.562768 0.281384 0.823875
O O15 0.069907 0.378638 0.742997
O O16 0.000000 0.373927 0.641889
O O17 0.887322 0.112678 0.264978
O O18 0.784093 0.077841 0.212102
O O19 0.805438 0.000000 0.260820
O O20 0.312046 0.000000 0.156665
O O21 0.394150 0.605851 0.500000
O O22 0.429115 0.714558 0.500000
#
# Coordination Sequence:
#
# PCOD9588265 Si02
#       8
#    24  24  24  24  24  24  24  12
#     4  10  21  36  51  71  96 126 164 205 246 293
#     4  10  20  33  51  76 105 133 159 195 244 293
#     4   9  18  30  45  69  97 124 158 202 249 294
#     4  10  20  35  55  76  98 127 163 205 252 301
#     4  10  20  33  49  70  95 125 159 197 244 293
#     4   9  17  29  47  70  98 132 168 206 246 291
#     4   9  17  32  52  73  97 127 163 200 241 288
#     4  10  21  36  53  73  97 123 158 205 256 302
#
# _framework density 15.839513999999999
#
# number of rings (size 3 to 8) (size 9 to 14) (size 15 to 20)
#    0.000    2.400    1.333    2.200    0.933    3.467 
#    0.000    1.333    0.000    2.533    0.000    0.933 
#    0.000    0.000    0.000    3.333    0.000    0.000 
#
# Total GULP energy -1003219.204671 kJ/mol
# GULP energy per Si atom -5573.440026 kJ/mol
# Density = 1.580346 g / cm^3
# Si number density = 15.839514 Si / 1000 Ang^3
#
#
#
# Elastic Constant Matrix: (Units=GPa)
#
#
# Indices 1 2 3 4 5 6 
#
# 1 55.1394 38.3383 51.6093 0.0000 0.0000 0.0000
# 2 38.3383 55.1394 51.6093 0.0000 0.0000 0.0000
# 3 51.6093 51.6093 102.0473 0.0000 0.0000 0.0000
# 4 0.0000 0.0000 0.0000 14.9457 0.0000 0.0000
# 5 0.0000 0.0000 0.0000 0.0000 14.9457 0.0000
# 6 0.0000 0.0000 0.0000 0.0000 0.0000 8.4006
#
#
#
# Elastic Compliance Matrix: (Units=1/GPa)
#
#
# Indices 1 2 3 4 5 6 
#
# 1 0.041873 -0.017646 -0.012253 0.000000 0.000000 0.000000
# 2 -0.017646 0.041873 -0.012253 0.000000 0.000000 0.000000
# 3 -0.012253 -0.012253 0.022193 0.000000 0.000000 0.000000
# 4 0.000000 0.000000 0.000000 0.066909 0.000000 0.000000
# 5 0.000000 0.000000 0.000000 0.000000 0.066909 0.000000
# 6 0.000000 0.000000 0.000000 0.000000 0.000000 0.119039
#
#
# Mechanical properties :
#
#
# Convention : Reuss Voigt Hill
#
# Bulk Modulus (GPa) = 46.21827 55.04887 50.63357
# Shear Modulus (GPa) = 11.10343 12.37636 11.73989
#
# Velocity S-wave (km/s) = 2.65050 2.79831 2.72541
# Velocity P-wave (km/s) = 6.21364 6.72832 6.47610
#
# Compressibility (1/GPa) = 0.02163647
#
# Stress axis : x y z
#
# Youngs Moduli (GPa) = 23.88152 23.88152 45.06000
#
# Poissons Ratio (x) = 0.42142 0.55210
# Poissons Ratio (y) = 0.42142 0.55210
# Poissons Ratio (z) = 0.29261 0.29261
#
# Static dielectric constant tensor:
#      x y z
#    x 1.514630 0.000000 0.000000 
#    y 0.000000 1.514630 0.000000 
#    z 0.000000 0.000000 1.534770 
# 
# From -- ./inp_files/6895.got.cif
#   From: 2010.05.17/outbox.ucp.g08.bks.cvg/sg191_4_cif.got.tgz:6895.got - 2010.06.11 15:22:43.
