data_PCOD9588712
_publ_section_title
;
Structure prediction by ZEFSAII (Michael W. Deem and Ramdas Pophale) SiO2 
 PCOD9588712
Probable space group: P 6/M C C
;
_chemical_formula_sum "Si O2"
_cell_formula_units_Z 128
_cell_length_a 18.695083
_cell_length_b 18.695083
_cell_length_c 16.033885
_cell_angle_alpha 90.000000
_cell_angle_beta 90.000000
_cell_angle_gamma 120.000000
_cell_volume 4853.155327
_symmetry_space_group_name_H-M "P 6/M C C"
_symmetry_group_IT_number 192
_symmetry_cell_setting 'hexagonal'
loop_
_space_group_symop_operation_xyz
x,y,z
x-y,x,z
-y,x-y,z
-x,-y,z
-x+y,-x,z
y,-x+y,z
x-y,-y,1/2-z
-x,-x+y,1/2-z
y,x,1/2-z
-y,-x,1/2-z
-x+y,y,1/2-z
x,x-y,1/2-z
-x,-y,-z
-x+y,-x,-z
y,-x+y,-z
x,y,-z
x-y,x,-z
-y,x-y,-z
-x+y,y,1/2+z
x,x-y,1/2+z
-y,-x,1/2+z
y,x,1/2+z
x-y,-y,1/2+z
-x,-x+y,1/2+z
loop_
_atom_site_type_symbol
_atom_site_label
_atom_site_fract_x
_atom_site_fract_y
_atom_site_fract_z
Si Si1 0.843200 0.469050 0.336056
Si Si2 0.208927 0.413594 0.598346
Si Si3 0.391154 0.928248 0.906075
Si Si4 0.666667 0.333334 0.352612
Si Si5 0.726134 0.026746 0.840713
Si Si6 0.136516 0.960647 0.401869
O O1 0.847609 0.423805 0.250000
O O2 0.836753 0.552163 0.341138
O O3 0.915645 0.467906 0.387967
O O4 0.755314 0.406511 0.377516
O O5 0.186157 0.408815 0.500000
O O6 0.309379 0.473876 0.602046
O O7 0.211115 0.332315 0.630534
O O8 0.362000 0.977837 0.847426
O O9 0.390017 0.954456 0.000000
O O10 0.666668 0.333334 0.250000
O O11 0.739924 0.964272 0.896691
O O12 0.735277 0.000000 0.750000
O O13 0.159085 0.050098 0.365380
O O14 0.118920 0.955088 0.500000
#
# Coordination Sequence:
#
# PCOD9588712 Si02
#       6
#    24  24  24   8  24  24
#     4  11  19  32  53  96 143 187 227 302 372 441
#     4   9  19  36  60  94 140 191 246 305 376 458
#     4   9  19  36  60  93 138 189 243 299 367 454
#     4   9  15  21  37  68 124 165 202 248 340 408
#     4  10  21  41  65 101 143 197 258 316 379 462
#     4  10  21  41  70 108 150 193 245 311 392 475
#
# _framework density 26.374594999999999
#
# number of rings (size 3 to 8) (size 9 to 14) (size 15 to 20)
#    1.125    1.125    1.875    1.875    0.000    1.500 
#    6.750    0.000    0.000    1.688    0.000    1.312 
#    0.000    0.000    0.000    0.000    0.000    0.000 
#
# Total GULP energy -713838.287026 kJ/mol
# GULP energy per Si atom -5576.861617 kJ/mol
# Density = 2.631456 g / cm^3
# Si number density = 26.374595 Si / 1000 Ang^3
#
#
#
# Elastic Constant Matrix: (Units=GPa)
#
#
# Indices 1 2 3 4 5 6 
#
# 1 99.5409 23.2073 10.0134 0.0000 0.0001 0.0001
# 2 23.2073 99.5411 10.0137 -0.0001 -0.0001 0.0002
# 3 10.0134 10.0137 92.8232 0.0000 0.0001 0.0000
# 4 0.0000 -0.0001 0.0000 22.2384 0.0001 0.0001
# 5 0.0001 -0.0001 0.0001 0.0001 22.2380 0.0000
# 6 0.0001 0.0002 0.0000 0.0001 0.0000 38.1672
#
#
#
# Elastic Compliance Matrix: (Units=1/GPa)
#
#
# Indices 1 2 3 4 5 6 
#
# 1 0.010697 -0.002404 -0.000895 0.000000 0.000000 0.000000
# 2 -0.002404 0.010697 -0.000895 0.000000 0.000000 0.000000
# 3 -0.000895 -0.000895 0.010966 0.000000 0.000000 0.000000
# 4 0.000000 0.000000 0.000000 0.044967 0.000000 0.000000
# 5 0.000000 0.000000 0.000000 0.000000 0.044968 0.000000
# 6 0.000000 0.000000 0.000000 0.000000 0.000000 0.026201
#
#
# Mechanical properties :
#
#
# Convention : Reuss Voigt Hill
#
# Bulk Modulus (GPa) = 41.71322 42.04155 41.87738
# Shear Modulus (GPa) = 30.32653 33.10678 31.71666
#
# Velocity S-wave (km/s) = 3.39461 3.54680 3.47154
# Velocity P-wave (km/s) = 5.58699 5.72257 5.65519
#
# Compressibility (1/GPa) = 0.02397322
#
# Stress axis : x y z
#
# Youngs Moduli (GPa) = 93.48807 93.48821 91.18945
#
# Poissons Ratio (x) = 0.22473 0.08158
# Poissons Ratio (y) = 0.22473 0.08158
# Poissons Ratio (z) = 0.08363 0.08364
#
# Static dielectric constant tensor:
#      x y z
#    x 2.136490 0.000000 0.000000 
#    y 0.000000 2.136490 0.000000 
#    z 0.000000 0.000000 2.004800 
# 
# From -- ./inp_files/5019.got.cif
#   From: 2010.05.17/outbox.cif.g08.bks.cpg/sg192_3_cif.got.tgz:5019.got - 2010.05.20 12:28:01.
