data_PCOD9588462
_publ_section_title
;
Structure prediction by ZEFSAII (Michael W. Deem and Ramdas Pophale) SiO2 
 PCOD9588462
Probable space group: P 6/M C C
;
_chemical_formula_sum "Si O2"
_cell_formula_units_Z 92
_cell_length_a 19.986179
_cell_length_b 19.986179
_cell_length_c 14.423528
_cell_angle_alpha 90.000000
_cell_angle_beta 90.000000
_cell_angle_gamma 120.000000
_cell_volume 4989.553447
_symmetry_space_group_name_H-M "P 6/M C C"
_symmetry_group_IT_number 192
_symmetry_cell_setting 'hexagonal'
loop_
_space_group_symop_operation_xyz
x,y,z
x-y,x,z
-y,x-y,z
-x,-y,z
-x+y,-x,z
y,-x+y,z
x-y,-y,1/2-z
-x,-x+y,1/2-z
y,x,1/2-z
-y,-x,1/2-z
-x+y,y,1/2-z
x,x-y,1/2-z
-x,-y,-z
-x+y,-x,-z
y,-x+y,-z
x,y,-z
x-y,x,-z
-y,x-y,-z
-x+y,y,1/2+z
x,x-y,1/2+z
-y,-x,1/2+z
y,x,1/2+z
x-y,-y,1/2+z
-x,-x+y,1/2+z
loop_
_atom_site_type_symbol
_atom_site_label
_atom_site_fract_x
_atom_site_fract_y
_atom_site_fract_z
Si Si1 0.596522 0.193043 0.750000
Si Si2 0.289173 0.416852 0.250000
Si Si3 0.333334 0.666668 0.611636
Si Si4 0.000000 0.154456 0.362326
Si Si5 0.689277 0.689276 0.895247
O O1 0.504456 0.145604 0.749999
O O2 0.624365 0.248729 0.659361
O O3 0.208001 0.416001 0.250000
O O4 0.296142 0.371413 0.161750
O O5 0.296142 0.371412 0.338251
O O6 0.333334 0.666668 0.500000
O O7 0.000001 0.230262 0.395491
O O8 0.076729 0.153458 0.390718
O O9 0.000000 0.157229 0.250000
O O10 0.663985 0.663985 0.000000
#
# Coordination Sequence:
#
# PCOD9588462 Si02
#       5
#    12  24   8  24  24
#     4  10  22  43  66  98 128 164 204 256 312 377
#     4  11  22  43  67  87 124 169 207 255 318 375
#     4  10  20  40  67 104 133 151 200 262 319 377
#     4  10  19  35  57  83 115 155 206 261 315 369
#     4  11  25  39  59  92 126 165 214 260 307 378
#
# _framework density 18.438523
#
# number of rings (size 3 to 8) (size 9 to 14) (size 15 to 20)
#    0.000    1.565    5.217    1.826    0.000    9.391 
#    0.000    1.304    0.000    1.565    0.000    0.000 
#    0.000    0.000    0.000    0.000    0.000    0.000 
#
# Total GULP energy -513988.748099 kJ/mol
# GULP energy per Si atom -5586.834218 kJ/mol
# Density = 1.839656 g / cm^3
# Si number density = 18.438523 Si / 1000 Ang^3
#
#
#
# Elastic Constant Matrix: (Units=GPa)
#
#
# Indices 1 2 3 4 5 6 
#
# 1 146.3367 106.7312 56.5293 -0.0003 0.0001 0.0000
# 2 106.7312 146.3369 56.5293 0.0002 -0.0001 0.0000
# 3 56.5293 56.5293 169.9239 -0.0003 -0.0001 0.0000
# 4 -0.0003 0.0002 -0.0003 -53.3307 -0.0001 0.0001
# 5 0.0001 -0.0001 -0.0001 -0.0001 -53.3301 0.0002
# 6 0.0000 0.0000 0.0000 0.0001 0.0002 19.8028
#
#
#
# Elastic Compliance Matrix: (Units=1/GPa)
#
#
# Indices 1 2 3 4 5 6 
#
# 1 0.014945 -0.010304 -0.001544 0.000000 0.000000 0.000000
# 2 -0.010304 0.014945 -0.001544 0.000000 0.000000 0.000000
# 3 -0.001544 -0.001544 0.006912 0.000000 0.000000 0.000000
# 4 0.000000 0.000000 0.000000 -0.018751 0.000000 0.000000
# 5 0.000000 0.000000 0.000000 0.000000 -0.018751 0.000000
# 6 0.000000 0.000000 0.000000 0.000000 0.000000 0.050498
#
#
# Mechanical properties :
#
#
# Convention : Reuss Voigt Hill
#
# Bulk Modulus (GPa) = 99.81275 100.24190 100.02733
# Shear Modulus (GPa) = 62.56100 -1.18443 30.68829
#
# Velocity S-wave (km/s) = 5.83122 -0.80235 4.08408
# Velocity P-wave (km/s) = 9.97937 7.32292 8.75251
#
# Compressibility (1/GPa) = 0.01001876
#
# Stress axis : x y z
#
# Youngs Moduli (GPa) = 66.91131 66.91142 144.66928
#
# Poissons Ratio (x) = 0.68944 0.22338
# Poissons Ratio (y) = 0.68944 0.22338
# Poissons Ratio (z) = 0.10331 0.10331
#
# Static dielectric constant tensor:
#      x y z
#    x 1.612310 0.000000 0.000000 
#    y 0.000000 1.612310 0.000000 
#    z 0.000000 0.000000 1.674330 
# 
# From -- ./inp_files/2781.got.cif
#   From: 2010.05.17/outbox.cif.g08.bks.cpg/sg192_2_cif.got.tgz:2781.got - 2010.05.20 12:28:01.
