data_PCOD9588215
_publ_section_title
;
Structure prediction by ZEFSAII (Michael W. Deem and Ramdas Pophale) SiO2 
 PCOD9588215
Probable space group: P 6/M M M
;
_chemical_formula_sum "Si O2"
_cell_formula_units_Z 132
_cell_length_a 23.674721
_cell_length_b 23.674721
_cell_length_c 14.396245
_cell_angle_alpha 90.000000
_cell_angle_beta 90.000000
_cell_angle_gamma 120.000000
_cell_volume 6987.946962
_symmetry_space_group_name_H-M "P 6/M M M"
_symmetry_group_IT_number 191
_symmetry_cell_setting 'hexagonal'
loop_
_space_group_symop_operation_xyz
x,y,z
x-y,x,z
-y,x-y,z
-x,-y,z
-x+y,-x,z
y,-x+y,z
x-y,-y,-z
-x,-x+y,-z
y,x,-z
-y,-x,-z
-x+y,y,-z
x,x-y,-z
-x,-y,-z
-x+y,-x,-z
y,-x+y,-z
x,y,-z
x-y,x,-z
-y,x-y,-z
-x+y,y,z
x,x-y,z
-y,-x,z
y,x,z
x-y,-y,z
-x,-x+y,z
loop_
_atom_site_type_symbol
_atom_site_label
_atom_site_fract_x
_atom_site_fract_y
_atom_site_fract_z
Si Si1 0.119612 0.371006 0.393172
Si Si2 0.000000 0.436512 0.887552
Si Si3 0.586257 0.882278 0.110833
Si Si4 0.075754 0.281228 0.781676
Si Si5 0.545668 0.212321 0.202924
Si Si6 0.142801 0.508951 0.606779
O O1 0.103308 0.349901 0.500000
O O2 0.197178 0.394355 0.381198
O O3 0.083048 0.313498 0.319977
O O4 0.106227 0.430990 0.377635
O O5 0.061217 0.429439 0.861672
O O6 0.000000 0.500000 0.850011
O O7 0.000000 0.440217 0.000000
O O8 0.656107 0.899553 0.150670
O O9 0.524415 0.821416 0.155346
O O10 0.586608 0.876651 0.000000
O O11 0.128571 0.257141 0.788282
O O12 0.000000 0.229414 0.799867
O O13 0.593801 0.187602 0.166321
O O14 0.577007 0.288504 0.188431
O O15 0.535609 0.196062 0.312235
O O16 0.167010 0.517345 0.500000
O O17 0.109519 0.554760 0.614326
#
# Coordination Sequence:
#
# PCOD9588215 Si02
#       6
#    24  12  24  24  24  24
#     4   9  17  32  56  83 112 149 192 238 287 337
#     4   9  18  34  56  80 107 141 184 236 291 344
#     4  11  22  38  58  82 110 144 191 242 293 343
#     4  11  23  40  63  92 121 149 184 228 280 340
#     4  11  22  35  51  74 106 148 197 248 299 349
#     4   9  17  29  48  75 108 147 192 244 298 348
#
# _framework density 18.889668
#
# number of rings (size 3 to 8) (size 9 to 14) (size 15 to 20)
#    0.000    1.909    2.727    1.818    0.000    4.000 
#    0.000    0.000    0.000    2.727    0.000    5.091 
#    0.000    0.000    0.000    6.182    0.000    0.000 
#
# Total GULP energy -735546.352166 kJ/mol
# GULP energy per Si atom -5572.320850 kJ/mol
# Density = 1.884667 g / cm^3
# Si number density = 18.889668 Si / 1000 Ang^3
#
#
#
# Elastic Constant Matrix: (Units=GPa)
#
#
# Indices 1 2 3 4 5 6 
#
# 1 106.2076 53.1173 26.9261 0.0000 0.0000 0.0000
# 2 53.1173 106.2076 26.9261 0.0000 0.0000 0.0000
# 3 26.9261 26.9261 72.1462 0.0000 0.0000 0.0000
# 4 0.0000 0.0000 0.0000 8.3348 0.0000 0.0000
# 5 0.0000 0.0000 0.0000 0.0000 8.3348 0.0000
# 6 0.0000 0.0000 0.0000 0.0000 0.0000 26.5452
#
#
#
# Elastic Compliance Matrix: (Units=1/GPa)
#
#
# Indices 1 2 3 4 5 6 
#
# 1 0.013009 -0.005827 -0.002681 0.000000 0.000000 0.000000
# 2 -0.005827 0.013009 -0.002681 0.000000 0.000000 0.000000
# 3 -0.002681 -0.002681 0.015862 0.000000 0.000000 0.000000
# 4 0.000000 0.000000 0.000000 0.119980 0.000000 0.000000
# 5 0.000000 0.000000 0.000000 0.000000 0.119980 0.000000
# 6 0.000000 0.000000 0.000000 0.000000 0.000000 0.037672
#
#
# Mechanical properties :
#
#
# Convention : Reuss Voigt Hill
#
# Bulk Modulus (GPa) = 51.27100 55.38891 53.32996
# Shear Modulus (GPa) = 14.35182 20.48241 17.41712
#
# Velocity S-wave (km/s) = 2.75938 3.29647 3.03981
# Velocity P-wave (km/s) = 6.11175 6.62382 6.37293
#
# Compressibility (1/GPa) = 0.01950420
#
# Stress axis : x y z
#
# Youngs Moduli (GPa) = 76.86882 76.86882 63.04511
#
# Poissons Ratio (x) = 0.44789 0.16900
# Poissons Ratio (y) = 0.44789 0.16900
# Poissons Ratio (z) = 0.20606 0.20606
#
# Static dielectric constant tensor:
#      x y z
#    x 1.696430 0.000000 0.000000 
#    y 0.000000 1.696430 0.000000 
#    z 0.000000 0.000000 1.661580 
# 
# From -- ./inp_files/4919.got.cif
#   From: 2010.05.17/outbox.cif.g08.bks.cpg/sg191_3_cif.got.tgz:4919.got - 2010.05.20 12:20:32.
