data_PCOD9588849
_publ_section_title
;
Structure prediction by ZEFSAII (Michael W. Deem and Ramdas Pophale) SiO2 
 PCOD9588849
Probable space group: P 6/M C C
;
_chemical_formula_sum "Si O2"
_cell_formula_units_Z 168
_cell_length_a 28.508179
_cell_length_b 28.508179
_cell_length_c 14.805911
_cell_angle_alpha 90.000000
_cell_angle_beta 90.000000
_cell_angle_gamma 120.000000
_cell_volume 10420.887806
_symmetry_space_group_name_H-M "P 6/M C C"
_symmetry_group_IT_number 192
_symmetry_cell_setting 'hexagonal'
loop_
_space_group_symop_operation_xyz
x,y,z
x-y,x,z
-y,x-y,z
-x,-y,z
-x+y,-x,z
y,-x+y,z
x-y,-y,1/2-z
-x,-x+y,1/2-z
y,x,1/2-z
-y,-x,1/2-z
-x+y,y,1/2-z
x,x-y,1/2-z
-x,-y,-z
-x+y,-x,-z
y,-x+y,-z
x,y,-z
x-y,x,-z
-y,x-y,-z
-x+y,y,1/2+z
x,x-y,1/2+z
-y,-x,1/2+z
y,x,1/2+z
x-y,-y,1/2+z
-x,-x+y,1/2+z
loop_
_atom_site_type_symbol
_atom_site_label
_atom_site_fract_x
_atom_site_fract_y
_atom_site_fract_z
Si Si1 0.634807 0.573671 0.606175
Si Si2 0.770448 0.436272 0.609577
Si Si3 0.938864 0.365193 0.893825
Si Si4 0.468790 0.937580 0.357532
Si Si5 0.334176 0.770448 0.109577
Si Si6 0.729141 0.561270 0.610435
Si Si7 0.561270 0.729141 0.610435
O O1 0.641547 0.585343 0.500000
O O2 0.605523 0.605523 0.644883
O O3 0.592611 0.508849 0.613388
O O4 0.693332 0.587324 0.641841
O O5 0.773751 0.437455 0.500000
O O6 0.788205 0.394102 0.642267
O O7 0.708041 0.416083 0.632534
O O8 0.804017 0.498313 0.638768
O O9 0.916238 0.407389 0.886612
O O10 0.893992 0.306668 0.858159
O O11 0.943795 0.358453 0.000000
O O12 0.468748 0.937495 0.250000
O O13 0.500000 0.000000 0.391027
O O14 0.305705 0.804017 0.138768
O O15 0.336296 0.773751 0.000000
O O16 0.729448 0.562236 0.500000
O O17 0.790969 0.581937 0.638524
O O18 0.562236 0.729448 0.500000
#
# Coordination Sequence:
#
# PCOD9588849 Si02
#       7
#    24  24  24  24  24  24  24
#     4   9  16  25  38  54  69  85 107 135 166 197
#     4   8  12  16  22  33  51  74  95 116 144 177
#     4   9  16  25  38  54  69  85 107 135 166 197
#     4   9  17  27  37  51  71  91 111 135 163 197
#     4   8  12  16  22  33  51  74  95 116 144 177
#     4   8  14  22  31  46  67  85 100 123 158 193
#     4   8  14  22  31  46  67  85 100 123 158 193
#
# _framework density 16.121466000000002
#
# number of rings (size 3 to 8) (size 9 to 14) (size 15 to 20)
#    0.000    3.571    0.000    2.429    2.000    2.857 
#    0.000    0.000    0.000    0.857    0.000    0.000 
#    0.000    0.000    0.000    0.000    0.000    0.000 
#
# Total GULP energy -935572.174854 kJ/mol
# GULP energy per Si atom -5568.881993 kJ/mol
# Density = 1.608477 g / cm^3
# Si number density = 16.121466 Si / 1000 Ang^3
#
#
#
# Elastic Constant Matrix: (Units=GPa)
#
#
# Indices 1 2 3 4 5 6 
#
# 1 83.1277 35.7143 2.6308 0.0000 0.0000 0.0000
# 2 35.7143 83.1277 2.6308 0.0000 0.0000 0.0000
# 3 2.6308 2.6308 55.0987 0.0000 0.0000 0.0000
# 4 0.0000 0.0000 0.0000 -33.5346 0.0000 0.0000
# 5 0.0000 0.0000 0.0000 0.0000 -33.5346 0.0000
# 6 0.0000 0.0000 0.0000 0.0000 0.0000 23.7067
#
#
#
# Elastic Compliance Matrix: (Units=1/GPa)
#
#
# Indices 1 2 3 4 5 6 
#
# 1 0.014762 -0.006329 -0.000403 0.000000 0.000000 0.000000
# 2 -0.006329 0.014762 -0.000403 0.000000 0.000000 0.000000
# 3 -0.000403 -0.000403 0.018188 0.000000 0.000000 0.000000
# 4 0.000000 0.000000 0.000000 -0.029820 0.000000 0.000000
# 5 0.000000 0.000000 0.000000 0.000000 -0.029820 0.000000
# 6 0.000000 0.000000 0.000000 0.000000 0.000000 0.042182
#
#
# Mechanical properties :
#
#
# Convention : Reuss Voigt Hill
#
# Bulk Modulus (GPa) = 29.90258 33.70065 31.80162
# Shear Modulus (GPa) = 89.81495 3.35271 46.58383
#
# Velocity S-wave (km/s) = 7.47210 1.44367 5.38129
# Velocity P-wave (km/s) = 9.64529 4.87119 7.64069
#
# Compressibility (1/GPa) = 0.03344193
#
# Stress axis : x y z
#
# Youngs Moduli (GPa) = 67.74270 67.74270 54.98225
#
# Poissons Ratio (x) = 0.42877 0.02214
# Poissons Ratio (y) = 0.42877 0.02214
# Poissons Ratio (z) = 0.02727 0.02727
#
# Static dielectric constant tensor:
#      x y z
#    x 1.581280 0.000000 0.000000 
#    y 0.000000 1.581280 0.000000 
#    z 0.000000 0.000000 1.602180 
# 
# From -- ./inp_files/3515.got.cif
#   From: 2010.05.17/outbox.cif.g08.bks.cpg/sg192_2_cif.got.tgz:3515.got - 2010.05.20 12:28:01.
