data_PCOD9588140
_publ_section_title
;
Structure prediction by ZEFSAII (Michael W. Deem and Ramdas Pophale) SiO2 
 PCOD9588140
Probable space group: P 6/M M M
;
_chemical_formula_sum "Si O2"
_cell_formula_units_Z 102
_cell_length_a 21.428426
_cell_length_b 21.428426
_cell_length_c 13.016401
_cell_angle_alpha 90.000000
_cell_angle_beta 90.000000
_cell_angle_gamma 120.000000
_cell_volume 5176.093283
_symmetry_space_group_name_H-M "P 6/M M M"
_symmetry_group_IT_number 191
_symmetry_cell_setting 'hexagonal'
loop_
_space_group_symop_operation_xyz
x,y,z
x-y,x,z
-y,x-y,z
-x,-y,z
-x+y,-x,z
y,-x+y,z
x-y,-y,-z
-x,-x+y,-z
y,x,-z
-y,-x,-z
-x+y,y,-z
x,x-y,-z
-x,-y,-z
-x+y,-x,-z
y,-x+y,-z
x,y,-z
x-y,x,-z
-y,x-y,-z
-x+y,y,z
x,x-y,z
-y,-x,z
y,x,z
x-y,-y,z
-x,-x+y,z
loop_
_atom_site_type_symbol
_atom_site_label
_atom_site_fract_x
_atom_site_fract_y
_atom_site_fract_z
Si Si1 0.526077 0.332773 0.830850
Si Si2 0.083601 0.777129 0.667977
Si Si3 0.866366 0.336711 0.613721
Si Si4 0.000000 0.500000 0.632483
Si Si5 0.717947 0.081514 0.113260
O O1 0.546499 0.273250 0.862077
O O2 0.587669 0.412332 0.859571
O O3 0.513660 0.328875 0.707862
O O4 0.447676 0.309921 0.874856
O O5 0.141543 0.858458 0.638191
O O6 0.110210 0.723876 0.623741
O O7 0.088683 0.768006 0.791360
O O8 0.000000 0.746569 0.641300
O O9 0.836617 0.332725 0.500000
O O10 0.937154 0.414492 0.627649
O O11 0.651166 0.000000 0.120922
O O12 0.750426 0.089872 0.000000
#
# Coordination Sequence:
#
# PCOD9588140 Si02
#       5
#    24  24  24   6  24
#     4  11  24  37  51  70 101 140 179 215 255 307
#     4  10  21  36  56  82 112 145 180 223 273 326
#     4  11  21  35  55  80 108 138 174 220 272 323
#     4  12  21  32  56  84 109 138 171 218 276 330
#     4   9  19  36  58  82 103 126 165 219 272 318
#
# _framework density 19.705981999999999
#
# number of rings (size 3 to 8) (size 9 to 14) (size 15 to 20)
#    0.000    1.647    2.353    4.118    1.647    4.706 
#    0.000    1.176    0.000    3.059    0.000    0.000 
#    0.000    0.000    0.000    8.000    0.000    0.000 
#
# Total GULP energy -568161.876250 kJ/mol
# GULP energy per Si atom -5570.214473 kJ/mol
# Density = 1.966113 g / cm^3
# Si number density = 19.705982 Si / 1000 Ang^3
#
#
#
# Elastic Constant Matrix: (Units=GPa)
#
#
# Indices 1 2 3 4 5 6 
#
# 1 86.3503 33.5923 -14.7931 0.0000 0.0000 0.0000
# 2 33.5923 86.3503 -14.7931 0.0000 0.0000 0.0000
# 3 -14.7931 -14.7931 70.7398 0.0000 0.0000 0.0000
# 4 0.0000 0.0000 0.0000 754.2945 -0.0001 0.0000
# 5 0.0000 0.0000 0.0000 -0.0001 754.2945 0.0000
# 6 0.0000 0.0000 0.0000 0.0000 0.0000 26.3790
#
#
#
# Elastic Compliance Matrix: (Units=1/GPa)
#
#
# Indices 1 2 3 4 5 6 
#
# 1 0.013873 -0.005082 0.001838 0.000000 0.000000 0.000000
# 2 -0.005082 0.013873 0.001838 0.000000 0.000000 0.000000
# 3 0.001838 0.001838 0.014905 0.000000 0.000000 0.000000
# 4 0.000000 0.000000 0.000000 0.001326 0.000000 0.000000
# 5 0.000000 0.000000 0.000000 0.000000 0.001326 0.000000
# 6 0.000000 0.000000 0.000000 0.000000 0.000000 0.037909
#
#
# Mechanical properties :
#
#
# Convention : Reuss Voigt Hill
#
# Bulk Modulus (GPa) = 25.10037 27.93917 26.51977
# Shear Modulus (GPa) = 50.35184 322.95589 186.65387
#
# Velocity S-wave (km/s) = 5.06034 12.81573 9.74295
# Velocity P-wave (km/s) = 6.84893 15.27087 11.83443
#
# Compressibility (1/GPa) = 0.03984004
#
# Stress axis : x y z
#
# Youngs Moduli (GPa) = 72.08439 72.08439 67.09084
#
# Poissons Ratio (x) = 0.36632 -0.12333
# Poissons Ratio (y) = 0.36632 -0.12333
# Poissons Ratio (z) = -0.13251 -0.13251
#
# Static dielectric constant tensor:
#      x y z
#    x 1.680120 0.000000 0.000000 
#    y 0.000000 1.680120 0.000000 
#    z 0.000000 0.000000 1.767800 
# 
# From -- ./inp_files/4331.got.cif
#   From: 2010.05.17/outbox.cif.g08.bks.cpg/sg191_3_cif.got.tgz:4331.got - 2010.05.20 12:20:32.
