data_PCOD9588306
_publ_section_title
;
Structure prediction by ZEFSAII (Michael W. Deem and Ramdas Pophale) SiO2 
 PCOD9588306
Probable space group: P 6/M C C
;
_chemical_formula_sum "Si O2"
_cell_formula_units_Z 164
_cell_length_a 22.373171
_cell_length_b 22.373171
_cell_length_c 25.337029
_cell_angle_alpha 90.000000
_cell_angle_beta 90.000000
_cell_angle_gamma 120.000000
_cell_volume 10983.516434
_symmetry_space_group_name_H-M "P 6/M C C"
_symmetry_group_IT_number 192
_symmetry_cell_setting 'hexagonal'
loop_
_space_group_symop_operation_xyz
x,y,z
x-y,x,z
-y,x-y,z
-x,-y,z
-x+y,-x,z
y,-x+y,z
x-y,-y,1/2-z
-x,-x+y,1/2-z
y,x,1/2-z
-y,-x,1/2-z
-x+y,y,1/2-z
x,x-y,1/2-z
-x,-y,-z
-x+y,-x,-z
y,-x+y,-z
x,y,-z
x-y,x,-z
-y,x-y,-z
-x+y,y,1/2+z
x,x-y,1/2+z
-y,-x,1/2+z
y,x,1/2+z
x-y,-y,1/2+z
-x,-x+y,1/2+z
loop_
_atom_site_type_symbol
_atom_site_label
_atom_site_fract_x
_atom_site_fract_y
_atom_site_fract_z
Si Si1 0.957077 0.645241 0.437693
Si Si2 0.842151 0.729116 0.098466
Si Si3 0.837562 0.923478 0.812435
Si Si4 0.652076 0.190847 0.935684
Si Si5 0.498082 0.568544 0.435777
Si Si6 0.666668 0.333334 0.064302
Si Si7 0.261725 0.879408 0.062123
Si Si8 0.165257 0.068521 0.000000
O O1 0.939490 0.645250 0.500000
O O2 0.930224 0.689596 0.406967
O O3 0.927361 0.566394 0.419762
O O4 0.039813 0.682177 0.434259
O O5 0.873161 0.770059 0.152267
O O6 0.864399 0.671959 0.090483
O O7 0.874373 0.785232 0.051159
O O8 0.880077 0.884696 0.824600
O O9 0.822466 0.911233 0.750000
O O10 0.574093 0.135701 0.919499
O O11 0.671831 0.267196 0.918888
O O12 0.704525 0.165325 0.918656
O O13 0.652522 0.189678 0.000000
O O14 0.500000 0.500000 0.419160
O O15 0.499786 0.568857 0.500000
O O16 0.666667 0.333334 0.000000
O O17 0.244480 0.863771 0.000000
O O18 0.125831 0.112289 0.000000
#
# Coordination Sequence:
#
# PCOD9588306 Si02
#       8
#    24  24  24  24  24   8  24  12
#     4  10  18  28  43  62  91 126 162 194 233 285
#     4  12  22  32  48  71 100 128 160 200 251 302
#     4  10  21  38  58  75  93 122 165 216 260 302
#     4   9  17  27  39  55  83 122 167 204 233 270
#     4   9  15  26  40  59  82 123 170 205 227 268
#     4   9  18  27  36  51  81 117 163 206 241 270
#     4  10  18  29  42  61  89 125 157 187 231 283
#     4  12  23  36  48  66  95 133 167 201 239 301
#
# _framework density 14.931464999999999
#
# number of rings (size 3 to 8) (size 9 to 14) (size 15 to 20)
#    0.000    1.902    2.927    2.854    2.049    0.585 
#    0.000    1.463    0.000    0.000    0.000    0.000 
#    0.000    1.171    0.878    0.000    0.000    0.000 
#
# Total GULP energy -914651.772957 kJ/mol
# GULP energy per Si atom -5577.144957 kJ/mol
# Density = 1.489748 g / cm^3
# Si number density = 14.931465 Si / 1000 Ang^3
#
#
#
# Elastic Constant Matrix: (Units=GPa)
#
#
# Indices 1 2 3 4 5 6 
#
# 1 118.7147 58.3525 30.7485 0.0000 0.0000 -0.0001
# 2 58.3525 118.7163 30.7486 0.0000 0.0000 0.0001
# 3 30.7485 30.7486 22.9673 0.0000 0.0000 0.0000
# 4 0.0000 0.0000 0.0000 12.4524 0.0000 0.0000
# 5 0.0000 0.0000 0.0000 0.0000 12.4525 0.0000
# 6 -0.0001 0.0001 0.0000 0.0000 0.0000 30.1818
#
#
#
# Elastic Compliance Matrix: (Units=1/GPa)
#
#
# Indices 1 2 3 4 5 6 
#
# 1 0.013561 -0.003005 -0.014132 0.000000 0.000000 0.000000
# 2 -0.003005 0.013561 -0.014132 0.000000 0.000000 0.000000
# 3 -0.014132 -0.014132 0.081379 0.000000 0.000000 0.000000
# 4 0.000000 0.000000 0.000000 0.080306 0.000000 0.000000
# 5 0.000000 0.000000 0.000000 0.000000 0.080305 0.000000
# 6 0.000000 0.000000 0.000000 0.000000 0.000000 0.033133
#
#
# Mechanical properties :
#
#
# Convention : Reuss Voigt Hill
#
# Bulk Modulus (GPa) = 21.75650 55.56641 38.66146
# Shear Modulus (GPa) = 13.15427 20.38725 16.77076
#
# Velocity S-wave (km/s) = 2.97135 3.69913 3.35503
# Velocity P-wave (km/s) = 5.13560 7.45250 6.39977
#
# Compressibility (1/GPa) = 0.04596328
#
# Stress axis : x y z
#
# Youngs Moduli (GPa) = 73.73994 73.74135 12.28812
#
# Poissons Ratio (x) = 0.22162 0.17366
# Poissons Ratio (y) = 0.22162 0.17365
# Poissons Ratio (z) = 1.04209 1.04209
#
# Static dielectric constant tensor:
#      x y z
#    x 1.508510 0.000000 0.000000 
#    y 0.000000 1.508510 0.000000 
#    z 0.000000 0.000000 1.462400 
# 
# From -- ./inp_files/6668.got.cif
#   From: 2010.05.17/outbox.cif.g08.bks.cpg/sg192_4_cif.got.tgz:6668.got - 2010.05.20 12:28:01.
