data_PCOD9588084
_publ_section_title
;
Structure prediction by ZEFSAII (Michael W. Deem and Ramdas Pophale) SiO2 
 PCOD9588084
Probable space group: P 6/M M M
;
_chemical_formula_sum "Si O2"
_cell_formula_units_Z 102
_cell_length_a 27.966516
_cell_length_b 27.966516
_cell_length_c 7.376966
_cell_angle_alpha 90.000000
_cell_angle_beta 90.000000
_cell_angle_gamma 120.000000
_cell_volume 4996.721526
_symmetry_space_group_name_H-M "P 6/M M M"
_symmetry_group_IT_number 191
_symmetry_cell_setting 'hexagonal'
loop_
_space_group_symop_operation_xyz
x,y,z
x-y,x,z
-y,x-y,z
-x,-y,z
-x+y,-x,z
y,-x+y,z
x-y,-y,-z
-x,-x+y,-z
y,x,-z
-y,-x,-z
-x+y,y,-z
x,x-y,-z
-x,-y,-z
-x+y,-x,-z
y,-x+y,-z
x,y,-z
x-y,x,-z
-y,x-y,-z
-x+y,y,z
x,x-y,z
-y,-x,z
y,x,z
x-y,-y,z
-x,-x+y,z
loop_
_atom_site_type_symbol
_atom_site_label
_atom_site_fract_x
_atom_site_fract_y
_atom_site_fract_z
Si Si1 0.158057 0.426280 0.277857
Si Si2 0.755915 0.693133 0.279781
Si Si3 0.884890 0.115111 0.281629
Si Si4 0.000000 0.442962 0.787164
Si Si5 0.933895 0.066106 0.000000
Si Si6 0.492826 0.877715 0.291050
O O1 0.156843 0.426664 0.500000
O O2 0.213300 0.426599 0.224459
O O3 0.105247 0.368851 0.219257
O O4 0.155873 0.479815 0.212078
O O5 0.754114 0.691839 0.500000
O O6 0.717821 0.717821 0.217579
O O7 0.820026 0.733893 0.233003
O O8 0.888995 0.111006 0.500000
O O9 0.913366 0.086635 0.173041
O O10 0.941321 0.398324 0.711099
O O11 0.000000 0.500000 0.755754
O O12 0.000000 0.433463 0.000000
O O13 0.000000 0.095173 0.000000
O O14 0.479870 0.861318 0.500000
O O15 0.437691 0.875381 0.211670
#
# Coordination Sequence:
#
# PCOD9588084 Si02
#       6
#    24  24  12  12   6  24
#     4   9  16  27  45  71 100 131 170 213 256 304
#     4   9  16  27  48  76 101 128 168 215 261 318
#     4  10  20  39  63  85 110 144 188 232 282 340
#     4   9  17  29  45  65  93 127 161 195 239 299
#     4  12  27  44  64  88 116 148 186 234 290 346
#     4   9  17  28  45  69  96 127 166 207 245 290
#
# _framework density 20.413385000000002
#
# number of rings (size 3 to 8) (size 9 to 14) (size 15 to 20)
#    0.000    2.706    1.176    1.118    1.647    2.824 
#    0.000    0.000    2.588    1.882    0.000    3.294 
#    0.000    0.000    0.000    0.000    0.000    0.000 
#
# Total GULP energy -569124.160680 kJ/mol
# GULP energy per Si atom -5579.648634 kJ/mol
# Density = 2.036692 g / cm^3
# Si number density = 20.413385 Si / 1000 Ang^3
#
#
#
# Elastic Constant Matrix: (Units=GPa)
#
#
# Indices 1 2 3 4 5 6 
#
# 1 165.4917 101.9439 18.4642 0.0000 0.0000 0.0000
# 2 101.9439 165.4917 18.4642 0.0000 0.0000 0.0000
# 3 18.4642 18.4642 87.3934 0.0000 0.0000 0.0000
# 4 0.0000 0.0000 0.0000 -44.8076 0.0000 0.0000
# 5 0.0000 0.0000 0.0000 0.0000 -44.8076 0.0000
# 6 0.0000 0.0000 0.0000 0.0000 0.0000 31.7739
#
#
#
# Elastic Compliance Matrix: (Units=1/GPa)
#
#
# Indices 1 2 3 4 5 6 
#
# 1 0.009794 -0.005942 -0.000814 0.000000 0.000000 0.000000
# 2 -0.005942 0.009794 -0.000814 0.000000 0.000000 0.000000
# 3 -0.000814 -0.000814 0.011786 0.000000 0.000000 0.000000
# 4 0.000000 0.000000 0.000000 -0.022318 0.000000 0.000000
# 5 0.000000 0.000000 0.000000 0.000000 -0.022318 0.000000
# 6 0.000000 0.000000 0.000000 0.000000 0.000000 0.031472
#
#
# Mechanical properties :
#
#
# Convention : Reuss Voigt Hill
#
# Bulk Modulus (GPa) = 61.59712 77.34684 69.47198
# Shear Modulus (GPa) = 128.99156 7.06540 68.02848
#
# Velocity S-wave (km/s) = 7.95782 1.86244 5.77908
# Velocity P-wave (km/s) = 10.70870 6.52667 8.86774
#
# Compressibility (1/GPa) = 0.01623452
#
# Stress axis : x y z
#
# Youngs Moduli (GPa) = 102.10463 102.10463 84.84379
#
# Poissons Ratio (x) = 0.60674 0.06904
# Poissons Ratio (y) = 0.60674 0.06904
# Poissons Ratio (z) = 0.08309 0.08309
#
# Static dielectric constant tensor:
#      x y z
#    x 1.717570 0.000000 0.000000 
#    y 0.000000 1.717570 0.000000 
#    z 0.000000 0.000000 1.752770 
# 
# From -- ./inp_files/1464.got.cif
#   From: 2010.05.17/outbox.cif.g08.bks.cpg/sg191_1_cif.got.tgz:1464.got - 2010.05.20 12:20:32.
