data_PCOD9588394
_publ_section_title
;
Structure prediction by ZEFSAII (Michael W. Deem and Ramdas Pophale) SiO2 
 PCOD9588394
Probable space group: P 6/M C C
;
_chemical_formula_sum "Si O2"
_cell_formula_units_Z 120
_cell_length_a 24.012422
_cell_length_b 24.012422
_cell_length_c 14.367017
_cell_angle_alpha 90.000000
_cell_angle_beta 90.000000
_cell_angle_gamma 120.000000
_cell_volume 7174.128836
_symmetry_space_group_name_H-M "P 6/M C C"
_symmetry_group_IT_number 192
_symmetry_cell_setting 'hexagonal'
loop_
_space_group_symop_operation_xyz
x,y,z
x-y,x,z
-y,x-y,z
-x,-y,z
-x+y,-x,z
y,-x+y,z
x-y,-y,1/2-z
-x,-x+y,1/2-z
y,x,1/2-z
-y,-x,1/2-z
-x+y,y,1/2-z
x,x-y,1/2-z
-x,-y,-z
-x+y,-x,-z
y,-x+y,-z
x,y,-z
x-y,x,-z
-y,x-y,-z
-x+y,y,1/2+z
x,x-y,1/2+z
-y,-x,1/2+z
y,x,1/2+z
x-y,-y,1/2+z
-x,-x+y,1/2+z
loop_
_atom_site_type_symbol
_atom_site_label
_atom_site_fract_x
_atom_site_fract_y
_atom_site_fract_z
Si Si1 0.574508 0.685098 0.000000
Si Si2 0.527375 0.934158 0.204489
Si Si3 0.777191 0.046671 0.000000
Si Si4 0.428652 0.035556 0.000000
Si Si5 0.276981 0.838219 0.201149
Si Si6 0.699221 0.832507 0.156273
Si Si7 0.333805 0.238302 0.500000
O O1 0.651682 0.735316 0.000000
O O2 0.544825 0.697650 0.906206
O O3 0.575744 0.618103 0.000000
O O4 0.462187 0.924373 0.250000
O O5 0.530539 0.944362 0.094285
O O6 0.539398 0.877293 0.233617
O O7 0.583487 0.000000 0.250000
O O8 0.819122 0.074601 0.908788
O O9 0.731890 0.971771 0.000000
O O10 0.387501 0.073368 0.000000
O O11 0.230503 0.769497 0.250000
O O12 0.233228 0.871787 0.194795
O O13 0.733973 0.866987 0.250000
O O14 0.667939 0.865224 0.090618
#
# Coordination Sequence:
#
# PCOD9588394 Si02
#       7
#    12  24  12  12  24  24  12
#     4   9  17  30  51  73 103 136 167 215 271 304
#     4  11  24  37  54  81 108 142 181 223 285 344
#     4   8  17  27  41  68  98 131 171 216 247 295
#     4  11  19  35  56  74 110 144 173 220 278 334
#     4  10  19  34  52  75 103 134 178 220 259 323
#     4   9  17  30  45  69 101 133 173 215 255 304
#     4  10  19  31  49  76 100 137 183 213 258 318
#
# _framework density 16.726770999999999
#
# number of rings (size 3 to 8) (size 9 to 14) (size 15 to 20)
#    0.000    2.200    2.000    3.000    0.000    4.000 
#    0.000    0.000    0.000    0.400    0.000    0.000 
#    0.000    3.200    0.000   19.200    0.000   41.600 
#
# Total GULP energy -668104.294016 kJ/mol
# GULP energy per Si atom -5567.535783 kJ/mol
# Density = 1.668870 g / cm^3
# Si number density = 16.726771 Si / 1000 Ang^3
#
#
#
# Elastic Constant Matrix: (Units=GPa)
#
#
# Indices 1 2 3 4 5 6 
#
# 1 68.5919 37.0087 40.9510 0.0000 0.0000 0.0000
# 2 37.0087 68.5919 40.9510 0.0000 0.0000 0.0000
# 3 40.9510 40.9510 172.6838 0.0000 0.0000 0.0000
# 4 0.0000 0.0000 0.0000 10.0602 0.0000 0.0000
# 5 0.0000 0.0000 0.0000 0.0000 10.0602 0.0000
# 6 0.0000 0.0000 0.0000 0.0000 0.0000 15.7916
#
#
#
# Elastic Compliance Matrix: (Units=1/GPa)
#
#
# Indices 1 2 3 4 5 6 
#
# 1 0.021633 -0.010029 -0.002752 0.000000 0.000000 0.000000
# 2 -0.010029 0.021633 -0.002752 0.000000 0.000000 0.000000
# 3 -0.002752 -0.002752 0.007096 0.000000 0.000000 0.000000
# 4 0.000000 0.000000 0.000000 0.099402 0.000000 0.000000
# 5 0.000000 0.000000 0.000000 0.000000 0.099402 0.000000
# 6 0.000000 0.000000 0.000000 0.000000 0.000000 0.063325
#
#
# Mechanical properties :
#
#
# Convention : Reuss Voigt Hill
#
# Bulk Modulus (GPa) = 51.82243 60.85432 56.33838
# Shear Modulus (GPa) = 14.28617 19.91286 17.09951
#
# Velocity S-wave (km/s) = 2.92565 3.45407 3.20079
# Velocity P-wave (km/s) = 6.51625 7.23657 6.88584
#
# Compressibility (1/GPa) = 0.01929666
#
# Stress axis : x y z
#
# Youngs Moduli (GPa) = 46.22540 46.22540 140.92300
#
# Poissons Ratio (x) = 0.46361 0.38779
# Poissons Ratio (y) = 0.46361 0.38779
# Poissons Ratio (z) = 0.12720 0.12720
#
# Static dielectric constant tensor:
#      x y z
#    x 1.566790 0.000000 0.000000 
#    y 0.000000 1.566790 0.000000 
#    z 0.000000 0.000000 1.660700 
# 
# From -- ./inp_files/3189.got.cif
#   From: 2010.05.17/outbox.cif.g08.bks.cpg/sg192_2_cif.got.tgz:3189.got - 2010.05.20 12:28:01.
