data_PCOD9588527
_publ_section_title
;
Structure prediction by ZEFSAII (Michael W. Deem and Ramdas Pophale) SiO2 
 PCOD9588527
Probable space group: P 6/M C C
;
_chemical_formula_sum "Si O2"
_cell_formula_units_Z 78
_cell_length_a 24.246952
_cell_length_b 24.246952
_cell_length_c 8.774461
_cell_angle_alpha 90.000000
_cell_angle_beta 90.000000
_cell_angle_gamma 120.000000
_cell_volume 4467.508476
_symmetry_space_group_name_H-M "P 6/M C C"
_symmetry_group_IT_number 192
_symmetry_cell_setting 'hexagonal'
loop_
_space_group_symop_operation_xyz
x,y,z
x-y,x,z
-y,x-y,z
-x,-y,z
-x+y,-x,z
y,-x+y,z
x-y,-y,1/2-z
-x,-x+y,1/2-z
y,x,1/2-z
-y,-x,1/2-z
-x+y,y,1/2-z
x,x-y,1/2-z
-x,-y,-z
-x+y,-x,-z
y,-x+y,-z
x,y,-z
x-y,x,-z
-y,x-y,-z
-x+y,y,1/2+z
x,x-y,1/2+z
-y,-x,1/2+z
y,x,1/2+z
x-y,-y,1/2+z
-x,-x+y,1/2+z
loop_
_atom_site_type_symbol
_atom_site_label
_atom_site_fract_x
_atom_site_fract_y
_atom_site_fract_z
Si Si1 0.500000 0.500000 0.250000
Si Si2 0.616747 0.492567 0.829654
Si Si3 0.191720 0.260317 0.816730
Si Si4 0.259011 0.396687 0.318200
O O1 0.436714 0.486045 0.161805
O O2 0.576605 0.423396 0.750000
O O3 0.673879 0.543848 0.728768
O O4 0.638165 0.489236 0.000000
O O5 0.210101 0.210101 0.750000
O O6 0.125190 0.250380 0.750000
O O7 0.244968 0.330496 0.758424
O O8 0.189781 0.258935 0.000000
O O9 0.204126 0.408251 0.250000
O O10 0.252763 0.388820 0.500000
#
# Coordination Sequence:
#
# PCOD9588527 Si02
#       4
#     6  24  24  24
#     4   8  22  32  54  76 114 140 182 216 276 316
#     4  10  20  34  52  77 109 143 182 224 270 323
#     4  11  22  38  58  83 113 147 185 226 273 326
#     4  11  22  37  56  80 111 147 186 229 276 327
#
# _framework density 17.459396999999999
#
# number of rings (size 3 to 8) (size 9 to 14) (size 15 to 20)
#    0.923    0.615    0.000    8.769    2.154    0.000 
#    0.000    0.000    0.000    0.923    0.000    6.462 
#    0.000    0.000    0.000    0.000    0.000    0.000 
#
# Total GULP energy -434657.136779 kJ/mol
# GULP energy per Si atom -5572.527395 kJ/mol
# Density = 1.741966 g / cm^3
# Si number density = 17.459397 Si / 1000 Ang^3
#
#
#
# Elastic Constant Matrix: (Units=GPa)
#
#
# Indices 1 2 3 4 5 6 
#
# 1 81.6157 43.7157 43.4324 0.0000 0.0000 0.0000
# 2 43.7157 81.6157 43.4324 0.0000 0.0000 0.0000
# 3 43.4324 43.4324 192.9827 0.0000 0.0000 0.0000
# 4 0.0000 0.0000 0.0000 25.7024 0.0000 0.0000
# 5 0.0000 0.0000 0.0000 0.0000 25.7024 0.0000
# 6 0.0000 0.0000 0.0000 0.0000 0.0000 18.9500
#
#
#
# Elastic Compliance Matrix: (Units=1/GPa)
#
#
# Indices 1 2 3 4 5 6 
#
# 1 0.017919 -0.008466 -0.002128 0.000000 0.000000 0.000000
# 2 -0.008466 0.017919 -0.002128 0.000000 0.000000 0.000000
# 3 -0.002128 -0.002128 0.006139 0.000000 0.000000 0.000000
# 4 0.000000 0.000000 0.000000 0.038907 0.000000 0.000000
# 5 0.000000 0.000000 0.000000 0.000000 0.038907 0.000000
# 6 0.000000 0.000000 0.000000 0.000000 0.000000 0.052770
#
#
# Mechanical properties :
#
#
# Convention : Reuss Voigt Hill
#
# Bulk Modulus (GPa) = 60.47402 68.59722 64.53562
# Shear Modulus (GPa) = 24.56805 29.11320 26.84062
#
# Velocity S-wave (km/s) = 3.75527 4.08791 3.92512
# Velocity P-wave (km/s) = 7.31539 7.85215 7.58851
#
# Compressibility (1/GPa) = 0.01653603
#
# Stress axis : x y z
#
# Youngs Moduli (GPa) = 55.80572 55.80572 162.88055
#
# Poissons Ratio (x) = 0.47244 0.34654
# Poissons Ratio (y) = 0.47244 0.34654
# Poissons Ratio (z) = 0.11873 0.11873
#
# Static dielectric constant tensor:
#      x y z
#    x 1.593040 0.000000 0.000000 
#    y 0.000000 1.593040 0.000000 
#    z 0.000000 0.000000 1.616440 
# 
# From -- ./inp_files/734.got.cif
#   From: 2010.05.17/outbox.cif.g08.bks.cpg/sg192_1_cif.got.tgz:734.got - 2010.05.20 12:28:01.
