data_PCOD9588753
_publ_section_title
;
Structure prediction by ZEFSAII (Michael W. Deem and Ramdas Pophale) SiO2 
 PCOD9588753
Probable space group: P 6/M C C
;
_chemical_formula_sum "Si O2"
_cell_formula_units_Z 84
_cell_length_a 18.167408
_cell_length_b 18.167408
_cell_length_c 14.871000
_cell_angle_alpha 90.000000
_cell_angle_beta 90.000000
_cell_angle_gamma 120.000000
_cell_volume 4250.663683
_symmetry_space_group_name_H-M "P 6/M C C"
_symmetry_group_IT_number 192
_symmetry_cell_setting 'hexagonal'
loop_
_space_group_symop_operation_xyz
x,y,z
x-y,x,z
-y,x-y,z
-x,-y,z
-x+y,-x,z
y,-x+y,z
x-y,-y,1/2-z
-x,-x+y,1/2-z
y,x,1/2-z
-y,-x,1/2-z
-x+y,y,1/2-z
x,x-y,1/2-z
-x,-y,-z
-x+y,-x,-z
y,-x+y,-z
x,y,-z
x-y,x,-z
-y,x-y,-z
-x+y,y,1/2+z
x,x-y,1/2+z
-y,-x,1/2+z
y,x,1/2+z
x-y,-y,1/2+z
-x,-x+y,1/2+z
loop_
_atom_site_type_symbol
_atom_site_label
_atom_site_fract_x
_atom_site_fract_y
_atom_site_fract_z
Si Si1 0.365273 0.236082 0.000000
Si Si2 0.633958 0.185670 0.000000
Si Si3 0.430700 0.328860 0.500000
Si Si4 0.522645 0.330021 0.193923
Si Si5 0.648515 0.677286 0.154642
O O1 0.320975 0.239884 0.908909
O O2 0.450159 0.330532 0.000000
O O3 0.399511 0.170922 0.000000
O O4 0.532597 0.143180 0.000000
O O5 0.672521 0.230730 0.094868
O O6 0.390899 0.344566 0.409314
O O7 0.599175 0.400826 0.250000
O O8 0.487683 0.243842 0.250000
O O9 0.448653 0.352733 0.182356
O O10 0.694548 0.694548 0.250000
#
# Coordination Sequence:
#
# PCOD9588753 Si02
#       5
#    12  12  12  24  24
#     4   9  23  40  56  91 114 157 206 245 316 360
#     4  10  24  37  63  80 113 159 189 266 315 346
#     4  11  23  44  61  87 122 157 214 256 305 386
#     4  11  25  40  57  90 116 157 216 260 321 370
#     4  10  23  38  64  86 115 159 204 257 307 359
#
# _framework density 19.761617999999999
#
# number of rings (size 3 to 8) (size 9 to 14) (size 15 to 20)
#    0.000    1.714    0.000    2.857   16.000   14.286 
#    0.857    0.000    0.000    0.000    0.000    0.000 
#    0.000    0.000    0.000   27.429  100.571    0.571 
#
# Total GULP energy -468397.981321 kJ/mol
# GULP energy per Si atom -5576.166444 kJ/mol
# Density = 1.971664 g / cm^3
# Si number density = 19.761618 Si / 1000 Ang^3
#
#
#
# Elastic Constant Matrix: (Units=GPa)
#
#
# Indices 1 2 3 4 5 6 
#
# 1 66.2170 37.9869 48.1837 0.0000 0.0000 0.0000
# 2 37.9869 66.2170 48.1837 0.0000 0.0000 0.0000
# 3 48.1837 48.1837 208.2340 0.0000 0.0000 0.0000
# 4 0.0000 0.0000 0.0000 22.8303 0.0000 0.0000
# 5 0.0000 0.0000 0.0000 0.0000 22.8303 0.0000
# 6 0.0000 0.0000 0.0000 0.0000 0.0000 14.1150
#
#
#
# Elastic Compliance Matrix: (Units=1/GPa)
#
#
# Indices 1 2 3 4 5 6 
#
# 1 0.023816 -0.011607 -0.002825 0.000000 0.000000 0.000000
# 2 -0.011607 0.023816 -0.002825 0.000000 0.000000 0.000000
# 3 -0.002825 -0.002825 0.006110 0.000000 0.000000 0.000000
# 4 0.000000 0.000000 0.000000 0.043801 0.000000 0.000000
# 5 0.000000 0.000000 0.000000 0.000000 0.043801 0.000000
# 6 0.000000 0.000000 0.000000 0.000000 0.000000 0.070846
#
#
# Mechanical properties :
#
#
# Convention : Reuss Voigt Hill
#
# Bulk Modulus (GPa) = 52.00833 67.70851 59.85842
# Shear Modulus (GPa) = 19.75386 25.70939 22.73162
#
# Velocity S-wave (km/s) = 3.16509 3.61082 3.39527
# Velocity P-wave (km/s) = 6.30333 7.19173 6.76214
#
# Compressibility (1/GPa) = 0.01922769
#
# Stress axis : x y z
#
# Youngs Moduli (GPa) = 41.98817 41.98817 163.67395
#
# Poissons Ratio (x) = 0.48736 0.46240
# Poissons Ratio (y) = 0.48736 0.46240
# Poissons Ratio (z) = 0.11862 0.11862
#
# Static dielectric constant tensor:
#      x y z
#    x 1.718830 0.000000 0.000000 
#    y 0.000000 1.718830 0.000000 
#    z 0.000000 0.000000 1.865520 
# 
# From -- ./inp_files/2619.got.cif
#   From: 2010.05.17/outbox.cif.g08.bks.cpg/sg192_2_cif.got.tgz:2619.got - 2010.05.20 12:28:01.
