data_PCOD9588802
_publ_section_title
;
Structure prediction by ZEFSAII (Michael W. Deem and Ramdas Pophale) SiO2 
 PCOD9588802
Probable space group: P 6/M C C
;
_chemical_formula_sum "Si O2"
_cell_formula_units_Z 108
_cell_length_a 17.641406
_cell_length_b 17.641406
_cell_length_c 20.541026
_cell_angle_alpha 90.000000
_cell_angle_beta 90.000000
_cell_angle_gamma 120.000000
_cell_volume 5536.294115
_symmetry_space_group_name_H-M "P 6/M C C"
_symmetry_group_IT_number 192
_symmetry_cell_setting 'hexagonal'
loop_
_space_group_symop_operation_xyz
x,y,z
x-y,x,z
-y,x-y,z
-x,-y,z
-x+y,-x,z
y,-x+y,z
x-y,-y,1/2-z
-x,-x+y,1/2-z
y,x,1/2-z
-y,-x,1/2-z
-x+y,y,1/2-z
x,x-y,1/2-z
-x,-y,-z
-x+y,-x,-z
y,-x+y,-z
x,y,-z
x-y,x,-z
-y,x-y,-z
-x+y,y,1/2+z
x,x-y,1/2+z
-y,-x,1/2+z
y,x,1/2+z
x-y,-y,1/2+z
-x,-x+y,1/2+z
loop_
_atom_site_type_symbol
_atom_site_label
_atom_site_fract_x
_atom_site_fract_y
_atom_site_fract_z
Si Si1 0.699445 0.954811 0.373145
Si Si2 0.350079 0.494438 0.574520
Si Si3 0.000840 0.816088 0.500000
Si Si4 0.171898 0.489702 0.575413
Si Si5 0.346192 0.128387 0.184423
O O1 0.594940 0.913028 0.385735
O O2 0.756785 0.994634 0.437837
O O3 0.709832 0.873561 0.352449
O O4 0.734558 0.024621 0.315727
O O5 0.355865 0.470575 0.500000
O O6 0.275565 0.522622 0.576149
O O7 0.439756 0.581995 0.590189
O O8 0.912460 0.822946 0.500000
O O9 0.144112 0.457908 0.500000
O O10 0.140651 0.421305 0.633897
O O11 0.375020 0.187510 0.250000
#
# Coordination Sequence:
#
# PCOD9588802 Si02
#       5
#    24  24  12  24  24
#     4  11  22  37  63  87 122 161 205 260 324 383
#     4   9  17  32  57  93 128 164 207 258 322 381
#     4  12  23  40  66  97 127 161 205 271 329 391
#     4   9  19  34  59  90 125 161 205 260 315 379
#     4  11  24  41  59  83 119 166 213 256 318 386
#
# _framework density 19.507632999999998
#
# number of rings (size 3 to 8) (size 9 to 14) (size 15 to 20)
#    0.000    1.778    3.333    1.222    3.111    2.667 
#    0.000    6.667    0.000    5.333    0.000    3.111 
#    0.000    0.000    0.000    0.000    0.000    0.000 
#
# Total GULP energy -601238.449334 kJ/mol
# GULP energy per Si atom -5567.022679 kJ/mol
# Density = 1.946323 g / cm^3
# Si number density = 19.507633 Si / 1000 Ang^3
#
#
#
# Elastic Constant Matrix: (Units=GPa)
#
#
# Indices 1 2 3 4 5 6 
#
# 1 92.0320 76.1952 59.3953 0.0000 0.0000 0.0000
# 2 76.1952 92.0320 59.3953 0.0000 0.0000 0.0000
# 3 59.3953 59.3953 124.1583 0.0000 0.0000 0.0000
# 4 0.0000 0.0000 0.0000 -0.6422 0.0000 0.0000
# 5 0.0000 0.0000 0.0000 0.0000 -0.6422 0.0000
# 6 0.0000 0.0000 0.0000 0.0000 0.0000 7.9184
#
#
#
# Elastic Compliance Matrix: (Units=1/GPa)
#
#
# Indices 1 2 3 4 5 6 
#
# 1 0.036060 -0.027084 -0.004294 0.000000 0.000000 0.000000
# 2 -0.027084 0.036060 -0.004294 0.000000 0.000000 0.000000
# 3 -0.004294 -0.004294 0.012163 0.000000 0.000000 0.000000
# 4 0.000000 0.000000 0.000000 -1.557189 0.000000 0.000000
# 5 0.000000 0.000000 0.000000 0.000000 -1.557189 0.000000
# 6 0.000000 0.000000 0.000000 0.000000 0.000000 0.126288
#
#
# Mechanical properties :
#
#
# Convention : Reuss Voigt Hill
#
# Bulk Modulus (GPa) = 77.28539 77.57707 77.43123
# Shear Modulus (GPa) = -1.76794 8.87592 3.55399
#
# Velocity S-wave (km/s) = -0.95302 2.13538 1.35122
# Velocity P-wave (km/s) = 6.20428 6.77744 6.49718
#
# Compressibility (1/GPa) = 0.01293906
#
# Stress axis : x y z
#
# Youngs Moduli (GPa) = 27.73132 27.73132 82.21743
#
# Poissons Ratio (x) = 0.75106 0.35307
# Poissons Ratio (y) = 0.75106 0.35307
# Poissons Ratio (z) = 0.11909 0.11909
#
# Static dielectric constant tensor:
#      x y z
#    x 1.903400 0.000000 0.000000 
#    y 0.000000 1.903400 0.000000 
#    z 0.000000 0.000000 1.721670 
# 
# From -- ./inp_files/4835.got.cif
#   From: 2010.05.17/outbox.cif.g08.bks.cpg/sg192_3_cif.got.tgz:4835.got - 2010.05.20 12:28:01.
