data_PCOD9588875
_publ_section_title
;
Structure prediction by ZEFSAII (Michael W. Deem and Ramdas Pophale) SiO2 
 PCOD9588875
Probable space group: P 63/M C M
;
_chemical_formula_sum "Si O2"
_cell_formula_units_Z 120
_cell_length_a 20.655642
_cell_length_b 20.655642
_cell_length_c 14.361094
_cell_angle_alpha 90.000000
_cell_angle_beta 90.000000
_cell_angle_gamma 120.000000
_cell_volume 5306.345848
_symmetry_space_group_name_H-M "P 63/M C M"
_symmetry_group_IT_number 193
_symmetry_cell_setting 'hexagonal'
loop_
_space_group_symop_operation_xyz
x,y,z
x-y,x,1/2+z
-y,x-y,z
-x,-y,1/2+z
-x+y,-x,z
y,-x+y,1/2+z
x-y,-y,1/2-z
-x,-x+y,1/2-z
y,x,1/2-z
-y,-x,-z
-x+y,y,-z
x,x-y,-z
-x,-y,-z
-x+y,-x,1/2-z
y,-x+y,-z
x,y,1/2-z
x-y,x,-z
-y,x-y,1/2-z
-x+y,y,1/2+z
x,x-y,1/2+z
-y,-x,1/2+z
y,x,z
x-y,-y,z
-x,-x+y,z
loop_
_atom_site_type_symbol
_atom_site_label
_atom_site_fract_x
_atom_site_fract_y
_atom_site_fract_z
Si Si1 0.000000 0.541250 0.592291
Si Si2 0.083002 0.916296 0.363720
Si Si3 0.841472 0.168926 0.361595
Si Si4 0.000000 0.681725 0.860578
Si Si5 0.734554 0.226795 0.364489
Si Si6 0.169076 0.567465 0.357685
O O1 0.000000 0.500000 0.500000
O O2 0.079831 0.565730 0.638891
O O3 0.000000 0.617820 0.578238
O O4 0.085919 0.916879 0.250000
O O5 0.102068 0.853397 0.396045
O O6 0.000000 0.894494 0.390490
O O7 0.141991 0.000000 0.393560
O O8 0.830789 0.159890 0.250000
O O9 0.922742 0.242190 0.375469
O O10 0.774872 0.180923 0.396626
O O11 0.000000 0.662355 0.750000
O O12 0.734795 0.224733 0.250000
O O13 0.649342 0.193587 0.396904
O O14 0.786162 0.313372 0.393699
O O15 0.191680 0.581502 0.250000
#
# Coordination Sequence:
#
# PCOD9588875 Si02
#       6
#    12  24  24  12  24  24
#     4  12  24  36  52  78 108 143 182 222 264 321
#     4   9  15  22  33  55  92 133 166 198 246 304
#     4   9  15  25  44  70  93 125 174 216 249 299
#     4  10  16  30  56  74  94 131 182 231 260 299
#     4   9  17  29  51  78  99 124 167 218 266 313
#     4  10  19  35  57  81 107 136 173 221 274 324
#
# _framework density 22.614433999999999
#
# number of rings (size 3 to 8) (size 9 to 14) (size 15 to 20)
#    0.000    2.400    3.000    1.500    0.000    2.400 
#    1.800    1.000    0.000    0.000    0.000    0.000 
#    0.000    0.000    0.000    0.000    0.000    2.000 
#
# Total GULP energy -669926.384408 kJ/mol
# GULP energy per Si atom -5582.719870 kJ/mol
# Density = 2.256296 g / cm^3
# Si number density = 22.614434 Si / 1000 Ang^3
#
#
#
# Elastic Constant Matrix: (Units=GPa)
#
#
# Indices 1 2 3 4 5 6 
#
# 1 126.9890 58.3997 -28.6972 0.0000 0.0000 0.0000
# 2 58.3997 126.9890 -28.6972 0.0000 0.0000 0.0000
# 3 -28.6972 -28.6972 43.1906 0.0000 0.0000 0.0000
# 4 0.0000 0.0000 0.0000 -90.6931 0.0000 0.0000
# 5 0.0000 0.0000 0.0000 0.0000 -90.6931 0.0000
# 6 0.0000 0.0000 0.0000 0.0000 0.0000 34.2946
#
#
#
# Elastic Compliance Matrix: (Units=1/GPa)
#
#
# Indices 1 2 3 4 5 6 
#
# 1 0.010685 -0.003894 0.004512 0.000000 0.000000 0.000000
# 2 -0.003894 0.010685 0.004512 0.000000 0.000000 0.000000
# 3 0.004512 0.004512 0.029149 0.000000 0.000000 0.000000
# 4 0.000000 0.000000 0.000000 -0.011026 0.000000 0.000000
# 5 0.000000 0.000000 0.000000 0.000000 -0.011026 0.000000
# 6 0.000000 0.000000 0.000000 0.000000 0.000000 0.029159
#
#
# Mechanical properties :
#
#
# Convention : Reuss Voigt Hill
#
# Bulk Modulus (GPa) = 16.45285 33.24212 24.84749
# Shear Modulus (GPa) = 73.93576 -9.67409 32.13084
#
# Velocity S-wave (km/s) = 5.72407 -2.07054 3.77345
# Velocity P-wave (km/s) = 7.13988 3.00254 5.47691
#
# Compressibility (1/GPa) = 0.06077973
#
# Stress axis : x y z
#
# Youngs Moduli (GPa) = 93.58685 93.58685 34.30627
#
# Poissons Ratio (x) = 0.36445 -0.15479
# Poissons Ratio (y) = 0.36445 -0.15479
# Poissons Ratio (z) = -0.42228 -0.42228
#
# Static dielectric constant tensor:
#      x y z
#    x 1.818620 0.000000 0.000000 
#    y 0.000000 1.818620 0.000000 
#    z 0.000000 0.000000 1.860880 
# 
# From -- ./inp_files/5381.got.cif
#   From: 2010.05.17/outbox.cif.g08.bks.cpg/sg193_3_cif.got.tgz:5381.got - 2010.05.20 12:33:02.
