data_PCOD9588629
_publ_section_title
;
Structure prediction by ZEFSAII (Michael W. Deem and Ramdas Pophale) SiO2 
 PCOD9588629
Probable space group: P 6/M C C
;
_chemical_formula_sum "Si O2"
_cell_formula_units_Z 144
_cell_length_a 21.765631
_cell_length_b 21.765631
_cell_length_c 15.184585
_cell_angle_alpha 90.000000
_cell_angle_beta 90.000000
_cell_angle_gamma 120.000000
_cell_volume 6229.828383
_symmetry_space_group_name_H-M "P 6/M C C"
_symmetry_group_IT_number 192
_symmetry_cell_setting 'hexagonal'
loop_
_space_group_symop_operation_xyz
x,y,z
x-y,x,z
-y,x-y,z
-x,-y,z
-x+y,-x,z
y,-x+y,z
x-y,-y,1/2-z
-x,-x+y,1/2-z
y,x,1/2-z
-y,-x,1/2-z
-x+y,y,1/2-z
x,x-y,1/2-z
-x,-y,-z
-x+y,-x,-z
y,-x+y,-z
x,y,-z
x-y,x,-z
-y,x-y,-z
-x+y,y,1/2+z
x,x-y,1/2+z
-y,-x,1/2+z
y,x,1/2+z
x-y,-y,1/2+z
-x,-x+y,1/2+z
loop_
_atom_site_type_symbol
_atom_site_label
_atom_site_fract_x
_atom_site_fract_y
_atom_site_fract_z
Si Si1 0.524922 0.204164 0.149465
Si Si2 0.808749 0.122704 0.107129
Si Si3 0.812453 0.346475 0.642433
Si Si4 0.341552 0.948247 0.166369
Si Si5 0.882757 0.036980 0.107510
Si Si6 0.626711 0.907904 0.099572
O O1 0.540007 0.206655 0.253814
O O2 0.518205 0.269345 0.109240
O O3 0.590039 0.198685 0.108733
O O4 0.448955 0.133920 0.145289
O O5 0.742628 0.108582 0.167776
O O6 0.827349 0.062089 0.128807
O O7 0.876721 0.199726 0.127302
O O8 0.794560 0.120190 0.000000
O O9 0.895559 0.369108 0.634768
O O10 0.380879 0.000000 0.250000
O O11 0.343310 0.008636 0.103576
O O12 0.959913 0.096521 0.138757
O O13 0.885073 0.035896 0.000000
O O14 0.609395 0.884777 0.000000
#
# Coordination Sequence:
#
# PCOD9588629 Si02
#       6
#    24  24  24  24  24  24
#     4  10  20  41  64  93 120 161 209 254 313 372
#     4  10  21  38  59  85 125 172 213 255 317 387
#     4  10  21  39  68  93 123 157 208 265 307 375
#     4  12  23  38  62  95 127 161 210 266 322 377
#     4   9  16  28  48  77 111 151 202 256 307 361
#     4  11  23  40  61  89 127 167 210 257 315 387
#
# _framework density 23.114601
#
# number of rings (size 3 to 8) (size 9 to 14) (size 15 to 20)
#    0.000    1.667    3.333    2.000    0.000    6.000 
#    0.000    3.333    0.000    0.000    0.000    0.000 
#    0.000    1.333    0.000    0.000    0.000    0.000 
#
# Total GULP energy -802713.088536 kJ/mol
# GULP energy per Si atom -5574.396448 kJ/mol
# Density = 2.306199 g / cm^3
# Si number density = 23.114601 Si / 1000 Ang^3
#
#
#
# Elastic Constant Matrix: (Units=GPa)
#
#
# Indices 1 2 3 4 5 6 
#
# 1 120.7804 51.5406 4.0387 0.0000 0.0000 0.0000
# 2 51.5406 120.7804 4.0387 0.0000 0.0000 0.0000
# 3 4.0387 4.0387 29.1320 0.0000 0.0000 0.0000
# 4 0.0000 0.0000 0.0000 -1.4560 0.0000 0.0000
# 5 0.0000 0.0000 0.0000 0.0000 -1.4560 0.0000
# 6 0.0000 0.0000 0.0000 0.0000 0.0000 34.6199
#
#
#
# Elastic Compliance Matrix: (Units=1/GPa)
#
#
# Indices 1 2 3 4 5 6 
#
# 1 0.010142 -0.004301 -0.000810 0.000000 0.000000 0.000000
# 2 -0.004301 0.010142 -0.000810 0.000000 0.000000 0.000000
# 3 -0.000810 -0.000810 0.034551 0.000000 0.000000 0.000000
# 4 0.000000 0.000000 0.000000 -0.686790 0.000000 0.000000
# 5 0.000000 0.000000 0.000000 0.000000 -0.686790 0.000000
# 6 0.000000 0.000000 0.000000 0.000000 0.000000 0.028885
#
#
# Mechanical properties :
#
#
# Convention : Reuss Voigt Hill
#
# Bulk Modulus (GPa) = 23.25899 43.32543 33.29221
# Shear Modulus (GPa) = -3.95667 20.41321 8.22827
#
# Velocity S-wave (km/s) = -1.30976 2.97497 1.88878
# Velocity P-wave (km/s) = 2.79231 5.53038 4.38076
#
# Compressibility (1/GPa) = 0.04299412
#
# Stress axis : x y z
#
# Youngs Moduli (GPa) = 98.60160 98.60160 28.94266
#
# Poissons Ratio (x) = 0.42406 0.02344
# Poissons Ratio (y) = 0.42406 0.02344
# Poissons Ratio (z) = 0.07985 0.07985
#
# Static dielectric constant tensor:
#      x y z
#    x 1.878440 0.000000 0.000000 
#    y 0.000000 1.878440 0.000000 
#    z 0.000000 0.000000 1.947180 
# 
# From -- ./inp_files/5152.got.cif
#   From: 2010.05.17/outbox.cif.g08.bks.cpg/sg192_3_cif.got.tgz:5152.got - 2010.05.20 12:28:01.
