data_PCOD9588911
_publ_section_title
;
Structure prediction by ZEFSAII (Michael W. Deem and Ramdas Pophale) SiO2 
 PCOD9588911
Probable space group: P 63/M C M
;
_chemical_formula_sum "Si O2"
_cell_formula_units_Z 168
_cell_length_a 22.710658
_cell_length_b 22.710658
_cell_length_c 24.404539
_cell_angle_alpha 90.000000
_cell_angle_beta 90.000000
_cell_angle_gamma 120.000000
_cell_volume 10900.857805
_symmetry_space_group_name_H-M "P 63/M C M"
_symmetry_group_IT_number 193
_symmetry_cell_setting 'hexagonal'
loop_
_space_group_symop_operation_xyz
x,y,z
x-y,x,1/2+z
-y,x-y,z
-x,-y,1/2+z
-x+y,-x,z
y,-x+y,1/2+z
x-y,-y,1/2-z
-x,-x+y,1/2-z
y,x,1/2-z
-y,-x,-z
-x+y,y,-z
x,x-y,-z
-x,-y,-z
-x+y,-x,1/2-z
y,-x+y,-z
x,y,1/2-z
x-y,x,-z
-y,x-y,1/2-z
-x+y,y,1/2+z
x,x-y,1/2+z
-y,-x,1/2+z
y,x,z
x-y,-y,z
-x,-x+y,z
loop_
_atom_site_type_symbol
_atom_site_label
_atom_site_fract_x
_atom_site_fract_y
_atom_site_fract_z
Si Si1 0.075992 0.582621 0.314467
Si Si2 0.630288 0.802608 0.914091
Si Si3 0.269504 0.348526 0.980528
Si Si4 0.816362 0.387882 0.600825
Si Si5 0.353037 0.078957 0.814408
Si Si6 0.527155 0.278333 0.564563
Si Si7 0.603605 0.074191 0.021514
O O1 0.078446 0.571835 0.250000
O O2 0.138688 0.583974 0.345040
O O3 0.082667 0.656719 0.321152
O O4 0.000000 0.527147 0.334310
O O5 0.664525 0.881206 0.932115
O O6 0.648555 0.780428 0.857107
O O7 0.550640 0.779799 0.918334
O O8 0.647165 0.764731 0.962683
O O9 0.293984 0.293984 0.982345
O O10 0.338282 0.423015 0.978707
O O11 0.746510 0.316823 0.600685
O O12 0.800993 0.443167 0.574650
O O13 0.864766 0.370281 0.563703
O O14 0.347326 0.092737 0.750000
O O15 0.297026 0.000000 0.825725
O O16 0.535026 0.267513 0.500000
O O17 0.580229 0.000000 0.047030
O O18 0.535218 0.070436 0.000000
#
# Coordination Sequence:
#
# PCOD9588911 Si02
#       7
#    24  24  24  24  24  24  24
#     4   9  18  35  57  76  92 115 158 213 255 290
#     4  11  18  32  49  71 100 128 161 201 249 293
#     4  10  19  30  47  70  98 131 161 194 242 299
#     4  12  21  33  47  66  94 128 160 197 255 308
#     4   9  17  31  55  81  98 121 161 206 250 290
#     4  12  22  33  45  66  96 130 159 200 252 315
#     4  10  18  29  46  66  89 117 157 202 241 290
#
# _framework density 15.411631
#
# number of rings (size 3 to 8) (size 9 to 14) (size 15 to 20)
#    0.000    1.571    4.286    4.143    0.000    2.286 
#    0.000    2.143    0.000    0.429    0.000    0.000 
#    0.000    0.000    0.000   42.429    0.000    5.000 
#
# Total GULP energy -936171.587050 kJ/mol
# GULP energy per Si atom -5572.449923 kJ/mol
# Density = 1.537655 g / cm^3
# Si number density = 15.411631 Si / 1000 Ang^3
#
#
#
# Elastic Constant Matrix: (Units=GPa)
#
#
# Indices 1 2 3 4 5 6 
#
# 1 82.2237 42.2843 38.3006 0.0000 0.0000 0.0000
# 2 42.2843 82.2237 38.3006 0.0000 0.0000 0.0000
# 3 38.3006 38.3006 81.1392 0.0000 0.0000 0.0000
# 4 0.0000 0.0000 0.0000 21.9183 0.0000 0.0000
# 5 0.0000 0.0000 0.0000 0.0000 21.9183 0.0000
# 6 0.0000 0.0000 0.0000 0.0000 0.0000 19.9697
#
#
#
# Elastic Compliance Matrix: (Units=1/GPa)
#
#
# Indices 1 2 3 4 5 6 
#
# 1 0.018178 -0.006860 -0.005343 0.000000 0.000000 0.000000
# 2 -0.006860 0.018178 -0.005343 0.000000 0.000000 0.000000
# 3 -0.005343 -0.005343 0.017369 0.000000 0.000000 0.000000
# 4 0.000000 0.000000 0.000000 0.045624 0.000000 0.000000
# 5 0.000000 0.000000 0.000000 0.000000 0.045624 0.000000
# 6 0.000000 0.000000 0.000000 0.000000 0.000000 0.050076
#
#
# Mechanical properties :
#
#
# Convention : Reuss Voigt Hill
#
# Bulk Modulus (GPa) = 53.66370 53.70643 53.68507
# Shear Modulus (GPa) = 21.15495 21.20798 21.18147
#
# Velocity S-wave (km/s) = 3.70896 3.71361 3.71129
# Velocity P-wave (km/s) = 7.29642 7.30147 7.29895
#
# Compressibility (1/GPa) = 0.01863457
#
# Stress axis : x y z
#
# Youngs Moduli (GPa) = 55.01062 55.01062 57.57542
#
# Poissons Ratio (x) = 0.37735 0.30762
# Poissons Ratio (y) = 0.37735 0.30762
# Poissons Ratio (z) = 0.29391 0.29391
#
# Static dielectric constant tensor:
#      x y z
#    x 1.540580 0.000000 0.000000 
#    y 0.000000 1.540580 0.000000 
#    z 0.000000 0.000000 1.540100 
# 
# From -- ./inp_files/7838.got.cif
#   From: 2010.05.17/outbox.cif.g08.bks.cpg/sg193_4_cif.got.tgz:7838.got - 2010.05.20 12:33:02.
