data_PCOD9588088
_publ_section_title
;
Structure prediction by ZEFSAII (Michael W. Deem and Ramdas Pophale) SiO2 
 PCOD9588088
Probable space group: P 6/M M M
;
_chemical_formula_sum "Si O2"
_cell_formula_units_Z 138
_cell_length_a 31.925469
_cell_length_b 31.925469
_cell_length_c 7.565233
_cell_angle_alpha 90.000000
_cell_angle_beta 90.000000
_cell_angle_gamma 120.000000
_cell_volume 6677.709345
_symmetry_space_group_name_H-M "P 6/M M M"
_symmetry_group_IT_number 191
_symmetry_cell_setting 'hexagonal'
loop_
_space_group_symop_operation_xyz
x,y,z
x-y,x,z
-y,x-y,z
-x,-y,z
-x+y,-x,z
y,-x+y,z
x-y,-y,-z
-x,-x+y,-z
y,x,-z
-y,-x,-z
-x+y,y,-z
x,x-y,-z
-x,-y,-z
-x+y,-x,-z
y,-x+y,-z
x,y,-z
x-y,x,-z
-y,x-y,-z
-x+y,y,z
x,x-y,z
-y,-x,z
y,x,z
x-y,-y,z
-x,-x+y,z
loop_
_atom_site_type_symbol
_atom_site_label
_atom_site_fract_x
_atom_site_fract_y
_atom_site_fract_z
Si Si1 0.424591 0.945585 0.286229
Si Si2 0.942015 0.884029 0.500000
Si Si3 0.765458 0.137184 0.216177
Si Si4 0.099821 0.900180 0.213344
Si Si5 0.146740 0.470645 0.795362
Si Si6 0.761218 0.427828 0.290864
Si Si7 0.267635 0.054803 0.215079
O O1 0.423633 0.944674 0.500000
O O2 0.468533 0.937066 0.231103
O O3 0.373654 0.903471 0.221936
O O4 0.439845 0.000000 0.230257
O O5 0.916486 0.916486 0.500000
O O6 0.924374 0.848748 0.328786
O O7 0.814656 0.185345 0.264745
O O8 0.719706 0.140889 0.281319
O O9 0.768640 0.090765 0.276132
O O10 0.763603 0.135032 0.000000
O O11 0.075296 0.843341 0.258425
O O12 0.095409 0.904592 0.000000
O O13 0.190371 0.520666 0.725370
O O14 0.158541 0.470706 0.000000
O O15 0.753263 0.419603 0.500000
O O16 0.714477 0.428953 0.217249
O O17 0.766580 0.383290 0.218275
O O18 0.245267 0.000000 0.277168
O O19 0.269036 0.054394 0.000000
#
# Coordination Sequence:
#
# PCOD9588088 Si02
#       7
#    24   6  24  12  24  24  24
#     4   9  19  37  58  76  99 138 185 229 276 333
#     4  12  27  44  64  92 132 172 208 256 314 374
#     4   9  17  31  49  73 109 150 185 217 264 334
#     4  10  20  39  67  95 120 158 212 260 304 360
#     4  11  22  33  52  82 114 146 182 227 282 347
#     4  10  21  38  59  80 104 140 189 240 288 345
#     4   9  16  29  55  86 111 141 187 238 283 331
#
# _framework density 20.665768
#
# number of rings (size 3 to 8) (size 9 to 14) (size 15 to 20)
#    0.000    2.261    0.870    2.826    0.000    6.609 
#    0.000    2.609    3.826    1.565    0.000    0.000 
#    0.000    0.000    0.000    0.000    0.000    0.000 
#
# Total GULP energy -770748.801618 kJ/mol
# GULP energy per Si atom -5585.136244 kJ/mol
# Density = 2.061873 g / cm^3
# Si number density = 20.665768 Si / 1000 Ang^3
#
#
#
# Elastic Constant Matrix: (Units=GPa)
#
#
# Indices 1 2 3 4 5 6 
#
# 1 194.3095 137.5509 12.7229 0.0000 0.0000 0.0000
# 2 137.5509 194.3095 12.7229 0.0000 0.0000 0.0000
# 3 12.7229 12.7229 53.6295 0.0000 0.0000 0.0000
# 4 0.0000 0.0000 0.0000 4.9265 0.0000 0.0000
# 5 0.0000 0.0000 0.0000 0.0000 4.9265 0.0000
# 6 0.0000 0.0000 0.0000 0.0000 0.0000 28.3793
#
#
#
# Elastic Compliance Matrix: (Units=1/GPa)
#
#
# Indices 1 2 3 4 5 6 
#
# 1 0.010344 -0.007275 -0.000728 0.000000 0.000000 0.000000
# 2 -0.007275 0.010344 -0.000728 0.000000 0.000000 0.000000
# 3 -0.000728 -0.000728 0.018992 0.000000 0.000000 0.000000
# 4 0.000000 0.000000 0.000000 0.202986 0.000000 0.000000
# 5 0.000000 0.000000 0.000000 0.000000 0.202986 0.000000
# 6 0.000000 0.000000 0.000000 0.000000 0.000000 0.035237
#
#
# Mechanical properties :
#
#
# Convention : Reuss Voigt Hill
#
# Bulk Modulus (GPa) = 45.00904 85.36018 65.18461
# Shear Modulus (GPa) = 9.88620 26.26324 18.07472
#
# Velocity S-wave (km/s) = 2.18957 3.56878 2.96061
# Velocity P-wave (km/s) = 5.31217 7.64044 6.58010
#
# Compressibility (1/GPa) = 0.02221776
#
# Stress axis : x y z
#
# Youngs Moduli (GPa) = 96.67620 96.67620 52.65398
#
# Poissons Ratio (x) = 0.70329 0.03834
# Poissons Ratio (y) = 0.70329 0.03834
# Poissons Ratio (z) = 0.07039 0.07039
#
# Static dielectric constant tensor:
#      x y z
#    x 1.708700 0.000000 0.000000 
#    y 0.000000 1.708700 0.000000 
#    z 0.000000 0.000000 1.798810 
# 
# From -- ./inp_files/2043.got.cif
#   From: 2010.05.17/outbox.cif.g08.bks.cpg/sg191_2_cif.got.tgz:2043.got - 2010.05.20 12:20:32.
