data_PCOD9588255
_publ_section_title
;
Structure prediction by ZEFSAII (Michael W. Deem and Ramdas Pophale) SiO2 
 PCOD9588255
Probable space group: P 6/M M M
;
_chemical_formula_sum "Si O2"
_cell_formula_units_Z 144
_cell_length_a 24.000000
_cell_length_b 24.000000
_cell_length_c 18.000000
_cell_angle_alpha 90.000000
_cell_angle_beta 90.000000
_cell_angle_gamma 120.000000
_cell_volume 8978.951386
_symmetry_space_group_name_H-M "P 6/M M M"
_symmetry_group_IT_number 191
_symmetry_cell_setting 'hexagonal'
loop_
_space_group_symop_operation_xyz
x,y,z
x-y,x,z
-y,x-y,z
-x,-y,z
-x+y,-x,z
y,-x+y,z
x-y,-y,-z
-x,-x+y,-z
y,x,-z
-y,-x,-z
-x+y,y,-z
x,x-y,-z
-x,-y,-z
-x+y,-x,-z
y,-x+y,-z
x,y,-z
x-y,x,-z
-y,x-y,-z
-x+y,y,z
x,x-y,z
-y,-x,z
y,x,z
x-y,-y,z
-x,-x+y,z
loop_
_atom_site_type_symbol
_atom_site_label
_atom_site_fract_x
_atom_site_fract_y
_atom_site_fract_z
Si Si1 0.698006 0.622555 0.190320
Si Si2 0.267821 0.196717 0.087936
Si Si3 0.602955 0.524755 0.916687
Si Si4 0.600879 0.072479 0.588957
Si Si5 0.861455 0.595747 0.346466
Si Si6 0.194853 0.929020 0.411024
O O1 0.653153 0.653153 0.211489
O O2 0.750485 0.671810 0.133222
O O3 0.655049 0.556186 0.147028
O O4 0.730909 0.613662 0.261940
O O5 0.253065 0.126533 0.108609
O O6 0.209688 0.209688 0.102505
O O7 0.282312 0.206486 0.000000
O O8 0.548652 0.451349 0.904181
O O9 0.565500 0.565500 0.916924
O O10 0.630023 0.531381 0.000000
O O11 0.608392 0.077043 0.500000
O O12 0.539797 0.079593 0.607800
O O13 0.664930 0.123256 0.628133
O O14 0.582169 0.000000 0.610701
O O15 0.788855 0.577710 0.358307
O O16 0.905573 0.660361 0.393318
O O17 0.189866 0.931239 0.500000
O O18 0.126144 0.873857 0.381557
O O19 0.220366 0.000000 0.380426
#
# Coordination Sequence:
#
# PCOD9588255 Si02
#       6
#    24  24  24  24  24  24
#     4  10  18  27  41  62  89 120 150 179 213 254
#     4   9  17  29  44  60  80 110 148 187 226 270
#     4   8  14  25  41  62  88 116 145 177 214 256
#     4   9  18  33  52  71  90 114 145 181 220 262
#     4  11  21  30  43  66  95 122 147 179 219 261
#     4   9  17  29  45  64  87 117 151 185 222 265
#
# _framework density 16.037507000000002
#
# number of rings (size 3 to 8) (size 9 to 14) (size 15 to 20)
#    0.000    2.667    0.000    4.000    0.000    5.000 
#    0.000    1.667    0.000    0.667    0.000    2.333 
#    0.000    0.000    0.000    5.333    0.000   15.500 
#
# Total GULP energy -802055.884612 kJ/mol
# GULP energy per Si atom -5569.832532 kJ/mol
# Density = 1.600101 g / cm^3
# Si number density = 16.037507 Si / 1000 Ang^3
#
#
#
# Elastic Constant Matrix: (Units=GPa)
#
#
# Indices 1 2 3 4 5 6 
#
# 1 47.3139 39.3433 21.9261 0.0000 0.0000 0.0000
# 2 39.3433 47.3139 21.9261 0.0000 0.0000 0.0000
# 3 21.9261 21.9261 4.4848 0.0000 0.0000 0.0000
# 4 0.0000 0.0000 0.0000 16.5268 0.0000 0.0000
# 5 0.0000 0.0000 0.0000 0.0000 16.5268 0.0000
# 6 0.0000 0.0000 0.0000 0.0000 0.0000 3.9853
#
#
#
# Elastic Compliance Matrix: (Units=1/GPa)
#
#
# Indices 1 2 3 4 5 6 
#
# 1 0.058816 -0.066645 0.038275 0.000000 0.000000 0.000000
# 2 -0.066645 0.058816 0.038275 0.000000 0.000000 0.000000
# 3 0.038275 0.038275 -0.151272 0.000000 0.000000 0.000000
# 4 0.000000 0.000000 0.000000 0.060508 0.000000 0.000000
# 5 0.000000 0.000000 0.000000 0.000000 0.060508 0.000000
# 6 0.000000 0.000000 0.000000 0.000000 0.000000 0.250922
#
#
# Mechanical properties :
#
#
# Convention : Reuss Voigt Hill
#
# Bulk Modulus (GPa) = -72.30569 29.50039 -21.40265
# Shear Modulus (GPa) = 15.92975 8.46894 12.19935
#
# Velocity S-wave (km/s) = 3.15506 2.30047 2.76103
# Velocity P-wave (km/s) = 5.64896 5.04884 1.79164
#
# Compressibility (1/GPa) = -0.01383017
#
# Stress axis : x y z
#
# Youngs Moduli (GPa) = 17.00218 17.00218 -6.61063
#
# Poissons Ratio (x) = 1.13311 0.25302
# Poissons Ratio (y) = 1.13311 0.25302
# Poissons Ratio (z) = -0.65075 -0.65075
#
# Static dielectric constant tensor:
#      x y z
#    x 1.538440 0.000000 0.000000 
#    y 0.000000 1.538440 0.000000 
#    z 0.000000 0.000000 1.547900 
# 
# From -- ./inp_files/6592.got.cif
#   From: 2010.05.17/outbox.ucp.g08.bks.cvg/sg191_4_cif.got.tgz:6592.got - 2010.06.11 15:22:43.
