data_PCOD9588944
_publ_section_title
;
Structure prediction by ZEFSAII (Michael W. Deem and Ramdas Pophale) SiO2 
 PCOD9588944
Probable space group: P 63/M C M
;
_chemical_formula_sum "Si O2"
_cell_formula_units_Z 126
_cell_length_a 20.029728
_cell_length_b 20.029728
_cell_length_c 21.129780
_cell_angle_alpha 90.000000
_cell_angle_beta 90.000000
_cell_angle_gamma 120.000000
_cell_volume 7341.346293
_symmetry_space_group_name_H-M "P 63/M C M"
_symmetry_group_IT_number 193
_symmetry_cell_setting 'hexagonal'
loop_
_space_group_symop_operation_xyz
x,y,z
x-y,x,1/2+z
-y,x-y,z
-x,-y,1/2+z
-x+y,-x,z
y,-x+y,1/2+z
x-y,-y,1/2-z
-x,-x+y,1/2-z
y,x,1/2-z
-y,-x,-z
-x+y,y,-z
x,x-y,-z
-x,-y,-z
-x+y,-x,1/2-z
y,-x+y,-z
x,y,1/2-z
x-y,x,-z
-y,x-y,1/2-z
-x+y,y,1/2+z
x,x-y,1/2+z
-y,-x,1/2+z
y,x,z
x-y,-y,z
-x,-x+y,z
loop_
_atom_site_type_symbol
_atom_site_label
_atom_site_fract_x
_atom_site_fract_y
_atom_site_fract_z
Si Si1 0.166835 0.842530 0.177359
Si Si2 0.086712 0.086712 0.250000
Si Si3 0.838901 0.838901 0.991640
Si Si4 0.000000 0.404074 0.327470
Si Si5 0.158216 0.597639 0.826493
Si Si6 0.000000 0.257896 0.109440
Si Si7 0.267569 0.496776 0.327215
Si Si8 0.204754 0.000000 0.847286
O O1 0.192620 0.862353 0.250000
O O2 0.193448 0.921414 0.141114
O O3 0.201707 0.791513 0.151253
O O4 0.075487 0.793772 0.173534
O O5 0.134439 0.134439 0.310115
O O6 0.072320 0.000000 0.250000
O O7 0.775915 0.775915 0.040179
O O8 0.845103 0.922552 0.000000
O O9 0.809834 0.809834 0.921163
O O10 0.923230 0.408592 0.342266
O O11 0.000000 0.336793 0.370100
O O12 0.000000 0.389605 0.250000
O O13 0.158579 0.595180 0.750000
O O14 0.176844 0.532248 0.849249
O O15 0.228737 0.681252 0.845045
O O16 0.268635 0.494291 0.250000
#
# Coordination Sequence:
#
# PCOD9588944 Si02
#       8
#    24   6  12  12  24  12  24  12
#     4  11  21  34  55  81 113 149 188 233 288 338
#     4  10  26  38  60  86 114 146 184 228 292 338
#     4  12  27  43  59  79 107 148 191 242 284 334
#     4  10  18  31  51  82 109 146 196 241 282 341
#     4   9  16  27  44  72 111 150 188 227 281 347
#     4  12  22  36  58  76 113 146 197 242 275 330
#     4   9  17  28  46  75 113 154 184 223 284 349
#     4  12  24  40  55  86 114 141 188 232 283 337
#
# _framework density 17.163065
#
# number of rings (size 3 to 8) (size 9 to 14) (size 15 to 20)
#    0.095    1.524    4.762    1.333    2.667    2.286 
#    0.000    2.857    0.000    0.000    0.000    2.667 
#    0.000    0.000    0.000    0.000    0.000    0.000 
#
# Total GULP energy -702040.002125 kJ/mol
# GULP energy per Si atom -5571.746049 kJ/mol
# Density = 1.712400 g / cm^3
# Si number density = 17.163065 Si / 1000 Ang^3
#
#
#
# Elastic Constant Matrix: (Units=GPa)
#
#
# Indices 1 2 3 4 5 6 
#
# 1 87.6964 27.2939 21.9464 0.0000 0.0000 0.0000
# 2 27.2939 87.6964 21.9464 0.0000 0.0000 0.0000
# 3 21.9464 21.9464 66.0051 0.0000 0.0000 0.0000
# 4 0.0000 0.0000 0.0000 18.6953 0.0000 0.0000
# 5 0.0000 0.0000 0.0000 0.0000 18.6953 0.0000
# 6 0.0000 0.0000 0.0000 0.0000 0.0000 30.2013
#
#
#
# Elastic Compliance Matrix: (Units=1/GPa)
#
#
# Indices 1 2 3 4 5 6 
#
# 1 0.013258 -0.003298 -0.003312 0.000000 0.000000 0.000000
# 2 -0.003298 0.013258 -0.003312 0.000000 0.000000 0.000000
# 3 -0.003312 -0.003312 0.017353 0.000000 0.000000 0.000000
# 4 0.000000 0.000000 0.000000 0.053489 0.000000 0.000000
# 5 0.000000 0.000000 0.000000 0.000000 0.053489 0.000000
# 6 0.000000 0.000000 0.000000 0.000000 0.000000 0.033111
#
#
# Mechanical properties :
#
#
# Convention : Reuss Voigt Hill
#
# Bulk Modulus (GPa) = 41.62084 42.64126 42.13105
# Shear Modulus (GPa) = 23.60606 24.86579 24.23592
#
# Velocity S-wave (km/s) = 3.71266 3.81044 3.76187
# Velocity P-wave (km/s) = 6.53310 6.65266 6.59315
#
# Compressibility (1/GPa) = 0.02402642
#
# Stress axis : x y z
#
# Youngs Moduli (GPa) = 75.42576 75.42576 57.62794
#
# Poissons Ratio (x) = 0.24872 0.19085
# Poissons Ratio (y) = 0.24872 0.19085
# Poissons Ratio (z) = 0.24980 0.24980
#
# Static dielectric constant tensor:
#      x y z
#    x 1.599950 0.000000 0.000000 
#    y 0.000000 1.599950 0.000000 
#    z 0.000000 0.000000 1.552370 
# 
# From -- ./inp_files/6539.got.cif
#   From: 2010.05.17/outbox.cif.g08.bks.cpg/sg193_4_cif.got.tgz:6539.got - 2010.05.20 12:33:02.
