data_PCOD9588379
_publ_section_title
;
Structure prediction by ZEFSAII (Michael W. Deem and Ramdas Pophale) SiO2 
 PCOD9588379
Probable space group: P 6/M C C
;
_chemical_formula_sum "Si O2"
_cell_formula_units_Z 168
_cell_length_a 18.963963
_cell_length_b 18.963963
_cell_length_c 27.740365
_cell_angle_alpha 90.000000
_cell_angle_beta 90.000000
_cell_angle_gamma 120.000000
_cell_volume 8639.746529
_symmetry_space_group_name_H-M "P 6/M C C"
_symmetry_group_IT_number 192
_symmetry_cell_setting 'hexagonal'
loop_
_space_group_symop_operation_xyz
x,y,z
x-y,x,z
-y,x-y,z
-x,-y,z
-x+y,-x,z
y,-x+y,z
x-y,-y,1/2-z
-x,-x+y,1/2-z
y,x,1/2-z
-y,-x,1/2-z
-x+y,y,1/2-z
x,x-y,1/2-z
-x,-y,-z
-x+y,-x,-z
y,-x+y,-z
x,y,-z
x-y,x,-z
-y,x-y,-z
-x+y,y,1/2+z
x,x-y,1/2+z
-y,-x,1/2+z
y,x,1/2+z
x-y,-y,1/2+z
-x,-x+y,1/2+z
loop_
_atom_site_type_symbol
_atom_site_label
_atom_site_fract_x
_atom_site_fract_y
_atom_site_fract_z
Si Si1 0.326141 0.889949 0.373478
Si Si2 0.920036 0.612995 0.137990
Si Si3 0.811169 0.881241 0.573616
Si Si4 0.818813 0.648320 0.199750
Si Si5 0.439847 0.902209 0.194203
Si Si6 0.947682 0.818855 0.310227
Si Si7 0.192129 0.812644 0.555297
O O1 0.249529 0.847201 0.338197
O O2 0.392950 0.875559 0.346764
O O3 0.284154 0.850260 0.424238
O O4 0.356888 0.986436 0.373877
O O5 0.903459 0.670401 0.173923
O O6 0.887325 0.531304 0.170315
O O7 0.869998 0.608088 0.089837
O O8 0.871226 0.847143 0.558534
O O9 0.810522 0.871332 0.631537
O O10 0.716224 0.832343 0.558748
O O11 0.801532 0.603064 0.250000
O O12 0.815180 0.729319 0.209851
O O13 0.436298 0.872596 0.250000
O O14 0.500000 0.000000 0.197315
O O15 0.885091 0.848151 0.296706
O O16 0.185177 0.787431 0.500000
#
# Coordination Sequence:
#
# PCOD9588379 Si02
#       7
#    24  24  24  24  24  24  24
#     4  10  20  36  56  81 112 143 183 231 279 335
#     4  10  20  36  56  81 112 143 183 231 279 335
#     4  10  19  33  51  74 107 155 216 275 316 339
#     4  11  21  31  50  79 112 148 186 234 291 352
#     4   9  18  34  59  87 111 135 163 207 270 337
#     4  10  19  31  45  66 101 149 204 254 297 336
#     4  11  23  37  56  81 114 156 197 242 295 343
#
# _framework density 19.445014
#
# number of rings (size 3 to 8) (size 9 to 14) (size 15 to 20)
#    0.000    1.857    2.857    2.857    0.000    6.857 
#    0.000    0.714    0.000    8.857    0.000    8.000 
#    0.000    0.000    0.000    0.000    0.000    0.000 
#
# Total GULP energy -936654.142395 kJ/mol
# GULP energy per Si atom -5575.322276 kJ/mol
# Density = 1.940076 g / cm^3
# Si number density = 19.445014 Si / 1000 Ang^3
#
#
#
# Elastic Constant Matrix: (Units=GPa)
#
#
# Indices 1 2 3 4 5 6 
#
# 1 62.4237 16.6165 25.9998 0.0000 0.0000 0.0000
# 2 16.6165 62.4237 25.9998 0.0000 0.0000 0.0000
# 3 25.9998 25.9998 148.3221 0.0000 0.0000 0.0000
# 4 0.0000 0.0000 0.0000 10.9431 0.0000 0.0000
# 5 0.0000 0.0000 0.0000 0.0000 10.9431 0.0000
# 6 0.0000 0.0000 0.0000 0.0000 0.0000 22.9036
#
#
#
# Elastic Compliance Matrix: (Units=1/GPa)
#
#
# Indices 1 2 3 4 5 6 
#
# 1 0.018066 -0.003765 -0.002507 0.000000 0.000000 0.000000
# 2 -0.003765 0.018066 -0.002507 0.000000 0.000000 0.000000
# 3 -0.002507 -0.002507 0.007621 0.000000 0.000000 0.000000
# 4 0.000000 0.000000 0.000000 0.091382 0.000000 0.000000
# 5 0.000000 0.000000 0.000000 0.000000 0.091382 0.000000
# 6 0.000000 0.000000 0.000000 0.000000 0.000000 0.043661
#
#
# Mechanical properties :
#
#
# Convention : Reuss Voigt Hill
#
# Bulk Modulus (GPa) = 38.17444 45.60021 41.88733
# Shear Modulus (GPa) = 16.86534 22.59485 19.73010
#
# Velocity S-wave (km/s) = 2.94825 3.41249 3.18883
# Velocity P-wave (km/s) = 5.59144 6.24728 5.92844
#
# Compressibility (1/GPa) = 0.02619554
#
# Stress axis : x y z
#
# Youngs Moduli (GPa) = 55.35310 55.35310 131.21708
#
# Poissons Ratio (x) = 0.20839 0.32894
# Poissons Ratio (y) = 0.20839 0.32894
# Poissons Ratio (z) = 0.13876 0.13876
#
# Static dielectric constant tensor:
#      x y z
#    x 1.704320 0.000000 0.000000 
#    y 0.000000 1.704320 0.000000 
#    z 0.000000 0.000000 1.754510 
# 
# From -- ./inp_files/7180.got.cif
#   From: 2010.05.17/outbox.cif.g08.bks.cpg/sg192_4_cif.got.tgz:7180.got - 2010.05.20 12:28:01.
