data_PCOD9588477
_publ_section_title
;
Structure prediction by ZEFSAII (Michael W. Deem and Ramdas Pophale) SiO2 
 PCOD9588477
Probable space group: P 6/M C C
;
_chemical_formula_sum "Si O2"
_cell_formula_units_Z 168
_cell_length_a 17.995524
_cell_length_b 17.995524
_cell_length_c 29.471807
_cell_angle_alpha 90.000000
_cell_angle_beta 90.000000
_cell_angle_gamma 120.000000
_cell_volume 8265.447856
_symmetry_space_group_name_H-M "P 6/M C C"
_symmetry_group_IT_number 192
_symmetry_cell_setting 'hexagonal'
loop_
_space_group_symop_operation_xyz
x,y,z
x-y,x,z
-y,x-y,z
-x,-y,z
-x+y,-x,z
y,-x+y,z
x-y,-y,1/2-z
-x,-x+y,1/2-z
y,x,1/2-z
-y,-x,1/2-z
-x+y,y,1/2-z
x,x-y,1/2-z
-x,-y,-z
-x+y,-x,-z
y,-x+y,-z
x,y,-z
x-y,x,-z
-y,x-y,-z
-x+y,y,1/2+z
x,x-y,1/2+z
-y,-x,1/2+z
y,x,1/2+z
x-y,-y,1/2+z
-x,-x+y,1/2+z
loop_
_atom_site_type_symbol
_atom_site_label
_atom_site_fract_x
_atom_site_fract_y
_atom_site_fract_z
Si Si1 0.851592 0.527175 0.615806
Si Si2 0.840608 0.811323 0.378789
Si Si3 0.719847 0.794458 0.781726
Si Si4 0.441441 0.159397 0.338639
Si Si5 0.971484 0.318921 0.411216
Si Si6 0.524054 0.424898 0.949173
Si Si7 0.900139 0.441403 0.803725
O O1 0.770681 0.539738 0.623693
O O2 0.848250 0.447840 0.587366
O O3 0.872751 0.517000 0.668104
O O4 0.928230 0.610307 0.591153
O O5 0.831078 0.894223 0.385083
O O6 0.812481 0.776286 0.327129
O O7 0.774873 0.735091 0.411930
O O8 0.722358 0.722358 0.750000
O O9 0.755731 0.877866 0.750000
O O10 0.626215 0.773044 0.799592
O O11 0.391657 0.067115 0.362986
O O12 0.525756 0.163921 0.319747
O O13 0.915026 0.343407 0.443656
O O14 0.500000 0.500000 0.943384
O O15 0.556287 0.427693 0.000000
O O16 0.898025 0.449013 0.750000
O O17 0.000000 0.500000 0.817041
#
# Coordination Sequence:
#
# PCOD9588477 Si02
#       7
#    24  24  24  24  24  24  24
#     4  11  21  40  60  87 127 157 208 272 331 403
#     4  11  22  37  56  86 130 179 226 280 345 406
#     4  11  23  35  53  81 119 165 232 294 334 380
#     4  11  24  35  58  84 119 170 207 271 337 388
#     4  10  19  38  61  93 119 157 210 265 325 388
#     4   9  18  37  69  97 121 152 195 260 336 399
#     4  11  23  38  58  83 118 166 225 268 318 385
#
# _framework density 20.325576999999999
#
# number of rings (size 3 to 8) (size 9 to 14) (size 15 to 20)
#    0.000    1.429    4.286    2.286    6.000    0.000 
#    0.857    0.714    0.000    2.571    0.000    0.000 
#    0.000    1.143    0.000    0.000    0.000    0.000 
#
# Total GULP energy -935530.848150 kJ/mol
# GULP energy per Si atom -5568.636001 kJ/mol
# Density = 2.027932 g / cm^3
# Si number density = 20.325577 Si / 1000 Ang^3
#
#
#
# Elastic Constant Matrix: (Units=GPa)
#
#
# Indices 1 2 3 4 5 6 
#
# 1 86.1319 45.6153 29.2695 0.0000 0.0000 0.0000
# 2 45.6153 86.1319 29.2695 0.0000 0.0000 0.0000
# 3 29.2695 29.2695 63.4232 0.0000 0.0000 0.0000
# 4 0.0000 0.0000 0.0000 16.6188 0.0000 0.0000
# 5 0.0000 0.0000 0.0000 0.0000 16.6188 0.0000
# 6 0.0000 0.0000 0.0000 0.0000 0.0000 20.2583
#
#
#
# Elastic Compliance Matrix: (Units=1/GPa)
#
#
# Indices 1 2 3 4 5 6 
#
# 1 0.017115 -0.007567 -0.004406 0.000000 0.000000 0.000000
# 2 -0.007567 0.017115 -0.004406 0.000000 0.000000 0.000000
# 3 -0.004406 -0.004406 0.019834 0.000000 0.000000 0.000000
# 4 0.000000 0.000000 0.000000 0.060173 0.000000 0.000000
# 5 0.000000 0.000000 0.000000 0.000000 0.060173 0.000000
# 6 0.000000 0.000000 0.000000 0.000000 0.000000 0.049363
#
#
# Mechanical properties :
#
#
# Convention : Reuss Voigt Hill
#
# Bulk Modulus (GPa) = 46.93772 49.33283 48.13528
# Shear Modulus (GPa) = 18.96583 19.46803 19.21693
#
# Velocity S-wave (km/s) = 3.05799 3.09821 3.07816
# Velocity P-wave (km/s) = 5.96753 6.09283 6.03050
#
# Compressibility (1/GPa) = 0.02130483
#
# Stress axis : x y z
#
# Youngs Moduli (GPa) = 58.42918 58.42918 50.41790
#
# Poissons Ratio (x) = 0.44211 0.22216
# Poissons Ratio (y) = 0.44211 0.22216
# Poissons Ratio (z) = 0.25747 0.25747
#
# Static dielectric constant tensor:
#      x y z
#    x 1.774710 0.000000 0.000000 
#    y 0.000000 1.774710 0.000000 
#    z 0.000000 0.000000 1.749800 
# 
# From -- ./inp_files/7213.got.cif
#   From: 2010.05.17/outbox.cif.g08.bks.cpg/sg192_4_cif.got.tgz:7213.got - 2010.05.20 12:28:01.
