data_PCOD9588978
_publ_section_title
;
Structure prediction by ZEFSAII (Michael W. Deem and Ramdas Pophale) SiO2 
 PCOD9588978
Probable space group: P 63/M C M
;
_chemical_formula_sum "Si O2"
_cell_formula_units_Z 120
_cell_length_a 18.430370
_cell_length_b 18.430370
_cell_length_c 23.017602
_cell_angle_alpha 90.000000
_cell_angle_beta 90.000000
_cell_angle_gamma 120.000000
_cell_volume 6771.093581
_symmetry_space_group_name_H-M "P 63/M C M"
_symmetry_group_IT_number 193
_symmetry_cell_setting 'hexagonal'
loop_
_space_group_symop_operation_xyz
x,y,z
x-y,x,1/2+z
-y,x-y,z
-x,-y,1/2+z
-x+y,-x,z
y,-x+y,1/2+z
x-y,-y,1/2-z
-x,-x+y,1/2-z
y,x,1/2-z
-y,-x,-z
-x+y,y,-z
x,x-y,-z
-x,-y,-z
-x+y,-x,1/2-z
y,-x+y,-z
x,y,1/2-z
x-y,x,-z
-y,x-y,1/2-z
-x+y,y,1/2+z
x,x-y,1/2+z
-y,-x,1/2+z
y,x,z
x-y,-y,z
-x,-x+y,z
loop_
_atom_site_type_symbol
_atom_site_label
_atom_site_fract_x
_atom_site_fract_y
_atom_site_fract_z
Si Si1 0.097791 0.630038 0.983793
Si Si2 0.419244 0.094617 0.613819
Si Si3 0.469362 0.903123 0.815267
Si Si4 0.840848 0.576725 0.868178
Si Si5 0.090916 0.000000 0.179857
Si Si6 0.257672 0.257672 0.820728
O O1 0.145182 0.695892 0.932833
O O2 0.000000 0.572821 0.965140
O O3 0.128951 0.564476 0.000000
O O4 0.098942 0.673857 0.044118
O O5 0.505436 0.104573 0.639037
O O6 0.413080 0.173123 0.635787
O O7 0.347745 0.000000 0.630494
O O8 0.435344 0.890964 0.750000
O O9 0.505318 0.842189 0.828618
O O10 0.544543 0.000000 0.819096
O O11 0.919266 0.663133 0.847231
O O12 0.000000 0.921315 0.162746
O O13 0.093814 0.000000 0.250000
O O14 0.173129 0.000000 0.160687
O O15 0.263030 0.263030 0.750000
#
# Coordination Sequence:
#
# PCOD9588978 Si02
#       6
#    24  24  24  24  12  12
#     4  10  18  36  63  85 108 145 194 243 285 335
#     4  10  23  39  59  86 119 153 190 239 301 348
#     4  10  20  38  60  81 112 156 196 233 282 347
#     4  12  21  36  59  88 116 150 197 244 289 348
#     4   7  14  32  54  77 113 159 193 237 296 339
#     4  11  22  34  57  91 119 153 205 243 285 357
#
# _framework density 17.722396
#
# number of rings (size 3 to 8) (size 9 to 14) (size 15 to 20)
#    0.200    1.600    4.000    1.200    0.000    2.400 
#    1.200    0.000    0.000    0.000    0.000    0.000 
#    0.000    1.600    0.000    0.000    0.000    0.000 
#
# Total GULP energy -668827.628763 kJ/mol
# GULP energy per Si atom -5573.563573 kJ/mol
# Density = 1.768206 g / cm^3
# Si number density = 17.722396 Si / 1000 Ang^3
#
#
#
# Elastic Constant Matrix: (Units=GPa)
#
#
# Indices 1 2 3 4 5 6 
#
# 1 100.6879 54.6162 18.1961 0.0000 0.0000 0.0000
# 2 54.6162 100.6879 18.1961 0.0000 0.0000 0.0000
# 3 18.1961 18.1961 71.1118 0.0000 0.0000 0.0000
# 4 0.0000 0.0000 0.0000 17.9655 0.0000 0.0000
# 5 0.0000 0.0000 0.0000 0.0000 17.9655 0.0000
# 6 0.0000 0.0000 0.0000 0.0000 0.0000 23.0359
#
#
#
# Elastic Compliance Matrix: (Units=1/GPa)
#
#
# Indices 1 2 3 4 5 6 
#
# 1 0.014277 -0.007428 -0.001753 0.000000 0.000000 0.000000
# 2 -0.007428 0.014277 -0.001753 0.000000 0.000000 0.000000
# 3 -0.001753 -0.001753 0.014959 0.000000 0.000000 0.000000
# 4 0.000000 0.000000 0.000000 0.055662 0.000000 0.000000
# 5 0.000000 0.000000 0.000000 0.000000 0.055662 0.000000
# 6 0.000000 0.000000 0.000000 0.000000 0.000000 0.043411
#
#
# Mechanical properties :
#
#
# Convention : Reuss Voigt Hill
#
# Bulk Modulus (GPa) = 46.19385 50.50050 48.34718
# Shear Modulus (GPa) = 21.99426 23.89196 22.94311
#
# Velocity S-wave (km/s) = 3.52667 3.67566 3.60193
# Velocity P-wave (km/s) = 6.53491 6.82431 6.68117
#
# Compressibility (1/GPa) = 0.02164790
#
# Stress axis : x y z
#
# Youngs Moduli (GPa) = 70.04030 70.04030 66.84787
#
# Poissons Ratio (x) = 0.52025 0.11716
# Poissons Ratio (y) = 0.52025 0.11716
# Poissons Ratio (z) = 0.12276 0.12276
#
# Static dielectric constant tensor:
#      x y z
#    x 1.607910 0.000000 0.000000 
#    y 0.000000 1.607910 0.000000 
#    z 0.000000 0.000000 1.610600 
# 
# From -- ./inp_files/7387.got.cif
#   From: 2010.05.17/outbox.cif.g08.bks.cpg/sg193_4_cif.got.tgz:7387.got - 2010.05.20 12:33:02.
