data_PCOD9588531
_publ_section_title
;
Structure prediction by ZEFSAII (Michael W. Deem and Ramdas Pophale) SiO2 
 PCOD9588531
Probable space group: P 6/M C C
;
_chemical_formula_sum "Si O2"
_cell_formula_units_Z 132
_cell_length_a 25.594010
_cell_length_b 25.594010
_cell_length_c 15.104984
_cell_angle_alpha 90.000000
_cell_angle_beta 90.000000
_cell_angle_gamma 120.000000
_cell_volume 8568.949273
_symmetry_space_group_name_H-M "P 6/M C C"
_symmetry_group_IT_number 192
_symmetry_cell_setting 'hexagonal'
loop_
_space_group_symop_operation_xyz
x,y,z
x-y,x,z
-y,x-y,z
-x,-y,z
-x+y,-x,z
y,-x+y,z
x-y,-y,1/2-z
-x,-x+y,1/2-z
y,x,1/2-z
-y,-x,1/2-z
-x+y,y,1/2-z
x,x-y,1/2-z
-x,-y,-z
-x+y,-x,-z
y,-x+y,-z
x,y,-z
x-y,x,-z
-y,x-y,-z
-x+y,y,1/2+z
x,x-y,1/2+z
-y,-x,1/2+z
y,x,1/2+z
x-y,-y,1/2+z
-x,-x+y,1/2+z
loop_
_atom_site_type_symbol
_atom_site_label
_atom_site_fract_x
_atom_site_fract_y
_atom_site_fract_z
Si Si1 0.764159 0.318973 0.815635
Si Si2 0.287089 0.699536 0.000000
Si Si3 0.353471 0.417719 0.895334
Si Si4 0.431103 0.078046 0.604888
Si Si5 0.439905 0.869455 0.893646
Si Si6 0.150224 0.732631 0.755888
O O1 0.707240 0.292761 0.750000
O O2 0.738102 0.288147 0.911158
O O3 0.807037 0.388894 0.841485
O O4 0.807820 0.296890 0.776194
O O5 0.270032 0.629132 0.000000
O O6 0.388707 0.381693 0.878301
O O7 0.399600 0.488662 0.875622
O O8 0.294897 0.396040 0.834388
O O9 0.338931 0.413599 0.000000
O O10 0.430129 0.088724 0.500000
O O11 0.500347 0.098792 0.629490
O O12 0.411093 0.116355 0.664238
O O13 0.435500 0.860192 0.000000
O O14 0.196156 0.803845 0.750000
#
# Coordination Sequence:
#
# PCOD9588531 Si02
#       6
#    24  12  24  24  24  24
#     4  10  21  37  50  66  87 116 156 191 241 300
#     4  10  24  38  48  62  77 114 156 202 240 282
#     4   9  18  33  55  75 100 123 150 192 247 298
#     4  10  20  34  52  78  97 119 152 200 246 298
#     4   9  17  32  53  72  94 118 147 191 250 300
#     4  10  22  35  49  73  93 128 150 184 230 294
#
# _framework density 15.404455
#
# number of rings (size 3 to 8) (size 9 to 14) (size 15 to 20)
#    0.182    2.182    0.909    1.091    1.273   10.909 
#    4.909    3.636    0.000    0.000    0.000    0.000 
#    0.000    0.000    0.000    0.000    0.000    0.000 
#
# Total GULP energy -736533.052061 kJ/mol
# GULP energy per Si atom -5579.795849 kJ/mol
# Density = 1.536939 g / cm^3
# Si number density = 15.404455 Si / 1000 Ang^3
#
#
#
# Elastic Constant Matrix: (Units=GPa)
#
#
# Indices 1 2 3 4 5 6 
#
# 1 74.4098 33.0606 47.4713 0.0000 0.0000 0.0000
# 2 33.0606 74.4098 47.4713 0.0000 0.0000 0.0000
# 3 47.4713 47.4713 95.0611 0.0000 0.0000 0.0000
# 4 0.0000 0.0000 0.0000 23.8815 0.0000 0.0000
# 5 0.0000 0.0000 0.0000 0.0000 23.8815 0.0000
# 6 0.0000 0.0000 0.0000 0.0000 0.0000 20.6746
#
#
#
# Elastic Compliance Matrix: (Units=1/GPa)
#
#
# Indices 1 2 3 4 5 6 
#
# 1 0.020417 -0.003767 -0.008315 0.000000 0.000000 0.000000
# 2 -0.003767 0.020417 -0.008315 0.000000 0.000000 0.000000
# 3 -0.008315 -0.008315 0.018824 0.000000 0.000000 0.000000
# 4 0.000000 0.000000 0.000000 0.041873 0.000000 0.000000
# 5 0.000000 0.000000 0.000000 0.000000 0.041873 0.000000
# 6 0.000000 0.000000 0.000000 0.000000 0.000000 0.048368
#
#
# Mechanical properties :
#
#
# Convention : Reuss Voigt Hill
#
# Bulk Modulus (GPa) = 53.00665 55.54304 54.27484
# Shear Modulus (GPa) = 20.93311 21.41268 21.17290
#
# Velocity S-wave (km/s) = 3.69033 3.73236 3.71140
# Velocity P-wave (km/s) = 7.25553 7.39654 7.32637
#
# Compressibility (1/GPa) = 0.01886556
#
# Stress axis : x y z
#
# Youngs Moduli (GPa) = 48.97790 48.97790 53.12341
#
# Poissons Ratio (x) = 0.18449 0.44172
# Poissons Ratio (y) = 0.18449 0.44172
# Poissons Ratio (z) = 0.40725 0.40725
#
# Static dielectric constant tensor:
#      x y z
#    x 1.515510 0.000000 0.000000 
#    y 0.000000 1.515510 0.000000 
#    z 0.000000 0.000000 1.574190 
# 
# From -- ./inp_files/3267.got.cif
#   From: 2010.05.17/outbox.cif.g08.bks.cpg/sg192_2_cif.got.tgz:3267.got - 2010.05.20 12:28:01.
