data_PCOD9588376
_publ_section_title
;
Structure prediction by ZEFSAII (Michael W. Deem and Ramdas Pophale) SiO2 
 PCOD9588376
Probable space group: P 6/M C C
;
_chemical_formula_sum "Si O2"
_cell_formula_units_Z 84
_cell_length_a 33.212175
_cell_length_b 33.212175
_cell_length_c 5.440179
_cell_angle_alpha 90.000000
_cell_angle_beta 90.000000
_cell_angle_gamma 120.000000
_cell_volume 5196.829357
_symmetry_space_group_name_H-M "P 6/M C C"
_symmetry_group_IT_number 192
_symmetry_cell_setting 'hexagonal'
loop_
_space_group_symop_operation_xyz
x,y,z
x-y,x,z
-y,x-y,z
-x,-y,z
-x+y,-x,z
y,-x+y,z
x-y,-y,1/2-z
-x,-x+y,1/2-z
y,x,1/2-z
-y,-x,1/2-z
-x+y,y,1/2-z
x,x-y,1/2-z
-x,-y,-z
-x+y,-x,-z
y,-x+y,-z
x,y,-z
x-y,x,-z
-y,x-y,-z
-x+y,y,1/2+z
x,x-y,1/2+z
-y,-x,1/2+z
y,x,1/2+z
x-y,-y,1/2+z
-x,-x+y,1/2+z
loop_
_atom_site_type_symbol
_atom_site_label
_atom_site_fract_x
_atom_site_fract_y
_atom_site_fract_z
Si Si1 0.974233 0.376716 0.000000
Si Si2 0.438890 0.825846 0.000000
Si Si3 0.813485 0.274607 0.500000
Si Si4 0.507864 0.066295 0.000000
Si Si5 0.431816 0.299220 0.500000
Si Si6 0.194195 0.366810 0.000000
Si Si7 0.445740 0.734999 0.000000
O O1 0.921208 0.336050 0.000000
O O2 0.000000 0.377115 0.750000
O O3 0.969020 0.422473 0.000000
O O4 0.410127 0.820253 0.250000
O O5 0.480083 0.879618 0.000000
O O6 0.452490 0.786054 0.000000
O O7 0.841705 0.299616 0.746862
O O8 0.808634 0.223546 0.500000
O O9 0.761904 0.268301 0.500000
O O10 0.530419 0.060838 0.250000
O O11 0.385507 0.248522 0.500000
O O12 0.170790 0.341580 0.250000
O O13 0.420807 0.710404 0.250000
#
# Coordination Sequence:
#
# PCOD9588376 Si02
#       7
#    12  12  12  12  12  12  12
#     4  12  26  40  55  76  98 134 167 192 227 258
#     4  10  23  43  59  80 114 133 158 184 230 271
#     4  10  19  30  51  84 102 125 142 179 238 275
#     4  10  23  41  60  77  92 129 156 201 230 258
#     4  10  20  35  49  72 111 126 146 188 218 272
#     4   8  14  25  42  67  93 118 141 167 220 270
#     4  12  23  34  58  92 110 126 150 182 221 284
#
# _framework density 16.163703000000002
#
# number of rings (size 3 to 8) (size 9 to 14) (size 15 to 20)
#    0.000    1.714    0.000    6.000    6.000    1.714 
#    0.000    0.000    0.000    5.714    0.000    0.000 
#    0.000    0.000    0.000    0.000    0.000    0.000 
#
# Total GULP energy -469320.438264 kJ/mol
# GULP energy per Si atom -5587.148075 kJ/mol
# Density = 1.612691 g / cm^3
# Si number density = 16.163703 Si / 1000 Ang^3
#
#
#
# Elastic Constant Matrix: (Units=GPa)
#
#
# Indices 1 2 3 4 5 6 
#
# 1 61.3683 16.2500 37.6477 0.0000 0.0000 0.0000
# 2 16.2500 61.3683 37.6477 0.0000 0.0000 0.0000
# 3 37.6477 37.6477 185.0619 0.0000 0.0000 0.0000
# 4 0.0000 0.0000 0.0000 12.4385 0.0000 0.0000
# 5 0.0000 0.0000 0.0000 0.0000 12.4385 0.0000
# 6 0.0000 0.0000 0.0000 0.0000 0.0000 22.5591
#
#
#
# Elastic Compliance Matrix: (Units=1/GPa)
#
#
# Indices 1 2 3 4 5 6 
#
# 1 0.019108 -0.003056 -0.003265 0.000000 0.000000 0.000000
# 2 -0.003056 0.019108 -0.003265 0.000000 0.000000 0.000000
# 3 -0.003265 -0.003265 0.006732 0.000000 0.000000 0.000000
# 4 0.000000 0.000000 0.000000 0.080395 0.000000 0.000000
# 5 0.000000 0.000000 0.000000 0.000000 0.080395 0.000000
# 6 0.000000 0.000000 0.000000 0.000000 0.000000 0.044328
#
#
# Mechanical properties :
#
#
# Convention : Reuss Voigt Hill
#
# Bulk Modulus (GPa) = 38.80009 54.54325 46.67167
# Shear Modulus (GPa) = 17.99654 23.90411 20.95033
#
# Velocity S-wave (km/s) = 3.34037 3.84979 3.60409
# Velocity P-wave (km/s) = 6.23971 7.31975 6.80120
#
# Compressibility (1/GPa) = 0.02577314
#
# Stress axis : x y z
#
# Youngs Moduli (GPa) = 52.33530 52.33530 148.54098
#
# Poissons Ratio (x) = 0.15996 0.48504
# Poissons Ratio (y) = 0.15996 0.48504
# Poissons Ratio (z) = 0.17089 0.17089
#
# Static dielectric constant tensor:
#      x y z
#    x 1.534440 0.000000 0.000000 
#    y 0.000000 1.534440 0.000000 
#    z 0.000000 0.000000 1.691110 
# 
# From -- ./inp_files/73.got.cif
#   From: 2010.05.17/outbox.cif.g08.bks.cpg/sg192_1_cif.got.tgz:73.got - 2010.05.20 12:28:01.
