data_PCOD9588357
_publ_section_title
;
Structure prediction by ZEFSAII (Michael W. Deem and Ramdas Pophale) SiO2 
 PCOD9588357
Probable space group: P 6/M C C
;
_chemical_formula_sum "Si O2"
_cell_formula_units_Z 132
_cell_length_a 18.251513
_cell_length_b 18.251513
_cell_length_c 24.174019
_cell_angle_alpha 90.000000
_cell_angle_beta 90.000000
_cell_angle_gamma 120.000000
_cell_volume 6973.924398
_symmetry_space_group_name_H-M "P 6/M C C"
_symmetry_group_IT_number 192
_symmetry_cell_setting 'hexagonal'
loop_
_space_group_symop_operation_xyz
x,y,z
x-y,x,z
-y,x-y,z
-x,-y,z
-x+y,-x,z
y,-x+y,z
x-y,-y,1/2-z
-x,-x+y,1/2-z
y,x,1/2-z
-y,-x,1/2-z
-x+y,y,1/2-z
x,x-y,1/2-z
-x,-y,-z
-x+y,-x,-z
y,-x+y,-z
x,y,-z
x-y,x,-z
-y,x-y,-z
-x+y,y,1/2+z
x,x-y,1/2+z
-y,-x,1/2+z
y,x,1/2+z
x-y,-y,1/2+z
-x,-x+y,1/2+z
loop_
_atom_site_type_symbol
_atom_site_label
_atom_site_fract_x
_atom_site_fract_y
_atom_site_fract_z
Si Si1 0.465865 0.367050 0.622023
Si Si2 0.506823 0.666457 0.000000
Si Si3 0.506824 0.666457 0.500000
Si Si4 0.201247 0.100625 0.000000
Si Si5 0.098816 0.632949 0.622023
Si Si6 0.809619 0.190381 0.184168
Si Si7 0.102379 0.897619 0.622328
O O1 0.453952 0.343408 0.556896
O O2 0.415268 0.415269 0.634916
O O3 0.565256 0.434743 0.630540
O O4 0.428777 0.284063 0.658611
O O5 0.410232 0.589767 0.000000
O O6 0.510467 0.755234 0.000000
O O7 0.546047 0.656591 0.943104
O O8 0.142560 0.142561 0.000000
O O9 0.244869 0.122435 0.059843
O O10 0.144716 0.715937 0.658610
O O11 0.807907 0.192094 0.250000
O O12 0.858403 0.141595 0.163944
O O13 0.999999 0.852782 0.627844
#
# Coordination Sequence:
#
# PCOD9588357 Si02
#       7
#    24  12  12  12  24  24  24
#     4  10  22  41  65  92 123 159 200 249 309 373
#     4  10  18  34  62  97 128 155 188 238 307 376
#     4  10  18  34  62  97 128 155 188 238 307 376
#     4   8  15  30  54  86 120 154 194 244 306 368
#     4  10  22  41  65  92 123 159 200 249 309 373
#     4  12  26  43  61  87 120 164 217 265 305 354
#     4  10  21  38  62  92 126 164 206 257 315 375
#
# _framework density 18.92765
#
# number of rings (size 3 to 8) (size 9 to 14) (size 15 to 20)
#    0.000    1.818    1.818    2.091    0.000    8.727 
#    1.091    5.455    0.000    1.091    0.000    0.000 
#    0.000    0.000    0.000    0.000    0.000    0.000 
#
# Total GULP energy -736872.418249 kJ/mol
# GULP energy per Si atom -5582.366805 kJ/mol
# Density = 1.888457 g / cm^3
# Si number density = 18.927650 Si / 1000 Ang^3
#
#
#
# Elastic Constant Matrix: (Units=GPa)
#
#
# Indices 1 2 3 4 5 6 
#
# 1 97.9278 64.7532 74.3406 0.0000 0.0000 0.0000
# 2 64.7532 97.9278 74.3406 0.0000 0.0000 0.0000
# 3 74.3406 74.3406 149.6635 0.0000 0.0000 0.0000
# 4 0.0000 0.0000 0.0000 -17.9886 0.0000 0.0000
# 5 0.0000 0.0000 0.0000 0.0000 -17.9886 0.0000
# 6 0.0000 0.0000 0.0000 0.0000 0.0000 16.5873
#
#
#
# Elastic Compliance Matrix: (Units=1/GPa)
#
#
# Indices 1 2 3 4 5 6 
#
# 1 0.020701 -0.009443 -0.005592 0.000000 0.000000 0.000000
# 2 -0.009443 0.020701 -0.005592 0.000000 0.000000 0.000000
# 3 -0.005592 -0.005592 0.012237 0.000000 0.000000 0.000000
# 4 0.000000 0.000000 0.000000 -0.055591 0.000000 0.000000
# 5 0.000000 0.000000 0.000000 0.000000 -0.055591 0.000000
# 6 0.000000 0.000000 0.000000 0.000000 0.000000 0.060287
#
#
# Mechanical properties :
#
#
# Convention : Reuss Voigt Hill
#
# Bulk Modulus (GPa) = 80.74532 85.82091 83.28311
# Shear Modulus (GPa) = 103.89615 4.92768 54.41191
#
# Velocity S-wave (km/s) = 7.41690 1.61527 5.36747
# Velocity P-wave (km/s) = 10.77496 6.99419 9.08346
#
# Compressibility (1/GPa) = 0.01238462
#
# Stress axis : x y z
#
# Youngs Moduli (GPa) = 48.30781 48.30781 81.72034
#
# Poissons Ratio (x) = 0.45617 0.45697
# Poissons Ratio (y) = 0.45617 0.45697
# Poissons Ratio (z) = 0.27013 0.27013
#
# Static dielectric constant tensor:
#      x y z
#    x 1.641850 0.000000 0.000000 
#    y 0.000000 1.641850 0.000000 
#    z 0.000000 0.000000 1.657040 
# 
# From -- ./inp_files/5871.got.cif
#   From: 2010.05.17/outbox.cif.g08.bks.cpg/sg192_3_cif.got.tgz:5871.got - 2010.05.20 12:28:01.
