data_PCOD9588111
_publ_section_title
;
Structure prediction by ZEFSAII (Michael W. Deem and Ramdas Pophale) SiO2 
 PCOD9588111
Probable space group: P 6/M M M
;
_chemical_formula_sum "Si O2"
_cell_formula_units_Z 168
_cell_length_a 30.321998
_cell_length_b 30.321998
_cell_length_c 12.109513
_cell_angle_alpha 90.000000
_cell_angle_beta 90.000000
_cell_angle_gamma 120.000000
_cell_volume 9642.129033
_symmetry_space_group_name_H-M "P 6/M M M"
_symmetry_group_IT_number 191
_symmetry_cell_setting 'hexagonal'
loop_
_space_group_symop_operation_xyz
x,y,z
x-y,x,z
-y,x-y,z
-x,-y,z
-x+y,-x,z
y,-x+y,z
x-y,-y,-z
-x,-x+y,-z
y,x,-z
-y,-x,-z
-x+y,y,-z
x,x-y,-z
-x,-y,-z
-x+y,-x,-z
y,-x+y,-z
x,y,-z
x-y,x,-z
-y,x-y,-z
-x+y,y,z
x,x-y,z
-y,-x,z
y,x,z
x-y,-y,z
-x,-x+y,z
loop_
_atom_site_type_symbol
_atom_site_label
_atom_site_fract_x
_atom_site_fract_y
_atom_site_fract_z
Si Si1 0.475343 0.851621 0.500000
Si Si2 0.411145 0.356367 0.500000
Si Si3 0.702077 0.504003 0.679614
Si Si4 0.785366 0.942103 0.134081
Si Si5 0.685200 0.093887 0.728206
Si Si6 0.582044 0.520310 0.869341
Si Si7 0.567816 0.233420 0.873089
Si Si8 0.115951 0.781679 0.867390
O O1 0.434023 0.868046 0.500000
O O2 0.530884 0.900523 0.500000
O O3 0.471138 0.817737 0.604612
O O4 0.406080 0.406080 0.500000
O O5 0.388671 0.328188 0.616717
O O6 0.750421 0.500841 0.640660
O O7 0.711410 0.560177 0.681623
O O8 0.688558 0.482471 0.802436
O O9 0.800290 0.900145 0.171115
O O10 0.725626 0.918984 0.160432
O O11 0.820015 0.000000 0.173557
O O12 0.787915 0.943241 0.000000
O O13 0.632703 0.081942 0.793050
O O14 0.727325 0.094243 0.808442
O O15 0.538685 0.461316 0.839793
O O16 0.552349 0.552349 0.861962
O O17 0.595135 0.520120 0.000000
O O18 0.611605 0.223210 0.831504
O O19 0.586991 0.293496 0.866922
O O20 0.557647 0.218138 0.000000
O O21 0.174494 0.825507 0.839425
O O22 0.114588 0.774860 0.000000
#
# Coordination Sequence:
#
# PCOD9588111 Si02
#       8
#    12  12  24  24  24  24  24  24
#     4  10  21  38  60  77  88 113 155 197 241 296
#     4  10  24  40  52  73 102 129 163 208 251 295
#     4  10  21  35  50  70  95 119 147 189 236 281
#     4   8  14  25  42  67 100 136 172 210 252 294
#     4  11  21  35  54  73  95 132 171 201 245 306
#     4   9  19  35  53  75 102 128 158 204 262 318
#     4   9  17  29  45  65  90 119 148 179 221 277
#     4   9  18  32  51  78 108 134 167 215 265 311
#
# _framework density 17.423537
#
# number of rings (size 3 to 8) (size 9 to 14) (size 15 to 20)
#    0.000    2.571    0.000    3.357    0.000    5.857 
#    0.000    5.357    0.000    2.143    0.000    1.000 
#    0.000    0.000    0.000    0.000    0.000    0.000 
#
# Total GULP energy -935576.854158 kJ/mol
# GULP energy per Si atom -5568.909846 kJ/mol
# Density = 1.738388 g / cm^3
# Si number density = 17.423537 Si / 1000 Ang^3
#
#
#
# Elastic Constant Matrix: (Units=GPa)
#
#
# Indices 1 2 3 4 5 6 
#
# 1 79.1982 50.6200 30.9726 0.0000 0.0000 0.0000
# 2 50.6200 79.1982 30.9726 0.0000 0.0000 0.0000
# 3 30.9726 30.9726 61.0403 0.0000 0.0000 0.0000
# 4 0.0000 0.0000 0.0000 12.4614 0.0000 0.0000
# 5 0.0000 0.0000 0.0000 0.0000 12.4614 0.0000
# 6 0.0000 0.0000 0.0000 0.0000 0.0000 14.2891
#
#
#
# Elastic Compliance Matrix: (Units=1/GPa)
#
#
# Indices 1 2 3 4 5 6 
#
# 1 0.022578 -0.012414 -0.005157 0.000000 0.000000 0.000000
# 2 -0.012414 0.022578 -0.005157 0.000000 0.000000 0.000000
# 3 -0.005157 -0.005157 0.021616 0.000000 0.000000 0.000000
# 4 0.000000 0.000000 0.000000 0.080248 0.000000 0.000000
# 5 0.000000 0.000000 0.000000 0.000000 0.080248 0.000000
# 6 0.000000 0.000000 0.000000 0.000000 0.000000 0.069983
#
#
# Mechanical properties :
#
#
# Convention : Reuss Voigt Hill
#
# Bulk Modulus (GPa) = 46.91522 49.39637 48.15580
# Shear Modulus (GPa) = 14.29334 14.96715 14.63024
#
# Velocity S-wave (km/s) = 2.86728 2.93408 2.90087
# Velocity P-wave (km/s) = 6.16007 6.31588 6.23846
#
# Compressibility (1/GPa) = 0.02131505
#
# Stress axis : x y z
#
# Youngs Moduli (GPa) = 44.29120 44.29120 46.26116
#
# Poissons Ratio (x) = 0.54982 0.23858
# Poissons Ratio (y) = 0.54982 0.23858
# Poissons Ratio (z) = 0.22842 0.22842
#
# Static dielectric constant tensor:
#      x y z
#    x 1.607990 0.000000 0.000000 
#    y 0.000000 1.607990 0.000000 
#    z 0.000000 0.000000 1.619480 
# 
# From -- ./inp_files/3659.got.cif
#   From: 2010.05.17/outbox.cif.g08.bks.cpg/sg191_2_cif.got.tgz:3659.got - 2010.05.20 12:20:32.
