data_PCOD9588555
_publ_section_title
;
Structure prediction by ZEFSAII (Michael W. Deem and Ramdas Pophale) SiO2 
 PCOD9588555
Probable space group: P 6/M C C
;
_chemical_formula_sum "Si O2"
_cell_formula_units_Z 144
_cell_length_a 33.128138
_cell_length_b 33.128138
_cell_length_c 8.620661
_cell_angle_alpha 90.000000
_cell_angle_beta 90.000000
_cell_angle_gamma 120.000000
_cell_volume 8193.420650
_symmetry_space_group_name_H-M "P 6/M C C"
_symmetry_group_IT_number 192
_symmetry_cell_setting 'hexagonal'
loop_
_space_group_symop_operation_xyz
x,y,z
x-y,x,z
-y,x-y,z
-x,-y,z
-x+y,-x,z
y,-x+y,z
x-y,-y,1/2-z
-x,-x+y,1/2-z
y,x,1/2-z
-y,-x,1/2-z
-x+y,y,1/2-z
x,x-y,1/2-z
-x,-y,-z
-x+y,-x,-z
y,-x+y,-z
x,y,-z
x-y,x,-z
-y,x-y,-z
-x+y,y,1/2+z
x,x-y,1/2+z
-y,-x,1/2+z
y,x,1/2+z
x-y,-y,1/2+z
-x,-x+y,1/2+z
loop_
_atom_site_type_symbol
_atom_site_label
_atom_site_fract_x
_atom_site_fract_y
_atom_site_fract_z
Si Si1 0.808118 0.705131 0.814146
Si Si2 0.380443 0.283120 0.186802
Si Si3 0.386071 0.525865 0.313464
Si Si4 0.949716 0.385706 0.814653
Si Si5 0.051273 0.191293 0.814077
Si Si6 0.192131 0.719482 0.314142
O O1 0.845899 0.691797 0.750000
O O2 0.757046 0.667503 0.756383
O O3 0.824933 0.756443 0.747420
O O4 0.810318 0.706891 0.000000
O O5 0.397815 0.334571 0.251837
O O6 0.421749 0.272355 0.230592
O O7 0.377766 0.283781 0.000000
O O8 0.424576 0.575425 0.250000
O O9 0.387785 0.525216 0.500000
O O10 0.395258 0.485622 0.248469
O O11 0.333092 0.509966 0.265468
O O12 0.000000 0.422603 0.750000
O O13 0.949561 0.385565 0.000000
O O14 0.089563 0.179125 0.750000
O O15 0.000000 0.157183 0.750000
O O16 0.051837 0.191560 0.000000
O O17 0.240455 0.759546 0.250000
O O18 0.194212 0.720909 0.500000
#
# Coordination Sequence:
#
# PCOD9588555 Si02
#       6
#    24  24  24  24  24  24
#     4  11  21  34  52  78 109 145 184 224 267 316
#     4  10  20  35  52  76 109 145 184 228 268 314
#     4  10  21  38  57  81 108 138 176 222 269 321
#     4  11  22  37  55  77 105 141 181 225 272 321
#     4  11  22  39  60  84 111 143 180 222 268 319
#     4   9  19  33  53  79 108 137 172 214 262 316
#
# _framework density 17.575078000000001
#
# number of rings (size 3 to 8) (size 9 to 14) (size 15 to 20)
#    0.000    1.667    0.000    8.000    0.000    6.333 
#    0.000    5.000    0.000    0.500    0.000    1.167 
#    0.000    0.000    0.000    0.000    0.000    0.000 
#
# Total GULP energy -804628.918818 kJ/mol
# GULP energy per Si atom -5587.700825 kJ/mol
# Density = 1.753508 g / cm^3
# Si number density = 17.575078 Si / 1000 Ang^3
#
#
#
# Elastic Constant Matrix: (Units=GPa)
#
#
# Indices 1 2 3 4 5 6 
#
# 1 87.5294 67.3651 39.6267 0.0000 0.0000 0.0000
# 2 67.3651 87.5294 39.6267 0.0000 0.0000 0.0000
# 3 39.6267 39.6267 131.0989 0.0000 0.0000 0.0000
# 4 0.0000 0.0000 0.0000 31.7203 0.0000 0.0000
# 5 0.0000 0.0000 0.0000 0.0000 31.7203 0.0000
# 6 0.0000 0.0000 0.0000 0.0000 0.0000 10.0821
#
#
#
# Elastic Compliance Matrix: (Units=1/GPa)
#
#
# Indices 1 2 3 4 5 6 
#
# 1 0.028615 -0.020978 -0.002308 0.000000 0.000000 0.000000
# 2 -0.020978 0.028615 -0.002308 0.000000 0.000000 0.000000
# 3 -0.002308 -0.002308 0.009023 0.000000 0.000000 0.000000
# 4 0.000000 0.000000 0.000000 0.031526 0.000000 0.000000
# 5 0.000000 0.000000 0.000000 0.000000 0.031526 0.000000
# 6 0.000000 0.000000 0.000000 0.000000 0.000000 0.099185
#
#
# Mechanical properties :
#
#
# Convention : Reuss Voigt Hill
#
# Bulk Modulus (GPa) = 66.38406 66.59944 66.49175
# Shear Modulus (GPa) = 17.56233 25.34050 21.45141
#
# Velocity S-wave (km/s) = 3.16456 3.80128 3.49744
# Velocity P-wave (km/s) = 7.15586 7.56590 7.36373
#
# Compressibility (1/GPa) = 0.01506386
#
# Stress axis : x y z
#
# Youngs Moduli (GPa) = 34.94679 34.94679 110.82347
#
# Poissons Ratio (x) = 0.73311 0.25583
# Poissons Ratio (y) = 0.73311 0.25583
# Poissons Ratio (z) = 0.08067 0.08067
#
# Static dielectric constant tensor:
#      x y z
#    x 1.585960 0.000000 0.000000 
#    y 0.000000 1.585960 0.000000 
#    z 0.000000 0.000000 1.584470 
# 
# From -- ./inp_files/1171.got.cif
#   From: 2010.05.17/outbox.cif.g08.bks.cpg/sg192_1_cif.got.tgz:1171.got - 2010.05.20 12:28:01.
