data_PCOD9588863
_publ_section_title
;
Structure prediction by ZEFSAII (Michael W. Deem and Ramdas Pophale) SiO2 
 PCOD9588863
Probable space group: P 6/M C C
;
_chemical_formula_sum "Si O2"
_cell_formula_units_Z 168
_cell_length_a 27.000000
_cell_length_b 27.000000
_cell_length_c 15.000000
_cell_angle_alpha 90.000000
_cell_angle_beta 90.000000
_cell_angle_gamma 120.000000
_cell_volume 9469.987790
_symmetry_space_group_name_H-M "P 6/M C C"
_symmetry_group_IT_number 192
_symmetry_cell_setting 'hexagonal'
loop_
_space_group_symop_operation_xyz
x,y,z
x-y,x,z
-y,x-y,z
-x,-y,z
-x+y,-x,z
y,-x+y,z
x-y,-y,1/2-z
-x,-x+y,1/2-z
y,x,1/2-z
-y,-x,1/2-z
-x+y,y,1/2-z
x,x-y,1/2-z
-x,-y,-z
-x+y,-x,-z
y,-x+y,-z
x,y,-z
x-y,x,-z
-y,x-y,-z
-x+y,y,1/2+z
x,x-y,1/2+z
-y,-x,1/2+z
y,x,1/2+z
x-y,-y,1/2+z
-x,-x+y,1/2+z
loop_
_atom_site_type_symbol
_atom_site_label
_atom_site_fract_x
_atom_site_fract_y
_atom_site_fract_z
Si Si1 0.342461 0.925271 0.845792
Si Si2 0.786083 0.773937 0.649985
Si Si3 0.341212 0.119428 0.602770
Si Si4 0.395954 0.055862 0.848288
Si Si5 0.096547 0.970515 0.891927
Si Si6 0.486968 0.072171 0.500000
Si Si7 0.686067 0.900226 0.897009
Si Si8 0.528102 0.933022 0.000000
O O1 0.275236 0.883347 0.849275
O O2 0.362317 0.935615 0.745269
O O3 0.356744 0.989142 0.874144
O O4 0.376073 0.907711 0.912697
O O5 0.763923 0.763923 0.750000
O O6 0.772411 0.714978 0.606923
O O7 0.853529 0.815608 0.647106
O O8 0.751895 0.801804 0.605488
O O9 0.358016 0.132646 0.500000
O O10 0.323595 0.164128 0.637826
O O11 0.353106 0.080219 0.846491
O O12 0.446283 0.083353 0.917850
O O13 0.109814 0.033334 0.865340
O O14 0.099925 0.969002 0.000000
O O15 0.552599 0.091071 0.500000
O O16 0.447954 0.002406 0.500000
O O17 0.668163 0.893761 0.000000
#
# Coordination Sequence:
#
# PCOD9588863 Si02
#       8
#    24  24  24  24  24  12  24  12
#     4  10  19  32  51  74 102 135 171 214 257 302
#     4  12  24  35  49  71  96 123 161 213 267 329
#     4  11  22  35  52  72  96 133 178 221 270 324
#     4  10  19  32  51  74 102 135 171 214 257 302
#     4  10  21  38  56  70  84 108 147 201 270 344
#     4   9  18  32  51  74 102 135 167 200 234 280
#     4  11  22  35  52  72  96 133 178 221 270 324
#     4   9  18  32  51  74 102 135 167 200 234 280
#
# _framework density 17.740255000000001
#
# number of rings (size 3 to 8) (size 9 to 14) (size 15 to 20)
#    0.000    1.571    2.857    3.143    0.000    7.429 
#    0.000    2.857    0.000    0.857    0.000    0.000 
#    0.000    0.000    0.000    3.429    0.000    7.429 
#
# Total GULP energy -936478.857988 kJ/mol
# GULP energy per Si atom -5574.278917 kJ/mol
# Density = 1.769988 g / cm^3
# Si number density = 17.740255 Si / 1000 Ang^3
#
#
#
# Elastic Constant Matrix: (Units=GPa)
#
#
# Indices 1 2 3 4 5 6 
#
# 1 46.4802 15.8055 13.5348 0.0000 0.0000 0.0000
# 2 15.8055 46.4802 13.5348 0.0000 0.0000 0.0000
# 3 13.5348 13.5348 59.7274 0.0000 0.0000 0.0000
# 4 0.0000 0.0000 0.0000 62.3958 0.0000 0.0000
# 5 0.0000 0.0000 0.0000 0.0000 62.3958 0.0000
# 6 0.0000 0.0000 0.0000 0.0000 0.0000 15.3373
#
#
#
# Elastic Compliance Matrix: (Units=1/GPa)
#
#
# Indices 1 2 3 4 5 6 
#
# 1 0.025205 -0.007396 -0.004036 0.000000 0.000000 0.000000
# 2 -0.007396 0.025205 -0.004036 0.000000 0.000000 0.000000
# 3 -0.004036 -0.004036 0.018572 0.000000 0.000000 0.000000
# 4 0.000000 0.000000 0.000000 0.016027 0.000000 0.000000
# 5 0.000000 0.000000 0.000000 0.000000 0.016027 0.000000
# 6 0.000000 0.000000 0.000000 0.000000 0.000000 0.065200
#
#
# Mechanical properties :
#
#
# Convention : Reuss Voigt Hill
#
# Bulk Modulus (GPa) = 26.28326 26.49309 26.38818
# Shear Modulus (GPa) = 23.82643 35.34662 29.58652
#
# Velocity S-wave (km/s) = 3.66877 4.46853 4.08825
# Velocity P-wave (km/s) = 5.72663 6.44903 6.09854
#
# Compressibility (1/GPa) = 0.03804703
#
# Stress axis : x y z
#
# Youngs Moduli (GPa) = 39.67533 39.67533 53.84508
#
# Poissons Ratio (x) = 0.29342 0.21730
# Poissons Ratio (y) = 0.29342 0.21730
# Poissons Ratio (z) = 0.16012 0.16012
#
# Static dielectric constant tensor:
#      x y z
#    x 1.601210 0.000000 0.000000 
#    y 0.000000 1.601210 0.000000 
#    z 0.000000 0.000000 1.665790 
# 
# From -- ./inp_files/3470.got.cif
#   From: 2010.05.17/outbox.ucp.g08.bks.cvg/sg192_2_cif.got.tgz:3470.got - 2010.06.11 15:23:19.
