data_PCOD9588767
_publ_section_title
;
Structure prediction by ZEFSAII (Michael W. Deem and Ramdas Pophale) SiO2 
 PCOD9588767
Probable space group: P 6/M C C
;
_chemical_formula_sum "Si O2"
_cell_formula_units_Z 84
_cell_length_a 17.609554
_cell_length_b 17.609554
_cell_length_c 14.565669
_cell_angle_alpha 90.000000
_cell_angle_beta 90.000000
_cell_angle_gamma 120.000000
_cell_volume 3911.630120
_symmetry_space_group_name_H-M "P 6/M C C"
_symmetry_group_IT_number 192
_symmetry_cell_setting 'hexagonal'
loop_
_space_group_symop_operation_xyz
x,y,z
x-y,x,z
-y,x-y,z
-x,-y,z
-x+y,-x,z
y,-x+y,z
x-y,-y,1/2-z
-x,-x+y,1/2-z
y,x,1/2-z
-y,-x,1/2-z
-x+y,y,1/2-z
x,x-y,1/2-z
-x,-y,-z
-x+y,-x,-z
y,-x+y,-z
x,y,-z
x-y,x,-z
-y,x-y,-z
-x+y,y,1/2+z
x,x-y,1/2+z
-y,-x,1/2+z
y,x,1/2+z
x-y,-y,1/2+z
-x,-x+y,1/2+z
loop_
_atom_site_type_symbol
_atom_site_label
_atom_site_fract_x
_atom_site_fract_y
_atom_site_fract_z
Si Si1 0.795798 0.892818 0.500000
Si Si2 0.925905 0.192675 0.813579
Si Si3 0.648942 0.499656 0.000000
Si Si4 0.391509 0.389653 0.144205
Si Si5 0.483509 0.160410 0.500000
O O1 0.856975 0.851535 0.500000
O O2 0.746520 0.861419 0.594743
O O3 0.840914 0.159086 0.750000
O O4 0.977892 0.291393 0.846208
O O5 0.000000 0.186574 0.750000
O O6 0.617825 0.537575 0.914668
O O7 0.752796 0.527823 0.000000
O O8 0.586798 0.395009 0.000000
O O9 0.418339 0.418339 0.250000
O O10 0.442074 0.349222 0.087192
#
# Coordination Sequence:
#
# PCOD9588767 Si02
#       5
#    12  24  12  24  12
#     4  12  23  36  52  76 115 168 218 280 348 420
#     4  11  23  38  61  91 126 166 226 292 348 413
#     4  11  25  44  73 100 145 183 237 293 357 440
#     4  10  24  42  70  99 140 180 233 292 357 422
#     4  11  25  46  69 108 139 191 233 293 365 432
#
# _framework density 21.474423000000002
#
# number of rings (size 3 to 8) (size 9 to 14) (size 15 to 20)
#    0.000    1.143    2.857    3.857    8.000    4.571 
#    0.000    0.000    0.000    3.429    0.000    0.000 
#    0.000    0.000    0.000    0.000    0.000    0.000 
#
# Total GULP energy -468000.347827 kJ/mol
# GULP energy per Si atom -5571.432712 kJ/mol
# Density = 2.142555 g / cm^3
# Si number density = 21.474423 Si / 1000 Ang^3
#
#
#
# Elastic Constant Matrix: (Units=GPa)
#
#
# Indices 1 2 3 4 5 6 
#
# 1 113.7695 33.6029 45.3417 0.0000 0.0000 0.0000
# 2 33.6029 113.7695 45.3417 0.0000 0.0000 0.0000
# 3 45.3417 45.3417 181.5392 0.0000 0.0000 0.0000
# 4 0.0000 0.0000 0.0000 23.7007 0.0000 0.0000
# 5 0.0000 0.0000 0.0000 0.0000 23.7007 0.0000
# 6 0.0000 0.0000 0.0000 0.0000 0.0000 40.0833
#
#
#
# Elastic Compliance Matrix: (Units=1/GPa)
#
#
# Indices 1 2 3 4 5 6 
#
# 1 0.010246 -0.002228 -0.002003 0.000000 0.000000 0.000000
# 2 -0.002228 0.010246 -0.002003 0.000000 0.000000 0.000000
# 3 -0.002003 -0.002003 0.006509 0.000000 0.000000 0.000000
# 4 0.000000 0.000000 0.000000 0.042193 0.000000 0.000000
# 5 0.000000 0.000000 0.000000 0.000000 0.042193 0.000000
# 6 0.000000 0.000000 0.000000 0.000000 0.000000 0.024948
#
#
# Mechanical properties :
#
#
# Convention : Reuss Voigt Hill
#
# Bulk Modulus (GPa) = 68.80345 73.07227 70.93786
# Shear Modulus (GPa) = 32.54243 36.48305 34.51274
#
# Velocity S-wave (km/s) = 3.89704 4.12625 4.01328
# Velocity P-wave (km/s) = 7.23592 7.53676 7.38787
#
# Compressibility (1/GPa) = 0.01453415
#
# Stress axis : x y z
#
# Youngs Moduli (GPa) = 97.60008 97.60008 153.63888
#
# Poissons Ratio (x) = 0.21747 0.30767
# Poissons Ratio (y) = 0.21747 0.30767
# Poissons Ratio (z) = 0.19545 0.19545
#
# Static dielectric constant tensor:
#      x y z
#    x 1.824090 0.000000 0.000000 
#    y 0.000000 1.824090 0.000000 
#    z 0.000000 0.000000 1.827520 
# 
# From -- ./inp_files/2611.got.cif
#   From: 2010.05.17/outbox.cif.g08.bks.cpg/sg192_2_cif.got.tgz:2611.got - 2010.05.20 12:28:01.
