data_PCOD9588304
_publ_section_title
;
Structure prediction by ZEFSAII (Michael W. Deem and Ramdas Pophale) SiO2 
 PCOD9588304
Probable space group: P 6/M C C
;
_chemical_formula_sum "Si O2"
_cell_formula_units_Z 164
_cell_length_a 22.528099
_cell_length_b 22.528099
_cell_length_c 24.132271
_cell_angle_alpha 90.000000
_cell_angle_beta 90.000000
_cell_angle_gamma 120.000000
_cell_volume 10606.642165
_symmetry_space_group_name_H-M "P 6/M C C"
_symmetry_group_IT_number 192
_symmetry_cell_setting 'hexagonal'
loop_
_space_group_symop_operation_xyz
x,y,z
x-y,x,z
-y,x-y,z
-x,-y,z
-x+y,-x,z
y,-x+y,z
x-y,-y,1/2-z
-x,-x+y,1/2-z
y,x,1/2-z
-y,-x,1/2-z
-x+y,y,1/2-z
x,x-y,1/2-z
-x,-y,-z
-x+y,-x,-z
y,-x+y,-z
x,y,-z
x-y,x,-z
-y,x-y,-z
-x+y,y,1/2+z
x,x-y,1/2+z
-y,-x,1/2+z
y,x,1/2+z
x-y,-y,1/2+z
-x,-x+y,1/2+z
loop_
_atom_site_type_symbol
_atom_site_label
_atom_site_fract_x
_atom_site_fract_y
_atom_site_fract_z
Si Si1 0.744582 0.801903 0.404876
Si Si2 0.689832 0.041843 0.935267
Si Si3 0.199537 0.672338 0.933025
Si Si4 0.666668 0.333334 0.067884
Si Si5 0.009910 0.865664 0.184437
Si Si6 0.579342 0.044732 0.567598
Si Si7 0.613669 0.809859 0.432397
Si Si8 0.160394 0.103545 0.500000
O O1 0.728929 0.729640 0.429884
O O2 0.788195 0.814127 0.349277
O O3 0.672770 0.800940 0.402988
O O4 0.792081 0.862879 0.446633
O O5 0.738685 0.118554 0.914213
O O6 0.613308 0.995244 0.912236
O O7 0.680323 0.050972 0.000000
O O8 0.263608 0.664861 0.913877
O O9 0.123591 0.615681 0.913510
O O10 0.207547 0.746237 0.921002
O O11 0.199234 0.666937 0.000000
O O12 0.666667 0.333334 0.000000
O O13 0.940066 0.865420 0.170518
O O14 0.000000 0.849477 0.250000
O O15 0.583704 0.047681 0.500000
O O16 0.500000 0.000000 0.582501
O O17 0.624971 0.811128 0.500000
O O18 0.103835 0.126488 0.500000
#
# Coordination Sequence:
#
# PCOD9588304 Si02
#       8
#    24  24  24   8  24  24  24  12
#     4  12  20  32  46  66  89 118 151 191 228 274
#     4  10  18  28  42  61  86 119 153 186 226 270
#     4   9  17  28  39  56  80 115 157 198 229 272
#     4   9  18  27  39  54  81 117 162 202 236 268
#     4  10  21  36  52  67  85 114 153 196 238 278
#     4   9  17  27  39  56  81 113 154 195 228 264
#     4  10  18  28  42  60  85 116 152 188 230 279
#     4  12  23  32  44  62  89 118 150 188 230 272
#
# _framework density 15.462009
#
# number of rings (size 3 to 8) (size 9 to 14) (size 15 to 20)
#    0.000    1.902    2.927    2.854    2.049    0.585 
#    0.000    1.463    0.000    0.000    0.000    0.000 
#    0.000    0.585    0.000    0.146    0.000    1.171 
#
# Total GULP energy -913819.951076 kJ/mol
# GULP energy per Si atom -5572.072872 kJ/mol
# Density = 1.542682 g / cm^3
# Si number density = 15.462009 Si / 1000 Ang^3
#
#
#
# Elastic Constant Matrix: (Units=GPa)
#
#
# Indices 1 2 3 4 5 6 
#
# 1 100.7865 66.9956 8.3249 0.0000 -0.0001 0.0001
# 2 66.9956 100.7856 8.3248 0.0001 0.0000 -0.0002
# 3 8.3249 8.3248 17.8060 0.0000 0.0000 0.0000
# 4 0.0000 0.0001 0.0000 7.0326 0.0000 0.0000
# 5 -0.0001 0.0000 0.0000 0.0000 7.0326 0.0000
# 6 0.0001 -0.0002 0.0000 0.0000 0.0000 16.8949
#
#
#
# Elastic Compliance Matrix: (Units=1/GPa)
#
#
# Indices 1 2 3 4 5 6 
#
# 1 0.017922 -0.011672 -0.002922 0.000000 0.000000 0.000000
# 2 -0.011672 0.017922 -0.002922 0.000000 0.000000 0.000000
# 3 -0.002922 -0.002922 0.058893 0.000000 0.000000 0.000000
# 4 0.000000 0.000000 0.000000 0.142194 -0.000001 0.000000
# 5 0.000000 0.000000 0.000000 -0.000001 0.142195 0.000000
# 6 0.000000 0.000000 0.000000 0.000000 0.000000 0.059190
#
#
# Mechanical properties :
#
#
# Convention : Reuss Voigt Hill
#
# Bulk Modulus (GPa) = 16.74905 42.96318 29.85612
# Shear Modulus (GPa) = 10.13683 15.24087 12.68885
#
# Velocity S-wave (km/s) = 2.56324 3.14299 2.86780
# Velocity P-wave (km/s) = 4.42901 6.40451 5.50608
#
# Compressibility (1/GPa) = 0.05970487
#
# Stress axis : x y z
#
# Youngs Moduli (GPa) = 55.79716 55.79666 16.97993
#
# Poissons Ratio (x) = 0.65126 0.04962
# Poissons Ratio (y) = 0.65127 0.04962
# Poissons Ratio (z) = 0.16305 0.16304
#
# Static dielectric constant tensor:
#      x y z
#    x 1.528890 0.000000 0.000000 
#    y 0.000000 1.528900 0.000000 
#    z 0.000000 0.000000 1.495050 
# 
# From -- ./inp_files/6671.got.cif
#   From: 2010.05.17/outbox.cif.g08.bks.cpg/sg192_4_cif.got.tgz:6671.got - 2010.05.20 12:28:01.
