data_PCOD9588752
_publ_section_title
;
Structure prediction by ZEFSAII (Michael W. Deem and Ramdas Pophale) SiO2 
 PCOD9588752
Probable space group: P 6/M C C
;
_chemical_formula_sum "Si O2"
_cell_formula_units_Z 60
_cell_length_a 16.908987
_cell_length_b 16.908987
_cell_length_c 12.844731
_cell_angle_alpha 90.000000
_cell_angle_beta 90.000000
_cell_angle_gamma 120.000000
_cell_volume 3180.466501
_symmetry_space_group_name_H-M "P 6/M C C"
_symmetry_group_IT_number 192
_symmetry_cell_setting 'hexagonal'
loop_
_space_group_symop_operation_xyz
x,y,z
x-y,x,z
-y,x-y,z
-x,-y,z
-x+y,-x,z
y,-x+y,z
x-y,-y,1/2-z
-x,-x+y,1/2-z
y,x,1/2-z
-y,-x,1/2-z
-x+y,y,1/2-z
x,x-y,1/2-z
-x,-y,-z
-x+y,-x,-z
y,-x+y,-z
x,y,-z
x-y,x,-z
-y,x-y,-z
-x+y,y,1/2+z
x,x-y,1/2+z
-y,-x,1/2+z
y,x,1/2+z
x-y,-y,1/2+z
-x,-x+y,1/2+z
loop_
_atom_site_type_symbol
_atom_site_label
_atom_site_fract_x
_atom_site_fract_y
_atom_site_fract_z
Si Si1 0.862457 0.286767 0.193207
Si Si2 0.564647 0.955059 0.385527
Si Si3 0.300549 0.550279 0.000000
O O1 0.811734 0.188266 0.250000
O O2 0.882529 0.352212 0.293246
O O3 0.798457 0.290212 0.102925
O O4 0.962774 0.333355 0.142210
O O5 0.568852 0.921332 0.500000
O O6 0.500000 0.000000 0.388249
O O7 0.401348 0.640428 0.000000
#
# Coordination Sequence:
#
# PCOD9588752 Si02
#       3
#    24  24  12
#     4  11  23  36  57  76 103 139 183 225 279 326
#     4  10  23  38  56  75 105 141 179 221 276 333
#     4  10  26  34  51  79 109 130 182 240 286 323
#
# _framework density 18.865158000000001
#
# number of rings (size 3 to 8) (size 9 to 14) (size 15 to 20)
#    0.400    1.200    2.000    2.400   14.000    0.000 
#    0.000    0.000    0.000    0.000    0.000    0.000 
#    0.000    0.000    0.000   38.400    0.000   83.200 
#
# Total GULP energy -334226.027769 kJ/mol
# GULP energy per Si atom -5570.433796 kJ/mol
# Density = 1.882222 g / cm^3
# Si number density = 18.865158 Si / 1000 Ang^3
#
#
#
# Elastic Constant Matrix: (Units=GPa)
#
#
# Indices 1 2 3 4 5 6 
#
# 1 55.9527 10.7689 25.6602 0.0000 0.0000 0.0000
# 2 10.7689 55.9527 25.6602 0.0000 0.0000 0.0000
# 3 25.6602 25.6602 182.7075 0.0000 0.0000 0.0000
# 4 0.0000 0.0000 0.0000 16.2853 0.0000 0.0000
# 5 0.0000 0.0000 0.0000 0.0000 16.2853 0.0000
# 6 0.0000 0.0000 0.0000 0.0000 0.0000 22.5919
#
#
#
# Elastic Compliance Matrix: (Units=1/GPa)
#
#
# Indices 1 2 3 4 5 6 
#
# 1 0.019467 -0.002665 -0.002360 0.000000 0.000000 0.000000
# 2 -0.002665 0.019467 -0.002360 0.000000 0.000000 0.000000
# 3 -0.002360 -0.002360 0.006136 0.000000 0.000000 0.000000
# 4 0.000000 0.000000 0.000000 0.061405 0.000000 0.000000
# 5 0.000000 0.000000 0.000000 0.000000 0.061405 0.000000
# 6 0.000000 0.000000 0.000000 0.000000 0.000000 0.044264
#
#
# Mechanical properties :
#
#
# Convention : Reuss Voigt Hill
#
# Bulk Modulus (GPa) = 33.00085 46.53240 39.76662
# Shear Modulus (GPa) = 21.09582 26.53406 23.81494
#
# Velocity S-wave (km/s) = 3.34764 3.75442 3.55685
# Velocity P-wave (km/s) = 5.69853 6.59648 6.16388
#
# Compressibility (1/GPa) = 0.03030225
#
# Stress axis : x y z
#
# Youngs Moduli (GPa) = 51.36814 51.36814 162.97034
#
# Poissons Ratio (x) = 0.13687 0.38459
# Poissons Ratio (y) = 0.13687 0.38459
# Poissons Ratio (z) = 0.12122 0.12122
#
# Static dielectric constant tensor:
#      x y z
#    x 1.704280 0.000000 0.000000 
#    y 0.000000 1.704280 0.000000 
#    z 0.000000 0.000000 1.709790 
# 
# From -- ./inp_files/2322.got.cif
#   From: 2010.05.17/outbox.cif.g08.bks.cpg/sg192_2_cif.got.tgz:2322.got - 2010.05.20 12:28:01.
