data_PCOD9588873
_publ_section_title
;
Structure prediction by ZEFSAII (Michael W. Deem and Ramdas Pophale) SiO2 
 PCOD9588873
Probable space group: P 63/M C M
;
_chemical_formula_sum "Si O2"
_cell_formula_units_Z 132
_cell_length_a 24.286067
_cell_length_b 24.286067
_cell_length_c 13.962896
_cell_angle_alpha 90.000000
_cell_angle_beta 90.000000
_cell_angle_gamma 120.000000
_cell_volume 7132.150724
_symmetry_space_group_name_H-M "P 63/M C M"
_symmetry_group_IT_number 193
_symmetry_cell_setting 'hexagonal'
loop_
_space_group_symop_operation_xyz
x,y,z
x-y,x,1/2+z
-y,x-y,z
-x,-y,1/2+z
-x+y,-x,z
y,-x+y,1/2+z
x-y,-y,1/2-z
-x,-x+y,1/2-z
y,x,1/2-z
-y,-x,-z
-x+y,y,-z
x,x-y,-z
-x,-y,-z
-x+y,-x,1/2-z
y,-x+y,-z
x,y,1/2-z
x-y,x,-z
-y,x-y,1/2-z
-x+y,y,1/2+z
x,x-y,1/2+z
-y,-x,1/2+z
y,x,z
x-y,-y,z
-x,-x+y,z
loop_
_atom_site_type_symbol
_atom_site_label
_atom_site_fract_x
_atom_site_fract_y
_atom_site_fract_z
Si Si1 0.717471 0.577527 0.361212
Si Si2 0.000000 0.429677 0.948196
Si Si3 0.763935 0.624178 0.635327
Si Si4 0.000000 0.374557 0.354520
Si Si5 0.305718 0.305718 0.365563
Si Si6 0.504570 0.643130 0.955534
Si Si7 0.254260 0.610464 0.863305
O O1 0.712401 0.555324 0.250000
O O2 0.790889 0.612565 0.393156
O O3 0.691811 0.627255 0.363187
O O4 0.670324 0.523609 0.435927
O O5 0.930036 0.417936 0.930435
O O6 0.000000 0.369560 0.898184
O O7 0.000000 0.418261 0.061526
O O8 0.768166 0.629569 0.750000
O O9 0.750844 0.680918 0.601269
O O10 0.701354 0.559210 0.605243
O O11 0.000000 0.401360 0.250000
O O12 0.302914 0.302914 0.250000
O O13 0.438074 0.632009 0.920376
O O14 0.314431 0.600214 0.883807
O O15 0.241839 0.601729 0.750000
#
# Coordination Sequence:
#
# PCOD9588873 Si02
#       7
#    24  12  24  12  12  24  24
#     4   9  17  27  42  67  97 132 172 207 245 299
#     4   8  16  24  40  74 102 126 157 198 248 299
#     4   9  16  25  41  67  96 126 161 199 246 302
#     4   8  14  26  40  58  93 133 167 208 247 283
#     4   8  14  24  36  58  97 130 150 191 250 301
#     4  10  16  28  49  72 102 130 162 204 250 298
#     4   8  17  33  53  77 100 127 164 199 239 294
#
# _framework density 18.507742
#
# number of rings (size 3 to 8) (size 9 to 14) (size 15 to 20)
#    0.364    2.909    0.000    1.091    0.000    0.727 
#    0.000    0.000    0.000    5.455    0.000    7.636 
#    0.000   20.364    0.000   50.000    0.000   17.455 
#
# Total GULP energy -735098.029284 kJ/mol
# GULP energy per Si atom -5568.924464 kJ/mol
# Density = 1.846562 g / cm^3
# Si number density = 18.507742 Si / 1000 Ang^3
#
#
#
# Elastic Constant Matrix: (Units=GPa)
#
#
# Indices 1 2 3 4 5 6 
#
# 1 78.8236 89.2161 31.8722 0.0000 0.0000 0.0000
# 2 89.2161 78.8236 31.8722 0.0000 0.0000 0.0000
# 3 31.8722 31.8722 64.4150 0.0000 0.0000 0.0000
# 4 0.0000 0.0000 0.0000 19.2551 0.0000 0.0000
# 5 0.0000 0.0000 0.0000 0.0000 19.2551 0.0000
# 6 0.0000 0.0000 0.0000 0.0000 0.0000 -5.1962
#
#
#
# Elastic Compliance Matrix: (Units=1/GPa)
#
#
# Indices 1 2 3 4 5 6 
#
# 1 -0.044449 0.051775 -0.003625 0.000000 0.000000 0.000000
# 2 0.051775 -0.044449 -0.003625 0.000000 0.000000 0.000000
# 3 -0.003625 -0.003625 0.019111 0.000000 0.000000 0.000000
# 4 0.000000 0.000000 0.000000 0.051934 0.000000 0.000000
# 5 0.000000 0.000000 0.000000 0.000000 0.051934 0.000000
# 6 0.000000 0.000000 0.000000 0.000000 0.000000 -0.192447
#
#
# Mechanical properties :
#
#
# Convention : Reuss Voigt Hill
#
# Bulk Modulus (GPa) = 51.91023 58.66478 55.28750
# Shear Modulus (GPa) = -20.74751 11.26958 -4.73896
#
# Velocity S-wave (km/s) = -3.35179 2.47029 -1.60190
# Velocity P-wave (km/s) = 3.62345 6.31686 5.14937
#
# Compressibility (1/GPa) = 0.01926403
#
# Stress axis : x y z
#
# Youngs Moduli (GPa) = -22.49785 -22.49785 52.32460
#
# Poissons Ratio (x) = 1.16482 0.18967
# Poissons Ratio (y) = 1.16482 0.18967
# Poissons Ratio (z) = -0.08155 -0.08155
#
# Static dielectric constant tensor:
#      x y z
#    x 1.676730 0.000000 0.000000 
#    y 0.000000 1.676730 0.000000 
#    z 0.000000 0.000000 1.709440 
# 
# From -- ./inp_files/4190.got.cif
#   From: 2010.05.17/outbox.cif.g08.bks.cpg/sg193_3_cif.got.tgz:4190.got - 2010.05.20 12:33:02.
