data_PCOD9588377
_publ_section_title
;
Structure prediction by ZEFSAII (Michael W. Deem and Ramdas Pophale) SiO2 
 PCOD9588377
Probable space group: P 6/M C C
;
_chemical_formula_sum "Si O2"
_cell_formula_units_Z 144
_cell_length_a 34.140542
_cell_length_b 34.140542
_cell_length_c 9.197738
_cell_angle_alpha 90.000000
_cell_angle_beta 90.000000
_cell_angle_gamma 120.000000
_cell_volume 9284.371059
_symmetry_space_group_name_H-M "P 6/M C C"
_symmetry_group_IT_number 192
_symmetry_cell_setting 'hexagonal'
loop_
_space_group_symop_operation_xyz
x,y,z
x-y,x,z
-y,x-y,z
-x,-y,z
-x+y,-x,z
y,-x+y,z
x-y,-y,1/2-z
-x,-x+y,1/2-z
y,x,1/2-z
-y,-x,1/2-z
-x+y,y,1/2-z
x,x-y,1/2-z
-x,-y,-z
-x+y,-x,-z
y,-x+y,-z
x,y,-z
x-y,x,-z
-y,x-y,-z
-x+y,y,1/2+z
x,x-y,1/2+z
-y,-x,1/2+z
y,x,1/2+z
x-y,-y,1/2+z
-x,-x+y,1/2+z
loop_
_atom_site_type_symbol
_atom_site_label
_atom_site_fract_x
_atom_site_fract_y
_atom_site_fract_z
Si Si1 0.367144 0.807373 0.838288
Si Si2 0.368006 0.141128 0.675730
Si Si3 0.046232 0.420068 0.330810
Si Si4 0.279144 0.952495 0.671873
Si Si5 0.277654 0.806308 0.824385
Si Si6 0.086037 0.579384 0.338665
O O1 0.393906 0.787812 0.750000
O O2 0.322920 0.806675 0.774119
O O3 0.402025 0.860804 0.854168
O O4 0.355925 0.787194 0.000000
O O5 0.362715 0.181358 0.750000
O O6 0.362858 0.141049 0.500000
O O7 0.334089 0.092388 0.745686
O O8 0.420108 0.153405 0.706653
O O9 0.045295 0.429788 0.500000
O O10 0.050977 0.375780 0.318888
O O11 0.082271 0.464358 0.247930
O O12 0.000000 0.407661 0.250000
O O13 0.269085 0.952956 0.500000
O O14 0.291963 0.000000 0.750000
O O15 0.236584 0.763416 0.750000
O O16 0.276792 0.803040 0.000000
O O17 0.065656 0.532828 0.250000
O O18 0.066345 0.573202 0.500000
#
# Coordination Sequence:
#
# PCOD9588377 Si02
#       6
#    24  24  24  24  24  24
#     4   9  18  31  46  64  84 105 129 159 197 243
#     4  10  19  32  50  72  98 125 154 190 232 276
#     4  10  20  32  45  61  81 107 140 175 211 252
#     4  10  20  33  49  69  93 122 155 189 227 272
#     4   9  18  31  47  68  91 113 138 171 214 262
#     4  10  19  31  45  60  79 102 130 164 203 245
#
# _framework density 15.509936
#
# number of rings (size 3 to 8) (size 9 to 14) (size 15 to 20)
#    0.000    2.333    0.000    3.000    0.000    5.667 
#    0.000    1.667    0.000    0.333    0.000    0.000 
#    0.000    0.000    0.000    0.000    0.000    0.000 
#
# Total GULP energy -801731.139096 kJ/mol
# GULP energy per Si atom -5567.577355 kJ/mol
# Density = 1.547463 g / cm^3
# Si number density = 15.509936 Si / 1000 Ang^3
#
#
#
# Elastic Constant Matrix: (Units=GPa)
#
#
# Indices 1 2 3 4 5 6 
#
# 1 61.6326 24.3053 35.4024 0.0000 0.0000 0.0000
# 2 24.3053 61.6326 35.4024 0.0000 0.0000 0.0000
# 3 35.4024 35.4024 84.8520 0.0000 0.0000 0.0000
# 4 0.0000 0.0000 0.0000 13.5500 0.0000 0.0000
# 5 0.0000 0.0000 0.0000 0.0000 13.5500 0.0000
# 6 0.0000 0.0000 0.0000 0.0000 0.0000 18.6637
#
#
#
# Elastic Compliance Matrix: (Units=1/GPa)
#
#
# Indices 1 2 3 4 5 6 
#
# 1 0.022261 -0.004529 -0.007398 0.000000 0.000000 0.000000
# 2 -0.004529 0.022261 -0.007398 0.000000 0.000000 0.000000
# 3 -0.007398 -0.007398 0.017959 0.000000 0.000000 0.000000
# 4 0.000000 0.000000 0.000000 0.073801 0.000000 0.000000
# 5 0.000000 0.000000 0.000000 0.000000 0.073801 0.000000
# 6 0.000000 0.000000 0.000000 0.000000 0.000000 0.053580
#
#
# Mechanical properties :
#
#
# Convention : Reuss Voigt Hill
#
# Bulk Modulus (GPa) = 41.96479 44.25971 43.11225
# Shear Modulus (GPa) = 16.11572 16.68652 16.40112
#
# Velocity S-wave (km/s) = 3.22694 3.28359 3.25539
# Velocity P-wave (km/s) = 6.40310 6.55548 6.47973
#
# Compressibility (1/GPa) = 0.02382950
#
# Stress axis : x y z
#
# Youngs Moduli (GPa) = 44.92190 44.92190 55.68364
#
# Poissons Ratio (x) = 0.20346 0.41195
# Poissons Ratio (y) = 0.20346 0.41195
# Poissons Ratio (z) = 0.33234 0.33234
#
# Static dielectric constant tensor:
#      x y z
#    x 1.523410 0.000000 0.000000 
#    y 0.000000 1.523410 0.000000 
#    z 0.000000 0.000000 1.557780 
# 
# From -- ./inp_files/1142.got.cif
#   From: 2010.05.17/outbox.cif.g08.bks.cpg/sg192_1_cif.got.tgz:1142.got - 2010.05.20 12:28:01.
