data_PCOD9588270
_publ_section_title
;
Structure prediction by ZEFSAII (Michael W. Deem and Ramdas Pophale) SiO2 
 PCOD9588270
Probable space group: P 6/M M M
;
_chemical_formula_sum "Si O2"
_cell_formula_units_Z 72
_cell_length_a 24.000000
_cell_length_b 24.000000
_cell_length_c 9.000000
_cell_angle_alpha 90.000000
_cell_angle_beta 90.000000
_cell_angle_gamma 120.000000
_cell_volume 4489.475693
_symmetry_space_group_name_H-M "P 6/M M M"
_symmetry_group_IT_number 191
_symmetry_cell_setting 'hexagonal'
loop_
_space_group_symop_operation_xyz
x,y,z
x-y,x,z
-y,x-y,z
-x,-y,z
-x+y,-x,z
y,-x+y,z
x-y,-y,-z
-x,-x+y,-z
y,x,-z
-y,-x,-z
-x+y,y,-z
x,x-y,-z
-x,-y,-z
-x+y,-x,-z
y,-x+y,-z
x,y,-z
x-y,x,-z
-y,x-y,-z
-x+y,y,z
x,x-y,z
-y,-x,z
y,x,z
x-y,-y,z
-x,-x+y,z
loop_
_atom_site_type_symbol
_atom_site_label
_atom_site_fract_x
_atom_site_fract_y
_atom_site_fract_z
Si Si1 0.466223 0.799275 0.179344
Si Si2 0.871042 0.262603 0.320673
Si Si3 0.866628 0.000000 0.819904
Si Si4 0.000000 0.731861 0.181500
O O1 0.402868 0.805735 0.219985
O O2 0.453229 0.726615 0.211695
O O3 0.536074 0.848149 0.255164
O O4 0.473767 0.807909 0.000000
O O5 0.880124 0.271662 0.500000
O O6 0.809098 0.190903 0.294176
O O7 0.935499 0.267216 0.246507
O O8 0.866273 0.933137 0.773914
O O9 0.799494 0.000000 0.780228
O O10 0.867851 0.000000 0.000000
O O11 0.000000 0.728051 0.000000
#
# Coordination Sequence:
#
# PCOD9588270 Si02
#       4
#    24  24  12  12
#     4   9  17  31  53  80 108 137 170 210 257 309
#     4  10  21  36  53  75 105 139 174 214 260 310
#     4   9  17  29  48  76 107 134 161 200 252 305
#     4  11  21  34  54  77 102 136 179 221 258 303
#
# _framework density 16.037507000000002
#
# number of rings (size 3 to 8) (size 9 to 14) (size 15 to 20)
#    0.000    2.333    0.000    3.000    0.000    6.000 
#    0.000    0.833    0.000    7.000    0.000    0.000 
#    0.000    8.000    0.000    0.000    0.000    0.000 
#
# Total GULP energy -400904.177238 kJ/mol
# GULP energy per Si atom -5568.113573 kJ/mol
# Density = 1.600101 g / cm^3
# Si number density = 16.037507 Si / 1000 Ang^3
#
#
#
# Elastic Constant Matrix: (Units=GPa)
#
#
# Indices 1 2 3 4 5 6 
#
# 1 168.8356 86.5886 48.6349 0.0000 0.0000 0.0000
# 2 86.5886 168.8356 48.6349 0.0000 0.0000 0.0000
# 3 48.6349 48.6349 74.6426 0.0000 0.0000 0.0000
# 4 0.0000 0.0000 0.0000 29.4488 0.0000 0.0000
# 5 0.0000 0.0000 0.0000 0.0000 29.4488 0.0000
# 6 0.0000 0.0000 0.0000 0.0000 0.0000 41.1235
#
#
#
# Elastic Compliance Matrix: (Units=1/GPa)
#
#
# Indices 1 2 3 4 5 6 
#
# 1 0.008683 -0.003476 -0.003393 0.000000 0.000000 0.000000
# 2 -0.003476 0.008683 -0.003393 0.000000 0.000000 0.000000
# 3 -0.003393 -0.003393 0.017818 0.000000 0.000000 0.000000
# 4 0.000000 0.000000 0.000000 0.033957 0.000000 0.000000
# 5 0.000000 0.000000 0.000000 0.000000 0.033957 0.000000
# 6 0.000000 0.000000 0.000000 0.000000 0.000000 0.024317
#
#
# Mechanical properties :
#
#
# Convention : Reuss Voigt Hill
#
# Bulk Modulus (GPa) = 68.20591 86.67005 77.43798
# Shear Modulus (GPa) = 32.71714 35.23460 33.97587
#
# Velocity S-wave (km/s) = 4.52158 4.69231 4.60774
# Velocity P-wave (km/s) = 8.35948 9.13874 8.75778
#
# Compressibility (1/GPa) = 0.01466149
#
# Stress axis : x y z
#
# Youngs Moduli (GPa) = 115.17041 115.17041 56.12169
#
# Poissons Ratio (x) = 0.40030 0.19041
# Poissons Ratio (y) = 0.40030 0.19041
# Poissons Ratio (z) = 0.39075 0.39075
#
# Static dielectric constant tensor:
#      x y z
#    x 1.546940 0.000000 0.000000 
#    y 0.000000 1.546940 0.000000 
#    z 0.000000 0.000000 1.544660 
# 
# From -- ./inp_files/922.got.cif
#   From: 2010.05.17/outbox.ucp.g08.bks.cvg/sg191_1_cif.got.tgz:922.got - 2010.06.11 15:22:43.
