data_PCOD9588239
_publ_section_title
;
Structure prediction by ZEFSAII (Michael W. Deem and Ramdas Pophale) SiO2 
 PCOD9588239
Probable space group: P 6/M M M
;
_chemical_formula_sum "Si O2"
_cell_formula_units_Z 96
_cell_length_a 33.873810
_cell_length_b 33.873810
_cell_length_c 7.457977
_cell_angle_alpha 90.000000
_cell_angle_beta 90.000000
_cell_angle_gamma 120.000000
_cell_volume 7411.050384
_symmetry_space_group_name_H-M "P 6/M M M"
_symmetry_group_IT_number 191
_symmetry_cell_setting 'hexagonal'
loop_
_space_group_symop_operation_xyz
x,y,z
x-y,x,z
-y,x-y,z
-x,-y,z
-x+y,-x,z
y,-x+y,z
x-y,-y,-z
-x,-x+y,-z
y,x,-z
-y,-x,-z
-x+y,y,-z
x,x-y,-z
-x,-y,-z
-x+y,-x,-z
y,-x+y,-z
x,y,-z
x-y,x,-z
-y,x-y,-z
-x+y,y,z
x,x-y,z
-y,-x,z
y,x,z
x-y,-y,z
-x,-x+y,z
loop_
_atom_site_type_symbol
_atom_site_label
_atom_site_fract_x
_atom_site_fract_y
_atom_site_fract_z
Si Si1 0.793277 0.116786 0.000000
Si Si2 0.518091 0.947616 0.718315
Si Si3 0.566091 0.827585 0.000000
Si Si4 0.674623 0.108080 0.713276
Si Si5 0.325508 0.053248 0.287666
O O1 0.772770 0.084042 0.827946
O O2 0.846950 0.153051 0.000000
O O3 0.768291 0.146972 0.000000
O O4 0.518594 0.947817 0.500000
O O5 0.467060 0.934120 0.774221
O O6 0.537579 0.915315 0.773495
O O7 0.550972 0.000000 0.774462
O O8 0.553535 0.846974 0.826213
O O9 0.548409 0.774205 0.000000
O O10 0.677465 0.116757 0.500000
O O11 0.693491 0.073020 0.744595
O O12 0.320071 0.057502 0.500000
O O13 0.297190 0.000000 0.238912
#
# Coordination Sequence:
#
# PCOD9588239 Si02
#       5
#    12  24  12  24  24
#     4   9  17  27  37  50  69  91 115 147 186 222
#     4   8  13  22  37  56  78 103 127 149 173 204
#     4   9  18  29  38  51  69  89 118 152 182 215
#     4   9  16  26  40  55  72  96 122 148 180 215
#     4   9  16  25  38  54  70  91 121 154 184 214
#
# _framework density 12.953628999999999
#
# number of rings (size 3 to 8) (size 9 to 14) (size 15 to 20)
#    0.000    3.250    0.000    1.875    0.000    4.000 
#    0.000    7.500    0.000    1.500    0.000    0.000 
#    0.000    0.000    0.000    3.000    0.000   19.500 
#
# Total GULP energy -534550.333157 kJ/mol
# GULP energy per Si atom -5568.232637 kJ/mol
# Density = 1.292415 g / cm^3
# Si number density = 12.953629 Si / 1000 Ang^3
#
#
#
# Elastic Constant Matrix: (Units=GPa)
#
#
# Indices 1 2 3 4 5 6 
#
# 1 89.5062 51.0477 38.8830 0.0000 0.0000 0.0000
# 2 51.0477 89.5062 38.8830 0.0000 0.0000 0.0000
# 3 38.8830 38.8830 56.4929 0.0000 0.0000 0.0000
# 4 0.0000 0.0000 0.0000 24.6293 0.0000 0.0000
# 5 0.0000 0.0000 0.0000 0.0000 24.6293 0.0000
# 6 0.0000 0.0000 0.0000 0.0000 0.0000 19.2292
#
#
#
# Elastic Compliance Matrix: (Units=1/GPa)
#
#
# Indices 1 2 3 4 5 6 
#
# 1 0.018746 -0.007256 -0.007909 0.000000 0.000000 0.000000
# 2 -0.007256 0.018746 -0.007909 0.000000 0.000000 0.000000
# 3 -0.007909 -0.007909 0.028588 0.000000 0.000000 0.000000
# 4 0.000000 0.000000 0.000000 0.040602 0.000000 0.000000
# 5 0.000000 0.000000 0.000000 0.000000 0.040602 0.000000
# 6 0.000000 0.000000 0.000000 0.000000 0.000000 0.052004
#
#
# Mechanical properties :
#
#
# Convention : Reuss Voigt Hill
#
# Bulk Modulus (GPa) = 50.16465 54.79252 52.47858
# Shear Modulus (GPa) = 19.83498 20.81032 20.32265
#
# Velocity S-wave (km/s) = 3.91734 4.01250 3.96520
# Velocity P-wave (km/s) = 7.69877 7.99110 7.84630
#
# Compressibility (1/GPa) = 0.01993436
#
# Stress axis : x y z
#
# Youngs Moduli (GPa) = 53.34398 53.34398 34.97962
#
# Poissons Ratio (x) = 0.38706 0.27664
# Poissons Ratio (y) = 0.38706 0.27664
# Poissons Ratio (z) = 0.42188 0.42188
#
# Static dielectric constant tensor:
#      x y z
#    x 1.405080 0.000000 0.000000 
#    y 0.000000 1.405080 0.000000 
#    z 0.000000 0.000000 1.467490 
# 
# From -- ./inp_files/1573.got.cif
#   From: 2010.05.17/outbox.cif.g08.bks.cpg/sg191_1_cif.got.tgz:1573.got - 2010.05.20 12:20:32.
