data_PCOD9588846
_publ_section_title
;
Structure prediction by ZEFSAII (Michael W. Deem and Ramdas Pophale) SiO2 
 PCOD9588846
Probable space group: P 6/M C C
;
_chemical_formula_sum "Si O2"
_cell_formula_units_Z 74
_cell_length_a 17.280766
_cell_length_b 17.280766
_cell_length_c 14.198381
_cell_angle_alpha 90.000000
_cell_angle_beta 90.000000
_cell_angle_gamma 120.000000
_cell_volume 3671.938819
_symmetry_space_group_name_H-M "P 6/M C C"
_symmetry_group_IT_number 192
_symmetry_cell_setting 'hexagonal'
loop_
_space_group_symop_operation_xyz
x,y,z
x-y,x,z
-y,x-y,z
-x,-y,z
-x+y,-x,z
y,-x+y,z
x-y,-y,1/2-z
-x,-x+y,1/2-z
y,x,1/2-z
-y,-x,1/2-z
-x+y,y,1/2-z
x,x-y,1/2-z
-x,-y,-z
-x+y,-x,-z
y,-x+y,-z
x,y,-z
x-y,x,-z
-y,x-y,-z
-x+y,y,1/2+z
x,x-y,1/2+z
-y,-x,1/2+z
y,x,1/2+z
x-y,-y,1/2+z
-x,-x+y,1/2+z
loop_
_atom_site_type_symbol
_atom_site_label
_atom_site_fract_x
_atom_site_fract_y
_atom_site_fract_z
Si Si1 0.350839 0.493065 0.391398
Si Si2 0.500000 0.000000 0.250000
Si Si3 0.917030 0.689477 0.187079
Si Si4 0.803604 0.833773 0.000000
Si Si5 0.333334 0.666668 0.638364
O O1 0.363261 0.474390 0.500000
O O2 0.424439 0.493010 0.322459
O O3 0.260587 0.410415 0.349530
O O4 0.348189 0.584914 0.390658
O O5 0.860453 0.720905 0.250000
O O6 0.000000 0.701272 0.250000
O O7 0.958209 0.747652 0.093945
O O8 0.891480 0.826725 0.000000
O O9 0.333334 0.666667 0.750000
#
# Coordination Sequence:
#
# PCOD9588846 Si02
#       5
#    24   6  24  12   8
#     4  12  26  46  72 105 141 191 241 295 356 426
#     4  12  26  44  68 102 148 180 240 296 352 418
#     4  12  25  44  70 101 142 184 237 300 361 425
#     4  12  25  46  72 105 141 185 241 294 363 450
#     4  12  25  50  73 103 152 193 238 290 364 433
#
# _framework density 20.152840999999999
#
# number of rings (size 3 to 8) (size 9 to 14) (size 15 to 20)
#    0.000    0.000    8.108    2.595    0.000    0.000 
#    0.000    0.000    0.000    0.000    0.000    0.000 
#    0.000    0.000    0.000    0.000    0.000    0.000 
#
# Total GULP energy -413315.409788 kJ/mol
# GULP energy per Si atom -5585.343376 kJ/mol
# Density = 2.010697 g / cm^3
# Si number density = 20.152841 Si / 1000 Ang^3
#
#
#
# Elastic Constant Matrix: (Units=GPa)
#
#
# Indices 1 2 3 4 5 6 
#
# 1 100.6742 34.8734 43.3618 -0.0001 -0.0001 0.0001
# 2 34.8734 100.6750 43.3619 -0.0002 0.0000 0.0001
# 3 43.3618 43.3619 192.2393 0.0001 0.0001 0.0001
# 4 -0.0001 -0.0002 0.0001 30.2892 0.0000 0.0000
# 5 -0.0001 0.0000 0.0001 0.0000 30.2895 -0.0001
# 6 0.0001 0.0001 0.0001 0.0000 -0.0001 32.9010
#
#
#
# Elastic Compliance Matrix: (Units=1/GPa)
#
#
# Indices 1 2 3 4 5 6 
#
# 1 0.011910 -0.003288 -0.001945 0.000000 0.000000 0.000000
# 2 -0.003288 0.011909 -0.001945 0.000000 0.000000 0.000000
# 3 -0.001945 -0.001945 0.006079 0.000000 0.000000 0.000000
# 4 0.000000 0.000000 0.000000 0.033015 0.000000 0.000000
# 5 0.000000 0.000000 0.000000 0.000000 0.033015 0.000000
# 6 0.000000 0.000000 0.000000 0.000000 0.000000 0.030394
#
#
# Mechanical properties :
#
#
# Convention : Reuss Voigt Hill
#
# Bulk Modulus (GPa) = 64.33493 70.75363 67.54428
# Shear Modulus (GPa) = 34.27994 36.82869 35.55432
#
# Velocity S-wave (km/s) = 4.12879 4.27953 4.20483
# Velocity P-wave (km/s) = 7.39743 7.72036 7.56062
#
# Compressibility (1/GPa) = 0.01554366
#
# Stress axis : x y z
#
# Youngs Moduli (GPa) = 83.96625 83.96697 164.49629
#
# Poissons Ratio (x) = 0.27607 0.31990
# Poissons Ratio (y) = 0.27606 0.31990
# Poissons Ratio (z) = 0.16329 0.16329
#
# Static dielectric constant tensor:
#      x y z
#    x 1.711380 0.000000 0.000000 
#    y 0.000000 1.711380 0.000000 
#    z 0.000000 0.000000 1.680770 
# 
# From -- ./inp_files/2516.got.cif
#   From: 2010.05.17/outbox.cif.g08.bks.cpg/sg192_2_cif.got.tgz:2516.got - 2010.05.20 12:28:01.
