data_PCOD9588116
_publ_section_title
;
Structure prediction by ZEFSAII (Michael W. Deem and Ramdas Pophale) SiO2 
 PCOD9588116
Probable space group: P 6/M M M
;
_chemical_formula_sum "Si O2"
_cell_formula_units_Z 84
_cell_length_a 19.683879
_cell_length_b 19.683879
_cell_length_c 13.546015
_cell_angle_alpha 90.000000
_cell_angle_beta 90.000000
_cell_angle_gamma 120.000000
_cell_volume 4545.310511
_symmetry_space_group_name_H-M "P 6/M M M"
_symmetry_group_IT_number 191
_symmetry_cell_setting 'hexagonal'
loop_
_space_group_symop_operation_xyz
x,y,z
x-y,x,z
-y,x-y,z
-x,-y,z
-x+y,-x,z
y,-x+y,z
x-y,-y,-z
-x,-x+y,-z
y,x,-z
-y,-x,-z
-x+y,y,-z
x,x-y,-z
-x,-y,-z
-x+y,-x,-z
y,-x+y,-z
x,y,-z
x-y,x,-z
-y,x-y,-z
-x+y,y,z
x,x-y,z
-y,-x,z
y,x,z
x-y,-y,z
-x,-x+y,z
loop_
_atom_site_type_symbol
_atom_site_label
_atom_site_fract_x
_atom_site_fract_y
_atom_site_fract_z
Si Si1 0.246540 0.334728 0.811573
Si Si2 0.871482 0.286093 0.388239
Si Si3 0.178083 0.511815 0.118988
Si Si4 0.910890 0.455445 0.380172
O O1 0.158087 0.316173 0.835065
O O2 0.273471 0.273471 0.844304
O O3 0.259231 0.347575 0.693313
O O4 0.305290 0.422030 0.853383
O O5 0.903762 0.297161 0.500000
O O6 0.782287 0.217714 0.391529
O O7 0.874266 0.365286 0.353818
O O8 0.263692 0.527384 0.153224
O O9 0.161537 0.580769 0.152632
O O10 0.180591 0.515246 0.000000
O O11 0.911844 0.455922 0.500000
O O12 0.000000 0.500000 0.343771
#
# Coordination Sequence:
#
# PCOD9588116 Si02
#       4
#    24  24  24  12
#     4  10  21  35  52  74  99 128 163 206 254 302
#     4   9  18  32  47  67  95 127 166 206 244 286
#     4   9  18  33  53  77 105 137 171 205 241 282
#     4   9  16  26  42  62  85 119 159 195 232 276
#
# _framework density 18.480585999999999
#
# number of rings (size 3 to 8) (size 9 to 14) (size 15 to 20)
#    0.000    2.714    0.000    1.143    2.000    4.000 
#    0.857    1.429    0.000    0.286    0.000    0.000 
#    0.000    0.000    0.000   14.286    0.000    0.000 
#
# Total GULP energy -468145.934945 kJ/mol
# GULP energy per Si atom -5573.165892 kJ/mol
# Density = 1.843852 g / cm^3
# Si number density = 18.480586 Si / 1000 Ang^3
#
#
#
# Elastic Constant Matrix: (Units=GPa)
#
#
# Indices 1 2 3 4 5 6 
#
# 1 103.4466 93.3345 7.3898 0.0000 0.0000 0.0000
# 2 93.3345 103.4466 7.3898 0.0000 0.0000 0.0000
# 3 7.3898 7.3898 34.0368 0.0000 0.0000 0.0000
# 4 0.0000 0.0000 0.0000 12.8774 0.0000 0.0000
# 5 0.0000 0.0000 0.0000 0.0000 12.8774 0.0000
# 6 0.0000 0.0000 0.0000 0.0000 0.0000 5.0561
#
#
#
# Elastic Compliance Matrix: (Units=1/GPa)
#
#
# Indices 1 2 3 4 5 6 
#
# 1 0.052028 -0.046862 -0.001122 0.000000 0.000000 0.000000
# 2 -0.046862 0.052028 -0.001122 0.000000 0.000000 0.000000
# 3 -0.001122 -0.001122 0.029867 0.000000 0.000000 0.000000
# 4 0.000000 0.000000 0.000000 0.077655 0.000000 0.000000
# 5 0.000000 0.000000 0.000000 0.000000 0.077655 0.000000
# 6 0.000000 0.000000 0.000000 0.000000 0.000000 0.197782
#
#
# Mechanical properties :
#
#
# Convention : Reuss Voigt Hill
#
# Bulk Modulus (GPa) = 28.00132 50.79538 39.39835
# Shear Modulus (GPa) = 8.37336 15.01658 11.69497
#
# Velocity S-wave (km/s) = 2.13090 2.85364 2.51833
# Velocity P-wave (km/s) = 4.60857 6.19703 5.46086
#
# Compressibility (1/GPa) = 0.03571260
#
# Stress axis : x y z
#
# Youngs Moduli (GPa) = 19.22025 19.22025 33.48179
#
# Poissons Ratio (x) = 0.90071 0.03755
# Poissons Ratio (y) = 0.90071 0.03755
# Poissons Ratio (z) = 0.02156 0.02156
#
# Static dielectric constant tensor:
#      x y z
#    x 1.649000 0.000000 0.000000 
#    y 0.000000 1.649000 0.000000 
#    z 0.000000 0.000000 1.735420 
# 
# From -- ./inp_files/3996.got.cif
#   From: 2010.05.17/outbox.cif.g08.bks.cpg/sg191_2_cif.got.tgz:3996.got - 2010.05.20 12:20:32.
