data_PCOD9588220
_publ_section_title
;
Structure prediction by ZEFSAII (Michael W. Deem and Ramdas Pophale) SiO2 
 PCOD9588220
Probable space group: P 6/M M M
;
_chemical_formula_sum "Si O2"
_cell_formula_units_Z 84
_cell_length_a 20.737368
_cell_length_b 20.737368
_cell_length_c 13.999305
_cell_angle_alpha 90.000000
_cell_angle_beta 90.000000
_cell_angle_gamma 120.000000
_cell_volume 5213.680054
_symmetry_space_group_name_H-M "P 6/M M M"
_symmetry_group_IT_number 191
_symmetry_cell_setting 'hexagonal'
loop_
_space_group_symop_operation_xyz
x,y,z
x-y,x,z
-y,x-y,z
-x,-y,z
-x+y,-x,z
y,-x+y,z
x-y,-y,-z
-x,-x+y,-z
y,x,-z
-y,-x,-z
-x+y,y,-z
x,x-y,-z
-x,-y,-z
-x+y,-x,-z
y,-x+y,-z
x,y,-z
x-y,x,-z
-y,x-y,-z
-x+y,y,z
x,x-y,z
-y,-x,z
y,x,z
x-y,-y,z
-x,-x+y,z
loop_
_atom_site_type_symbol
_atom_site_label
_atom_site_fract_x
_atom_site_fract_y
_atom_site_fract_z
Si Si1 0.000000 0.296260 0.614854
Si Si2 0.856601 0.295976 0.300345
Si Si3 0.089076 0.620949 0.889620
Si Si4 0.000000 0.854300 0.615753
Si Si5 0.543804 0.087608 0.385817
O O1 0.925574 0.289155 0.659169
O O2 0.000000 0.306760 0.500000
O O3 0.000000 0.220741 0.636381
O O4 0.777902 0.222099 0.319474
O O5 0.868362 0.315496 0.187879
O O6 0.869613 0.371824 0.349437
O O7 0.103951 0.551976 0.874025
O O8 0.000000 0.585146 0.876499
O O9 0.106760 0.644449 0.000000
O O10 0.926297 0.852593 0.651346
O O11 0.000000 0.859444 0.500000
O O12 0.542555 0.085110 0.500000
O O13 0.500000 0.000000 0.352146
#
# Coordination Sequence:
#
# PCOD9588220 Si02
#       5
#    12  24  24  12  12
#     4  11  22  36  53  76 110 149 189 227 264 319
#     4  12  23  36  58  85 112 144 184 233 282 331
#     4   9  17  34  61  85 106 139 184 230 280 341
#     4   9  17  30  48  71 101 137 176 218 264 310
#     4  11  22  40  61  79 109 155 198 234 274 330
#
# _framework density 16.111460000000001
#
# number of rings (size 3 to 8) (size 9 to 14) (size 15 to 20)
#    0.000    1.571    4.286    2.714    0.000    4.571 
#    0.857    0.000    0.000    0.000    0.000    0.000 
#    0.000    0.000    0.000    0.000    0.000   10.143 
#
# Total GULP energy -468697.723278 kJ/mol
# GULP energy per Si atom -5579.734801 kJ/mol
# Density = 1.607479 g / cm^3
# Si number density = 16.111460 Si / 1000 Ang^3
#
#
#
# Elastic Constant Matrix: (Units=GPa)
#
#
# Indices 1 2 3 4 5 6 
#
# 1 136.2146 91.6724 49.9937 0.0000 0.0000 0.0000
# 2 91.6724 136.2146 49.9937 0.0000 0.0000 0.0000
# 3 49.9937 49.9937 86.0923 0.0000 0.0000 0.0000
# 4 0.0000 0.0000 0.0000 16.1417 0.0000 0.0000
# 5 0.0000 0.0000 0.0000 0.0000 16.1417 0.0000
# 6 0.0000 0.0000 0.0000 0.0000 0.0000 22.2711
#
#
#
# Elastic Compliance Matrix: (Units=1/GPa)
#
#
# Indices 1 2 3 4 5 6 
#
# 1 0.014170 -0.008281 -0.003419 0.000000 0.000000 0.000000
# 2 -0.008281 0.014170 -0.003419 0.000000 0.000000 0.000000
# 3 -0.003419 -0.003419 0.015587 0.000000 0.000000 0.000000
# 4 0.000000 0.000000 0.000000 0.061951 0.000000 0.000000
# 5 0.000000 0.000000 0.000000 0.000000 0.061951 0.000000
# 6 0.000000 0.000000 0.000000 0.000000 0.000000 0.044901
#
#
# Mechanical properties :
#
#
# Convention : Reuss Voigt Hill
#
# Bulk Modulus (GPa) = 73.06753 82.42681 77.74717
# Shear Modulus (GPa) = 20.19943 22.03501 21.11722
#
# Velocity S-wave (km/s) = 3.54465 3.70220 3.62428
# Velocity P-wave (km/s) = 7.88685 8.33945 8.11631
#
# Compressibility (1/GPa) = 0.01368597
#
# Stress axis : x y z
#
# Youngs Moduli (GPa) = 70.57407 70.57407 64.15709
#
# Poissons Ratio (x) = 0.58443 0.21938
# Poissons Ratio (y) = 0.58443 0.21938
# Poissons Ratio (z) = 0.24132 0.24132
#
# Static dielectric constant tensor:
#      x y z
#    x 1.529710 0.000000 0.000000 
#    y 0.000000 1.529710 0.000000 
#    z 0.000000 0.000000 1.557030 
# 
# From -- ./inp_files/4019.got.cif
#   From: 2010.05.17/outbox.cif.g08.bks.cpg/sg191_3_cif.got.tgz:4019.got - 2010.05.20 12:20:32.
