data_PCOD9588013
_publ_section_title
;
Structure prediction by ZEFSAII (Michael W. Deem and Ramdas Pophale) SiO2 
 PCOD9588013
Probable space group: P 6/M M M
;
_chemical_formula_sum "Si O2"
_cell_formula_units_Z 132
_cell_length_a 26.478449
_cell_length_b 26.478449
_cell_length_c 12.616831
_cell_angle_alpha 90.000000
_cell_angle_beta 90.000000
_cell_angle_gamma 120.000000
_cell_volume 7660.656727
_symmetry_space_group_name_H-M "P 6/M M M"
_symmetry_group_IT_number 191
_symmetry_cell_setting 'hexagonal'
loop_
_space_group_symop_operation_xyz
x,y,z
x-y,x,z
-y,x-y,z
-x,-y,z
-x+y,-x,z
y,-x+y,z
x-y,-y,-z
-x,-x+y,-z
y,x,-z
-y,-x,-z
-x+y,y,-z
x,x-y,-z
-x,-y,-z
-x+y,-x,-z
y,-x+y,-z
x,y,-z
x-y,x,-z
-y,x-y,-z
-x+y,y,z
x,x-y,z
-y,-x,z
y,x,z
x-y,-y,z
-x,-x+y,z
loop_
_atom_site_type_symbol
_atom_site_label
_atom_site_fract_x
_atom_site_fract_y
_atom_site_fract_z
Si Si1 0.933159 0.676844 0.267350
Si Si2 0.352364 0.176182 0.873845
Si Si3 0.375778 0.442285 0.771293
Si Si4 0.930872 0.275439 0.500000
Si Si5 0.506659 0.753330 0.126871
Si Si6 0.521909 0.591787 0.000000
Si Si7 0.533071 0.711786 0.500000
Si Si8 0.814593 0.349955 0.292571
O O1 0.885588 0.673389 0.185917
O O2 0.930484 0.614381 0.261162
O O3 0.920293 0.680602 0.391231
O O4 0.000000 0.725059 0.242781
O O5 0.422957 0.211479 0.859506
O O6 0.341064 0.170532 0.000000
O O7 0.426823 0.426823 0.757536
O O8 0.384114 0.499301 0.715185
O O9 0.371318 0.454735 0.894807
O O10 0.887816 0.302194 0.500000
O O11 0.000000 0.324458 0.500000
O O12 0.480534 0.788110 0.191061
O O13 0.494456 0.747228 0.000000
O O14 0.551659 0.551659 0.000000
O O15 0.452535 0.547466 0.000000
O O16 0.563205 0.781603 0.500000
O O17 0.492194 0.687923 0.602529
O O18 0.793264 0.396632 0.298879
#
# Coordination Sequence:
#
# PCOD9588013 Si02
#       8
#    24  12  24  12  12  12  12  24
#     4  10  21  35  56  85 116 151 189 234 279 328
#     4  11  22  37  59  87 117 152 194 233 279 346
#     4  10  20  34  53  81 112 138 169 211 266 329
#     4  10  20  35  58  88 116 144 187 228 273 341
#     4  11  24  43  61  83 105 130 177 232 285 348
#     4   9  18  30  44  67 102 142 171 195 248 322
#     4  12  23  41  64  80 107 145 180 224 279 340
#     4  12  25  41  61  81 104 137 177 223 281 340
#
# _framework density 17.230899000000001
#
# number of rings (size 3 to 8) (size 9 to 14) (size 15 to 20)
#    0.000    1.364    4.545    0.818    3.818    1.818 
#    0.545    0.000    0.000    1.636    0.000    0.000 
#    0.000    0.000    0.000    0.273    0.000    1.182 
#
# Total GULP energy -736321.795379 kJ/mol
# GULP energy per Si atom -5578.195420 kJ/mol
# Density = 1.719168 g / cm^3
# Si number density = 17.230899 Si / 1000 Ang^3
#
#
#
# Elastic Constant Matrix: (Units=GPa)
#
#
# Indices 1 2 3 4 5 6 
#
# 1 66.7938 43.5169 41.3834 0.0000 0.0000 0.0000
# 2 43.5169 66.7938 41.3834 0.0000 0.0000 0.0000
# 3 41.3834 41.3834 127.7340 0.0000 0.0000 0.0000
# 4 0.0000 0.0000 0.0000 39.3811 0.0000 0.0000
# 5 0.0000 0.0000 0.0000 0.0000 39.3811 0.0000
# 6 0.0000 0.0000 0.0000 0.0000 0.0000 11.6384
#
#
#
# Elastic Compliance Matrix: (Units=1/GPa)
#
#
# Indices 1 2 3 4 5 6 
#
# 1 0.027469 -0.015492 -0.003880 0.000000 0.000000 0.000000
# 2 -0.015492 0.027469 -0.003880 0.000000 0.000000 0.000000
# 3 -0.003880 -0.003880 0.010343 0.000000 0.000000 0.000000
# 4 0.000000 0.000000 0.000000 0.025393 0.000000 0.000000
# 5 0.000000 0.000000 0.000000 0.000000 0.025393 0.000000
# 6 0.000000 0.000000 0.000000 0.000000 0.000000 0.085922
#
#
# Mechanical properties :
#
#
# Convention : Reuss Voigt Hill
#
# Bulk Modulus (GPa) = 53.26098 57.09875 55.17986
# Shear Modulus (GPa) = 19.62690 27.08266 23.35478
#
# Velocity S-wave (km/s) = 3.37865 3.96883 3.68557
# Velocity P-wave (km/s) = 6.79688 7.36285 7.08552
#
# Compressibility (1/GPa) = 0.01877547
#
# Stress axis : x y z
#
# Youngs Moduli (GPa) = 36.40485 36.40485 96.68380
#
# Poissons Ratio (x) = 0.56399 0.37515
# Poissons Ratio (y) = 0.56399 0.37515
# Poissons Ratio (z) = 0.14126 0.14126
#
# Static dielectric constant tensor:
#      x y z
#    x 1.598700 0.000000 0.000000 
#    y 0.000000 1.598700 0.000000 
#    z 0.000000 0.000000 1.625200 
# 
# From -- ./inp_files/3423.got.cif
#   From: 2010.05.17/outbox.cif.g08.bks.cpg/sg191_2_cif.got.tgz:3423.got - 2010.05.20 12:20:32.
