data_PCOD9588687
_publ_section_title
;
Structure prediction by ZEFSAII (Michael W. Deem and Ramdas Pophale) SiO2 
 PCOD9588687
Probable space group: P 6/M C C
;
_chemical_formula_sum "Si O2"
_cell_formula_units_Z 102
_cell_length_a 25.449745
_cell_length_b 25.449745
_cell_length_c 9.004474
_cell_angle_alpha 90.000000
_cell_angle_beta 90.000000
_cell_angle_gamma 120.000000
_cell_volume 5050.749743
_symmetry_space_group_name_H-M "P 6/M C C"
_symmetry_group_IT_number 192
_symmetry_cell_setting 'hexagonal'
loop_
_space_group_symop_operation_xyz
x,y,z
x-y,x,z
-y,x-y,z
-x,-y,z
-x+y,-x,z
y,-x+y,z
x-y,-y,1/2-z
-x,-x+y,1/2-z
y,x,1/2-z
-y,-x,1/2-z
-x+y,y,1/2-z
x,x-y,1/2-z
-x,-y,-z
-x+y,-x,-z
y,-x+y,-z
x,y,-z
x-y,x,-z
-y,x-y,-z
-x+y,y,1/2+z
x,x-y,1/2+z
-y,-x,1/2+z
y,x,1/2+z
x-y,-y,1/2+z
-x,-x+y,1/2+z
loop_
_atom_site_type_symbol
_atom_site_label
_atom_site_fract_x
_atom_site_fract_y
_atom_site_fract_z
Si Si1 0.865278 0.617530 0.174419
Si Si2 0.667558 0.228308 0.175714
Si Si3 0.500000 0.000000 0.250000
Si Si4 0.237152 0.064105 0.328651
Si Si5 0.473083 0.367555 0.329274
O O1 0.801360 0.602719 0.250000
O O2 0.906277 0.690057 0.179149
O O3 0.899551 0.588435 0.264098
O O4 0.855840 0.598108 0.000000
O O5 0.733074 0.266927 0.250000
O O6 0.625628 0.251255 0.250000
O O7 0.637145 0.158538 0.223708
O O8 0.670279 0.235118 0.000000
O O9 0.565016 0.047015 0.325027
O O10 0.221888 0.110944 0.250000
O O11 0.219713 0.057528 0.500000
O O12 0.205304 0.000000 0.250000
O O13 0.481532 0.354829 0.500000
#
# Coordination Sequence:
#
# PCOD9588687 Si02
#       5
#    24  24   6  24  24
#     4  10  22  41  66  98 132 170 218 273 332 395
#     4  12  25  44  69  97 128 162 206 260 322 386
#     4  12  30  48  68  94 134 176 230 268 332 400
#     4  10  21  38  62  94 132 174 219 270 325 386
#     4  12  26  45  68  93 127 170 216 269 326 392
#
# _framework density 20.195022000000002
#
# number of rings (size 3 to 8) (size 9 to 14) (size 15 to 20)
#    0.000    0.941    1.176    5.529    1.647    5.647 
#    0.000    0.000    0.000    0.235    0.000    1.647 
#    0.000    0.000    0.000    0.000    0.000    0.000 
#
# Total GULP energy -569811.600868 kJ/mol
# GULP energy per Si atom -5586.388244 kJ/mol
# Density = 2.014906 g / cm^3
# Si number density = 20.195022 Si / 1000 Ang^3
#
#
#
# Elastic Constant Matrix: (Units=GPa)
#
#
# Indices 1 2 3 4 5 6 
#
# 1 109.4307 36.8984 60.4797 0.0000 0.0000 0.0000
# 2 36.8984 109.4307 60.4797 0.0000 0.0000 0.0000
# 3 60.4797 60.4797 200.2977 0.0000 0.0000 0.0000
# 4 0.0000 0.0000 0.0000 45.9649 0.0000 0.0000
# 5 0.0000 0.0000 0.0000 0.0000 45.9649 0.0000
# 6 0.0000 0.0000 0.0000 0.0000 0.0000 36.2661
#
#
#
# Elastic Compliance Matrix: (Units=1/GPa)
#
#
# Indices 1 2 3 4 5 6 
#
# 1 0.011447 -0.002340 -0.002750 0.000000 0.000000 0.000000
# 2 -0.002340 0.011447 -0.002750 0.000000 0.000000 0.000000
# 3 -0.002750 -0.002750 0.006653 0.000000 0.000000 0.000000
# 4 0.000000 0.000000 0.000000 0.021756 0.000000 0.000000
# 5 0.000000 0.000000 0.000000 0.000000 0.021756 0.000000
# 6 0.000000 0.000000 0.000000 0.000000 0.000000 0.027574
#
#
# Mechanical properties :
#
#
# Convention : Reuss Voigt Hill
#
# Bulk Modulus (GPa) = 72.10945 81.65274 76.88109
# Shear Modulus (GPa) = 41.34469 43.05928 42.20198
#
# Velocity S-wave (km/s) = 4.52959 4.62256 4.57631
# Velocity P-wave (km/s) = 7.94609 8.30726 8.12868
#
# Compressibility (1/GPa) = 0.01386781
#
# Stress axis : x y z
#
# Youngs Moduli (GPa) = 87.35924 87.35924 150.30366
#
# Poissons Ratio (x) = 0.20442 0.41331
# Poissons Ratio (y) = 0.20442 0.41331
# Poissons Ratio (z) = 0.24022 0.24022
#
# Static dielectric constant tensor:
#      x y z
#    x 1.760090 0.000000 0.000000 
#    y 0.000000 1.760090 0.000000 
#    z 0.000000 0.000000 1.690100 
# 
# From -- ./inp_files/892.got.cif
#   From: 2010.05.17/outbox.cif.g08.bks.cpg/sg192_1_cif.got.tgz:892.got - 2010.05.20 12:28:01.
