data_PCOD9588630
_publ_section_title
;
Structure prediction by ZEFSAII (Michael W. Deem and Ramdas Pophale) SiO2 
 PCOD9588630
Probable space group: P 6/M C C
;
_chemical_formula_sum "Si O2"
_cell_formula_units_Z 156
_cell_length_a 22.144370
_cell_length_b 22.144370
_cell_length_c 20.881764
_cell_angle_alpha 90.000000
_cell_angle_beta 90.000000
_cell_angle_gamma 120.000000
_cell_volume 8867.975271
_symmetry_space_group_name_H-M "P 6/M C C"
_symmetry_group_IT_number 192
_symmetry_cell_setting 'hexagonal'
loop_
_space_group_symop_operation_xyz
x,y,z
x-y,x,z
-y,x-y,z
-x,-y,z
-x+y,-x,z
y,-x+y,z
x-y,-y,1/2-z
-x,-x+y,1/2-z
y,x,1/2-z
-y,-x,1/2-z
-x+y,y,1/2-z
x,x-y,1/2-z
-x,-y,-z
-x+y,-x,-z
y,-x+y,-z
x,y,-z
x-y,x,-z
-y,x-y,-z
-x+y,y,1/2+z
x,x-y,1/2+z
-y,-x,1/2+z
y,x,1/2+z
x-y,-y,1/2+z
-x,-x+y,1/2+z
loop_
_atom_site_type_symbol
_atom_site_label
_atom_site_fract_x
_atom_site_fract_y
_atom_site_fract_z
Si Si1 0.803409 0.354481 0.132826
Si Si2 0.681348 0.084423 0.819022
Si Si3 0.594427 0.668947 0.327199
Si Si4 0.771910 0.309517 0.686371
Si Si5 0.784056 0.083576 0.925240
Si Si6 0.610618 0.369185 0.500000
Si Si7 0.076615 0.778491 0.925962
O O1 0.874052 0.361204 0.159596
O O2 0.769803 0.389693 0.177334
O O3 0.746099 0.272986 0.132172
O O4 0.804848 0.383850 0.062758
O O5 0.701361 0.085412 0.744161
O O6 0.666414 0.147566 0.821313
O O7 0.738717 0.096022 0.872048
O O8 0.617218 0.006862 0.831219
O O9 0.639600 0.727954 0.379026
O O10 0.736023 0.263978 0.750000
O O11 0.864376 0.141727 0.915609
O O12 0.763439 0.003040 0.916848
O O13 0.766441 0.090189 0.000000
O O14 0.593314 0.288126 0.500000
O O15 0.082737 0.761334 0.000000
#
# Coordination Sequence:
#
# PCOD9588630 Si02
#       7
#    24  24  24  24  24  12  24
#     4  12  23  39  59  81 112 143 188 227 280 335
#     4  10  22  39  56  80 115 141 187 232 284 341
#     4  10  22  38  57  82 109 150 181 233 288 340
#     4  12  23  38  58  83 106 141 181 231 275 330
#     4   9  18  34  55  81 111 149 187 231 280 336
#     4  10  20  42  56  79 113 145 182 228 278 329
#     4   9  18  33  54  81 112 147 191 231 279 336
#
# _framework density 17.591388999999999
#
# number of rings (size 3 to 8) (size 9 to 14) (size 15 to 20)
#    0.154    1.538    3.077    1.692    1.077    0.615 
#    2.769    1.538    0.000    1.231    0.000    2.154 
#    0.000    0.000    0.000    7.692    0.000    8.000 
#
# Total GULP energy -868968.255014 kJ/mol
# GULP energy per Si atom -5570.309327 kJ/mol
# Density = 1.755135 g / cm^3
# Si number density = 17.591389 Si / 1000 Ang^3
#
#
#
# Elastic Constant Matrix: (Units=GPa)
#
#
# Indices 1 2 3 4 5 6 
#
# 1 80.8460 38.5654 32.7065 0.0000 0.0000 0.0000
# 2 38.5654 80.8460 32.7065 0.0000 0.0000 0.0000
# 3 32.7065 32.7065 97.0792 0.0000 0.0000 0.0000
# 4 0.0000 0.0000 0.0000 22.1490 0.0000 0.0000
# 5 0.0000 0.0000 0.0000 0.0000 22.1490 0.0000
# 6 0.0000 0.0000 0.0000 0.0000 0.0000 21.1403
#
#
#
# Elastic Compliance Matrix: (Units=1/GPa)
#
#
# Indices 1 2 3 4 5 6 
#
# 1 0.016961 -0.006691 -0.003460 0.000000 0.000000 0.000000
# 2 -0.006691 0.016961 -0.003460 0.000000 0.000000 0.000000
# 3 -0.003460 -0.003460 0.012632 0.000000 0.000000 0.000000
# 4 0.000000 0.000000 0.000000 0.045149 0.000000 0.000000
# 5 0.000000 0.000000 0.000000 0.000000 0.045149 0.000000
# 6 0.000000 0.000000 0.000000 0.000000 0.000000 0.047303
#
#
# Mechanical properties :
#
#
# Convention : Reuss Voigt Hill
#
# Bulk Modulus (GPa) = 51.72776 51.85864 51.79320
# Shear Modulus (GPa) = 22.95481 23.40720 23.18100
#
# Velocity S-wave (km/s) = 3.61624 3.65170 3.63402
# Velocity P-wave (km/s) = 6.84874 6.87921 6.86399
#
# Compressibility (1/GPa) = 0.01933198
#
# Stress axis : x y z
#
# Youngs Moduli (GPa) = 58.96008 58.96008 79.16278
#
# Poissons Ratio (x) = 0.39450 0.27390
# Poissons Ratio (y) = 0.39450 0.27390
# Poissons Ratio (z) = 0.20400 0.20400
#
# Static dielectric constant tensor:
#      x y z
#    x 1.595920 0.000000 0.000000 
#    y 0.000000 1.595920 0.000000 
#    z 0.000000 0.000000 1.660870 
# 
# From -- ./inp_files/5264.got.cif
#   From: 2010.05.17/outbox.cif.g08.bks.cpg/sg192_3_cif.got.tgz:5264.got - 2010.05.20 12:28:01.
