data_PCOD9588420
_publ_section_title
;
Structure prediction by ZEFSAII (Michael W. Deem and Ramdas Pophale) SiO2 
 PCOD9588420
Probable space group: P 6/M C C
;
_chemical_formula_sum "Si O2"
_cell_formula_units_Z 168
_cell_length_a 24.531500
_cell_length_b 24.531500
_cell_length_c 14.406573
_cell_angle_alpha 90.000000
_cell_angle_beta 90.000000
_cell_angle_gamma 120.000000
_cell_volume 7508.263827
_symmetry_space_group_name_H-M "P 6/M C C"
_symmetry_group_IT_number 192
_symmetry_cell_setting 'hexagonal'
loop_
_space_group_symop_operation_xyz
x,y,z
x-y,x,z
-y,x-y,z
-x,-y,z
-x+y,-x,z
y,-x+y,z
x-y,-y,1/2-z
-x,-x+y,1/2-z
y,x,1/2-z
-y,-x,1/2-z
-x+y,y,1/2-z
x,x-y,1/2-z
-x,-y,-z
-x+y,-x,-z
y,-x+y,-z
x,y,-z
x-y,x,-z
-y,x-y,-z
-x+y,y,1/2+z
x,x-y,1/2+z
-y,-x,1/2+z
y,x,1/2+z
x-y,-y,1/2+z
-x,-x+y,1/2+z
loop_
_atom_site_type_symbol
_atom_site_label
_atom_site_fract_x
_atom_site_fract_y
_atom_site_fract_z
Si Si1 0.626348 0.823806 0.891897
Si Si2 0.954316 0.312005 0.886115
Si Si3 0.519675 0.253353 0.361820
Si Si4 0.396521 0.804390 0.358316
Si Si5 0.432098 0.485108 0.111825
Si Si6 0.723197 0.781885 0.886352
Si Si7 0.974596 0.862636 0.886511
O O1 0.633915 0.888135 0.853084
O O2 0.553429 0.770795 0.888023
O O3 0.673811 0.802650 0.853557
O O4 0.643935 0.837526 0.000000
O O5 0.957843 0.376126 0.853640
O O6 0.010427 0.300023 0.858656
O O7 0.953918 0.313447 0.000000
O O8 0.519300 0.259650 0.250000
O O9 0.558500 0.325498 0.395855
O O10 0.554978 0.216508 0.394415
O O11 0.394197 0.788393 0.250000
O O12 0.419854 0.877777 0.366555
O O13 0.500000 0.500000 0.144834
O O14 0.431747 0.480737 0.000000
O O15 0.794064 0.832207 0.856954
O O16 0.723710 0.781927 0.000000
O O17 0.918533 0.875287 0.857629
O O18 0.974475 0.862494 0.000000
#
# Coordination Sequence:
#
# PCOD9588420 Si02
#       7
#    24  24  24  24  24  24  24
#     4  10  19  32  53  77 101 134 174 215 256 305
#     4   9  17  31  48  70 102 134 165 209 260 302
#     4  10  21  37  56  77 101 131 167 212 262 312
#     4  10  21  38  58  78 103 136 173 215 263 321
#     4  10  21  35  53  77 107 140 173 216 264 309
#     4   9  17  27  44  70  98 131 172 212 253 306
#     4   9  15  23  36  59  94 135 175 213 252 296
#
# _framework density 22.375346
#
# number of rings (size 3 to 8) (size 9 to 14) (size 15 to 20)
#    0.000    2.429    1.429    1.286    2.000    6.000 
#    0.000    0.000    0.000    2.571    0.000    0.000 
#    0.000    0.000    0.000    0.000    0.000    3.857 
#
# Total GULP energy -939040.700068 kJ/mol
# GULP energy per Si atom -5589.527977 kJ/mol
# Density = 2.232442 g / cm^3
# Si number density = 22.375346 Si / 1000 Ang^3
#
#
#
# Elastic Constant Matrix: (Units=GPa)
#
#
# Indices 1 2 3 4 5 6 
#
# 1 165.7269 82.9913 -17.8040 0.0000 0.0000 0.0000
# 2 82.9913 165.7269 -17.8040 0.0000 0.0000 0.0000
# 3 -17.8040 -17.8040 63.3928 0.0000 0.0000 0.0000
# 4 0.0000 0.0000 0.0000 28.1354 0.0000 0.0000
# 5 0.0000 0.0000 0.0000 0.0000 28.1354 0.0000
# 6 0.0000 0.0000 0.0000 0.0000 0.0000 41.3678
#
#
#
# Elastic Compliance Matrix: (Units=1/GPa)
#
#
# Indices 1 2 3 4 5 6 
#
# 1 0.008138 -0.003949 0.001177 0.000000 0.000000 0.000000
# 2 -0.003949 0.008138 0.001177 0.000000 0.000000 0.000000
# 3 0.001177 0.001177 0.016436 0.000000 0.000000 0.000000
# 4 0.000000 0.000000 0.000000 0.035542 0.000000 0.000000
# 5 0.000000 0.000000 0.000000 0.000000 0.035542 0.000000
# 6 0.000000 0.000000 0.000000 0.000000 0.000000 0.024173
#
#
# Mechanical properties :
#
#
# Convention : Reuss Voigt Hill
#
# Bulk Modulus (GPa) = 33.87578 54.40148 44.13863
# Shear Modulus (GPa) = 35.46073 42.69192 39.07633
#
# Velocity S-wave (km/s) = 3.98529 4.37279 4.18353
# Velocity P-wave (km/s) = 6.02904 7.06123 6.56545
#
# Compressibility (1/GPa) = 0.02951961
#
# Stress axis : x y z
#
# Youngs Moduli (GPa) = 122.88218 122.88218 60.84388
#
# Poissons Ratio (x) = 0.48524 -0.07158
# Poissons Ratio (y) = 0.48524 -0.07158
# Poissons Ratio (z) = -0.14457 -0.14457
#
# Static dielectric constant tensor:
#      x y z
#    x 1.773820 0.000000 0.000000 
#    y 0.000000 1.773820 0.000000 
#    z 0.000000 0.000000 1.889290 
# 
# From -- ./inp_files/6044.got.cif
#   From: 2010.05.17/outbox.cif.g08.bks.cpg/sg192_4_cif.got.tgz:6044.got - 2010.05.20 12:28:01.
