data_PCOD9588701
_publ_section_title
;
Structure prediction by ZEFSAII (Michael W. Deem and Ramdas Pophale) SiO2 
 PCOD9588701
Probable space group: P 6/M C C
;
_chemical_formula_sum "Si O2"
_cell_formula_units_Z 132
_cell_length_a 16.597384
_cell_length_b 16.597384
_cell_length_c 25.027785
_cell_angle_alpha 90.000000
_cell_angle_beta 90.000000
_cell_angle_gamma 120.000000
_cell_volume 5970.797348
_symmetry_space_group_name_H-M "P 6/M C C"
_symmetry_group_IT_number 192
_symmetry_cell_setting 'hexagonal'
loop_
_space_group_symop_operation_xyz
x,y,z
x-y,x,z
-y,x-y,z
-x,-y,z
-x+y,-x,z
y,-x+y,z
x-y,-y,1/2-z
-x,-x+y,1/2-z
y,x,1/2-z
-y,-x,1/2-z
-x+y,y,1/2-z
x,x-y,1/2-z
-x,-y,-z
-x+y,-x,-z
y,-x+y,-z
x,y,-z
x-y,x,-z
-y,x-y,-z
-x+y,y,1/2+z
x,x-y,1/2+z
-y,-x,1/2+z
y,x,1/2+z
x-y,-y,1/2+z
-x,-x+y,1/2+z
loop_
_atom_site_type_symbol
_atom_site_label
_atom_site_fract_x
_atom_site_fract_y
_atom_site_fract_z
Si Si1 0.620755 0.122526 0.500000
Si Si2 0.167042 0.711726 0.616437
Si Si3 0.333333 0.000000 0.313259
Si Si4 0.168438 0.455859 0.000000
Si Si5 0.121983 0.500375 0.383563
Si Si6 0.788649 0.954940 0.116437
Si Si7 0.210808 0.164896 0.500000
O O1 0.722813 0.211935 0.500000
O O2 0.545268 0.155788 0.500000
O O3 0.609915 0.075621 0.442555
O O4 0.132373 0.723419 0.557445
O O5 0.275318 0.788292 0.620178
O O6 0.153693 0.608652 0.620178
O O7 0.103163 0.718274 0.661688
O O8 0.384941 0.948444 0.338312
O O9 0.230170 0.948392 0.338312
O O10 0.333333 0.000000 0.250000
O O11 0.820360 0.878375 0.120178
O O12 0.742287 0.943248 0.057445
O O13 0.121398 0.177545 0.500000
#
# Coordination Sequence:
#
# PCOD9588701 Si02
#       7
#    12  24  24  12  24  24  12
#     4   8  15  30  56  90 121 146 178 228 290 350
#     4  10  21  39  64  91 119 152 191 236 289 353
#     4  12  27  43  56  79 120 162 199 248 301 333
#     4   8  15  30  56  90 121 146 178 228 290 350
#     4  10  21  39  64  91 119 152 191 236 289 353
#     4  10  21  39  64  91 119 152 191 236 289 353
#     4   8  15  30  56  90 121 146 178 228 290 350
#
# _framework density 22.107599
#
# number of rings (size 3 to 8) (size 9 to 14) (size 15 to 20)
#    0.000    2.182    0.000    2.455    0.000   10.909 
#    0.000    8.182    0.000    3.273    0.000    0.000 
#    0.000    0.000    0.000    0.000    0.000    0.000 
#
# Total GULP energy -737972.493577 kJ/mol
# GULP energy per Si atom -5590.700709 kJ/mol
# Density = 2.205728 g / cm^3
# Si number density = 22.107599 Si / 1000 Ang^3
#
#
#
# Elastic Constant Matrix: (Units=GPa)
#
#
# Indices 1 2 3 4 5 6 
#
# 1 113.9954 27.9704 45.4639 0.0000 0.0000 0.0000
# 2 27.9704 113.9954 45.4639 0.0000 0.0000 0.0000
# 3 45.4639 45.4639 221.8012 0.0000 0.0000 0.0000
# 4 0.0000 0.0000 0.0000 69.3816 0.0000 0.0000
# 5 0.0000 0.0000 0.0000 0.0000 69.3816 0.0000
# 6 0.0000 0.0000 0.0000 0.0000 0.0000 43.0125
#
#
#
# Elastic Compliance Matrix: (Units=1/GPa)
#
#
# Indices 1 2 3 4 5 6 
#
# 1 0.009866 -0.001758 -0.001662 0.000000 0.000000 0.000000
# 2 -0.001758 0.009866 -0.001662 0.000000 0.000000 0.000000
# 3 -0.001662 -0.001662 0.005190 0.000000 0.000000 0.000000
# 4 0.000000 0.000000 0.000000 0.014413 0.000000 0.000000
# 5 0.000000 0.000000 0.000000 0.000000 0.014413 0.000000
# 6 0.000000 0.000000 0.000000 0.000000 0.000000 0.023249
#
#
# Mechanical properties :
#
#
# Convention : Reuss Voigt Hill
#
# Bulk Modulus (GPa) = 67.75673 76.39870 72.07771
# Shear Modulus (GPa) = 54.29954 58.41473 56.35714
#
# Velocity S-wave (km/s) = 4.96133 5.14590 5.05446
# Velocity P-wave (km/s) = 7.97088 8.36300 8.16929
#
# Compressibility (1/GPa) = 0.01475868
#
# Stress axis : x y z
#
# Youngs Moduli (GPa) = 101.35307 101.35307 192.68199
#
# Poissons Ratio (x) = 0.17818 0.32025
# Poissons Ratio (y) = 0.17818 0.32025
# Poissons Ratio (z) = 0.16845 0.16845
#
# Static dielectric constant tensor:
#      x y z
#    x 1.832760 0.000000 0.000000 
#    y 0.000000 1.832760 0.000000 
#    z 0.000000 0.000000 1.805470 
# 
# From -- ./inp_files/5867.got.cif
#   From: 2010.05.17/outbox.cif.g08.bks.cpg/sg192_3_cif.got.tgz:5867.got - 2010.05.20 12:28:01.
