data_PCOD9588368
_publ_section_title
;
Structure prediction by ZEFSAII (Michael W. Deem and Ramdas Pophale) SiO2 
 PCOD9588368
Probable space group: P 6/M C C
;
_chemical_formula_sum "Si O2"
_cell_formula_units_Z 144
_cell_length_a 21.839659
_cell_length_b 21.839659
_cell_length_c 14.539060
_cell_angle_alpha 90.000000
_cell_angle_beta 90.000000
_cell_angle_gamma 120.000000
_cell_volume 6005.631305
_symmetry_space_group_name_H-M "P 6/M C C"
_symmetry_group_IT_number 192
_symmetry_cell_setting 'hexagonal'
loop_
_space_group_symop_operation_xyz
x,y,z
x-y,x,z
-y,x-y,z
-x,-y,z
-x+y,-x,z
y,-x+y,z
x-y,-y,1/2-z
-x,-x+y,1/2-z
y,x,1/2-z
-y,-x,1/2-z
-x+y,y,1/2-z
x,x-y,1/2-z
-x,-y,-z
-x+y,-x,-z
y,-x+y,-z
x,y,-z
x-y,x,-z
-y,x-y,-z
-x+y,y,1/2+z
x,x-y,1/2+z
-y,-x,1/2+z
y,x,1/2+z
x-y,-y,1/2+z
-x,-x+y,1/2+z
loop_
_atom_site_type_symbol
_atom_site_label
_atom_site_fract_x
_atom_site_fract_y
_atom_site_fract_z
Si Si1 0.412072 0.323224 0.142451
Si Si2 0.917215 0.832958 0.861902
Si Si3 0.170248 0.836696 0.362253
Si Si4 0.444182 0.901413 0.351243
Si Si5 0.602422 0.353926 0.390495
Si Si6 0.669299 0.602044 0.863891
O O1 0.386497 0.244479 0.111056
O O2 0.488458 0.387087 0.109810
O O3 0.348831 0.337145 0.117439
O O4 0.412056 0.327996 0.254339
O O5 0.875097 0.874403 0.889430
O O6 0.916383 0.832765 0.750000
O O7 0.875863 0.749503 0.890077
O O8 0.165816 0.834185 0.250000
O O9 0.251445 0.880264 0.394472
O O10 0.465710 0.931419 0.250000
O O11 0.378728 0.822356 0.339997
O O12 0.402286 0.934983 0.399284
O O13 0.593332 0.278377 0.368505
O O14 0.593421 0.356657 0.500000
#
# Coordination Sequence:
#
# PCOD9588368 Si02
#       6
#    24  24  24  24  24  24
#     4   9  17  28  40  59  89 120 148 184 235 283
#     4   9  15  22  32  47  69 101 142 185 224 263
#     4   9  16  24  37  54  76 109 149 187 224 271
#     4  10  19  28  47  71  93 119 152 195 235 269
#     4   8  18  34  48  64  93 127 153 183 232 284
#     4   9  17  28  40  59  89 120 148 184 235 283
#
# _framework density 23.977495000000001
#
# number of rings (size 3 to 8) (size 9 to 14) (size 15 to 20)
#    0.333    2.667    0.000    1.667    2.333    7.333 
#    0.000    0.000    0.000    2.000    0.000    0.000 
#    0.000    0.000    0.000    0.000    0.000    0.000 
#
# Total GULP energy -802456.031809 kJ/mol
# GULP energy per Si atom -5572.611332 kJ/mol
# Density = 2.392292 g / cm^3
# Si number density = 23.977495 Si / 1000 Ang^3
#
#
#
# Elastic Constant Matrix: (Units=GPa)
#
#
# Indices 1 2 3 4 5 6 
#
# 1 165.5283 89.2247 1.1549 0.0000 0.0000 0.0000
# 2 89.2247 165.5283 1.1549 0.0000 0.0000 0.0000
# 3 1.1549 1.1549 85.7162 0.0000 0.0000 0.0000
# 4 0.0000 0.0000 0.0000 -30.5077 0.0000 0.0000
# 5 0.0000 0.0000 0.0000 0.0000 -30.5077 0.0000
# 6 0.0000 0.0000 0.0000 0.0000 0.0000 38.1518
#
#
#
# Elastic Compliance Matrix: (Units=1/GPa)
#
#
# Indices 1 2 3 4 5 6 
#
# 1 0.008516 -0.004590 -0.000053 0.000000 0.000000 0.000000
# 2 -0.004590 0.008516 -0.000053 0.000000 0.000000 0.000000
# 3 -0.000053 -0.000053 0.011668 0.000000 0.000000 0.000000
# 4 0.000000 0.000000 0.000000 -0.032779 0.000000 0.000000
# 5 0.000000 0.000000 0.000000 0.000000 -0.032779 0.000000
# 6 0.000000 0.000000 0.000000 0.000000 0.000000 0.026211
#
#
# Mechanical properties :
#
#
# Convention : Reuss Voigt Hill
#
# Bulk Modulus (GPa) = 51.79211 66.64908 59.22060
# Shear Modulus (GPa) = 965.17460 17.10982 491.14221
#
# Velocity S-wave (km/s) = 20.08500 2.67419 14.32757
# Velocity P-wave (km/s) = 23.65425 6.11489 17.27593
#
# Compressibility (1/GPa) = 0.01930796
#
# Stress axis : x y z
#
# Youngs Moduli (GPa) = 117.43017 117.43017 85.70570
#
# Poissons Ratio (x) = 0.53899 0.00453
# Poissons Ratio (y) = 0.53899 0.00453
# Poissons Ratio (z) = 0.00621 0.00621
#
# Static dielectric constant tensor:
#      x y z
#    x 1.915970 0.000000 0.000000 
#    y 0.000000 1.915970 0.000000 
#    z 0.000000 0.000000 1.905020 
# 
# From -- ./inp_files/5144.got.cif
#   From: 2010.05.17/outbox.cif.g08.bks.cpg/sg192_3_cif.got.tgz:5144.got - 2010.05.20 12:28:01.
