data_PCOD9588730
_publ_section_title
;
Structure prediction by ZEFSAII (Michael W. Deem and Ramdas Pophale) SiO2 
 PCOD9588730
Probable space group: P 6/M C C
;
_chemical_formula_sum "Si O2"
_cell_formula_units_Z 96
_cell_length_a 18.805619
_cell_length_b 18.805619
_cell_length_c 13.926306
_cell_angle_alpha 90.000000
_cell_angle_beta 90.000000
_cell_angle_gamma 120.000000
_cell_volume 4265.223875
_symmetry_space_group_name_H-M "P 6/M C C"
_symmetry_group_IT_number 192
_symmetry_cell_setting 'hexagonal'
loop_
_space_group_symop_operation_xyz
x,y,z
x-y,x,z
-y,x-y,z
-x,-y,z
-x+y,-x,z
y,-x+y,z
x-y,-y,1/2-z
-x,-x+y,1/2-z
y,x,1/2-z
-y,-x,1/2-z
-x+y,y,1/2-z
x,x-y,1/2-z
-x,-y,-z
-x+y,-x,-z
y,-x+y,-z
x,y,-z
x-y,x,-z
-y,x-y,-z
-x+y,y,1/2+z
x,x-y,1/2+z
-y,-x,1/2+z
y,x,1/2+z
x-y,-y,1/2+z
-x,-x+y,1/2+z
loop_
_atom_site_type_symbol
_atom_site_label
_atom_site_fract_x
_atom_site_fract_y
_atom_site_fract_z
Si Si1 0.700776 0.132648 0.229653
Si Si2 0.860742 0.040684 0.383207
Si Si3 0.352771 0.585435 0.387869
Si Si4 0.022861 0.333270 0.613779
O O1 0.789521 0.210480 0.250000
O O2 0.645733 0.164913 0.179410
O O3 0.704132 0.068758 0.154643
O O4 0.666046 0.081297 0.327318
O O5 0.838965 0.950001 0.350828
O O6 0.864211 0.040590 0.500000
O O7 0.784457 0.053293 0.360427
O O8 0.416080 0.681886 0.371528
O O9 0.356713 0.568076 0.500000
O O10 0.025656 0.344239 0.500000
#
# Coordination Sequence:
#
# PCOD9588730 Si02
#       4
#    24  24  24  24
#     4  11  22  36  63  96 128 170 221 277 327 391
#     4   9  16  28  49  78 117 164 217 275 328 377
#     4   8  18  39  69 104 131 154 195 263 339 402
#     4  10  22  38  56  88 135 184 226 268 331 406
#
# _framework density 22.507611000000001
#
# number of rings (size 3 to 8) (size 9 to 14) (size 15 to 20)
#    0.500    2.000    0.000    2.500    0.000    6.000 
#    0.000    0.000    0.000   13.500    0.000   29.750 
#    0.000    0.000    0.000    0.000    0.000    0.500 
#
# Total GULP energy -536693.765647 kJ/mol
# GULP energy per Si atom -5590.560059 kJ/mol
# Density = 2.245638 g / cm^3
# Si number density = 22.507611 Si / 1000 Ang^3
#
#
#
# Elastic Constant Matrix: (Units=GPa)
#
#
# Indices 1 2 3 4 5 6 
#
# 1 76.2165 32.7259 48.8608 0.0000 0.0000 0.0000
# 2 32.7259 76.2165 48.8608 0.0000 0.0000 0.0000
# 3 48.8608 48.8608 147.6272 0.0000 0.0000 0.0000
# 4 0.0000 0.0000 0.0000 31.5185 0.0000 0.0000
# 5 0.0000 0.0000 0.0000 0.0000 31.5185 0.0000
# 6 0.0000 0.0000 0.0000 0.0000 0.0000 21.7453
#
#
#
# Elastic Compliance Matrix: (Units=1/GPa)
#
#
# Indices 1 2 3 4 5 6 
#
# 1 0.018024 -0.004969 -0.004321 0.000000 0.000000 0.000000
# 2 -0.004969 0.018024 -0.004321 0.000000 0.000000 0.000000
# 3 -0.004321 -0.004321 0.009634 0.000000 0.000000 0.000000
# 4 0.000000 0.000000 0.000000 0.031727 0.000000 0.000000
# 5 0.000000 0.000000 0.000000 0.000000 0.031727 0.000000
# 6 0.000000 0.000000 0.000000 0.000000 0.000000 0.045987
#
#
# Mechanical properties :
#
#
# Convention : Reuss Voigt Hill
#
# Bulk Modulus (GPa) = 54.16965 62.32836 58.24900
# Shear Modulus (GPa) = 26.52524 28.26397 27.39460
#
# Velocity S-wave (km/s) = 3.43665 3.54750 3.49252
# Velocity P-wave (km/s) = 6.31403 6.67323 6.49611
#
# Compressibility (1/GPa) = 0.01846052
#
# Stress axis : x y z
#
# Youngs Moduli (GPa) = 55.48087 55.48087 103.79892
#
# Poissons Ratio (x) = 0.27570 0.44850
# Poissons Ratio (y) = 0.27570 0.44850
# Poissons Ratio (z) = 0.23973 0.23973
#
# Static dielectric constant tensor:
#      x y z
#    x 1.823080 0.000000 0.000000 
#    y 0.000000 1.823080 0.000000 
#    z 0.000000 0.000000 1.850320 
# 
# From -- ./inp_files/2731.got.cif
#   From: 2010.05.17/outbox.cif.g08.bks.cpg/sg192_2_cif.got.tgz:2731.got - 2010.05.20 12:28:01.
