data_PCOD9588971
_publ_section_title
;
Structure prediction by ZEFSAII (Michael W. Deem and Ramdas Pophale) SiO2 
 PCOD9588971
Probable space group: P 63/M C M
;
_chemical_formula_sum "Si O2"
_cell_formula_units_Z 132
_cell_length_a 18.548655
_cell_length_b 18.548655
_cell_length_c 24.213695
_cell_angle_alpha 90.000000
_cell_angle_beta 90.000000
_cell_angle_gamma 120.000000
_cell_volume 7214.671250
_symmetry_space_group_name_H-M "P 63/M C M"
_symmetry_group_IT_number 193
_symmetry_cell_setting 'hexagonal'
loop_
_space_group_symop_operation_xyz
x,y,z
x-y,x,1/2+z
-y,x-y,z
-x,-y,1/2+z
-x+y,-x,z
y,-x+y,1/2+z
x-y,-y,1/2-z
-x,-x+y,1/2-z
y,x,1/2-z
-y,-x,-z
-x+y,y,-z
x,x-y,-z
-x,-y,-z
-x+y,-x,1/2-z
y,-x+y,-z
x,y,1/2-z
x-y,x,-z
-y,x-y,1/2-z
-x+y,y,1/2+z
x,x-y,1/2+z
-y,-x,1/2+z
y,x,z
x-y,-y,z
-x,-x+y,z
loop_
_atom_site_type_symbol
_atom_site_label
_atom_site_fract_x
_atom_site_fract_y
_atom_site_fract_z
Si Si1 0.189211 0.902354 0.182891
Si Si2 0.189506 0.707378 0.686438
Si Si3 0.000000 0.607896 0.346551
Si Si4 0.225725 0.000000 0.817037
Si Si5 0.000000 0.581616 0.477285
Si Si6 0.331657 0.824217 0.976388
Si Si7 0.461869 0.830825 0.152740
O O1 0.189404 0.901943 0.250000
O O2 0.237095 0.851427 0.166486
O O3 0.090670 0.852793 0.166614
O O4 0.239662 0.000000 0.165603
O O5 0.162800 0.684814 0.750000
O O6 0.289852 0.758864 0.683875
O O7 0.166744 0.623150 0.654225
O O8 0.000000 0.693239 0.340215
O O9 0.916480 0.533856 0.322308
O O10 0.000000 0.583428 0.410796
O O11 0.228594 0.000000 0.750000
O O12 0.000000 0.500000 0.500000
O O13 0.087483 0.657428 0.494566
O O14 0.337828 0.821323 0.910468
O O15 0.249056 0.750945 0.000000
O O16 0.408689 0.817378 0.000000
#
# Coordination Sequence:
#
# PCOD9588971 Si02
#       7
#    24  24  12  12  12  24  24
#     4   9  19  35  53  76 105 139 179 226 277 318
#     4  11  22  35  50  72 109 145 180 225 262 303
#     4  10  20  34  54  76  99 135 183 221 260 323
#     4  10  18  34  58  78 105 143 184 228 270 326
#     4   8  18  34  52  76 102 124 162 215 266 306
#     4  10  19  34  55  75  99 132 168 215 264 313
#     4  11  22  35  52  75 101 137 185 218 262 314
#
# _framework density 18.296052
#
# number of rings (size 3 to 8) (size 9 to 14) (size 15 to 20)
#    0.000    2.000    1.818    2.182    1.273    0.727 
#    0.545    0.000    2.000    0.000    0.000    0.000 
#    0.000    0.000    0.000    0.273    0.000    2.182 
#
# Total GULP energy -735222.973128 kJ/mol
# GULP energy per Si atom -5569.871009 kJ/mol
# Density = 1.825441 g / cm^3
# Si number density = 18.296052 Si / 1000 Ang^3
#
#
#
# Elastic Constant Matrix: (Units=GPa)
#
#
# Indices 1 2 3 4 5 6 
#
# 1 120.0019 68.9577 14.2799 0.0000 0.0000 0.0000
# 2 68.9577 120.0019 14.2799 0.0000 0.0000 0.0000
# 3 14.2799 14.2799 36.9097 0.0000 0.0000 0.0000
# 4 0.0000 0.0000 0.0000 5.8644 0.0000 0.0000
# 5 0.0000 0.0000 0.0000 0.0000 5.8644 0.0000
# 6 0.0000 0.0000 0.0000 0.0000 0.0000 25.5221
#
#
#
# Elastic Compliance Matrix: (Units=1/GPa)
#
#
# Indices 1 2 3 4 5 6 
#
# 1 0.012606 -0.006985 -0.002175 0.000000 0.000000 0.000000
# 2 -0.006985 0.012606 -0.002175 0.000000 0.000000 0.000000
# 3 -0.002175 -0.002175 0.028776 0.000000 0.000000 0.000000
# 4 0.000000 0.000000 0.000000 0.170520 0.000000 0.000000
# 5 0.000000 0.000000 0.000000 0.000000 0.170520 0.000000
# 6 0.000000 0.000000 0.000000 0.000000 0.000000 0.039182
#
#
# Mechanical properties :
#
#
# Convention : Reuss Voigt Hill
#
# Bulk Modulus (GPa) = 31.92955 52.43870 42.18413
# Shear Modulus (GPa) = 10.69938 19.40992 15.05465
#
# Velocity S-wave (km/s) = 2.42087 3.26065 2.87162
# Velocity P-wave (km/s) = 5.03027 6.54975 5.83964
#
# Compressibility (1/GPa) = 0.03131895
#
# Stress axis : x y z
#
# Youngs Moduli (GPa) = 79.32832 79.32832 34.75142
#
# Poissons Ratio (x) = 0.55411 0.07557
# Poissons Ratio (y) = 0.55411 0.07557
# Poissons Ratio (z) = 0.17251 0.17251
#
# Static dielectric constant tensor:
#      x y z
#    x 1.652220 0.000000 0.000000 
#    y 0.000000 1.652220 0.000000 
#    z 0.000000 0.000000 0.789100 
# 
# From -- ./inp_files/8375.got.cif
#   From: 2010.05.17/outbox.cif.g08.bks.cpg/sg193_5_cif.got.tgz:8375.got - 2010.05.20 12:33:02.
