data_PCOD9588147
_publ_section_title
;
Structure prediction by ZEFSAII (Michael W. Deem and Ramdas Pophale) SiO2 
 PCOD9588147
Probable space group: P 6/M M M
;
_chemical_formula_sum "Si O2"
_cell_formula_units_Z 156
_cell_length_a 21.333889
_cell_length_b 21.333889
_cell_length_c 22.803347
_cell_angle_alpha 90.000000
_cell_angle_beta 90.000000
_cell_angle_gamma 120.000000
_cell_volume 8988.128856
_symmetry_space_group_name_H-M "P 6/M M M"
_symmetry_group_IT_number 191
_symmetry_cell_setting 'hexagonal'
loop_
_space_group_symop_operation_xyz
x,y,z
x-y,x,z
-y,x-y,z
-x,-y,z
-x+y,-x,z
y,-x+y,z
x-y,-y,-z
-x,-x+y,-z
y,x,-z
-y,-x,-z
-x+y,y,-z
x,x-y,-z
-x,-y,-z
-x+y,-x,-z
y,-x+y,-z
x,y,-z
x-y,x,-z
-y,x-y,-z
-x+y,y,z
x,x-y,z
-y,-x,z
y,x,z
x-y,-y,z
-x,-x+y,z
loop_
_atom_site_type_symbol
_atom_site_label
_atom_site_fract_x
_atom_site_fract_y
_atom_site_fract_z
Si Si1 0.477824 0.813938 0.500000
Si Si2 0.358313 0.916331 0.170357
Si Si3 0.914889 0.556076 0.389150
Si Si4 0.666833 0.477691 0.930916
Si Si5 0.079187 0.778932 0.353178
Si Si6 0.336247 0.523313 0.721408
Si Si7 0.220982 0.300099 0.213711
O O1 0.392059 0.784117 0.500000
O O2 0.492710 0.746355 0.500000
O O3 0.511768 0.866926 0.555755
O O4 0.357999 0.881384 0.108374
O O5 0.355006 0.861161 0.219982
O O6 0.283406 0.916111 0.179368
O O7 0.421099 0.000000 0.177558
O O8 0.915850 0.631986 0.386739
O O9 0.869957 0.513441 0.331670
O O10 0.000000 0.578373 0.389493
O O11 0.745094 0.490188 0.912262
O O12 0.606427 0.393574 0.923743
O O13 0.670057 0.494640 0.000000
O O14 0.143512 0.856489 0.369533
O O15 0.085583 0.767196 0.283405
O O16 0.000000 0.767234 0.362389
O O17 0.252893 0.505786 0.719542
O O18 0.390895 0.609106 0.718001
O O19 0.143357 0.286714 0.197489
O O20 0.232403 0.232403 0.204757
#
# Coordination Sequence:
#
# PCOD9588147 Si02
#       7
#    12  24  24  24  24  24  24
#     4  12  26  43  61  79 106 143 181 217 259 320
#     4  11  22  35  53  78 105 137 175 220 271 317
#     4  11  23  39  59  82 106 136 174 222 273 317
#     4  10  21  37  56  76 101 136 177 219 264 319
#     4   9  16  29  50  75 102 132 168 208 253 303
#     4  12  24  38  56  78 107 139 175 219 268 322
#     4   9  16  28  48  73 101 131 166 207 252 303
#
# _framework density 17.356225999999999
#
# number of rings (size 3 to 8) (size 9 to 14) (size 15 to 20)
#    0.000    1.538    1.538    4.769    0.000    4.308 
#    0.000    3.846    0.000    0.308    0.000    2.154 
#    0.000    0.000    0.000    0.000    0.000   16.000 
#
# Total GULP energy -870554.405249 kJ/mol
# GULP energy per Si atom -5580.476957 kJ/mol
# Density = 1.731672 g / cm^3
# Si number density = 17.356226 Si / 1000 Ang^3
#
#
#
# Elastic Constant Matrix: (Units=GPa)
#
#
# Indices 1 2 3 4 5 6 
#
# 1 97.1700 57.2077 30.7198 0.0000 0.0000 0.0000
# 2 57.2077 97.1700 30.7198 0.0000 0.0000 0.0000
# 3 30.7198 30.7198 59.9989 0.0000 0.0000 0.0000
# 4 0.0000 0.0000 0.0000 35.4667 0.0000 0.0000
# 5 0.0000 0.0000 0.0000 0.0000 35.4667 0.0000
# 6 0.0000 0.0000 0.0000 0.0000 0.0000 19.9812
#
#
#
# Elastic Compliance Matrix: (Units=1/GPa)
#
#
# Indices 1 2 3 4 5 6 
#
# 1 0.016579 -0.008444 -0.004165 0.000000 0.000000 0.000000
# 2 -0.008444 0.016579 -0.004165 0.000000 0.000000 0.000000
# 3 -0.004165 -0.004165 0.020932 0.000000 0.000000 0.000000
# 4 0.000000 0.000000 0.000000 0.028195 0.000000 0.000000
# 5 0.000000 0.000000 0.000000 0.000000 0.028195 0.000000
# 6 0.000000 0.000000 0.000000 0.000000 0.000000 0.050047
#
#
# Mechanical properties :
#
#
# Convention : Reuss Voigt Hill
#
# Bulk Modulus (GPa) = 48.68155 54.62592 51.65373
# Shear Modulus (GPa) = 24.88477 27.22904 26.05691
#
# Velocity S-wave (km/s) = 3.79062 3.96515 3.87887
# Velocity P-wave (km/s) = 6.87515 7.24603 7.06303
#
# Compressibility (1/GPa) = 0.02054166
#
# Stress axis : x y z
#
# Youngs Moduli (GPa) = 60.31560 60.31560 47.77295
#
# Poissons Ratio (x) = 0.50931 0.19899
# Poissons Ratio (y) = 0.50931 0.19899
# Poissons Ratio (z) = 0.25124 0.25124
#
# Static dielectric constant tensor:
#      x y z
#    x 1.591650 0.000000 0.000000 
#    y 0.000000 1.591650 0.000000 
#    z 0.000000 0.000000 1.595800 
# 
# From -- ./inp_files/7727.got.cif
#   From: 2010.05.17/outbox.cif.g08.bks.cpg/sg191_4_cif.got.tgz:7727.got - 2010.05.20 12:20:32.
