data_PCOD9588213
_publ_section_title
;
Structure prediction by ZEFSAII (Michael W. Deem and Ramdas Pophale) SiO2 
 PCOD9588213
Probable space group: P 6/M M M
;
_chemical_formula_sum "Si O2"
_cell_formula_units_Z 108
_cell_length_a 21.190792
_cell_length_b 21.190792
_cell_length_c 17.979648
_cell_angle_alpha 90.000000
_cell_angle_beta 90.000000
_cell_angle_gamma 120.000000
_cell_volume 6992.076866
_symmetry_space_group_name_H-M "P 6/M M M"
_symmetry_group_IT_number 191
_symmetry_cell_setting 'hexagonal'
loop_
_space_group_symop_operation_xyz
x,y,z
x-y,x,z
-y,x-y,z
-x,-y,z
-x+y,-x,z
y,-x+y,z
x-y,-y,-z
-x,-x+y,-z
y,x,-z
-y,-x,-z
-x+y,y,-z
x,x-y,-z
-x,-y,-z
-x+y,-x,-z
y,-x+y,-z
x,y,-z
x-y,x,-z
-y,x-y,-z
-x+y,y,z
x,x-y,z
-y,-x,z
y,x,z
x-y,-y,z
-x,-x+y,z
loop_
_atom_site_type_symbol
_atom_site_label
_atom_site_fract_x
_atom_site_fract_y
_atom_site_fract_z
Si Si1 0.666180 0.480968 0.718653
Si Si2 0.914868 0.554627 0.859270
Si Si3 0.812956 0.336401 0.000000
Si Si4 0.303114 0.223205 0.087850
Si Si5 0.464734 0.381931 0.585286
O O1 0.743484 0.486967 0.734753
O O2 0.603359 0.396642 0.709481
O O3 0.640044 0.513757 0.784913
O O4 0.667925 0.524590 0.644438
O O5 0.914621 0.630326 0.865787
O O6 0.000000 0.577092 0.863392
O O7 0.865527 0.508433 0.928647
O O8 0.747868 0.252133 0.000000
O O9 0.779593 0.389797 0.000000
O O10 0.288360 0.144180 0.106124
O O11 0.235083 0.235083 0.097846
O O12 0.324194 0.237691 0.000000
O O13 0.453089 0.355583 0.500000
O O14 0.541231 0.458770 0.586766
O O15 0.403390 0.403390 0.605063
#
# Coordination Sequence:
#
# PCOD9588213 Si02
#       5
#    24  24  12  24  24
#     4  11  22  34  48  67  94 124 153 188 233 286
#     4  11  22  35  51  69  87 115 156 201 238 269
#     4  12  24  37  51  67  92 121 149 183 231 292
#     4   9  16  28  46  66  88 113 144 181 222 265
#     4   8  15  30  51  71  90 115 149 188 227 267
#
# _framework density 15.446054
#
# number of rings (size 3 to 8) (size 9 to 14) (size 15 to 20)
#    0.000    2.000    1.111    4.667    0.000    3.556 
#    0.000    2.222    0.000    1.556    0.000    1.556 
#    0.000    0.000    0.000    0.000    0.000    0.000 
#
# Total GULP energy -602171.141344 kJ/mol
# GULP energy per Si atom -5575.658716 kJ/mol
# Density = 1.541090 g / cm^3
# Si number density = 15.446054 Si / 1000 Ang^3
#
#
#
# Elastic Constant Matrix: (Units=GPa)
#
#
# Indices 1 2 3 4 5 6 
#
# 1 76.7352 46.8099 26.5876 0.0000 0.0000 0.0000
# 2 46.8099 76.7352 26.5876 0.0000 0.0000 0.0000
# 3 26.5876 26.5876 67.5610 0.0000 0.0000 0.0000
# 4 0.0000 0.0000 0.0000 16.4390 0.0000 0.0000
# 5 0.0000 0.0000 0.0000 0.0000 16.4390 0.0000
# 6 0.0000 0.0000 0.0000 0.0000 0.0000 14.9627
#
#
#
# Elastic Compliance Matrix: (Units=1/GPa)
#
#
# Indices 1 2 3 4 5 6 
#
# 1 0.021581 -0.011836 -0.003835 0.000000 0.000000 0.000000
# 2 -0.011836 0.021581 -0.003835 0.000000 0.000000 0.000000
# 3 -0.003835 -0.003835 0.017820 0.000000 0.000000 0.000000
# 4 0.000000 0.000000 0.000000 0.060831 0.000000 0.000000
# 5 0.000000 0.000000 0.000000 0.000000 0.060831 0.000000
# 6 0.000000 0.000000 0.000000 0.000000 0.000000 0.066833
#
#
# Mechanical properties :
#
#
# Convention : Reuss Voigt Hill
#
# Bulk Modulus (GPa) = 45.51720 46.77796 46.14758
# Shear Modulus (GPa) = 16.90273 17.63791 17.27032
#
# Velocity S-wave (km/s) = 3.31162 3.38287 3.34744
# Velocity P-wave (km/s) = 6.64492 6.75344 6.69940
#
# Compressibility (1/GPa) = 0.02196972
#
# Stress axis : x y z
#
# Youngs Moduli (GPa) = 46.33785 46.33785 56.11733
#
# Poissons Ratio (x) = 0.54845 0.21521
# Poissons Ratio (y) = 0.54845 0.21521
# Poissons Ratio (z) = 0.17770 0.17770
#
# Static dielectric constant tensor:
#      x y z
#    x 1.516440 0.000000 0.000000 
#    y 0.000000 1.516440 0.000000 
#    z 0.000000 0.000000 1.527000 
# 
# From -- ./inp_files/6117.got.cif
#   From: 2010.05.17/outbox.cif.g08.bks.cpg/sg191_4_cif.got.tgz:6117.got - 2010.05.20 12:20:32.
