data_PCOD9588836
_publ_section_title
;
Structure prediction by ZEFSAII (Michael W. Deem and Ramdas Pophale) SiO2 
 PCOD9588836
Probable space group: P 6/M C C
;
_chemical_formula_sum "Si O2"
_cell_formula_units_Z 44
_cell_length_a 13.039674
_cell_length_b 13.039674
_cell_length_c 14.110441
_cell_angle_alpha 90.000000
_cell_angle_beta 90.000000
_cell_angle_gamma 120.000000
_cell_volume 2077.804520
_symmetry_space_group_name_H-M "P 6/M C C"
_symmetry_group_IT_number 192
_symmetry_cell_setting 'hexagonal'
loop_
_space_group_symop_operation_xyz
x,y,z
x-y,x,z
-y,x-y,z
-x,-y,z
-x+y,-x,z
y,-x+y,z
x-y,-y,1/2-z
-x,-x+y,1/2-z
y,x,1/2-z
-y,-x,1/2-z
-x+y,y,1/2-z
x,x-y,1/2-z
-x,-y,-z
-x+y,-x,-z
y,-x+y,-z
x,y,-z
x-y,x,-z
-y,x-y,-z
-x+y,y,1/2+z
x,x-y,1/2+z
-y,-x,1/2+z
y,x,1/2+z
x-y,-y,1/2+z
-x,-x+y,1/2+z
loop_
_atom_site_type_symbol
_atom_site_label
_atom_site_fract_x
_atom_site_fract_y
_atom_site_fract_z
Si Si1 0.629110 0.553580 0.152816
Si Si2 0.333334 0.666667 0.616793
Si Si3 0.058997 0.265358 0.500000
O O1 0.500000 0.500000 0.105719
O O2 0.608431 0.608431 0.250000
O O3 0.656714 0.445732 0.153349
O O4 0.729998 0.655095 0.091218
O O5 0.333334 0.666668 0.500000
O O6 0.155277 0.226041 0.500000
#
# Coordination Sequence:
#
# PCOD9588836 Si02
#       3
#    24   8  12
#     4  11  26  45  72 109 148 189 245 311 377 443
#     4  12  24  46  80 107 149 202 255 301 374 458
#     4  12  26  46  70 100 141 194 246 310 378 462
#
# _framework density 21.176199
#
# number of rings (size 3 to 8) (size 9 to 14) (size 15 to 20)
#    0.000    0.545    2.727    4.364    0.000   19.636 
#    0.000    0.000    0.000    3.273    0.000    0.000 
#    0.000    0.000    0.000    0.000    0.000    0.000 
#
# Total GULP energy -246009.366139 kJ/mol
# GULP energy per Si atom -5591.121958 kJ/mol
# Density = 2.112800 g / cm^3
# Si number density = 21.176199 Si / 1000 Ang^3
#
#
#
# Elastic Constant Matrix: (Units=GPa)
#
#
# Indices 1 2 3 4 5 6 
#
# 1 241.6919 131.5561 84.2384 0.0001 -0.0001 -0.0001
# 2 131.5561 241.6913 84.2385 0.0002 -0.0002 -0.0002
# 3 84.2384 84.2385 173.0475 -0.0001 0.0000 -0.0001
# 4 0.0001 0.0002 -0.0001 21.5693 0.0000 0.0001
# 5 -0.0001 -0.0002 0.0000 0.0000 21.5695 0.0001
# 6 -0.0001 -0.0002 -0.0001 0.0001 0.0001 55.0674
#
#
#
# Elastic Compliance Matrix: (Units=1/GPa)
#
#
# Indices 1 2 3 4 5 6 
#
# 1 0.006257 -0.002823 -0.001671 0.000000 0.000000 0.000000
# 2 -0.002823 0.006257 -0.001671 0.000000 0.000000 0.000000
# 3 -0.001671 -0.001671 0.007406 0.000000 0.000000 0.000000
# 4 0.000000 0.000000 0.000000 0.046362 0.000000 0.000000
# 5 0.000000 0.000000 0.000000 0.000000 0.046362 0.000000
# 6 0.000000 0.000000 0.000000 0.000000 0.000000 0.018160
#
#
# Mechanical properties :
#
#
# Convention : Reuss Voigt Hill
#
# Bulk Modulus (GPa) = 131.79605 139.61074 135.70339
# Shear Modulus (GPa) = 34.32553 43.40109 38.86331
#
# Velocity S-wave (km/s) = 4.03047 4.53208 4.28861
# Velocity P-wave (km/s) = 9.16692 9.66734 9.42046
#
# Compressibility (1/GPa) = 0.00758748
#
# Stress axis : x y z
#
# Youngs Moduli (GPa) = 159.82912 159.82860 135.02386
#
# Poissons Ratio (x) = 0.45120 0.22569
# Poissons Ratio (y) = 0.45120 0.22569
# Poissons Ratio (z) = 0.26715 0.26715
#
# Static dielectric constant tensor:
#      x y z
#    x 1.730690 0.000000 0.000000 
#    y 0.000000 1.730690 0.000000 
#    z 0.000000 0.000000 1.848700 
# 
# From -- ./inp_files/3642.got.cif
#   From: 2010.05.17/outbox.cif.g08.bks.cpg/sg192_2_cif.got.tgz:3642.got - 2010.05.20 12:28:01.
