data_PCOD9588258
_publ_section_title
;
Structure prediction by ZEFSAII (Michael W. Deem and Ramdas Pophale) SiO2 
 PCOD9588258
Probable space group: P 6/M M M
;
_chemical_formula_sum "Si O2"
_cell_formula_units_Z 144
_cell_length_a 21.000000
_cell_length_b 21.000000
_cell_length_c 21.000000
_cell_angle_alpha 90.000000
_cell_angle_beta 90.000000
_cell_angle_gamma 120.000000
_cell_volume 8020.261264
_symmetry_space_group_name_H-M "P 6/M M M"
_symmetry_group_IT_number 191
_symmetry_cell_setting 'hexagonal'
loop_
_space_group_symop_operation_xyz
x,y,z
x-y,x,z
-y,x-y,z
-x,-y,z
-x+y,-x,z
y,-x+y,z
x-y,-y,-z
-x,-x+y,-z
y,x,-z
-y,-x,-z
-x+y,y,-z
x,x-y,-z
-x,-y,-z
-x+y,-x,-z
y,-x+y,-z
x,y,-z
x-y,x,-z
-y,x-y,-z
-x+y,y,z
x,x-y,z
-y,-x,z
y,x,z
x-y,-y,z
-x,-x+y,z
loop_
_atom_site_type_symbol
_atom_site_label
_atom_site_fract_x
_atom_site_fract_y
_atom_site_fract_z
Si Si1 0.710591 0.085401 0.570838
Si Si2 0.836173 0.163828 0.070697
Si Si3 0.915870 0.831739 0.298913
Si Si4 0.663693 0.478797 0.811857
Si Si5 0.089244 0.683431 0.714848
Si Si6 0.842553 0.157448 0.219051
Si Si7 0.659285 0.087481 0.071911
Si Si8 0.122835 0.245669 0.569835
O O1 0.709584 0.117456 0.500000
O O2 0.700779 0.112842 0.640154
O O3 0.789668 0.090262 0.574735
O O4 0.649053 0.000000 0.568785
O O5 0.851405 0.148596 0.143463
O O6 0.747550 0.122941 0.070279
O O7 0.855832 0.144169 0.000000
O O8 0.876836 0.876836 0.283317
O O9 0.879193 0.758385 0.259125
O O10 0.905199 0.810398 0.373133
O O11 0.747594 0.495187 0.813191
O O12 0.607471 0.392530 0.810853
O O13 0.649442 0.516908 0.750961
O O14 0.646759 0.513433 0.873841
O O15 0.116639 0.758229 0.756039
O O16 0.000000 0.634607 0.717521
O O17 0.618035 0.000000 0.086188
O O18 0.636825 0.095712 0.000000
O O19 0.105598 0.211195 0.500000
#
# Coordination Sequence:
#
# PCOD9588258 Si02
#       8
#    24  12  12  24  24  12  24  12
#     4   9  17  29  48  79 115 143 174 225 288 350
#     4  10  20  36  59  89 124 155 184 228 290 354
#     4  12  25  38  52  74 112 162 210 254 300 356
#     4  12  25  42  60  83 115 157 198 240 286 347
#     4  11  20  34  59  88 116 148 191 239 294 346
#     4  12  20  35  58  88 115 151 190 242 298 354
#     4  10  20  36  61  91 122 155 190 234 288 343
#     4  10  18  29  49  77 108 146 194 244 292 350
#
# _framework density 17.954526999999999
#
# number of rings (size 3 to 8) (size 9 to 14) (size 15 to 20)
#    0.000    1.333    5.000    1.750    0.000    3.333 
#    0.000    0.833    0.000    2.000    0.000    2.333 
#    0.000    2.000    0.000    0.000    0.000    0.000 
#
# Total GULP energy -802381.653385 kJ/mol
# GULP energy per Si atom -5572.094815 kJ/mol
# Density = 1.791366 g / cm^3
# Si number density = 17.954527 Si / 1000 Ang^3
#
#
#
# Elastic Constant Matrix: (Units=GPa)
#
#
# Indices 1 2 3 4 5 6 
#
# 1 64.6411 18.8673 21.6064 0.0000 0.0000 0.0000
# 2 18.8673 64.6411 21.6064 0.0000 0.0000 0.0000
# 3 21.6064 21.6064 81.5680 0.0000 0.0000 0.0000
# 4 0.0000 0.0000 0.0000 15.8770 0.0000 0.0000
# 5 0.0000 0.0000 0.0000 0.0000 15.8770 0.0000
# 6 0.0000 0.0000 0.0000 0.0000 0.0000 22.8869
#
#
#
# Elastic Compliance Matrix: (Units=1/GPa)
#
#
# Indices 1 2 3 4 5 6 
#
# 1 0.017862 -0.003985 -0.003676 0.000000 0.000000 0.000000
# 2 -0.003985 0.017862 -0.003676 0.000000 0.000000 0.000000
# 3 -0.003676 -0.003676 0.014207 0.000000 0.000000 0.000000
# 4 0.000000 0.000000 0.000000 0.062984 0.000000 0.000000
# 5 0.000000 0.000000 0.000000 0.000000 0.062984 0.000000
# 6 0.000000 0.000000 0.000000 0.000000 0.000000 0.043693
#
#
# Mechanical properties :
#
#
# Convention : Reuss Voigt Hill
#
# Bulk Modulus (GPa) = 36.68694 37.22336 36.95515
# Shear Modulus (GPa) = 19.89247 20.84616 20.36932
#
# Velocity S-wave (km/s) = 3.33218 3.41112 3.37188
# Velocity P-wave (km/s) = 5.93988 6.02423 5.98220
#
# Compressibility (1/GPa) = 0.02725766
#
# Stress axis : x y z
#
# Youngs Moduli (GPa) = 55.98547 55.98547 70.38737
#
# Poissons Ratio (x) = 0.22309 0.25873
# Poissons Ratio (y) = 0.22309 0.25873
# Poissons Ratio (z) = 0.20579 0.20579
#
# Static dielectric constant tensor:
#      x y z
#    x 1.603760 0.000000 0.000000 
#    y 0.000000 1.603760 0.000000 
#    z 0.000000 0.000000 1.660340 
# 
# From -- ./inp_files/7705.got.cif
#   From: 2010.05.17/outbox.ucp.g08.bks.cvg/sg191_4_cif.got.tgz:7705.got - 2010.06.11 15:22:43.
