data_PCOD9588806
_publ_section_title
;
Structure prediction by ZEFSAII (Michael W. Deem and Ramdas Pophale) SiO2 
 PCOD9588806
Probable space group: P 6/M C C
;
_chemical_formula_sum "Si O2"
_cell_formula_units_Z 108
_cell_length_a 18.106685
_cell_length_b 18.106685
_cell_length_c 20.577816
_cell_angle_alpha 90.000000
_cell_angle_beta 90.000000
_cell_angle_gamma 120.000000
_cell_volume 5842.622191
_symmetry_space_group_name_H-M "P 6/M C C"
_symmetry_group_IT_number 192
_symmetry_cell_setting 'hexagonal'
loop_
_space_group_symop_operation_xyz
x,y,z
x-y,x,z
-y,x-y,z
-x,-y,z
-x+y,-x,z
y,-x+y,z
x-y,-y,1/2-z
-x,-x+y,1/2-z
y,x,1/2-z
-y,-x,1/2-z
-x+y,y,1/2-z
x,x-y,1/2-z
-x,-y,-z
-x+y,-x,-z
y,-x+y,-z
x,y,-z
x-y,x,-z
-y,x-y,-z
-x+y,y,1/2+z
x,x-y,1/2+z
-y,-x,1/2+z
y,x,1/2+z
x-y,-y,1/2+z
-x,-x+y,1/2+z
loop_
_atom_site_type_symbol
_atom_site_label
_atom_site_fract_x
_atom_site_fract_y
_atom_site_fract_z
Si Si1 0.794189 0.897095 0.750000
Si Si2 0.669514 0.162803 0.322726
Si Si3 0.498807 0.159724 0.330846
Si Si4 0.689944 0.902904 0.873513
Si Si5 0.658567 0.736048 0.926933
O O1 0.853253 0.853253 0.750000
O O2 0.732753 0.883003 0.811698
O O3 0.580118 0.150116 0.346925
O O4 0.742568 0.261230 0.334750
O O5 0.660434 0.141252 0.245909
O O6 0.707279 0.108501 0.354200
O O7 0.418739 0.102509 0.376571
O O8 0.673176 0.830912 0.925194
O O9 0.742332 0.997227 0.901032
O O10 0.639350 0.700995 0.000000
#
# Coordination Sequence:
#
# PCOD9588806 Si02
#       5
#    12  24  24  24  24
#     4  12  23  40  66  94 124 148 190 260 326 379
#     4   9  18  33  59  87 117 150 194 253 298 350
#     4   9  18  34  56  86 117 153 196 242 304 350
#     4  11  22  38  60  86 113 153 197 245 309 364
#     4  11  23  40  58  80 115 160 203 242 295 375
#
# _framework density 18.484850999999999
#
# number of rings (size 3 to 8) (size 9 to 14) (size 15 to 20)
#    0.000    1.778    2.222    3.889    0.000    2.667 
#    0.000    8.889    0.000    0.000    0.000    3.111 
#    0.000    0.000    0.000    0.000    0.000    0.000 
#
# Total GULP energy -602210.046020 kJ/mol
# GULP energy per Si atom -5576.018945 kJ/mol
# Density = 1.844278 g / cm^3
# Si number density = 18.484851 Si / 1000 Ang^3
#
#
#
# Elastic Constant Matrix: (Units=GPa)
#
#
# Indices 1 2 3 4 5 6 
#
# 1 81.7066 29.2220 34.4511 0.0000 0.0000 0.0000
# 2 29.2220 81.7066 34.4511 0.0000 0.0000 0.0000
# 3 34.4511 34.4511 82.1094 0.0000 0.0000 0.0000
# 4 0.0000 0.0000 0.0000 12.4825 0.0000 0.0000
# 5 0.0000 0.0000 0.0000 0.0000 12.4825 0.0000
# 6 0.0000 0.0000 0.0000 0.0000 0.0000 26.2423
#
#
#
# Elastic Compliance Matrix: (Units=1/GPa)
#
#
# Indices 1 2 3 4 5 6 
#
# 1 0.015623 -0.003430 -0.005116 0.000000 0.000000 0.000000
# 2 -0.003430 0.015623 -0.005116 0.000000 0.000000 0.000000
# 3 -0.005116 -0.005116 0.016472 0.000000 0.000000 0.000000
# 4 0.000000 0.000000 0.000000 0.080112 0.000000 0.000000
# 5 0.000000 0.000000 0.000000 0.000000 0.080112 0.000000
# 6 0.000000 0.000000 0.000000 0.000000 0.000000 0.038106
#
#
# Mechanical properties :
#
#
# Convention : Reuss Voigt Hill
#
# Bulk Modulus (GPa) = 49.03435 49.08567 49.06001
# Shear Modulus (GPa) = 17.84636 20.06801 18.95719
#
# Velocity S-wave (km/s) = 3.11055 3.29849 3.20590
# Velocity P-wave (km/s) = 6.28372 6.41240 6.34839
#
# Compressibility (1/GPa) = 0.02039387
#
# Stress axis : x y z
#
# Youngs Moduli (GPa) = 64.00914 64.00914 60.71047
#
# Poissons Ratio (x) = 0.21958 0.31057
# Poissons Ratio (y) = 0.21958 0.31057
# Poissons Ratio (z) = 0.32744 0.32744
#
# Static dielectric constant tensor:
#      x y z
#    x 1.634540 0.000000 0.000000 
#    y 0.000000 1.634540 0.000000 
#    z 0.000000 0.000000 1.635330 
# 
# From -- ./inp_files/4828.got.cif
#   From: 2010.05.17/outbox.cif.g08.bks.cpg/sg192_3_cif.got.tgz:4828.got - 2010.05.20 12:28:01.
