data_PCOD9588862
_publ_section_title
;
Structure prediction by ZEFSAII (Michael W. Deem and Ramdas Pophale) SiO2 
 PCOD9588862
Probable space group: P 6/M C C
;
_chemical_formula_sum "Si O2"
_cell_formula_units_Z 192
_cell_length_a 24.000000
_cell_length_b 24.000000
_cell_length_c 21.000000
_cell_angle_alpha 90.000000
_cell_angle_beta 90.000000
_cell_angle_gamma 120.000000
_cell_volume 10475.443284
_symmetry_space_group_name_H-M "P 6/M C C"
_symmetry_group_IT_number 192
_symmetry_cell_setting 'hexagonal'
loop_
_space_group_symop_operation_xyz
x,y,z
x-y,x,z
-y,x-y,z
-x,-y,z
-x+y,-x,z
y,-x+y,z
x-y,-y,1/2-z
-x,-x+y,1/2-z
y,x,1/2-z
-y,-x,1/2-z
-x+y,y,1/2-z
x,x-y,1/2-z
-x,-y,-z
-x+y,-x,-z
y,-x+y,-z
x,y,-z
x-y,x,-z
-y,x-y,-z
-x+y,y,1/2+z
x,x-y,1/2+z
-y,-x,1/2+z
y,x,1/2+z
x-y,-y,1/2+z
-x,-x+y,1/2+z
loop_
_atom_site_type_symbol
_atom_site_label
_atom_site_fract_x
_atom_site_fract_y
_atom_site_fract_z
Si Si1 0.857589 0.335451 0.375826
Si Si2 0.731465 0.097885 0.375043
Si Si3 0.496486 0.217435 0.923328
Si Si4 0.389375 0.561598 0.818808
Si Si5 0.922020 0.348034 0.241599
Si Si6 0.708195 0.872773 0.423048
Si Si7 0.951191 0.095229 0.422643
Si Si8 0.355351 0.311225 0.927107
O O1 0.791558 0.275930 0.403029
O O2 0.846400 0.394593 0.361210
O O3 0.884196 0.325887 0.308125
O O4 0.917108 0.349393 0.421106
O O5 0.720155 0.150061 0.413264
O O6 0.714609 0.098585 0.301326
O O7 0.804690 0.119328 0.390282
O O8 0.681490 0.024707 0.394325
O O9 0.542795 0.213446 0.867707
O O10 0.514307 0.223549 0.000000
O O11 0.400183 0.599818 0.750000
O O12 0.385028 0.494763 0.795743
O O13 0.000000 0.391237 0.250000
O O14 0.702331 0.862188 0.500000
O O15 0.781766 0.922821 0.407106
O O16 0.666358 0.905444 0.403853
O O17 0.952849 0.093403 0.500000
O O18 0.023232 0.120559 0.400148
O O19 0.334945 0.303690 0.000000
#
# Coordination Sequence:
#
# PCOD9588862 Si02
#       8
#    24  24  24  24  24  24  24  24
#     4  11  22  41  64  92 119 161 209 247 315 378
#     4  11  21  36  58  87 121 165 211 260 318 384
#     4  11  23  42  65  93 132 167 205 264 325 377
#     4   9  23  41  66  93 120 163 207 255 305 379
#     4  10  21  41  63  91 123 160 207 260 312 369
#     4  10  19  32  49  77 117 162 203 255 319 386
#     4   9  16  26  42  66 101 148 201 254 308 370
#     4  11  21  34  56  86 122 161 207 257 313 393
#
# _framework density 18.328579999999999
#
# number of rings (size 3 to 8) (size 9 to 14) (size 15 to 20)
#    0.000    1.750    2.500    2.375    0.000   10.250 
#    0.750    0.000    0.000    2.250    0.000    0.000 
#    0.000    0.000    0.000    0.000    0.000    0.000 
#
# Total GULP energy -1069693.577632 kJ/mol
# GULP energy per Si atom -5571.320717 kJ/mol
# Density = 1.828686 g / cm^3
# Si number density = 18.328580 Si / 1000 Ang^3
#
#
#
# Elastic Constant Matrix: (Units=GPa)
#
#
# Indices 1 2 3 4 5 6 
#
# 1 71.5297 9.9399 21.0327 0.0000 0.0000 0.0000
# 2 9.9399 71.5297 21.0327 0.0000 0.0000 0.0000
# 3 21.0327 21.0327 74.8036 0.0000 0.0000 0.0000
# 4 0.0000 0.0000 0.0000 30.4479 0.0000 0.0000
# 5 0.0000 0.0000 0.0000 0.0000 30.4479 0.0000
# 6 0.0000 0.0000 0.0000 0.0000 0.0000 30.7949
#
#
#
# Elastic Compliance Matrix: (Units=1/GPa)
#
#
# Indices 1 2 3 4 5 6 
#
# 1 0.015298 -0.000939 -0.004037 0.000000 0.000000 0.000000
# 2 -0.000939 0.015298 -0.004037 0.000000 0.000000 0.000000
# 3 -0.004037 -0.004037 0.015639 0.000000 0.000000 0.000000
# 4 0.000000 0.000000 0.000000 0.032843 0.000000 0.000000
# 5 0.000000 0.000000 0.000000 0.000000 0.032843 0.000000
# 6 0.000000 0.000000 0.000000 0.000000 0.000000 0.032473
#
#
# Mechanical properties :
#
#
# Convention : Reuss Voigt Hill
#
# Bulk Modulus (GPa) = 35.45159 35.76373 35.60766
# Shear Modulus (GPa) = 29.09979 29.39533 29.24756
#
# Velocity S-wave (km/s) = 3.98888 4.00909 3.99900
# Velocity P-wave (km/s) = 6.37175 6.40198 6.38688
#
# Compressibility (1/GPa) = 0.02820748
#
# Stress axis : x y z
#
# Youngs Moduli (GPa) = 65.36883 65.36883 63.94376
#
# Poissons Ratio (x) = 0.06136 0.25817
# Poissons Ratio (y) = 0.06136 0.25817
# Poissons Ratio (z) = 0.26392 0.26392
#
# Static dielectric constant tensor:
#      x y z
#    x 1.634670 0.000000 0.000000 
#    y 0.000000 1.634670 0.000000 
#    z 0.000000 0.000000 1.657280 
# 
# From -- ./inp_files/5423.got.cif
#   From: 2010.05.17/outbox.ucp.g08.bks.cvg/sg192_3_cif.got.tgz:5423.got - 2010.06.11 15:23:19.
