data_PCOD9588635
_publ_section_title
;
Structure prediction by ZEFSAII (Michael W. Deem and Ramdas Pophale) SiO2 
 PCOD9588635
Probable space group: P 6/M C C
;
_chemical_formula_sum "Si O2"
_cell_formula_units_Z 126
_cell_length_a 23.530255
_cell_length_b 23.530255
_cell_length_c 14.427758
_cell_angle_alpha 90.000000
_cell_angle_beta 90.000000
_cell_angle_gamma 120.000000
_cell_volume 6918.034895
_symmetry_space_group_name_H-M "P 6/M C C"
_symmetry_group_IT_number 192
_symmetry_cell_setting 'hexagonal'
loop_
_space_group_symop_operation_xyz
x,y,z
x-y,x,z
-y,x-y,z
-x,-y,z
-x+y,-x,z
y,-x+y,z
x-y,-y,1/2-z
-x,-x+y,1/2-z
y,x,1/2-z
-y,-x,1/2-z
-x+y,y,1/2-z
x,x-y,1/2-z
-x,-y,-z
-x+y,-x,-z
y,-x+y,-z
x,y,-z
x-y,x,-z
-y,x-y,-z
-x+y,y,1/2+z
x,x-y,1/2+z
-y,-x,1/2+z
y,x,1/2+z
x-y,-y,1/2+z
-x,-x+y,1/2+z
loop_
_atom_site_type_symbol
_atom_site_label
_atom_site_fract_x
_atom_site_fract_y
_atom_site_fract_z
Si Si1 0.798192 0.080977 0.111013
Si Si2 0.083384 0.933046 0.112918
Si Si3 0.855333 0.589878 0.232392
Si Si4 0.042721 0.441449 0.840981
Si Si5 0.710858 0.666909 0.105803
Si Si6 0.500000 0.500000 0.500000
O O1 0.869257 0.094648 0.140280
O O2 0.775575 0.126403 0.160912
O O3 0.742908 0.005036 0.131134
O O4 0.797067 0.087982 0.000000
O O5 0.008566 0.891681 0.142623
O O6 0.082965 0.932857 0.000000
O O7 0.778005 0.556009 0.250000
O O8 0.887524 0.548551 0.192541
O O9 0.897335 0.626703 0.323917
O O10 0.000000 0.434922 0.750000
O O11 0.002970 0.368052 0.885718
O O12 0.043124 0.489769 0.917799
O O13 0.729105 0.663091 0.000000
#
# Coordination Sequence:
#
# PCOD9588635 Si02
#       6
#    24  24  24  24  24   6
#     4   9  18  30  48  68  94 127 179 235 281 364
#     4   9  17  28  42  61  85 116 167 240 305 358
#     4  10  21  33  49  74 109 147 186 228 289 350
#     4   9  19  34  53  83 111 147 194 235 280 340
#     4   9  17  34  50  69 102 136 179 233 288 334
#     4  12  18  32  64  82 116 152 190 242 270 324
#
# _framework density 18.213265
#
# number of rings (size 3 to 8) (size 9 to 14) (size 15 to 20)
#    0.000    2.667    0.952    2.190    4.000    1.524 
#    0.000    0.000    0.000    0.000    0.000    0.000 
#    0.000    0.000    0.000   91.429    0.000    0.000 
#
# Total GULP energy -701609.754643 kJ/mol
# GULP energy per Si atom -5568.331386 kJ/mol
# Density = 1.817181 g / cm^3
# Si number density = 18.213265 Si / 1000 Ang^3
#
#
#
# Elastic Constant Matrix: (Units=GPa)
#
#
# Indices 1 2 3 4 5 6 
#
# 1 35.6980 14.4742 18.3049 0.0000 0.0000 0.0000
# 2 14.4742 35.6980 18.3049 0.0000 0.0000 0.0000
# 3 18.3049 18.3049 102.5910 0.0000 0.0000 0.0000
# 4 0.0000 0.0000 0.0000 1.3738 0.0000 0.0000
# 5 0.0000 0.0000 0.0000 0.0000 1.3738 0.0000
# 6 0.0000 0.0000 0.0000 0.0000 0.0000 10.6119
#
#
#
# Elastic Compliance Matrix: (Units=1/GPa)
#
#
# Indices 1 2 3 4 5 6 
#
# 1 0.035016 -0.012101 -0.004089 0.000000 0.000000 0.000000
# 2 -0.012101 0.035016 -0.004089 0.000000 0.000000 0.000000
# 3 -0.004089 -0.004089 0.011206 0.000000 0.000000 0.000000
# 4 0.000000 0.000000 0.000000 0.727900 0.000000 0.000000
# 5 0.000000 0.000000 0.000000 0.000000 0.727900 0.000000
# 6 0.000000 0.000000 0.000000 0.000000 0.000000 0.094234
#
#
# Mechanical properties :
#
#
# Convention : Reuss Voigt Hill
#
# Bulk Modulus (GPa) = 24.58117 30.68391 27.63254
# Shear Modulus (GPa) = 2.96668 10.86545 6.91606
#
# Velocity S-wave (km/s) = 1.27765 2.44512 1.95077
# Velocity P-wave (km/s) = 3.96259 4.98549 4.50318
#
# Compressibility (1/GPa) = 0.04068155
#
# Stress axis : x y z
#
# Youngs Moduli (GPa) = 28.55856 28.55856 89.23427
#
# Poissons Ratio (x) = 0.34559 0.36484
# Poissons Ratio (y) = 0.34559 0.36484
# Poissons Ratio (z) = 0.11676 0.11676
#
# Static dielectric constant tensor:
#      x y z
#    x 1.640190 0.000000 0.000000 
#    y 0.000000 1.640190 0.000000 
#    z 0.000000 0.000000 1.669770 
# 
# From -- ./inp_files/4300.got.cif
#   From: 2010.05.17/outbox.cif.g08.bks.cpg/sg192_3_cif.got.tgz:4300.got - 2010.05.20 12:28:01.
