data_PCOD9588366
_publ_section_title
;
Structure prediction by ZEFSAII (Michael W. Deem and Ramdas Pophale) SiO2 
 PCOD9588366
Probable space group: P 6/M C C
;
_chemical_formula_sum "Si O2"
_cell_formula_units_Z 108
_cell_length_a 14.053654
_cell_length_b 14.053654
_cell_length_c 29.642877
_cell_angle_alpha 90.000000
_cell_angle_beta 90.000000
_cell_angle_gamma 120.000000
_cell_volume 5070.251448
_symmetry_space_group_name_H-M "P 6/M C C"
_symmetry_group_IT_number 192
_symmetry_cell_setting 'hexagonal'
loop_
_space_group_symop_operation_xyz
x,y,z
x-y,x,z
-y,x-y,z
-x,-y,z
-x+y,-x,z
y,-x+y,z
x-y,-y,1/2-z
-x,-x+y,1/2-z
y,x,1/2-z
-y,-x,1/2-z
-x+y,y,1/2-z
x,x-y,1/2-z
-x,-y,-z
-x+y,-x,-z
y,-x+y,-z
x,y,-z
x-y,x,-z
-y,x-y,-z
-x+y,y,1/2+z
x,x-y,1/2+z
-y,-x,1/2+z
y,x,1/2+z
x-y,-y,1/2+z
-x,-x+y,1/2+z
loop_
_atom_site_type_symbol
_atom_site_label
_atom_site_fract_x
_atom_site_fract_y
_atom_site_fract_z
Si Si1 0.116527 0.433818 0.775918
Si Si2 0.550243 0.128236 0.854156
Si Si3 0.238897 0.525069 0.500000
Si Si4 0.250956 0.185559 0.851679
Si Si5 0.233166 0.789924 0.904245
O O1 0.222093 0.444186 0.750000
O O2 0.151538 0.545041 0.804864
O O3 0.084425 0.336007 0.811859
O O4 0.000000 0.391478 0.750000
O O5 0.458784 0.159551 0.865984
O O6 0.646343 0.188159 0.890929
O O7 0.500000 0.000000 0.860089
O O8 0.372994 0.589506 0.500000
O O9 0.200169 0.457875 0.546044
O O10 0.150796 0.207402 0.849429
O O11 0.328337 0.228131 0.896009
#
# Coordination Sequence:
#
# PCOD9588366 Si02
#       5
#    24  24  12  24  24
#     4  11  23  42  65  93 129 170 223 277 332 388
#     4  11  24  41  64  91 133 175 218 264 332 403
#     4  10  18  38  66 102 134 168 224 264 318 414
#     4  11  23  42  67  92 128 172 227 281 337 391
#     4  11  21  42  66  98 135 176 207 275 337 394
#
# _framework density 21.300718
#
# number of rings (size 3 to 8) (size 9 to 14) (size 15 to 20)
#    0.222    0.889    4.444    3.333    3.111    0.444 
#    0.000    5.556    0.000    0.000    0.000    1.556 
#    0.000    0.000    0.000    0.000    0.000    0.000 
#
# Total GULP energy -603607.334274 kJ/mol
# GULP energy per Si atom -5588.956799 kJ/mol
# Density = 2.125224 g / cm^3
# Si number density = 21.300718 Si / 1000 Ang^3
#
#
#
# Elastic Constant Matrix: (Units=GPa)
#
#
# Indices 1 2 3 4 5 6 
#
# 1 88.2985 20.7965 34.7648 0.0000 0.0000 0.0000
# 2 20.7965 88.2985 34.7648 0.0000 0.0000 0.0000
# 3 34.7648 34.7648 122.0235 0.0000 0.0000 0.0000
# 4 0.0000 0.0000 0.0000 20.9020 0.0000 0.0000
# 5 0.0000 0.0000 0.0000 0.0000 20.9020 0.0000
# 6 0.0000 0.0000 0.0000 0.0000 0.0000 33.7510
#
#
#
# Elastic Compliance Matrix: (Units=1/GPa)
#
#
# Indices 1 2 3 4 5 6 
#
# 1 0.013007 -0.001807 -0.003191 0.000000 0.000000 0.000000
# 2 -0.001807 0.013007 -0.003191 0.000000 0.000000 0.000000
# 3 -0.003191 -0.003191 0.010013 0.000000 0.000000 0.000000
# 4 0.000000 0.000000 0.000000 0.047842 0.000000 0.000000
# 5 0.000000 0.000000 0.000000 0.000000 0.047842 0.000000
# 6 0.000000 0.000000 0.000000 0.000000 0.000000 0.029629
#
#
# Mechanical properties :
#
#
# Convention : Reuss Voigt Hill
#
# Bulk Modulus (GPa) = 50.89136 53.25249 52.07193
# Shear Modulus (GPa) = 27.13425 28.99729 28.06577
#
# Velocity S-wave (km/s) = 3.57300 3.69362 3.63381
# Velocity P-wave (km/s) = 6.40043 6.57610 6.48886
#
# Compressibility (1/GPa) = 0.01964970
#
# Stress axis : x y z
#
# Youngs Moduli (GPa) = 76.88059 76.88059 99.86678
#
# Poissons Ratio (x) = 0.13894 0.31867
# Poissons Ratio (y) = 0.13894 0.31867
# Poissons Ratio (z) = 0.24532 0.24532
#
# Static dielectric constant tensor:
#      x y z
#    x 1.782440 0.000000 0.000000 
#    y 0.000000 1.782440 0.000000 
#    z 0.000000 0.000000 1.784530 
# 
# From -- ./inp_files/6873.got.cif
#   From: 2010.05.17/outbox.cif.g08.bks.cpg/sg192_4_cif.got.tgz:6873.got - 2010.05.20 12:28:01.
