data_PCOD9588534
_publ_section_title
;
Structure prediction by ZEFSAII (Michael W. Deem and Ramdas Pophale) SiO2 
 PCOD9588534
Probable space group: P 6/M C C
;
_chemical_formula_sum "Si O2"
_cell_formula_units_Z 120
_cell_length_a 23.262301
_cell_length_b 23.262301
_cell_length_c 15.053580
_cell_angle_alpha 90.000000
_cell_angle_beta 90.000000
_cell_angle_gamma 120.000000
_cell_volume 7054.654814
_symmetry_space_group_name_H-M "P 6/M C C"
_symmetry_group_IT_number 192
_symmetry_cell_setting 'hexagonal'
loop_
_space_group_symop_operation_xyz
x,y,z
x-y,x,z
-y,x-y,z
-x,-y,z
-x+y,-x,z
y,-x+y,z
x-y,-y,1/2-z
-x,-x+y,1/2-z
y,x,1/2-z
-y,-x,1/2-z
-x+y,y,1/2-z
x,x-y,1/2-z
-x,-y,-z
-x+y,-x,-z
y,-x+y,-z
x,y,-z
x-y,x,-z
-y,x-y,-z
-x+y,y,1/2+z
x,x-y,1/2+z
-y,-x,1/2+z
y,x,1/2+z
x-y,-y,1/2+z
-x,-x+y,1/2+z
loop_
_atom_site_type_symbol
_atom_site_label
_atom_site_fract_x
_atom_site_fract_y
_atom_site_fract_z
Si Si1 0.790618 0.072813 0.250000
Si Si2 0.666020 0.464864 0.108490
Si Si3 0.464864 0.666021 0.108490
Si Si4 0.611317 0.875366 0.399225
Si Si5 0.264050 0.875366 0.399225
O O1 0.865888 0.134113 0.250000
O O2 0.752966 0.081548 0.165652
O O3 0.752966 0.081548 0.334348
O O4 0.781091 0.000000 0.250000
O O5 0.727719 0.455438 0.136627
O O6 0.596442 0.403558 0.137624
O O7 0.681554 0.538260 0.134392
O O8 0.666784 0.465234 0.000000
O O9 0.538260 0.681554 0.134392
O O10 0.465234 0.666784 0.000000
O O11 0.621581 0.901110 0.500000
O O12 0.606998 0.803499 0.402348
O O13 0.279528 0.901109 0.500000
#
# Coordination Sequence:
#
# PCOD9588534 Si02
#       5
#    24  24  24  24  24
#     4  10  20  34  53  74  93 113 139 173 213 259
#     4   8  12  19  35  60  89 121 158 200 242 276
#     4   8  12  19  35  60  89 121 158 200 242 276
#     4   8  15  28  45  66  92 122 155 188 221 257
#     4   8  15  28  45  66  92 122 155 188 221 257
#
# _framework density 17.010045999999999
#
# number of rings (size 3 to 8) (size 9 to 14) (size 15 to 20)
#    0.000    3.600    0.000    2.800    0.000    2.400 
#    0.000    1.000    0.000    2.600    0.000    8.400 
#    0.000    0.000    0.000   10.000    0.000    0.000 
#
# Total GULP energy -668153.794465 kJ/mol
# GULP energy per Si atom -5567.948287 kJ/mol
# Density = 1.697133 g / cm^3
# Si number density = 17.010046 Si / 1000 Ang^3
#
#
#
# Elastic Constant Matrix: (Units=GPa)
#
#
# Indices 1 2 3 4 5 6 
#
# 1 77.7433 48.3987 24.3100 0.0000 0.0000 0.0000
# 2 48.3987 77.7433 24.3100 0.0000 0.0000 0.0000
# 3 24.3100 24.3100 63.0061 0.0000 0.0000 0.0000
# 4 0.0000 0.0000 0.0000 8.4327 0.0000 0.0000
# 5 0.0000 0.0000 0.0000 0.0000 8.4327 0.0000
# 6 0.0000 0.0000 0.0000 0.0000 0.0000 14.6723
#
#
#
# Elastic Compliance Matrix: (Units=1/GPa)
#
#
# Indices 1 2 3 4 5 6 
#
# 1 0.021695 -0.012383 -0.003593 0.000000 0.000000 0.000000
# 2 -0.012383 0.021695 -0.003593 0.000000 0.000000 0.000000
# 3 -0.003593 -0.003593 0.018644 0.000000 0.000000 0.000000
# 4 0.000000 0.000000 0.000000 0.118586 0.000000 0.000000
# 5 0.000000 0.000000 0.000000 0.000000 0.118586 0.000000
# 6 0.000000 0.000000 0.000000 0.000000 0.000000 0.068155
#
#
# Mechanical properties :
#
#
# Convention : Reuss Voigt Hill
#
# Bulk Modulus (GPa) = 43.67425 45.83667 44.75546
# Shear Modulus (GPa) = 12.07346 14.40583 13.23964
#
# Velocity S-wave (km/s) = 2.66707 2.91331 2.79291
# Velocity P-wave (km/s) = 5.93428 6.19046 6.06372
#
# Compressibility (1/GPa) = 0.02289679
#
# Stress axis : x y z
#
# Youngs Moduli (GPa) = 46.09333 46.09333 53.63613
#
# Poissons Ratio (x) = 0.57076 0.19272
# Poissons Ratio (y) = 0.57076 0.19272
# Poissons Ratio (z) = 0.16562 0.16562
#
# Static dielectric constant tensor:
#      x y z
#    x 1.567060 0.000000 0.000000 
#    y 0.000000 1.567060 0.000000 
#    z 0.000000 0.000000 1.637190 
# 
# From -- ./inp_files/3154.got.cif
#   From: 2010.05.17/outbox.cif.g08.bks.cpg/sg192_2_cif.got.tgz:3154.got - 2010.05.20 12:28:01.
