data_PCOD9588576
_publ_section_title
;
Structure prediction by ZEFSAII (Michael W. Deem and Ramdas Pophale) SiO2 
 PCOD9588576
Probable space group: P 6/M C C
;
_chemical_formula_sum "Si O2"
_cell_formula_units_Z 104
_cell_length_a 14.054781
_cell_length_b 14.054781
_cell_length_c 33.226588
_cell_angle_alpha 90.000000
_cell_angle_beta 90.000000
_cell_angle_gamma 120.000000
_cell_volume 5684.137091
_symmetry_space_group_name_H-M "P 6/M C C"
_symmetry_group_IT_number 192
_symmetry_cell_setting 'hexagonal'
loop_
_space_group_symop_operation_xyz
x,y,z
x-y,x,z
-y,x-y,z
-x,-y,z
-x+y,-x,z
y,-x+y,z
x-y,-y,1/2-z
-x,-x+y,1/2-z
y,x,1/2-z
-y,-x,1/2-z
-x+y,y,1/2-z
x,x-y,1/2-z
-x,-y,-z
-x+y,-x,-z
y,-x+y,-z
x,y,-z
x-y,x,-z
-y,x-y,-z
-x+y,y,1/2+z
x,x-y,1/2+z
-y,-x,1/2+z
y,x,1/2+z
x-y,-y,1/2+z
-x,-x+y,1/2+z
loop_
_atom_site_type_symbol
_atom_site_label
_atom_site_fract_x
_atom_site_fract_y
_atom_site_fract_z
Si Si1 0.745309 0.814216 0.952990
Si Si2 0.543517 0.666867 0.734006
Si Si3 0.600242 0.119425 0.357378
Si Si4 0.196390 0.465386 0.902029
Si Si5 0.333334 0.666667 0.453665
O O1 0.844223 0.788481 0.948089
O O2 0.648704 0.751237 0.920014
O O3 0.706635 0.786218 0.000000
O O4 0.627169 0.627169 0.750000
O O5 0.423811 0.576190 0.750000
O O6 0.571805 0.785903 0.750000
O O7 0.527934 0.651063 0.686101
O O8 0.534448 0.185744 0.364389
O O9 0.697343 0.155899 0.389235
O O10 0.500000 0.000000 0.365424
O O11 0.233261 0.554694 0.937073
O O12 0.333334 0.666668 0.500000
#
# Coordination Sequence:
#
# PCOD9588576 Si02
#       5
#    24  24  24  24   8
#     4  10  20  36  57  81 109 147 196 246 287 331
#     4  11  22  39  61  89 117 153 194 245 297 356
#     4  11  21  36  55  83 114 143 186 226 282 346
#     4  10  21  34  54  81 114 150 177 230 286 340
#     4   9  18  33  51  78 112 149 184 210 264 348
#
# _framework density 18.296534000000001
#
# number of rings (size 3 to 8) (size 9 to 14) (size 15 to 20)
#    0.000    1.615    2.308    4.385    0.000    0.923 
#    0.000    0.000    0.000   11.308    0.000    0.000 
#    0.000    0.000    0.000    0.000    0.000    0.000 
#
# Total GULP energy -579136.187698 kJ/mol
# GULP energy per Si atom -5568.617189 kJ/mol
# Density = 1.825489 g / cm^3
# Si number density = 18.296534 Si / 1000 Ang^3
#
#
#
# Elastic Constant Matrix: (Units=GPa)
#
#
# Indices 1 2 3 4 5 6 
#
# 1 94.1235 21.6021 24.9453 0.0000 -0.0002 0.0001
# 2 21.6021 94.1262 24.9487 -0.0001 0.0001 0.0010
# 3 24.9453 24.9487 68.2373 -0.0001 -0.0001 0.0006
# 4 0.0000 -0.0001 -0.0001 11.7601 0.0001 -0.0001
# 5 -0.0002 0.0001 -0.0001 0.0001 11.7601 0.0000
# 6 0.0001 0.0010 0.0006 -0.0001 0.0000 36.2606
#
#
#
# Elastic Compliance Matrix: (Units=1/GPa)
#
#
# Indices 1 2 3 4 5 6 
#
# 1 0.012023 -0.001765 -0.003750 0.000000 0.000000 0.000000
# 2 -0.001765 0.012023 -0.003751 0.000000 0.000000 0.000000
# 3 -0.003750 -0.003751 0.017397 0.000000 0.000000 0.000000
# 4 0.000000 0.000000 0.000000 0.085033 -0.000001 0.000000
# 5 0.000000 0.000000 0.000000 -0.000001 0.085034 0.000000
# 6 0.000000 0.000000 0.000000 0.000000 0.000000 0.027578
#
#
# Mechanical properties :
#
#
# Convention : Reuss Voigt Hill
#
# Bulk Modulus (GPa) = 43.64566 44.38659 44.01612
# Shear Modulus (GPa) = 18.84962 24.28888 21.56925
#
# Velocity S-wave (km/s) = 3.21320 3.64746 3.43719
# Velocity P-wave (km/s) = 6.13780 6.48466 6.31361
#
# Compressibility (1/GPa) = 0.02291178
#
# Stress axis : x y z
#
# Youngs Moduli (GPa) = 83.17155 83.17180 57.48177
#
# Poissons Ratio (x) = 0.14684 0.21555
# Poissons Ratio (y) = 0.14684 0.21559
# Poissons Ratio (z) = 0.31188 0.31194
#
# Static dielectric constant tensor:
#      x y z
#    x 1.799080 -0.000010 0.000000 
#    y -0.000010 1.799070 0.000000 
#    z 0.000000 0.000000 1.659370 
# 
# From -- ./inp_files/6887.got.cif
#   From: 2010.05.17/outbox.cif.g08.bks.cpg/sg192_4_cif.got.tgz:6887.got - 2010.05.20 12:28:01.
