data_PCOD9588434
_publ_section_title
;
Structure prediction by ZEFSAII (Michael W. Deem and Ramdas Pophale) SiO2 
 PCOD9588434
Probable space group: P 6/M C C
;
_chemical_formula_sum "Si O2"
_cell_formula_units_Z 144
_cell_length_a 32.151888
_cell_length_b 32.151888
_cell_length_c 8.670759
_cell_angle_alpha 90.000000
_cell_angle_beta 90.000000
_cell_angle_gamma 120.000000
_cell_volume 7762.483816
_symmetry_space_group_name_H-M "P 6/M C C"
_symmetry_group_IT_number 192
_symmetry_cell_setting 'hexagonal'
loop_
_space_group_symop_operation_xyz
x,y,z
x-y,x,z
-y,x-y,z
-x,-y,z
-x+y,-x,z
y,-x+y,z
x-y,-y,1/2-z
-x,-x+y,1/2-z
y,x,1/2-z
-y,-x,1/2-z
-x+y,y,1/2-z
x,x-y,1/2-z
-x,-y,-z
-x+y,-x,-z
y,-x+y,-z
x,y,-z
x-y,x,-z
-y,x-y,-z
-x+y,y,1/2+z
x,x-y,1/2+z
-y,-x,1/2+z
y,x,1/2+z
x-y,-y,1/2+z
-x,-x+y,1/2+z
loop_
_atom_site_type_symbol
_atom_site_label
_atom_site_fract_x
_atom_site_fract_y
_atom_site_fract_z
Si Si1 0.051443 0.479122 0.184581
Si Si2 0.804355 0.856166 0.814992
Si Si3 0.665244 0.522118 0.814785
Si Si4 0.759842 0.147534 0.814027
Si Si5 0.425862 0.666795 0.315250
Si Si6 0.051343 0.759309 0.314709
O O1 0.058866 0.529433 0.250000
O O2 0.095058 0.472633 0.241258
O O3 0.000000 0.438813 0.250000
O O4 0.049611 0.479696 0.000000
O O5 0.843199 0.843199 0.750000
O O6 0.810253 0.905127 0.750000
O O7 0.752323 0.811336 0.767606
O O8 0.806378 0.857781 0.000000
O O9 0.715777 0.564083 0.752874
O O10 0.659979 0.470854 0.773440
O O11 0.663398 0.524723 0.000000
O O12 0.809383 0.190618 0.750000
O O13 0.754201 0.096469 0.766672
O O14 0.759857 0.149742 0.000000
O O15 0.377073 0.622928 0.250000
O O16 0.433237 0.716619 0.250000
O O17 0.422966 0.667448 0.500000
O O18 0.048862 0.757213 0.500000
O O19 0.000000 0.719672 0.250000
#
# Coordination Sequence:
#
# PCOD9588434 Si02
#       6
#    24  24  24  24  24  24
#     4  11  22  39  63  90 120 154 193 240 290 344
#     4  10  19  33  53  79 109 143 183 229 278 331
#     4  11  24  41  61  87 117 154 196 240 288 342
#     4  11  23  39  58  83 115 154 195 238 287 344
#     4  11  24  41  63  88 117 149 186 231 283 340
#     4   9  20  36  56  82 112 146 187 233 284 336
#
# _framework density 18.550763
#
# number of rings (size 3 to 8) (size 9 to 14) (size 15 to 20)
#    0.000    1.500    0.000    5.667    0.000    8.000 
#    0.000    1.667    0.000    0.167    0.000    1.167 
#    0.000    0.000    0.000    0.000    0.000    0.000 
#
# Total GULP energy -805151.935630 kJ/mol
# GULP energy per Si atom -5591.332886 kJ/mol
# Density = 1.850854 g / cm^3
# Si number density = 18.550763 Si / 1000 Ang^3
#
#
#
# Elastic Constant Matrix: (Units=GPa)
#
#
# Indices 1 2 3 4 5 6 
#
# 1 116.3654 54.9972 42.8270 0.0000 0.0000 0.0000
# 2 54.9972 116.3654 42.8270 0.0000 0.0000 0.0000
# 3 42.8270 42.8270 79.6192 0.0000 0.0000 0.0000
# 4 0.0000 0.0000 0.0000 35.8294 0.0000 0.0000
# 5 0.0000 0.0000 0.0000 0.0000 35.8294 0.0000
# 6 0.0000 0.0000 0.0000 0.0000 0.0000 30.6841
#
#
#
# Elastic Compliance Matrix: (Units=1/GPa)
#
#
# Indices 1 2 3 4 5 6 
#
# 1 0.012138 -0.004157 -0.004293 0.000000 0.000000 0.000000
# 2 -0.004157 0.012138 -0.004293 0.000000 0.000000 0.000000
# 3 -0.004293 -0.004293 0.017178 0.000000 0.000000 0.000000
# 4 0.000000 0.000000 0.000000 0.027910 0.000000 0.000000
# 5 0.000000 0.000000 0.000000 0.000000 0.027910 0.000000
# 6 0.000000 0.000000 0.000000 0.000000 0.000000 0.032590
#
#
# Mechanical properties :
#
#
# Convention : Reuss Voigt Hill
#
# Bulk Modulus (GPa) = 62.62326 65.96137 64.29232
# Shear Modulus (GPa) = 31.11878 31.91516 31.51697
#
# Velocity S-wave (km/s) = 4.10016 4.15230 4.12631
# Velocity P-wave (km/s) = 7.49975 7.65658 7.57857
#
# Compressibility (1/GPa) = 0.01596851
#
# Stress axis : x y z
#
# Youngs Moduli (GPa) = 82.38379 82.38379 58.21251
#
# Poissons Ratio (x) = 0.34245 0.24992
# Poissons Ratio (y) = 0.34245 0.24992
# Poissons Ratio (z) = 0.35369 0.35369
#
# Static dielectric constant tensor:
#      x y z
#    x 1.615770 0.000000 0.000000 
#    y 0.000000 1.615770 0.000000 
#    z 0.000000 0.000000 1.623000 
# 
# From -- ./inp_files/1150.got.cif
#   From: 2010.05.17/outbox.cif.g08.bks.cpg/sg192_1_cif.got.tgz:1150.got - 2010.05.20 12:28:01.
