data_PCOD9588373
_publ_section_title
;
Structure prediction by ZEFSAII (Michael W. Deem and Ramdas Pophale) SiO2 
 PCOD9588373
Probable space group: P 6/M C C
;
_chemical_formula_sum "Si O2"
_cell_formula_units_Z 128
_cell_length_a 24.681418
_cell_length_b 24.681418
_cell_length_c 17.432954
_cell_angle_alpha 90.000000
_cell_angle_beta 90.000000
_cell_angle_gamma 120.000000
_cell_volume 9196.907751
_symmetry_space_group_name_H-M "P 6/M C C"
_symmetry_group_IT_number 192
_symmetry_cell_setting 'hexagonal'
loop_
_space_group_symop_operation_xyz
x,y,z
x-y,x,z
-y,x-y,z
-x,-y,z
-x+y,-x,z
y,-x+y,z
x-y,-y,1/2-z
-x,-x+y,1/2-z
y,x,1/2-z
-y,-x,1/2-z
-x+y,y,1/2-z
x,x-y,1/2-z
-x,-y,-z
-x+y,-x,-z
y,-x+y,-z
x,y,-z
x-y,x,-z
-y,x-y,-z
-x+y,y,1/2+z
x,x-y,1/2+z
-y,-x,1/2+z
y,x,1/2+z
x-y,-y,1/2+z
-x,-x+y,1/2+z
loop_
_atom_site_type_symbol
_atom_site_label
_atom_site_fract_x
_atom_site_fract_y
_atom_site_fract_z
Si Si1 0.224753 0.575164 0.823236
Si Si2 0.338605 0.934649 0.911217
Si Si3 0.666668 0.333334 0.410077
Si Si4 0.450368 0.896194 0.410428
Si Si5 0.424979 0.378833 0.321683
Si Si6 0.156042 0.430783 0.223336
O O1 0.238519 0.619260 0.750000
O O2 0.285630 0.599347 0.875290
O O3 0.172547 0.578753 0.874593
O O4 0.197063 0.504508 0.796153
O O5 0.398111 0.922998 0.905082
O O6 0.286031 0.885687 0.853290
O O7 0.368421 0.005044 0.879840
O O8 0.319741 0.927043 0.000000
O O9 0.666667 0.333334 0.500000
O O10 0.435071 0.895869 0.500000
O O11 0.424091 0.933015 0.361878
O O12 0.413538 0.413538 0.250000
O O13 0.424147 0.317739 0.288247
O O14 0.204387 0.408774 0.250000
#
# Coordination Sequence:
#
# PCOD9588373 Si02
#       6
#    24  24   8  24  24  24
#     4  11  20  33  47  59  77 108 143 175 214 269
#     4   9  19  32  47  66  91 111 134 176 224 260
#     4  12  25  35  43  57  79 110 151 186 217 266
#     4  10  19  30  45  66  87 103 131 179 227 264
#     4  10  19  30  49  68  84 109 141 174 214 272
#     4  10  20  33  48  66  85 111 142 171 215 267
#
# _framework density 13.917721
#
# number of rings (size 3 to 8) (size 9 to 14) (size 15 to 20)
#    0.000    1.875    1.875    3.375    0.000    6.000 
#    0.000    1.875    0.000    0.000    0.000    0.000 
#    0.000    0.000    0.000    0.000    0.000    0.000 
#
# Total GULP energy -714124.150402 kJ/mol
# GULP energy per Si atom -5579.094925 kJ/mol
# Density = 1.388604 g / cm^3
# Si number density = 13.917721 Si / 1000 Ang^3
#
#
#
# Elastic Constant Matrix: (Units=GPa)
#
#
# Indices 1 2 3 4 5 6 
#
# 1 58.6243 25.9783 35.5638 0.0000 0.0000 -0.0001
# 2 25.9783 58.6242 35.5636 0.0000 0.0000 0.0000
# 3 35.5638 35.5636 98.3886 0.0000 0.0000 -0.0001
# 4 0.0000 0.0000 0.0000 12.0044 0.0000 0.0000
# 5 0.0000 0.0000 0.0000 0.0000 12.0044 0.0000
# 6 -0.0001 0.0000 -0.0001 0.0000 0.0000 16.3232
#
#
#
# Elastic Compliance Matrix: (Units=1/GPa)
#
#
# Indices 1 2 3 4 5 6 
#
# 1 0.023806 -0.006826 -0.006138 0.000000 0.000000 0.000000
# 2 -0.006826 0.023806 -0.006138 0.000000 0.000000 0.000000
# 3 -0.006138 -0.006138 0.014601 0.000000 0.000000 0.000000
# 4 0.000000 0.000000 0.000000 0.083303 0.000000 0.000000
# 5 0.000000 0.000000 0.000000 0.000000 0.083303 0.000000
# 6 0.000000 0.000000 0.000000 0.000000 0.000000 0.061263
#
#
# Mechanical properties :
#
#
# Convention : Reuss Voigt Hill
#
# Bulk Modulus (GPa) = 41.64870 45.53872 43.59371
# Shear Modulus (GPa) = 14.86829 15.96849 15.41839
#
# Velocity S-wave (km/s) = 3.27203 3.39093 3.33201
# Velocity P-wave (km/s) = 6.65318 6.93702 6.79658
#
# Compressibility (1/GPa) = 0.02401035
#
# Stress axis : x y z
#
# Youngs Moduli (GPa) = 42.00648 42.00654 68.48936
#
# Poissons Ratio (x) = 0.28673 0.42036
# Poissons Ratio (y) = 0.28673 0.42036
# Poissons Ratio (z) = 0.25782 0.25782
#
# Static dielectric constant tensor:
#      x y z
#    x 1.466370 0.000000 0.000000 
#    y 0.000000 1.466380 0.000000 
#    z 0.000000 0.000000 1.487710 
# 
# From -- ./inp_files/4293.got.cif
#   From: 2010.05.17/outbox.cif.g08.bks.cpg/sg192_3_cif.got.tgz:4293.got - 2010.05.20 12:28:01.
