data_PCOD9588364
_publ_section_title
;
Structure prediction by ZEFSAII (Michael W. Deem and Ramdas Pophale) SiO2 
 PCOD9588364
Probable space group: P 6/M C C
;
_chemical_formula_sum "Si O2"
_cell_formula_units_Z 84
_cell_length_a 13.590668
_cell_length_b 13.590668
_cell_length_c 30.465271
_cell_angle_alpha 90.000000
_cell_angle_beta 90.000000
_cell_angle_gamma 120.000000
_cell_volume 4873.234209
_symmetry_space_group_name_H-M "P 6/M C C"
_symmetry_group_IT_number 192
_symmetry_cell_setting 'hexagonal'
loop_
_space_group_symop_operation_xyz
x,y,z
x-y,x,z
-y,x-y,z
-x,-y,z
-x+y,-x,z
y,-x+y,z
x-y,-y,1/2-z
-x,-x+y,1/2-z
y,x,1/2-z
-y,-x,1/2-z
-x+y,y,1/2-z
x,x-y,1/2-z
-x,-y,-z
-x+y,-x,-z
y,-x+y,-z
x,y,-z
x-y,x,-z
-y,x-y,-z
-x+y,y,1/2+z
x,x-y,1/2+z
-y,-x,1/2+z
y,x,1/2+z
x-y,-y,1/2+z
-x,-x+y,1/2+z
loop_
_atom_site_type_symbol
_atom_site_label
_atom_site_fract_x
_atom_site_fract_y
_atom_site_fract_z
Si Si1 0.476893 0.119189 0.659002
Si Si2 0.877106 0.315242 0.873470
Si Si3 0.082249 0.263772 0.551866
Si Si4 0.592315 0.407686 0.750000
O O1 0.573493 0.136787 0.623467
O O2 0.450851 0.220743 0.653519
O O3 0.537037 0.121092 0.705080
O O4 0.365421 0.999000 0.650422
O O5 0.884633 0.257605 0.918214
O O6 0.167340 0.215432 0.561077
O O7 0.090390 0.290023 0.500000
O O8 0.544803 0.272402 0.750000
#
# Coordination Sequence:
#
# PCOD9588364 Si02
#       4
#    24  24  24  12
#     4  11  22  37  58  87 118 160 194 254 302 363
#     4  11  21  37  58  84 120 156 200 245 309 361
#     4  10  20  37  62  91 121 156 201 251 301 366
#     4  10  18  37  58  84 116 146 200 247 288 356
#
# _framework density 17.237013999999999
#
# number of rings (size 3 to 8) (size 9 to 14) (size 15 to 20)
#    0.286    1.143    5.714    0.857    0.000    3.429 
#    2.571    4.286    0.000    0.000    0.000    0.000 
#    0.000    0.000    3.429    0.000    0.000    0.000 
#
# Total GULP energy -467621.886336 kJ/mol
# GULP energy per Si atom -5566.927218 kJ/mol
# Density = 1.719778 g / cm^3
# Si number density = 17.237014 Si / 1000 Ang^3
#
#
#
# Elastic Constant Matrix: (Units=GPa)
#
#
# Indices 1 2 3 4 5 6 
#
# 1 116.5612 55.2500 50.2808 0.0000 0.0000 0.0000
# 2 55.2500 116.5612 50.2808 0.0000 0.0000 0.0000
# 3 50.2808 50.2808 100.8844 0.0000 0.0000 0.0000
# 4 0.0000 0.0000 0.0000 29.6448 0.0000 0.0000
# 5 0.0000 0.0000 0.0000 0.0000 29.6448 0.0000
# 6 0.0000 0.0000 0.0000 0.0000 0.0000 30.6556
#
#
#
# Elastic Compliance Matrix: (Units=1/GPa)
#
#
# Indices 1 2 3 4 5 6 
#
# 1 0.012264 -0.004046 -0.004096 0.000000 0.000000 0.000000
# 2 -0.004046 0.012264 -0.004096 0.000000 0.000000 0.000000
# 3 -0.004096 -0.004096 0.013995 0.000000 0.000000 0.000000
# 4 0.000000 0.000000 0.000000 0.033733 0.000000 0.000000
# 5 0.000000 0.000000 0.000000 0.000000 0.033733 0.000000
# 6 0.000000 0.000000 0.000000 0.000000 0.000000 0.032620
#
#
# Mechanical properties :
#
#
# Convention : Reuss Voigt Hill
#
# Bulk Modulus (GPa) = 71.18741 71.73668 71.46204
# Shear Modulus (GPa) = 29.80338 29.86871 29.83604
#
# Velocity S-wave (km/s) = 4.16268 4.16724 4.16496
# Velocity P-wave (km/s) = 8.03073 8.05373 8.04224
#
# Compressibility (1/GPa) = 0.01404743
#
# Stress axis : x y z
#
# Youngs Moduli (GPa) = 81.54026 81.54026 71.45484
#
# Poissons Ratio (x) = 0.32994 0.29265
# Poissons Ratio (y) = 0.32994 0.29265
# Poissons Ratio (z) = 0.33396 0.33396
#
# Static dielectric constant tensor:
#      x y z
#    x 1.603050 0.000000 0.000000 
#    y 0.000000 1.603050 0.000000 
#    z 0.000000 0.000000 1.612550 
# 
# From -- ./inp_files/5588.got.cif
#   From: 2010.05.17/outbox.cif.g08.bks.cpg/sg192_3_cif.got.tgz:5588.got - 2010.05.20 12:28:01.
