data_PCOD9588218
_publ_section_title
;
Structure prediction by ZEFSAII (Michael W. Deem and Ramdas Pophale) SiO2 
 PCOD9588218
Probable space group: P 6/M M M
;
_chemical_formula_sum "Si O2"
_cell_formula_units_Z 102
_cell_length_a 26.355665
_cell_length_b 26.355665
_cell_length_c 10.414062
_cell_angle_alpha 90.000000
_cell_angle_beta 90.000000
_cell_angle_gamma 120.000000
_cell_volume 6264.677921
_symmetry_space_group_name_H-M "P 6/M M M"
_symmetry_group_IT_number 191
_symmetry_cell_setting 'hexagonal'
loop_
_space_group_symop_operation_xyz
x,y,z
x-y,x,z
-y,x-y,z
-x,-y,z
-x+y,-x,z
y,-x+y,z
x-y,-y,-z
-x,-x+y,-z
y,x,-z
-y,-x,-z
-x+y,y,-z
x,x-y,-z
-x,-y,-z
-x+y,-x,-z
y,-x+y,-z
x,y,-z
x-y,x,-z
-y,x-y,-z
-x+y,y,z
x,x-y,z
-y,-x,z
y,x,z
x-y,-y,z
-x,-x+y,z
loop_
_atom_site_type_symbol
_atom_site_label
_atom_site_fract_x
_atom_site_fract_y
_atom_site_fract_z
Si Si1 0.312726 0.000000 0.651599
Si Si2 0.476555 0.406122 0.000000
Si Si3 0.324999 0.893896 0.249740
Si Si4 0.801212 0.602423 0.157518
Si Si5 0.000000 0.119403 0.500000
Si Si6 0.403879 0.475726 0.500000
Si Si7 0.870382 0.740764 0.847997
Si Si8 0.197910 0.000000 0.730388
O O1 0.364512 0.055751 0.722143
O O2 0.252862 0.000000 0.665446
O O3 0.325127 0.000000 0.500000
O O4 0.457677 0.366274 0.126229
O O5 0.440893 0.440893 0.000000
O O6 0.544887 0.455114 0.000000
O O7 0.263831 0.836143 0.217123
O O8 0.363384 0.899315 0.375107
O O9 0.836037 0.672073 0.193710
O O10 0.799173 0.598345 0.000000
O O11 0.000000 0.154792 0.623931
O O12 0.056990 0.113980 0.500000
O O13 0.433471 0.433471 0.500000
O O14 0.459056 0.540945 0.500000
O O15 0.836735 0.774957 0.804760
O O16 0.869435 0.738869 0.000000
#
# Coordination Sequence:
#
# PCOD9588218 Si02
#       8
#    12  12  24  12   6  12  12  12
#     4  12  22  36  56  88 123 159 192 243 302 351
#     4  11  22  35  58  88 118 160 204 238 289 352
#     4  12  21  38  57  84 128 164 196 249 296 349
#     4  11  24  37  57  87 125 166 207 246 300 356
#     4  12  25  42  64  78 102 136 193 264 324 374
#     4  11  22  38  61  90 125 161 197 239 295 357
#     4  11  24  39  57  85 116 156 201 247 299 365
#     4  12  23  39  61  82 112 154 197 245 300 368
#
# _framework density 16.281763000000002
#
# number of rings (size 3 to 8) (size 9 to 14) (size 15 to 20)
#    0.000    0.471    8.824    1.118    0.000    2.353 
#    2.118    2.353    0.000    0.000    0.000    1.647 
#   23.529    0.000    0.000    0.000    0.000    0.000 
#
# Total GULP energy -569280.557258 kJ/mol
# GULP energy per Si atom -5581.181934 kJ/mol
# Density = 1.624470 g / cm^3
# Si number density = 16.281763 Si / 1000 Ang^3
#
#
#
# Elastic Constant Matrix: (Units=GPa)
#
#
# Indices 1 2 3 4 5 6 
#
# 1 191.1081 21.4636 67.5971 0.0000 0.0000 0.0000
# 2 21.4636 191.1081 67.5971 0.0000 0.0000 0.0000
# 3 67.5971 67.5971 136.6145 0.0000 0.0000 0.0000
# 4 0.0000 0.0000 0.0000 39.3865 0.0000 0.0000
# 5 0.0000 0.0000 0.0000 0.0000 39.3865 0.0000
# 6 0.0000 0.0000 0.0000 0.0000 0.0000 84.8222
#
#
#
# Elastic Compliance Matrix: (Units=1/GPa)
#
#
# Indices 1 2 3 4 5 6 
#
# 1 0.006380 0.000485 -0.003397 0.000000 0.000000 0.000000
# 2 0.000485 0.006380 -0.003397 0.000000 0.000000 0.000000
# 3 -0.003397 -0.003397 0.010681 0.000000 0.000000 0.000000
# 4 0.000000 0.000000 0.000000 0.025389 0.000000 0.000000
# 5 0.000000 0.000000 0.000000 0.000000 0.025389 0.000000
# 6 0.000000 0.000000 0.000000 0.000000 0.000000 0.011789
#
#
# Mechanical properties :
#
#
# Convention : Reuss Voigt Hill
#
# Bulk Modulus (GPa) = 92.38861 92.46071 92.42466
# Shear Modulus (GPa) = 48.90793 56.86388 52.88591
#
# Velocity S-wave (km/s) = 5.48668 5.91614 5.70545
# Velocity P-wave (km/s) = 9.84911 10.17737 10.01459
#
# Compressibility (1/GPa) = 0.01082384
#
# Stress axis : x y z
#
# Youngs Moduli (GPa) = 156.74999 156.74999 93.62310
#
# Poissons Ratio (x) = -0.07601 0.31800
# Poissons Ratio (y) = -0.07601 0.31800
# Poissons Ratio (z) = 0.53241 0.53241
#
# Static dielectric constant tensor:
#      x y z
#    x 1.534290 0.000000 0.000000 
#    y 0.000000 1.534290 0.000000 
#    z 0.000000 0.000000 1.538240 
# 
# From -- ./inp_files/1499.got.cif
#   From: 2010.05.17/outbox.cif.g08.bks.cpg/sg191_1_cif.got.tgz:1499.got - 2010.05.20 12:20:32.
