data_PCOD9588856
_publ_section_title
;
Structure prediction by ZEFSAII (Michael W. Deem and Ramdas Pophale) SiO2 
 PCOD9588856
Probable space group: P 6/M C C
;
_chemical_formula_sum "Si O2"
_cell_formula_units_Z 104
_cell_length_a 20.097492
_cell_length_b 20.097492
_cell_length_c 14.798529
_cell_angle_alpha 90.000000
_cell_angle_beta 90.000000
_cell_angle_gamma 120.000000
_cell_volume 5176.460549
_symmetry_space_group_name_H-M "P 6/M C C"
_symmetry_group_IT_number 192
_symmetry_cell_setting 'hexagonal'
loop_
_space_group_symop_operation_xyz
x,y,z
x-y,x,z
-y,x-y,z
-x,-y,z
-x+y,-x,z
y,-x+y,z
x-y,-y,1/2-z
-x,-x+y,1/2-z
y,x,1/2-z
-y,-x,1/2-z
-x+y,y,1/2-z
x,x-y,1/2-z
-x,-y,-z
-x+y,-x,-z
y,-x+y,-z
x,y,-z
x-y,x,-z
-y,x-y,-z
-x+y,y,1/2+z
x,x-y,1/2+z
-y,-x,1/2+z
y,x,1/2+z
x-y,-y,1/2+z
-x,-x+y,1/2+z
loop_
_atom_site_type_symbol
_atom_site_label
_atom_site_fract_x
_atom_site_fract_y
_atom_site_fract_z
Si Si1 0.709075 0.708740 0.859522
Si Si2 0.952142 0.537849 0.606618
Si Si3 0.666668 0.333334 0.610227
Si Si4 0.165506 0.837577 0.144173
Si Si5 0.714840 0.212933 0.390404
O O1 0.711419 0.711419 0.750000
O O2 0.632393 0.629741 0.884033
O O3 0.705282 0.782376 0.892945
O O4 0.781065 0.700805 0.893048
O O5 0.940881 0.518753 0.500000
O O6 0.866793 0.509022 0.644108
O O7 0.000000 0.500000 0.644319
O O8 0.666667 0.333334 0.500000
O O9 0.578114 0.293207 0.638833
O O10 0.154200 0.845801 0.250000
O O11 0.211694 0.791283 0.136372
O O12 0.713280 0.211180 0.500000
#
# Coordination Sequence:
#
# PCOD9588856 Si02
#       5
#    24  24   8  24  24
#     4   9  18  32  50  69  93 122 153 190 233 282
#     4   9  18  30  46  69  92 119 156 194 231 270
#     4   9  18  30  46  65  88 123 157 191 232 267
#     4   9  18  33  50  70  93 121 154 189 233 280
#     4   9  18  31  46  67  92 121 158 191 229 274
#
# _framework density 20.090948999999998
#
# number of rings (size 3 to 8) (size 9 to 14) (size 15 to 20)
#    0.000    3.000    0.000    0.000    3.231    1.385 
#    0.000    1.154    0.000    0.462    0.000    3.231 
#    0.000    0.000    0.000   11.538    0.000   12.000 
#
# Total GULP energy -580082.945126 kJ/mol
# GULP energy per Si atom -5577.720626 kJ/mol
# Density = 2.004522 g / cm^3
# Si number density = 20.090949 Si / 1000 Ang^3
#
#
#
# Elastic Constant Matrix: (Units=GPa)
#
#
# Indices 1 2 3 4 5 6 
#
# 1 109.3121 74.1679 -13.9259 0.0000 0.0001 -0.0004
# 2 74.1679 109.3122 -13.9260 0.0000 0.0000 -0.0001
# 3 -13.9259 -13.9260 43.0257 -0.0001 0.0000 -0.0001
# 4 0.0000 0.0000 -0.0001 16.6773 0.0000 0.0001
# 5 0.0001 0.0000 0.0000 0.0000 16.6778 0.0000
# 6 -0.0004 -0.0001 -0.0001 0.0001 0.0000 17.5723
#
#
#
# Elastic Compliance Matrix: (Units=1/GPa)
#
#
# Indices 1 2 3 4 5 6 
#
# 1 0.017093 -0.011361 0.001855 0.000000 0.000000 0.000000
# 2 -0.011361 0.017093 0.001855 0.000000 0.000000 0.000000
# 3 0.001855 0.001855 0.024443 0.000000 0.000000 0.000000
# 4 0.000000 0.000000 0.000000 0.059962 0.000000 0.000000
# 5 0.000000 0.000000 0.000000 0.000000 0.059960 0.000000
# 6 0.000000 0.000000 0.000000 0.000000 0.000000 0.056908
#
#
# Mechanical properties :
#
#
# Convention : Reuss Voigt Hill
#
# Bulk Modulus (GPa) = 23.08021 39.36468 31.22245
# Shear Modulus (GPa) = 18.85355 24.54109 21.69732
#
# Velocity S-wave (km/s) = 3.06667 3.49879 3.28983
# Velocity P-wave (km/s) = 4.90429 5.99648 5.47768
#
# Compressibility (1/GPa) = 0.04332716
#
# Stress axis : x y z
#
# Youngs Moduli (GPa) = 58.50365 58.50367 40.91177
#
# Poissons Ratio (x) = 0.66467 -0.07590
# Poissons Ratio (y) = 0.66467 -0.07590
# Poissons Ratio (z) = -0.10853 -0.10854
#
# Static dielectric constant tensor:
#      x y z
#    x 1.706980 0.000000 0.000000 
#    y 0.000000 1.706980 0.000000 
#    z 0.000000 0.000000 1.775050 
# 
# From -- ./inp_files/4869.got.cif
#   From: 2010.05.17/outbox.cif.g08.bks.cpg/sg192_3_cif.got.tgz:4869.got - 2010.05.20 12:28:01.
