data_PCOD9588217
_publ_section_title
;
Structure prediction by ZEFSAII (Michael W. Deem and Ramdas Pophale) SiO2 
 PCOD9588217
Probable space group: P 6/M M M
;
_chemical_formula_sum "Si O2"
_cell_formula_units_Z 156
_cell_length_a 21.311596
_cell_length_b 21.311596
_cell_length_c 23.500906
_cell_angle_alpha 90.000000
_cell_angle_beta 90.000000
_cell_angle_gamma 120.000000
_cell_volume 9243.728613
_symmetry_space_group_name_H-M "P 6/M M M"
_symmetry_group_IT_number 191
_symmetry_cell_setting 'hexagonal'
loop_
_space_group_symop_operation_xyz
x,y,z
x-y,x,z
-y,x-y,z
-x,-y,z
-x+y,-x,z
y,-x+y,z
x-y,-y,-z
-x,-x+y,-z
y,x,-z
-y,-x,-z
-x+y,y,-z
x,x-y,-z
-x,-y,-z
-x+y,-x,-z
y,-x+y,-z
x,y,-z
x-y,x,-z
-y,x-y,-z
-x+y,y,z
x,x-y,z
-y,-x,z
y,x,z
x-y,-y,z
-x,-x+y,z
loop_
_atom_site_type_symbol
_atom_site_label
_atom_site_fract_x
_atom_site_fract_y
_atom_site_fract_z
Si Si1 0.463917 0.307825 0.438455
Si Si2 0.336260 0.526422 0.682537
Si Si3 0.357883 0.442281 0.217004
Si Si4 0.778081 0.698438 0.738522
Si Si5 0.224766 0.918895 0.603034
Si Si6 0.084063 0.466003 0.000000
Si Si7 0.665559 0.183165 0.107679
O O1 0.488766 0.344245 0.500000
O O2 0.468814 0.234407 0.440059
O O3 0.505744 0.346102 0.381364
O O4 0.379469 0.280202 0.428619
O O5 0.252385 0.504769 0.691452
O O6 0.388074 0.611926 0.690118
O O7 0.362082 0.487110 0.726865
O O8 0.419838 0.419838 0.212140
O O9 0.282500 0.367511 0.225426
O O10 0.352196 0.486035 0.163891
O O11 0.856606 0.713212 0.753235
O O12 0.765989 0.765989 0.746004
O O13 0.765081 0.678339 0.671138
O O14 0.143839 0.856162 0.588838
O O15 0.243796 0.000000 0.590781
O O16 0.131253 0.471971 0.055254
O O17 0.080218 0.540109 0.000000
O O18 0.000000 0.401657 0.000000
O O19 0.601022 0.202044 0.100671
O O20 0.743364 0.256637 0.110694
#
# Coordination Sequence:
#
# PCOD9588217 Si02
#       7
#    24  24  24  24  24  12  24
#     4   9  18  32  49  68  91 121 158 201 247 297
#     4  11  22  36  53  73 100 130 164 206 257 317
#     4  11  22  35  53  75 100 133 173 218 263 306
#     4   9  16  28  47  70  95 123 158 199 245 295
#     4   9  16  28  47  69  93 121 156 198 244 295
#     4   9  19  36  56  78 106 139 174 212 252 298
#     4  11  22  36  55  78 107 140 177 218 262 312
#
# _framework density 16.876307000000001
#
# number of rings (size 3 to 8) (size 9 to 14) (size 15 to 20)
#    0.000    2.077    1.538    2.846    0.000    2.462 
#    0.000    2.308    0.000    1.231    0.000    4.308 
#    0.000    0.000    0.000    3.846    0.000    4.000 
#
# Total GULP energy -869757.036012 kJ/mol
# GULP energy per Si atom -5575.365615 kJ/mol
# Density = 1.683790 g / cm^3
# Si number density = 16.876307 Si / 1000 Ang^3
#
#
#
# Elastic Constant Matrix: (Units=GPa)
#
#
# Indices 1 2 3 4 5 6 
#
# 1 85.7535 49.2162 38.1977 0.0000 0.0000 0.0000
# 2 49.2162 85.7535 38.1977 0.0000 0.0000 0.0000
# 3 38.1977 38.1977 99.2860 0.0000 0.0000 0.0000
# 4 0.0000 0.0000 0.0000 -0.8783 0.0000 0.0000
# 5 0.0000 0.0000 0.0000 0.0000 -0.8783 0.0000
# 6 0.0000 0.0000 0.0000 0.0000 0.0000 18.2687
#
#
#
# Elastic Compliance Matrix: (Units=1/GPa)
#
#
# Indices 1 2 3 4 5 6 
#
# 1 0.018420 -0.008949 -0.003644 0.000000 0.000000 0.000000
# 2 -0.008949 0.018420 -0.003644 0.000000 0.000000 0.000000
# 3 -0.003644 -0.003644 0.012876 0.000000 0.000000 0.000000
# 4 0.000000 0.000000 0.000000 -1.138576 0.000000 0.000000
# 5 0.000000 0.000000 0.000000 0.000000 -1.138576 0.000000
# 6 0.000000 0.000000 0.000000 0.000000 0.000000 0.054739
#
#
# Mechanical properties :
#
#
# Convention : Reuss Voigt Hill
#
# Bulk Modulus (GPa) = 57.99402 58.00179 57.99791
# Shear Modulus (GPa) = -2.34250 12.98118 5.31934
#
# Velocity S-wave (km/s) = -1.17943 2.77645 1.77730
# Velocity P-wave (km/s) = 5.70824 6.68742 6.21714
#
# Compressibility (1/GPa) = 0.01724316
#
# Stress axis : x y z
#
# Youngs Moduli (GPa) = 54.28751 54.28751 77.66534
#
# Poissons Ratio (x) = 0.48581 0.28301
# Poissons Ratio (y) = 0.48581 0.28301
# Poissons Ratio (z) = 0.19782 0.19782
#
# Static dielectric constant tensor:
#      x y z
#    x 1.568870 0.000000 0.000000 
#    y 0.000000 1.568870 0.000000 
#    z 0.000000 0.000000 1.593590 
# 
# From -- ./inp_files/7750.got.cif
#   From: 2010.05.17/outbox.cif.g08.bks.cpg/sg191_4_cif.got.tgz:7750.got - 2010.05.20 12:20:32.
