data_PCOD9588271
_publ_section_title
;
Structure prediction by ZEFSAII (Michael W. Deem and Ramdas Pophale) SiO2 
 PCOD9588271
Probable space group: P 6/M M M
;
_chemical_formula_sum "Si O2"
_cell_formula_units_Z 144
_cell_length_a 30.000000
_cell_length_b 30.000000
_cell_length_c 9.000000
_cell_angle_alpha 90.000000
_cell_angle_beta 90.000000
_cell_angle_gamma 120.000000
_cell_volume 7014.805771
_symmetry_space_group_name_H-M "P 6/M M M"
_symmetry_group_IT_number 191
_symmetry_cell_setting 'hexagonal'
loop_
_space_group_symop_operation_xyz
x,y,z
x-y,x,z
-y,x-y,z
-x,-y,z
-x+y,-x,z
y,-x+y,z
x-y,-y,-z
-x,-x+y,-z
y,x,-z
-y,-x,-z
-x+y,y,-z
x,x-y,-z
-x,-y,-z
-x+y,-x,-z
y,-x+y,-z
x,y,-z
x-y,x,-z
-y,x-y,-z
-x+y,y,z
x,x-y,z
-y,-x,z
y,x,z
x-y,-y,z
-x,-x+y,z
loop_
_atom_site_type_symbol
_atom_site_label
_atom_site_fract_x
_atom_site_fract_y
_atom_site_fract_z
Si Si1 0.209933 0.152959 0.678617
Si Si2 0.144790 0.670245 0.827347
Si Si3 0.521552 0.582556 0.668195
Si Si4 0.697822 0.940976 0.172209
Si Si5 0.754341 0.143957 0.330150
Si Si6 0.761244 0.427772 0.179820
O O1 0.208780 0.152876 0.500000
O O2 0.193704 0.096852 0.732538
O O3 0.173964 0.173964 0.736778
O O4 0.266804 0.193077 0.730633
O O5 0.087849 0.628243 0.783482
O O6 0.166494 0.719233 0.721810
O O7 0.179629 0.645207 0.790695
O O8 0.150477 0.684884 0.000000
O O9 0.522411 0.601712 0.500000
O O10 0.464462 0.535539 0.699207
O O11 0.557834 0.557834 0.670177
O O12 0.640728 0.903111 0.220009
O O13 0.716271 0.000000 0.203759
O O14 0.706520 0.935981 0.000000
O O15 0.745467 0.126850 0.500000
O O16 0.813527 0.186474 0.311409
O O17 0.723851 0.447702 0.232359
O O18 0.743047 0.371524 0.237525
O O19 0.757742 0.425167 0.000000
#
# Coordination Sequence:
#
# PCOD9588271 Si02
#       6
#    24  24  24  24  24  24
#     4   9  17  30  49  73 102 137 176 216 259 309
#     4  11  22  35  54  81 112 143 177 220 268 317
#     4   9  19  37  59  81 107 142 183 225 271 322
#     4  10  21  36  55  80 107 134 168 214 267 318
#     4  11  24  40  57  77 104 142 184 220 260 316
#     4   9  17  30  50  77 108 139 170 206 251 303
#
# _framework density 20.528009999999998
#
# number of rings (size 3 to 8) (size 9 to 14) (size 15 to 20)
#    0.000    2.167    0.000    3.667    0.000    8.000 
#    0.000    0.833    0.000    0.167    0.000    1.167 
#    0.000    8.000    0.000    4.167    0.000    4.333 
#
# Total GULP energy -801623.261860 kJ/mol
# GULP energy per Si atom -5566.828207 kJ/mol
# Density = 2.048129 g / cm^3
# Si number density = 20.528010 Si / 1000 Ang^3
#
#
#
# Elastic Constant Matrix: (Units=GPa)
#
#
# Indices 1 2 3 4 5 6 
#
# 1 43.2807 33.2639 2.2768 0.0000 0.0000 0.0000
# 2 33.2639 43.2807 2.2768 0.0000 0.0000 0.0000
# 3 2.2768 2.2768 -11.5200 0.0000 0.0000 0.0000
# 4 0.0000 0.0000 0.0000 -4.2475 0.0000 0.0000
# 5 0.0000 0.0000 0.0000 0.0000 -4.2475 0.0000
# 6 0.0000 0.0000 0.0000 0.0000 0.0000 5.0084
#
#
#
# Elastic Compliance Matrix: (Units=1/GPa)
#
#
# Indices 1 2 3 4 5 6 
#
# 1 0.056372 -0.043460 0.002552 0.000000 0.000000 0.000000
# 2 -0.043460 0.056372 0.002552 0.000000 0.000000 0.000000
# 3 0.002552 0.002552 -0.085796 0.000000 0.000000 0.000000
# 4 0.000000 0.000000 0.000000 -0.235431 0.000000 0.000000
# 5 0.000000 0.000000 0.000000 0.000000 -0.235431 0.000000
# 6 0.000000 0.000000 0.000000 0.000000 0.000000 0.199664
#
#
# Mechanical properties :
#
#
# Convention : Reuss Voigt Hill
#
# Bulk Modulus (GPa) = -20.09504 16.74183 -1.67660
# Shear Modulus (GPa) = -27.15507 1.78427 -12.68540
#
# Velocity S-wave (km/s) = -3.64102 0.93331 -2.48857
# Velocity P-wave (km/s) = 5.24274 3.05528 3.01261
#
# Compressibility (1/GPa) = -0.04976353
#
# Stress axis : x y z
#
# Youngs Moduli (GPa) = 17.73926 17.73926 -11.65550
#
# Poissons Ratio (x) = 0.77094 0.02974
# Poissons Ratio (y) = 0.77094 0.02974
# Poissons Ratio (z) = -0.04527 -0.04527
#
# Static dielectric constant tensor:
#      x y z
#    x 1.851130 0.000000 0.000000 
#    y 0.000000 1.851130 0.000000 
#    z 0.000000 0.000000 1.712590 
# 
# From -- ./inp_files/1988.got.cif
#   From: 2010.05.17/outbox.ucp.g08.bks.cvg/sg191_1_cif.got.tgz:1988.got - 2010.06.11 15:22:43.
