data_PCOD9588788
_publ_section_title
;
Structure prediction by ZEFSAII (Michael W. Deem and Ramdas Pophale) SiO2 
 PCOD9588788
Probable space group: P 6/M C C
;
_chemical_formula_sum "Si O2"
_cell_formula_units_Z 96
_cell_length_a 18.462642
_cell_length_b 18.462642
_cell_length_c 19.188333
_cell_angle_alpha 90.000000
_cell_angle_beta 90.000000
_cell_angle_gamma 120.000000
_cell_volume 5664.421670
_symmetry_space_group_name_H-M "P 6/M C C"
_symmetry_group_IT_number 192
_symmetry_cell_setting 'hexagonal'
loop_
_space_group_symop_operation_xyz
x,y,z
x-y,x,z
-y,x-y,z
-x,-y,z
-x+y,-x,z
y,-x+y,z
x-y,-y,1/2-z
-x,-x+y,1/2-z
y,x,1/2-z
-y,-x,1/2-z
-x+y,y,1/2-z
x,x-y,1/2-z
-x,-y,-z
-x+y,-x,-z
y,-x+y,-z
x,y,-z
x-y,x,-z
-y,x-y,-z
-x+y,y,1/2+z
x,x-y,1/2+z
-y,-x,1/2+z
y,x,1/2+z
x-y,-y,1/2+z
-x,-x+y,1/2+z
loop_
_atom_site_type_symbol
_atom_site_label
_atom_site_fract_x
_atom_site_fract_y
_atom_site_fract_z
Si Si1 0.604587 0.479516 0.921672
Si Si2 0.177529 0.511924 0.717960
Si Si3 0.086617 0.337710 0.221845
Si Si4 0.409407 0.352838 0.918805
O O1 0.664279 0.476924 0.864157
O O2 0.510320 0.402888 0.909483
O O3 0.607685 0.568811 0.913580
O O4 0.628619 0.474226 0.000000
O O5 0.261270 0.522539 0.750000
O O6 0.157510 0.578755 0.750000
O O7 0.103446 0.420921 0.737427
O O8 0.163021 0.326042 0.250000
O O9 0.079781 0.361412 0.140605
O O10 0.000000 0.262958 0.250000
O O11 0.391153 0.322800 0.000000
#
# Coordination Sequence:
#
# PCOD9588788 Si02
#       4
#    24  24  24  24
#     4   9  17  31  53  78 107 145 187 230 270 316
#     4  11  21  33  50  76 109 149 190 225 265 312
#     4  11  22  36  56  83 107 139 179 225 276 329
#     4   9  17  32  55  82 106 139 185 229 274 325
#
# _framework density 16.947892
#
# number of rings (size 3 to 8) (size 9 to 14) (size 15 to 20)
#    0.000    2.000    5.000    1.750    0.000    0.500 
#    0.000    7.500    0.000    0.250    0.000    0.000 
#    0.000    0.000    0.000    2.250    0.000    0.000 
#
# Total GULP energy -534511.135989 kJ/mol
# GULP energy per Si atom -5567.824333 kJ/mol
# Density = 1.690932 g / cm^3
# Si number density = 16.947892 Si / 1000 Ang^3
#
#
#
# Elastic Constant Matrix: (Units=GPa)
#
#
# Indices 1 2 3 4 5 6 
#
# 1 45.9662 40.0097 43.7071 0.0000 0.0000 0.0000
# 2 40.0097 45.9662 43.7071 0.0000 0.0000 0.0000
# 3 43.7071 43.7071 184.8759 0.0000 0.0000 0.0000
# 4 0.0000 0.0000 0.0000 11.6761 0.0000 0.0000
# 5 0.0000 0.0000 0.0000 0.0000 11.6761 0.0000
# 6 0.0000 0.0000 0.0000 0.0000 0.0000 2.9782
#
#
#
# Elastic Compliance Matrix: (Units=1/GPa)
#
#
# Indices 1 2 3 4 5 6 
#
# 1 0.091598 -0.076286 -0.003620 0.000000 0.000000 0.000000
# 2 -0.076286 0.091598 -0.003620 0.000000 0.000000 0.000000
# 3 -0.003620 -0.003620 0.007121 0.000000 0.000000 0.000000
# 4 0.000000 0.000000 0.000000 0.085645 0.000000 0.000000
# 5 0.000000 0.000000 0.000000 0.000000 0.085645 0.000000
# 6 0.000000 0.000000 0.000000 0.000000 0.000000 0.335768
#
#
# Mechanical properties :
#
#
# Convention : Reuss Voigt Hill
#
# Bulk Modulus (GPa) = 42.98427 59.07291 51.02859
# Shear Modulus (GPa) = 5.73275 15.22503 10.47889
#
# Velocity S-wave (km/s) = 1.84117 3.00049 2.48926
# Velocity P-wave (km/s) = 5.47152 6.85093 6.19971
#
# Compressibility (1/GPa) = 0.02326433
#
# Stress axis : x y z
#
# Youngs Moduli (GPa) = 10.91729 10.91729 140.43749
#
# Poissons Ratio (x) = 0.83284 0.50837
# Poissons Ratio (y) = 0.83284 0.50836
# Poissons Ratio (z) = 0.03952 0.03952
#
# Static dielectric constant tensor:
#      x y z
#    x 0.766680 0.000000 0.000000 
#    y 0.000000 0.766680 0.000000 
#    z 0.000000 0.000000 1.625170 
# 
# From -- ./inp_files/4053.got.cif
#   From: 2010.05.17/outbox.cif.g08.bks.cpg/sg192_3_cif.got.tgz:4053.got - 2010.05.20 12:28:01.
