data_PCOD9588064
_publ_section_title
;
Structure prediction by ZEFSAII (Michael W. Deem and Ramdas Pophale) SiO2 
 PCOD9588064
Probable space group: P 6/M M M
;
_chemical_formula_sum "Si O2"
_cell_formula_units_Z 114
_cell_length_a 21.786641
_cell_length_b 21.786641
_cell_length_c 16.156593
_cell_angle_alpha 90.000000
_cell_angle_beta 90.000000
_cell_angle_gamma 120.000000
_cell_volume 6641.420385
_symmetry_space_group_name_H-M "P 6/M M M"
_symmetry_group_IT_number 191
_symmetry_cell_setting 'hexagonal'
loop_
_space_group_symop_operation_xyz
x,y,z
x-y,x,z
-y,x-y,z
-x,-y,z
-x+y,-x,z
y,-x+y,z
x-y,-y,-z
-x,-x+y,-z
y,x,-z
-y,-x,-z
-x+y,y,-z
x,x-y,-z
-x,-y,-z
-x+y,-x,-z
y,-x+y,-z
x,y,-z
x-y,x,-z
-y,x-y,-z
-x+y,y,z
x,x-y,z
-y,-x,z
y,x,z
x-y,-y,z
-x,-x+y,z
loop_
_atom_site_type_symbol
_atom_site_label
_atom_site_fract_x
_atom_site_fract_y
_atom_site_fract_z
Si Si1 0.665844 0.542539 0.827312
Si Si2 0.000000 0.500000 0.180010
Si Si3 0.523426 0.331551 0.000000
Si Si4 0.332291 0.524549 0.342169
Si Si5 0.290615 0.371939 0.593006
Si Si6 0.778222 0.696754 0.238239
O O1 0.584758 0.523408 0.821031
O O2 0.675060 0.497026 0.754683
O O3 0.721103 0.624702 0.808194
O O4 0.678811 0.521387 0.917460
O O5 0.589340 0.410661 0.000000
O O6 0.549093 0.274547 0.000000
O O7 0.270511 0.541021 0.364328
O O8 0.409050 0.590951 0.358100
O O9 0.318630 0.453957 0.389350
O O10 0.261907 0.353554 0.500000
O O11 0.354135 0.354135 0.600307
O O12 0.236348 0.326179 0.664876
O O13 0.857349 0.714698 0.216746
O O14 0.756461 0.756461 0.223979
#
# Coordination Sequence:
#
# PCOD9588064 Si02
#       6
#    24   6  12  24  24  24
#     4  11  22  36  55  77 104 136 174 223 266 312
#     4  12  20  37  56  80 105 132 176 224 271 322
#     4  12  23  36  52  74 105 142 183 219 259 306
#     4  11  22  35  50  69  98 134 171 209 256 310
#     4   9  19  34  54  77  99 126 166 216 261 303
#     4  10  20  36  57  80 108 139 175 215 266 321
#
# _framework density 17.165002999999999
#
# number of rings (size 3 to 8) (size 9 to 14) (size 15 to 20)
#    0.000    1.474    3.158    4.105    1.474    3.368 
#    0.000    3.158    0.000    1.474    0.000    0.000 
#    0.000    0.000    0.000    5.263    0.000    4.842 
#
# Total GULP energy -634805.929561 kJ/mol
# GULP energy per Si atom -5568.473066 kJ/mol
# Density = 1.712594 g / cm^3
# Si number density = 17.165003 Si / 1000 Ang^3
#
#
#
# Elastic Constant Matrix: (Units=GPa)
#
#
# Indices 1 2 3 4 5 6 
#
# 1 91.7562 53.5401 8.6004 0.0000 0.0000 0.0000
# 2 53.5401 91.7562 8.6004 0.0000 0.0000 0.0000
# 3 8.6004 8.6004 76.6583 0.0000 0.0000 0.0000
# 4 0.0000 0.0000 0.0000 1.7103 0.0000 0.0000
# 5 0.0000 0.0000 0.0000 0.0000 1.7103 0.0000
# 6 0.0000 0.0000 0.0000 0.0000 0.0000 19.1080
#
#
#
# Elastic Compliance Matrix: (Units=1/GPa)
#
#
# Indices 1 2 3 4 5 6 
#
# 1 0.016571 -0.009596 -0.000783 0.000000 0.000000 0.000000
# 2 -0.009596 0.016571 -0.000783 0.000000 0.000000 0.000000
# 3 -0.000783 -0.000783 0.013221 0.000000 0.000000 0.000000
# 4 0.000000 0.000000 0.000000 0.584686 0.000000 0.000000
# 5 0.000000 0.000000 0.000000 0.000000 0.584686 0.000000
# 6 0.000000 0.000000 0.000000 0.000000 0.000000 0.052334
#
#
# Mechanical properties :
#
#
# Convention : Reuss Voigt Hill
#
# Bulk Modulus (GPa) = 41.59638 44.62806 43.11222
# Shear Modulus (GPa) = 3.85088 17.13438 10.49263
#
# Velocity S-wave (km/s) = 1.49944 3.16288 2.47509
# Velocity P-wave (km/s) = 5.22337 6.27649 5.77399
#
# Compressibility (1/GPa) = 0.02404055
#
# Stress axis : x y z
#
# Youngs Moduli (GPa) = 60.34616 60.34616 75.64010
#
# Poissons Ratio (x) = 0.57908 0.05919
# Poissons Ratio (y) = 0.57908 0.05919
# Poissons Ratio (z) = 0.04722 0.04722
#
# Static dielectric constant tensor:
#      x y z
#    x 1.571920 0.000000 0.000000 
#    y 0.000000 1.571920 0.000000 
#    z 0.000000 0.000000 1.600330 
# 
# From -- ./inp_files/4415.got.cif
#   From: 2010.05.17/outbox.cif.g08.bks.cpg/sg191_3_cif.got.tgz:4415.got - 2010.05.20 12:20:32.
