data_PCOD9588898
_publ_section_title
;
Structure prediction by ZEFSAII (Michael W. Deem and Ramdas Pophale) SiO2 
 PCOD9588898
Probable space group: P 63/M C M
;
_chemical_formula_sum "Si O2"
_cell_formula_units_Z 80
_cell_length_a 18.266303
_cell_length_b 18.266303
_cell_length_c 16.571701
_cell_angle_alpha 90.000000
_cell_angle_beta 90.000000
_cell_angle_gamma 120.000000
_cell_volume 4788.494967
_symmetry_space_group_name_H-M "P 63/M C M"
_symmetry_group_IT_number 193
_symmetry_cell_setting 'hexagonal'
loop_
_space_group_symop_operation_xyz
x,y,z
x-y,x,1/2+z
-y,x-y,z
-x,-y,1/2+z
-x+y,-x,z
y,-x+y,1/2+z
x-y,-y,1/2-z
-x,-x+y,1/2-z
y,x,1/2-z
-y,-x,-z
-x+y,y,-z
x,x-y,-z
-x,-y,-z
-x+y,-x,1/2-z
y,-x+y,-z
x,y,1/2-z
x-y,x,-z
-y,x-y,1/2-z
-x+y,y,1/2+z
x,x-y,1/2+z
-y,-x,1/2+z
y,x,z
x-y,-y,z
-x,-x+y,z
loop_
_atom_site_type_symbol
_atom_site_label
_atom_site_fract_x
_atom_site_fract_y
_atom_site_fract_z
Si Si1 0.666667 0.333334 0.150894
Si Si2 0.169246 0.505236 0.910467
Si Si3 0.102244 0.472879 0.250000
Si Si4 0.542316 0.642792 0.750000
Si Si5 0.465358 0.099724 0.076141
O O1 0.666667 0.333334 0.250000
O O2 0.736843 0.422251 0.113120
O O3 0.133950 0.443536 0.834151
O O4 0.114985 0.554354 0.915520
O O5 0.151836 0.465049 0.998978
O O6 0.131851 0.572729 0.250000
O O7 0.126896 0.450358 0.335271
O O8 0.000000 0.424785 0.250000
O O9 0.592353 0.592353 0.750000
O O10 0.402314 0.000000 0.064280
#
# Coordination Sequence:
#
# PCOD9588898 Si02
#       5
#     8  24  12  12  24
#     4  12  24  34  35  50  80 115 129 121 161 230
#     4  10  18  28  41  48  73  94 116 142 157 212
#     4   7  12  22  36  54  72  74  84 128 182 212
#     4   9  14  24  42  58  62  78 108 154 192 188
#     4   9  16  27  44  62  66  75 110 155 186 192
#
# _framework density 16.706709
#
# number of rings (size 3 to 8) (size 9 to 14) (size 15 to 20)
#    0.000    2.700    1.500    5.400    0.000    4.800 
#    0.000    0.000    0.000    0.000    0.000    0.000 
#    0.000    0.000    0.000    0.000    0.000    0.000 
#
# Total GULP energy -445686.441483 kJ/mol
# GULP energy per Si atom -5571.080519 kJ/mol
# Density = 1.666868 g / cm^3
# Si number density = 16.706709 Si / 1000 Ang^3
#
#
#
# Elastic Constant Matrix: (Units=GPa)
#
#
# Indices 1 2 3 4 5 6 
#
# 1 41.9618 21.3581 26.9438 0.0000 -0.0001 0.0001
# 2 21.3581 41.9621 26.9439 0.0000 0.0000 0.0001
# 3 26.9438 26.9439 221.7603 0.0000 0.0000 0.0000
# 4 0.0000 0.0000 0.0000 2.0480 0.0001 0.0000
# 5 -0.0001 0.0000 0.0000 0.0001 2.0477 0.0000
# 6 0.0001 0.0001 0.0000 0.0000 0.0000 10.3020
#
#
#
# Elastic Compliance Matrix: (Units=1/GPa)
#
#
# Indices 1 2 3 4 5 6 
#
# 1 0.033074 -0.015460 -0.002140 0.000000 0.000001 0.000000
# 2 -0.015460 0.033074 -0.002140 0.000000 0.000000 0.000000
# 3 -0.002140 -0.002140 0.005029 0.000000 0.000000 0.000000
# 4 0.000000 0.000000 0.000000 0.488285 -0.000022 0.000001
# 5 0.000001 0.000000 0.000000 -0.000022 0.488353 0.000000
# 6 0.000000 0.000000 0.000000 0.000001 0.000000 0.097069
#
#
# Mechanical properties :
#
#
# Convention : Reuss Voigt Hill
#
# Bulk Modulus (GPa) = 31.54857 50.68621 41.11739
# Shear Modulus (GPa) = 4.18434 18.24208 11.21321
#
# Velocity S-wave (km/s) = 1.58431 3.30798 2.59353
# Velocity P-wave (km/s) = 4.71927 6.70783 5.79942
#
# Compressibility (1/GPa) = 0.03169715
#
# Stress axis : x y z
#
# Youngs Moduli (GPa) = 30.23477 30.23498 198.83009
#
# Poissons Ratio (x) = 0.46744 0.42552
# Poissons Ratio (y) = 0.46744 0.42552
# Poissons Ratio (z) = 0.06471 0.06471
#
# Static dielectric constant tensor:
#      x y z
#    x 1.564380 0.000000 0.000000 
#    y 0.000000 1.564380 0.000000 
#    z 0.000000 0.000000 1.769220 
# 
# From -- ./inp_files/5028.got.cif
#   From: 2010.05.17/outbox.cif.g08.bks.cpg/sg193_3_cif.got.tgz:5028.got - 2010.05.20 12:33:02.
