data_PCOD9588290
_publ_section_title
;
Structure prediction by ZEFSAII (Michael W. Deem and Ramdas Pophale) SiO2 
 PCOD9588290
Probable space group: P 6/M C C
;
_chemical_formula_sum "Si O2"
_cell_formula_units_Z 92
_cell_length_a 16.211848
_cell_length_b 16.211848
_cell_length_c 17.338076
_cell_angle_alpha 90.000000
_cell_angle_beta 90.000000
_cell_angle_gamma 120.000000
_cell_volume 3946.358909
_symmetry_space_group_name_H-M "P 6/M C C"
_symmetry_group_IT_number 192
_symmetry_cell_setting 'hexagonal'
loop_
_space_group_symop_operation_xyz
x,y,z
x-y,x,z
-y,x-y,z
-x,-y,z
-x+y,-x,z
y,-x+y,z
x-y,-y,1/2-z
-x,-x+y,1/2-z
y,x,1/2-z
-y,-x,1/2-z
-x+y,y,1/2-z
x,x-y,1/2-z
-x,-y,-z
-x+y,-x,-z
y,-x+y,-z
x,y,-z
x-y,x,-z
-y,x-y,-z
-x+y,y,1/2+z
x,x-y,1/2+z
-y,-x,1/2+z
y,x,1/2+z
x-y,-y,1/2+z
-x,-x+y,1/2+z
loop_
_atom_site_type_symbol
_atom_site_label
_atom_site_fract_x
_atom_site_fract_y
_atom_site_fract_z
Si Si1 0.471930 0.325087 0.858473
Si Si2 0.115453 0.831324 0.000000
Si Si3 0.886449 0.179270 0.832929
Si Si4 0.622816 0.966973 0.500000
Si Si5 0.666668 0.333334 0.843238
Si Si6 0.368266 0.000000 0.250000
O O1 0.389410 0.214165 0.847838
O O2 0.444250 0.374512 0.925903
O O3 0.572013 0.332480 0.870391
O O4 0.461490 0.371307 0.780212
O O5 0.086959 0.850082 0.085585
O O6 0.228731 0.898569 0.000000
O O7 0.071847 0.715887 0.000000
O O8 0.873692 0.126309 0.750000
O O9 0.964598 0.288156 0.816567
O O10 0.666668 0.333334 0.750000
#
# Coordination Sequence:
#
# PCOD9588290 Si02
#       6
#    24  12  24  12   8  12
#     4  10  22  37  61  88 125 165 216 273 337 398
#     4  10  18  34  58  90 132 162 214 268 337 399
#     4   9  18  32  55  87 120 162 207 274 326 391
#     4  10  20  38  64  95 126 170 209 278 335 406
#     4  12  24  43  59  85 123 174 226 272 349 412
#     4  10  16  34  59  84 116 158 219 268 325 388
#
# _framework density 23.312626999999999
#
# number of rings (size 3 to 8) (size 9 to 14) (size 15 to 20)
#    0.000    2.087    2.609    2.348    0.000    1.043 
#    0.000    5.870    0.000    3.391    0.000    0.000 
#    0.000    0.000    0.000    0.000    0.000    0.000 
#
# Total GULP energy -512810.643012 kJ/mol
# GULP energy per Si atom -5574.028728 kJ/mol
# Density = 2.325957 g / cm^3
# Si number density = 23.312627 Si / 1000 Ang^3
#
#
#
# Elastic Constant Matrix: (Units=GPa)
#
#
# Indices 1 2 3 4 5 6 
#
# 1 78.7266 40.5325 5.2374 0.0003 0.0001 0.0001
# 2 40.5325 78.7269 5.2375 0.0004 0.0009 0.0001
# 3 5.2374 5.2375 164.2987 -0.0001 -0.0004 0.0000
# 4 0.0003 0.0004 -0.0001 -19.5800 0.0016 -0.0004
# 5 0.0001 0.0009 -0.0004 0.0016 -19.5825 0.0001
# 6 0.0001 0.0001 0.0000 -0.0004 0.0001 19.0970
#
#
#
# Elastic Compliance Matrix: (Units=1/GPa)
#
#
# Indices 1 2 3 4 5 6 
#
# 1 0.017295 -0.008887 -0.000268 0.000000 0.000000 0.000000
# 2 -0.008887 0.017295 -0.000268 0.000000 0.000001 0.000000
# 3 -0.000268 -0.000268 0.006104 0.000000 0.000000 0.000000
# 4 0.000000 0.000000 0.000000 -0.051072 -0.000004 -0.000001
# 5 0.000000 0.000001 0.000000 -0.000004 -0.051066 0.000000
# 6 0.000000 0.000000 0.000000 -0.000001 0.000000 0.052364
#
#
# Mechanical properties :
#
#
# Convention : Reuss Voigt Hill
#
# Bulk Modulus (GPa) = 45.76943 47.08523 46.42733
# Shear Modulus (GPa) = 293.28012 14.03653 153.65833
#
# Velocity S-wave (km/s) = 11.22837 2.45643 8.12743
# Velocity P-wave (km/s) = 13.70318 5.31851 10.39384
#
# Compressibility (1/GPa) = 0.02184865
#
# Stress axis : x y z
#
# Youngs Moduli (GPa) = 57.81906 57.81927 163.83870
#
# Poissons Ratio (x) = 0.51382 0.04391
# Poissons Ratio (y) = 0.51382 0.04392
# Poissons Ratio (z) = 0.01550 0.01550
#
# Static dielectric constant tensor:
#      x y z
#    x 1.897440 0.000000 0.000000 
#    y 0.000000 1.897440 0.000000 
#    z 0.000000 0.000000 2.035220 
# 
# From -- ./inp_files/4038.got.cif
#   From: 2010.05.17/outbox.cif.g08.bks.cpg/sg192_3_cif.got.tgz:4038.got - 2010.05.20 12:28:01.
