data_PCOD9588954
_publ_section_title
;
Structure prediction by ZEFSAII (Michael W. Deem and Ramdas Pophale) SiO2 
 PCOD9588954
Probable space group: P 63/M C M
;
_chemical_formula_sum "Si O2"
_cell_formula_units_Z 96
_cell_length_a 26.606591
_cell_length_b 26.606591
_cell_length_c 9.912326
_cell_angle_alpha 90.000000
_cell_angle_beta 90.000000
_cell_angle_gamma 120.000000
_cell_volume 6076.936185
_symmetry_space_group_name_H-M "P 63/M C M"
_symmetry_group_IT_number 193
_symmetry_cell_setting 'hexagonal'
loop_
_space_group_symop_operation_xyz
x,y,z
x-y,x,1/2+z
-y,x-y,z
-x,-y,1/2+z
-x+y,-x,z
y,-x+y,1/2+z
x-y,-y,1/2-z
-x,-x+y,1/2-z
y,x,1/2-z
-y,-x,-z
-x+y,y,-z
x,x-y,-z
-x,-y,-z
-x+y,-x,1/2-z
y,-x+y,-z
x,y,1/2-z
x-y,x,-z
-y,x-y,1/2-z
-x+y,y,1/2+z
x,x-y,1/2+z
-y,-x,1/2+z
y,x,z
x-y,-y,z
-x,-x+y,z
loop_
_atom_site_type_symbol
_atom_site_label
_atom_site_fract_x
_atom_site_fract_y
_atom_site_fract_z
Si Si1 0.611151 0.070377 0.750000
Si Si2 0.426377 0.929819 0.750000
Si Si3 0.106218 0.106218 0.580579
Si Si4 0.795569 0.000000 0.092342
Si Si5 0.343860 0.929822 0.967184
Si Si6 0.211256 0.328035 0.097036
O O1 0.564495 0.092106 0.750000
O O2 0.649787 0.086444 0.618129
O O3 0.572836 0.000000 0.750000
O O4 0.384320 0.914110 0.877344
O O5 0.465001 0.000000 0.750000
O O6 0.101411 0.101411 0.750000
O O7 0.054187 0.108373 0.500000
O O8 0.163362 0.163362 0.526562
O O9 0.790720 0.057506 0.077866
O O10 0.815687 0.000000 0.250000
O O11 0.277657 0.899611 0.922687
O O12 0.372169 0.000000 0.955865
O O13 0.193467 0.329557 0.250000
O O14 0.166599 0.333198 0.000000
#
# Coordination Sequence:
#
# PCOD9588954 Si02
#       6
#    12  12  12  12  24  24
#     4   9  18  28  45  80 106 135 171 214 240 294
#     4   9  16  28  51  72 104 139 177 202 246 294
#     4  12  25  43  64  88 109 131 159 213 286 353
#     4  10  22  41  61  78 103 136 184 231 273 338
#     4  10  18  32  51  72 105 143 178 217 260 308
#     4  11  23  37  54  76 103 143 187 229 277 328
#
# _framework density 15.797434000000001
#
# number of rings (size 3 to 8) (size 9 to 14) (size 15 to 20)
#    0.000    1.750    2.500    2.750    1.750    6.000 
#    0.000    0.000    0.000    0.000    0.000    0.000 
#    0.000    0.000    0.000   15.000    0.000    0.000 
#
# Total GULP energy -534948.970567 kJ/mol
# GULP energy per Si atom -5572.385110 kJ/mol
# Density = 1.576148 g / cm^3
# Si number density = 15.797434 Si / 1000 Ang^3
#
#
#
# Elastic Constant Matrix: (Units=GPa)
#
#
# Indices 1 2 3 4 5 6 
#
# 1 109.7179 -31.1316 27.2205 0.0000 0.0000 0.0000
# 2 -31.1316 109.7179 27.2205 0.0000 0.0000 0.0000
# 3 27.2205 27.2205 108.3837 0.0000 0.0000 0.0000
# 4 0.0000 0.0000 0.0000 4.0419 0.0000 0.0000
# 5 0.0000 0.0000 0.0000 0.0000 4.0419 0.0000
# 6 0.0000 0.0000 0.0000 0.0000 0.0000 70.4247
#
#
#
# Elastic Compliance Matrix: (Units=1/GPa)
#
#
# Indices 1 2 3 4 5 6 
#
# 1 0.011252 0.004153 -0.003869 0.000000 0.000000 0.000000
# 2 0.004153 0.011252 -0.003869 0.000000 0.000000 0.000000
# 3 -0.003869 -0.003869 0.011170 0.000000 0.000000 0.000000
# 4 0.000000 0.000000 0.000000 0.247410 0.000000 0.000000
# 5 0.000000 0.000000 0.000000 0.000000 0.247410 0.000000
# 6 0.000000 0.000000 0.000000 0.000000 0.000000 0.014200
#
#
# Mechanical properties :
#
#
# Convention : Reuss Voigt Hill
#
# Bulk Modulus (GPa) = 37.72993 41.60426 39.66709
# Shear Modulus (GPa) = 8.94935 36.00236 22.47586
#
# Velocity S-wave (km/s) = 2.38272 4.77907 3.77603
# Velocity P-wave (km/s) = 5.61295 7.53962 6.64647
#
# Compressibility (1/GPa) = 0.02650416
#
# Stress axis : x y z
#
# Youngs Moduli (GPa) = 88.86957 88.86957 89.52660
#
# Poissons Ratio (x) = -0.36905 0.34638
# Poissons Ratio (y) = -0.36905 0.34638
# Poissons Ratio (z) = 0.34383 0.34383
#
# Static dielectric constant tensor:
#      x y z
#    x 1.513290 0.000000 0.000000 
#    y 0.000000 1.513290 0.000000 
#    z 0.000000 0.000000 1.581740 
# 
# From -- ./inp_files/1282.got.cif
#   From: 2010.05.17/outbox.cif.g08.bks.cpg/sg193_1_cif.got.tgz:1282.got - 2010.05.20 12:33:02.
