data_PCOD9588877
_publ_section_title
;
Structure prediction by ZEFSAII (Michael W. Deem and Ramdas Pophale) SiO2 
 PCOD9588877
Probable space group: P 63/M C M
;
_chemical_formula_sum "Si O2"
_cell_formula_units_Z 128
_cell_length_a 20.881717
_cell_length_b 20.881717
_cell_length_c 19.160664
_cell_angle_alpha 90.000000
_cell_angle_beta 90.000000
_cell_angle_gamma 120.000000
_cell_volume 7235.584142
_symmetry_space_group_name_H-M "P 63/M C M"
_symmetry_group_IT_number 193
_symmetry_cell_setting 'hexagonal'
loop_
_space_group_symop_operation_xyz
x,y,z
x-y,x,1/2+z
-y,x-y,z
-x,-y,1/2+z
-x+y,-x,z
y,-x+y,1/2+z
x-y,-y,1/2-z
-x,-x+y,1/2-z
y,x,1/2-z
-y,-x,-z
-x+y,y,-z
x,x-y,-z
-x,-y,-z
-x+y,-x,1/2-z
y,-x+y,-z
x,y,1/2-z
x-y,x,-z
-y,x-y,1/2-z
-x+y,y,1/2+z
x,x-y,1/2+z
-y,-x,1/2+z
y,x,z
x-y,-y,z
-x,-x+y,z
loop_
_atom_site_type_symbol
_atom_site_label
_atom_site_fract_x
_atom_site_fract_y
_atom_site_fract_z
Si Si1 0.300796 0.915924 0.333328
Si Si2 0.333334 0.666667 0.332335
Si Si3 0.836644 0.229949 0.668346
Si Si4 0.353729 0.000000 0.671179
Si Si5 0.841550 0.509828 0.451881
Si Si6 0.456498 0.641434 0.099989
Si Si7 0.570640 0.570640 0.535836
O O1 0.310013 0.921032 0.250000
O O2 0.213326 0.857570 0.345354
O O3 0.340890 0.872327 0.361806
O O4 0.336131 0.000000 0.360243
O O5 0.333334 0.666668 0.250000
O O6 0.261072 0.593916 0.359984
O O7 0.821032 0.241777 0.750000
O O8 0.815889 0.269305 0.606700
O O9 0.925676 0.274565 0.662366
O O10 0.414535 0.000000 0.619394
O O11 0.378273 0.000000 0.750000
O O12 0.798455 0.474296 0.522663
O O13 0.849965 0.446046 0.412933
O O14 0.923216 0.566578 0.482538
O O15 0.500000 0.500000 0.500000
#
# Coordination Sequence:
#
# PCOD9588877 Si02
#       7
#    24   8  24  12  24  24  12
#     4  10  22  37  54  76 105 139 173 215 270 329
#     4  12  27  43  56  73 100 140 187 240 279 310
#     4   9  18  36  56  79 109 137 176 222 267 322
#     4   8  16  30  54  80 102 140 180 219 264 313
#     4  10  22  33  57  79 104 137 178 225 274 319
#     4  11  23  37  56  73 101 136 180 226 271 329
#     4  10  16  32  50  76 112 134 168 216 269 311
#
# _framework density 17.690346999999999
#
# number of rings (size 3 to 8) (size 9 to 14) (size 15 to 20)
#    0.000    2.062    1.875    1.688    2.625    9.750 
#    0.000    0.000    0.000    0.000    0.000    0.000 
#    0.938    0.000    2.812    0.000    0.000    2.438 
#
# Total GULP energy -712707.237831 kJ/mol
# GULP energy per Si atom -5568.025296 kJ/mol
# Density = 1.765008 g / cm^3
# Si number density = 17.690347 Si / 1000 Ang^3
#
#
#
# Elastic Constant Matrix: (Units=GPa)
#
#
# Indices 1 2 3 4 5 6 
#
# 1 104.9180 63.3723 53.9539 0.0000 0.0000 0.0000
# 2 63.3723 104.9182 53.9540 0.0000 0.0000 0.0000
# 3 53.9539 53.9540 84.7880 0.0000 0.0000 0.0000
# 4 0.0000 0.0000 0.0000 25.9070 0.0000 0.0000
# 5 0.0000 0.0000 0.0000 0.0000 25.9071 0.0000
# 6 0.0000 0.0000 0.0000 0.0000 0.0000 20.7728
#
#
#
# Elastic Compliance Matrix: (Units=1/GPa)
#
#
# Indices 1 2 3 4 5 6 
#
# 1 0.017054 -0.007016 -0.006387 0.000000 0.000000 0.000000
# 2 -0.007016 0.017054 -0.006387 0.000000 0.000000 0.000000
# 3 -0.006387 -0.006387 0.019923 0.000000 0.000000 0.000000
# 4 0.000000 0.000000 0.000000 0.038600 0.000000 0.000000
# 5 0.000000 0.000000 0.000000 0.000000 0.038599 0.000000
# 6 0.000000 0.000000 0.000000 0.000000 0.000000 0.048140
#
#
# Mechanical properties :
#
#
# Convention : Reuss Voigt Hill
#
# Bulk Modulus (GPa) = 69.20859 70.79830 70.00345
# Shear Modulus (GPa) = 22.34460 22.74032 22.54246
#
# Velocity S-wave (km/s) = 3.55786 3.58923 3.57358
# Velocity P-wave (km/s) = 7.48899 7.56865 7.52893
#
# Compressibility (1/GPa) = 0.01444907
#
# Stress axis : x y z
#
# Youngs Moduli (GPa) = 58.63802 58.63812 50.19271
#
# Poissons Ratio (x) = 0.41141 0.32060
# Poissons Ratio (y) = 0.41141 0.32060
# Poissons Ratio (z) = 0.37454 0.37454
#
# Static dielectric constant tensor:
#      x y z
#    x 1.676500 0.000000 0.000000 
#    y 0.000000 1.676500 0.000000 
#    z 0.000000 0.000000 1.647210 
# 
# From -- ./inp_files/6527.got.cif
#   From: 2010.05.17/outbox.cif.g08.bks.cpg/sg193_4_cif.got.tgz:6527.got - 2010.05.20 12:33:02.
