data_PCOD9588022
_publ_section_title
;
Structure prediction by ZEFSAII (Michael W. Deem and Ramdas Pophale) SiO2 
 PCOD9588022
Probable space group: P 6/M M M
;
_chemical_formula_sum "Si O2"
_cell_formula_units_Z 138
_cell_length_a 30.545677
_cell_length_b 30.545677
_cell_length_c 7.958353
_cell_angle_alpha 90.000000
_cell_angle_beta 90.000000
_cell_angle_gamma 120.000000
_cell_volume 6430.627311
_symmetry_space_group_name_H-M "P 6/M M M"
_symmetry_group_IT_number 191
_symmetry_cell_setting 'hexagonal'
loop_
_space_group_symop_operation_xyz
x,y,z
x-y,x,z
-y,x-y,z
-x,-y,z
-x+y,-x,z
y,-x+y,z
x-y,-y,-z
-x,-x+y,-z
y,x,-z
-y,-x,-z
-x+y,y,-z
x,x-y,-z
-x,-y,-z
-x+y,-x,-z
y,-x+y,-z
x,y,-z
x-y,x,-z
-y,x-y,-z
-x+y,y,z
x,x-y,z
-y,-x,z
y,x,z
x-y,-y,z
-x,-x+y,z
loop_
_atom_site_type_symbol
_atom_site_label
_atom_site_fract_x
_atom_site_fract_y
_atom_site_fract_z
Si Si1 0.490043 0.610359 0.200260
Si Si2 0.375586 0.236189 0.694961
Si Si3 0.057167 0.787866 0.803215
Si Si4 0.332797 0.767231 0.702976
Si Si5 0.058724 0.941277 0.500000
Si Si6 0.656747 0.599904 0.698788
Si Si7 0.094595 0.905405 0.814145
O O1 0.440965 0.559036 0.259601
O O2 0.477747 0.654852 0.243234
O O3 0.541010 0.617344 0.278993
O O4 0.493732 0.608259 0.000000
O O5 0.392388 0.243281 0.500000
O O6 0.387037 0.193519 0.767738
O O7 0.315467 0.214275 0.703656
O O8 0.394777 0.291498 0.772947
O O9 0.068888 0.845031 0.799165
O O10 0.000000 0.749956 0.743676
O O11 0.060493 0.776226 0.000000
O O12 0.332381 0.766229 0.500000
O O13 0.380430 0.760859 0.758815
O O14 0.279647 0.720354 0.761544
O O15 0.075485 0.924516 0.664902
O O16 0.000000 0.915947 0.500000
O O17 0.665966 0.611532 0.500000
O O18 0.635447 0.635447 0.767225
O O19 0.082994 0.917007 0.000000
#
# Coordination Sequence:
#
# PCOD9588022 Si02
#       7
#    24  24  24  24   6  24  12
#     4  10  22  39  58  83 115 150 193 247 302 355
#     4  10  21  37  58  86 119 152 187 229 281 344
#     4  10  20  34  55  83 116 153 191 234 284 340
#     4   9  17  31  54  84 118 156 197 241 289 347
#     4  12  27  44  64  88 116 156 204 256 314 374
#     4  10  22  40  60  84 115 152 195 243 295 352
#     4  10  22  41  61  89 122 152 194 248 302 364
#
# _framework density 21.459804999999999
#
# number of rings (size 3 to 8) (size 9 to 14) (size 15 to 20)
#    0.000    2.087    0.870    1.783    1.217    6.261 
#    0.000    3.478    0.000    1.565    0.000    0.000 
#    0.000    0.000    0.000    0.000    0.000    0.000 
#
# Total GULP energy -770300.536631 kJ/mol
# GULP energy per Si atom -5581.887947 kJ/mol
# Density = 2.141096 g / cm^3
# Si number density = 21.459805 Si / 1000 Ang^3
#
#
#
# Elastic Constant Matrix: (Units=GPa)
#
#
# Indices 1 2 3 4 5 6 
#
# 1 95.3531 49.9565 5.5572 0.0000 0.0000 0.0000
# 2 49.9565 95.3531 5.5572 0.0000 0.0000 0.0000
# 3 5.5572 5.5572 29.5220 0.0000 0.0000 0.0000
# 4 0.0000 0.0000 0.0000 18.1635 0.0000 0.0000
# 5 0.0000 0.0000 0.0000 0.0000 18.1635 0.0000
# 6 0.0000 0.0000 0.0000 0.0000 0.0000 22.6983
#
#
#
# Elastic Compliance Matrix: (Units=1/GPa)
#
#
# Indices 1 2 3 4 5 6 
#
# 1 0.014505 -0.007523 -0.001314 0.000000 0.000000 0.000000
# 2 -0.007523 0.014505 -0.001314 0.000000 0.000000 0.000000
# 3 -0.001314 -0.001314 0.034368 0.000000 0.000000 0.000000
# 4 0.000000 0.000000 0.000000 0.055056 0.000000 0.000000
# 5 0.000000 0.000000 0.000000 0.000000 0.055056 0.000000
# 6 0.000000 0.000000 0.000000 0.000000 0.000000 0.044056
#
#
# Mechanical properties :
#
#
# Convention : Reuss Voigt Hill
#
# Bulk Modulus (GPa) = 23.21517 38.04109 30.62813
# Shear Modulus (GPa) = 19.82499 22.41556 21.12027
#
# Velocity S-wave (km/s) = 3.04274 3.23544 3.14056
# Velocity P-wave (km/s) = 4.81516 5.63228 5.23967
#
# Compressibility (1/GPa) = 0.04307527
#
# Stress axis : x y z
#
# Youngs Moduli (GPa) = 68.94070 68.94070 29.09691
#
# Poissons Ratio (x) = 0.51863 0.03824
# Poissons Ratio (y) = 0.51863 0.03824
# Poissons Ratio (z) = 0.09061 0.09061
#
# Static dielectric constant tensor:
#      x y z
#    x 1.785370 0.000000 0.000000 
#    y 0.000000 1.785370 0.000000 
#    z 0.000000 0.000000 1.773050 
# 
# From -- ./inp_files/2038.got.cif
#   From: 2010.05.17/outbox.cif.g08.bks.cpg/sg191_2_cif.got.tgz:2038.got - 2010.05.20 12:20:32.
