data_PCOD9588584
_publ_section_title
;
Structure prediction by ZEFSAII (Michael W. Deem and Ramdas Pophale) SiO2 
 PCOD9588584
Probable space group: P 6/M C C
;
_chemical_formula_sum "Si O2"
_cell_formula_units_Z 108
_cell_length_a 16.400276
_cell_length_b 16.400276
_cell_length_c 23.484824
_cell_angle_alpha 90.000000
_cell_angle_beta 90.000000
_cell_angle_gamma 120.000000
_cell_volume 5470.414760
_symmetry_space_group_name_H-M "P 6/M C C"
_symmetry_group_IT_number 192
_symmetry_cell_setting 'hexagonal'
loop_
_space_group_symop_operation_xyz
x,y,z
x-y,x,z
-y,x-y,z
-x,-y,z
-x+y,-x,z
y,-x+y,z
x-y,-y,1/2-z
-x,-x+y,1/2-z
y,x,1/2-z
-y,-x,1/2-z
-x+y,y,1/2-z
x,x-y,1/2-z
-x,-y,-z
-x+y,-x,-z
y,-x+y,-z
x,y,-z
x-y,x,-z
-y,x-y,-z
-x+y,y,1/2+z
x,x-y,1/2+z
-y,-x,1/2+z
y,x,1/2+z
x-y,-y,1/2+z
-x,-x+y,1/2+z
loop_
_atom_site_type_symbol
_atom_site_label
_atom_site_fract_x
_atom_site_fract_y
_atom_site_fract_z
Si Si1 0.418917 0.336615 0.841622
Si Si2 0.065843 0.857476 0.068702
Si Si3 0.216739 0.783262 0.750000
Si Si4 0.201046 0.781051 0.932813
Si Si5 0.867468 0.499232 0.656645
O O1 0.383164 0.257971 0.791483
O O2 0.410843 0.282996 0.900682
O O3 0.377030 0.406424 0.840173
O O4 0.530545 0.409035 0.835297
O O5 0.108298 0.789878 0.077990
O O6 0.961433 0.821607 0.090688
O O7 0.061661 0.864303 0.000000
O O8 0.299854 0.806083 0.706640
O O9 0.181645 0.685760 0.901785
O O10 0.217306 0.782775 0.000000
#
# Coordination Sequence:
#
# PCOD9588584 Si02
#       5
#    24  24  12  24  24
#     4  10  21  38  58  81 110 148 192 236 287 348
#     4   9  16  27  46  72 102 135 172 215 262 315
#     4  10  20  36  58  84 106 132 178 238 294 344
#     4  10  21  36  53  80 113 151 191 234 280 331
#     4  10  21  38  58  81 110 148 192 236 287 348
#
# _framework density 19.742560999999998
#
# number of rings (size 3 to 8) (size 9 to 14) (size 15 to 20)
#    0.000    2.222    0.000    2.889    0.000    6.222 
#   18.667    2.222    0.000    0.000    0.000    0.000 
#    0.000    0.000    0.000   35.556    0.000    8.000 
#
# Total GULP energy -602125.718134 kJ/mol
# GULP energy per Si atom -5575.238131 kJ/mol
# Density = 1.969763 g / cm^3
# Si number density = 19.742561 Si / 1000 Ang^3
#
#
#
# Elastic Constant Matrix: (Units=GPa)
#
#
# Indices 1 2 3 4 5 6 
#
# 1 57.1259 24.5776 27.0356 0.0000 0.0000 0.0000
# 2 24.5776 57.1259 27.0356 0.0000 0.0000 0.0000
# 3 27.0356 27.0356 109.5935 0.0000 0.0000 0.0000
# 4 0.0000 0.0000 0.0000 19.3070 0.0000 0.0000
# 5 0.0000 0.0000 0.0000 0.0000 19.3070 0.0000
# 6 0.0000 0.0000 0.0000 0.0000 0.0000 16.2742
#
#
#
# Elastic Compliance Matrix: (Units=1/GPa)
#
#
# Indices 1 2 3 4 5 6 
#
# 1 0.022675 -0.008048 -0.003608 0.000000 0.000000 0.000000
# 2 -0.008048 0.022675 -0.003608 0.000000 0.000000 0.000000
# 3 -0.003608 -0.003608 0.010905 0.000000 0.000000 0.000000
# 4 0.000000 0.000000 0.000000 0.051795 0.000000 0.000000
# 5 0.000000 0.000000 0.000000 0.000000 0.051795 0.000000
# 6 0.000000 0.000000 0.000000 0.000000 0.000000 0.061447
#
#
# Mechanical properties :
#
#
# Convention : Reuss Voigt Hill
#
# Bulk Modulus (GPa) = 38.87105 42.34920 40.61013
# Shear Modulus (GPa) = 19.20139 20.65738 19.92938
#
# Velocity S-wave (km/s) = 3.12202 3.23822 3.18065
# Velocity P-wave (km/s) = 5.72081 5.95640 5.83980
#
# Compressibility (1/GPa) = 0.02572608
#
# Stress axis : x y z
#
# Youngs Moduli (GPa) = 44.10047 44.10047 91.70134
#
# Poissons Ratio (x) = 0.35492 0.33090
# Poissons Ratio (y) = 0.35492 0.33090
# Poissons Ratio (z) = 0.15913 0.15913
#
# Static dielectric constant tensor:
#      x y z
#    x 1.708580 0.000000 0.000000 
#    y 0.000000 1.708580 0.000000 
#    z 0.000000 0.000000 1.698030 
# 
# From -- ./inp_files/4859.got.cif
#   From: 2010.05.17/outbox.cif.g08.bks.cpg/sg192_3_cif.got.tgz:4859.got - 2010.05.20 12:28:01.
