data_PCOD9588283
_publ_section_title
;
Structure prediction by ZEFSAII (Michael W. Deem and Ramdas Pophale) SiO2 
 PCOD9588283
Probable space group: P 6/M C C
;
_chemical_formula_sum "Si O2"
_cell_formula_units_Z 96
_cell_length_a 17.546969
_cell_length_b 17.546969
_cell_length_c 19.645740
_cell_angle_alpha 90.000000
_cell_angle_beta 90.000000
_cell_angle_gamma 120.000000
_cell_volume 5238.455288
_symmetry_space_group_name_H-M "P 6/M C C"
_symmetry_group_IT_number 192
_symmetry_cell_setting 'hexagonal'
loop_
_space_group_symop_operation_xyz
x,y,z
x-y,x,z
-y,x-y,z
-x,-y,z
-x+y,-x,z
y,-x+y,z
x-y,-y,1/2-z
-x,-x+y,1/2-z
y,x,1/2-z
-y,-x,1/2-z
-x+y,y,1/2-z
x,x-y,1/2-z
-x,-y,-z
-x+y,-x,-z
y,-x+y,-z
x,y,-z
x-y,x,-z
-y,x-y,-z
-x+y,y,1/2+z
x,x-y,1/2+z
-y,-x,1/2+z
y,x,1/2+z
x-y,-y,1/2+z
-x,-x+y,1/2+z
loop_
_atom_site_type_symbol
_atom_site_label
_atom_site_fract_x
_atom_site_fract_y
_atom_site_fract_z
Si Si1 0.170204 0.372222 0.500000
Si Si2 0.405917 0.205983 0.150165
Si Si3 0.201055 0.975271 0.000000
Si Si4 0.642004 0.537821 0.743694
Si Si5 0.197500 0.125415 0.149197
O O1 0.187523 0.419202 0.427840
O O2 0.232741 0.329028 0.500000
O O3 0.070843 0.287576 0.500000
O O4 0.436141 0.152423 0.198621
O O5 0.453889 0.306829 0.173620
O O6 0.302106 0.173892 0.161195
O O7 0.142171 0.952080 0.067856
O O8 0.604423 0.604423 0.750000
O O9 0.559610 0.440390 0.750000
O O10 0.136032 0.162861 0.174836
#
# Coordination Sequence:
#
# PCOD9588283 Si02
#       5
#    12  24  12  24  24
#     4  10  20  32  56  91 123 169 211 241 304 342
#     4  10  21  38  62  87 119 165 198 257 312 382
#     4  10  16  26  45  78 126 173 213 242 263 319
#     4  10  22  41  62  88 111 146 203 259 318 384
#     4  11  18  28  46  81 127 176 218 240 267 316
#
# _framework density 18.326013
#
# number of rings (size 3 to 8) (size 9 to 14) (size 15 to 20)
#    0.000    1.750    5.000    1.750    3.500    0.000 
#    6.000    2.500    0.000    3.000    0.000    8.750 
#    0.000    0.000    0.000    0.000    0.000    0.000 
#
# Total GULP energy -534638.166822 kJ/mol
# GULP energy per Si atom -5569.147571 kJ/mol
# Density = 1.828430 g / cm^3
# Si number density = 18.326013 Si / 1000 Ang^3
#
#
#
# Elastic Constant Matrix: (Units=GPa)
#
#
# Indices 1 2 3 4 5 6 
#
# 1 97.7474 57.7319 32.5679 0.0000 0.0000 0.0000
# 2 57.7319 97.7474 32.5679 0.0000 0.0000 0.0000
# 3 32.5679 32.5679 111.1605 0.0000 0.0000 0.0000
# 4 0.0000 0.0000 0.0000 21.0295 0.0000 0.0000
# 5 0.0000 0.0000 0.0000 0.0000 21.0295 0.0000
# 6 0.0000 0.0000 0.0000 0.0000 0.0000 20.0077
#
#
#
# Elastic Compliance Matrix: (Units=1/GPa)
#
#
# Indices 1 2 3 4 5 6 
#
# 1 0.016161 -0.008829 -0.002148 0.000000 0.000000 0.000000
# 2 -0.008829 0.016161 -0.002148 0.000000 0.000000 0.000000
# 3 -0.002148 -0.002148 0.010255 0.000000 0.000000 0.000000
# 4 0.000000 0.000000 0.000000 0.047552 0.000000 0.000000
# 5 0.000000 0.000000 0.000000 0.000000 0.047552 0.000000
# 6 0.000000 0.000000 0.000000 0.000000 0.000000 0.049981
#
#
# Mechanical properties :
#
#
# Convention : Reuss Voigt Hill
#
# Bulk Modulus (GPa) = 61.25277 61.37673 61.31475
# Shear Modulus (GPa) = 22.79416 24.66586 23.73001
#
# Velocity S-wave (km/s) = 3.53060 3.67270 3.60235
# Velocity P-wave (km/s) = 7.07932 7.17978 7.12972
#
# Compressibility (1/GPa) = 0.01632579
#
# Stress axis : x y z
#
# Youngs Moduli (GPa) = 61.87748 61.87748 97.51668
#
# Poissons Ratio (x) = 0.54634 0.20947
# Poissons Ratio (y) = 0.54634 0.20947
# Poissons Ratio (z) = 0.13291 0.13291
#
# Static dielectric constant tensor:
#      x y z
#    x 1.629800 0.000000 0.000000 
#    y 0.000000 1.629800 0.000000 
#    z 0.000000 0.000000 1.758080 
# 
# From -- ./inp_files/4767.got.cif
#   From: 2010.05.17/outbox.cif.g08.bks.cpg/sg192_3_cif.got.tgz:4767.got - 2010.05.20 12:28:01.
