data_PCOD9588936
_publ_section_title
;
Structure prediction by ZEFSAII (Michael W. Deem and Ramdas Pophale) SiO2 
 PCOD9588936
Probable space group: P 63/M C M
;
_chemical_formula_sum "Si O2"
_cell_formula_units_Z 108
_cell_length_a 28.284724
_cell_length_b 28.284724
_cell_length_c 8.759550
_cell_angle_alpha 90.000000
_cell_angle_beta 90.000000
_cell_angle_gamma 120.000000
_cell_volume 6068.988551
_symmetry_space_group_name_H-M "P 63/M C M"
_symmetry_group_IT_number 193
_symmetry_cell_setting 'hexagonal'
loop_
_space_group_symop_operation_xyz
x,y,z
x-y,x,1/2+z
-y,x-y,z
-x,-y,1/2+z
-x+y,-x,z
y,-x+y,1/2+z
x-y,-y,1/2-z
-x,-x+y,1/2-z
y,x,1/2-z
-y,-x,-z
-x+y,y,-z
x,x-y,-z
-x,-y,-z
-x+y,-x,1/2-z
y,-x+y,-z
x,y,1/2-z
x-y,x,-z
-y,x-y,1/2-z
-x+y,y,1/2+z
x,x-y,1/2+z
-y,-x,1/2+z
y,x,z
x-y,-y,z
-x,-x+y,z
loop_
_atom_site_type_symbol
_atom_site_label
_atom_site_fract_x
_atom_site_fract_y
_atom_site_fract_z
Si Si1 0.773695 0.937646 0.568925
Si Si2 0.436506 0.270415 0.931816
Si Si3 0.886648 0.495455 0.932311
Si Si4 0.938229 0.669004 0.433039
Si Si5 0.000000 0.446761 0.567225
O O1 0.786550 0.893275 0.500000
O O2 0.762896 0.928626 0.750000
O O3 0.720291 0.932393 0.487302
O O4 0.821158 0.000000 0.546162
O O5 0.431163 0.264348 0.750000
O O6 0.489094 0.329490 0.965963
O O7 0.439491 0.219746 0.000000
O O8 0.384296 0.272559 0.995216
O O9 0.893819 0.494902 0.750000
O O10 0.876669 0.438335 0.000000
O O11 0.943009 0.543794 0.003934
O O12 0.934967 0.664577 0.250000
O O13 0.000000 0.684292 0.478147
O O14 0.000000 0.500000 0.500000
O O15 0.000000 0.446333 0.750000
#
# Coordination Sequence:
#
# PCOD9588936 Si02
#       5
#    24  24  24  24  12
#     4  10  20  34  53  76 103 137 176 221 272 323
#     4  11  24  39  57  81 113 150 188 231 280 330
#     4  10  21  37  57  82 110 144 182 226 275 326
#     4  10  21  36  55  80 110 146 186 225 269 324
#     4  10  18  30  52  80 110 142 176 218 266 322
#
# _framework density 17.795387999999999
#
# number of rings (size 3 to 8) (size 9 to 14) (size 15 to 20)
#    0.000    1.778    0.000    5.667    1.556    6.222 
#    0.000    0.000    0.000    0.667    0.000    0.000 
#    0.000    0.000    0.000    0.000    0.000    0.000 
#
# Total GULP energy -603105.947088 kJ/mol
# GULP energy per Si atom -5584.314325 kJ/mol
# Density = 1.775488 g / cm^3
# Si number density = 17.795388 Si / 1000 Ang^3
#
#
#
# Elastic Constant Matrix: (Units=GPa)
#
#
# Indices 1 2 3 4 5 6 
#
# 1 123.7352 80.6176 58.0733 0.0000 0.0000 0.0000
# 2 80.6176 123.7352 58.0733 0.0000 0.0000 0.0000
# 3 58.0733 58.0733 86.5277 0.0000 0.0000 0.0000
# 4 0.0000 0.0000 0.0000 25.1136 0.0000 0.0000
# 5 0.0000 0.0000 0.0000 0.0000 25.1136 0.0000
# 6 0.0000 0.0000 0.0000 0.0000 0.0000 21.5588
#
#
#
# Elastic Compliance Matrix: (Units=1/GPa)
#
#
# Indices 1 2 3 4 5 6 
#
# 1 0.015552 -0.007641 -0.005310 0.000000 0.000000 0.000000
# 2 -0.007641 0.015552 -0.005310 0.000000 0.000000 0.000000
# 3 -0.005310 -0.005310 0.018684 0.000000 0.000000 0.000000
# 4 0.000000 0.000000 0.000000 0.039819 0.000000 0.000000
# 5 0.000000 0.000000 0.000000 0.000000 0.039819 0.000000
# 6 0.000000 0.000000 0.000000 0.000000 0.000000 0.046385
#
#
# Mechanical properties :
#
#
# Convention : Reuss Voigt Hill
#
# Bulk Modulus (GPa) = 75.36889 80.83625 78.10257
# Shear Modulus (GPa) = 23.06769 23.50614 23.28692
#
# Velocity S-wave (km/s) = 3.60429 3.63838 3.62137
# Velocity P-wave (km/s) = 7.73086 7.94823 7.84030
#
# Compressibility (1/GPa) = 0.01326807
#
# Stress axis : x y z
#
# Youngs Moduli (GPa) = 64.30102 64.30102 53.52100
#
# Poissons Ratio (x) = 0.49129 0.28418
# Poissons Ratio (y) = 0.49129 0.28418
# Poissons Ratio (z) = 0.34142 0.34142
#
# Static dielectric constant tensor:
#      x y z
#    x 1.586610 0.000000 0.000000 
#    y 0.000000 1.586610 0.000000 
#    z 0.000000 0.000000 1.645860 
# 
# From -- ./inp_files/1305.got.cif
#   From: 2010.05.17/outbox.cif.g08.bks.cpg/sg193_1_cif.got.tgz:1305.got - 2010.05.20 12:33:02.
