data_PCOD9588067
_publ_section_title
;
Structure prediction by ZEFSAII (Michael W. Deem and Ramdas Pophale) SiO2 
 PCOD9588067
Probable space group: P 6/M M M
;
_chemical_formula_sum "Si O2"
_cell_formula_units_Z 156
_cell_length_a 21.525920
_cell_length_b 21.525920
_cell_length_c 20.976205
_cell_angle_alpha 90.000000
_cell_angle_beta 90.000000
_cell_angle_gamma 120.000000
_cell_volume 8417.458700
_symmetry_space_group_name_H-M "P 6/M M M"
_symmetry_group_IT_number 191
_symmetry_cell_setting 'hexagonal'
loop_
_space_group_symop_operation_xyz
x,y,z
x-y,x,z
-y,x-y,z
-x,-y,z
-x+y,-x,z
y,-x+y,z
x-y,-y,-z
-x,-x+y,-z
y,x,-z
-y,-x,-z
-x+y,y,-z
x,x-y,-z
-x,-y,-z
-x+y,-x,-z
y,-x+y,-z
x,y,-z
x-y,x,-z
-y,x-y,-z
-x+y,y,z
x,x-y,z
-y,-x,z
y,x,z
x-y,-y,z
-x,-x+y,z
loop_
_atom_site_type_symbol
_atom_site_label
_atom_site_fract_x
_atom_site_fract_y
_atom_site_fract_z
Si Si1 0.082754 0.709677 0.571176
Si Si2 0.638653 0.555997 0.745149
Si Si3 0.335960 0.528637 0.000000
Si Si4 0.697392 0.778309 0.702781
Si Si5 0.556093 0.918071 0.890716
Si Si6 0.780367 0.701376 0.077247
Si Si7 0.664563 0.187047 0.369292
O O1 0.092911 0.740091 0.500000
O O2 0.090673 0.762450 0.628635
O O3 0.138558 0.682383 0.583984
O O4 0.000000 0.645513 0.575965
O O5 0.581236 0.581236 0.727306
O O6 0.716137 0.628561 0.739771
O O7 0.625103 0.530868 0.817862
O O8 0.642608 0.501542 0.696242
O O9 0.356558 0.497422 0.939184
O O10 0.386234 0.613767 0.000000
O O11 0.252781 0.505561 0.000000
O O12 0.712589 0.856295 0.720821
O O13 0.761183 0.761183 0.711603
O O14 0.629033 0.914302 0.895249
O O15 0.579703 0.000000 0.908788
O O16 0.856013 0.712025 0.098034
O O17 0.765215 0.765215 0.093812
O O18 0.775769 0.693466 0.000000
O O19 0.597954 0.195908 0.390300
O O20 0.736525 0.263476 0.360878
#
# Coordination Sequence:
#
# PCOD9588067 Si02
#       7
#    24  24  12  24  24  24  24
#     4   9  18  33  55  81 103 126 163 215 269 308
#     4   9  19  35  57  81 100 122 158 210 267 310
#     4  12  26  41  55  73 102 139 173 201 235 290
#     4   9  17  30  49  75 106 137 169 207 253 303
#     4  10  20  36  58  82 102 121 156 210 267 309
#     4   9  16  27  45  70  98 126 156 193 239 289
#     4  11  23  37  52  72 102 140 176 206 239 290
#
# _framework density 18.532909
#
# number of rings (size 3 to 8) (size 9 to 14) (size 15 to 20)
#    0.000    2.308    0.769    4.154    0.000    6.462 
#    0.000    2.308    0.000    3.077    0.000    1.077 
#    0.000    0.000    0.000   11.538    0.000    4.000 
#
# Total GULP energy -870735.380114 kJ/mol
# GULP energy per Si atom -5581.637052 kJ/mol
# Density = 1.849073 g / cm^3
# Si number density = 18.532909 Si / 1000 Ang^3
#
#
#
# Elastic Constant Matrix: (Units=GPa)
#
#
# Indices 1 2 3 4 5 6 
#
# 1 74.5998 47.0223 2.1517 0.0000 0.0000 0.0000
# 2 47.0223 74.5998 2.1517 0.0000 0.0000 0.0000
# 3 2.1517 2.1517 60.5308 0.0000 0.0000 0.0000
# 4 0.0000 0.0000 0.0000 -40.6443 0.0000 0.0000
# 5 0.0000 0.0000 0.0000 0.0000 -40.6443 0.0000
# 6 0.0000 0.0000 0.0000 0.0000 0.0000 13.7888
#
#
#
# Elastic Compliance Matrix: (Units=1/GPa)
#
#
# Indices 1 2 3 4 5 6 
#
# 1 0.022247 -0.014014 -0.000293 0.000000 0.000000 0.000000
# 2 -0.014014 0.022247 -0.000293 0.000000 0.000000 0.000000
# 3 -0.000293 -0.000293 0.016541 0.000000 0.000000 0.000000
# 4 0.000000 0.000000 0.000000 -0.024604 0.000000 0.000000
# 5 0.000000 0.000000 0.000000 0.000000 -0.024604 0.000000
# 6 0.000000 0.000000 0.000000 0.000000 0.000000 0.072523
#
#
# Mechanical properties :
#
#
# Convention : Reuss Voigt Hill
#
# Bulk Modulus (GPa) = 31.41116 34.70911 33.06013
# Shear Modulus (GPa) = 40.26991 -2.93967 18.66512
#
# Velocity S-wave (km/s) = 4.66648 -1.26081 3.17698
# Velocity P-wave (km/s) = 6.78383 4.08038 5.59776
#
# Compressibility (1/GPa) = 0.03183582
#
# Stress axis : x y z
#
# Youngs Moduli (GPa) = 44.94992 44.94992 60.45466
#
# Poissons Ratio (x) = 0.62995 0.01769
# Poissons Ratio (y) = 0.62995 0.01769
# Poissons Ratio (z) = 0.01315 0.01315
#
# Static dielectric constant tensor:
#      x y z
#    x 1.632520 0.000000 0.000000 
#    y 0.000000 1.632520 0.000000 
#    z 0.000000 0.000000 1.657970 
# 
# From -- ./inp_files/7721.got.cif
#   From: 2010.05.17/outbox.cif.g08.bks.cpg/sg191_4_cif.got.tgz:7721.got - 2010.05.20 12:20:32.
