data_PCOD9588436
_publ_section_title
;
Structure prediction by ZEFSAII (Michael W. Deem and Ramdas Pophale) SiO2 
 PCOD9588436
Probable space group: P 6/M C C
;
_chemical_formula_sum "Si O2"
_cell_formula_units_Z 144
_cell_length_a 31.996459
_cell_length_b 31.996459
_cell_length_c 8.594771
_cell_angle_alpha 90.000000
_cell_angle_beta 90.000000
_cell_angle_gamma 120.000000
_cell_volume 7620.242251
_symmetry_space_group_name_H-M "P 6/M C C"
_symmetry_group_IT_number 192
_symmetry_cell_setting 'hexagonal'
loop_
_space_group_symop_operation_xyz
x,y,z
x-y,x,z
-y,x-y,z
-x,-y,z
-x+y,-x,z
y,-x+y,z
x-y,-y,1/2-z
-x,-x+y,1/2-z
y,x,1/2-z
-y,-x,1/2-z
-x+y,y,1/2-z
x,x-y,1/2-z
-x,-y,-z
-x+y,-x,-z
y,-x+y,-z
x,y,-z
x-y,x,-z
-y,x-y,-z
-x+y,y,1/2+z
x,x-y,1/2+z
-y,-x,1/2+z
y,x,1/2+z
x-y,-y,1/2+z
-x,-x+y,1/2+z
loop_
_atom_site_type_symbol
_atom_site_label
_atom_site_fract_x
_atom_site_fract_y
_atom_site_fract_z
Si Si1 0.051992 0.478879 0.186444
Si Si2 0.802256 0.854658 0.813388
Si Si3 0.664296 0.517880 0.813964
Si Si4 0.758439 0.148548 0.812280
Si Si5 0.426114 0.666699 0.186194
Si Si6 0.051910 0.757544 0.312955
O O1 0.059104 0.529552 0.250000
O O2 0.095469 0.472555 0.248080
O O3 0.000000 0.438479 0.250000
O O4 0.051373 0.479317 0.000000
O O5 0.841394 0.841394 0.750000
O O6 0.808582 0.904291 0.750000
O O7 0.750015 0.809807 0.763688
O O8 0.803728 0.855829 0.000000
O O9 0.715752 0.560743 0.757542
O O10 0.656866 0.467839 0.746659
O O11 0.662072 0.515485 0.000000
O O12 0.809167 0.190834 0.750000
O O13 0.751580 0.096779 0.764538
O O14 0.757454 0.150521 0.000000
O O15 0.375093 0.624908 0.250000
O O16 0.435733 0.717867 0.250000
O O17 0.425608 0.666885 0.000000
O O18 0.049992 0.756183 0.500000
O O19 0.000000 0.717733 0.250000
#
# Coordination Sequence:
#
# PCOD9588436 Si02
#       6
#    24  24  24  24  24  24
#     4  11  22  40  64  92 122 156 196 243 294 349
#     4  10  19  33  53  80 110 145 185 232 282 336
#     4  12  25  42  62  88 120 159 200 244 293 347
#     4  11  23  40  59  84 116 155 197 241 290 348
#     4  12  25  44  67  94 124 157 195 241 293 351
#     4   9  20  36  57  83 114 148 189 236 287 340
#
# _framework density 18.897037999999998
#
# number of rings (size 3 to 8) (size 9 to 14) (size 15 to 20)
#    0.000    1.167    0.000    7.667    0.000    2.667 
#    0.000    1.667    0.000    0.167    0.000    1.167 
#    0.000    0.000    0.000    0.000    0.000    0.000 
#
# Total GULP energy -805583.460405 kJ/mol
# GULP energy per Si atom -5594.329586 kJ/mol
# Density = 1.885403 g / cm^3
# Si number density = 18.897038 Si / 1000 Ang^3
#
#
#
# Elastic Constant Matrix: (Units=GPa)
#
#
# Indices 1 2 3 4 5 6 
#
# 1 82.1545 20.1003 35.4249 0.0000 0.0000 0.0000
# 2 20.1003 82.1545 35.4249 0.0000 0.0000 0.0000
# 3 35.4249 35.4249 142.8321 0.0000 0.0000 0.0000
# 4 0.0000 0.0000 0.0000 35.1521 0.0000 0.0000
# 5 0.0000 0.0000 0.0000 0.0000 35.1521 0.0000
# 6 0.0000 0.0000 0.0000 0.0000 0.0000 31.0271
#
#
#
# Elastic Compliance Matrix: (Units=1/GPa)
#
#
# Indices 1 2 3 4 5 6 
#
# 1 0.013962 -0.002153 -0.002929 0.000000 0.000000 0.000000
# 2 -0.002153 0.013962 -0.002929 0.000000 0.000000 0.000000
# 3 -0.002929 -0.002929 0.008454 0.000000 0.000000 0.000000
# 4 0.000000 0.000000 0.000000 0.028448 0.000000 0.000000
# 5 0.000000 0.000000 0.000000 0.000000 0.028448 0.000000
# 6 0.000000 0.000000 0.000000 0.000000 0.000000 0.032230
#
#
# Mechanical properties :
#
#
# Convention : Reuss Voigt Hill
#
# Bulk Modulus (GPa) = 49.12456 54.33791 51.73124
# Shear Modulus (GPa) = 33.71316 34.67898 34.19607
#
# Velocity S-wave (km/s) = 4.22838 4.28852 4.25855
# Velocity P-wave (km/s) = 7.06337 7.30335 7.18437
#
# Compressibility (1/GPa) = 0.02035641
#
# Stress axis : x y z
#
# Youngs Moduli (GPa) = 71.62370 71.62370 118.28713
#
# Poissons Ratio (x) = 0.15421 0.34644
# Poissons Ratio (y) = 0.15421 0.34644
# Poissons Ratio (z) = 0.20977 0.20977
#
# Static dielectric constant tensor:
#      x y z
#    x 1.634440 0.000000 0.000000 
#    y 0.000000 1.634440 0.000000 
#    z 0.000000 0.000000 1.633120 
# 
# From -- ./inp_files/1148.got.cif
#   From: 2010.05.17/outbox.cif.g08.bks.cpg/sg192_1_cif.got.tgz:1148.got - 2010.05.20 12:28:01.
