data_PCOD9588297
_publ_section_title
;
Structure prediction by ZEFSAII (Michael W. Deem and Ramdas Pophale) SiO2 
 PCOD9588297
Probable space group: P 6/M C C
;
_chemical_formula_sum "Si O2"
_cell_formula_units_Z 144
_cell_length_a 23.014986
_cell_length_b 23.014986
_cell_length_c 18.033190
_cell_angle_alpha 90.000000
_cell_angle_beta 90.000000
_cell_angle_gamma 120.000000
_cell_volume 8272.268463
_symmetry_space_group_name_H-M "P 6/M C C"
_symmetry_group_IT_number 192
_symmetry_cell_setting 'hexagonal'
loop_
_space_group_symop_operation_xyz
x,y,z
x-y,x,z
-y,x-y,z
-x,-y,z
-x+y,-x,z
y,-x+y,z
x-y,-y,1/2-z
-x,-x+y,1/2-z
y,x,1/2-z
-y,-x,1/2-z
-x+y,y,1/2-z
x,x-y,1/2-z
-x,-y,-z
-x+y,-x,-z
y,-x+y,-z
x,y,-z
x-y,x,-z
-y,x-y,-z
-x+y,y,1/2+z
x,x-y,1/2+z
-y,-x,1/2+z
y,x,1/2+z
x-y,-y,1/2+z
-x,-x+y,1/2+z
loop_
_atom_site_type_symbol
_atom_site_label
_atom_site_fract_x
_atom_site_fract_y
_atom_site_fract_z
Si Si1 0.721679 0.044618 0.313009
Si Si2 0.795302 0.167398 0.587723
Si Si3 0.117556 0.586070 0.674624
Si Si4 0.853219 0.500976 0.418510
Si Si5 0.010173 0.404115 0.084750
Si Si6 0.425522 0.272201 0.205493
O O1 0.780025 0.100234 0.366064
O O2 0.702983 0.089759 0.259873
O O3 0.731968 0.000000 0.250000
O O4 0.659260 0.999717 0.366875
O O5 0.808022 0.164305 0.500000
O O6 0.725177 0.168720 0.593297
O O7 0.848951 0.233656 0.631333
O O8 0.088580 0.544290 0.750000
O O9 0.161126 0.556558 0.638900
O O10 0.059609 0.584999 0.623073
O O11 0.161903 0.664893 0.689668
O O12 0.830033 0.471878 0.500000
O O13 0.934495 0.543987 0.417925
O O14 0.031230 0.402971 0.000000
O O15 0.430046 0.215023 0.250000
#
# Coordination Sequence:
#
# PCOD9588297 Si02
#       6
#    24  24  24  24  24  24
#     4  10  17  31  49  71  93 121 144 185 228 283
#     4   9  19  36  51  63  91 127 153 186 232 283
#     4  12  21  29  47  70  91 117 148 189 232 284
#     4   9  19  32  46  64  91 118 141 177 235 287
#     4  10  20  31  45  71 101 122 138 171 236 304
#     4  10  21  34  47  65  88 120 159 185 226 279
#
# _framework density 17.407558999999999
#
# number of rings (size 3 to 8) (size 9 to 14) (size 15 to 20)
#    0.000    2.000    1.667    5.500    0.000    4.667 
#    0.000    0.000    0.000    6.000    0.000    0.000 
#    0.000    0.000    0.000    0.000    0.000    0.000 
#
# Total GULP energy -801822.795521 kJ/mol
# GULP energy per Si atom -5568.213858 kJ/mol
# Density = 1.736794 g / cm^3
# Si number density = 17.407559 Si / 1000 Ang^3
#
#
#
# Elastic Constant Matrix: (Units=GPa)
#
#
# Indices 1 2 3 4 5 6 
#
# 1 37.5972 12.1032 26.2403 0.0000 0.0000 0.0000
# 2 12.1032 37.5972 26.2403 0.0000 0.0000 0.0000
# 3 26.2403 26.2403 145.1777 0.0000 0.0000 0.0000
# 4 0.0000 0.0000 0.0000 19.4315 0.0000 0.0000
# 5 0.0000 0.0000 0.0000 0.0000 19.4315 0.0000
# 6 0.0000 0.0000 0.0000 0.0000 0.0000 12.7470
#
#
#
# Elastic Compliance Matrix: (Units=1/GPa)
#
#
# Indices 1 2 3 4 5 6 
#
# 1 0.032046 -0.007179 -0.004495 0.000000 0.000000 0.000000
# 2 -0.007179 0.032046 -0.004495 0.000000 0.000000 0.000000
# 3 -0.004495 -0.004495 0.008513 0.000000 0.000000 0.000000
# 4 0.000000 0.000000 0.000000 0.051463 0.000000 0.000000
# 5 0.000000 0.000000 0.000000 0.000000 0.051463 0.000000
# 6 0.000000 0.000000 0.000000 0.000000 0.000000 0.078450
#
#
# Mechanical properties :
#
#
# Convention : Reuss Voigt Hill
#
# Bulk Modulus (GPa) = 24.83372 38.83775 31.83573
# Shear Modulus (GPa) = 16.68116 20.70786 18.69451
#
# Velocity S-wave (km/s) = 3.09895 3.45279 3.28064
# Velocity P-wave (km/s) = 5.20593 6.18506 5.71650
#
# Compressibility (1/GPa) = 0.04026783
#
# Stress axis : x y z
#
# Youngs Moduli (GPa) = 31.20538 31.20538 117.46943
#
# Poissons Ratio (x) = 0.22403 0.52797
# Poissons Ratio (y) = 0.22403 0.52797
# Poissons Ratio (z) = 0.14025 0.14025
#
# Static dielectric constant tensor:
#      x y z
#    x 1.607410 0.000000 0.000000 
#    y 0.000000 1.607410 0.000000 
#    z 0.000000 0.000000 1.691930 
# 
# From -- ./inp_files/4366.got.cif
#   From: 2010.05.17/outbox.cif.g08.bks.cpg/sg192_3_cif.got.tgz:4366.got - 2010.05.20 12:28:01.
