data_PCOD9588090
_publ_section_title
;
Structure prediction by ZEFSAII (Michael W. Deem and Ramdas Pophale) SiO2 
 PCOD9588090
Probable space group: P 6/M M M
;
_chemical_formula_sum "Si O2"
_cell_formula_units_Z 138
_cell_length_a 30.092373
_cell_length_b 30.092373
_cell_length_c 8.607385
_cell_angle_alpha 90.000000
_cell_angle_beta 90.000000
_cell_angle_gamma 120.000000
_cell_volume 6750.170355
_symmetry_space_group_name_H-M "P 6/M M M"
_symmetry_group_IT_number 191
_symmetry_cell_setting 'hexagonal'
loop_
_space_group_symop_operation_xyz
x,y,z
x-y,x,z
-y,x-y,z
-x,-y,z
-x+y,-x,z
y,-x+y,z
x-y,-y,-z
-x,-x+y,-z
y,x,-z
-y,-x,-z
-x+y,y,-z
x,x-y,-z
-x,-y,-z
-x+y,-x,-z
y,-x+y,-z
x,y,-z
x-y,x,-z
-y,x-y,-z
-x+y,y,z
x,x-y,z
-y,-x,z
y,x,z
x-y,-y,z
-x,-x+y,z
loop_
_atom_site_type_symbol
_atom_site_label
_atom_site_fract_x
_atom_site_fract_y
_atom_site_fract_z
Si Si1 0.262329 0.000000 0.000000
Si Si2 0.228242 0.665231 0.500000
Si Si3 0.436886 0.061265 0.179606
Si Si4 0.862601 0.588923 0.677470
Si Si5 0.483670 0.690659 0.826198
Si Si6 0.214532 0.059091 0.500000
Si Si7 0.801843 0.704314 0.224341
Si Si8 0.937263 0.468632 0.320398
O O1 0.284067 0.046867 0.129666
O O2 0.277527 0.722474 0.500000
O O3 0.244731 0.622366 0.500000
O O4 0.199283 0.659661 0.335188
O O5 0.413987 0.086098 0.294070
O O6 0.494575 0.078307 0.231020
O O7 0.404417 0.000000 0.189340
O O8 0.434592 0.075010 0.000000
O O9 0.844349 0.575807 0.500000
O O10 0.823377 0.544687 0.792629
O O11 0.875889 0.646009 0.715111
O O12 0.465806 0.732903 0.832291
O O13 0.473230 0.666376 0.000000
O O14 0.189031 0.094516 0.500000
O O15 0.252805 0.074981 0.356219
O O16 0.174217 0.000000 0.500000
O O17 0.854661 0.709321 0.157265
O O18 0.920117 0.460059 0.500000
O O19 0.000000 0.500000 0.322236
#
# Coordination Sequence:
#
# PCOD9588090 Si02
#       8
#     6  12  24  24  24  12  24  12
#     4  12  26  42  64  94 140 171 221 278 320 384
#     4  10  21  41  69  99 129 163 209 268 339 414
#     4  10  22  37  56  80 114 155 204 267 336 398
#     4  12  24  39  61  90 123 167 223 271 324 388
#     4  10  22  41  63  89 126 167 209 261 321 394
#     4  10  20  41  65  92 128 171 221 272 328 390
#     4  11  25  42  65  95 132 177 221 273 331 388
#     4   9  17  35  57  77 103 145 201 259 325 393
#
# _framework density 20.443928
#
# number of rings (size 3 to 8) (size 9 to 14) (size 15 to 20)
#    0.000    1.478    2.609    2.174    3.652    3.130 
#    1.565    0.000    0.000    1.130    0.000    0.000 
#    0.000    0.000    0.000    5.913    0.000    0.000 
#
# Total GULP energy -768249.632133 kJ/mol
# GULP energy per Si atom -5567.026320 kJ/mol
# Density = 2.039740 g / cm^3
# Si number density = 20.443928 Si / 1000 Ang^3
#
#
#
# Elastic Constant Matrix: (Units=GPa)
#
#
# Indices 1 2 3 4 5 6 
#
# 1 69.1047 23.2884 24.0572 0.0000 0.0000 0.0000
# 2 23.2884 69.1047 24.0572 0.0000 0.0000 0.0000
# 3 24.0572 24.0572 139.8134 0.0000 0.0000 0.0000
# 4 0.0000 0.0000 0.0000 16.2131 0.0000 0.0000
# 5 0.0000 0.0000 0.0000 0.0000 16.2131 0.0000
# 6 0.0000 0.0000 0.0000 0.0000 0.0000 22.9082
#
#
#
# Elastic Compliance Matrix: (Units=1/GPa)
#
#
# Indices 1 2 3 4 5 6 
#
# 1 0.016857 -0.004969 -0.002046 0.000000 0.000000 0.000000
# 2 -0.004969 0.016857 -0.002046 0.000000 0.000000 0.000000
# 3 -0.002046 -0.002046 0.007856 0.000000 0.000000 0.000000
# 4 0.000000 0.000000 0.000000 0.061678 0.000000 0.000000
# 5 0.000000 0.000000 0.000000 0.000000 0.061678 0.000000
# 6 0.000000 0.000000 0.000000 0.000000 0.000000 0.043653
#
#
# Mechanical properties :
#
#
# Convention : Reuss Voigt Hill
#
# Bulk Modulus (GPa) = 42.64203 46.75869 44.70036
# Shear Modulus (GPa) = 21.32034 24.84156 23.08095
#
# Velocity S-wave (km/s) = 3.23285 3.48962 3.36369
# Velocity P-wave (km/s) = 5.90241 6.25763 6.08261
#
# Compressibility (1/GPa) = 0.02345104
#
# Stress axis : x y z
#
# Youngs Moduli (GPa) = 59.32103 59.32103 127.28543
#
# Poissons Ratio (x) = 0.29476 0.26038
# Poissons Ratio (y) = 0.29476 0.26038
# Poissons Ratio (z) = 0.12135 0.12135
#
# Static dielectric constant tensor:
#      x y z
#    x 1.731780 0.000000 0.000000 
#    y 0.000000 1.731780 0.000000 
#    z 0.000000 0.000000 1.781600 
# 
# From -- ./inp_files/2060.got.cif
#   From: 2010.05.17/outbox.cif.g08.bks.cpg/sg191_2_cif.got.tgz:2060.got - 2010.05.20 12:20:32.
