data_PCOD9588047
_publ_section_title
;
Structure prediction by ZEFSAII (Michael W. Deem and Ramdas Pophale) SiO2 
 PCOD9588047
Probable space group: P 6/M M M
;
_chemical_formula_sum "Si O2"
_cell_formula_units_Z 60
_cell_length_a 21.032198
_cell_length_b 21.032198
_cell_length_c 7.531093
_cell_angle_alpha 90.000000
_cell_angle_beta 90.000000
_cell_angle_gamma 120.000000
_cell_volume 2885.080700
_symmetry_space_group_name_H-M "P 6/M M M"
_symmetry_group_IT_number 191
_symmetry_cell_setting 'hexagonal'
loop_
_space_group_symop_operation_xyz
x,y,z
x-y,x,z
-y,x-y,z
-x,-y,z
-x+y,-x,z
y,-x+y,z
x-y,-y,-z
-x,-x+y,-z
y,x,-z
-y,-x,-z
-x+y,y,-z
x,x-y,-z
-x,-y,-z
-x+y,-x,-z
y,-x+y,-z
x,y,-z
x-y,x,-z
-y,x-y,-z
-x+y,y,z
x,x-y,z
-y,-x,z
y,x,z
x-y,-y,z
-x,-x+y,z
loop_
_atom_site_type_symbol
_atom_site_label
_atom_site_fract_x
_atom_site_fract_y
_atom_site_fract_z
Si Si1 0.290229 0.290229 0.287495
Si Si2 0.086069 0.543035 0.217883
Si Si3 0.707534 0.148065 0.789918
Si Si4 0.000000 0.854462 0.717217
O O1 0.289513 0.289513 0.500000
O O2 0.287926 0.362298 0.231037
O O3 0.218013 0.218013 0.222509
O O4 0.127467 0.627294 0.279622
O O5 0.000000 0.500000 0.271201
O O6 0.085350 0.542675 0.000000
O O7 0.779599 0.220402 0.717408
O O8 0.705841 0.160246 0.000000
O O9 0.927300 0.854600 0.774321
O O10 0.000000 0.854094 0.500000
#
# Coordination Sequence:
#
# PCOD9588047 Si02
#       4
#    12  12  24  12
#     4  11  21  33  52  78 109 138 175 222 266 315
#     4   9  16  32  56  78 106 138 174 220 270 326
#     4  10  20  35  56  80 107 140 178 222 273 328
#     4   9  17  29  45  66  94 128 163 202 250 302
#
# _framework density 20.796643
#
# number of rings (size 3 to 8) (size 9 to 14) (size 15 to 20)
#    0.000    2.200    2.000    2.000    0.000    3.200 
#    1.200    2.000    0.000    0.000    0.000    0.000 
#    0.000    9.600    0.000    0.000    0.000    0.000 
#
# Total GULP energy -335107.047694 kJ/mol
# GULP energy per Si atom -5585.117462 kJ/mol
# Density = 2.074931 g / cm^3
# Si number density = 20.796643 Si / 1000 Ang^3
#
#
#
# Elastic Constant Matrix: (Units=GPa)
#
#
# Indices 1 2 3 4 5 6 
#
# 1 354.2309 23.2683 -0.0377 0.0000 0.0000 0.0000
# 2 23.2683 354.2309 -0.0377 0.0000 0.0000 0.0000
# 3 -0.0377 -0.0377 52.5126 0.0000 0.0000 0.0000
# 4 0.0000 0.0000 0.0000 6.9824 0.0000 0.0000
# 5 0.0000 0.0000 0.0000 0.0000 6.9824 0.0000
# 6 0.0000 0.0000 0.0000 0.0000 0.0000 165.4813
#
#
#
# Elastic Compliance Matrix: (Units=1/GPa)
#
#
# Indices 1 2 3 4 5 6 
#
# 1 0.002835 -0.000186 0.000002 0.000000 0.000000 0.000000
# 2 -0.000186 0.002835 0.000002 0.000000 0.000000 0.000000
# 3 0.000002 0.000002 0.019043 0.000000 0.000000 0.000000
# 4 0.000000 0.000000 0.000000 0.143216 0.000000 0.000000
# 5 0.000000 0.000000 0.000000 0.000000 0.143216 0.000000
# 6 0.000000 0.000000 0.000000 0.000000 0.000000 0.006043
#
#
# Mechanical properties :
#
#
# Convention : Reuss Voigt Hill
#
# Bulk Modulus (GPa) = 41.06998 89.70669 65.38833
# Shear Modulus (GPa) = 15.35294 85.07466 50.21380
#
# Velocity S-wave (km/s) = 2.72001 6.40287 4.91910
# Velocity P-wave (km/s) = 5.44572 9.89399 7.98583
#
# Compressibility (1/GPa) = 0.02434869
#
# Stress axis : x y z
#
# Youngs Moduli (GPa) = 352.70243 352.70243 52.51259
#
# Poissons Ratio (x) = 0.06569 -0.00010
# Poissons Ratio (y) = 0.06569 -0.00010
# Poissons Ratio (z) = -0.00067 -0.00067
#
# Static dielectric constant tensor:
#      x y z
#    x 1.713630 0.000000 0.000000 
#    y 0.000000 1.713630 0.000000 
#    z 0.000000 0.000000 1.786010 
# 
# From -- ./inp_files/591.got.cif
#   From: 2010.05.17/outbox.cif.g08.bks.cpg/sg191_1_cif.got.tgz:591.got - 2010.05.20 12:20:32.
