data_PCOD9588962
_publ_section_title
;
Structure prediction by ZEFSAII (Michael W. Deem and Ramdas Pophale) SiO2 
 PCOD9588962
Probable space group: P 63/M C M
;
_chemical_formula_sum "Si O2"
_cell_formula_units_Z 120
_cell_length_a 27.137295
_cell_length_b 27.137295
_cell_length_c 11.283190
_cell_angle_alpha 90.000000
_cell_angle_beta 90.000000
_cell_angle_gamma 120.000000
_cell_volume 7196.074395
_symmetry_space_group_name_H-M "P 63/M C M"
_symmetry_group_IT_number 193
_symmetry_cell_setting 'hexagonal'
loop_
_space_group_symop_operation_xyz
x,y,z
x-y,x,1/2+z
-y,x-y,z
-x,-y,1/2+z
-x+y,-x,z
y,-x+y,1/2+z
x-y,-y,1/2-z
-x,-x+y,1/2-z
y,x,1/2-z
-y,-x,-z
-x+y,y,-z
x,x-y,-z
-x,-y,-z
-x+y,-x,1/2-z
y,-x+y,-z
x,y,1/2-z
x-y,x,-z
-y,x-y,1/2-z
-x+y,y,1/2+z
x,x-y,1/2+z
-y,-x,1/2+z
y,x,z
x-y,-y,z
-x,-x+y,z
loop_
_atom_site_type_symbol
_atom_site_label
_atom_site_fract_x
_atom_site_fract_y
_atom_site_fract_z
Si Si1 0.510422 0.262923 0.250000
Si Si2 0.401383 0.068278 0.250000
Si Si3 0.066794 0.440656 0.750000
Si Si4 0.627194 0.833245 0.750000
Si Si5 0.185977 0.814024 0.000000
Si Si6 0.436221 0.781902 0.940729
Si Si7 0.161063 0.602908 0.250000
Si Si8 0.322010 0.877936 0.502350
O O1 0.441759 0.217089 0.250000
O O2 0.540844 0.252074 0.362851
O O3 0.527434 0.328253 0.250000
O O4 0.370150 0.106013 0.250000
O O5 0.434948 0.088312 0.377171
O O6 0.361725 0.000000 0.250000
O O7 0.096548 0.508866 0.750000
O O8 0.087023 0.427035 0.624872
O O9 0.000000 0.409706 0.750000
O O10 0.655509 0.827252 0.629975
O O11 0.155063 0.745992 0.993665
O O12 0.423489 0.821848 0.856872
O O13 0.373826 0.747651 0.000000
O O14 0.491060 0.827743 0.011703
#
# Coordination Sequence:
#
# PCOD9588962 Si02
#       8
#    12  12  12  12  12  24  12  24
#     4  11  21  39  58  75  95 130 159 199 247 293
#     4  10  19  35  56  76  97 127 160 195 232 286
#     4  12  25  39  57  82 108 134 161 202 254 299
#     4  10  19  31  54  76  96 116 158 187 230 278
#     4  10  18  32  58  80  88 128 154 198 232 276
#     4  11  22  37  58  73  97 124 163 202 244 289
#     4  11  24  40  57  71 106 125 155 207 245 300
#     4  11  21  38  58  78 103 129 166 200 241 295
#
# _framework density 16.675758999999999
#
# number of rings (size 3 to 8) (size 9 to 14) (size 15 to 20)
#    0.000    1.200    6.000    3.000    0.000    0.800 
#    4.800    4.000    2.200    0.000    0.000    0.000 
#    0.000    0.000    0.000    0.000    0.000    0.000 
#
# Total GULP energy -668394.889286 kJ/mol
# GULP energy per Si atom -5569.957411 kJ/mol
# Density = 1.663780 g / cm^3
# Si number density = 16.675759 Si / 1000 Ang^3
#
#
#
# Elastic Constant Matrix: (Units=GPa)
#
#
# Indices 1 2 3 4 5 6 
#
# 1 53.7358 38.5336 32.6504 0.0000 0.0000 0.0000
# 2 38.5336 53.7358 32.6504 0.0000 0.0000 0.0000
# 3 32.6504 32.6504 154.3521 0.0000 0.0000 0.0000
# 4 0.0000 0.0000 0.0000 25.2189 0.0000 0.0000
# 5 0.0000 0.0000 0.0000 0.0000 25.2189 0.0000
# 6 0.0000 0.0000 0.0000 0.0000 0.0000 7.6011
#
#
#
# Elastic Compliance Matrix: (Units=1/GPa)
#
#
# Indices 1 2 3 4 5 6 
#
# 1 0.039263 -0.026517 -0.002696 0.000000 0.000000 0.000000
# 2 -0.026517 0.039263 -0.002696 0.000000 0.000000 0.000000
# 3 -0.002696 -0.002696 0.007619 0.000000 0.000000 0.000000
# 4 0.000000 0.000000 0.000000 0.039653 0.000000 0.000000
# 5 0.000000 0.000000 0.000000 0.000000 0.039653 0.000000
# 6 0.000000 0.000000 0.000000 0.000000 0.000000 0.131560
#
#
# Mechanical properties :
#
#
# Convention : Reuss Voigt Hill
#
# Bulk Modulus (GPa) = 44.78966 52.16582 48.47774
# Shear Modulus (GPa) = 13.57694 22.14038 17.85866
#
# Velocity S-wave (km/s) = 2.85647 3.64771 3.27607
# Velocity P-wave (km/s) = 6.14790 7.00653 6.59121
#
# Compressibility (1/GPa) = 0.02232658
#
# Stress axis : x y z
#
# Youngs Moduli (GPa) = 25.46931 25.46931 131.24477
#
# Poissons Ratio (x) = 0.67537 0.35386
# Poissons Ratio (y) = 0.67537 0.35386
# Poissons Ratio (z) = 0.06867 0.06867
#
# Static dielectric constant tensor:
#      x y z
#    x 1.542530 0.000000 0.000000 
#    y 0.000000 1.542530 0.000000 
#    z 0.000000 0.000000 1.773030 
# 
# From -- ./inp_files/2544.got.cif
#   From: 2010.05.17/outbox.cif.g08.bks.cpg/sg193_2_cif.got.tgz:2544.got - 2010.05.20 12:33:02.
