data_PCOD9588431
_publ_section_title
;
Structure prediction by ZEFSAII (Michael W. Deem and Ramdas Pophale) SiO2 
 PCOD9588431
Probable space group: P 6/M C C
;
_chemical_formula_sum "Si O2"
_cell_formula_units_Z 144
_cell_length_a 32.797992
_cell_length_b 32.797992
_cell_length_c 8.591394
_cell_angle_alpha 90.000000
_cell_angle_beta 90.000000
_cell_angle_gamma 120.000000
_cell_volume 8003.662724
_symmetry_space_group_name_H-M "P 6/M C C"
_symmetry_group_IT_number 192
_symmetry_cell_setting 'hexagonal'
loop_
_space_group_symop_operation_xyz
x,y,z
x-y,x,z
-y,x-y,z
-x,-y,z
-x+y,-x,z
y,-x+y,z
x-y,-y,1/2-z
-x,-x+y,1/2-z
y,x,1/2-z
-y,-x,1/2-z
-x+y,y,1/2-z
x,x-y,1/2-z
-x,-y,-z
-x+y,-x,-z
y,-x+y,-z
x,y,-z
x-y,x,-z
-y,x-y,-z
-x+y,y,1/2+z
x,x-y,1/2+z
-y,-x,1/2+z
y,x,1/2+z
x-y,-y,1/2+z
-x,-x+y,1/2+z
loop_
_atom_site_type_symbol
_atom_site_label
_atom_site_fract_x
_atom_site_fract_y
_atom_site_fract_z
Si Si1 0.950758 0.521333 0.686515
Si Si2 0.424820 0.758108 0.686007
Si Si3 0.192304 0.142027 0.813354
Si Si4 0.398215 0.152828 0.312301
Si Si5 0.486572 0.339068 0.686653
Si Si6 0.101794 0.295688 0.812782
O O1 0.947556 0.473778 0.750000
O O2 0.953130 0.521568 0.500000
O O3 0.903107 0.520430 0.733688
O O4 0.000000 0.563691 0.750000
O O5 0.375934 0.751868 0.750000
O O6 0.432311 0.716156 0.750000
O O7 0.423241 0.756004 0.500000
O O8 0.467367 0.808601 0.740022
O O9 0.153807 0.153807 0.750000
O O10 0.186914 0.093457 0.750000
O O11 0.244532 0.184287 0.763068
O O12 0.190683 0.140039 0.000000
O O13 0.400711 0.200356 0.250000
O O14 0.401894 0.155030 0.500000
O O15 0.440809 0.149250 0.240203
O O16 0.346456 0.109346 0.266751
O O17 0.491381 0.339818 0.500000
O O18 0.148237 0.296473 0.750000
O O19 0.102625 0.295489 0.000000
#
# Coordination Sequence:
#
# PCOD9588431 Si02
#       6
#    24  24  24  24  24  24
#     4  10  21  37  59  81 104 132 168 213 263 318
#     4  12  25  42  62  85 114 150 190 236 285 338
#     4  10  19  33  53  79 109 143 183 229 276 327
#     4  10  19  33  53  77 107 144 181 223 270 321
#     4  11  23  38  56  83 113 145 184 226 272 328
#     4   8  16  30  49  72  99 132 172 212 256 306
#
# _framework density 17.991762999999999
#
# number of rings (size 3 to 8) (size 9 to 14) (size 15 to 20)
#    0.000    1.833    0.000    5.167    0.000    5.333 
#    0.000    0.833    0.000    4.167    0.000    1.167 
#    0.000    0.000    0.000    0.000    0.000    0.000 
#
# Total GULP energy -803376.061527 kJ/mol
# GULP energy per Si atom -5579.000427 kJ/mol
# Density = 1.795081 g / cm^3
# Si number density = 17.991763 Si / 1000 Ang^3
#
#
#
# Elastic Constant Matrix: (Units=GPa)
#
#
# Indices 1 2 3 4 5 6 
#
# 1 127.2416 69.6704 42.9296 0.0000 0.0000 0.0000
# 2 69.6704 127.2416 42.9296 0.0000 0.0000 0.0000
# 3 42.9296 42.9296 76.0662 0.0000 0.0000 0.0000
# 4 0.0000 0.0000 0.0000 20.9968 0.0000 0.0000
# 5 0.0000 0.0000 0.0000 0.0000 20.9968 0.0000
# 6 0.0000 0.0000 0.0000 0.0000 0.0000 28.7856
#
#
#
# Elastic Compliance Matrix: (Units=1/GPa)
#
#
# Indices 1 2 3 4 5 6 
#
# 1 0.012053 -0.005317 -0.003802 0.000000 0.000000 0.000000
# 2 -0.005317 0.012053 -0.003802 0.000000 0.000000 0.000000
# 3 -0.003802 -0.003802 0.017437 0.000000 0.000000 0.000000
# 4 0.000000 0.000000 0.000000 0.047626 0.000000 0.000000
# 5 0.000000 0.000000 0.000000 0.000000 0.047626 0.000000
# 6 0.000000 0.000000 0.000000 0.000000 0.000000 0.034740
#
#
# Mechanical properties :
#
#
# Convention : Reuss Voigt Hill
#
# Bulk Modulus (GPa) = 63.68184 71.28983 67.48584
# Shear Modulus (GPa) = 24.67794 25.82383 25.25089
#
# Velocity S-wave (km/s) = 3.70756 3.79266 3.75035
# Velocity P-wave (km/s) = 7.33484 7.67390 7.50628
#
# Compressibility (1/GPa) = 0.01570306
#
# Stress axis : x y z
#
# Youngs Moduli (GPa) = 82.96756 82.96756 57.34773
#
# Poissons Ratio (x) = 0.44113 0.21801
# Poissons Ratio (y) = 0.44113 0.21801
# Poissons Ratio (z) = 0.31541 0.31541
#
# Static dielectric constant tensor:
#      x y z
#    x 1.616480 0.000000 0.000000 
#    y 0.000000 1.616480 0.000000 
#    z 0.000000 0.000000 1.619380 
# 
# From -- ./inp_files/1193.got.cif
#   From: 2010.05.17/outbox.cif.g08.bks.cpg/sg192_1_cif.got.tgz:1193.got - 2010.05.20 12:28:01.
