data_PCOD9588303
_publ_section_title
;
Structure prediction by ZEFSAII (Michael W. Deem and Ramdas Pophale) SiO2 
 PCOD9588303
Probable space group: P 6/M C C
;
_chemical_formula_sum "Si O2"
_cell_formula_units_Z 164
_cell_length_a 22.379870
_cell_length_b 22.379870
_cell_length_c 24.389869
_cell_angle_alpha 90.000000
_cell_angle_beta 90.000000
_cell_angle_gamma 120.000000
_cell_volume 10579.258238
_symmetry_space_group_name_H-M "P 6/M C C"
_symmetry_group_IT_number 192
_symmetry_cell_setting 'hexagonal'
loop_
_space_group_symop_operation_xyz
x,y,z
x-y,x,z
-y,x-y,z
-x,-y,z
-x+y,-x,z
y,-x+y,z
x-y,-y,1/2-z
-x,-x+y,1/2-z
y,x,1/2-z
-y,-x,1/2-z
-x+y,y,1/2-z
x,x-y,1/2-z
-x,-y,-z
-x+y,-x,-z
y,-x+y,-z
x,y,-z
x-y,x,-z
-y,x-y,-z
-x+y,y,1/2+z
x,x-y,1/2+z
-y,-x,1/2+z
y,x,1/2+z
x-y,-y,1/2+z
-x,-x+y,1/2+z
loop_
_atom_site_type_symbol
_atom_site_label
_atom_site_fract_x
_atom_site_fract_y
_atom_site_fract_z
Si Si1 0.333334 0.666667 0.066923
Si Si2 0.089220 0.929311 0.184638
Si Si3 0.043855 0.579286 0.566620
Si Si4 0.529240 0.201098 0.433261
Si Si5 0.188417 0.397775 0.565918
Si Si6 0.896381 0.059231 0.000000
Si Si7 0.076730 0.261524 0.100906
Si Si8 0.667851 0.970733 0.933772
O O1 0.345231 0.740609 0.084715
O O2 0.333334 0.666668 0.000000
O O3 0.083430 0.916571 0.250000
O O4 0.140735 0.909247 0.155852
O O5 0.009339 0.887663 0.167785
O O6 0.044471 0.577452 0.500000
O O7 0.123415 0.618467 0.584954
O O8 0.000000 0.500000 0.585418
O O9 0.008669 0.624940 0.580525
O O10 0.530035 0.200081 0.500000
O O11 0.472126 0.221765 0.417098
O O12 0.192437 0.394525 0.500000
O O13 0.200559 0.338312 0.589628
O O14 0.110343 0.377795 0.578644
O O15 0.863955 0.075764 0.052713
O O16 0.978586 0.106385 0.000000
O O17 0.006441 0.264710 0.096267
O O18 0.681631 0.978571 0.000000
#
# Coordination Sequence:
#
# PCOD9588303 Si02
#       8
#     8  24  24  24  24  12  24  24
#     4   9  18  27  39  54  81 117 160 194 226 261
#     4  10  21  36  52  67  85 115 155 199 243 289
#     4   9  17  27  39  56  81 114 158 199 228 264
#     4   9  17  28  39  56  80 115 157 197 227 268
#     4  10  18  28  42  60  85 116 152 187 226 275
#     4  12  23  32  44  62  89 118 152 194 242 286
#     4  12  20  32  46  66  89 119 153 198 235 281
#     4  10  18  28  42  61  86 120 157 193 235 280
#
# _framework density 15.502032
#
# number of rings (size 3 to 8) (size 9 to 14) (size 15 to 20)
#    0.000    1.902    2.927    2.854    2.049    0.585 
#    0.000    1.463    0.000    0.000    0.000    0.000 
#    0.000    0.000    0.000   19.756    0.000    1.463 
#
# Total GULP energy -914301.474004 kJ/mol
# GULP energy per Si atom -5575.008988 kJ/mol
# Density = 1.546675 g / cm^3
# Si number density = 15.502032 Si / 1000 Ang^3
#
#
#
# Elastic Constant Matrix: (Units=GPa)
#
#
# Indices 1 2 3 4 5 6 
#
# 1 87.2146 37.4509 9.1752 0.0000 0.0000 -0.0001
# 2 37.4509 87.2152 9.1753 0.0000 0.0000 -0.0003
# 3 9.1752 9.1753 9.6476 0.0000 0.0000 0.0000
# 4 0.0000 0.0000 0.0000 9.3150 0.0000 0.0000
# 5 0.0000 0.0000 0.0000 0.0000 9.3148 0.0000
# 6 -0.0001 -0.0003 0.0000 0.0000 0.0000 24.8818
#
#
#
# Elastic Compliance Matrix: (Units=1/GPa)
#
#
# Indices 1 2 3 4 5 6 
#
# 1 0.014711 -0.005384 -0.008870 0.000000 0.000000 0.000000
# 2 -0.005384 0.014711 -0.008870 0.000000 0.000000 0.000000
# 3 -0.008870 -0.008870 0.120524 0.000000 0.000000 0.000000
# 4 0.000000 0.000000 0.000000 0.107354 0.000000 0.000000
# 5 0.000000 0.000000 0.000000 0.000000 0.107356 0.000000
# 6 0.000000 0.000000 0.000000 0.000000 0.000000 0.040190
#
#
# Mechanical properties :
#
#
# Convention : Reuss Voigt Hill
#
# Bulk Modulus (GPa) = 9.64349 32.85335 21.24842
# Shear Modulus (GPa) = 10.29524 17.25406 13.77465
#
# Velocity S-wave (km/s) = 2.57985 3.33981 2.98412
# Velocity P-wave (km/s) = 3.88696 6.00928 5.06063
#
# Compressibility (1/GPa) = 0.10369692
#
# Stress axis : x y z
#
# Youngs Moduli (GPa) = 67.97615 67.97648 8.29708
#
# Poissons Ratio (x) = 0.36598 0.07360
# Poissons Ratio (y) = 0.36597 0.07360
# Poissons Ratio (z) = 0.60297 0.60299
#
# Static dielectric constant tensor:
#      x y z
#    x 1.530310 0.000000 0.000000 
#    y 0.000000 1.530310 0.000000 
#    z 0.000000 0.000000 1.496020 
# 
# From -- ./inp_files/6655.got.cif
#   From: 2010.05.17/outbox.cif.g08.bks.cpg/sg192_4_cif.got.tgz:6655.got - 2010.05.20 12:28:01.
