data_PCOD9588426
_publ_section_title
;
Structure prediction by ZEFSAII (Michael W. Deem and Ramdas Pophale) SiO2 
 PCOD9588426
Probable space group: P 6/M C C
;
_chemical_formula_sum "Si O2"
_cell_formula_units_Z 120
_cell_length_a 24.518346
_cell_length_b 24.518346
_cell_length_c 14.612251
_cell_angle_alpha 90.000000
_cell_angle_beta 90.000000
_cell_angle_gamma 120.000000
_cell_volume 7607.292134
_symmetry_space_group_name_H-M "P 6/M C C"
_symmetry_group_IT_number 192
_symmetry_cell_setting 'hexagonal'
loop_
_space_group_symop_operation_xyz
x,y,z
x-y,x,z
-y,x-y,z
-x,-y,z
-x+y,-x,z
y,-x+y,z
x-y,-y,1/2-z
-x,-x+y,1/2-z
y,x,1/2-z
-y,-x,1/2-z
-x+y,y,1/2-z
x,x-y,1/2-z
-x,-y,-z
-x+y,-x,-z
y,-x+y,-z
x,y,-z
x-y,x,-z
-y,x-y,-z
-x+y,y,1/2+z
x,x-y,1/2+z
-y,-x,1/2+z
y,x,1/2+z
x-y,-y,1/2+z
-x,-x+y,1/2+z
loop_
_atom_site_type_symbol
_atom_site_label
_atom_site_fract_x
_atom_site_fract_y
_atom_site_fract_z
Si Si1 0.103660 0.338038 0.750000
Si Si2 0.461883 0.538117 0.896487
Si Si3 0.747482 0.747482 0.896115
Si Si4 0.447646 0.076560 0.750000
Si Si5 0.126020 0.126020 0.138995
O O1 0.168820 0.337640 0.750000
O O2 0.060950 0.301187 0.661964
O O3 0.109926 0.406321 0.750000
O O4 0.060950 0.301187 0.838036
O O5 0.500000 0.500000 0.899380
O O6 0.400079 0.492926 0.837787
O O7 0.507074 0.599922 0.837787
O O8 0.449976 0.550024 0.000000
O O9 0.812924 0.812924 0.896943
O O10 0.726463 0.726463 0.000000
O O11 0.400394 0.000000 0.750000
O O12 0.124713 0.062357 0.111875
O O13 0.129751 0.129751 0.250000
#
# Coordination Sequence:
#
# PCOD9588426 Si02
#       5
#    24  24  24  24  24
#     4  11  22  37  53  73 104 140 177 221 260 306
#     4   8  15  27  50  77 103 130 155 189 238 291
#     4  11  23  37  52  68  93 133 177 216 268 333
#     4   9  16  31  48  74 104 131 167 201 236 291
#     4  10  19  33  51  68  84 106 149 215 283 336
#
# _framework density 15.774338
#
# number of rings (size 3 to 8) (size 9 to 14) (size 15 to 20)
#    0.000    2.200    4.000    2.600    0.000    5.600 
#    0.000    0.000    0.000    1.200    0.000    0.000 
#    8.000    0.000    0.000    0.000    0.000    0.000 
#
# Total GULP energy -669297.594622 kJ/mol
# GULP energy per Si atom -5577.479955 kJ/mol
# Density = 1.573843 g / cm^3
# Si number density = 15.774338 Si / 1000 Ang^3
#
#
#
# Elastic Constant Matrix: (Units=GPa)
#
#
# Indices 1 2 3 4 5 6 
#
# 1 84.7150 65.0017 49.1176 0.0000 0.0000 0.0000
# 2 65.0017 84.7150 49.1176 0.0000 0.0000 0.0000
# 3 49.1176 49.1176 147.4423 0.0000 0.0000 0.0000
# 4 0.0000 0.0000 0.0000 -17.8811 0.0000 0.0000
# 5 0.0000 0.0000 0.0000 0.0000 -17.8811 0.0000
# 6 0.0000 0.0000 0.0000 0.0000 0.0000 9.8567
#
#
#
# Elastic Compliance Matrix: (Units=1/GPa)
#
#
# Indices 1 2 3 4 5 6 
#
# 1 0.029637 -0.021090 -0.002847 0.000000 0.000000 0.000000
# 2 -0.021090 0.029637 -0.002847 0.000000 0.000000 0.000000
# 3 -0.002847 -0.002847 0.008679 0.000000 0.000000 0.000000
# 4 0.000000 0.000000 0.000000 -0.055925 0.000000 0.000000
# 5 0.000000 0.000000 0.000000 0.000000 -0.055925 0.000000
# 6 0.000000 0.000000 0.000000 0.000000 0.000000 0.101454
#
#
# Mechanical properties :
#
#
# Convention : Reuss Voigt Hill
#
# Bulk Modulus (GPa) = 69.51773 71.48291 70.50032
# Shear Modulus (GPa) = 43.13199 5.06123 24.09661
#
# Velocity S-wave (km/s) = 5.23474 1.79318 3.91267
# Velocity P-wave (km/s) = 8.98346 7.04994 8.07478
#
# Compressibility (1/GPa) = 0.01438482
#
# Stress axis : x y z
#
# Youngs Moduli (GPa) = 33.74117 33.74117 115.21418
#
# Poissons Ratio (x) = 0.71159 0.32807
# Poissons Ratio (y) = 0.71159 0.32807
# Poissons Ratio (z) = 0.09608 0.09608
#
# Static dielectric constant tensor:
#      x y z
#    x 1.506610 0.000000 0.000000 
#    y 0.000000 1.506610 0.000000 
#    z 0.000000 0.000000 1.586740 
# 
# From -- ./inp_files/3135.got.cif
#   From: 2010.05.17/outbox.cif.g08.bks.cpg/sg192_2_cif.got.tgz:3135.got - 2010.05.20 12:28:01.
