data_PCOD9588667
_publ_section_title
;
Structure prediction by ZEFSAII (Michael W. Deem and Ramdas Pophale) SiO2 
 PCOD9588667
Probable space group: P 6/M C C
;
_chemical_formula_sum "Si O2"
_cell_formula_units_Z 72
_cell_length_a 15.287338
_cell_length_b 15.287338
_cell_length_c 14.633111
_cell_angle_alpha 90.000000
_cell_angle_beta 90.000000
_cell_angle_gamma 120.000000
_cell_volume 2961.631594
_symmetry_space_group_name_H-M "P 6/M C C"
_symmetry_group_IT_number 192
_symmetry_cell_setting 'hexagonal'
loop_
_space_group_symop_operation_xyz
x,y,z
x-y,x,z
-y,x-y,z
-x,-y,z
-x+y,-x,z
y,-x+y,z
x-y,-y,1/2-z
-x,-x+y,1/2-z
y,x,1/2-z
-y,-x,1/2-z
-x+y,y,1/2-z
x,x-y,1/2-z
-x,-y,-z
-x+y,-x,-z
y,-x+y,-z
x,y,-z
x-y,x,-z
-y,x-y,-z
-x+y,y,1/2+z
x,x-y,1/2+z
-y,-x,1/2+z
y,x,1/2+z
x-y,-y,1/2+z
-x,-x+y,1/2+z
loop_
_atom_site_type_symbol
_atom_site_label
_atom_site_fract_x
_atom_site_fract_y
_atom_site_fract_z
Si Si1 0.905906 0.138666 0.500000
Si Si2 0.507929 0.900536 0.106698
Si Si3 0.499394 0.249697 0.250000
Si Si4 0.726665 0.051961 0.838060
O O1 0.891510 0.185715 0.590792
O O2 0.022163 0.176269 0.500000
O O3 0.459660 0.797882 0.169564
O O4 0.500000 0.000000 0.135597
O O5 0.629988 0.959492 0.113758
O O6 0.476015 0.877202 0.000000
O O7 0.431124 0.287905 0.198239
O O8 0.744471 0.000000 0.750000
#
# Coordination Sequence:
#
# PCOD9588667 Si02
#       4
#    12  24  12  24
#     4  12  23  36  55  82 122 160 204 256 324 398
#     4  10  21  39  65 100 136 177 233 297 359 445
#     4  10  22  36  64  96 133 174 218 282 361 422
#     4  10  21  37  60  89 122 169 216 278 338 413
#
# _framework density 24.310922000000001
#
# number of rings (size 3 to 8) (size 9 to 14) (size 15 to 20)
#    0.000    1.667    1.667    4.167    2.333    6.000 
#    0.000    0.000    0.000    8.333    0.000    0.000 
#    0.000    0.000    0.000    0.000    0.000    0.000 
#
# Total GULP energy -401064.649737 kJ/mol
# GULP energy per Si atom -5570.342357 kJ/mol
# Density = 2.425559 g / cm^3
# Si number density = 24.310922 Si / 1000 Ang^3
#
#
#
# Elastic Constant Matrix: (Units=GPa)
#
#
# Indices 1 2 3 4 5 6 
#
# 1 114.5950 4.5806 39.4058 0.0000 0.0000 0.0000
# 2 4.5806 114.5950 39.4058 0.0000 0.0000 0.0000
# 3 39.4058 39.4058 141.6209 0.0000 0.0000 0.0000
# 4 0.0000 0.0000 0.0000 27.9254 0.0000 0.0000
# 5 0.0000 0.0000 0.0000 0.0000 27.9254 0.0000
# 6 0.0000 0.0000 0.0000 0.0000 0.0000 55.0072
#
#
#
# Elastic Compliance Matrix: (Units=1/GPa)
#
#
# Indices 1 2 3 4 5 6 
#
# 1 0.009686 0.000597 -0.002861 0.000000 0.000000 0.000000
# 2 0.000597 0.009686 -0.002861 0.000000 0.000000 0.000000
# 3 -0.002861 -0.002861 0.008653 0.000000 0.000000 0.000000
# 4 0.000000 0.000000 0.000000 0.035810 0.000000 0.000000
# 5 0.000000 0.000000 0.000000 0.000000 0.035810 0.000000
# 6 0.000000 0.000000 0.000000 0.000000 0.000000 0.018179
#
#
# Mechanical properties :
#
#
# Convention : Reuss Voigt Hill
#
# Bulk Modulus (GPa) = 56.26001 59.73282 57.99642
# Shear Modulus (GPa) = 37.31297 41.33284 39.32290
#
# Velocity S-wave (km/s) = 3.92193 4.12779 4.02618
# Velocity P-wave (km/s) = 6.61066 6.88055 6.74695
#
# Compressibility (1/GPa) = 0.01777461
#
# Stress axis : x y z
#
# Youngs Moduli (GPa) = 103.23712 103.23712 115.56163
#
# Poissons Ratio (x) = -0.06160 0.33065
# Poissons Ratio (y) = -0.06160 0.33065
# Poissons Ratio (z) = 0.29539 0.29539
#
# Static dielectric constant tensor:
#      x y z
#    x 1.972260 0.000000 0.000000 
#    y 0.000000 1.972260 0.000000 
#    z 0.000000 0.000000 1.978300 
# 
# From -- ./inp_files/2495.got.cif
#   From: 2010.05.17/outbox.cif.g08.bks.cpg/sg192_2_cif.got.tgz:2495.got - 2010.05.20 12:28:01.
