data_PCOD9588181
_publ_section_title
;
Structure prediction by ZEFSAII (Michael W. Deem and Ramdas Pophale) SiO2 
 PCOD9588181
Probable space group: P 6/M M M
;
_chemical_formula_sum "Si O2"
_cell_formula_units_Z 144
_cell_length_a 31.213717
_cell_length_b 31.213717
_cell_length_c 9.132561
_cell_angle_alpha 90.000000
_cell_angle_beta 90.000000
_cell_angle_gamma 120.000000
_cell_volume 7705.737145
_symmetry_space_group_name_H-M "P 6/M M M"
_symmetry_group_IT_number 191
_symmetry_cell_setting 'hexagonal'
loop_
_space_group_symop_operation_xyz
x,y,z
x-y,x,z
-y,x-y,z
-x,-y,z
-x+y,-x,z
y,-x+y,z
x-y,-y,-z
-x,-x+y,-z
y,x,-z
-y,-x,-z
-x+y,y,-z
x,x-y,-z
-x,-y,-z
-x+y,-x,-z
y,-x+y,-z
x,y,-z
x-y,x,-z
-y,x-y,-z
-x+y,y,z
x,x-y,z
-y,-x,z
y,x,z
x-y,-y,z
-x,-x+y,z
loop_
_atom_site_type_symbol
_atom_site_label
_atom_site_fract_x
_atom_site_fract_y
_atom_site_fract_z
Si Si1 0.242333 0.301295 0.333555
Si Si2 0.184815 0.712965 0.163261
Si Si3 0.666111 0.231468 0.665940
Si Si4 0.907499 0.589091 0.672285
Si Si5 0.059610 0.482321 0.171963
Si Si6 0.057682 0.844829 0.176398
O O1 0.229649 0.308968 0.500000
O O2 0.268739 0.268739 0.342487
O O3 0.284937 0.354377 0.274483
O O4 0.193272 0.267258 0.240645
O O5 0.236053 0.763948 0.161725
O O6 0.197439 0.671325 0.213896
O O7 0.149626 0.714473 0.285619
O O8 0.163216 0.704110 0.000000
O O9 0.666231 0.213230 0.500000
O O10 0.617257 0.234514 0.684391
O O11 0.714089 0.285912 0.676728
O O12 0.917391 0.590694 0.500000
O O13 0.923325 0.552219 0.746825
O O14 0.076860 0.538430 0.226191
O O15 0.000000 0.452923 0.181463
O O16 0.072661 0.486066 0.000000
O O17 0.099201 0.900800 0.219404
O O18 0.000000 0.824697 0.220799
O O19 0.057735 0.842260 0.000000
#
# Coordination Sequence:
#
# PCOD9588181 Si02
#       6
#    24  24  24  24  24  24
#     4   9  19  35  53  76 106 136 170 215 263 310
#     4  10  22  38  52  68  94 128 164 202 245 295
#     4   9  17  31  52  75  96 118 148 190 242 300
#     4  11  22  35  54  77 101 133 172 214 263 319
#     4   9  19  36  56  78 105 136 170 211 260 313
#     4   9  18  33  54  81 113 149 188 228 269 314
#
# _framework density 18.687376
#
# number of rings (size 3 to 8) (size 9 to 14) (size 15 to 20)
#    0.000    2.500    0.000    2.167    0.000    6.333 
#    0.000    5.833    0.000    1.167    0.000    1.167 
#    0.000    0.000    0.000    4.167    0.000    4.333 
#
# Total GULP energy -802025.213588 kJ/mol
# GULP energy per Si atom -5569.619539 kJ/mol
# Density = 1.864484 g / cm^3
# Si number density = 18.687376 Si / 1000 Ang^3
#
#
#
# Elastic Constant Matrix: (Units=GPa)
#
#
# Indices 1 2 3 4 5 6 
#
# 1 83.6702 39.6003 26.3817 0.0000 0.0000 0.0000
# 2 39.6003 83.6702 26.3817 0.0000 0.0000 0.0000
# 3 26.3817 26.3817 22.9693 0.0000 0.0000 0.0000
# 4 0.0000 0.0000 0.0000 22.6784 0.0000 0.0000
# 5 0.0000 0.0000 0.0000 0.0000 22.6784 0.0000
# 6 0.0000 0.0000 0.0000 0.0000 0.0000 22.0350
#
#
#
# Elastic Compliance Matrix: (Units=1/GPa)
#
#
# Indices 1 2 3 4 5 6 
#
# 1 0.019324 -0.003367 -0.018328 0.000000 0.000000 0.000000
# 2 -0.003367 0.019324 -0.018328 0.000000 0.000000 0.000000
# 3 -0.018328 -0.018328 0.085637 0.000000 0.000000 0.000000
# 4 0.000000 0.000000 0.000000 0.044095 0.000000 0.000000
# 5 0.000000 0.000000 0.000000 0.000000 0.044095 0.000000
# 6 0.000000 0.000000 0.000000 0.000000 0.000000 0.045382
#
#
# Mechanical properties :
#
#
# Convention : Reuss Voigt Hill
#
# Bulk Modulus (GPa) = 22.60359 41.67079 32.13719
# Shear Modulus (GPa) = 14.17839 20.00810 17.09324
#
# Velocity S-wave (km/s) = 2.75747 3.27567 3.02767
# Velocity P-wave (km/s) = 4.71806 6.05425 5.42743
#
# Compressibility (1/GPa) = 0.04424077
#
# Stress axis : x y z
#
# Youngs Moduli (GPa) = 51.74882 51.74882 11.67714
#
# Poissons Ratio (x) = 0.17424 0.21401
# Poissons Ratio (y) = 0.17424 0.21401
# Poissons Ratio (z) = 0.94844 0.94844
#
# Static dielectric constant tensor:
#      x y z
#    x 1.661940 0.000000 0.000000 
#    y 0.000000 1.661940 0.000000 
#    z 0.000000 0.000000 1.668670 
# 
# From -- ./inp_files/1942.got.cif
#   From: 2010.05.17/outbox.cif.g08.bks.cpg/sg191_1_cif.got.tgz:1942.got - 2010.05.20 12:20:32.
