data_PCOD9588427
_publ_section_title
;
Structure prediction by ZEFSAII (Michael W. Deem and Ramdas Pophale) SiO2 
 PCOD9588427
Probable space group: P 6/M C C
;
_chemical_formula_sum "Si O2"
_cell_formula_units_Z 168
_cell_length_a 29.214370
_cell_length_b 29.214370
_cell_length_c 14.826090
_cell_angle_alpha 90.000000
_cell_angle_beta 90.000000
_cell_angle_gamma 120.000000
_cell_volume 10958.479876
_symmetry_space_group_name_H-M "P 6/M C C"
_symmetry_group_IT_number 192
_symmetry_cell_setting 'hexagonal'
loop_
_space_group_symop_operation_xyz
x,y,z
x-y,x,z
-y,x-y,z
-x,-y,z
-x+y,-x,z
y,-x+y,z
x-y,-y,1/2-z
-x,-x+y,1/2-z
y,x,1/2-z
-y,-x,1/2-z
-x+y,y,1/2-z
x,x-y,1/2-z
-x,-y,-z
-x+y,-x,-z
y,-x+y,-z
x,y,-z
x-y,x,-z
-y,x-y,-z
-x+y,y,1/2+z
x,x-y,1/2+z
-y,-x,1/2+z
y,x,1/2+z
x-y,-y,1/2+z
-x,-x+y,1/2+z
loop_
_atom_site_type_symbol
_atom_site_label
_atom_site_fract_x
_atom_site_fract_y
_atom_site_fract_z
Si Si1 0.000000 0.249663 0.105914
Si Si2 0.893353 0.545197 0.895168
Si Si3 0.348156 0.454803 0.104831
Si Si4 0.580262 0.844348 0.750000
Si Si5 0.708309 0.799275 0.250000
Si Si6 0.358917 0.358918 0.395319
Si Si7 0.468915 0.937830 0.358081
O O1 0.947366 0.211140 0.163471
O O2 1.000000 0.304810 0.107305
O O3 0.052634 0.263774 0.163471
O O4 0.000000 0.235279 0.000000
O O5 0.850586 0.549603 0.835275
O O6 0.905265 0.497395 0.887506
O O7 0.947373 0.594053 0.856620
O O8 0.886024 0.553390 0.000000
O O9 0.300984 0.450397 0.164724
O O10 0.353323 0.405948 0.143380
O O11 0.407870 0.502605 0.112493
O O12 0.332635 0.446610 0.000000
O O13 0.576502 0.788251 0.750000
O O14 0.644383 0.886352 0.750001
O O15 0.715143 0.857572 0.250000
O O16 0.373826 0.373826 0.500000
O O17 0.470083 0.940165 0.250000
O O18 0.500000 0.000000 0.389851
#
# Coordination Sequence:
#
# PCOD9588427 Si02
#       7
#    24  24  24  24  24  24  24
#     4  10  19  33  51  70  97 138 177 214 255 296
#     4  11  21  34  51  72 103 137 167 204 251 305
#     4  11  21  34  51  72 103 137 167 204 251 305
#     4  11  23  36  49  68  97 133 173 216 255 293
#     4  10  21  33  49  73  99 131 176 221 255 290
#     4   9  17  28  46  70  98 136 172 197 237 298
#     4  11  21  31  51  80 109 139 164 195 249 316
#
# _framework density 15.330594
#
# number of rings (size 3 to 8) (size 9 to 14) (size 15 to 20)
#    0.000    1.571    5.714    0.429    0.000    2.286 
#    0.000    2.857    0.000    0.000    0.000    0.000 
#    5.714    0.000    1.714   13.714    0.000   29.714 
#
# Total GULP energy -935583.885618 kJ/mol
# GULP energy per Si atom -5568.951700 kJ/mol
# Density = 1.529570 g / cm^3
# Si number density = 15.330594 Si / 1000 Ang^3
#
#
#
# Elastic Constant Matrix: (Units=GPa)
#
#
# Indices 1 2 3 4 5 6 
#
# 1 86.4273 42.2480 42.6717 0.0000 0.0000 0.0000
# 2 42.2480 86.4273 42.6717 0.0000 0.0000 0.0000
# 3 42.6717 42.6717 128.6963 0.0000 0.0000 0.0000
# 4 0.0000 0.0000 0.0000 7.5385 0.0000 0.0000
# 5 0.0000 0.0000 0.0000 0.0000 7.5385 0.0000
# 6 0.0000 0.0000 0.0000 0.0000 0.0000 22.0897
#
#
#
# Elastic Compliance Matrix: (Units=1/GPa)
#
#
# Indices 1 2 3 4 5 6 
#
# 1 0.016299 -0.006336 -0.003303 0.000000 0.000000 0.000000
# 2 -0.006336 0.016299 -0.003303 0.000000 0.000000 0.000000
# 3 -0.003303 -0.003303 0.009961 0.000000 0.000000 0.000000
# 4 0.000000 0.000000 0.000000 0.132653 0.000000 0.000000
# 5 0.000000 0.000000 0.000000 0.000000 0.132653 0.000000
# 6 0.000000 0.000000 0.000000 0.000000 0.000000 0.045270
#
#
# Mechanical properties :
#
#
# Convention : Reuss Voigt Hill
#
# Bulk Modulus (GPa) = 59.97877 61.85932 60.91904
# Shear Modulus (GPa) = 13.00128 19.03062 16.01595
#
# Velocity S-wave (km/s) = 2.91531 3.52710 3.23570
# Velocity P-wave (km/s) = 7.10919 7.55150 7.33368
#
# Compressibility (1/GPa) = 0.01667257
#
# Stress axis : x y z
#
# Youngs Moduli (GPa) = 61.35467 61.35467 100.39454
#
# Poissons Ratio (x) = 0.38876 0.33162
# Poissons Ratio (y) = 0.38876 0.33162
# Poissons Ratio (z) = 0.20267 0.20267
#
# Static dielectric constant tensor:
#      x y z
#    x 1.520960 0.000000 0.000000 
#    y 0.000000 1.520960 0.000000 
#    z 0.000000 0.000000 1.551860 
# 
# From -- ./inp_files/3508.got.cif
#   From: 2010.05.17/outbox.cif.g08.bks.cpg/sg192_2_cif.got.tgz:3508.got - 2010.05.20 12:28:01.
