data_PCOD9588725
_publ_section_title
;
Structure prediction by ZEFSAII (Michael W. Deem and Ramdas Pophale) SiO2 
 PCOD9588725
Probable space group: P 6/M C C
;
_chemical_formula_sum "Si O2"
_cell_formula_units_Z 96
_cell_length_a 14.282173
_cell_length_b 14.282173
_cell_length_c 28.990287
_cell_angle_alpha 90.000000
_cell_angle_beta 90.000000
_cell_angle_gamma 120.000000
_cell_volume 5121.199864
_symmetry_space_group_name_H-M "P 6/M C C"
_symmetry_group_IT_number 192
_symmetry_cell_setting 'hexagonal'
loop_
_space_group_symop_operation_xyz
x,y,z
x-y,x,z
-y,x-y,z
-x,-y,z
-x+y,-x,z
y,-x+y,z
x-y,-y,1/2-z
-x,-x+y,1/2-z
y,x,1/2-z
-y,-x,1/2-z
-x+y,y,1/2-z
x,x-y,1/2-z
-x,-y,-z
-x+y,-x,-z
y,-x+y,-z
x,y,-z
x-y,x,-z
-y,x-y,-z
-x+y,y,1/2+z
x,x-y,1/2+z
-y,-x,1/2+z
y,x,1/2+z
x-y,-y,1/2+z
-x,-x+y,1/2+z
loop_
_atom_site_type_symbol
_atom_site_label
_atom_site_fract_x
_atom_site_fract_y
_atom_site_fract_z
Si Si1 0.438492 0.066876 0.552848
Si Si2 0.878678 0.545859 0.232742
Si Si3 0.220676 0.018365 0.944088
Si Si4 0.458036 0.786659 0.362518
O O1 0.439597 0.103473 0.500000
O O2 0.314306 0.987547 0.566542
O O3 0.493767 0.165328 0.587989
O O4 0.500000 0.000000 0.554336
O O5 0.783437 0.566874 0.250000
O O6 0.855303 0.427652 0.250000
O O7 0.864657 0.533535 0.177490
O O8 0.000000 0.629944 0.250000
O O9 0.120370 0.906331 0.927077
O O10 0.214662 0.021721 0.000000
O O11 0.336745 0.769207 0.357560
#
# Coordination Sequence:
#
# PCOD9588725 Si02
#       4
#    24  24  24  24
#     4  10  23  37  54  82 123 166 211 255 310 375
#     4  11  21  39  66  93 126 155 195 259 317 378
#     4   9  18  34  56  79 107 148 202 261 311 359
#     4  10  22  37  60  85 123 158 202 252 299 378
#
# _framework density 18.745607
#
# number of rings (size 3 to 8) (size 9 to 14) (size 15 to 20)
#    0.500    1.500    2.500    0.500    7.000    2.000 
#    0.000    0.000    0.000    0.250    0.000    0.000 
#    0.000    0.000    0.000    0.000    0.000    0.000 
#
# Total GULP energy -535215.092618 kJ/mol
# GULP energy per Si atom -5575.157215 kJ/mol
# Density = 1.870294 g / cm^3
# Si number density = 18.745607 Si / 1000 Ang^3
#
#
#
# Elastic Constant Matrix: (Units=GPa)
#
#
# Indices 1 2 3 4 5 6 
#
# 1 94.0033 43.4506 18.4415 0.0000 0.0000 0.0000
# 2 43.4506 94.0033 18.4415 0.0000 0.0000 0.0000
# 3 18.4415 18.4415 87.0838 0.0000 0.0000 0.0000
# 4 0.0000 0.0000 0.0000 10.8622 0.0000 0.0000
# 5 0.0000 0.0000 0.0000 0.0000 10.8622 0.0000
# 6 0.0000 0.0000 0.0000 0.0000 0.0000 25.2764
#
#
#
# Elastic Compliance Matrix: (Units=1/GPa)
#
#
# Indices 1 2 3 4 5 6 
#
# 1 0.013747 -0.006034 -0.001633 0.000000 0.000000 0.000000
# 2 -0.006034 0.013747 -0.001633 0.000000 0.000000 0.000000
# 3 -0.001633 -0.001633 0.012175 0.000000 0.000000 0.000000
# 4 0.000000 0.000000 0.000000 0.092063 0.000000 0.000000
# 5 0.000000 0.000000 0.000000 0.000000 0.092063 0.000000
# 6 0.000000 0.000000 0.000000 0.000000 0.000000 0.039563
#
#
# Mechanical properties :
#
#
# Convention : Reuss Voigt Hill
#
# Bulk Modulus (GPa) = 47.46510 48.41753 47.94132
# Shear Modulus (GPa) = 17.30209 22.38392 19.84301
#
# Velocity S-wave (km/s) = 3.04138 3.45931 3.25705
# Velocity P-wave (km/s) = 6.14076 6.46843 6.30672
#
# Compressibility (1/GPa) = 0.02106811
#
# Stress axis : x y z
#
# Youngs Moduli (GPa) = 72.74104 72.74104 82.13538
#
# Poissons Ratio (x) = 0.43891 0.13417
# Poissons Ratio (y) = 0.43891 0.13417
# Poissons Ratio (z) = 0.11882 0.11882
#
# Static dielectric constant tensor:
#      x y z
#    x 1.653420 0.000000 0.000000 
#    y 0.000000 1.653420 0.000000 
#    z 0.000000 0.000000 1.658450 
# 
# From -- ./inp_files/6354.got.cif
#   From: 2010.05.17/outbox.cif.g08.bks.cpg/sg192_4_cif.got.tgz:6354.got - 2010.05.20 12:28:01.
