data_PCOD9588939
_publ_section_title
;
Structure prediction by ZEFSAII (Michael W. Deem and Ramdas Pophale) SiO2 
 PCOD9588939
Probable space group: P 63/M C M
;
_chemical_formula_sum "Si O2"
_cell_formula_units_Z 168
_cell_length_a 17.614420
_cell_length_b 17.614420
_cell_length_c 30.686900
_cell_angle_alpha 90.000000
_cell_angle_beta 90.000000
_cell_angle_gamma 120.000000
_cell_volume 8245.563579
_symmetry_space_group_name_H-M "P 63/M C M"
_symmetry_group_IT_number 193
_symmetry_cell_setting 'hexagonal'
loop_
_space_group_symop_operation_xyz
x,y,z
x-y,x,1/2+z
-y,x-y,z
-x,-y,1/2+z
-x+y,-x,z
y,-x+y,1/2+z
x-y,-y,1/2-z
-x,-x+y,1/2-z
y,x,1/2-z
-y,-x,-z
-x+y,y,-z
x,x-y,-z
-x,-y,-z
-x+y,-x,1/2-z
y,-x+y,-z
x,y,1/2-z
x-y,x,-z
-y,x-y,1/2-z
-x+y,y,1/2+z
x,x-y,1/2+z
-y,-x,1/2+z
y,x,z
x-y,-y,z
-x,-x+y,z
loop_
_atom_site_type_symbol
_atom_site_label
_atom_site_fract_x
_atom_site_fract_y
_atom_site_fract_z
Si Si1 0.098824 0.202368 0.417211
Si Si2 0.715261 0.100559 0.203672
Si Si3 0.444161 0.100223 0.201369
Si Si4 0.791612 0.179907 0.950593
Si Si5 0.105183 0.446348 0.888706
Si Si6 0.618035 0.511974 0.392848
Si Si7 0.834434 0.096252 0.817952
O O1 0.167135 0.167135 0.421282
O O2 0.116457 0.283479 0.447801
O O3 0.102309 0.239857 0.368293
O O4 0.000000 0.123915 0.423882
O O5 0.713658 0.141749 0.250000
O O6 0.698584 0.138810 0.159665
O O7 0.807760 0.101488 0.200889
O O8 0.639834 0.000000 0.204668
O O9 0.475278 0.136945 0.250000
O O10 0.495479 0.140284 0.156869
O O11 0.350897 0.093991 0.191636
O O12 0.423573 0.000000 0.202918
O O13 0.857905 0.263181 0.922438
O O14 0.698846 0.140810 0.925847
O O15 0.792095 0.207906 0.000000
O O16 0.128062 0.542445 0.903808
O O17 0.000000 0.388407 0.887313
O O18 0.573464 0.573464 0.391679
O O19 0.815464 0.000000 0.802398
#
# Coordination Sequence:
#
# PCOD9588939 Si02
#       7
#    24  24  24  24  24  24  24
#     4  11  22  38  61  90 127 170 218 271 325 382
#     4  10  19  32  54  86 123 162 204 250 304 368
#     4   9  16  28  52  87 120 150 191 244 298 357
#     4  12  25  42  65  91 120 162 212 264 322 388
#     4  10  22  41  64  90 124 160 198 252 312 375
#     4  10  21  40  64  91 123 158 200 252 312 377
#     4  10  18  30  53  83 120 167 212 254 296 352
#
# _framework density 20.374593000000001
#
# number of rings (size 3 to 8) (size 9 to 14) (size 15 to 20)
#    0.000    1.714    2.857    1.857    0.000    4.286 
#    0.857    4.286    0.000    1.143    0.000    0.000 
#    0.000    0.000    0.000    0.000    0.000    0.000 
#
# Total GULP energy -936048.266355 kJ/mol
# GULP energy per Si atom -5571.715871 kJ/mol
# Density = 2.032822 g / cm^3
# Si number density = 20.374593 Si / 1000 Ang^3
#
#
#
# Elastic Constant Matrix: (Units=GPa)
#
#
# Indices 1 2 3 4 5 6 
#
# 1 57.1300 18.1385 19.1496 0.0000 0.0000 0.0000
# 2 18.1385 57.1300 19.1496 0.0000 0.0000 0.0000
# 3 19.1496 19.1496 110.2553 0.0000 0.0000 0.0000
# 4 0.0000 0.0000 0.0000 -1.9685 0.0000 0.0000
# 5 0.0000 0.0000 0.0000 0.0000 -1.9685 0.0000
# 6 0.0000 0.0000 0.0000 0.0000 0.0000 19.4957
#
#
#
# Elastic Compliance Matrix: (Units=1/GPa)
#
#
# Indices 1 2 3 4 5 6 
#
# 1 0.020110 -0.005536 -0.002531 0.000000 0.000000 0.000000
# 2 -0.005536 0.020110 -0.002531 0.000000 0.000000 0.000000
# 3 -0.002531 -0.002531 0.009949 0.000000 0.000000 0.000000
# 4 0.000000 0.000000 0.000000 -0.507989 0.000000 0.000000
# 5 0.000000 0.000000 0.000000 0.000000 -0.507989 0.000000
# 6 0.000000 0.000000 0.000000 0.000000 0.000000 0.051293
#
#
# Mechanical properties :
#
#
# Convention : Reuss Voigt Hill
#
# Bulk Modulus (GPa) = 34.51643 37.48785 36.00214
# Shear Modulus (GPa) = -5.65828 14.31690 4.32931
#
# Velocity S-wave (km/s) = -1.66828 2.65369 1.45927
# Velocity P-wave (km/s) = 3.64236 5.27529 4.53296
#
# Compressibility (1/GPa) = 0.02897171
#
# Stress axis : x y z
#
# Youngs Moduli (GPa) = 49.72600 49.72600 100.51139
#
# Poissons Ratio (x) = 0.27531 0.25442
# Poissons Ratio (y) = 0.27531 0.25442
# Poissons Ratio (z) = 0.12587 0.12587
#
# Static dielectric constant tensor:
#      x y z
#    x 1.749080 0.000000 0.000000 
#    y 0.000000 1.749080 0.000000 
#    z 0.000000 0.000000 1.785400 
# 
# From -- ./inp_files/9332.got.cif
#   From: 2010.05.17/outbox.cif.g08.bks.cpg/sg193_5_cif.got.tgz:9332.got - 2010.05.20 12:33:02.
