data_PCOD9588913
_publ_section_title
;
Structure prediction by ZEFSAII (Michael W. Deem and Ramdas Pophale) SiO2 
 PCOD9588913
Probable space group: P 63/M C M
;
_chemical_formula_sum "Si O2"
_cell_formula_units_Z 80
_cell_length_a 18.315845
_cell_length_b 18.315845
_cell_length_c 15.531931
_cell_angle_alpha 90.000000
_cell_angle_beta 90.000000
_cell_angle_gamma 120.000000
_cell_volume 4512.425070
_symmetry_space_group_name_H-M "P 63/M C M"
_symmetry_group_IT_number 193
_symmetry_cell_setting 'hexagonal'
loop_
_space_group_symop_operation_xyz
x,y,z
x-y,x,1/2+z
-y,x-y,z
-x,-y,1/2+z
-x+y,-x,z
y,-x+y,1/2+z
x-y,-y,1/2-z
-x,-x+y,1/2-z
y,x,1/2-z
-y,-x,-z
-x+y,y,-z
x,x-y,-z
-x,-y,-z
-x+y,-x,1/2-z
y,-x+y,-z
x,y,1/2-z
x-y,x,-z
-y,x-y,1/2-z
-x+y,y,1/2+z
x,x-y,1/2+z
-y,-x,1/2+z
y,x,z
x-y,-y,z
-x,-x+y,z
loop_
_atom_site_type_symbol
_atom_site_label
_atom_site_fract_x
_atom_site_fract_y
_atom_site_fract_z
Si Si1 0.100422 0.363804 0.491864
Si Si2 0.666668 0.333335 0.855411
Si Si3 0.683349 0.498018 0.346938
Si Si4 0.902011 0.407013 0.590499
O O1 0.163595 0.327190 0.500000
O O2 0.129855 0.421972 0.406146
O O3 0.118969 0.431495 0.568780
O O4 0.000000 0.299518 0.490269
O O5 0.666667 0.333334 0.750000
O O6 0.723330 0.429734 0.884780
O O7 0.716093 0.522250 0.250000
O O8 0.581797 0.437661 0.344564
O O9 0.892898 0.446449 0.500000
O O10 0.000000 0.456044 0.613706
#
# Coordination Sequence:
#
# PCOD9588913 Si02
#       4
#    24   8  24  24
#     4  10  20  34  51  69  92 124 160 198 244 296
#     4   9  18  27  37  62 100 132 157 191 232 264
#     4  10  18  29  47  71  99 132 169 203 228 258
#     4   8  15  27  42  63  91 121 153 188 227 270
#
# _framework density 17.728825000000001
#
# number of rings (size 3 to 8) (size 9 to 14) (size 15 to 20)
#    0.000    2.700    0.000    4.500    0.000    2.400 
#    0.000    4.500    0.000    3.000    0.000    0.000 
#    0.000    0.000    0.000    0.000    0.000    0.300 
#
# Total GULP energy -445419.385304 kJ/mol
# GULP energy per Si atom -5567.742316 kJ/mol
# Density = 1.768847 g / cm^3
# Si number density = 17.728825 Si / 1000 Ang^3
#
#
#
# Elastic Constant Matrix: (Units=GPa)
#
#
# Indices 1 2 3 4 5 6 
#
# 1 104.1778 44.0278 19.3473 0.0000 0.0001 -0.0001
# 2 44.0278 104.1787 19.3473 -0.0001 0.0000 0.0001
# 3 19.3473 19.3473 36.6003 0.0000 0.0000 0.0000
# 4 0.0000 -0.0001 0.0000 8.5004 0.0000 0.0001
# 5 0.0001 0.0000 0.0000 0.0000 8.5000 0.0000
# 6 -0.0001 0.0001 0.0000 0.0001 0.0000 30.0755
#
#
#
# Elastic Compliance Matrix: (Units=1/GPa)
#
#
# Indices 1 2 3 4 5 6 
#
# 1 0.012226 -0.004399 -0.004138 0.000000 0.000000 0.000000
# 2 -0.004399 0.012226 -0.004138 0.000000 0.000000 0.000000
# 3 -0.004138 -0.004138 0.031697 0.000000 0.000000 0.000000
# 4 0.000000 0.000000 0.000000 0.117642 0.000000 0.000000
# 5 0.000000 0.000000 0.000000 0.000000 0.117647 0.000000
# 6 0.000000 0.000000 0.000000 0.000000 0.000000 0.033250
#
#
# Mechanical properties :
#
#
# Convention : Reuss Voigt Hill
#
# Bulk Modulus (GPa) = 32.46655 45.60015 39.03335
# Shear Modulus (GPa) = 13.87719 20.23080 17.05399
#
# Velocity S-wave (km/s) = 2.80080 3.38172 3.10487
# Velocity P-wave (km/s) = 5.36767 6.40506 5.90917
#
# Compressibility (1/GPa) = 0.03080093
#
# Stress axis : x y z
#
# Youngs Moduli (GPa) = 81.79034 81.79105 31.54901
#
# Poissons Ratio (x) = 0.35977 0.13054
# Poissons Ratio (y) = 0.35977 0.13054
# Poissons Ratio (z) = 0.33843 0.33843
#
# Static dielectric constant tensor:
#      x y z
#    x 1.654380 0.000000 0.000000 
#    y 0.000000 1.654370 0.000000 
#    z 0.000000 0.000000 1.642660 
# 
# From -- ./inp_files/3477.got.cif
#   From: 2010.05.17/outbox.cif.g08.bks.cpg/sg193_2_cif.got.tgz:3477.got - 2010.05.20 12:33:02.
