data_PCOD9588497
_publ_section_title
;
Structure prediction by ZEFSAII (Michael W. Deem and Ramdas Pophale) SiO2 
 PCOD9588497
Probable space group: P 6/M C C
;
_chemical_formula_sum "Si O2"
_cell_formula_units_Z 144
_cell_length_a 30.067094
_cell_length_b 30.067094
_cell_length_c 9.169954
_cell_angle_alpha 90.000000
_cell_angle_beta 90.000000
_cell_angle_gamma 120.000000
_cell_volume 7179.276823
_symmetry_space_group_name_H-M "P 6/M C C"
_symmetry_group_IT_number 192
_symmetry_cell_setting 'hexagonal'
loop_
_space_group_symop_operation_xyz
x,y,z
x-y,x,z
-y,x-y,z
-x,-y,z
-x+y,-x,z
y,-x+y,z
x-y,-y,1/2-z
-x,-x+y,1/2-z
y,x,1/2-z
-y,-x,1/2-z
-x+y,y,1/2-z
x,x-y,1/2-z
-x,-y,-z
-x+y,-x,-z
y,-x+y,-z
x,y,-z
x-y,x,-z
-y,x-y,-z
-x+y,y,1/2+z
x,x-y,1/2+z
-y,-x,1/2+z
y,x,1/2+z
x-y,-y,1/2+z
-x,-x+y,1/2+z
loop_
_atom_site_type_symbol
_atom_site_label
_atom_site_fract_x
_atom_site_fract_y
_atom_site_fract_z
Si Si1 0.173287 0.045986 0.841361
Si Si2 0.119440 0.607534 0.825986
Si Si3 0.364364 0.137466 0.326502
Si Si4 0.278699 0.230180 0.337939
Si Si5 0.332220 0.571076 0.825880
Si Si6 0.055572 0.652049 0.674992
O O1 0.193237 0.096619 0.750000
O O2 0.220995 0.036796 0.856551
O O3 0.129794 0.000000 0.750000
O O4 0.155785 0.051298 0.000000
O O5 0.115058 0.557529 0.750000
O O6 0.179281 0.651776 0.805471
O O7 0.080135 0.620689 0.747650
O O8 0.110309 0.600486 0.000000
O O9 0.386308 0.193154 0.250000
O O10 0.361508 0.143408 0.500000
O O11 0.309348 0.100366 0.253033
O O12 0.389169 0.100841 0.301408
O O13 0.273329 0.273329 0.250000
O O14 0.301314 0.247781 0.500000
O O15 0.377308 0.622693 0.750000
O O16 0.279035 0.558069 0.750000
O O17 0.330767 0.579248 0.000000
O O18 0.048674 0.644934 0.500000
O O19 0.000000 0.632077 0.750000
#
# Coordination Sequence:
#
# PCOD9588497 Si02
#       6
#    24  24  24  24  24  24
#     4  10  20  33  50  73 100 131 168 212 262 315
#     4  10  22  41  65  92 122 157 200 253 310 367
#     4  11  24  40  60  87 121 161 202 245 293 349
#     4  10  20  34  55  82 114 151 191 235 281 332
#     4  10  20  34  55  85 123 166 209 255 308 370
#     4  11  25  44  66  92 122 158 202 252 306 366
#
# _framework density 20.057732000000001
#
# number of rings (size 3 to 8) (size 9 to 14) (size 15 to 20)
#    0.000    1.667    0.000    4.167    0.000   10.333 
#    0.000    5.000    0.000    0.167    0.000    1.167 
#    0.000    0.000    0.000    0.000    0.000    0.000 
#
# Total GULP energy -803117.397960 kJ/mol
# GULP energy per Si atom -5577.204152 kJ/mol
# Density = 2.001208 g / cm^3
# Si number density = 20.057732 Si / 1000 Ang^3
#
#
#
# Elastic Constant Matrix: (Units=GPa)
#
#
# Indices 1 2 3 4 5 6 
#
# 1 67.4552 87.9163 73.1171 0.0000 0.0000 0.0000
# 2 87.9163 67.4552 73.1171 0.0000 0.0000 0.0000
# 3 73.1171 73.1171 165.8091 0.0000 0.0000 0.0000
# 4 0.0000 0.0000 0.0000 23.8671 0.0000 0.0000
# 5 0.0000 0.0000 0.0000 0.0000 23.8671 0.0000
# 6 0.0000 0.0000 0.0000 0.0000 0.0000 -10.2306
#
#
#
# Elastic Compliance Matrix: (Units=1/GPa)
#
#
# Indices 1 2 3 4 5 6 
#
# 1 -0.018935 0.029938 -0.004852 0.000000 0.000000 0.000000
# 2 0.029938 -0.018935 -0.004852 0.000000 0.000000 0.000000
# 3 -0.004852 -0.004852 0.010310 0.000000 0.000000 0.000000
# 4 0.000000 0.000000 0.000000 0.041899 0.000000 0.000000
# 5 0.000000 0.000000 0.000000 0.000000 0.041899 0.000000
# 6 0.000000 0.000000 0.000000 0.000000 0.000000 -0.097746
#
#
# Mechanical properties :
#
#
# Convention : Reuss Voigt Hill
#
# Bulk Modulus (GPa) = 77.47113 85.44673 81.45893
# Shear Modulus (GPa) = -64.37112 11.93863 -26.21625
#
# Velocity S-wave (km/s) = -5.67121 2.44235 -3.61922
# Velocity P-wave (km/s) = 2.04341 7.11662 4.82031
#
# Compressibility (1/GPa) = 0.01290803
#
# Stress axis : x y z
#
# Youngs Moduli (GPa) = -52.81172 -52.81172 96.99184
#
# Poissons Ratio (x) = 1.58107 0.47060
# Poissons Ratio (y) = 1.58107 0.47060
# Poissons Ratio (z) = -0.25624 -0.25624
#
# Static dielectric constant tensor:
#      x y z
#    x 1.709250 0.000000 0.000000 
#    y 0.000000 1.709250 0.000000 
#    z 0.000000 0.000000 1.764580 
# 
# From -- ./inp_files/1168.got.cif
#   From: 2010.05.17/outbox.cif.g08.bks.cpg/sg192_1_cif.got.tgz:1168.got - 2010.05.20 12:28:01.
