data_PCOD9588060
_publ_section_title
;
Structure prediction by ZEFSAII (Michael W. Deem and Ramdas Pophale) SiO2 
 PCOD9588060
Probable space group: P 6/M M M
;
_chemical_formula_sum "Si O2"
_cell_formula_units_Z 138
_cell_length_a 31.967383
_cell_length_b 31.967383
_cell_length_c 7.579360
_cell_angle_alpha 90.000000
_cell_angle_beta 90.000000
_cell_angle_gamma 120.000000
_cell_volume 6707.757226
_symmetry_space_group_name_H-M "P 6/M M M"
_symmetry_group_IT_number 191
_symmetry_cell_setting 'hexagonal'
loop_
_space_group_symop_operation_xyz
x,y,z
x-y,x,z
-y,x-y,z
-x,-y,z
-x+y,-x,z
y,-x+y,z
x-y,-y,-z
-x,-x+y,-z
y,x,-z
-y,-x,-z
-x+y,y,-z
x,x-y,-z
-x,-y,-z
-x+y,-x,-z
y,-x+y,-z
x,y,-z
x-y,x,-z
-y,x-y,-z
-x+y,y,z
x,x-y,z
-y,-x,z
y,x,z
x-y,-y,z
-x,-x+y,z
loop_
_atom_site_type_symbol
_atom_site_label
_atom_site_fract_x
_atom_site_fract_y
_atom_site_fract_z
Si Si1 0.666606 0.427938 0.710494
Si Si2 0.137848 0.767526 0.711384
Si Si3 0.213226 0.945336 0.285294
Si Si4 0.144105 0.672937 0.790558
Si Si5 0.883712 0.941856 0.000000
Si Si6 0.200071 0.100036 0.287097
Si Si7 0.946195 0.424762 0.784646
O O1 0.666113 0.421641 0.500000
O O2 0.712348 0.424695 0.781150
O O3 0.615416 0.384585 0.779120
O O4 0.673998 0.480901 0.737841
O O5 0.137635 0.772464 0.500000
O O6 0.185427 0.814574 0.780598
O O7 0.090450 0.768091 0.777229
O O8 0.141554 0.720338 0.745652
O O9 0.215512 0.946380 0.500000
O O10 0.156908 0.924349 0.243300
O O11 0.245184 0.000000 0.221793
O O12 0.097200 0.625388 0.718420
O O13 0.141966 0.668635 0.000000
O O14 0.916218 0.916218 0.000000
O O15 0.848193 0.924097 0.170645
O O16 0.190891 0.095445 0.500000
O O17 0.938883 0.469442 0.733443
O O18 0.000000 0.438483 0.728683
O O19 0.946030 0.423858 0.000000
#
# Coordination Sequence:
#
# PCOD9588060 Si02
#       7
#    24  24  24  24   6  12  24
#     4  10  21  38  59  81 105 138 181 228 280 343
#     4  10  20  36  54  74 107 150 187 222 274 339
#     4   9  17  33  60  89 114 146 193 248 302 354
#     4  11  22  34  52  80 111 142 181 228 277 333
#     4  12  27  44  64  96 136 176 216 264 322 386
#     4  10  20  41  69  95 124 164 216 268 318 376
#     4   8  15  30  51  72  97 133 174 215 263 320
#
# _framework density 20.573195999999999
#
# number of rings (size 3 to 8) (size 9 to 14) (size 15 to 20)
#    0.000    2.261    0.870    2.826    0.000    6.261 
#    1.565    0.000    0.000    3.130    0.000    6.087 
#    0.000    0.000    0.000    0.000    0.000    0.000 
#
# Total GULP energy -770688.319698 kJ/mol
# GULP energy per Si atom -5584.697969 kJ/mol
# Density = 2.052637 g / cm^3
# Si number density = 20.573196 Si / 1000 Ang^3
#
#
#
# Elastic Constant Matrix: (Units=GPa)
#
#
# Indices 1 2 3 4 5 6 
#
# 1 202.2510 145.8195 17.6463 0.0000 0.0000 0.0000
# 2 145.8195 202.2510 17.6463 0.0000 0.0000 0.0000
# 3 17.6463 17.6463 56.3496 0.0000 0.0000 0.0000
# 4 0.0000 0.0000 0.0000 9.5036 0.0000 0.0000
# 5 0.0000 0.0000 0.0000 0.0000 9.5036 0.0000
# 6 0.0000 0.0000 0.0000 0.0000 0.0000 28.2157
#
#
#
# Elastic Compliance Matrix: (Units=1/GPa)
#
#
# Indices 1 2 3 4 5 6 
#
# 1 0.010344 -0.007377 -0.000929 0.000000 0.000000 0.000000
# 2 -0.007377 0.010344 -0.000929 0.000000 0.000000 0.000000
# 3 -0.000929 -0.000929 0.018328 0.000000 0.000000 0.000000
# 4 0.000000 0.000000 0.000000 0.105223 0.000000 0.000000
# 5 0.000000 0.000000 0.000000 0.000000 0.105223 0.000000
# 6 0.000000 0.000000 0.000000 0.000000 0.000000 0.035441
#
#
# Mechanical properties :
#
#
# Convention : Reuss Voigt Hill
#
# Bulk Modulus (GPa) = 48.67150 91.45289 70.06219
# Shear Modulus (GPa) = 16.11748 28.09389 22.10568
#
# Velocity S-wave (km/s) = 2.80200 3.69935 3.28150
# Velocity P-wave (km/s) = 5.84614 7.92439 6.96324
#
# Compressibility (1/GPa) = 0.02054591
#
# Stress axis : x y z
#
# Youngs Moduli (GPa) = 96.67529 96.67529 54.56038
#
# Poissons Ratio (x) = 0.71315 0.05070
# Poissons Ratio (y) = 0.71315 0.05070
# Poissons Ratio (z) = 0.08983 0.08983
#
# Static dielectric constant tensor:
#      x y z
#    x 1.730760 0.000000 0.000000 
#    y 0.000000 1.730760 0.000000 
#    z 0.000000 0.000000 1.780990 
# 
# From -- ./inp_files/2047.got.cif
#   From: 2010.05.17/outbox.cif.g08.bks.cpg/sg191_2_cif.got.tgz:2047.got - 2010.05.20 12:20:32.
