data_PCOD9588490
_publ_section_title
;
Structure prediction by ZEFSAII (Michael W. Deem and Ramdas Pophale) SiO2 
 PCOD9588490
Probable space group: P 6/M C C
;
_chemical_formula_sum "Si O2"
_cell_formula_units_Z 120
_cell_length_a 25.105755
_cell_length_b 25.105755
_cell_length_c 14.496499
_cell_angle_alpha 90.000000
_cell_angle_beta 90.000000
_cell_angle_gamma 120.000000
_cell_volume 7912.984851
_symmetry_space_group_name_H-M "P 6/M C C"
_symmetry_group_IT_number 192
_symmetry_cell_setting 'hexagonal'
loop_
_space_group_symop_operation_xyz
x,y,z
x-y,x,z
-y,x-y,z
-x,-y,z
-x+y,-x,z
y,-x+y,z
x-y,-y,1/2-z
-x,-x+y,1/2-z
y,x,1/2-z
-y,-x,1/2-z
-x+y,y,1/2-z
x,x-y,1/2-z
-x,-y,-z
-x+y,-x,-z
y,-x+y,-z
x,y,-z
x-y,x,-z
-y,x-y,-z
-x+y,y,1/2+z
x,x-y,1/2+z
-y,-x,1/2+z
y,x,1/2+z
x-y,-y,1/2+z
-x,-x+y,1/2+z
loop_
_atom_site_type_symbol
_atom_site_label
_atom_site_fract_x
_atom_site_fract_y
_atom_site_fract_z
Si Si1 0.925487 0.375512 0.500000
Si Si2 0.857635 0.142366 0.639158
Si Si3 0.929848 0.070152 0.638304
Si Si4 0.748063 0.074444 0.000000
Si Si5 0.673618 0.748063 0.500000
Si Si6 0.925486 0.549975 0.500000
Si Si7 0.074965 0.537482 0.354518
O O1 0.907652 0.305181 0.500000
O O2 0.906089 0.400642 0.411515
O O3 0.000000 0.412972 0.500000
O O4 0.853662 0.146339 0.750000
O O5 0.893977 0.106024 0.616519
O O6 0.896052 0.208121 0.588929
O O7 0.791880 0.103950 0.588929
O O8 0.931654 0.068347 0.750000
O O9 0.000000 0.106229 0.606090
O O10 0.715782 0.999999 0.000000
O O11 0.602470 0.694819 0.500000
O O12 0.906089 0.505446 0.411514
O O13 0.096663 0.548332 0.250000
O O14 0.000000 0.500000 0.353566
#
# Coordination Sequence:
#
# PCOD9588490 Si02
#       7
#    12  24  24  12  12  12  24
#     4   8  15  26  40  62  88 113 145 177 206 249
#     4  10  21  34  46  63  88 117 153 200 250 302
#     4   9  16  27  44  63  80 100 134 190 262 330
#     4  10  20  33  48  64  85 118 158 197 237 284
#     4  10  20  33  48  64  85 118 158 197 237 284
#     4   8  15  26  40  62  88 113 145 177 206 249
#     4   8  13  23  40  63  91 116 135 163 200 232
#
# _framework density 15.164948000000001
#
# number of rings (size 3 to 8) (size 9 to 14) (size 15 to 20)
#    0.000    3.000    0.000    2.600    0.000    4.800 
#    0.000    4.000    0.000    0.000    0.000    7.000 
#    0.000    0.000    0.000   38.400    0.000   89.600 
#
# Total GULP energy -668413.787458 kJ/mol
# GULP energy per Si atom -5570.114895 kJ/mol
# Density = 1.513043 g / cm^3
# Si number density = 15.164948 Si / 1000 Ang^3
#
#
#
# Elastic Constant Matrix: (Units=GPa)
#
#
# Indices 1 2 3 4 5 6 
#
# 1 108.2960 60.4529 56.0226 0.0000 0.0000 0.0000
# 2 60.4529 108.2960 56.0226 0.0000 0.0000 0.0000
# 3 56.0226 56.0226 140.5660 0.0000 0.0000 0.0000
# 4 0.0000 0.0000 0.0000 9.2890 0.0000 0.0000
# 5 0.0000 0.0000 0.0000 0.0000 9.2890 0.0000
# 6 0.0000 0.0000 0.0000 0.0000 0.0000 23.9216
#
#
#
# Elastic Compliance Matrix: (Units=1/GPa)
#
#
# Indices 1 2 3 4 5 6 
#
# 1 0.014480 -0.006422 -0.003212 0.000000 0.000000 0.000000
# 2 -0.006422 0.014480 -0.003212 0.000000 0.000000 0.000000
# 3 -0.003212 -0.003212 0.009674 0.000000 0.000000 0.000000
# 4 0.000000 0.000000 0.000000 0.107654 0.000000 0.000000
# 5 0.000000 0.000000 0.000000 0.000000 0.107654 0.000000
# 6 0.000000 0.000000 0.000000 0.000000 0.000000 0.041803
#
#
# Mechanical properties :
#
#
# Convention : Reuss Voigt Hill
#
# Bulk Modulus (GPa) = 77.25435 78.01715 77.63575
# Shear Modulus (GPa) = 15.34919 20.81059 18.07989
#
# Velocity S-wave (km/s) = 3.18488 3.70845 3.45659
# Velocity P-wave (km/s) = 8.03604 8.36028 8.19976
#
# Compressibility (1/GPa) = 0.01294426
#
# Stress axis : x y z
#
# Youngs Moduli (GPa) = 69.06059 69.06059 103.36830
#
# Poissons Ratio (x) = 0.44348 0.33199
# Poissons Ratio (y) = 0.44348 0.33199
# Poissons Ratio (z) = 0.22180 0.22180
#
# Static dielectric constant tensor:
#      x y z
#    x 1.485450 0.000000 0.000000 
#    y 0.000000 1.485450 0.000000 
#    z 0.000000 0.000000 1.532340 
# 
# From -- ./inp_files/3195.got.cif
#   From: 2010.05.17/outbox.cif.g08.bks.cpg/sg192_2_cif.got.tgz:3195.got - 2010.05.20 12:28:01.
