data_PCOD9588619
_publ_section_title
;
Structure prediction by ZEFSAII (Michael W. Deem and Ramdas Pophale) SiO2 
 PCOD9588619
Probable space group: P 6/M C C
;
_chemical_formula_sum "Si O2"
_cell_formula_units_Z 114
_cell_length_a 20.155917
_cell_length_b 20.155917
_cell_length_c 14.673093
_cell_angle_alpha 90.000000
_cell_angle_beta 90.000000
_cell_angle_gamma 120.000000
_cell_volume 5162.468616
_symmetry_space_group_name_H-M "P 6/M C C"
_symmetry_group_IT_number 192
_symmetry_cell_setting 'hexagonal'
loop_
_space_group_symop_operation_xyz
x,y,z
x-y,x,z
-y,x-y,z
-x,-y,z
-x+y,-x,z
y,-x+y,z
x-y,-y,1/2-z
-x,-x+y,1/2-z
y,x,1/2-z
-y,-x,1/2-z
-x+y,y,1/2-z
x,x-y,1/2-z
-x,-y,-z
-x+y,-x,-z
y,-x+y,-z
x,y,-z
x-y,x,-z
-y,x-y,-z
-x+y,y,1/2+z
x,x-y,1/2+z
-y,-x,1/2+z
y,x,1/2+z
x-y,-y,1/2+z
-x,-x+y,1/2+z
loop_
_atom_site_type_symbol
_atom_site_label
_atom_site_fract_x
_atom_site_fract_y
_atom_site_fract_z
Si Si1 0.633769 0.561360 0.605031
Si Si2 0.000000 0.500000 0.250000
Si Si3 0.024278 0.162194 0.388568
Si Si4 0.761217 0.225494 0.652111
Si Si5 0.670179 0.935056 0.108181
Si Si6 0.253790 0.575007 0.500000
O O1 0.606242 0.538463 0.500000
O O2 0.570183 0.516529 0.682284
O O3 0.710341 0.555296 0.617089
O O4 0.653795 0.649195 0.617054
O O5 0.093476 0.150314 0.358545
O O6 0.023436 0.161283 0.500000
O O7 0.037894 0.244297 0.361005
O O8 0.749285 0.250716 0.750000
O O9 0.752647 0.142140 0.658715
O O10 0.694590 0.217199 0.586313
O O11 0.663316 0.914829 0.000000
O O12 0.344554 0.601466 0.500000
#
# Coordination Sequence:
#
# PCOD9588619 Si02
#       6
#    24   6  24  24  24  12
#     4  11  24  44  68 103 138 182 231 293 353 425
#     4  12  26  44  64 106 128 176 228 296 364 434
#     4   9  16  27  50  89 135 185 233 285 335 396
#     4  12  24  44  72 101 138 181 229 287 345 426
#     4  10  20  38  65  94 136 182 234 283 347 410
#     4  10  26  48  68  98 133 170 219 274 348 425
#
# _framework density 22.082459
#
# number of rings (size 3 to 8) (size 9 to 14) (size 15 to 20)
#    0.211    1.263    2.105    3.053    0.000    8.421 
#    0.000    0.000    0.000    0.000    0.000    0.000 
#    0.000    1.684    0.000    0.000    0.000    0.000 
#
# Total GULP energy -637751.731620 kJ/mol
# GULP energy per Si atom -5594.313435 kJ/mol
# Density = 2.203220 g / cm^3
# Si number density = 22.082459 Si / 1000 Ang^3
#
#
#
# Elastic Constant Matrix: (Units=GPa)
#
#
# Indices 1 2 3 4 5 6 
#
# 1 83.4934 -0.4956 8.0037 0.0000 0.0000 0.0000
# 2 -0.4956 83.4934 8.0037 0.0000 0.0000 0.0000
# 3 8.0037 8.0037 79.2056 0.0000 0.0000 0.0000
# 4 0.0000 0.0000 0.0000 0.2561 0.0000 0.0000
# 5 0.0000 0.0000 0.0000 0.0000 0.2561 0.0000
# 6 0.0000 0.0000 0.0000 0.0000 0.0000 41.9945
#
#
#
# Elastic Compliance Matrix: (Units=1/GPa)
#
#
# Indices 1 2 3 4 5 6 
#
# 1 0.012097 0.000191 -0.001242 0.000000 0.000000 0.000000
# 2 0.000191 0.012097 -0.001242 0.000000 0.000000 0.000000
# 3 -0.001242 -0.001242 0.012876 0.000000 0.000000 0.000000
# 4 0.000000 0.000000 0.000000 3.904070 0.000000 0.000000
# 5 0.000000 0.000000 0.000000 0.000000 3.904070 0.000000
# 6 0.000000 0.000000 0.000000 0.000000 0.000000 0.023813
#
#
# Mechanical properties :
#
#
# Convention : Reuss Voigt Hill
#
# Bulk Modulus (GPa) = 30.78295 30.80177 30.79236
# Shear Modulus (GPa) = 0.63416 23.88005 12.25711
#
# Velocity S-wave (km/s) = 0.53647 3.29204 2.35853
# Velocity P-wave (km/s) = 3.78867 5.33187 4.62508
#
# Compressibility (1/GPa) = 0.03248552
#
# Stress axis : x y z
#
# Youngs Moduli (GPa) = 82.66401 82.66401 77.66198
#
# Poissons Ratio (x) = -0.01578 0.09643
# Poissons Ratio (y) = -0.01578 0.09643
# Poissons Ratio (z) = 0.10264 0.10264
#
# Static dielectric constant tensor:
#      x y z
#    x 1.760480 0.000000 0.000000 
#    y 0.000000 1.760480 0.000000 
#    z 0.000000 0.000000 1.824660 
# 
# From -- ./inp_files/2987.got.cif
#   From: 2010.05.17/outbox.cif.g08.bks.cpg/sg192_2_cif.got.tgz:2987.got - 2010.05.20 12:28:01.
