data_PCOD9588118
_publ_section_title
;
Structure prediction by ZEFSAII (Michael W. Deem and Ramdas Pophale) SiO2 
 PCOD9588118
Probable space group: P 6/M M M
;
_chemical_formula_sum "Si O2"
_cell_formula_units_Z 138
_cell_length_a 32.981766
_cell_length_b 32.981766
_cell_length_c 7.806427
_cell_angle_alpha 90.000000
_cell_angle_beta 90.000000
_cell_angle_gamma 120.000000
_cell_volume 7354.120587
_symmetry_space_group_name_H-M "P 6/M M M"
_symmetry_group_IT_number 191
_symmetry_cell_setting 'hexagonal'
loop_
_space_group_symop_operation_xyz
x,y,z
x-y,x,z
-y,x-y,z
-x,-y,z
-x+y,-x,z
y,-x+y,z
x-y,-y,-z
-x,-x+y,-z
y,x,-z
-y,-x,-z
-x+y,y,-z
x,x-y,-z
-x,-y,-z
-x+y,-x,-z
y,-x+y,-z
x,y,-z
x-y,x,-z
-y,x-y,-z
-x+y,y,z
x,x-y,z
-y,-x,z
y,x,z
x-y,-y,z
-x,-x+y,z
loop_
_atom_site_type_symbol
_atom_site_label
_atom_site_fract_x
_atom_site_fract_y
_atom_site_fract_z
Si Si1 0.333655 0.474808 0.301580
Si Si2 0.762007 0.145465 0.294977
Si Si3 0.356178 0.808728 0.000000
Si Si4 0.947601 0.711439 0.204466
Si Si5 0.142687 0.947923 0.705579
Si Si6 0.601785 0.300893 0.000000
Si Si7 0.480875 0.054509 0.207144
O O1 0.328754 0.485732 0.500000
O O2 0.284878 0.430549 0.241133
O O3 0.376569 0.464690 0.289652
O O4 0.348266 0.517093 0.170533
O O5 0.763469 0.149794 0.500000
O O6 0.810124 0.189876 0.227264
O O7 0.757714 0.095722 0.256633
O O8 0.317592 0.754528 0.000000
O O9 0.408793 0.817585 0.000000
O O10 0.938521 0.753165 0.260659
O O11 0.000000 0.726187 0.269144
O O12 0.949514 0.711866 0.000000
O O13 0.138242 0.949118 0.500000
O O14 0.094233 0.905768 0.774040
O O15 0.159412 0.000000 0.772939
O O16 0.643503 0.287006 0.000000
O O17 0.533764 0.067527 0.255641
O O18 0.447832 0.000000 0.249984
O O19 0.480350 0.058800 0.000000
#
# Coordination Sequence:
#
# PCOD9588118 Si02
#       7
#    24  24  12  24  24   6  24
#     4  11  24  39  60  92 124 160 203 245 297 355
#     4  10  23  41  57  80 116 154 196 239 281 342
#     4  11  23  42  69  94 124 157 193 244 295 347
#     4  10  21  35  53  80 111 145 188 238 288 341
#     4   9  17  30  49  72 100 138 184 234 290 349
#     4   8  20  44  70  98 122 154 197 236 294 364
#     4   9  18  35  58  84 118 156 198 247 295 345
#
# _framework density 18.764990999999998
#
# number of rings (size 3 to 8) (size 9 to 14) (size 15 to 20)
#    0.087    2.087    0.870    2.087    2.435    6.261 
#    0.000    4.348    0.000    1.739    0.000    1.217 
#    0.000    0.000    0.000    4.348    0.000    4.522 
#
# Total GULP energy -768284.633399 kJ/mol
# GULP energy per Si atom -5567.279952 kJ/mol
# Density = 1.872228 g / cm^3
# Si number density = 18.764991 Si / 1000 Ang^3
#
#
#
# Elastic Constant Matrix: (Units=GPa)
#
#
# Indices 1 2 3 4 5 6 
#
# 1 146.9489 94.5635 32.3256 0.0000 0.0000 0.0000
# 2 94.5635 146.9489 32.3256 0.0000 0.0000 0.0000
# 3 32.3256 32.3256 49.1486 0.0000 0.0000 0.0000
# 4 0.0000 0.0000 0.0000 31.2442 0.0000 0.0000
# 5 0.0000 0.0000 0.0000 0.0000 31.2442 0.0000
# 6 0.0000 0.0000 0.0000 0.0000 0.0000 26.1927
#
#
#
# Elastic Compliance Matrix: (Units=1/GPa)
#
#
# Indices 1 2 3 4 5 6 
#
# 1 0.012057 -0.007032 -0.003305 0.000000 0.000000 0.000000
# 2 -0.007032 0.012057 -0.003305 0.000000 0.000000 0.000000
# 3 -0.003305 -0.003305 0.024694 0.000000 0.000000 0.000000
# 4 0.000000 0.000000 0.000000 0.032006 0.000000 0.000000
# 5 0.000000 0.000000 0.000000 0.000000 0.032006 0.000000
# 6 0.000000 0.000000 0.000000 0.000000 0.000000 0.038179
#
#
# Mechanical properties :
#
#
# Convention : Reuss Voigt Hill
#
# Bulk Modulus (GPa) = 46.45976 73.49733 59.97854
# Shear Modulus (GPa) = 26.96013 29.99164 28.47589
#
# Velocity S-wave (km/s) = 3.79453 4.00218 3.89974
# Velocity P-wave (km/s) = 6.63403 7.78517 7.23254
#
# Compressibility (1/GPa) = 0.02152400
#
# Stress axis : x y z
#
# Youngs Moduli (GPa) = 82.93704 82.93704 40.49529
#
# Poissons Ratio (x) = 0.58321 0.13385
# Poissons Ratio (y) = 0.58321 0.13385
# Poissons Ratio (z) = 0.27413 0.27413
#
# Static dielectric constant tensor:
#      x y z
#    x 1.650010 0.000000 0.000000 
#    y 0.000000 1.650010 0.000000 
#    z 0.000000 0.000000 1.664060 
# 
# From -- ./inp_files/2025.got.cif
#   From: 2010.05.17/outbox.cif.g08.bks.cpg/sg191_2_cif.got.tgz:2025.got - 2010.05.20 12:20:32.
