data_PCOD9588637
_publ_section_title
;
Structure prediction by ZEFSAII (Michael W. Deem and Ramdas Pophale) SiO2 
 PCOD9588637
Probable space group: P 6/M C C
;
_chemical_formula_sum "Si O2"
_cell_formula_units_Z 104
_cell_length_a 20.147996
_cell_length_b 20.147996
_cell_length_c 14.814185
_cell_angle_alpha 90.000000
_cell_angle_beta 90.000000
_cell_angle_gamma 120.000000
_cell_volume 5208.013574
_symmetry_space_group_name_H-M "P 6/M C C"
_symmetry_group_IT_number 192
_symmetry_cell_setting 'hexagonal'
loop_
_space_group_symop_operation_xyz
x,y,z
x-y,x,z
-y,x-y,z
-x,-y,z
-x+y,-x,z
y,-x+y,z
x-y,-y,1/2-z
-x,-x+y,1/2-z
y,x,1/2-z
-y,-x,1/2-z
-x+y,y,1/2-z
x,x-y,1/2-z
-x,-y,-z
-x+y,-x,-z
y,-x+y,-z
x,y,-z
x-y,x,-z
-y,x-y,-z
-x+y,y,1/2+z
x,x-y,1/2+z
-y,-x,1/2+z
y,x,1/2+z
x-y,-y,1/2+z
-x,-x+y,1/2+z
loop_
_atom_site_type_symbol
_atom_site_label
_atom_site_fract_x
_atom_site_fract_y
_atom_site_fract_z
Si Si1 0.202967 0.701754 0.390240
Si Si2 0.718351 0.718108 0.395981
Si Si3 0.031959 0.584582 0.648741
Si Si4 0.831175 0.167381 0.610628
Si Si5 0.666668 0.333334 0.389989
O O1 0.197925 0.696903 0.500000
O O2 0.123843 0.631556 0.354275
O O3 0.206132 0.780625 0.364131
O O4 0.275632 0.695533 0.361377
O O5 0.739185 0.740256 0.500000
O O6 0.641030 0.635219 0.394441
O O7 0.700269 0.780998 0.356109
O O8 0.785857 0.705378 0.358563
O O9 0.000000 0.500000 0.608124
O O10 0.000000 0.571396 0.750000
O O11 0.831350 0.166396 0.500000
O O12 0.666667 0.333334 0.500000
#
# Coordination Sequence:
#
# PCOD9588637 Si02
#       5
#    24  24  24  24   8
#     4   9  18  32  50  76 100 127 168 210 254 304
#     4   9  17  31  52  74  96 126 165 209 250 296
#     4  10  21  34  48  67  99 130 169 205 252 300
#     4   8  15  28  48  75  99 123 161 204 250 295
#     4   9  18  30  51  79 104 127 166 218 262 309
#
# _framework density 19.969225000000002
#
# number of rings (size 3 to 8) (size 9 to 14) (size 15 to 20)
#    0.000    3.000    0.000    2.077    3.231    1.846 
#    0.000    4.615    0.000    0.462    0.000    3.231 
#    0.000    0.000    0.000    8.308    0.000    9.231 
#
# Total GULP energy -580197.944874 kJ/mol
# GULP energy per Si atom -5578.826393 kJ/mol
# Density = 1.992377 g / cm^3
# Si number density = 19.969225 Si / 1000 Ang^3
#
#
#
# Elastic Constant Matrix: (Units=GPa)
#
#
# Indices 1 2 3 4 5 6 
#
# 1 137.7004 134.0560 3.2429 0.0000 -0.0003 0.0002
# 2 134.0560 137.7019 3.2432 -0.0002 -0.0001 -0.0001
# 3 3.2429 3.2432 63.3060 0.0000 -0.0001 0.0000
# 4 0.0000 -0.0002 0.0000 -18.9105 0.0003 -0.0001
# 5 -0.0003 -0.0001 -0.0001 0.0003 -18.9114 -0.0001
# 6 0.0002 -0.0001 0.0000 -0.0001 -0.0001 1.8222
#
#
#
# Elastic Compliance Matrix: (Units=1/GPa)
#
#
# Indices 1 2 3 4 5 6 
#
# 1 0.139011 -0.135326 -0.000188 0.000001 -0.000001 -0.000025
# 2 -0.135326 0.139010 -0.000189 -0.000002 0.000001 0.000025
# 3 -0.000188 -0.000189 0.015816 0.000000 0.000000 0.000000
# 4 0.000001 -0.000002 0.000000 -0.052881 -0.000001 -0.000002
# 5 -0.000001 0.000001 0.000000 -0.000001 -0.052878 -0.000003
# 6 -0.000025 0.000025 0.000000 -0.000002 -0.000003 0.548787
#
#
# Mechanical properties :
#
#
# Convention : Reuss Voigt Hill
#
# Bulk Modulus (GPa) = 44.58473 68.86583 56.72528
# Shear Modulus (GPa) = 4.92248 6.01115 5.46682
#
# Velocity S-wave (km/s) = 1.57175 1.73688 1.65637
# Velocity P-wave (km/s) = 5.06646 6.21154 5.66799
#
# Compressibility (1/GPa) = 0.02242920
#
# Stress axis : x y z
#
# Youngs Moduli (GPa) = 7.19367 7.19375 63.22858
#
# Poissons Ratio (x) = 0.97350 0.01191
# Poissons Ratio (y) = 0.97349 0.01196
# Poissons Ratio (z) = 0.00135 0.00136
#
# Static dielectric constant tensor:
#      x y z
#    x 1.688760 0.000000 0.000000 
#    y 0.000000 1.688760 0.000000 
#    z 0.000000 0.000000 1.765340 
# 
# From -- ./inp_files/2858.got.cif
#   From: 2010.05.17/outbox.cif.g08.bks.cpg/sg192_2_cif.got.tgz:2858.got - 2010.05.20 12:28:01.
