data_PCOD9588378
_publ_section_title
;
Structure prediction by ZEFSAII (Michael W. Deem and Ramdas Pophale) SiO2 
 PCOD9588378
Probable space group: P 6/M C C
;
_chemical_formula_sum "Si O2"
_cell_formula_units_Z 92
_cell_length_a 20.073643
_cell_length_b 20.073643
_cell_length_c 14.453966
_cell_angle_alpha 90.000000
_cell_angle_beta 90.000000
_cell_angle_gamma 120.000000
_cell_volume 5043.941638
_symmetry_space_group_name_H-M "P 6/M C C"
_symmetry_group_IT_number 192
_symmetry_cell_setting 'hexagonal'
loop_
_space_group_symop_operation_xyz
x,y,z
x-y,x,z
-y,x-y,z
-x,-y,z
-x+y,-x,z
y,-x+y,z
x-y,-y,1/2-z
-x,-x+y,1/2-z
y,x,1/2-z
-y,-x,1/2-z
-x+y,y,1/2-z
x,x-y,1/2-z
-x,-y,-z
-x+y,-x,-z
y,-x+y,-z
x,y,-z
x-y,x,-z
-y,x-y,-z
-x+y,y,1/2+z
x,x-y,1/2+z
-y,-x,1/2+z
y,x,1/2+z
x-y,-y,1/2+z
-x,-x+y,1/2+z
loop_
_atom_site_type_symbol
_atom_site_label
_atom_site_fract_x
_atom_site_fract_y
_atom_site_fract_z
Si Si1 0.688578 0.983453 0.851760
Si Si2 0.410239 0.280305 0.500000
Si Si3 0.742879 0.628397 0.500000
Si Si4 0.666668 0.333334 0.639167
Si Si5 0.537087 0.241545 0.500000
Si Si6 0.169972 0.135431 0.612436
O O1 0.727929 0.061232 0.911895
O O2 0.671784 0.000000 0.750000
O O3 0.750549 0.954453 0.848096
O O4 0.614901 0.922960 0.909877
O O5 0.358859 0.187069 0.500000
O O6 0.495409 0.293317 0.500000
O O7 0.691216 0.535525 0.500000
O O8 0.666668 0.333334 0.750000
O O9 0.590286 0.264435 0.590716
O O10 0.100771 0.150881 0.638645
O O11 0.175611 0.140769 0.500000
#
# Coordination Sequence:
#
# PCOD9588378 Si02
#       6
#    24  12  12   8  12  24
#     4  11  21  31  50  78 107 147 201 250 283 332
#     4   9  19  36  53  75 115 153 187 227 282 336
#     4   9  19  36  53  75 115 153 187 227 282 336
#     4  10  20  40  70 104 121 133 170 214 259 332
#     4   8  20  38  62  90 122 156 174 216 280 334
#     4  10  19  31  45  62  94 142 199 253 308 345
#
# _framework density 18.239702999999999
#
# number of rings (size 3 to 8) (size 9 to 14) (size 15 to 20)
#    0.783    1.565    2.609    1.826    0.000    7.304 
#    0.000    0.000    0.000   14.087    0.000   14.609 
#    0.000    0.000    0.000    0.000    0.000    0.000 
#
# Total GULP energy -512866.720216 kJ/mol
# GULP energy per Si atom -5574.638263 kJ/mol
# Density = 1.819819 g / cm^3
# Si number density = 18.239703 Si / 1000 Ang^3
#
#
#
# Elastic Constant Matrix: (Units=GPa)
#
#
# Indices 1 2 3 4 5 6 
#
# 1 36.2558 1.9470 7.5395 0.0001 -0.0001 -0.0002
# 2 1.9470 36.2539 7.5388 0.0001 -0.0001 -0.0003
# 3 7.5395 7.5388 131.6509 -0.0001 -0.0002 -0.0002
# 4 0.0001 0.0001 -0.0001 2.5659 0.0000 0.0000
# 5 -0.0001 -0.0001 -0.0002 0.0000 2.5659 0.0000
# 6 -0.0002 -0.0003 -0.0002 0.0000 0.0000 17.1537
#
#
#
# Elastic Compliance Matrix: (Units=1/GPa)
#
#
# Indices 1 2 3 4 5 6 
#
# 1 0.027964 -0.001183 -0.001534 -0.000001 0.000001 0.000000
# 2 -0.001183 0.027966 -0.001534 -0.000001 0.000001 0.000000
# 3 -0.001534 -0.001534 0.007772 0.000000 0.000000 0.000000
# 4 -0.000001 -0.000001 0.000000 0.389728 0.000005 0.000000
# 5 0.000001 0.000001 0.000000 0.000005 0.389727 0.000000
# 6 0.000000 0.000000 0.000000 0.000000 0.000000 0.058296
#
#
# Mechanical properties :
#
#
# Convention : Reuss Voigt Hill
#
# Bulk Modulus (GPa) = 18.11565 26.46790 22.29178
# Shear Modulus (GPa) = 5.38588 16.93279 11.15933
#
# Velocity S-wave (km/s) = 1.72024 3.05019 2.47617
# Velocity P-wave (km/s) = 3.72816 5.19110 4.51922
#
# Compressibility (1/GPa) = 0.05520087
#
# Stress axis : x y z
#
# Youngs Moduli (GPa) = 35.75996 35.75814 128.67521
#
# Poissons Ratio (x) = 0.04230 0.19735
# Poissons Ratio (y) = 0.04230 0.19735
# Poissons Ratio (z) = 0.05485 0.05484
#
# Static dielectric constant tensor:
#      x y z
#    x 1.633340 0.000000 0.000000 
#    y 0.000000 1.633340 0.000000 
#    z 0.000000 0.000000 1.628880 
# 
# From -- ./inp_files/2812.got.cif
#   From: 2010.05.17/outbox.cif.g08.bks.cpg/sg192_2_cif.got.tgz:2812.got - 2010.05.20 12:28:01.
