data_PCOD9588143
_publ_section_title
;
Structure prediction by ZEFSAII (Michael W. Deem and Ramdas Pophale) SiO2 
 PCOD9588143
Probable space group: P 6/M M M
;
_chemical_formula_sum "Si O2"
_cell_formula_units_Z 168
_cell_length_a 22.521288
_cell_length_b 22.521288
_cell_length_c 23.751138
_cell_angle_alpha 90.000000
_cell_angle_beta 90.000000
_cell_angle_gamma 120.000000
_cell_volume 10432.814930
_symmetry_space_group_name_H-M "P 6/M M M"
_symmetry_group_IT_number 191
_symmetry_cell_setting 'hexagonal'
loop_
_space_group_symop_operation_xyz
x,y,z
x-y,x,z
-y,x-y,z
-x,-y,z
-x+y,-x,z
y,-x+y,z
x-y,-y,-z
-x,-x+y,-z
y,x,-z
-y,-x,-z
-x+y,y,-z
x,x-y,-z
-x,-y,-z
-x+y,-x,-z
y,-x+y,-z
x,y,-z
x-y,x,-z
-y,x-y,-z
-x+y,y,z
x,x-y,z
-y,-x,z
y,x,z
x-y,-y,z
-x,-x+y,z
loop_
_atom_site_type_symbol
_atom_site_label
_atom_site_fract_x
_atom_site_fract_y
_atom_site_fract_z
Si Si1 0.077534 0.294518 0.157295
Si Si2 0.808619 0.333632 0.148451
Si Si3 0.291278 0.077659 0.566609
Si Si4 0.724826 0.131252 0.936216
Si Si5 0.583996 0.722664 0.753387
Si Si6 0.333400 0.530318 0.566046
Si Si7 0.585284 0.921139 0.366132
O O1 0.137586 0.275172 0.154290
O O2 0.085144 0.340769 0.102538
O O3 0.096730 0.347063 0.209643
O O4 0.000000 0.233400 0.161906
O O5 0.808782 0.404391 0.149202
O O6 0.731344 0.268657 0.143907
O O7 0.852405 0.327605 0.097024
O O8 0.840760 0.320395 0.204644
O O9 0.309012 0.083336 0.500000
O O10 0.273884 0.136942 0.579798
O O11 0.355463 0.087641 0.602935
O O12 0.230565 0.000000 0.576329
O O13 0.795485 0.204516 0.937930
O O14 0.704584 0.106942 0.000000
O O15 0.580677 0.790339 0.736122
O O16 0.583263 0.681605 0.698907
O O17 0.331015 0.512186 0.500000
O O18 0.258989 0.517978 0.582158
O O19 0.390230 0.609771 0.571728
O O20 0.353550 0.484729 0.603536
O O21 0.606655 0.000000 0.372622
#
# Coordination Sequence:
#
# PCOD9588143 Si02
#       7
#    24  24  24  24  24  24  24
#     4   9  17  30  49  71  94 121 153 190 230 272
#     4   9  17  29  46  68  94 124 157 194 235 275
#     4   9  17  29  46  69  96 124 153 186 227 275
#     4   8  15  28  45  66  92 122 155 189 225 264
#     4   9  18  32  48  67  93 125 161 197 230 268
#     4  10  21  37  55  72  92 121 157 194 231 276
#     4  11  21  32  50  74  97 121 150 190 242 291
#
# _framework density 16.103037
#
# number of rings (size 3 to 8) (size 9 to 14) (size 15 to 20)
#    0.000    2.714    0.000    4.143    0.000    4.000 
#    0.000    0.714    0.000   13.143    0.000    5.000 
#    0.000    0.000    0.000    8.143    0.000    3.143 
#
# Total GULP energy -936396.838839 kJ/mol
# GULP energy per Si atom -5573.790707 kJ/mol
# Density = 1.606639 g / cm^3
# Si number density = 16.103037 Si / 1000 Ang^3
#
#
#
# Elastic Constant Matrix: (Units=GPa)
#
#
# Indices 1 2 3 4 5 6 
#
# 1 71.0531 38.0935 28.5711 0.0000 0.0000 0.0000
# 2 38.0935 71.0531 28.5711 0.0000 0.0000 0.0000
# 3 28.5711 28.5711 63.5881 0.0000 0.0000 0.0000
# 4 0.0000 0.0000 0.0000 11.9046 0.0000 0.0000
# 5 0.0000 0.0000 0.0000 0.0000 11.9046 0.0000
# 6 0.0000 0.0000 0.0000 0.0000 0.0000 16.4798
#
#
#
# Elastic Compliance Matrix: (Units=1/GPa)
#
#
# Indices 1 2 3 4 5 6 
#
# 1 0.021160 -0.009180 -0.005383 0.000000 0.000000 0.000000
# 2 -0.009180 0.021160 -0.005383 0.000000 0.000000 0.000000
# 3 -0.005383 -0.005383 0.020563 0.000000 0.000000 0.000000
# 4 0.000000 0.000000 0.000000 0.084001 0.000000 0.000000
# 5 0.000000 0.000000 0.000000 0.000000 0.084001 0.000000
# 6 0.000000 0.000000 0.000000 0.000000 0.000000 0.060680
#
#
# Mechanical properties :
#
#
# Convention : Reuss Voigt Hill
#
# Bulk Modulus (GPa) = 43.49295 44.01842 43.75568
# Shear Modulus (GPa) = 14.74398 15.42171 15.08285
#
# Velocity S-wave (km/s) = 3.02917 3.09801 3.06379
# Velocity P-wave (km/s) = 6.26916 6.33970 6.30452
#
# Compressibility (1/GPa) = 0.02299223
#
# Stress axis : x y z
#
# Youngs Moduli (GPa) = 47.25870 47.25870 48.63005
#
# Poissons Ratio (x) = 0.43384 0.26177
# Poissons Ratio (y) = 0.43384 0.26177
# Poissons Ratio (z) = 0.25439 0.25439
#
# Static dielectric constant tensor:
#      x y z
#    x 1.527120 0.000000 0.000000 
#    y 0.000000 1.527120 0.000000 
#    z 0.000000 0.000000 1.544880 
# 
# From -- ./inp_files/7932.got.cif
#   From: 2010.05.17/outbox.cif.g08.bks.cpg/sg191_4_cif.got.tgz:7932.got - 2010.05.20 12:20:32.
