data_PCOD9588073
_publ_section_title
;
Structure prediction by ZEFSAII (Michael W. Deem and Ramdas Pophale) SiO2 
 PCOD9588073
Probable space group: P 6/M M M
;
_chemical_formula_sum "Si O2"
_cell_formula_units_Z 168
_cell_length_a 26.521288
_cell_length_b 26.521288
_cell_length_c 14.508854
_cell_angle_alpha 90.000000
_cell_angle_beta 90.000000
_cell_angle_gamma 120.000000
_cell_volume 8837.979004
_symmetry_space_group_name_H-M "P 6/M M M"
_symmetry_group_IT_number 191
_symmetry_cell_setting 'hexagonal'
loop_
_space_group_symop_operation_xyz
x,y,z
x-y,x,z
-y,x-y,z
-x,-y,z
-x+y,-x,z
y,-x+y,z
x-y,-y,-z
-x,-x+y,-z
y,x,-z
-y,-x,-z
-x+y,y,-z
x,x-y,-z
-x,-y,-z
-x+y,-x,-z
y,-x+y,-z
x,y,-z
x-y,x,-z
-y,x-y,-z
-x+y,y,z
x,x-y,z
-y,-x,z
y,x,z
x-y,-y,z
-x,-x+y,z
loop_
_atom_site_type_symbol
_atom_site_label
_atom_site_fract_x
_atom_site_fract_y
_atom_site_fract_z
Si Si1 0.344571 0.877285 0.109424
Si Si2 0.655001 0.887892 0.896528
Si Si3 0.453961 0.666008 0.741833
Si Si4 0.240668 0.063786 0.768113
Si Si5 0.559290 0.688726 0.606090
Si Si6 0.576019 0.576019 0.603141
Si Si7 0.246135 0.313236 0.390146
Si Si8 0.000000 0.444420 0.815586
O O1 0.282337 0.872355 0.125388
O O2 0.345964 0.825533 0.164467
O O3 0.389666 0.940477 0.150445
O O4 0.353767 0.875328 0.000000
O O5 0.656017 0.828009 0.896233
O O6 0.704416 0.929415 0.826378
O O7 0.668347 0.912821 0.000000
O O8 0.449143 0.724572 0.747179
O O9 0.391520 0.608481 0.721130
O O10 0.503948 0.676153 0.666891
O O11 0.227968 0.113984 0.796210
O O12 0.264162 0.072636 0.663968
O O13 0.187522 0.000000 0.780388
O O14 0.549970 0.700160 0.500000
O O15 0.571980 0.634898 0.604219
O O16 0.622428 0.739520 0.640098
O O17 0.552129 0.552129 0.500000
O O18 0.552058 0.552058 0.704639
O O19 0.239070 0.310951 0.500000
O O20 0.297392 0.297392 0.371193
O O21 0.000000 0.500000 0.856297
#
# Coordination Sequence:
#
# PCOD9588073 Si02
#       8
#    24  24  24  24  24  12  24  12
#     4  11  24  41  64  91 121 155 190 235 293 359
#     4   9  19  36  58  86 115 144 183 229 281 344
#     4  12  27  46  65  84 110 150 204 261 311 352
#     4  10  21  34  53  80 114 155 195 237 282 333
#     4  10  20  37  64  93 121 153 188 232 292 363
#     4  10  20  36  63  96 126 153 187 229 283 354
#     4   9  17  31  54  85 121 153 182 221 277 348
#     4  12  25  39  58  91 127 160 193 229 284 355
#
# _framework density 19.008870000000002
#
# number of rings (size 3 to 8) (size 9 to 14) (size 15 to 20)
#    0.000    1.714    2.143    2.071    1.000    5.286 
#    0.000    2.857    0.000    1.857    0.000    0.000 
#    0.000    0.000    0.000    7.143    0.000    0.000 
#
# Total GULP energy -936757.009860 kJ/mol
# GULP energy per Si atom -5575.934583 kJ/mol
# Density = 1.896560 g / cm^3
# Si number density = 19.008870 Si / 1000 Ang^3
#
#
#
# Elastic Constant Matrix: (Units=GPa)
#
#
# Indices 1 2 3 4 5 6 
#
# 1 69.3610 46.3774 20.9525 0.0000 0.0000 0.0000
# 2 46.3774 69.3610 20.9525 0.0000 0.0000 0.0000
# 3 20.9525 20.9525 71.5418 0.0000 0.0000 0.0000
# 4 0.0000 0.0000 0.0000 68.2810 0.0000 0.0000
# 5 0.0000 0.0000 0.0000 0.0000 68.2810 0.0000
# 6 0.0000 0.0000 0.0000 0.0000 0.0000 11.4918
#
#
#
# Elastic Compliance Matrix: (Units=1/GPa)
#
#
# Indices 1 2 3 4 5 6 
#
# 1 0.026587 -0.016922 -0.002831 0.000000 0.000000 0.000000
# 2 -0.016922 0.026587 -0.002831 0.000000 0.000000 0.000000
# 3 -0.002831 -0.002831 0.015636 0.000000 0.000000 0.000000
# 4 0.000000 0.000000 0.000000 0.014645 0.000000 0.000000
# 5 0.000000 0.000000 0.000000 0.000000 0.014645 0.000000
# 6 0.000000 0.000000 0.000000 0.000000 0.000000 0.087019
#
#
# Mechanical properties :
#
#
# Convention : Reuss Voigt Hill
#
# Bulk Modulus (GPa) = 42.29494 42.98097 42.63796
# Shear Modulus (GPa) = 20.99360 37.74282 29.36821
#
# Velocity S-wave (km/s) = 3.32687 4.46077 3.93488
# Velocity P-wave (km/s) = 6.08735 7.01366 6.56686
#
# Compressibility (1/GPa) = 0.02364349
#
# Stress axis : x y z
#
# Youngs Moduli (GPa) = 37.61206 37.61206 63.95560
#
# Poissons Ratio (x) = 0.63648 0.18103
# Poissons Ratio (y) = 0.63648 0.18103
# Poissons Ratio (z) = 0.10647 0.10647
#
# Static dielectric constant tensor:
#      x y z
#    x 1.663990 0.000000 0.000000 
#    y 0.000000 1.663990 0.000000 
#    z 0.000000 0.000000 1.701020 
# 
# From -- ./inp_files/5353.got.cif
#   From: 2010.05.17/outbox.cif.g08.bks.cpg/sg191_3_cif.got.tgz:5353.got - 2010.05.20 12:20:32.
