data_PCOD9588127
_publ_section_title
;
Structure prediction by ZEFSAII (Michael W. Deem and Ramdas Pophale) SiO2 
 PCOD9588127
Probable space group: P 6/M M M
;
_chemical_formula_sum "Si O2"
_cell_formula_units_Z 120
_cell_length_a 18.773750
_cell_length_b 18.773750
_cell_length_c 24.611777
_cell_angle_alpha 90.000000
_cell_angle_beta 90.000000
_cell_angle_gamma 120.000000
_cell_volume 7512.347409
_symmetry_space_group_name_H-M "P 6/M M M"
_symmetry_group_IT_number 191
_symmetry_cell_setting 'hexagonal'
loop_
_space_group_symop_operation_xyz
x,y,z
x-y,x,z
-y,x-y,z
-x,-y,z
-x+y,-x,z
y,-x+y,z
x-y,-y,-z
-x,-x+y,-z
y,x,-z
-y,-x,-z
-x+y,y,-z
x,x-y,-z
-x,-y,-z
-x+y,-x,-z
y,-x+y,-z
x,y,-z
x-y,x,-z
-y,x-y,-z
-x+y,y,z
x,x-y,z
-y,-x,z
y,x,z
x-y,-y,z
-x,-x+y,z
loop_
_atom_site_type_symbol
_atom_site_label
_atom_site_fract_x
_atom_site_fract_y
_atom_site_fract_z
Si Si1 0.833668 0.499646 0.767001
Si Si2 0.650652 0.906903 0.563913
Si Si3 0.095868 0.904133 0.066096
Si Si4 0.501800 0.666047 0.354901
Si Si5 0.192043 0.807958 0.065139
Si Si6 0.904557 0.533578 0.117064
O O1 0.754781 0.509562 0.776258
O O2 0.806523 0.403262 0.765839
O O3 0.867432 0.531078 0.706640
O O4 0.893540 0.537590 0.817965
O O5 0.628386 0.900310 0.500000
O O6 0.675665 0.837833 0.574967
O O7 0.572369 0.884528 0.601326
O O8 0.720887 0.000000 0.574218
O O9 0.143867 0.856134 0.082664
O O10 0.000000 0.856056 0.083397
O O11 0.095481 0.904520 0.000000
O O12 0.482616 0.741308 0.355514
O O13 0.419719 0.580282 0.365975
O O14 0.284671 0.853611 0.087367
O O15 0.192579 0.807422 0.000000
O O16 0.877088 0.438544 0.104562
O O17 0.000000 0.587385 0.102429
#
# Coordination Sequence:
#
# PCOD9588127 Si02
#       6
#    24  24  12  24  12  24
#     4   9  16  29  49  72  96 125 162 203 244 280
#     4   9  18  32  48  67  94 128 164 203 249 298
#     4   9  17  30  51  78 104 128 156 192 235 288
#     4   9  17  28  45  70 100 133 169 203 236 273
#     4  11  22  37  54  73  98 132 166 199 242 299
#     4  10  21  36  53  74 100 129 162 204 252 295
#
# _framework density 15.973703
#
# number of rings (size 3 to 8) (size 9 to 14) (size 15 to 20)
#    0.000    2.600    1.000    1.100    0.000    5.200 
#    0.600    4.000    0.000    1.400    0.000    1.400 
#    0.000    0.000    0.000    0.000    0.000    0.000 
#
# Total GULP energy -668544.310901 kJ/mol
# GULP energy per Si atom -5571.202591 kJ/mol
# Density = 1.593735 g / cm^3
# Si number density = 15.973703 Si / 1000 Ang^3
#
#
#
# Elastic Constant Matrix: (Units=GPa)
#
#
# Indices 1 2 3 4 5 6 
#
# 1 103.2854 70.7474 47.1812 0.0000 0.0000 0.0000
# 2 70.7474 103.2854 47.1812 0.0000 0.0000 0.0000
# 3 47.1812 47.1812 58.5810 0.0000 0.0000 0.0000
# 4 0.0000 0.0000 0.0000 15.9121 0.0000 0.0000
# 5 0.0000 0.0000 0.0000 0.0000 15.9121 0.0000
# 6 0.0000 0.0000 0.0000 0.0000 0.0000 16.2690
#
#
#
# Elastic Compliance Matrix: (Units=1/GPa)
#
#
# Indices 1 2 3 4 5 6 
#
# 1 0.020467 -0.010266 -0.008216 0.000000 0.000000 0.000000
# 2 -0.010266 0.020467 -0.008216 0.000000 0.000000 0.000000
# 3 -0.008216 -0.008216 0.030304 0.000000 0.000000 0.000000
# 4 0.000000 0.000000 0.000000 0.062845 0.000000 0.000000
# 5 0.000000 0.000000 0.000000 0.000000 0.062845 0.000000
# 6 0.000000 0.000000 0.000000 0.000000 0.000000 0.061467
#
#
# Mechanical properties :
#
#
# Convention : Reuss Voigt Hill
#
# Bulk Modulus (GPa) = 56.04457 66.15240 61.09849
# Shear Modulus (GPa) = 15.73622 16.28808 16.01215
#
# Velocity S-wave (km/s) = 3.14209 3.19671 3.16952
# Velocity P-wave (km/s) = 6.95164 7.42486 7.19214
#
# Compressibility (1/GPa) = 0.01784294
#
# Stress axis : x y z
#
# Youngs Moduli (GPa) = 48.85921 48.85921 32.99885
#
# Poissons Ratio (x) = 0.50161 0.27111
# Poissons Ratio (y) = 0.50161 0.27111
# Poissons Ratio (z) = 0.40141 0.40141
#
# Static dielectric constant tensor:
#      x y z
#    x 1.521050 0.000000 0.000000 
#    y 0.000000 1.521050 0.000000 
#    z 0.000000 0.000000 1.542150 
# 
# From -- ./inp_files/8633.got.cif
#   From: 2010.05.17/outbox.cif.g08.bks.cpg/sg191_5_cif.got.tgz:8633.got - 2010.05.20 12:20:32.
