data_PCOD9588442
_publ_section_title
;
Structure prediction by ZEFSAII (Michael W. Deem and Ramdas Pophale) SiO2 
 PCOD9588442
Probable space group: P 6/M C C
;
_chemical_formula_sum "Si O2"
_cell_formula_units_Z 72
_cell_length_a 16.755756
_cell_length_b 16.755756
_cell_length_c 14.588621
_cell_angle_alpha 90.000000
_cell_angle_beta 90.000000
_cell_angle_gamma 120.000000
_cell_volume 3547.095885
_symmetry_space_group_name_H-M "P 6/M C C"
_symmetry_group_IT_number 192
_symmetry_cell_setting 'hexagonal'
loop_
_space_group_symop_operation_xyz
x,y,z
x-y,x,z
-y,x-y,z
-x,-y,z
-x+y,-x,z
y,-x+y,z
x-y,-y,1/2-z
-x,-x+y,1/2-z
y,x,1/2-z
-y,-x,1/2-z
-x+y,y,1/2-z
x,x-y,1/2-z
-x,-y,-z
-x+y,-x,-z
y,-x+y,-z
x,y,-z
x-y,x,-z
-y,x-y,-z
-x+y,y,1/2+z
x,x-y,1/2+z
-y,-x,1/2+z
y,x,1/2+z
x-y,-y,1/2+z
-x,-x+y,1/2+z
loop_
_atom_site_type_symbol
_atom_site_label
_atom_site_fract_x
_atom_site_fract_y
_atom_site_fract_z
Si Si1 0.216171 0.413638 0.646985
Si Si2 0.209371 0.067013 0.388594
Si Si3 0.659439 0.088599 0.500000
Si Si4 0.491842 0.366863 0.000000
O O1 0.223174 0.446347 0.750000
O O2 0.204126 0.311807 0.649029
O O3 0.129414 0.403912 0.588556
O O4 0.305252 0.480236 0.588058
O O5 0.173472 0.136680 0.361717
O O6 0.216059 0.068506 0.500000
O O7 0.586198 0.123930 0.500000
O O8 0.595648 0.978795 0.500000
#
# Coordination Sequence:
#
# PCOD9588442 Si02
#       4
#    24  24  12  12
#     4  11  23  39  62  92 123 158 201 255 311 365
#     4  10  19  33  55  86 126 170 210 244 280 332
#     4  10  22  42  65  87 117 157 202 252 308 373
#     4  10  22  42  65  87 117 157 202 252 308 373
#
# _framework density 20.298293999999999
#
# number of rings (size 3 to 8) (size 9 to 14) (size 15 to 20)
#    0.000    1.667    3.333    2.333    0.000    8.000 
#    8.000    3.333    0.000    2.000    0.000    0.000 
#    0.000    0.000    0.000    0.000    0.000    0.000 
#
# Total GULP energy -402717.420725 kJ/mol
# GULP energy per Si atom -5593.297510 kJ/mol
# Density = 2.025209 g / cm^3
# Si number density = 20.298294 Si / 1000 Ang^3
#
#
#
# Elastic Constant Matrix: (Units=GPa)
#
#
# Indices 1 2 3 4 5 6 
#
# 1 59.1406 -0.7786 17.3520 0.0000 0.0000 0.0000
# 2 -0.7786 59.1406 17.3520 0.0000 0.0000 0.0000
# 3 17.3520 17.3520 138.8184 0.0000 0.0000 0.0000
# 4 0.0000 0.0000 0.0000 2.2087 0.0000 0.0000
# 5 0.0000 0.0000 0.0000 0.0000 2.2087 0.0000
# 6 0.0000 0.0000 0.0000 0.0000 0.0000 29.9596
#
#
#
# Elastic Compliance Matrix: (Units=1/GPa)
#
#
# Indices 1 2 3 4 5 6 
#
# 1 0.017600 0.000911 -0.002314 0.000000 0.000000 0.000000
# 2 0.000911 0.017600 -0.002314 0.000000 0.000000 0.000000
# 3 -0.002314 -0.002314 0.007782 0.000000 0.000000 0.000000
# 4 0.000000 0.000000 0.000000 0.452747 0.000000 0.000000
# 5 0.000000 0.000000 0.000000 0.000000 0.452747 0.000000
# 6 0.000000 0.000000 0.000000 0.000000 0.000000 0.033378
#
#
# Mechanical properties :
#
#
# Convention : Reuss Voigt Hill
#
# Bulk Modulus (GPa) = 28.13126 36.10561 32.11843
# Shear Modulus (GPa) = 4.99432 21.75369 13.37401
#
# Velocity S-wave (km/s) = 1.57029 3.27724 2.56964
# Velocity P-wave (km/s) = 4.14448 5.66979 4.96605
#
# Compressibility (1/GPa) = 0.03554765
#
# Stress axis : x y z
#
# Youngs Moduli (GPa) = 56.81912 56.81912 128.50027
#
# Poissons Ratio (x) = -0.05174 0.29732
# Poissons Ratio (y) = -0.05174 0.29732
# Poissons Ratio (z) = 0.13147 0.13147
#
# Static dielectric constant tensor:
#      x y z
#    x 1.704370 0.000000 0.000000 
#    y 0.000000 1.704370 0.000000 
#    z 0.000000 0.000000 1.751000 
# 
# From -- ./inp_files/2480.got.cif
#   From: 2010.05.17/outbox.cif.g08.bks.cpg/sg192_2_cif.got.tgz:2480.got - 2010.05.20 12:28:01.
