data_PCOD9588280
_publ_section_title
;
Structure prediction by ZEFSAII (Michael W. Deem and Ramdas Pophale) SiO2 
 PCOD9588280
Probable space group: P 6/M C C
;
_chemical_formula_sum "Si O2"
_cell_formula_units_Z 168
_cell_length_a 25.839145
_cell_length_b 25.839145
_cell_length_c 14.568799
_cell_angle_alpha 90.000000
_cell_angle_beta 90.000000
_cell_angle_gamma 120.000000
_cell_volume 8423.850706
_symmetry_space_group_name_H-M "P 6/M C C"
_symmetry_group_IT_number 192
_symmetry_cell_setting 'hexagonal'
loop_
_space_group_symop_operation_xyz
x,y,z
x-y,x,z
-y,x-y,z
-x,-y,z
-x+y,-x,z
y,-x+y,z
x-y,-y,1/2-z
-x,-x+y,1/2-z
y,x,1/2-z
-y,-x,1/2-z
-x+y,y,1/2-z
x,x-y,1/2-z
-x,-y,-z
-x+y,-x,-z
y,-x+y,-z
x,y,-z
x-y,x,-z
-y,x-y,-z
-x+y,y,1/2+z
x,x-y,1/2+z
-y,-x,1/2+z
y,x,1/2+z
x-y,-y,1/2+z
-x,-x+y,1/2+z
loop_
_atom_site_type_symbol
_atom_site_label
_atom_site_fract_x
_atom_site_fract_y
_atom_site_fract_z
Si Si1 0.006158 0.791339 0.647335
Si Si2 0.105776 0.653709 0.388341
Si Si3 0.543923 0.069208 0.387912
Si Si4 0.592269 0.786337 0.109099
Si Si5 0.120188 0.440611 0.611978
Si Si6 0.999383 0.326584 0.889332
Si Si7 0.265114 0.135722 0.639371
O O1 0.939214 0.762204 0.607273
O O2 0.000000 0.810113 0.750000
O O3 0.019356 0.736600 0.652326
O O4 0.067525 0.842885 0.604613
O O5 0.108402 0.654430 0.500000
O O6 0.106455 0.594565 0.359617
O O7 0.154009 0.719282 0.354337
O O8 0.042079 0.646963 0.364260
O O9 0.545410 0.067949 0.500000
O O10 0.612555 0.099628 0.356936
O O11 0.500000 0.000000 0.360435
O O12 0.557557 0.819754 0.143336
O O13 0.664175 0.828348 0.119361
O O14 0.582962 0.779886 0.000000
O O15 0.121568 0.443343 0.500000
O O16 0.067286 0.374828 0.637243
O O17 0.002325 0.322090 0.000000
O O18 0.262017 0.131009 0.750000
#
# Coordination Sequence:
#
# PCOD9588280 Si02
#       7
#    24  24  24  24  24  24  24
#     4  10  20  32  45  64  91 120 146 173 216 270
#     4   9  16  24  38  62  90 115 142 176 215 257
#     4   9  14  22  36  57  85 114 142 172 208 249
#     4  10  18  28  44  67  91 114 144 185 225 260
#     4   9  16  24  38  62  90 115 142 176 215 257
#     4  10  16  25  44  68  89 113 145 179 214 260
#     4  10  20  32  46  65  89 119 147 175 217 268
#
# _framework density 19.943373999999999
#
# number of rings (size 3 to 8) (size 9 to 14) (size 15 to 20)
#    0.000    2.429    4.286    0.000    0.000    0.000 
#    0.000    0.000    0.000    0.857    0.000   11.000 
#    0.000    0.000    0.000    2.571    0.000    2.857 
#
# Total GULP energy -936959.725068 kJ/mol
# GULP energy per Si atom -5577.141221 kJ/mol
# Density = 1.989798 g / cm^3
# Si number density = 19.943374 Si / 1000 Ang^3
#
#
#
# Elastic Constant Matrix: (Units=GPa)
#
#
# Indices 1 2 3 4 5 6 
#
# 1 122.4501 52.9242 -12.9730 0.0000 0.0000 0.0000
# 2 52.9242 122.4501 -12.9730 0.0000 0.0000 0.0000
# 3 -12.9730 -12.9730 61.0581 0.0000 0.0000 0.0000
# 4 0.0000 0.0000 0.0000 3.9089 0.0000 0.0000
# 5 0.0000 0.0000 0.0000 0.0000 3.9089 0.0000
# 6 0.0000 0.0000 0.0000 0.0000 0.0000 34.7629
#
#
#
# Elastic Compliance Matrix: (Units=1/GPa)
#
#
# Indices 1 2 3 4 5 6 
#
# 1 0.010135 -0.004248 0.001251 0.000000 0.000000 0.000000
# 2 -0.004248 0.010135 0.001251 0.000000 0.000000 0.000000
# 3 0.001251 0.001251 0.016909 0.000000 0.000000 0.000000
# 4 0.000000 0.000000 0.000000 0.255824 0.000000 0.000000
# 5 0.000000 0.000000 0.000000 0.000000 0.255824 0.000000
# 6 0.000000 0.000000 0.000000 0.000000 0.000000 0.028766
#
#
# Mechanical properties :
#
#
# Convention : Reuss Voigt Hill
#
# Bulk Modulus (GPa) = 29.68502 39.99051 34.83777
# Shear Modulus (GPa) = 8.44144 27.11483 17.77814
#
# Velocity S-wave (km/s) = 2.05959 3.69126 2.98892
# Velocity P-wave (km/s) = 4.53573 6.18569 5.42382
#
# Compressibility (1/GPa) = 0.03368703
#
# Stress axis : x y z
#
# Youngs Moduli (GPa) = 98.66660 98.66660 59.13881
#
# Poissons Ratio (x) = 0.41914 -0.07397
# Poissons Ratio (y) = 0.41914 -0.07397
# Poissons Ratio (z) = -0.12342 -0.12342
#
# Static dielectric constant tensor:
#      x y z
#    x 1.697440 0.000000 0.000000 
#    y 0.000000 1.697440 0.000000 
#    z 0.000000 0.000000 1.813700 
# 
# From -- ./inp_files/5339.got.cif
#   From: 2010.05.17/outbox.cif.g08.bks.cpg/sg192_3_cif.got.tgz:5339.got - 2010.05.20 12:28:01.
