data_PCOD9588777
_publ_section_title
;
Structure prediction by ZEFSAII (Michael W. Deem and Ramdas Pophale) SiO2 
 PCOD9588777
Probable space group: P 6/M C C
;
_chemical_formula_sum "Si O2"
_cell_formula_units_Z 92
_cell_length_a 21.678453
_cell_length_b 21.678453
_cell_length_c 14.556228
_cell_angle_alpha 90.000000
_cell_angle_beta 90.000000
_cell_angle_gamma 120.000000
_cell_volume 5924.286536
_symmetry_space_group_name_H-M "P 6/M C C"
_symmetry_group_IT_number 192
_symmetry_cell_setting 'hexagonal'
loop_
_space_group_symop_operation_xyz
x,y,z
x-y,x,z
-y,x-y,z
-x,-y,z
-x+y,-x,z
y,-x+y,z
x-y,-y,1/2-z
-x,-x+y,1/2-z
y,x,1/2-z
-y,-x,1/2-z
-x+y,y,1/2-z
x,x-y,1/2-z
-x,-y,-z
-x+y,-x,-z
y,-x+y,-z
x,y,-z
x-y,x,-z
-y,x-y,-z
-x+y,y,1/2+z
x,x-y,1/2+z
-y,-x,1/2+z
y,x,1/2+z
x-y,-y,1/2+z
-x,-x+y,1/2+z
loop_
_atom_site_type_symbol
_atom_site_label
_atom_site_fract_x
_atom_site_fract_y
_atom_site_fract_z
Si Si1 0.516202 0.102935 0.894541
Si Si2 0.401134 0.401134 0.750000
Si Si3 0.666667 0.333334 0.362096
Si Si4 0.891810 0.557342 0.103049
Si Si5 0.244964 0.508713 0.640793
O O1 0.596695 0.118636 0.878607
O O2 0.505892 0.171276 0.881895
O O3 0.463777 0.045205 0.822365
O O4 0.498707 0.078471 0.000000
O O5 0.394372 0.338035 0.815723
O O6 0.666668 0.333334 0.250000
O O7 0.695545 0.413264 0.392825
O O8 0.813593 0.548376 0.104892
O O9 0.921465 0.578842 0.000000
O O10 0.253756 0.507511 0.750000
#
# Coordination Sequence:
#
# PCOD9588777 Si02
#       5
#    24  12   8  24  24
#     4  11  22  34  49  67  86 111 143 178 220 270
#     4  12  23  36  48  60  86 118 144 172 210 267
#     4   9  18  27  49  65  85 112 137 175 235 278
#     4  11  22  34  49  67  86 111 143 178 220 270
#     4  11  19  33  51  68  87 112 139 181 232 272
#
# _framework density 15.529296
#
# number of rings (size 3 to 8) (size 9 to 14) (size 15 to 20)
#    0.000    1.043    5.217    3.913    0.000    2.087 
#    0.000    0.000    0.000    0.000    0.000    0.000 
#    0.000    0.000    0.000    0.000    0.000    0.000 
#
# Total GULP energy -513652.408433 kJ/mol
# GULP energy per Si atom -5583.178353 kJ/mol
# Density = 1.549395 g / cm^3
# Si number density = 15.529296 Si / 1000 Ang^3
#
#
#
# Elastic Constant Matrix: (Units=GPa)
#
#
# Indices 1 2 3 4 5 6 
#
# 1 46.9357 16.1396 16.8570 0.0000 0.0000 -0.0001
# 2 16.1396 46.9357 16.8570 0.0000 0.0000 -0.0001
# 3 16.8570 16.8570 107.2263 0.0001 0.0001 0.0000
# 4 0.0000 0.0000 0.0001 14.9077 0.0002 0.0000
# 5 0.0000 0.0000 0.0001 0.0002 14.9079 0.0000
# 6 -0.0001 -0.0001 0.0000 0.0000 0.0000 15.3980
#
#
#
# Elastic Compliance Matrix: (Units=1/GPa)
#
#
# Indices 1 2 3 4 5 6 
#
# 1 0.024890 -0.007582 -0.002721 0.000000 0.000000 0.000000
# 2 -0.007582 0.024890 -0.002721 0.000000 0.000000 0.000000
# 3 -0.002721 -0.002721 0.010182 0.000000 0.000000 0.000000
# 4 0.000000 0.000000 0.000000 0.067080 -0.000001 0.000000
# 5 0.000000 0.000000 0.000000 -0.000001 0.067079 0.000000
# 6 0.000000 0.000000 0.000000 0.000000 0.000000 0.064943
#
#
# Mechanical properties :
#
#
# Convention : Reuss Voigt Hill
#
# Bulk Modulus (GPa) = 29.48605 33.42278 31.45441
# Shear Modulus (GPa) = 16.86822 19.12566 17.99694
#
# Velocity S-wave (km/s) = 3.29936 3.51320 3.40796
# Velocity P-wave (km/s) = 5.79163 6.16652 5.98201
#
# Compressibility (1/GPa) = 0.03391434
#
# Stress axis : x y z
#
# Youngs Moduli (GPa) = 40.17669 40.17671 98.21615
#
# Poissons Ratio (x) = 0.30460 0.26725
# Poissons Ratio (y) = 0.30460 0.26725
# Poissons Ratio (z) = 0.10932 0.10932
#
# Static dielectric constant tensor:
#      x y z
#    x 1.534520 0.000000 0.000000 
#    y 0.000000 1.534520 0.000000 
#    z 0.000000 0.000000 1.600510 
# 
# From -- ./inp_files/2778.got.cif
#   From: 2010.05.17/outbox.cif.g08.bks.cpg/sg192_2_cif.got.tgz:2778.got - 2010.05.20 12:28:01.
