data_PCOD9588236
_publ_section_title
;
Structure prediction by ZEFSAII (Michael W. Deem and Ramdas Pophale) SiO2 
 PCOD9588236
Probable space group: P 6/M M M
;
_chemical_formula_sum "Si O2"
_cell_formula_units_Z 84
_cell_length_a 27.678312
_cell_length_b 27.678312
_cell_length_c 7.416656
_cell_angle_alpha 90.000000
_cell_angle_beta 90.000000
_cell_angle_gamma 120.000000
_cell_volume 4920.598941
_symmetry_space_group_name_H-M "P 6/M M M"
_symmetry_group_IT_number 191
_symmetry_cell_setting 'hexagonal'
loop_
_space_group_symop_operation_xyz
x,y,z
x-y,x,z
-y,x-y,z
-x,-y,z
-x+y,-x,z
y,-x+y,z
x-y,-y,-z
-x,-x+y,-z
y,x,-z
-y,-x,-z
-x+y,y,-z
x,x-y,-z
-x,-y,-z
-x+y,-x,-z
y,-x+y,-z
x,y,-z
x-y,x,-z
-y,x-y,-z
-x+y,y,z
x,x-y,z
-y,-x,z
y,x,z
x-y,-y,z
-x,-x+y,z
loop_
_atom_site_type_symbol
_atom_site_label
_atom_site_fract_x
_atom_site_fract_y
_atom_site_fract_z
Si Si1 0.235874 0.363460 0.284607
Si Si2 0.466141 0.533860 0.709784
Si Si3 0.638088 0.573261 0.721070
Si Si4 0.937547 0.766787 0.783772
O O1 0.238069 0.371181 0.500000
O O2 0.187381 0.374761 0.214001
O O3 0.298614 0.401450 0.217115
O O4 0.213993 0.298217 0.252413
O O5 0.500000 0.500000 0.714140
O O6 0.457632 0.542369 0.500000
O O7 0.405609 0.489556 0.784007
O O8 0.637463 0.572255 0.500000
O O9 0.613152 0.613152 0.772672
O O10 0.889314 0.778627 0.715078
O O11 0.000000 0.805477 0.714129
O O12 0.939360 0.773144 0.000000
#
# Coordination Sequence:
#
# PCOD9588236 Si02
#       4
#    24  12  24  24
#     4   9  16  24  35  53  75  94 113 141 176 211
#     4   7  10  16  26  42  63  85 109 135 161 189
#     4   8  12  18  29  45  66  89 111 137 167 196
#     4   9  17  28  40  53  70  93 119 144 172 210
#
# _framework density 17.071092
#
# number of rings (size 3 to 8) (size 9 to 14) (size 15 to 20)
#    0.000    3.571    0.000    2.571    0.000    1.714 
#    0.000    0.000    0.000    0.286    0.000    3.000 
#    1.429    5.714    4.286    7.143    0.000    7.429 
#
# Total GULP energy -467769.471782 kJ/mol
# GULP energy per Si atom -5568.684188 kJ/mol
# Density = 1.703224 g / cm^3
# Si number density = 17.071092 Si / 1000 Ang^3
#
#
#
# Elastic Constant Matrix: (Units=GPa)
#
#
# Indices 1 2 3 4 5 6 
#
# 1 151.7002 96.8488 6.1268 0.0000 0.0000 0.0000
# 2 96.8488 151.7002 6.1268 0.0000 0.0000 0.0000
# 3 6.1268 6.1268 56.5338 0.0000 0.0000 0.0000
# 4 0.0000 0.0000 0.0000 3.2390 0.0000 0.0000
# 5 0.0000 0.0000 0.0000 0.0000 3.2390 0.0000
# 6 0.0000 0.0000 0.0000 0.0000 0.0000 27.4257
#
#
#
# Elastic Compliance Matrix: (Units=1/GPa)
#
#
# Indices 1 2 3 4 5 6 
#
# 1 0.011138 -0.007093 -0.000438 0.000000 0.000000 0.000000
# 2 -0.007093 0.011138 -0.000438 0.000000 0.000000 0.000000
# 3 -0.000438 -0.000438 0.017784 0.000000 0.000000 0.000000
# 4 0.000000 0.000000 0.000000 0.308738 0.000000 0.000000
# 5 0.000000 0.000000 0.000000 0.000000 0.308738 0.000000
# 6 0.000000 0.000000 0.000000 0.000000 0.000000 0.036462
#
#
# Mechanical properties :
#
#
# Convention : Reuss Voigt Hill
#
# Bulk Modulus (GPa) = 41.45940 64.23769 52.84854
# Shear Modulus (GPa) = 6.96402 23.50285 15.23343
#
# Velocity S-wave (km/s) = 2.02195 3.71450 2.99047
# Velocity P-wave (km/s) = 5.45803 7.49052 6.55355
#
# Compressibility (1/GPa) = 0.02411998
#
# Stress axis : x y z
#
# Youngs Moduli (GPa) = 89.78251 89.78251 56.23179
#
# Poissons Ratio (x) = 0.63683 0.02465
# Poissons Ratio (y) = 0.63683 0.02465
# Poissons Ratio (z) = 0.03936 0.03936
#
# Static dielectric constant tensor:
#      x y z
#    x 1.581330 0.000000 0.000000 
#    y 0.000000 1.581330 0.000000 
#    z 0.000000 0.000000 1.667690 
# 
# From -- ./inp_files/2629.got.cif
#   From: 2010.05.17/outbox.cif.g08.bks.cpg/sg191_2_cif.got.tgz:2629.got - 2010.05.20 12:20:32.
