data_PCOD9588200
_publ_section_title
;
Structure prediction by ZEFSAII (Michael W. Deem and Ramdas Pophale) SiO2 
 PCOD9588200
Probable space group: P 6/M M M
;
_chemical_formula_sum "Si O2"
_cell_formula_units_Z 108
_cell_length_a 22.198255
_cell_length_b 22.198255
_cell_length_c 16.562636
_cell_angle_alpha 90.000000
_cell_angle_beta 90.000000
_cell_angle_gamma 120.000000
_cell_volume 7068.019859
_symmetry_space_group_name_H-M "P 6/M M M"
_symmetry_group_IT_number 191
_symmetry_cell_setting 'hexagonal'
loop_
_space_group_symop_operation_xyz
x,y,z
x-y,x,z
-y,x-y,z
-x,-y,z
-x+y,-x,z
y,-x+y,z
x-y,-y,-z
-x,-x+y,-z
y,x,-z
-y,-x,-z
-x+y,y,-z
x,x-y,-z
-x,-y,-z
-x+y,-x,-z
y,-x+y,-z
x,y,-z
x-y,x,-z
-y,x-y,-z
-x+y,y,z
x,x-y,z
-y,-x,z
y,x,z
x-y,-y,z
-x,-x+y,z
loop_
_atom_site_type_symbol
_atom_site_label
_atom_site_fract_x
_atom_site_fract_y
_atom_site_fract_z
Si Si1 0.710814 0.148744 0.346816
Si Si2 0.666232 0.476198 0.816887
Si Si3 0.879264 0.266492 0.909985
Si Si4 0.529095 0.916691 0.500000
Si Si5 0.780640 0.077933 0.247019
O O1 0.778054 0.221946 0.370630
O O2 0.674336 0.165040 0.272156
O O3 0.659614 0.113893 0.420804
O O4 0.740644 0.101215 0.310386
O O5 0.732261 0.464521 0.827354
O O6 0.594600 0.405401 0.826329
O O7 0.676320 0.536638 0.878762
O O8 0.804937 0.195063 0.912560
O O9 0.919793 0.251306 0.840248
O O10 0.909158 0.280741 0.000000
O O11 0.449245 0.898490 0.500000
O O12 0.575963 0.000000 0.500000
O O13 0.861164 0.138837 0.247904
O O14 0.763472 0.000000 0.263094
#
# Coordination Sequence:
#
# PCOD9588200 Si02
#       5
#    24  24  24  12  24
#     4   9  18  32  47  62  84 116 150 183 218 256
#     4   9  16  26  41  60  83 112 147 186 226 265
#     4   8  15  27  41  59  84 114 146 178 213 252
#     4  11  21  30  44  66  90 115 145 183 226 268
#     4   9  17  30  49  70  90 113 142 176 213 255
#
# _framework density 15.280093000000001
#
# number of rings (size 3 to 8) (size 9 to 14) (size 15 to 20)
#    0.000    3.000    0.000    4.556    0.000    0.889 
#    0.000    0.000    0.000   10.667    0.000    6.222 
#    0.000    0.000    0.000    5.556    0.000   23.111 
#
# Total GULP energy -601536.277584 kJ/mol
# GULP energy per Si atom -5569.780348 kJ/mol
# Density = 1.524531 g / cm^3
# Si number density = 15.280093 Si / 1000 Ang^3
#
#
#
# Elastic Constant Matrix: (Units=GPa)
#
#
# Indices 1 2 3 4 5 6 
#
# 1 79.3010 47.2153 33.6877 0.0000 0.0000 0.0000
# 2 47.2153 79.3010 33.6877 0.0000 0.0000 0.0000
# 3 33.6877 33.6877 86.7803 0.0000 0.0000 0.0000
# 4 0.0000 0.0000 0.0000 5.3508 0.0000 0.0000
# 5 0.0000 0.0000 0.0000 0.0000 5.3508 0.0000
# 6 0.0000 0.0000 0.0000 0.0000 0.0000 16.0428
#
#
#
# Elastic Compliance Matrix: (Units=1/GPa)
#
#
# Indices 1 2 3 4 5 6 
#
# 1 0.020565 -0.010601 -0.003868 0.000000 0.000000 0.000000
# 2 -0.010601 0.020565 -0.003868 0.000000 0.000000 0.000000
# 3 -0.003868 -0.003868 0.014526 0.000000 0.000000 0.000000
# 4 0.000000 0.000000 0.000000 0.186886 0.000000 0.000000
# 5 0.000000 0.000000 0.000000 0.000000 0.186886 0.000000
# 6 0.000000 0.000000 0.000000 0.000000 0.000000 0.062333
#
#
# Mechanical properties :
#
#
# Convention : Reuss Voigt Hill
#
# Bulk Modulus (GPa) = 52.68012 52.72929 52.70470
# Shear Modulus (GPa) = 9.34991 14.06835 11.70913
#
# Velocity S-wave (km/s) = 2.47635 3.03759 2.77121
# Velocity P-wave (km/s) = 6.53663 6.84734 6.69379
#
# Compressibility (1/GPa) = 0.01898249
#
# Stress axis : x y z
#
# Youngs Moduli (GPa) = 48.62567 48.62567 68.84019
#
# Poissons Ratio (x) = 0.51549 0.26627
# Poissons Ratio (y) = 0.51549 0.26627
# Poissons Ratio (z) = 0.18808 0.18808
#
# Static dielectric constant tensor:
#      x y z
#    x 1.492400 0.000000 0.000000 
#    y 0.000000 1.492400 0.000000 
#    z 0.000000 0.000000 1.514330 
# 
# From -- ./inp_files/6063.got.cif
#   From: 2010.05.17/outbox.cif.g08.bks.cpg/sg191_4_cif.got.tgz:6063.got - 2010.05.20 12:20:32.
