data_PCOD9588501
_publ_section_title
;
Structure prediction by ZEFSAII (Michael W. Deem and Ramdas Pophale) SiO2 
 PCOD9588501
Probable space group: P 6/M C C
;
_chemical_formula_sum "Si O2"
_cell_formula_units_Z 144
_cell_length_a 33.203468
_cell_length_b 33.203468
_cell_length_c 8.727305
_cell_angle_alpha 90.000000
_cell_angle_beta 90.000000
_cell_angle_gamma 120.000000
_cell_volume 8332.545219
_symmetry_space_group_name_H-M "P 6/M C C"
_symmetry_group_IT_number 192
_symmetry_cell_setting 'hexagonal'
loop_
_space_group_symop_operation_xyz
x,y,z
x-y,x,z
-y,x-y,z
-x,-y,z
-x+y,-x,z
y,-x+y,z
x-y,-y,1/2-z
-x,-x+y,1/2-z
y,x,1/2-z
-y,-x,1/2-z
-x+y,y,1/2-z
x,x-y,1/2-z
-x,-y,-z
-x+y,-x,-z
y,-x+y,-z
x,y,-z
x-y,x,-z
-y,x-y,-z
-x+y,y,1/2+z
x,x-y,1/2+z
-y,-x,1/2+z
y,x,1/2+z
x-y,-y,1/2+z
-x,-x+y,1/2+z
loop_
_atom_site_type_symbol
_atom_site_label
_atom_site_fract_x
_atom_site_fract_y
_atom_site_fract_z
Si Si1 0.384379 0.949351 0.816521
Si Si2 0.767512 0.716425 0.316429
Si Si3 0.137865 0.612612 0.184516
Si Si4 0.616704 0.898667 0.815808
Si Si5 0.949229 0.139017 0.683208
Si Si6 0.805730 0.281065 0.816543
O O1 0.396083 0.910975 0.752225
O O2 0.332342 0.933119 0.756767
O O3 0.418808 0.000000 0.750000
O O4 0.385208 0.949836 0.000000
O O5 0.732253 0.732253 0.250000
O O6 0.763084 0.712737 0.500000
O O7 0.754749 0.667270 0.244814
O O8 0.819037 0.758254 0.277288
O O9 0.148959 0.574480 0.250000
O O10 0.175650 0.665527 0.228897
O O11 0.134722 0.610162 0.000000
O O12 0.576421 0.846782 0.772204
O O13 0.616948 0.902711 0.000000
O O14 0.908947 0.091054 0.750000
O O15 0.950514 0.136480 0.500000
O O16 0.000000 0.154683 0.750000
O O17 0.756927 0.243074 0.750000
O O18 0.802861 0.279073 0.000000
#
# Coordination Sequence:
#
# PCOD9588501 Si02
#       6
#    24  24  24  24  24  24
#     4  11  21  34  52  75 105 143 182 222 262 305
#     4  10  20  33  50  74 104 142 183 222 262 306
#     4  10  21  38  57  81 107 135 171 213 260 313
#     4  10  20  34  50  73 106 143 182 224 262 304
#     4  10  21  37  57  80 107 138 175 217 265 318
#     4   9  20  36  55  78 105 134 169 210 256 308
#
# _framework density 17.281634
#
# number of rings (size 3 to 8) (size 9 to 14) (size 15 to 20)
#    0.000    2.000    0.000    5.000    0.000    7.000 
#    0.000    5.000    0.000    0.500    0.000    1.167 
#    0.000    0.000    0.000    0.000    0.000    0.000 
#
# Total GULP energy -804195.615468 kJ/mol
# GULP energy per Si atom -5584.691774 kJ/mol
# Density = 1.724230 g / cm^3
# Si number density = 17.281634 Si / 1000 Ang^3
#
#
#
# Elastic Constant Matrix: (Units=GPa)
#
#
# Indices 1 2 3 4 5 6 
#
# 1 121.0096 103.6949 51.9556 0.0000 0.0000 0.0000
# 2 103.6949 121.0096 51.9556 0.0000 0.0000 0.0000
# 3 51.9556 51.9556 82.0373 0.0000 0.0000 0.0000
# 4 0.0000 0.0000 0.0000 22.2270 0.0000 0.0000
# 5 0.0000 0.0000 0.0000 0.0000 22.2270 0.0000
# 6 0.0000 0.0000 0.0000 0.0000 0.0000 8.6574
#
#
#
# Elastic Compliance Matrix: (Units=1/GPa)
#
#
# Indices 1 2 3 4 5 6 
#
# 1 0.032024 -0.025730 -0.003986 0.000000 0.000000 0.000000
# 2 -0.025730 0.032024 -0.003986 0.000000 0.000000 0.000000
# 3 -0.003986 -0.003986 0.017238 0.000000 0.000000 0.000000
# 4 0.000000 0.000000 0.000000 0.044990 0.000000 0.000000
# 5 0.000000 0.000000 0.000000 0.000000 0.044990 0.000000
# 6 0.000000 0.000000 0.000000 0.000000 0.000000 0.115509
#
#
# Mechanical properties :
#
#
# Convention : Reuss Voigt Hill
#
# Bulk Modulus (GPa) = 72.03590 82.14093 77.08841
# Shear Modulus (GPa) = 13.93509 18.38565 16.16037
#
# Velocity S-wave (km/s) = 2.84272 3.26526 3.06129
# Velocity P-wave (km/s) = 7.24905 7.86447 7.56302
#
# Compressibility (1/GPa) = 0.01388197
#
# Stress axis : x y z
#
# Youngs Moduli (GPa) = 31.22667 31.22667 58.01127
#
# Poissons Ratio (x) = 0.80348 0.23122
# Poissons Ratio (y) = 0.80348 0.23122
# Poissons Ratio (z) = 0.12446 0.12446
#
# Static dielectric constant tensor:
#      x y z
#    x 1.571550 0.000000 0.000000 
#    y 0.000000 1.571550 0.000000 
#    z 0.000000 0.000000 1.575440 
# 
# From -- ./inp_files/1191.got.cif
#   From: 2010.05.17/outbox.cif.g08.bks.cpg/sg192_1_cif.got.tgz:1191.got - 2010.05.20 12:28:01.
