data_PCOD9588338
_publ_section_title
;
Structure prediction by ZEFSAII (Michael W. Deem and Ramdas Pophale) SiO2 
 PCOD9588338
Probable space group: P 6/M C C
;
_chemical_formula_sum "Si O2"
_cell_formula_units_Z 168
_cell_length_a 23.678379
_cell_length_b 23.678379
_cell_length_c 20.054942
_cell_angle_alpha 90.000000
_cell_angle_beta 90.000000
_cell_angle_gamma 120.000000
_cell_volume 9737.690733
_symmetry_space_group_name_H-M "P 6/M C C"
_symmetry_group_IT_number 192
_symmetry_cell_setting 'hexagonal'
loop_
_space_group_symop_operation_xyz
x,y,z
x-y,x,z
-y,x-y,z
-x,-y,z
-x+y,-x,z
y,-x+y,z
x-y,-y,1/2-z
-x,-x+y,1/2-z
y,x,1/2-z
-y,-x,1/2-z
-x+y,y,1/2-z
x,x-y,1/2-z
-x,-y,-z
-x+y,-x,-z
y,-x+y,-z
x,y,-z
x-y,x,-z
-y,x-y,-z
-x+y,y,1/2+z
x,x-y,1/2+z
-y,-x,1/2+z
y,x,1/2+z
x-y,-y,1/2+z
-x,-x+y,1/2+z
loop_
_atom_site_type_symbol
_atom_site_label
_atom_site_fract_x
_atom_site_fract_y
_atom_site_fract_z
Si Si1 0.915301 0.613671 0.104930
Si Si2 0.849768 0.156687 0.929379
Si Si3 0.377762 0.074115 0.894689
Si Si4 0.137978 0.131513 0.075841
Si Si5 0.925055 0.645652 0.246541
Si Si6 0.918406 0.521362 0.000000
Si Si7 0.077613 0.849843 0.309103
Si Si8 0.603291 0.075891 0.500000
O O1 0.877287 0.648852 0.076523
O O2 0.895354 0.600715 0.182268
O O3 0.899961 0.550068 0.063655
O O4 0.994554 0.663458 0.101846
O O5 0.889117 0.233977 0.929356
O O6 0.871305 0.133879 0.864279
O O7 0.863712 0.134732 0.000000
O O8 0.384396 0.099507 0.818758
O O9 0.443257 0.091170 0.934338
O O10 0.068788 0.127780 0.081006
O O11 0.183798 0.166151 0.140859
O O12 0.162493 0.157055 0.000000
O O13 0.925584 0.712768 0.227783
O O14 0.000000 0.665374 0.250000
O O15 0.895634 0.445427 0.000000
O O16 0.997232 0.559040 0.000000
O O17 0.097292 0.902709 0.250000
#
# Coordination Sequence:
#
# PCOD9588338 Si02
#       8
#    24  24  24  24  24  12  24  12
#     4   9  19  31  49  71 103 137 174 215 261 307
#     4  11  20  31  50  73 102 140 178 218 263 318
#     4  10  18  33  48  74 101 134 181 214 253 314
#     4  10  23  42  59  71  88 120 174 241 308 372
#     4   9  19  33  48  67  99 138 167 202 255 312
#     4   9  16  33  48  74 101 127 164 204 248 287
#     4  11  22  32  49  74 100 129 162 214 275 337
#     4   9  18  29  54  72  99 131 162 208 242 281
#
# _framework density 17.252551
#
# number of rings (size 3 to 8) (size 9 to 14) (size 15 to 20)
#    0.000    2.143    2.857    0.571    2.000    1.714 
#    0.000    0.714    0.000    5.143    0.000    0.000 
#    5.714    0.000    0.000    0.000    5.143    0.000 
#
# Total GULP energy -935573.368937 kJ/mol
# GULP energy per Si atom -5568.889101 kJ/mol
# Density = 1.721328 g / cm^3
# Si number density = 17.252551 Si / 1000 Ang^3
#
#
#
# Elastic Constant Matrix: (Units=GPa)
#
#
# Indices 1 2 3 4 5 6 
#
# 1 77.4609 21.6845 35.0850 0.0000 0.0000 0.0000
# 2 21.6845 77.4609 35.0850 0.0000 0.0000 0.0000
# 3 35.0850 35.0850 168.6780 0.0000 0.0000 0.0000
# 4 0.0000 0.0000 0.0000 14.8318 0.0000 0.0000
# 5 0.0000 0.0000 0.0000 0.0000 14.8318 0.0000
# 6 0.0000 0.0000 0.0000 0.0000 0.0000 27.8882
#
#
#
# Elastic Compliance Matrix: (Units=1/GPa)
#
#
# Indices 1 2 3 4 5 6 
#
# 1 0.014878 -0.003051 -0.002460 0.000000 0.000000 0.000000
# 2 -0.003051 0.014878 -0.002460 0.000000 0.000000 0.000000
# 3 -0.002460 -0.002460 0.006952 0.000000 0.000000 0.000000
# 4 0.000000 0.000000 0.000000 0.067423 0.000000 0.000000
# 5 0.000000 0.000000 0.000000 0.000000 0.067423 0.000000
# 6 0.000000 0.000000 0.000000 0.000000 0.000000 0.035857
#
#
# Mechanical properties :
#
#
# Convention : Reuss Voigt Hill
#
# Bulk Modulus (GPa) = 48.15529 56.36765 52.26147
# Shear Modulus (GPa) = 21.71320 26.96004 24.33662
#
# Velocity S-wave (km/s) = 3.55145 3.95735 3.75988
# Velocity P-wave (km/s) = 6.69251 7.32283 7.01475
#
# Compressibility (1/GPa) = 0.02076615
#
# Stress axis : x y z
#
# Youngs Moduli (GPa) = 67.21324 67.21324 143.84666
#
# Poissons Ratio (x) = 0.20505 0.35387
# Poissons Ratio (y) = 0.20505 0.35387
# Poissons Ratio (z) = 0.16535 0.16535
#
# Static dielectric constant tensor:
#      x y z
#    x 1.599270 0.000000 0.000000 
#    y 0.000000 1.599270 0.000000 
#    z 0.000000 0.000000 1.770430 
# 
# From -- ./inp_files/5385.got.cif
#   From: 2010.05.17/outbox.cif.g08.bks.cpg/sg192_3_cif.got.tgz:5385.got - 2010.05.20 12:28:01.
