data_PCOD9588019
_publ_section_title
;
Structure prediction by ZEFSAII (Michael W. Deem and Ramdas Pophale) SiO2 
 PCOD9588019
Probable space group: P 6/M M M
;
_chemical_formula_sum "Si O2"
_cell_formula_units_Z 96
_cell_length_a 17.827339
_cell_length_b 17.827339
_cell_length_c 19.925036
_cell_angle_alpha 90.000000
_cell_angle_beta 90.000000
_cell_angle_gamma 120.000000
_cell_volume 5484.067510
_symmetry_space_group_name_H-M "P 6/M M M"
_symmetry_group_IT_number 191
_symmetry_cell_setting 'hexagonal'
loop_
_space_group_symop_operation_xyz
x,y,z
x-y,x,z
-y,x-y,z
-x,-y,z
-x+y,-x,z
y,-x+y,z
x-y,-y,-z
-x,-x+y,-z
y,x,-z
-y,-x,-z
-x+y,y,-z
x,x-y,-z
-x,-y,-z
-x+y,-x,-z
y,-x+y,-z
x,y,-z
x-y,x,-z
-y,x-y,-z
-x+y,y,z
x,x-y,z
-y,-x,z
y,x,z
x-y,-y,z
-x,-x+y,z
loop_
_atom_site_type_symbol
_atom_site_label
_atom_site_fract_x
_atom_site_fract_y
_atom_site_fract_z
Si Si1 0.000000 0.347919 0.919816
Si Si2 0.369088 0.101378 0.705233
Si Si3 0.173516 0.173516 0.918168
Si Si4 0.488647 0.332919 0.164826
Si Si5 0.362167 0.467077 0.424900
O O1 0.914983 0.344793 0.890328
O O2 0.000000 0.260439 0.897555
O O3 0.000000 0.350202 0.000000
O O4 0.331792 0.165896 0.714902
O O5 0.436829 0.120601 0.765243
O O6 0.422338 0.125479 0.635639
O O7 0.299332 0.000000 0.704959
O O8 0.086999 0.173997 0.896447
O O9 0.172814 0.172814 0.000000
O O10 0.495970 0.247985 0.150967
O O11 0.581818 0.418183 0.168897
O O12 0.325591 0.458911 0.500000
O O13 0.432283 0.567717 0.412229
O O14 0.417535 0.417535 0.426292
#
# Coordination Sequence:
#
# PCOD9588019 Si02
#       5
#    12  24  12  24  24
#     4  11  23  39  59  81 108 143 183 223 269 329
#     4  10  20  34  54  79 108 143 184 227 271 322
#     4   9  17  31  53  81 111 140 171 211 260 314
#     4  11  23  39  59  83 110 142 180 225 274 325
#     4   8  14  26  47  76 108 140 175 217 265 317
#
# _framework density 17.505254999999998
#
# number of rings (size 3 to 8) (size 9 to 14) (size 15 to 20)
#    0.000    2.250    1.250    3.000    0.000    4.500 
#    0.000    0.000    0.000    2.250    0.000    0.000 
#    0.000    0.000    0.000    6.250    0.000    0.000 
#
# Total GULP energy -535544.854873 kJ/mol
# GULP energy per Si atom -5578.592238 kJ/mol
# Density = 1.746541 g / cm^3
# Si number density = 17.505255 Si / 1000 Ang^3
#
#
#
# Elastic Constant Matrix: (Units=GPa)
#
#
# Indices 1 2 3 4 5 6 
#
# 1 123.7729 78.9681 45.6208 0.0000 0.0000 0.0000
# 2 78.9681 123.7729 45.6208 0.0000 0.0000 0.0000
# 3 45.6208 45.6208 87.5753 0.0000 0.0000 0.0000
# 4 0.0000 0.0000 0.0000 16.5917 0.0000 0.0000
# 5 0.0000 0.0000 0.0000 0.0000 16.5917 0.0000
# 6 0.0000 0.0000 0.0000 0.0000 0.0000 22.4024
#
#
#
# Elastic Compliance Matrix: (Units=1/GPa)
#
#
# Indices 1 2 3 4 5 6 
#
# 1 0.014381 -0.007938 -0.003356 0.000000 0.000000 0.000000
# 2 -0.007938 0.014381 -0.003356 0.000000 0.000000 0.000000
# 3 -0.003356 -0.003356 0.014916 0.000000 0.000000 0.000000
# 4 0.000000 0.000000 0.000000 0.060271 0.000000 0.000000
# 5 0.000000 0.000000 0.000000 0.000000 0.060271 0.000000
# 6 0.000000 0.000000 0.000000 0.000000 0.000000 0.044638
#
#
# Mechanical properties :
#
#
# Convention : Reuss Voigt Hill
#
# Bulk Modulus (GPa) = 69.55993 75.06007 72.31000
# Shear Modulus (GPa) = 20.58027 22.11125 21.34576
#
# Velocity S-wave (km/s) = 3.43251 3.55790 3.49577
# Velocity P-wave (km/s) = 7.45201 7.73627 7.59547
#
# Compressibility (1/GPa) = 0.01437609
#
# Stress axis : x y z
#
# Youngs Moduli (GPa) = 69.53640 69.53640 67.04412
#
# Poissons Ratio (x) = 0.55199 0.22502
# Poissons Ratio (y) = 0.55199 0.22502
# Poissons Ratio (z) = 0.23339 0.23339
#
# Static dielectric constant tensor:
#      x y z
#    x 1.581850 0.000000 0.000000 
#    y 0.000000 1.581850 0.000000 
#    z 0.000000 0.000000 1.605400 
# 
# From -- ./inp_files/7186.got.cif
#   From: 2010.05.17/outbox.cif.g08.bks.cpg/sg191_4_cif.got.tgz:7186.got - 2010.05.20 12:20:32.
