data_PCOD9588538
_publ_section_title
;
Structure prediction by ZEFSAII (Michael W. Deem and Ramdas Pophale) SiO2 
 PCOD9588538
Probable space group: P 6/M C C
;
_chemical_formula_sum "Si O2"
_cell_formula_units_Z 152
_cell_length_a 25.795073
_cell_length_b 25.795073
_cell_length_c 14.303810
_cell_angle_alpha 90.000000
_cell_angle_beta 90.000000
_cell_angle_gamma 120.000000
_cell_volume 8242.441755
_symmetry_space_group_name_H-M "P 6/M C C"
_symmetry_group_IT_number 192
_symmetry_cell_setting 'hexagonal'
loop_
_space_group_symop_operation_xyz
x,y,z
x-y,x,z
-y,x-y,z
-x,-y,z
-x+y,-x,z
y,-x+y,z
x-y,-y,1/2-z
-x,-x+y,1/2-z
y,x,1/2-z
-y,-x,1/2-z
-x+y,y,1/2-z
x,x-y,1/2-z
-x,-y,-z
-x+y,-x,-z
y,-x+y,-z
x,y,-z
x-y,x,-z
-y,x-y,-z
-x+y,y,1/2+z
x,x-y,1/2+z
-y,-x,1/2+z
y,x,1/2+z
x-y,-y,1/2+z
-x,-x+y,1/2+z
loop_
_atom_site_type_symbol
_atom_site_label
_atom_site_fract_x
_atom_site_fract_y
_atom_site_fract_z
Si Si1 0.197806 0.595331 0.613665
Si Si2 0.931691 0.746004 0.249491
Si Si3 0.286377 0.942642 0.888098
Si Si4 0.839429 0.525479 0.886154
Si Si5 0.333334 0.666667 0.386907
Si Si6 0.281314 0.474499 0.885872
Si Si7 0.349937 0.078965 0.111414
O O1 0.195506 0.592737 0.500000
O O2 0.158501 0.624835 0.643409
O O3 0.265727 0.642937 0.641350
O O4 0.186999 0.531088 0.644677
O O5 0.883229 0.766458 0.250000
O O6 0.927306 0.701932 0.164990
O O7 0.918030 0.704023 0.339952
O O8 0.000000 0.798417 0.250000
O O9 0.307210 0.895865 0.859390
O O10 0.335727 0.011613 0.866172
O O11 0.276849 0.938141 0.000000
O O12 0.777402 0.522378 0.856500
O O13 0.838119 0.524534 0.000000
O O14 0.333334 0.666668 0.500000
O O15 0.278337 0.412933 0.857702
O O16 0.280957 0.475908 0.000000
O O17 0.347390 0.082976 0.000000
#
# Coordination Sequence:
#
# PCOD9588538 Si02
#       7
#    24  24  24  24   8  24  24
#     4   9  14  20  33  57  87 118 153 197 246 293
#     4  10  20  34  54  78 103 131 161 193 229 271
#     4   9  18  32  49  71  99 128 159 196 237 281
#     4   9  15  23  38  60  87 119 155 196 241 288
#     4   9  12  18  30  51  87 115 146 199 247 290
#     4   9  15  23  38  60  87 119 155 196 241 288
#     4   9  18  32  49  71  99 128 159 196 237 281
#
# _framework density 18.441137000000001
#
# number of rings (size 3 to 8) (size 9 to 14) (size 15 to 20)
#    0.000    2.842    1.579    0.947    0.000    1.895 
#    0.000    0.789    0.000    5.842    0.000    3.316 
#    0.000    0.000    0.000    7.895    0.000    0.000 
#
# Total GULP energy -847896.558981 kJ/mol
# GULP energy per Si atom -5578.266835 kJ/mol
# Density = 1.839916 g / cm^3
# Si number density = 18.441137 Si / 1000 Ang^3
#
#
#
# Elastic Constant Matrix: (Units=GPa)
#
#
# Indices 1 2 3 4 5 6 
#
# 1 135.2917 74.0251 -7.2888 0.0001 -0.0002 0.0002
# 2 74.0251 135.2927 -7.2885 -0.0001 -0.0005 0.0002
# 3 -7.2888 -7.2885 27.0532 0.0002 -0.0004 0.0001
# 4 0.0001 -0.0001 0.0002 -25.1570 -0.0005 0.0001
# 5 -0.0002 -0.0005 -0.0004 -0.0005 -25.1553 -0.0001
# 6 0.0002 0.0002 0.0001 0.0001 -0.0001 30.6335
#
#
#
# Elastic Compliance Matrix: (Units=1/GPa)
#
#
# Indices 1 2 3 4 5 6 
#
# 1 0.010595 -0.005727 0.001312 0.000000 0.000000 0.000000
# 2 -0.005727 0.010595 0.001312 0.000000 0.000000 0.000000
# 3 0.001312 0.001312 0.037671 0.000000 -0.000001 0.000000
# 4 0.000000 0.000000 0.000000 -0.039750 0.000001 0.000000
# 5 0.000000 0.000000 -0.000001 0.000001 -0.039753 0.000000
# 6 0.000000 0.000000 0.000000 0.000000 0.000000 0.032644
#
#
# Mechanical properties :
#
#
# Convention : Reuss Voigt Hill
#
# Bulk Modulus (GPa) = 18.99135 46.28147 32.63641
# Shear Modulus (GPa) = 139.81949 11.94356 75.88152
#
# Velocity S-wave (km/s) = 8.71688 2.54767 6.42163
# Velocity P-wave (km/s) = 10.56563 5.81425 8.52755
#
# Compressibility (1/GPa) = 0.05265555
#
# Stress axis : x y z
#
# Youngs Moduli (GPa) = 94.38037 94.38122 26.54562
#
# Poissons Ratio (x) = 0.54048 -0.03482
# Poissons Ratio (y) = 0.54048 -0.03482
# Poissons Ratio (z) = -0.12381 -0.12380
#
# Static dielectric constant tensor:
#      x y z
#    x 1.617770 0.000000 0.000000 
#    y 0.000000 1.617770 0.000000 
#    z 0.000000 0.000000 1.719740 
# 
# From -- ./inp_files/3398.got.cif
#   From: 2010.05.17/outbox.cif.g08.bks.cpg/sg192_2_cif.got.tgz:3398.got - 2010.05.20 12:28:01.
