data_PCOD9588871
_publ_section_title
;
Structure prediction by ZEFSAII (Michael W. Deem and Ramdas Pophale) SiO2 
 PCOD9588871
Probable space group: P 63/M C M
;
_chemical_formula_sum "Si O2"
_cell_formula_units_Z 124
_cell_length_a 21.376070
_cell_length_b 21.376070
_cell_length_c 13.726503
_cell_angle_alpha 90.000000
_cell_angle_beta 90.000000
_cell_angle_gamma 120.000000
_cell_volume 5431.831221
_symmetry_space_group_name_H-M "P 63/M C M"
_symmetry_group_IT_number 193
_symmetry_cell_setting 'hexagonal'
loop_
_space_group_symop_operation_xyz
x,y,z
x-y,x,1/2+z
-y,x-y,z
-x,-y,1/2+z
-x+y,-x,z
y,-x+y,1/2+z
x-y,-y,1/2-z
-x,-x+y,1/2-z
y,x,1/2-z
-y,-x,-z
-x+y,y,-z
x,x-y,-z
-x,-y,-z
-x+y,-x,1/2-z
y,-x+y,-z
x,y,1/2-z
x-y,x,-z
-y,x-y,1/2-z
-x+y,y,1/2+z
x,x-y,1/2+z
-y,-x,1/2+z
y,x,z
x-y,-y,z
-x,-x+y,z
loop_
_atom_site_type_symbol
_atom_site_label
_atom_site_fract_x
_atom_site_fract_y
_atom_site_fract_z
Si Si1 0.278944 0.130635 0.368254
Si Si2 0.000000 0.853192 0.139938
Si Si3 0.662613 0.127812 0.868883
Si Si4 0.000000 0.000000 0.885208
Si Si5 0.304442 0.000000 0.416317
Si Si6 0.437421 0.253238 0.367746
Si Si7 0.083405 0.582821 0.368929
O O1 0.276832 0.121275 0.250000
O O2 0.209664 0.135098 0.400966
O O3 0.352424 0.205026 0.390945
O O4 0.282203 0.063259 0.409845
O O5 0.000000 0.827627 0.250000
O O6 0.000000 0.927861 0.144299
O O7 0.664593 0.124037 0.750000
O O8 0.673305 0.063267 0.906353
O O9 0.731998 0.204508 0.897470
O O10 0.583930 0.114102 0.895398
O O11 0.000000 0.000000 0.000000
O O12 0.442539 0.257570 0.250000
O O13 0.471109 0.335172 0.402511
O O14 0.082066 0.584202 0.250000
O O15 0.000000 0.549091 0.400463
#
# Coordination Sequence:
#
# PCOD9588871 Si02
#       7
#    24  12  24   4  12  24  24
#     4   9  16  24  39  58  77  96 122 171 223 255
#     4  10  20  33  49  69  87 110 145 182 219 257
#     4   9  14  21  30  40  55  82 120 159 197 243
#     4  12  25  38  49  63  91 122 145 171 211 263
#     4  10  14  21  34  48  63  84 117 157 203 249
#     4   8  15  23  30  45  68  91 123 167 216 256
#     4   9  15  21  30  40  56  85 121 160 204 252
#
# _framework density 22.828398
#
# number of rings (size 3 to 8) (size 9 to 14) (size 15 to 20)
#    0.000    2.903    0.968    3.774    1.355    1.548 
#    1.161    0.000    0.000    0.000    0.000    0.000 
#    0.000    0.000    0.000    0.000    0.000   34.839 
#
# Total GULP energy -690686.519809 kJ/mol
# GULP energy per Si atom -5570.052579 kJ/mol
# Density = 2.277644 g / cm^3
# Si number density = 22.828398 Si / 1000 Ang^3
#
#
#
# Elastic Constant Matrix: (Units=GPa)
#
#
# Indices 1 2 3 4 5 6 
#
# 1 234.6946 186.8587 26.2639 0.0000 0.0000 0.0000
# 2 186.8587 234.6946 26.2639 0.0000 0.0000 0.0000
# 3 26.2639 26.2639 92.1194 0.0000 0.0000 0.0000
# 4 0.0000 0.0000 0.0000 6.7205 0.0000 0.0000
# 5 0.0000 0.0000 0.0000 0.0000 6.7205 0.0000
# 6 0.0000 0.0000 0.0000 0.0000 0.0000 23.9179
#
#
#
# Elastic Compliance Matrix: (Units=1/GPa)
#
#
# Indices 1 2 3 4 5 6 
#
# 1 0.011682 -0.009223 -0.000701 0.000000 0.000000 0.000000
# 2 -0.009223 0.011682 -0.000701 0.000000 0.000000 0.000000
# 3 -0.000701 -0.000701 0.011255 0.000000 0.000000 0.000000
# 4 0.000000 0.000000 0.000000 0.148799 0.000000 0.000000
# 5 0.000000 0.000000 0.000000 0.000000 0.148799 0.000000
# 6 0.000000 0.000000 0.000000 0.000000 0.000000 0.041810
#
#
# Mechanical properties :
#
#
# Convention : Reuss Voigt Hill
#
# Bulk Modulus (GPa) = 74.79716 115.58686 95.19201
# Shear Modulus (GPa) = 12.50833 28.94657 20.72745
#
# Velocity S-wave (km/s) = 2.34333 3.56477 3.01652
# Velocity P-wave (km/s) = 6.33701 8.22717 7.34316
#
# Compressibility (1/GPa) = 0.01336949
#
# Stress axis : x y z
#
# Youngs Moduli (GPa) = 85.60032 85.60032 88.84681
#
# Poissons Ratio (x) = 0.78946 0.06230
# Poissons Ratio (y) = 0.78946 0.06230
# Poissons Ratio (z) = 0.06003 0.06003
#
# Static dielectric constant tensor:
#      x y z
#    x 1.791480 0.000000 0.000000 
#    y 0.000000 1.791480 0.000000 
#    z 0.000000 0.000000 1.992370 
# 
# From -- ./inp_files/5410.got.cif
#   From: 2010.05.17/outbox.cif.g08.bks.cpg/sg193_3_cif.got.tgz:5410.got - 2010.05.20 12:33:02.
