data_PCOD9588957
_publ_section_title
;
Structure prediction by ZEFSAII (Michael W. Deem and Ramdas Pophale) SiO2 
 PCOD9588957
Probable space group: P 63/M C M
;
_chemical_formula_sum "Si O2"
_cell_formula_units_Z 192
_cell_length_a 24.608298
_cell_length_b 24.608298
_cell_length_c 20.460322
_cell_angle_alpha 90.000000
_cell_angle_beta 90.000000
_cell_angle_gamma 120.000000
_cell_volume 10730.161304
_symmetry_space_group_name_H-M "P 63/M C M"
_symmetry_group_IT_number 193
_symmetry_cell_setting 'hexagonal'
loop_
_space_group_symop_operation_xyz
x,y,z
x-y,x,1/2+z
-y,x-y,z
-x,-y,1/2+z
-x+y,-x,z
y,-x+y,1/2+z
x-y,-y,1/2-z
-x,-x+y,1/2-z
y,x,1/2-z
-y,-x,-z
-x+y,y,-z
x,x-y,-z
-x,-y,-z
-x+y,-x,1/2-z
y,-x+y,-z
x,y,1/2-z
x-y,x,-z
-y,x-y,1/2-z
-x+y,y,1/2+z
x,x-y,1/2+z
-y,-x,1/2+z
y,x,z
x-y,-y,z
-x,-x+y,z
loop_
_atom_site_type_symbol
_atom_site_label
_atom_site_fract_x
_atom_site_fract_y
_atom_site_fract_z
Si Si1 0.376075 0.305743 0.643312
Si Si2 0.072554 0.798340 0.429061
Si Si3 0.419312 0.604854 0.072638
Si Si4 0.613447 0.542521 0.024482
Si Si5 0.677119 0.602068 0.605668
Si Si6 0.199591 0.496688 0.322208
Si Si7 0.670561 0.495236 0.822682
Si Si8 0.258657 0.187701 0.914742
O O1 0.349720 0.349720 0.672313
O O2 0.405886 0.336973 0.573821
O O3 0.433521 0.301911 0.675393
O O4 0.316153 0.238125 0.629067
O O5 0.093098 0.749108 0.404093
O O6 0.119181 0.868964 0.405303
O O7 0.073949 0.797479 0.508348
O O8 0.000000 0.771152 0.410032
O O9 0.475080 0.589976 0.055936
O O10 0.457233 0.666643 0.117399
O O11 0.367355 0.555017 0.121097
O O12 0.393269 0.606732 0.000000
O O13 0.558920 0.558920 0.015836
O O14 0.651168 0.556130 0.957179
O O15 0.637909 0.637909 0.608616
O O16 0.665130 0.556638 0.665632
O O17 0.205019 0.525724 0.250000
O O18 0.256099 0.482481 0.327564
O O19 0.648573 0.469142 0.750000
O O20 0.201262 0.201262 0.903800
#
# Coordination Sequence:
#
# PCOD9588957 Si02
#       8
#    24  24  24  24  24  24  24  24
#     4   9  16  30  53  81 108 134 172 219 271 327
#     4   9  16  25  41  68 102 141 181 225 279 333
#     4  11  22  39  60  85 102 132 181 233 265 304
#     4   9  17  31  52  80 110 133 158 210 273 319
#     4  10  18  32  54  80 111 141 173 213 269 333
#     4  10  23  41  58  79 112 149 179 216 275 333
#     4  11  24  41  58  79 111 147 180 217 271 331
#     4   9  15  24  41  69 102 136 179 232 282 326
#
# _framework density 17.893487
#
# number of rings (size 3 to 8) (size 9 to 14) (size 15 to 20)
#    0.000    2.250    2.500    1.125    0.000    1.750 
#    0.750    0.000    0.000    2.500    0.000    1.750 
#    0.000    0.000    0.000    0.000    0.000    0.000 
#
# Total GULP energy -1069063.288176 kJ/mol
# GULP energy per Si atom -5568.037959 kJ/mol
# Density = 1.785276 g / cm^3
# Si number density = 17.893487 Si / 1000 Ang^3
#
#
#
# Elastic Constant Matrix: (Units=GPa)
#
#
# Indices 1 2 3 4 5 6 
#
# 1 67.4994 32.3867 27.9569 0.0000 0.0000 0.0000
# 2 32.3867 67.4994 27.9569 0.0000 0.0000 0.0000
# 3 27.9569 27.9569 92.4429 0.0000 0.0000 0.0000
# 4 0.0000 0.0000 0.0000 16.5238 0.0000 0.0000
# 5 0.0000 0.0000 0.0000 0.0000 16.5238 0.0000
# 6 0.0000 0.0000 0.0000 0.0000 0.0000 17.5563
#
#
#
# Elastic Compliance Matrix: (Units=1/GPa)
#
#
# Indices 1 2 3 4 5 6 
#
# 1 0.020266 -0.008214 -0.003645 0.000000 0.000000 0.000000
# 2 -0.008214 0.020266 -0.003645 0.000000 0.000000 0.000000
# 3 -0.003645 -0.003645 0.013022 0.000000 0.000000 0.000000
# 4 0.000000 0.000000 0.000000 0.060519 0.000000 0.000000
# 5 0.000000 0.000000 0.000000 0.000000 0.060519 0.000000
# 6 0.000000 0.000000 0.000000 0.000000 0.000000 0.056960
#
#
# Mechanical properties :
#
#
# Convention : Reuss Voigt Hill
#
# Bulk Modulus (GPa) = 44.35292 44.89363 44.62328
# Shear Modulus (GPa) = 18.51353 19.39686 18.95520
#
# Velocity S-wave (km/s) = 3.22009 3.29601 3.25827
# Velocity P-wave (km/s) = 6.21822 6.29514 6.25680
#
# Compressibility (1/GPa) = 0.02254643
#
# Stress axis : x y z
#
# Youngs Moduli (GPa) = 49.34449 49.34449 76.79328
#
# Poissons Ratio (x) = 0.40532 0.27989
# Poissons Ratio (y) = 0.40532 0.27989
# Poissons Ratio (z) = 0.17985 0.17985
#
# Static dielectric constant tensor:
#      x y z
#    x 1.620400 0.000000 0.000000 
#    y 0.000000 1.620400 0.000000 
#    z 0.000000 0.000000 1.633130 
# 
# From -- ./inp_files/6890.got.cif
#   From: 2010.05.17/outbox.cif.g08.bks.cpg/sg193_4_cif.got.tgz:6890.got - 2010.05.20 12:33:02.
