data_PCOD9588048
_publ_section_title
;
Structure prediction by ZEFSAII (Michael W. Deem and Ramdas Pophale) SiO2 
 PCOD9588048
Probable space group: P 6/M M M
;
_chemical_formula_sum "Si O2"
_cell_formula_units_Z 108
_cell_length_a 30.520320
_cell_length_b 30.520320
_cell_length_c 8.021005
_cell_angle_alpha 90.000000
_cell_angle_beta 90.000000
_cell_angle_gamma 120.000000
_cell_volume 6470.496168
_symmetry_space_group_name_H-M "P 6/M M M"
_symmetry_group_IT_number 191
_symmetry_cell_setting 'hexagonal'
loop_
_space_group_symop_operation_xyz
x,y,z
x-y,x,z
-y,x-y,z
-x,-y,z
-x+y,-x,z
y,-x+y,z
x-y,-y,-z
-x,-x+y,-z
y,x,-z
-y,-x,-z
-x+y,y,-z
x,x-y,-z
-x,-y,-z
-x+y,-x,-z
y,-x+y,-z
x,y,-z
x-y,x,-z
-y,x-y,-z
-x+y,y,z
x,x-y,z
-y,-x,z
y,x,z
x-y,-y,z
-x,-x+y,z
loop_
_atom_site_type_symbol
_atom_site_label
_atom_site_fract_x
_atom_site_fract_y
_atom_site_fract_z
Si Si1 0.509886 0.703264 0.812997
Si Si2 0.000000 0.804511 0.205534
Si Si3 0.785793 0.892897 0.802247
Si Si4 0.000000 0.701886 0.199102
Si Si5 0.437468 0.770787 0.500000
Si Si6 0.832502 0.665004 0.802365
Si Si7 0.388398 0.106507 0.307581
O O1 0.524875 0.762438 0.793980
O O2 0.470766 0.674276 0.665146
O O3 0.559748 0.698672 0.792722
O O4 0.488956 0.687803 0.000000
O O5 0.050774 0.854878 0.262522
O O6 0.000000 0.753037 0.258123
O O7 0.000000 0.803726 0.000000
O O8 0.725226 0.862613 0.786388
O O9 0.797731 0.898866 0.000000
O O10 0.950321 0.650987 0.254693
O O11 0.000000 0.704441 0.000000
O O12 0.386498 0.772996 0.500000
O O13 0.426025 0.713013 0.500000
O O14 0.863870 0.642135 0.720009
O O15 0.826381 0.652762 0.000000
O O16 0.402026 0.108120 0.500000
#
# Coordination Sequence:
#
# PCOD9588048 Si02
#       7
#    24  12  12  12  12  12  24
#     4  10  20  35  56  82 113 151 192 230 274 330
#     4   9  16  27  43  64  89 122 171 221 267 327
#     4   9  16  27  43  64  89 124 172 220 267 327
#     4  11  21  33  49  71 102 142 184 223 272 335
#     4  10  21  38  60  89 121 153 189 230 275 319
#     4  11  19  29  49  71  98 141 183 219 268 329
#     4  12  22  33  48  76 112 146 183 227 275 327
#
# _framework density 16.691147999999998
#
# number of rings (size 3 to 8) (size 9 to 14) (size 15 to 20)
#    0.000    1.556    4.444    2.778    0.000    0.444 
#    0.000    0.000    0.000    1.556    0.000    3.111 
#    0.000    2.667    0.000    0.000    0.000    2.444 
#
# Total GULP energy -602615.889005 kJ/mol
# GULP energy per Si atom -5579.776750 kJ/mol
# Density = 1.665316 g / cm^3
# Si number density = 16.691148 Si / 1000 Ang^3
#
#
#
# Elastic Constant Matrix: (Units=GPa)
#
#
# Indices 1 2 3 4 5 6 
#
# 1 112.2726 36.4020 36.2102 0.0000 0.0000 0.0000
# 2 36.4020 112.2726 36.2102 0.0000 0.0000 0.0000
# 3 36.2102 36.2102 89.2232 0.0000 0.0000 0.0000
# 4 0.0000 0.0000 0.0000 12.9059 0.0000 0.0000
# 5 0.0000 0.0000 0.0000 0.0000 12.9059 0.0000
# 6 0.0000 0.0000 0.0000 0.0000 0.0000 37.9353
#
#
#
# Elastic Compliance Matrix: (Units=1/GPa)
#
#
# Indices 1 2 3 4 5 6 
#
# 1 0.010782 -0.002398 -0.003402 0.000000 0.000000 0.000000
# 2 -0.002398 0.010782 -0.003402 0.000000 0.000000 0.000000
# 3 -0.003402 -0.003402 0.013969 0.000000 0.000000 0.000000
# 4 0.000000 0.000000 0.000000 0.077484 0.000000 0.000000
# 5 0.000000 0.000000 0.000000 0.000000 0.077484 0.000000
# 6 0.000000 0.000000 0.000000 0.000000 0.000000 0.026361
#
#
# Mechanical properties :
#
#
# Convention : Reuss Voigt Hill
#
# Bulk Modulus (GPa) = 58.38740 59.04591 58.71666
# Shear Modulus (GPa) = 20.74886 26.41248 23.58067
#
# Velocity S-wave (km/s) = 3.52960 3.98229 3.76275
# Velocity P-wave (km/s) = 7.18803 7.52311 7.35748
#
# Compressibility (1/GPa) = 0.01712698
#
# Stress axis : x y z
#
# Youngs Moduli (GPa) = 92.74838 92.74838 71.58491
#
# Poissons Ratio (x) = 0.22245 0.24355
# Poissons Ratio (y) = 0.22245 0.24355
# Poissons Ratio (z) = 0.31556 0.31556
#
# Static dielectric constant tensor:
#      x y z
#    x 1.550050 0.000000 0.000000 
#    y 0.000000 1.550050 0.000000 
#    z 0.000000 0.000000 1.597980 
# 
# From -- ./inp_files/1808.got.cif
#   From: 2010.05.17/outbox.cif.g08.bks.cpg/sg191_1_cif.got.tgz:1808.got - 2010.05.20 12:20:32.
