data_PCOD9588610
_publ_section_title
;
Structure prediction by ZEFSAII (Michael W. Deem and Ramdas Pophale) SiO2 
 PCOD9588610
Probable space group: P 6/M C C
;
_chemical_formula_sum "Si O2"
_cell_formula_units_Z 168
_cell_length_a 17.195425
_cell_length_b 17.195425
_cell_length_c 34.223549
_cell_angle_alpha 90.000000
_cell_angle_beta 90.000000
_cell_angle_gamma 120.000000
_cell_volume 8763.578966
_symmetry_space_group_name_H-M "P 6/M C C"
_symmetry_group_IT_number 192
_symmetry_cell_setting 'hexagonal'
loop_
_space_group_symop_operation_xyz
x,y,z
x-y,x,z
-y,x-y,z
-x,-y,z
-x+y,-x,z
y,-x+y,z
x-y,-y,1/2-z
-x,-x+y,1/2-z
y,x,1/2-z
-y,-x,1/2-z
-x+y,y,1/2-z
x,x-y,1/2-z
-x,-y,-z
-x+y,-x,-z
y,-x+y,-z
x,y,-z
x-y,x,-z
-y,x-y,-z
-x+y,y,1/2+z
x,x-y,1/2+z
-y,-x,1/2+z
y,x,1/2+z
x-y,-y,1/2+z
-x,-x+y,1/2+z
loop_
_atom_site_type_symbol
_atom_site_label
_atom_site_fract_x
_atom_site_fract_y
_atom_site_fract_z
Si Si1 0.350580 0.493765 0.118309
Si Si2 0.998024 0.411535 0.686055
Si Si3 0.519424 0.836256 0.632426
Si Si4 0.787295 0.888529 0.352971
Si Si5 0.223860 0.899440 0.924712
Si Si6 0.304231 0.083135 0.775716
Si Si7 0.912267 0.280019 0.956190
O O1 0.385983 0.444299 0.146877
O O2 0.425394 0.597974 0.120311
O O3 0.258623 0.484546 0.134859
O O4 0.331454 0.445638 0.076187
O O5 0.043709 0.367637 0.711623
O O6 0.000000 0.500000 0.702675
O O7 0.897768 0.341522 0.671205
O O8 0.588623 0.887748 0.597612
O O9 0.851079 0.846240 0.352993
O O10 0.726743 0.875224 0.390936
O O11 0.729106 0.840164 0.314607
O O12 0.171039 0.821342 0.955624
O O13 0.276362 0.998642 0.942393
O O14 0.345555 0.172778 0.750000
O O15 0.226225 0.000000 0.750000
O O16 0.926410 0.317663 0.000000
#
# Coordination Sequence:
#
# PCOD9588610 Si02
#       7
#    24  24  24  24  24  24  24
#     4  10  21  38  63  90 125 160 213 269 310 386
#     4  10  22  41  65  94 123 167 221 267 312 379
#     4  10  20  37  63  91 121 158 217 262 313 372
#     4  12  23  40  62  92 125 174 216 268 317 388
#     4  11  21  38  62  84 122 161 221 260 305 385
#     4  12  25  39  63  95 132 165 213 261 332 390
#     4  11  22  37  58  89 123 163 207 265 330 375
#
# _framework density 19.170249999999999
#
# number of rings (size 3 to 8) (size 9 to 14) (size 15 to 20)
#    0.000    1.143    4.286    3.429    2.000    0.286 
#    0.000    4.286    0.000    0.000    0.000    2.000 
#    0.000    0.000    0.000    0.000    0.000    0.000 
#
# Total GULP energy -937230.572852 kJ/mol
# GULP energy per Si atom -5578.753410 kJ/mol
# Density = 1.912662 g / cm^3
# Si number density = 19.170250 Si / 1000 Ang^3
#
#
#
# Elastic Constant Matrix: (Units=GPa)
#
#
# Indices 1 2 3 4 5 6 
#
# 1 109.5951 36.9790 42.3270 0.0000 0.0000 0.0000
# 2 36.9790 109.5951 42.3270 0.0000 0.0000 0.0000
# 3 42.3270 42.3270 104.8291 0.0000 0.0000 0.0000
# 4 0.0000 0.0000 0.0000 14.1707 0.0000 0.0000
# 5 0.0000 0.0000 0.0000 0.0000 14.1707 0.0000
# 6 0.0000 0.0000 0.0000 0.0000 0.0000 36.3080
#
#
#
# Elastic Compliance Matrix: (Units=1/GPa)
#
#
# Indices 1 2 3 4 5 6 
#
# 1 0.011334 -0.002437 -0.003592 0.000000 0.000000 0.000000
# 2 -0.002437 0.011334 -0.003592 0.000000 0.000000 0.000000
# 3 -0.003592 -0.003592 0.012440 0.000000 0.000000 0.000000
# 4 0.000000 0.000000 0.000000 0.070568 0.000000 0.000000
# 5 0.000000 0.000000 0.000000 0.000000 0.070568 0.000000
# 6 0.000000 0.000000 0.000000 0.000000 0.000000 0.027542
#
#
# Mechanical properties :
#
#
# Convention : Reuss Voigt Hill
#
# Bulk Modulus (GPa) = 63.03127 63.03168 63.03148
# Shear Modulus (GPa) = 21.89918 26.42232 24.16075
#
# Velocity S-wave (km/s) = 3.38354 3.71657 3.55396
# Velocity P-wave (km/s) = 6.94374 7.16718 7.05635
#
# Compressibility (1/GPa) = 0.01586514
#
# Stress axis : x y z
#
# Youngs Moduli (GPa) = 88.22860 88.22860 80.38310
#
# Poissons Ratio (x) = 0.21500 0.28878
# Poissons Ratio (y) = 0.21500 0.28878
# Poissons Ratio (z) = 0.31696 0.31696
#
# Static dielectric constant tensor:
#      x y z
#    x 1.678120 0.000000 0.000000 
#    y 0.000000 1.678120 0.000000 
#    z 0.000000 0.000000 1.706140 
# 
# From -- ./inp_files/7187.got.cif
#   From: 2010.05.17/outbox.cif.g08.bks.cpg/sg192_4_cif.got.tgz:7187.got - 2010.05.20 12:28:01.
