data_PCOD9588565
_publ_section_title
;
Structure prediction by ZEFSAII (Michael W. Deem and Ramdas Pophale) SiO2 
 PCOD9588565
Probable space group: P 6/M C C
;
_chemical_formula_sum "Si O2"
_cell_formula_units_Z 96
_cell_length_a 15.206914
_cell_length_b 15.206914
_cell_length_c 22.181412
_cell_angle_alpha 90.000000
_cell_angle_beta 90.000000
_cell_angle_gamma 120.000000
_cell_volume 4442.239812
_symmetry_space_group_name_H-M "P 6/M C C"
_symmetry_group_IT_number 192
_symmetry_cell_setting 'hexagonal'
loop_
_space_group_symop_operation_xyz
x,y,z
x-y,x,z
-y,x-y,z
-x,-y,z
-x+y,-x,z
y,-x+y,z
x-y,-y,1/2-z
-x,-x+y,1/2-z
y,x,1/2-z
-y,-x,1/2-z
-x+y,y,1/2-z
x,x-y,1/2-z
-x,-y,-z
-x+y,-x,-z
y,-x+y,-z
x,y,-z
x-y,x,-z
-y,x-y,-z
-x+y,y,1/2+z
x,x-y,1/2+z
-y,-x,1/2+z
y,x,1/2+z
x-y,-y,1/2+z
-x,-x+y,1/2+z
loop_
_atom_site_type_symbol
_atom_site_label
_atom_site_fract_x
_atom_site_fract_y
_atom_site_fract_z
Si Si1 0.150134 0.224278 0.429063
Si Si2 0.404801 0.388106 0.815389
Si Si3 0.366623 0.480880 0.067682
Si Si4 0.702437 0.539432 0.593897
O O1 0.193560 0.154373 0.403315
O O2 0.136153 0.202956 0.500000
O O3 0.228182 0.344009 0.425774
O O4 0.500000 0.500000 0.808431
O O5 0.354030 0.354030 0.750000
O O6 0.353708 0.408214 0.875084
O O7 0.447968 0.315647 0.836033
O O8 0.473368 0.587240 0.069446
O O9 0.279822 0.510682 0.077378
O O10 0.352512 0.435572 0.000000
#
# Coordination Sequence:
#
# PCOD9588565 Si02
#       4
#    24  24  24  24
#     4  10  20  35  56  84 117 154 199 255 319 383
#     4   9  21  40  58  79 113 160 213 261 308 368
#     4  11  22  35  56  88 123 159 201 252 312 383
#     4  11  22  36  58  86 124 163 203 255 317 388
#
# _framework density 21.610721000000002
#
# number of rings (size 3 to 8) (size 9 to 14) (size 15 to 20)
#    0.000    1.750    0.000    4.500    0.000   10.500 
#    0.000    0.000    0.000    3.000    0.000    0.000 
#    0.000    2.000    0.000    0.000    0.000    0.000 
#
# Total GULP energy -534433.938941 kJ/mol
# GULP energy per Si atom -5567.020197 kJ/mol
# Density = 2.156153 g / cm^3
# Si number density = 21.610721 Si / 1000 Ang^3
#
#
#
# Elastic Constant Matrix: (Units=GPa)
#
#
# Indices 1 2 3 4 5 6 
#
# 1 109.3682 42.4817 17.9985 0.0000 0.0000 0.0000
# 2 42.4817 109.3682 17.9985 0.0000 0.0000 0.0000
# 3 17.9985 17.9985 151.2236 0.0000 0.0000 0.0000
# 4 0.0000 0.0000 0.0000 6.3687 0.0000 0.0000
# 5 0.0000 0.0000 0.0000 0.0000 6.3687 0.0000
# 6 0.0000 0.0000 0.0000 0.0000 0.0000 33.4432
#
#
#
# Elastic Compliance Matrix: (Units=1/GPa)
#
#
# Indices 1 2 3 4 5 6 
#
# 1 0.010864 -0.004087 -0.000807 0.000000 0.000000 0.000000
# 2 -0.004087 0.010864 -0.000807 0.000000 0.000000 0.000000
# 3 -0.000807 -0.000807 0.006805 0.000000 0.000000 0.000000
# 4 0.000000 0.000000 0.000000 0.157018 0.000000 0.000000
# 5 0.000000 0.000000 0.000000 0.000000 0.157018 0.000000
# 6 0.000000 0.000000 0.000000 0.000000 0.000000 0.029901
#
#
# Mechanical properties :
#
#
# Convention : Reuss Voigt Hill
#
# Bulk Modulus (GPa) = 58.37096 58.54639 58.45867
# Shear Modulus (GPa) = 12.83434 28.66821 20.75127
#
# Velocity S-wave (km/s) = 2.43962 3.64617 3.10212
# Velocity P-wave (km/s) = 5.91646 6.69897 6.31984
#
# Compressibility (1/GPa) = 0.01713181
#
# Stress axis : x y z
#
# Youngs Moduli (GPa) = 92.04987 92.04987 146.95687
#
# Poissons Ratio (x) = 0.37621 0.11853
# Poissons Ratio (y) = 0.37621 0.11853
# Poissons Ratio (z) = 0.07424 0.07424
#
# Static dielectric constant tensor:
#      x y z
#    x 1.743620 0.000000 0.000000 
#    y 0.000000 1.743620 0.000000 
#    z 0.000000 0.000000 1.869200 
# 
# From -- ./inp_files/6351.got.cif
#   From: 2010.05.17/outbox.cif.g08.bks.cpg/sg192_4_cif.got.tgz:6351.got - 2010.05.20 12:28:01.
