data_PCOD9588952
_publ_section_title
;
Structure prediction by ZEFSAII (Michael W. Deem and Ramdas Pophale) SiO2 
 PCOD9588952
Probable space group: P 63/M C M
;
_chemical_formula_sum "Si O2"
_cell_formula_units_Z 128
_cell_length_a 22.284036
_cell_length_b 22.284036
_cell_length_c 15.201084
_cell_angle_alpha 90.000000
_cell_angle_beta 90.000000
_cell_angle_gamma 120.000000
_cell_volume 6537.216879
_symmetry_space_group_name_H-M "P 63/M C M"
_symmetry_group_IT_number 193
_symmetry_cell_setting 'hexagonal'
loop_
_space_group_symop_operation_xyz
x,y,z
x-y,x,1/2+z
-y,x-y,z
-x,-y,1/2+z
-x+y,-x,z
y,-x+y,1/2+z
x-y,-y,1/2-z
-x,-x+y,1/2-z
y,x,1/2-z
-y,-x,-z
-x+y,y,-z
x,x-y,-z
-x,-y,-z
-x+y,-x,1/2-z
y,-x+y,-z
x,y,1/2-z
x-y,x,-z
-y,x-y,1/2-z
-x+y,y,1/2+z
x,x-y,1/2+z
-y,-x,1/2+z
y,x,z
x-y,-y,z
-x,-x+y,z
loop_
_atom_site_type_symbol
_atom_site_label
_atom_site_fract_x
_atom_site_fract_y
_atom_site_fract_z
Si Si1 0.212011 0.923425 0.105065
Si Si2 0.585315 0.170632 0.146423
Si Si3 0.666667 0.333334 0.605350
Si Si4 0.212012 0.923424 0.894935
Si Si5 0.446232 0.154271 0.143768
Si Si6 0.154273 0.708041 0.143768
O O1 0.139933 0.860066 0.140524
O O2 0.270535 0.902180 0.119865
O O3 0.237594 0.000000 0.140419
O O4 0.203816 0.925311 1.000000
O O5 0.576733 0.153465 0.250000
O O6 0.627072 0.254147 0.137666
O O7 0.508660 0.144240 0.109917
O O8 0.635581 0.144242 0.109917
O O9 0.666668 0.333334 0.500000
O O10 0.270535 0.902179 0.880135
O O11 0.237595 0.000000 0.859581
O O12 0.450319 0.157388 0.250000
O O13 0.456959 0.228479 0.113042
O O14 0.157390 0.707070 0.250000
#
# Coordination Sequence:
#
# PCOD9588952 Si02
#       6
#    24  24   8  24  24  24
#     4   9  18  33  52  72  96 124 153 189 235 287
#     4  10  18  32  47  63  94 133 168 208 254 289
#     4  12  22  26  40  69  97 128 172 219 253 287
#     4   9  18  33  52  72  96 124 153 189 235 287
#     4   9  17  29  48  69  91 124 164 204 241 279
#     4   9  17  29  48  69  91 124 164 204 241 279
#
# _framework density 19.580196999999998
#
# number of rings (size 3 to 8) (size 9 to 14) (size 15 to 20)
#    0.000    2.625    1.875    0.562    0.000    2.250 
#    0.000    0.938    0.000    6.000    0.000    2.625 
#    0.000    0.000    0.000    9.375    0.000    9.750 
#
# Total GULP energy -713797.316927 kJ/mol
# GULP energy per Si atom -5576.541538 kJ/mol
# Density = 1.953563 g / cm^3
# Si number density = 19.580197 Si / 1000 Ang^3
#
#
#
# Elastic Constant Matrix: (Units=GPa)
#
#
# Indices 1 2 3 4 5 6 
#
# 1 123.0150 90.9811 0.9844 0.0000 0.0000 0.0000
# 2 90.9811 123.0149 0.9842 0.0000 0.0000 0.0000
# 3 0.9844 0.9842 43.6710 0.0000 0.0000 0.0000
# 4 0.0000 0.0000 0.0000 14.8245 0.0000 0.0000
# 5 0.0000 0.0000 0.0000 0.0000 14.8246 0.0000
# 6 0.0000 0.0000 0.0000 0.0000 0.0000 16.0166
#
#
#
# Elastic Compliance Matrix: (Units=1/GPa)
#
#
# Indices 1 2 3 4 5 6 
#
# 1 0.017945 -0.013272 -0.000105 0.000000 0.000000 0.000000
# 2 -0.013272 0.017945 -0.000105 0.000000 0.000000 0.000000
# 3 -0.000105 -0.000105 0.022903 0.000000 0.000000 0.000000
# 4 0.000000 0.000000 0.000000 0.067456 0.000000 0.000000
# 5 0.000000 0.000000 0.000000 0.000000 0.067455 0.000000
# 6 0.000000 0.000000 0.000000 0.000000 0.000000 0.062435
#
#
# Mechanical properties :
#
#
# Convention : Reuss Voigt Hill
#
# Bulk Modulus (GPa) = 31.41713 52.84448 42.13081
# Shear Modulus (GPa) = 17.02330 22.24989 19.63659
#
# Velocity S-wave (km/s) = 2.95178 3.37463 3.17026
# Velocity P-wave (km/s) = 5.26285 6.49858 5.91308
#
# Compressibility (1/GPa) = 0.03182977
#
# Stress axis : x y z
#
# Youngs Moduli (GPa) = 55.72439 55.72435 43.66195
#
# Poissons Ratio (x) = 0.73955 0.00460
# Poissons Ratio (y) = 0.73955 0.00460
# Poissons Ratio (z) = 0.00587 0.00587
#
# Static dielectric constant tensor:
#      x y z
#    x 1.689300 0.000000 0.000000 
#    y 0.000000 1.689300 0.000000 
#    z 0.000000 0.000000 1.733380 
# 
# From -- ./inp_files/6487.got.cif
#   From: 2010.05.17/outbox.cif.g08.bks.cpg/sg193_4_cif.got.tgz:6487.got - 2010.05.20 12:33:02.
