data_PCOD9588264
_publ_section_title
;
Structure prediction by ZEFSAII (Michael W. Deem and Ramdas Pophale) SiO2 
 PCOD9588264
Probable space group: P 6/M M M
;
_chemical_formula_sum "Si O2"
_cell_formula_units_Z 138
_cell_length_a 30.000000
_cell_length_b 30.000000
_cell_length_c 9.000000
_cell_angle_alpha 90.000000
_cell_angle_beta 90.000000
_cell_angle_gamma 120.000000
_cell_volume 7014.805771
_symmetry_space_group_name_H-M "P 6/M M M"
_symmetry_group_IT_number 191
_symmetry_cell_setting 'hexagonal'
loop_
_space_group_symop_operation_xyz
x,y,z
x-y,x,z
-y,x-y,z
-x,-y,z
-x+y,-x,z
y,-x+y,z
x-y,-y,-z
-x,-x+y,-z
y,x,-z
-y,-x,-z
-x+y,y,-z
x,x-y,-z
-x,-y,-z
-x+y,-x,-z
y,-x+y,-z
x,y,-z
x-y,x,-z
-y,x-y,-z
-x+y,y,z
x,x-y,z
-y,-x,z
y,x,z
x-y,-y,z
-x,-x+y,z
loop_
_atom_site_type_symbol
_atom_site_label
_atom_site_fract_x
_atom_site_fract_y
_atom_site_fract_z
Si Si1 0.437953 0.667231 0.321867
Si Si2 0.939058 0.060943 0.000000
Si Si3 0.749814 0.807359 0.830138
Si Si4 0.909719 0.819438 0.675316
Si Si5 0.492698 0.613226 0.175277
Si Si6 0.941206 0.343195 0.322250
Si Si7 0.135652 0.370914 0.174303
O O1 0.445682 0.667893 0.500000
O O2 0.442478 0.721239 0.278725
O O3 0.380375 0.619626 0.291035
O O4 0.477414 0.654004 0.240591
O O5 0.926674 0.073327 0.829475
O O6 0.000000 0.089220 0.000000
O O7 0.759489 0.759489 0.817281
O O8 0.783495 0.848959 0.707028
O O9 0.691085 0.792254 0.817969
O O10 0.767033 0.828302 0.000000
O O11 0.918969 0.837938 0.500000
O O12 0.442456 0.557545 0.197494
O O13 0.541796 0.617948 0.258237
O O14 0.502945 0.621893 0.000000
O O15 0.939953 0.342652 0.500000
O O16 0.897512 0.287929 0.261771
O O17 0.000000 0.361304 0.275349
O O18 0.193259 0.386518 0.225998
O O19 0.138881 0.385184 0.000000
#
# Coordination Sequence:
#
# PCOD9588264 Si02
#       7
#    24   6  24  12  24  24  24
#     4   9  17  31  54  85 122 163 205 250 303 365
#     4  12  27  48  68  88 120 160 208 264 322 386
#     4  10  19  36  62  89 122 162 201 246 300 360
#     4  12  24  39  63  95 124 156 200 254 312 374
#     4  10  22  40  62  88 117 153 203 260 313 367
#     4  11  25  43  63  89 122 160 202 250 307 369
#     4  10  21  39  64  93 125 163 205 245 293 356
#
# _framework density 19.672675999999999
#
# number of rings (size 3 to 8) (size 9 to 14) (size 15 to 20)
#    0.000    1.739    1.739    2.304    0.000    7.652 
#    0.000    1.739    0.000    1.565    0.000    0.000 
#    0.000    0.000    0.000    0.000    0.000    0.000 
#
# Total GULP energy -769955.402803 kJ/mol
# GULP energy per Si atom -5579.386977 kJ/mol
# Density = 1.962790 g / cm^3
# Si number density = 19.672676 Si / 1000 Ang^3
#
#
#
# Elastic Constant Matrix: (Units=GPa)
#
#
# Indices 1 2 3 4 5 6 
#
# 1 81.3451 39.7873 40.0218 0.0000 0.0000 0.0000
# 2 39.7873 81.3451 40.0218 0.0000 0.0000 0.0000
# 3 40.0218 40.0218 86.6437 0.0000 0.0000 0.0000
# 4 0.0000 0.0000 0.0000 27.7722 0.0000 0.0000
# 5 0.0000 0.0000 0.0000 0.0000 27.7722 0.0000
# 6 0.0000 0.0000 0.0000 0.0000 0.0000 20.7789
#
#
#
# Elastic Compliance Matrix: (Units=1/GPa)
#
#
# Indices 1 2 3 4 5 6 
#
# 1 0.017973 -0.006090 -0.005489 0.000000 0.000000 0.000000
# 2 -0.006090 0.017973 -0.005489 0.000000 0.000000 0.000000
# 3 -0.005489 -0.005489 0.016612 0.000000 0.000000 0.000000
# 4 0.000000 0.000000 0.000000 0.036007 0.000000 0.000000
# 5 0.000000 0.000000 0.000000 0.000000 0.036007 0.000000
# 6 0.000000 0.000000 0.000000 0.000000 0.000000 0.048126
#
#
# Mechanical properties :
#
#
# Convention : Reuss Voigt Hill
#
# Bulk Modulus (GPa) = 54.28218 54.33283 54.30751
# Shear Modulus (GPa) = 23.47718 23.89821 23.68770
#
# Velocity S-wave (km/s) = 3.45830 3.48917 3.47377
# Velocity P-wave (km/s) = 6.60295 6.62652 6.61475
#
# Compressibility (1/GPa) = 0.01842225
#
# Stress axis : x y z
#
# Youngs Moduli (GPa) = 55.64040 55.64040 60.19754
#
# Poissons Ratio (x) = 0.33887 0.33040
# Poissons Ratio (y) = 0.33887 0.33040
# Poissons Ratio (z) = 0.30539 0.30539
#
# Static dielectric constant tensor:
#      x y z
#    x 1.703330 0.000000 0.000000 
#    y 0.000000 1.703330 0.000000 
#    z 0.000000 0.000000 1.671500 
# 
# From -- ./inp_files/2035.got.cif
#   From: 2010.05.17/outbox.ucp.g08.bks.cvg/sg191_2_cif.got.tgz:2035.got - 2010.06.11 15:22:43.
