data_PCOD9588137
_publ_section_title
;
Structure prediction by ZEFSAII (Michael W. Deem and Ramdas Pophale) SiO2 
 PCOD9588137
Probable space group: P 6/M M M
;
_chemical_formula_sum "Si O2"
_cell_formula_units_Z 144
_cell_length_a 32.471201
_cell_length_b 32.471201
_cell_length_c 8.511516
_cell_angle_alpha 90.000000
_cell_angle_beta 90.000000
_cell_angle_gamma 120.000000
_cell_volume 7772.026193
_symmetry_space_group_name_H-M "P 6/M M M"
_symmetry_group_IT_number 191
_symmetry_cell_setting 'hexagonal'
loop_
_space_group_symop_operation_xyz
x,y,z
x-y,x,z
-y,x-y,z
-x,-y,z
-x+y,-x,z
y,-x+y,z
x-y,-y,-z
-x,-x+y,-z
y,x,-z
-y,-x,-z
-x+y,y,-z
x,x-y,-z
-x,-y,-z
-x+y,-x,-z
y,-x+y,-z
x,y,-z
x-y,x,-z
-y,x-y,-z
-x+y,y,z
x,x-y,z
-y,-x,z
y,x,z
x-y,-y,z
-x,-x+y,z
loop_
_atom_site_type_symbol
_atom_site_label
_atom_site_fract_x
_atom_site_fract_y
_atom_site_fract_z
Si Si1 0.521072 0.574421 0.808666
Si Si2 0.946543 0.800190 0.690019
Si Si3 0.666683 0.237837 0.690053
Si Si4 0.707655 0.761548 0.188170
Si Si5 0.669425 0.146594 0.811460
Si Si6 0.760671 0.144973 0.311948
O O1 0.469514 0.530487 0.762519
O O2 0.560186 0.560186 0.758262
O O3 0.527882 0.624543 0.755660
O O4 0.521736 0.575152 0.000000
O O5 0.945639 0.798051 0.500000
O O6 0.905010 0.810019 0.742354
O O7 0.937249 0.749679 0.752728
O O8 0.000000 0.838905 0.738795
O O9 0.667115 0.235629 0.500000
O O10 0.620926 0.241852 0.736603
O O11 0.715489 0.284512 0.739392
O O12 0.663285 0.190393 0.757341
O O13 0.723208 0.723208 0.238271
O O14 0.657983 0.752806 0.252441
O O15 0.706449 0.761702 0.000000
O O16 0.718281 0.152657 0.746708
O O17 0.670427 0.145628 0.000000
O O18 0.761043 0.144996 0.500000
O O19 0.811486 0.188515 0.257129
#
# Coordination Sequence:
#
# PCOD9588137 Si02
#       6
#    24  24  24  24  24  24
#     4   8  15  30  52  77 105 136 169 207 254 307
#     4   9  17  30  49  73 102 137 176 217 263 316
#     4  10  21  38  59  81 107 141 180 220 265 321
#     4  10  21  36  55  80 107 134 169 217 270 320
#     4  11  22  35  55  83 111 139 176 222 270 320
#     4  11  24  40  56  75 104 144 185 220 259 313
#
# _framework density 18.527987
#
# number of rings (size 3 to 8) (size 9 to 14) (size 15 to 20)
#    0.000    2.167    0.000    3.667    0.000    9.333 
#    0.000    1.667    0.000    2.667    0.000    7.000 
#    0.000    0.000    0.000    4.167    0.000    4.333 
#
# Total GULP energy -804008.562074 kJ/mol
# GULP energy per Si atom -5583.392792 kJ/mol
# Density = 1.848582 g / cm^3
# Si number density = 18.527987 Si / 1000 Ang^3
#
#
#
# Elastic Constant Matrix: (Units=GPa)
#
#
# Indices 1 2 3 4 5 6 
#
# 1 116.8811 57.5603 19.5402 0.0000 0.0000 0.0000
# 2 57.5603 116.8811 19.5402 0.0000 0.0000 0.0000
# 3 19.5402 19.5402 16.4365 0.0000 0.0000 0.0000
# 4 0.0000 0.0000 0.0000 14.1606 0.0000 0.0000
# 5 0.0000 0.0000 0.0000 0.0000 14.1606 0.0000
# 6 0.0000 0.0000 0.0000 0.0000 0.0000 29.6604
#
#
#
# Elastic Compliance Matrix: (Units=1/GPa)
#
#
# Indices 1 2 3 4 5 6 
#
# 1 0.012336 -0.004522 -0.009289 0.000000 0.000000 0.000000
# 2 -0.004522 0.012336 -0.009289 0.000000 0.000000 0.000000
# 3 -0.009289 -0.009289 0.082926 0.000000 0.000000 0.000000
# 4 0.000000 0.000000 0.000000 0.070619 0.000000 0.000000
# 5 0.000000 0.000000 0.000000 0.000000 0.070619 0.000000
# 6 0.000000 0.000000 0.000000 0.000000 0.000000 0.033715
#
#
# Mechanical properties :
#
#
# Convention : Reuss Voigt Hill
#
# Bulk Modulus (GPa) = 16.28738 49.27558 32.78148
# Shear Modulus (GPa) = 14.31782 21.83352 18.07567
#
# Velocity S-wave (km/s) = 2.78288 3.43652 3.12683
# Velocity P-wave (km/s) = 4.37444 6.51146 5.54684
#
# Compressibility (1/GPa) = 0.06139724
#
# Stress axis : x y z
#
# Youngs Moduli (GPa) = 81.06649 81.06649 12.05893
#
# Poissons Ratio (x) = 0.36658 0.11202
# Poissons Ratio (y) = 0.36658 0.11202
# Poissons Ratio (z) = 0.75303 0.75303
#
# Static dielectric constant tensor:
#      x y z
#    x 1.623530 0.000000 0.000000 
#    y 0.000000 1.623530 0.000000 
#    z 0.000000 0.000000 1.636410 
# 
# From -- ./inp_files/1954.got.cif
#   From: 2010.05.17/outbox.cif.g08.bks.cpg/sg191_1_cif.got.tgz:1954.got - 2010.05.20 12:20:32.
