data_PCOD9588452
_publ_section_title
;
Structure prediction by ZEFSAII (Michael W. Deem and Ramdas Pophale) SiO2 
 PCOD9588452
Probable space group: P 6/M C C
;
_chemical_formula_sum "Si O2"
_cell_formula_units_Z 192
_cell_length_a 23.917998
_cell_length_b 23.917998
_cell_length_c 20.940939
_cell_angle_alpha 90.000000
_cell_angle_beta 90.000000
_cell_angle_gamma 120.000000
_cell_volume 10374.721180
_symmetry_space_group_name_H-M "P 6/M C C"
_symmetry_group_IT_number 192
_symmetry_cell_setting 'hexagonal'
loop_
_space_group_symop_operation_xyz
x,y,z
x-y,x,z
-y,x-y,z
-x,-y,z
-x+y,-x,z
y,-x+y,z
x-y,-y,1/2-z
-x,-x+y,1/2-z
y,x,1/2-z
-y,-x,1/2-z
-x+y,y,1/2-z
x,x-y,1/2-z
-x,-y,-z
-x+y,-x,-z
y,-x+y,-z
x,y,-z
x-y,x,-z
-y,x-y,-z
-x+y,y,1/2+z
x,x-y,1/2+z
-y,-x,1/2+z
y,x,1/2+z
x-y,-y,1/2+z
-x,-x+y,1/2+z
loop_
_atom_site_type_symbol
_atom_site_label
_atom_site_fract_x
_atom_site_fract_y
_atom_site_fract_z
Si Si1 0.990042 0.678091 0.183443
Si Si2 0.208438 0.774649 0.922104
Si Si3 0.515434 0.139587 0.076734
Si Si4 0.853097 0.359804 0.423053
Si Si5 0.135922 0.129476 0.430248
Si Si6 0.596790 0.999387 0.075648
Si Si7 0.670814 0.817850 0.819541
Si Si8 0.044414 0.824319 0.809147
O O1 0.008792 0.654516 0.120738
O O2 0.918660 0.668118 0.175718
O O3 0.000000 0.649693 0.250000
O O4 0.036591 0.753984 0.192525
O O5 0.174828 0.699028 0.903927
O O6 0.284866 0.810957 0.904629
O O7 0.178021 0.809232 0.879720
O O8 0.202419 0.780001 0.000000
O O9 0.588030 0.165926 0.101568
O O10 0.472931 0.062576 0.088435
O O11 0.520274 0.147123 0.000000
O O12 0.848037 0.358765 0.500000
O O13 0.929066 0.389585 0.408869
O O14 0.125610 0.058046 0.425862
O O15 0.164209 0.156784 0.500000
O O16 0.181431 0.168451 0.372928
O O17 0.609317 0.998248 0.000000
O O18 0.642990 0.821495 0.750000
O O19 0.745219 0.877698 0.816319
O O20 0.000000 0.824204 0.750000
#
# Coordination Sequence:
#
# PCOD9588452 Si02
#       8
#    24  24  24  24  24  24  24  24
#     4  11  22  35  54  79 113 147 189 231 286 347
#     4  10  21  37  59  89 120 152 196 239 283 348
#     4   9  18  32  55  86 117 151 189 235 288 337
#     4   9  17  33  55  84 119 151 187 233 287 339
#     4  10  22  39  58  79 105 139 181 234 295 347
#     4  10  19  34  57  83 112 149 192 240 285 338
#     4  12  22  38  59  80 115 159 183 232 298 344
#     4  11  23  38  57  80 109 147 192 236 281 351
#
# _framework density 18.506522
#
# number of rings (size 3 to 8) (size 9 to 14) (size 15 to 20)
#    0.000    1.750    3.750    2.000    0.000    3.000 
#    0.750    0.000    0.000    4.500    0.000    0.000 
#    0.000    0.000    0.000    0.000    0.000    0.000 
#
# Total GULP energy -1069225.136845 kJ/mol
# GULP energy per Si atom -5568.880921 kJ/mol
# Density = 1.846440 g / cm^3
# Si number density = 18.506522 Si / 1000 Ang^3
#
#
#
# Elastic Constant Matrix: (Units=GPa)
#
#
# Indices 1 2 3 4 5 6 
#
# 1 36.8522 49.3750 25.9519 0.0000 0.0000 0.0000
# 2 49.3750 36.8522 25.9519 0.0000 0.0000 0.0000
# 3 25.9519 25.9519 80.2063 0.0000 0.0000 0.0000
# 4 0.0000 0.0000 0.0000 14.2674 0.0000 0.0000
# 5 0.0000 0.0000 0.0000 0.0000 14.2674 0.0000
# 6 0.0000 0.0000 0.0000 0.0000 0.0000 -6.2614
#
#
#
# Elastic Compliance Matrix: (Units=1/GPa)
#
#
# Indices 1 2 3 4 5 6 
#
# 1 -0.032726 0.047128 -0.004660 0.000000 0.000000 0.000000
# 2 0.047128 -0.032726 -0.004660 0.000000 0.000000 0.000000
# 3 -0.004660 -0.004660 0.015484 0.000000 0.000000 0.000000
# 4 0.000000 0.000000 0.000000 0.070090 0.000000 0.000000
# 5 0.000000 0.000000 0.000000 0.000000 0.070090 0.000000
# 6 0.000000 0.000000 0.000000 0.000000 0.000000 -0.159709
#
#
# Mechanical properties :
#
#
# Convention : Reuss Voigt Hill
#
# Bulk Modulus (GPa) = 38.98955 39.60758 39.29857
# Shear Modulus (GPa) = -36.61273 7.96349 -14.32462
#
# Velocity S-wave (km/s) = -4.45271 2.07663 -2.78516
# Velocity P-wave (km/s) = 2.30690 5.21520 3.30730
#
# Compressibility (1/GPa) = 0.02564790
#
# Stress axis : x y z
#
# Youngs Moduli (GPa) = -30.55680 -30.55680 64.58474
#
# Poissons Ratio (x) = 1.44009 0.30097
# Poissons Ratio (y) = 1.44009 0.30097
# Poissons Ratio (z) = -0.14240 -0.14240
#
# Static dielectric constant tensor:
#      x y z
#    x 1.675090 0.000000 0.000000 
#    y 0.000000 1.675090 0.000000 
#    z 0.000000 0.000000 1.660740 
# 
# From -- ./inp_files/5428.got.cif
#   From: 2010.05.17/outbox.cif.g08.bks.cpg/sg192_3_cif.got.tgz:5428.got - 2010.05.20 12:28:01.
