data_PCOD9588061
_publ_section_title
;
Structure prediction by ZEFSAII (Michael W. Deem and Ramdas Pophale) SiO2 
 PCOD9588061
Probable space group: P 6/M M M
;
_chemical_formula_sum "Si O2"
_cell_formula_units_Z 108
_cell_length_a 17.975950
_cell_length_b 17.975950
_cell_length_c 22.897434
_cell_angle_alpha 90.000000
_cell_angle_beta 90.000000
_cell_angle_gamma 120.000000
_cell_volume 6407.684950
_symmetry_space_group_name_H-M "P 6/M M M"
_symmetry_group_IT_number 191
_symmetry_cell_setting 'hexagonal'
loop_
_space_group_symop_operation_xyz
x,y,z
x-y,x,z
-y,x-y,z
-x,-y,z
-x+y,-x,z
y,-x+y,z
x-y,-y,-z
-x,-x+y,-z
y,x,-z
-y,-x,-z
-x+y,y,-z
x,x-y,-z
-x,-y,-z
-x+y,-x,-z
y,-x+y,-z
x,y,-z
x-y,x,-z
-y,x-y,-z
-x+y,y,z
x,x-y,z
-y,-x,z
y,x,z
x-y,-y,z
-x,-x+y,z
loop_
_atom_site_type_symbol
_atom_site_label
_atom_site_fract_x
_atom_site_fract_y
_atom_site_fract_z
Si Si1 0.102187 0.465318 0.146943
Si Si2 0.099367 0.900634 0.071164
Si Si3 0.156852 0.666067 0.500000
Si Si4 0.398988 0.199494 0.930247
Si Si5 0.510555 0.844440 0.628108
Si Si6 0.731292 0.097806 0.262612
O O1 0.129471 0.564736 0.150823
O O2 0.150160 0.444239 0.096738
O O3 0.117198 0.430000 0.207791
O O4 0.000000 0.412482 0.136116
O O5 0.149239 0.850762 0.088682
O O6 0.000000 0.850425 0.090237
O O7 0.098714 0.901287 0.000000
O O8 0.243363 0.756638 0.500000
O O9 0.178767 0.589384 0.500000
O O10 0.115809 0.659736 0.563380
O O11 0.401828 0.200914 0.000000
O O12 0.422896 0.845792 0.639308
O O13 0.491961 0.745981 0.627125
O O14 0.579142 0.891070 0.678856
O O15 0.831135 0.168865 0.263398
O O16 0.708803 0.000000 0.257287
#
# Coordination Sequence:
#
# PCOD9588061 Si02
#       6
#    24  12  12  12  24  24
#     4  10  21  38  58  79 104 135 173 215 258 304
#     4   9  17  30  51  80 112 142 171 206 253 315
#     4   8  13  22  37  63 102 143 180 214 251 292
#     4  11  22  37  56  79 106 139 176 215 262 317
#     4   9  16  26  44  72 106 144 181 216 251 291
#     4  10  20  36  57  78 100 130 169 212 258 308
#
# _framework density 16.854761
#
# number of rings (size 3 to 8) (size 9 to 14) (size 15 to 20)
#    0.000    2.444    1.111    1.778    0.000    5.333 
#    0.667    1.667    0.000    2.222    0.000    0.000 
#    0.000    0.000    0.000    0.000    0.000   13.111 
#
# Total GULP energy -602090.707897 kJ/mol
# GULP energy per Si atom -5574.913962 kJ/mol
# Density = 1.681640 g / cm^3
# Si number density = 16.854761 Si / 1000 Ang^3
#
#
#
# Elastic Constant Matrix: (Units=GPa)
#
#
# Indices 1 2 3 4 5 6 
#
# 1 84.2470 63.7748 42.1873 0.0000 0.0000 0.0000
# 2 63.7748 84.2470 42.1873 0.0000 0.0000 0.0000
# 3 42.1873 42.1873 97.5528 0.0000 0.0000 0.0000
# 4 0.0000 0.0000 0.0000 12.3688 0.0000 0.0000
# 5 0.0000 0.0000 0.0000 0.0000 12.3688 0.0000
# 6 0.0000 0.0000 0.0000 0.0000 0.0000 10.2361
#
#
#
# Elastic Compliance Matrix: (Units=1/GPa)
#
#
# Indices 1 2 3 4 5 6 
#
# 1 0.028906 -0.019940 -0.003877 0.000000 0.000000 0.000000
# 2 -0.019940 0.028906 -0.003877 0.000000 0.000000 0.000000
# 3 -0.003877 -0.003877 0.013604 0.000000 0.000000 0.000000
# 4 0.000000 0.000000 0.000000 0.080849 0.000000 0.000000
# 5 0.000000 0.000000 0.000000 0.000000 0.080849 0.000000
# 6 0.000000 0.000000 0.000000 0.000000 0.000000 0.097693
#
#
# Mechanical properties :
#
#
# Convention : Reuss Voigt Hill
#
# Bulk Modulus (GPa) = 62.39545 62.48285 62.43915
# Shear Modulus (GPa) = 12.77008 14.85457 13.81233
#
# Velocity S-wave (km/s) = 2.75554 2.97194 2.86578
# Velocity P-wave (km/s) = 6.87196 6.99488 6.93369
#
# Compressibility (1/GPa) = 0.01602681
#
# Stress axis : x y z
#
# Youngs Moduli (GPa) = 34.59457 34.59457 73.50546
#
# Poissons Ratio (x) = 0.68983 0.28501
# Poissons Ratio (y) = 0.68983 0.28501
# Poissons Ratio (z) = 0.13414 0.13414
#
# Static dielectric constant tensor:
#      x y z
#    x 1.551320 0.000000 0.000000 
#    y 0.000000 1.551320 0.000000 
#    z 0.000000 0.000000 1.595430 
# 
# From -- ./inp_files/7351.got.cif
#   From: 2010.05.17/outbox.cif.g08.bks.cpg/sg191_4_cif.got.tgz:7351.got - 2010.05.20 12:20:32.
