data_PCOD9588693
_publ_section_title
;
Structure prediction by ZEFSAII (Michael W. Deem and Ramdas Pophale) SiO2 
 PCOD9588693
Probable space group: P 6/M C C
;
_chemical_formula_sum "Si O2"
_cell_formula_units_Z 120
_cell_length_a 14.120064
_cell_length_b 14.120064
_cell_length_c 33.809764
_cell_angle_alpha 90.000000
_cell_angle_beta 90.000000
_cell_angle_gamma 120.000000
_cell_volume 5837.758184
_symmetry_space_group_name_H-M "P 6/M C C"
_symmetry_group_IT_number 192
_symmetry_cell_setting 'hexagonal'
loop_
_space_group_symop_operation_xyz
x,y,z
x-y,x,z
-y,x-y,z
-x,-y,z
-x+y,-x,z
y,-x+y,z
x-y,-y,1/2-z
-x,-x+y,1/2-z
y,x,1/2-z
-y,-x,1/2-z
-x+y,y,1/2-z
x,x-y,1/2-z
-x,-y,-z
-x+y,-x,-z
y,-x+y,-z
x,y,-z
x-y,x,-z
-y,x-y,-z
-x+y,y,1/2+z
x,x-y,1/2+z
-y,-x,1/2+z
y,x,1/2+z
x-y,-y,1/2+z
-x,-x+y,1/2+z
loop_
_atom_site_type_symbol
_atom_site_label
_atom_site_fract_x
_atom_site_fract_y
_atom_site_fract_z
Si Si1 0.060017 0.670178 0.115438
Si Si2 0.535606 0.396184 0.844594
Si Si3 0.236258 0.211204 0.452985
Si Si4 0.483933 0.195635 0.209493
Si Si5 0.832149 0.086190 0.319706
O O1 0.951495 0.581670 0.139074
O O2 0.036246 0.697931 0.072127
O O3 0.137064 0.615745 0.120791
O O4 0.101129 0.783277 0.138933
O O5 0.588900 0.470582 0.805305
O O6 0.522387 0.284990 0.826301
O O7 0.216952 0.090147 0.443898
O O8 0.255652 0.228338 0.500000
O O9 0.522308 0.261154 0.250000
O O10 0.353587 0.123875 0.210614
O O11 0.960752 0.162952 0.316188
#
# Coordination Sequence:
#
# PCOD9588693 Si02
#       5
#    24  24  24  24  24
#     4  10  21  40  63  93 131 174 221 270 328 400
#     4  10  22  41  62  91 123 165 225 283 335 399
#     4  10  21  38  67 105 144 179 216 267 324 391
#     4  11  23  41  66  94 123 163 225 298 356 391
#     4  11  22  39  61  92 130 173 219 264 329 416
#
# _framework density 20.555835999999999
#
# number of rings (size 3 to 8) (size 9 to 14) (size 15 to 20)
#    0.000    1.600    2.000    2.600    2.800    1.600 
#    0.000    8.000    0.000    1.200    0.000    0.000 
#    0.000    0.000    0.000    0.000    0.000    0.000 
#
# Total GULP energy -668193.500814 kJ/mol
# GULP energy per Si atom -5568.279173 kJ/mol
# Density = 2.050905 g / cm^3
# Si number density = 20.555836 Si / 1000 Ang^3
#
#
#
# Elastic Constant Matrix: (Units=GPa)
#
#
# Indices 1 2 3 4 5 6 
#
# 1 139.2049 54.8178 43.7713 0.0000 0.0000 0.0000
# 2 54.8178 139.2049 43.7713 0.0000 0.0000 0.0000
# 3 43.7713 43.7713 100.3022 0.0000 0.0000 0.0000
# 4 0.0000 0.0000 0.0000 25.1204 0.0000 0.0000
# 5 0.0000 0.0000 0.0000 0.0000 25.1204 0.0000
# 6 0.0000 0.0000 0.0000 0.0000 0.0000 42.1936
#
#
#
# Elastic Compliance Matrix: (Units=1/GPa)
#
#
# Indices 1 2 3 4 5 6 
#
# 1 0.009134 -0.002716 -0.002801 0.000000 0.000000 0.000000
# 2 -0.002716 0.009134 -0.002801 0.000000 0.000000 0.000000
# 3 -0.002801 -0.002801 0.012414 0.000000 0.000000 0.000000
# 4 0.000000 0.000000 0.000000 0.039808 0.000000 0.000000
# 5 0.000000 0.000000 0.000000 0.000000 0.039808 0.000000
# 6 0.000000 0.000000 0.000000 0.000000 0.000000 0.023700
#
#
# Mechanical properties :
#
#
# Convention : Reuss Voigt Hill
#
# Bulk Modulus (GPa) = 71.18937 73.71475 72.45206
# Shear Modulus (GPa) = 32.19240 34.24367 33.21804
#
# Velocity S-wave (km/s) = 3.96169 4.08595 4.02430
# Velocity P-wave (km/s) = 7.45882 7.62880 7.54429
#
# Compressibility (1/GPa) = 0.01404704
#
# Stress axis : x y z
#
# Youngs Moduli (GPa) = 109.48216 109.48216 80.55268
#
# Poissons Ratio (x) = 0.29738 0.22560
# Poissons Ratio (y) = 0.29738 0.22560
# Poissons Ratio (z) = 0.30662 0.30662
#
# Static dielectric constant tensor:
#      x y z
#    x 1.819800 0.000000 0.000000 
#    y 0.000000 1.819800 0.000000 
#    z 0.000000 0.000000 1.755890 
# 
# From -- ./inp_files/6953.got.cif
#   From: 2010.05.17/outbox.cif.g08.bks.cpg/sg192_4_cif.got.tgz:6953.got - 2010.05.20 12:28:01.
