data_PCOD9588615
_publ_section_title
;
Structure prediction by ZEFSAII (Michael W. Deem and Ramdas Pophale) SiO2 
 PCOD9588615
Probable space group: P 6/M C C
;
_chemical_formula_sum "Si O2"
_cell_formula_units_Z 152
_cell_length_a 18.031560
_cell_length_b 18.031560
_cell_length_c 27.995482
_cell_angle_alpha 90.000000
_cell_angle_beta 90.000000
_cell_angle_gamma 120.000000
_cell_volume 7882.884866
_symmetry_space_group_name_H-M "P 6/M C C"
_symmetry_group_IT_number 192
_symmetry_cell_setting 'hexagonal'
loop_
_space_group_symop_operation_xyz
x,y,z
x-y,x,z
-y,x-y,z
-x,-y,z
-x+y,-x,z
y,-x+y,z
x-y,-y,1/2-z
-x,-x+y,1/2-z
y,x,1/2-z
-y,-x,1/2-z
-x+y,y,1/2-z
x,x-y,1/2-z
-x,-y,-z
-x+y,-x,-z
y,-x+y,-z
x,y,-z
x-y,x,-z
-y,x-y,-z
-x+y,y,1/2+z
x,x-y,1/2+z
-y,-x,1/2+z
y,x,1/2+z
x-y,-y,1/2+z
-x,-x+y,1/2+z
loop_
_atom_site_type_symbol
_atom_site_label
_atom_site_fract_x
_atom_site_fract_y
_atom_site_fract_z
Si Si1 0.897567 0.466151 0.446996
Si Si2 0.525523 0.782215 0.806302
Si Si3 0.666667 0.333334 0.192959
Si Si4 0.660758 0.707233 0.641914
Si Si5 0.874629 0.552082 0.885890
Si Si6 0.614268 0.767817 0.554928
Si Si7 0.830244 0.827502 0.307437
O O1 0.868186 0.426803 0.500000
O O2 0.859165 0.396872 0.405413
O O3 0.868096 0.536618 0.442431
O O4 0.000000 0.500000 0.446556
O O5 0.534643 0.767322 0.750000
O O6 0.425941 0.746233 0.819360
O O7 0.587568 0.878130 0.825689
O O8 0.548140 0.721372 0.837269
O O9 0.666668 0.333334 0.250000
O O10 0.640402 0.615254 0.623161
O O11 0.676609 0.766581 0.595423
O O12 0.747544 0.746706 0.671702
O O13 0.834617 0.586573 0.926096
O O14 0.643256 0.784387 0.500000
O O15 0.916840 0.830098 0.322238
O O16 0.825112 0.825112 0.250000
#
# Coordination Sequence:
#
# PCOD9588615 Si02
#       7
#    24  24   8  24  24  24  24
#     4  10  20  38  61  85 119 160 201 257 317 372
#     4  10  24  40  63  87 123 169 217 261 323 377
#     4   9  21  45  60  81 115 167 217 276 309 375
#     4  11  23  38  59  96 125 166 210 262 318 382
#     4  11  23  36  62  90 124 160 206 263 321 378
#     4  10  22  40  60  88 123 160 207 253 315 388
#     4  10  21  37  62  88 125 161 203 257 315 378
#
# _framework density 19.282281999999999
#
# number of rings (size 3 to 8) (size 9 to 14) (size 15 to 20)
#    0.000    1.737    1.579    2.526    8.842    1.263 
#    0.947    0.000    0.000    2.842    0.000    0.000 
#    0.000    2.526    0.000    0.000    0.000    0.000 
#
# Total GULP energy -847800.227731 kJ/mol
# GULP energy per Si atom -5577.633077 kJ/mol
# Density = 1.923839 g / cm^3
# Si number density = 19.282282 Si / 1000 Ang^3
#
#
#
# Elastic Constant Matrix: (Units=GPa)
#
#
# Indices 1 2 3 4 5 6 
#
# 1 71.3175 22.9672 34.8122 0.0000 0.0000 -0.0001
# 2 22.9672 71.3172 34.8118 0.0000 0.0000 0.0000
# 3 34.8122 34.8118 97.2037 0.0000 0.0000 0.0000
# 4 0.0000 0.0000 0.0000 19.4685 0.0000 0.0000
# 5 0.0000 0.0000 0.0000 0.0000 19.4686 0.0000
# 6 -0.0001 0.0000 0.0000 0.0000 0.0000 24.1749
#
#
#
# Elastic Compliance Matrix: (Units=1/GPa)
#
#
# Indices 1 2 3 4 5 6 
#
# 1 0.017551 -0.003131 -0.005164 0.000000 0.000000 0.000000
# 2 -0.003131 0.017551 -0.005164 0.000000 0.000000 0.000000
# 3 -0.005164 -0.005164 0.013987 0.000000 0.000000 0.000000
# 4 0.000000 0.000000 0.000000 0.051365 0.000000 0.000000
# 5 0.000000 0.000000 0.000000 0.000000 0.051365 0.000000
# 6 0.000000 0.000000 0.000000 0.000000 0.000000 0.041365
#
#
# Mechanical properties :
#
#
# Convention : Reuss Voigt Hill
#
# Bulk Modulus (GPa) = 45.10757 47.22452 46.16605
# Shear Modulus (GPa) = 21.97871 22.43889 22.20880
#
# Velocity S-wave (km/s) = 3.37981 3.41501 3.39746
# Velocity P-wave (km/s) = 6.21892 6.33199 6.27571
#
# Compressibility (1/GPa) = 0.02216923
#
# Stress axis : x y z
#
# Youngs Moduli (GPa) = 56.97662 56.97659 71.49688
#
# Poissons Ratio (x) = 0.17842 0.36923
# Poissons Ratio (y) = 0.17842 0.36922
# Poissons Ratio (z) = 0.29424 0.29424
#
# Static dielectric constant tensor:
#      x y z
#    x 1.692510 0.000000 0.000000 
#    y 0.000000 1.692510 0.000000 
#    z 0.000000 0.000000 1.678000 
# 
# From -- ./inp_files/7138.got.cif
#   From: 2010.05.17/outbox.cif.g08.bks.cpg/sg192_4_cif.got.tgz:7138.got - 2010.05.20 12:28:01.
