data_PCOD9588252
_publ_section_title
;
Structure prediction by ZEFSAII (Michael W. Deem and Ramdas Pophale) SiO2 
 PCOD9588252
Probable space group: P 6/M M M
;
_chemical_formula_sum "Si O2"
_cell_formula_units_Z 144
_cell_length_a 33.761027
_cell_length_b 33.761027
_cell_length_c 7.638595
_cell_angle_alpha 90.000000
_cell_angle_beta 90.000000
_cell_angle_gamma 120.000000
_cell_volume 7540.070637
_symmetry_space_group_name_H-M "P 6/M M M"
_symmetry_group_IT_number 191
_symmetry_cell_setting 'hexagonal'
loop_
_space_group_symop_operation_xyz
x,y,z
x-y,x,z
-y,x-y,z
-x,-y,z
-x+y,-x,z
y,-x+y,z
x-y,-y,-z
-x,-x+y,-z
y,x,-z
-y,-x,-z
-x+y,y,-z
x,x-y,-z
-x,-y,-z
-x+y,-x,-z
y,-x+y,-z
x,y,-z
x-y,x,-z
-y,x-y,-z
-x+y,y,z
x,x-y,z
-y,-x,z
y,x,z
x-y,-y,z
-x,-x+y,z
loop_
_atom_site_type_symbol
_atom_site_label
_atom_site_fract_x
_atom_site_fract_y
_atom_site_fract_z
Si Si1 0.052293 0.770541 0.788627
Si Si2 0.050913 0.436214 0.289122
Si Si3 0.859180 0.385308 0.289659
Si Si4 0.807318 0.526001 0.210474
Si Si5 0.103326 0.719481 0.790313
Si Si6 0.051567 0.860615 0.709323
O O1 0.085826 0.752926 0.723139
O O2 0.064964 0.821585 0.740117
O O3 0.000000 0.737468 0.727802
O O4 0.051758 0.768186 0.000000
O O5 0.050092 0.439268 0.500000
O O6 0.092051 0.484694 0.223798
O O7 0.065704 0.398835 0.245454
O O8 0.000000 0.419737 0.223670
O O9 0.862517 0.388850 0.500000
O O10 0.850094 0.425047 0.224237
O O11 0.821342 0.333296 0.250056
O O12 0.758466 0.516931 0.275371
O O13 0.848680 0.574704 0.277630
O O14 0.807228 0.529334 0.000000
O O15 0.108101 0.725403 0.000000
O O16 0.049374 0.865085 0.500000
O O17 0.090903 0.909098 0.779359
O O18 0.000000 0.840485 0.779458
#
# Coordination Sequence:
#
# PCOD9588252 Si02
#       6
#    24  24  24  24  24  24
#     4   9  17  28  43  65  92 122 155 187 217 250
#     4   9  17  28  43  65  93 125 158 188 218 254
#     4   9  18  32  49  69  92 118 149 185 225 267
#     4   9  18  32  49  69  92 118 148 182 223 270
#     4   9  17  29  45  65  91 123 156 188 220 254
#     4   9  18  32  48  65  86 113 144 179 222 270
#
# _framework density 19.097964999999999
#
# number of rings (size 3 to 8) (size 9 to 14) (size 15 to 20)
#    0.000    3.000    0.000    0.500    0.000    3.667 
#    0.000    5.000    0.000    0.500    0.000    5.833 
#    0.000    0.000    0.000    4.167    0.000    4.333 
#
# Total GULP energy -802844.792275 kJ/mol
# GULP energy per Si atom -5575.311057 kJ/mol
# Density = 1.905450 g / cm^3
# Si number density = 19.097965 Si / 1000 Ang^3
#
#
#
# Elastic Constant Matrix: (Units=GPa)
#
#
# Indices 1 2 3 4 5 6 
#
# 1 133.3186 115.0419 5.9041 0.0000 0.0000 0.0000
# 2 115.0419 133.3186 5.9041 0.0000 0.0000 0.0000
# 3 5.9041 5.9041 34.5672 0.0000 0.0000 0.0000
# 4 0.0000 0.0000 0.0000 22.0437 0.0000 0.0000
# 5 0.0000 0.0000 0.0000 0.0000 22.0437 0.0000
# 6 0.0000 0.0000 0.0000 0.0000 0.0000 9.1383
#
#
#
# Elastic Compliance Matrix: (Units=1/GPa)
#
#
# Indices 1 2 3 4 5 6 
#
# 1 0.029387 -0.025328 -0.000693 0.000000 0.000000 0.000000
# 2 -0.025328 0.029387 -0.000693 0.000000 0.000000 0.000000
# 3 -0.000693 -0.000693 0.029166 0.000000 0.000000 0.000000
# 4 0.000000 0.000000 0.000000 0.045365 0.000000 0.000000
# 5 0.000000 0.000000 0.000000 0.000000 0.045365 0.000000
# 6 0.000000 0.000000 0.000000 0.000000 0.000000 0.109429
#
#
# Mechanical properties :
#
#
# Convention : Reuss Voigt Hill
#
# Bulk Modulus (GPa) = 28.97598 61.65607 45.31603
# Shear Modulus (GPa) = 14.16309 22.26876 18.21592
#
# Velocity S-wave (km/s) = 2.72619 3.41842 3.09174
# Velocity P-wave (km/s) = 5.01146 6.92351 6.04358
#
# Compressibility (1/GPa) = 0.03451134
#
# Stress axis : x y z
#
# Youngs Moduli (GPa) = 34.02871 34.02871 34.28654
#
# Poissons Ratio (x) = 0.86186 0.02377
# Poissons Ratio (y) = 0.86186 0.02377
# Poissons Ratio (z) = 0.02359 0.02359
#
# Static dielectric constant tensor:
#      x y z
#    x 1.661700 0.000000 0.000000 
#    y 0.000000 1.661700 0.000000 
#    z 0.000000 0.000000 1.737190 
# 
# From -- ./inp_files/1967.got.cif
#   From: 2010.05.17/outbox.cif.g08.bks.cpg/sg191_1_cif.got.tgz:1967.got - 2010.05.20 12:20:32.
