data_PCOD9588103
_publ_section_title
;
Structure prediction by ZEFSAII (Michael W. Deem and Ramdas Pophale) SiO2 
 PCOD9588103
Probable space group: P 6/M M M
;
_chemical_formula_sum "Si O2"
_cell_formula_units_Z 192
_cell_length_a 23.680022
_cell_length_b 23.680022
_cell_length_c 24.727422
_cell_angle_alpha 90.000000
_cell_angle_beta 90.000000
_cell_angle_gamma 120.000000
_cell_volume 12008.082842
_symmetry_space_group_name_H-M "P 6/M M M"
_symmetry_group_IT_number 191
_symmetry_cell_setting 'hexagonal'
loop_
_space_group_symop_operation_xyz
x,y,z
x-y,x,z
-y,x-y,z
-x,-y,z
-x+y,-x,z
y,-x+y,z
x-y,-y,-z
-x,-x+y,-z
y,x,-z
-y,-x,-z
-x+y,y,-z
x,x-y,-z
-x,-y,-z
-x+y,-x,-z
y,-x+y,-z
x,y,-z
x-y,x,-z
-y,x-y,-z
-x+y,y,z
x,x-y,z
-y,-x,z
y,x,z
x-y,-y,z
-x,-x+y,z
loop_
_atom_site_type_symbol
_atom_site_label
_atom_site_fract_x
_atom_site_fract_y
_atom_site_fract_z
Si Si1 0.688542 0.079339 0.560790
Si Si2 0.610764 0.872048 0.167097
Si Si3 0.596225 0.671433 0.937222
Si Si4 0.200582 0.925184 0.379561
Si Si5 0.666034 0.460866 0.935113
Si Si6 0.920849 0.396264 0.347006
Si Si7 0.276491 0.202672 0.745212
Si Si8 0.078228 0.605705 0.777943
O O1 0.688357 0.102231 0.500000
O O2 0.758996 0.094276 0.580475
O O3 0.657666 0.103178 0.606824
O O4 0.645041 0.000000 0.560294
O O5 0.596555 0.798278 0.164534
O O6 0.632551 0.906503 0.108578
O O7 0.665936 0.908371 0.212563
O O8 0.551072 0.881751 0.186018
O O9 0.614679 0.614679 0.929209
O O10 0.521334 0.653351 0.928910
O O11 0.612369 0.692961 0.000000
O O12 0.124637 0.875364 0.384816
O O13 0.220158 0.920863 0.317296
O O14 0.222462 0.000000 0.389363
O O15 0.736688 0.473375 0.915584
O O16 0.606072 0.393929 0.913040
O O17 0.666802 0.453246 0.000000
O O18 0.900170 0.450085 0.358026
O O19 0.904568 0.374258 0.284970
O O20 0.000000 0.435013 0.348434
O O21 0.254507 0.127254 0.752121
O O22 0.220580 0.220580 0.753374
O O23 0.089514 0.544757 0.788683
O O24 0.000000 0.576479 0.784934
#
# Coordination Sequence:
#
# PCOD9588103 Si02
#       8
#    24  24  24  24  24  24  24  24
#     4   9  16  24  36  57  85 116 148 182 220 264
#     4  11  21  32  49  70  92 118 148 185 229 277
#     4  10  21  35  49  65  88 119 153 191 234 279
#     4   9  17  29  44  62  86 116 150 188 231 278
#     4   9  17  30  48  68  90 117 149 183 219 261
#     4   8  14  25  41  61  86 117 149 180 218 260
#     4   9  17  29  47  69  90 114 145 184 227 271
#     4   9  17  30  49  70  92 120 154 193 231 267
#
# _framework density 15.989229999999999
#
# number of rings (size 3 to 8) (size 9 to 14) (size 15 to 20)
#    0.000    2.750    0.000    3.125    0.000    4.500 
#    0.000    2.500    0.000    0.500    0.000    1.750 
#    0.000    0.000    0.000    3.500    0.000    5.500 
#
# Total GULP energy -1068934.508137 kJ/mol
# GULP energy per Si atom -5567.367230 kJ/mol
# Density = 1.595284 g / cm^3
# Si number density = 15.989230 Si / 1000 Ang^3
#
#
#
# Elastic Constant Matrix: (Units=GPa)
#
#
# Indices 1 2 3 4 5 6 
#
# 1 66.1747 36.1945 36.5792 0.0000 0.0000 0.0000
# 2 36.1945 66.1747 36.5792 0.0000 0.0000 0.0000
# 3 36.5792 36.5792 82.3482 0.0000 0.0000 0.0000
# 4 0.0000 0.0000 0.0000 14.0630 0.0000 0.0000
# 5 0.0000 0.0000 0.0000 0.0000 14.0630 0.0000
# 6 0.0000 0.0000 0.0000 0.0000 0.0000 14.9901
#
#
#
# Elastic Compliance Matrix: (Units=1/GPa)
#
#
# Indices 1 2 3 4 5 6 
#
# 1 0.023834 -0.009522 -0.006357 0.000000 0.000000 0.000000
# 2 -0.009522 0.023834 -0.006357 0.000000 0.000000 0.000000
# 3 -0.006357 -0.006357 0.017791 0.000000 0.000000 0.000000
# 4 0.000000 0.000000 0.000000 0.071109 0.000000 0.000000
# 5 0.000000 0.000000 0.000000 0.000000 0.071109 0.000000
# 6 0.000000 0.000000 0.000000 0.000000 0.000000 0.066711
#
#
# Mechanical properties :
#
#
# Convention : Reuss Voigt Hill
#
# Bulk Modulus (GPa) = 47.65134 48.15592 47.90363
# Shear Modulus (GPa) = 15.34423 15.64617 15.49520
#
# Velocity S-wave (km/s) = 3.10120 3.13156 3.11642
# Velocity P-wave (km/s) = 6.53377 6.57713 6.55549
#
# Compressibility (1/GPa) = 0.02098577
#
# Stress axis : x y z
#
# Youngs Moduli (GPa) = 41.95752 41.95752 56.20686
#
# Poissons Ratio (x) = 0.39951 0.35733
# Poissons Ratio (y) = 0.39951 0.35733
# Poissons Ratio (z) = 0.26674 0.26674
#
# Static dielectric constant tensor:
#      x y z
#    x 1.532590 0.000000 0.000000 
#    y 0.000000 1.532590 0.000000 
#    z 0.000000 0.000000 1.572910 
# 
# From -- ./inp_files/9329.got.cif
#   From: 2010.05.17/outbox.cif.g08.bks.cpg/sg191_5_cif.got.tgz:9329.got - 2010.05.20 12:20:32.
