data_PCOD9588872
_publ_section_title
;
Structure prediction by ZEFSAII (Michael W. Deem and Ramdas Pophale) SiO2 
 PCOD9588872
Probable space group: P 63/M C M
;
_chemical_formula_sum "Si O2"
_cell_formula_units_Z 156
_cell_length_a 25.487607
_cell_length_b 25.487607
_cell_length_c 17.618212
_cell_angle_alpha 90.000000
_cell_angle_beta 90.000000
_cell_angle_gamma 120.000000
_cell_volume 9911.755655
_symmetry_space_group_name_H-M "P 63/M C M"
_symmetry_group_IT_number 193
_symmetry_cell_setting 'hexagonal'
loop_
_space_group_symop_operation_xyz
x,y,z
x-y,x,1/2+z
-y,x-y,z
-x,-y,1/2+z
-x+y,-x,z
y,-x+y,1/2+z
x-y,-y,1/2-z
-x,-x+y,1/2-z
y,x,1/2-z
-y,-x,-z
-x+y,y,-z
x,x-y,-z
-x,-y,-z
-x+y,-x,1/2-z
y,-x+y,-z
x,y,1/2-z
x-y,x,-z
-y,x-y,1/2-z
-x+y,y,1/2+z
x,x-y,1/2+z
-y,-x,1/2+z
y,x,z
x-y,-y,z
-x,-x+y,z
loop_
_atom_site_type_symbol
_atom_site_label
_atom_site_fract_x
_atom_site_fract_y
_atom_site_fract_z
Si Si1 0.697580 0.069498 0.599673
Si Si2 0.424949 0.290915 0.047005
Si Si3 0.206594 0.399473 0.666474
Si Si4 0.241294 0.543885 0.336355
Si Si5 0.894083 0.394547 0.163347
Si Si6 0.571873 0.502850 0.567692
Si Si7 0.735817 0.471633 0.000000
O O1 0.712649 0.088795 0.512484
O O2 0.753418 0.122035 0.646249
O O3 0.641015 0.080339 0.615337
O O4 0.676344 0.000000 0.615579
O O5 0.393886 0.234797 0.103811
O O6 0.459565 0.357305 0.082712
O O7 0.480714 0.288607 0.005187
O O8 0.179952 0.380819 0.750000
O O9 0.253500 0.472115 0.667706
O O10 0.266576 0.568242 0.250000
O O11 0.178405 0.544064 0.345934
O O12 0.276280 0.562882 0.418197
O O13 0.904341 0.384784 0.250000
O O14 0.926760 0.463687 0.140151
O O15 0.547607 0.452394 0.500000
O O16 0.548989 0.548989 0.545943
#
# Coordination Sequence:
#
# PCOD9588872 Si02
#       7
#    24  24  24  24  24  24  12
#     4  11  18  29  50  73  95 120 152 196 249 299
#     4  11  18  31  47  65  90 124 153 185 233 296
#     4   9  18  31  46  66  92 121 157 194 230 289
#     4   8  14  25  43  64  84 110 146 184 224 273
#     4  10  19  31  44  63  94 123 146 183 235 294
#     4  11  21  31  43  64  95 126 155 190 238 297
#     4  10  14  28  48  60  84 116 146 180 222 280
#
# _framework density 15.738887999999999
#
# number of rings (size 3 to 8) (size 9 to 14) (size 15 to 20)
#    0.000    2.000    6.154    2.308    0.000    2.769 
#    0.000    0.000    0.000    1.385    0.000    0.000 
#  134.615    0.000   22.154    0.000    0.000    0.000 
#
# Total GULP energy -868599.657495 kJ/mol
# GULP energy per Si atom -5567.946522 kJ/mol
# Density = 1.570307 g / cm^3
# Si number density = 15.738888 Si / 1000 Ang^3
#
#
#
# Elastic Constant Matrix: (Units=GPa)
#
#
# Indices 1 2 3 4 5 6 
#
# 1 35.3923 12.6422 17.5535 0.0000 0.0000 0.0000
# 2 12.6422 35.3923 17.5535 0.0000 0.0000 0.0000
# 3 17.5535 17.5535 99.2329 0.0000 0.0000 0.0000
# 4 0.0000 0.0000 0.0000 8.4400 0.0000 0.0000
# 5 0.0000 0.0000 0.0000 0.0000 8.4400 0.0000
# 6 0.0000 0.0000 0.0000 0.0000 0.0000 11.3750
#
#
#
# Elastic Compliance Matrix: (Units=1/GPa)
#
#
# Indices 1 2 3 4 5 6 
#
# 1 0.033933 -0.010023 -0.004229 0.000000 0.000000 0.000000
# 2 -0.010023 0.033933 -0.004229 0.000000 0.000000 0.000000
# 3 -0.004229 -0.004229 0.011574 0.000000 0.000000 0.000000
# 4 0.000000 0.000000 0.000000 0.118483 0.000000 0.000000
# 5 0.000000 0.000000 0.000000 0.000000 0.118483 0.000000
# 6 0.000000 0.000000 0.000000 0.000000 0.000000 0.087912
#
#
# Mechanical properties :
#
#
# Convention : Reuss Voigt Hill
#
# Bulk Modulus (GPa) = 23.54324 29.50175 26.52250
# Shear Modulus (GPa) = 10.97842 13.80224 12.39033
#
# Velocity S-wave (km/s) = 2.64395 2.96455 2.80883
# Velocity P-wave (km/s) = 4.93070 5.52298 5.23522
#
# Compressibility (1/GPa) = 0.04247504
#
# Stress axis : x y z
#
# Youngs Moduli (GPa) = 29.47010 29.47010 86.40357
#
# Poissons Ratio (x) = 0.29538 0.36543
# Poissons Ratio (y) = 0.29538 0.36543
# Poissons Ratio (z) = 0.12464 0.12464
#
# Static dielectric constant tensor:
#      x y z
#    x 1.531640 0.000000 0.000000 
#    y 0.000000 1.531640 0.000000 
#    z 0.000000 0.000000 1.624280 
# 
# From -- ./inp_files/5672.got.cif
#   From: 2010.05.17/outbox.cif.g08.bks.cpg/sg193_3_cif.got.tgz:5672.got - 2010.05.20 12:33:02.
