data_PCOD9588516
_publ_section_title
;
Structure prediction by ZEFSAII (Michael W. Deem and Ramdas Pophale) SiO2 
 PCOD9588516
Probable space group: P 6/M C C
;
_chemical_formula_sum "Si O2"
_cell_formula_units_Z 144
_cell_length_a 33.203385
_cell_length_b 33.203385
_cell_length_c 8.757199
_cell_angle_alpha 90.000000
_cell_angle_beta 90.000000
_cell_angle_gamma 120.000000
_cell_volume 8361.045231
_symmetry_space_group_name_H-M "P 6/M C C"
_symmetry_group_IT_number 192
_symmetry_cell_setting 'hexagonal'
loop_
_space_group_symop_operation_xyz
x,y,z
x-y,x,z
-y,x-y,z
-x,-y,z
-x+y,-x,z
y,-x+y,z
x-y,-y,1/2-z
-x,-x+y,1/2-z
y,x,1/2-z
-y,-x,1/2-z
-x+y,y,1/2-z
x,x-y,1/2-z
-x,-y,-z
-x+y,-x,-z
y,-x+y,-z
x,y,-z
x-y,x,-z
-y,x-y,-z
-x+y,y,1/2+z
x,x-y,1/2+z
-y,-x,1/2+z
y,x,1/2+z
x-y,-y,1/2+z
-x,-x+y,1/2+z
loop_
_atom_site_type_symbol
_atom_site_label
_atom_site_fract_x
_atom_site_fract_y
_atom_site_fract_z
Si Si1 0.610459 0.050476 0.316815
Si Si2 0.895861 0.191941 0.183903
Si Si3 0.859781 0.472852 0.182821
Si Si4 0.050669 0.861361 0.816614
Si Si5 0.472618 0.192910 0.682463
Si Si6 0.103040 0.717129 0.184071
O O1 0.607200 0.049786 0.500000
O O2 0.601612 0.090483 0.251045
O O3 0.663999 0.066583 0.272832
O O4 0.576312 0.000000 0.250000
O O5 0.845932 0.154069 0.250000
O O6 0.931772 0.174797 0.228803
O O7 0.909209 0.243678 0.232389
O O8 0.892740 0.189891 0.000000
O O9 0.846171 0.423086 0.250000
O O10 0.823824 0.490626 0.222881
O O11 0.863305 0.472591 0.000000
O O12 0.089203 0.910798 0.750000
O O13 0.000000 0.843696 0.750000
O O14 0.050202 0.863535 0.000000
O O15 0.484118 0.242059 0.750000
O O16 0.469708 0.193956 0.500000
O O17 0.423415 0.152624 0.747243
O O18 0.106785 0.718306 0.000000
#
# Coordination Sequence:
#
# PCOD9588516 Si02
#       6
#    24  24  24  24  24  24
#     4  10  20  34  51  72 101 136 174 216 259 302
#     4   9  18  31  47  70 100 133 169 206 244 288
#     4  10  21  37  56  78 102 130 167 210 256 306
#     4  10  20  35  54  76 102 132 167 206 248 294
#     4  10  20  33  52  78 105 133 166 205 251 304
#     4   9  18  32  49  71 102 139 176 214 253 293
#
# _framework density 17.222726999999999
#
# number of rings (size 3 to 8) (size 9 to 14) (size 15 to 20)
#    0.000    2.333    0.000    2.500    0.000    6.333 
#    0.000    1.667    0.000    0.500    0.000    1.167 
#    0.000    0.000    0.000    0.000    0.000    0.000 
#
# Total GULP energy -803609.969433 kJ/mol
# GULP energy per Si atom -5580.624788 kJ/mol
# Density = 1.718353 g / cm^3
# Si number density = 17.222727 Si / 1000 Ang^3
#
#
#
# Elastic Constant Matrix: (Units=GPa)
#
#
# Indices 1 2 3 4 5 6 
#
# 1 88.9808 64.6526 31.6201 0.0000 0.0000 0.0000
# 2 64.6526 88.9808 31.6201 0.0000 0.0000 0.0000
# 3 31.6201 31.6201 37.1301 0.0000 0.0000 0.0000
# 4 0.0000 0.0000 0.0000 26.8426 0.0000 0.0000
# 5 0.0000 0.0000 0.0000 0.0000 26.8426 0.0000
# 6 0.0000 0.0000 0.0000 0.0000 0.0000 12.1641
#
#
#
# Elastic Compliance Matrix: (Units=1/GPa)
#
#
# Indices 1 2 3 4 5 6 
#
# 1 0.025563 -0.015541 -0.008535 0.000000 0.000000 0.000000
# 2 -0.015541 0.025563 -0.008535 0.000000 0.000000 0.000000
# 3 -0.008535 -0.008535 0.041469 0.000000 0.000000 0.000000
# 4 0.000000 0.000000 0.000000 0.037254 0.000000 0.000000
# 5 0.000000 0.000000 0.000000 0.000000 0.037254 0.000000
# 6 0.000000 0.000000 0.000000 0.000000 0.000000 0.082209
#
#
# Mechanical properties :
#
#
# Convention : Reuss Voigt Hill
#
# Bulk Modulus (GPa) = 36.53133 52.31968 44.42551
# Shear Modulus (GPa) = 15.44827 18.98310 17.21568
#
# Velocity S-wave (km/s) = 2.99819 3.32356 3.16506
# Velocity P-wave (km/s) = 5.76565 6.72103 6.26159
#
# Compressibility (1/GPa) = 0.02737376
#
# Stress axis : x y z
#
# Youngs Moduli (GPa) = 39.11832 39.11832 24.11430
#
# Poissons Ratio (x) = 0.60795 0.20582
# Poissons Ratio (y) = 0.60795 0.20582
# Poissons Ratio (z) = 0.33387 0.33387
#
# Static dielectric constant tensor:
#      x y z
#    x 1.571710 0.000000 0.000000 
#    y 0.000000 1.571710 0.000000 
#    z 0.000000 0.000000 1.571270 
# 
# From -- ./inp_files/1170.got.cif
#   From: 2010.05.17/outbox.cif.g08.bks.cpg/sg192_1_cif.got.tgz:1170.got - 2010.05.20 12:28:01.
