data_PCOD9588699
_publ_section_title
;
Structure prediction by ZEFSAII (Michael W. Deem and Ramdas Pophale) SiO2 
 PCOD9588699
Probable space group: P 6/M C C
;
_chemical_formula_sum "Si O2"
_cell_formula_units_Z 54
_cell_length_a 11.291243
_cell_length_b 11.291243
_cell_length_c 24.794483
_cell_angle_alpha 90.000000
_cell_angle_beta 90.000000
_cell_angle_gamma 120.000000
_cell_volume 2737.594986
_symmetry_space_group_name_H-M "P 6/M C C"
_symmetry_group_IT_number 192
_symmetry_cell_setting 'hexagonal'
loop_
_space_group_symop_operation_xyz
x,y,z
x-y,x,z
-y,x-y,z
-x,-y,z
-x+y,-x,z
y,-x+y,z
x-y,-y,1/2-z
-x,-x+y,1/2-z
y,x,1/2-z
-y,-x,1/2-z
-x+y,y,1/2-z
x,x-y,1/2-z
-x,-y,-z
-x+y,-x,-z
y,-x+y,-z
x,y,-z
x-y,x,-z
-y,x-y,-z
-x+y,y,1/2+z
x,x-y,1/2+z
-y,-x,1/2+z
y,x,1/2+z
x-y,-y,1/2+z
-x,-x+y,1/2+z
loop_
_atom_site_type_symbol
_atom_site_label
_atom_site_fract_x
_atom_site_fract_y
_atom_site_fract_z
Si Si1 0.518110 0.345546 0.654327
Si Si2 0.307016 0.057033 0.938251
Si Si3 0.500000 0.000000 0.250000
O O1 0.534625 0.211755 0.652061
O O2 0.424469 0.335999 0.604839
O O3 0.468082 0.374273 0.710551
O O4 0.265864 0.174235 0.931426
O O5 0.356213 0.066180 0.000000
#
# Coordination Sequence:
#
# PCOD9588699 Si02
#       3
#    24  24   6
#     4  10  23  38  60  92 123 159 203 255 309 376
#     4  10  21  39  63  91 124 165 210 258 312 374
#     4  12  20  40  62  84 126 164 206 250 312 370
#
# _framework density 19.725342000000001
#
# number of rings (size 3 to 8) (size 9 to 14) (size 15 to 20)
#    0.889    0.889    0.000    4.444    0.000    3.556 
#    0.000    5.556    0.000    0.000    0.000    3.111 
#    0.000    0.000    0.000    0.000    0.000    0.000 
#
# Total GULP energy -301169.564302 kJ/mol
# GULP energy per Si atom -5577.214154 kJ/mol
# Density = 1.968045 g / cm^3
# Si number density = 19.725342 Si / 1000 Ang^3
#
#
#
# Elastic Constant Matrix: (Units=GPa)
#
#
# Indices 1 2 3 4 5 6 
#
# 1 99.3092 45.8389 87.2195 0.0000 0.0000 0.0000
# 2 45.8389 99.3092 87.2195 0.0000 0.0000 0.0000
# 3 87.2195 87.2195 190.0471 0.0000 0.0000 0.0000
# 4 0.0000 0.0000 0.0000 43.5701 0.0000 0.0000
# 5 0.0000 0.0000 0.0000 0.0000 43.5701 0.0000
# 6 0.0000 0.0000 0.0000 0.0000 0.0000 26.7351
#
#
#
# Elastic Compliance Matrix: (Units=1/GPa)
#
#
# Indices 1 2 3 4 5 6 
#
# 1 0.017032 -0.001670 -0.007051 0.000000 0.000000 0.000000
# 2 -0.001670 0.017032 -0.007051 0.000000 0.000000 0.000000
# 3 -0.007051 -0.007051 0.011733 0.000000 0.000000 0.000000
# 4 0.000000 0.000000 0.000000 0.022952 0.000000 0.000000
# 5 0.000000 0.000000 0.000000 0.000000 0.022952 0.000000
# 6 0.000000 0.000000 0.000000 0.000000 0.000000 0.037404
#
#
# Mechanical properties :
#
#
# Convention : Reuss Voigt Hill
#
# Bulk Modulus (GPa) = 70.14168 92.13569 81.13868
# Shear Modulus (GPa) = 30.22990 34.00091 32.11540
#
# Velocity S-wave (km/s) = 3.91902 4.15627 4.03939
# Velocity P-wave (km/s) = 7.49097 8.35724 7.93593
#
# Compressibility (1/GPa) = 0.01425686
#
# Stress axis : x y z
#
# Youngs Moduli (GPa) = 58.71138 58.71138 85.22661
#
# Poissons Ratio (x) = 0.09802 0.60090
# Poissons Ratio (y) = 0.09802 0.60090
# Poissons Ratio (z) = 0.41395 0.41395
#
# Static dielectric constant tensor:
#      x y z
#    x 1.726210 0.000000 0.000000 
#    y 0.000000 1.726210 0.000000 
#    z 0.000000 0.000000 1.676240 
# 
# From -- ./inp_files/4497.got.cif
#   From: 2010.05.17/outbox.cif.g08.bks.cpg/sg192_3_cif.got.tgz:4497.got - 2010.05.20 12:28:01.
