data_PCOD9588935
_publ_section_title
;
Structure prediction by ZEFSAII (Michael W. Deem and Ramdas Pophale) SiO2 
 PCOD9588935
Probable space group: P 63/M C M
;
_chemical_formula_sum "Si O2"
_cell_formula_units_Z 132
_cell_length_a 23.579571
_cell_length_b 23.579571
_cell_length_c 14.913882
_cell_angle_alpha 90.000000
_cell_angle_beta 90.000000
_cell_angle_gamma 120.000000
_cell_volume 7181.135692
_symmetry_space_group_name_H-M "P 63/M C M"
_symmetry_group_IT_number 193
_symmetry_cell_setting 'hexagonal'
loop_
_space_group_symop_operation_xyz
x,y,z
x-y,x,1/2+z
-y,x-y,z
-x,-y,1/2+z
-x+y,-x,z
y,-x+y,1/2+z
x-y,-y,1/2-z
-x,-x+y,1/2-z
y,x,1/2-z
-y,-x,-z
-x+y,y,-z
x,x-y,-z
-x,-y,-z
-x+y,-x,1/2-z
y,-x+y,-z
x,y,1/2-z
x-y,x,-z
-y,x-y,1/2-z
-x+y,y,1/2+z
x,x-y,1/2+z
-y,-x,1/2+z
y,x,z
x-y,-y,z
-x,-x+y,z
loop_
_atom_site_type_symbol
_atom_site_label
_atom_site_fract_x
_atom_site_fract_y
_atom_site_fract_z
Si Si1 0.927557 0.073218 0.358942
Si Si2 0.398387 0.131591 0.979058
Si Si3 0.453308 0.788210 0.050585
Si Si4 0.926340 0.667086 0.847274
Si Si5 0.336928 0.742062 0.750000
Si Si6 0.820093 0.714701 0.852516
O O1 0.927590 0.081412 0.250000
O O2 0.864795 0.077385 0.391786
O O3 0.000000 0.125634 0.391714
O O4 0.912636 0.000000 0.375856
O O5 0.471781 0.153520 0.951863
O O6 0.338136 0.096776 0.909365
O O7 0.400479 0.200240 0.000000
O O8 0.379814 0.089596 0.069166
O O9 0.436271 0.773783 0.155584
O O10 0.400906 0.801812 0.000000
O O11 0.448637 0.724319 0.000000
O O12 0.920503 0.635622 0.750000
O O13 0.873136 0.690286 0.849373
O O14 0.000000 0.727158 0.854139
O O15 0.273021 0.669572 0.750000
O O16 0.800783 0.718261 0.750000
#
# Coordination Sequence:
#
# PCOD9588935 Si02
#       6
#    24  24  24  24  12  24
#     4   9  16  26  43  69 103 142 181 220 266 328
#     4   9  20  32  48  76 108 137 173 223 281 330
#     4  11  19  34  50  77 116 148 186 228 272 329
#     4   9  17  33  54  73  93 125 174 226 275 324
#     4  10  18  30  52  78 107 156 196 214 257 324
#     4   9  17  30  46  72 104 139 175 218 272 328
#
# _framework density 18.381492999999999
#
# number of rings (size 3 to 8) (size 9 to 14) (size 15 to 20)
#    0.182    2.364    1.818    0.909    1.273    3.636 
#    6.545    0.000    0.000    0.545    0.000    0.000 
#    0.000   14.545    0.000    2.000    0.000    1.091 
#
# Total GULP energy -735166.835587 kJ/mol
# GULP energy per Si atom -5569.445724 kJ/mol
# Density = 1.833966 g / cm^3
# Si number density = 18.381493 Si / 1000 Ang^3
#
#
#
# Elastic Constant Matrix: (Units=GPa)
#
#
# Indices 1 2 3 4 5 6 
#
# 1 75.0291 42.5709 49.0970 0.0000 0.0000 0.0000
# 2 42.5709 75.0291 49.0970 0.0000 0.0000 0.0000
# 3 49.0970 49.0970 134.2723 0.0000 0.0000 0.0000
# 4 0.0000 0.0000 0.0000 14.9432 0.0000 0.0000
# 5 0.0000 0.0000 0.0000 0.0000 14.9432 0.0000
# 6 0.0000 0.0000 0.0000 0.0000 0.0000 16.2291
#
#
#
# Elastic Compliance Matrix: (Units=1/GPa)
#
#
# Indices 1 2 3 4 5 6 
#
# 1 0.021525 -0.009284 -0.004476 0.000000 0.000000 0.000000
# 2 -0.009284 0.021525 -0.004476 0.000000 0.000000 0.000000
# 3 -0.004476 -0.004476 0.010721 0.000000 0.000000 0.000000
# 4 0.000000 0.000000 0.000000 0.066920 0.000000 0.000000
# 5 0.000000 0.000000 0.000000 0.000000 0.066920 0.000000
# 6 0.000000 0.000000 0.000000 0.000000 0.000000 0.061618
#
#
# Mechanical properties :
#
#
# Convention : Reuss Voigt Hill
#
# Bulk Modulus (GPa) = 57.80769 62.87336 60.34053
# Shear Modulus (GPa) = 17.15463 18.79410 17.97436
#
# Velocity S-wave (km/s) = 3.05824 3.20104 3.13045
# Velocity P-wave (km/s) = 6.63231 6.92396 6.77970
#
# Compressibility (1/GPa) = 0.01729874
#
# Stress axis : x y z
#
# Youngs Moduli (GPa) = 46.45807 46.45807 93.27712
#
# Poissons Ratio (x) = 0.43132 0.41749
# Poissons Ratio (y) = 0.43132 0.41749
# Poissons Ratio (z) = 0.20794 0.20794
#
# Static dielectric constant tensor:
#      x y z
#    x 1.636060 0.000000 0.000000 
#    y 0.000000 1.636060 0.000000 
#    z 0.000000 0.000000 1.703200 
# 
# From -- ./inp_files/4168.got.cif
#   From: 2010.05.17/outbox.cif.g08.bks.cpg/sg193_3_cif.got.tgz:4168.got - 2010.05.20 12:33:02.
