data_PCOD9588883
_publ_section_title
;
Structure prediction by ZEFSAII (Michael W. Deem and Ramdas Pophale) SiO2 
 PCOD9588883
Probable space group: P 63/M C M
;
_chemical_formula_sum "Si O2"
_cell_formula_units_Z 80
_cell_length_a 19.475590
_cell_length_b 19.475590
_cell_length_c 15.825510
_cell_angle_alpha 90.000000
_cell_angle_beta 90.000000
_cell_angle_gamma 120.000000
_cell_volume 5198.398789
_symmetry_space_group_name_H-M "P 63/M C M"
_symmetry_group_IT_number 193
_symmetry_cell_setting 'hexagonal'
loop_
_space_group_symop_operation_xyz
x,y,z
x-y,x,1/2+z
-y,x-y,z
-x,-y,1/2+z
-x+y,-x,z
y,-x+y,1/2+z
x-y,-y,1/2-z
-x,-x+y,1/2-z
y,x,1/2-z
-y,-x,-z
-x+y,y,-z
x,x-y,-z
-x,-y,-z
-x+y,-x,1/2-z
y,-x+y,-z
x,y,1/2-z
x-y,x,-z
-y,x-y,1/2-z
-x+y,y,1/2+z
x,x-y,1/2+z
-y,-x,1/2+z
y,x,z
x-y,-y,z
-x,-x+y,z
loop_
_atom_site_type_symbol
_atom_site_label
_atom_site_fract_x
_atom_site_fract_y
_atom_site_fract_z
Si Si1 0.087759 0.429424 0.652356
Si Si2 0.092401 0.580206 0.590297
Si Si3 0.257197 0.486145 0.647002
Si Si4 0.333335 0.666667 0.852219
O O1 0.082979 0.406024 0.750000
O O2 0.102604 0.519205 0.651039
O O3 0.166509 0.432695 0.616537
O O4 0.000000 0.374614 0.613148
O O5 0.111567 0.555784 0.500000
O O6 0.146765 0.671620 0.613136
O O7 0.000000 0.553112 0.591070
O O8 0.257386 0.482819 0.750000
O O9 0.284432 0.576145 0.620692
O O10 0.333334 0.666668 0.750000
#
# Coordination Sequence:
#
# PCOD9588883 Si02
#       4
#    24  24  24   8
#     4   9  17  29  43  57  75 101 132 168 210 249
#     4  10  20  30  39  57  84 108 134 170 209 250
#     4  10  17  28  44  59  77 103 138 176 208 246
#     4   9  15  24  37  59  76  90 127 173 205 237
#
# _framework density 15.389355
#
# number of rings (size 3 to 8) (size 9 to 14) (size 15 to 20)
#    0.000    2.400    3.000    0.900    0.000    3.000 
#    0.000    0.000    0.000    0.000    0.000    0.000 
#    0.000    0.000    0.000    0.900    0.000   11.700 
#
# Total GULP energy -445491.260497 kJ/mol
# GULP energy per Si atom -5568.640756 kJ/mol
# Density = 1.535433 g / cm^3
# Si number density = 15.389355 Si / 1000 Ang^3
#
#
#
# Elastic Constant Matrix: (Units=GPa)
#
#
# Indices 1 2 3 4 5 6 
#
# 1 97.0224 51.2710 18.5071 0.0000 0.0000 0.0001
# 2 51.2710 97.0223 18.5070 0.0001 0.0000 0.0000
# 3 18.5071 18.5070 20.7951 0.0001 0.0000 -0.0001
# 4 0.0000 0.0001 0.0001 12.9119 0.0000 0.0000
# 5 0.0000 0.0000 0.0000 0.0000 12.9121 0.0000
# 6 0.0001 0.0000 -0.0001 0.0000 0.0000 22.8756
#
#
#
# Elastic Compliance Matrix: (Units=1/GPa)
#
#
# Indices 1 2 3 4 5 6 
#
# 1 0.015263 -0.006594 -0.007715 0.000000 0.000000 0.000000
# 2 -0.006594 0.015263 -0.007715 0.000000 0.000000 0.000000
# 3 -0.007715 -0.007715 0.061821 0.000000 0.000000 0.000000
# 4 0.000000 0.000000 0.000000 0.077448 0.000000 0.000000
# 5 0.000000 0.000000 0.000000 0.000000 0.077447 0.000000
# 6 0.000000 0.000000 0.000000 0.000000 0.000000 0.043715
#
#
# Mechanical properties :
#
#
# Convention : Reuss Voigt Hill
#
# Bulk Modulus (GPa) = 20.70470 43.48999 32.09735
# Shear Modulus (GPa) = 14.24072 18.17689 16.20880
#
# Velocity S-wave (km/s) = 3.04528 3.44049 3.24890
# Velocity P-wave (km/s) = 5.08410 6.64107 5.91404
#
# Compressibility (1/GPa) = 0.04829821
#
# Stress axis : x y z
#
# Youngs Moduli (GPa) = 65.51694 65.51708 16.17570
#
# Poissons Ratio (x) = 0.43202 0.12480
# Poissons Ratio (y) = 0.43202 0.12480
# Poissons Ratio (z) = 0.50549 0.50548
#
# Static dielectric constant tensor:
#      x y z
#    x 1.531590 0.000000 0.000000 
#    y 0.000000 1.531590 0.000000 
#    z 0.000000 0.000000 1.599180 
# 
# From -- ./inp_files/3476.got.cif
#   From: 2010.05.17/outbox.cif.g08.bks.cpg/sg193_2_cif.got.tgz:3476.got - 2010.05.20 12:33:02.
