data_PCOD9588235
_publ_section_title
;
Structure prediction by ZEFSAII (Michael W. Deem and Ramdas Pophale) SiO2 
 PCOD9588235
Probable space group: P 6/M M M
;
_chemical_formula_sum "Si O2"
_cell_formula_units_Z 108
_cell_length_a 28.850573
_cell_length_b 28.850573
_cell_length_c 7.314913
_cell_angle_alpha 90.000000
_cell_angle_beta 90.000000
_cell_angle_gamma 120.000000
_cell_volume 5272.889656
_symmetry_space_group_name_H-M "P 6/M M M"
_symmetry_group_IT_number 191
_symmetry_cell_setting 'hexagonal'
loop_
_space_group_symop_operation_xyz
x,y,z
x-y,x,z
-y,x-y,z
-x,-y,z
-x+y,-x,z
y,-x+y,z
x-y,-y,-z
-x,-x+y,-z
y,x,-z
-y,-x,-z
-x+y,y,-z
x,x-y,-z
-x,-y,-z
-x+y,-x,-z
y,-x+y,-z
x,y,-z
x-y,x,-z
-y,x-y,-z
-x+y,y,z
x,x-y,z
-y,-x,z
y,x,z
x-y,-y,z
-x,-x+y,z
loop_
_atom_site_type_symbol
_atom_site_label
_atom_site_fract_x
_atom_site_fract_y
_atom_site_fract_z
Si Si1 0.611448 0.494026 0.223261
Si Si2 0.059184 0.726093 0.215073
Si Si3 0.834212 0.562593 0.223206
Si Si4 0.556411 0.000000 0.791638
Si Si5 0.940589 0.164332 0.279737
O O1 0.563895 0.436106 0.281812
O O2 0.671562 0.511987 0.275399
O O3 0.597117 0.539228 0.286768
O O4 0.609105 0.494405 0.000000
O O5 0.111893 0.727339 0.286703
O O6 0.066432 0.785059 0.232937
O O7 0.000000 0.684669 0.290291
O O8 0.057242 0.714056 0.000000
O O9 0.780723 0.561445 0.285048
O O10 0.833900 0.564230 0.000000
O O11 0.500000 0.000000 0.797644
O O12 0.574163 0.000000 0.000000
O O13 0.940620 0.161625 0.500000
O O14 0.891001 0.109000 0.212801
O O15 0.000000 0.179905 0.216350
#
# Coordination Sequence:
#
# PCOD9588235 Si02
#       5
#    24  24  24  12  24
#     4   8  13  20  30  43  61  87 118 151 187 227
#     4   9  17  27  40  59  82 107 133 162 197 239
#     4   9  16  23  32  48  72 100 126 155 194 236
#     4   7  10  16  26  40  54  72 101 137 177 217
#     4   9  17  29  44  60  79 105 136 167 198 235
#
# _framework density 20.482126999999998
#
# number of rings (size 3 to 8) (size 9 to 14) (size 15 to 20)
#    0.000    3.444    0.000    2.000    1.556    1.333 
#    0.000    0.000    0.000    0.667    0.000    4.667 
#    0.000    0.889    0.000   11.111    0.000   11.556 
#
# Total GULP energy -602404.475610 kJ/mol
# GULP energy per Si atom -5577.819219 kJ/mol
# Density = 2.043551 g / cm^3
# Si number density = 20.482127 Si / 1000 Ang^3
#
#
#
# Elastic Constant Matrix: (Units=GPa)
#
#
# Indices 1 2 3 4 5 6 
#
# 1 160.6138 108.8424 3.8148 0.0000 0.0000 0.0000
# 2 108.8424 160.6138 3.8148 0.0000 0.0000 0.0000
# 3 3.8148 3.8148 82.8513 0.0000 0.0000 0.0000
# 4 0.0000 0.0000 0.0000 -4.8273 0.0000 0.0000
# 5 0.0000 0.0000 0.0000 0.0000 -4.8273 0.0000
# 6 0.0000 0.0000 0.0000 0.0000 0.0000 25.8857
#
#
#
# Elastic Compliance Matrix: (Units=1/GPa)
#
#
# Indices 1 2 3 4 5 6 
#
# 1 0.011516 -0.007800 -0.000171 0.000000 0.000000 0.000000
# 2 -0.007800 0.011516 -0.000171 0.000000 0.000000 0.000000
# 3 -0.000171 -0.000171 0.012086 0.000000 0.000000 0.000000
# 4 0.000000 0.000000 0.000000 -0.207154 0.000000 0.000000
# 5 0.000000 0.000000 0.000000 0.000000 -0.207154 0.000000
# 6 0.000000 0.000000 0.000000 0.000000 0.000000 0.038631
#
#
# Mechanical properties :
#
#
# Convention : Reuss Voigt Hill
#
# Bulk Modulus (GPa) = 53.09764 70.78031 61.93898
# Shear Modulus (GPa) = -15.72341 22.42000 3.34829
#
# Velocity S-wave (km/s) = -2.77368 3.31208 1.27996
# Velocity P-wave (km/s) = 3.96515 7.01845 5.70005
#
# Compressibility (1/GPa) = 0.01883323
#
# Stress axis : x y z
#
# Youngs Moduli (GPa) = 86.83679 86.83679 82.74325
#
# Poissons Ratio (x) = 0.67731 0.01416
# Poissons Ratio (y) = 0.67731 0.01416
# Poissons Ratio (z) = 0.01486 0.01486
#
# Static dielectric constant tensor:
#      x y z
#    x 1.720190 0.000000 0.000000 
#    y 0.000000 1.720190 0.000000 
#    z 0.000000 0.000000 1.796550 
# 
# From -- ./inp_files/3078.got.cif
#   From: 2010.05.17/outbox.cif.g08.bks.cpg/sg191_2_cif.got.tgz:3078.got - 2010.05.20 12:20:32.
