data_PCOD9588164
_publ_section_title
;
Structure prediction by ZEFSAII (Michael W. Deem and Ramdas Pophale) SiO2 
 PCOD9588164
Probable space group: P 6/M M M
;
_chemical_formula_sum "Si O2"
_cell_formula_units_Z 90
_cell_length_a 26.465762
_cell_length_b 26.465762
_cell_length_c 7.797298
_cell_angle_alpha 90.000000
_cell_angle_beta 90.000000
_cell_angle_gamma 120.000000
_cell_volume 4729.808633
_symmetry_space_group_name_H-M "P 6/M M M"
_symmetry_group_IT_number 191
_symmetry_cell_setting 'hexagonal'
loop_
_space_group_symop_operation_xyz
x,y,z
x-y,x,z
-y,x-y,z
-x,-y,z
-x+y,-x,z
y,-x+y,z
x-y,-y,-z
-x,-x+y,-z
y,x,-z
-y,-x,-z
-x+y,y,-z
x,x-y,-z
-x,-y,-z
-x+y,-x,-z
y,-x+y,-z
x,y,-z
x-y,x,-z
-y,x-y,-z
-x+y,y,z
x,x-y,z
-y,-x,z
y,x,z
x-y,-y,z
-x,-x+y,z
loop_
_atom_site_type_symbol
_atom_site_label
_atom_site_fract_x
_atom_site_fract_y
_atom_site_fract_z
Si Si1 0.442154 0.000000 0.705758
Si Si2 0.000000 0.246672 0.000000
Si Si3 0.666430 0.218542 0.707629
Si Si4 0.691251 0.905903 0.306671
Si Si5 0.889869 0.570959 0.801863
O O1 0.383186 0.943193 0.763296
O O2 0.500000 0.000000 0.769032
O O3 0.443631 0.000000 0.500000
O O4 0.949530 0.223112 0.846827
O O5 0.665215 0.217358 0.500000
O O6 0.603658 0.207316 0.767433
O O7 0.717976 0.282025 0.761190
O O8 0.680585 0.169338 0.766542
O O9 0.714622 0.926857 0.500000
O O10 0.688432 0.844216 0.281364
O O11 0.625742 0.895831 0.300722
O O12 0.892806 0.587030 0.000000
#
# Coordination Sequence:
#
# PCOD9588164 Si02
#       5
#    12   6  24  24  24
#     4  11  24  41  59  81 112 154 207 264 323 391
#     4  12  22  40  64  96 131 168 215 272 314 366
#     4  10  21  38  59  81 106 141 189 246 310 380
#     4  11  24  42  65  94 131 175 221 268 321 383
#     4  12  24  38  58  85 117 155 199 257 316 383
#
# _framework density 19.028255000000001
#
# number of rings (size 3 to 8) (size 9 to 14) (size 15 to 20)
#    0.000    0.933    1.333    6.267    0.000    9.600 
#    0.000    0.000    0.000    1.600    0.000    0.000 
#    0.000    0.000    0.000   12.800    0.000   96.000 
#
# Total GULP energy -501677.320709 kJ/mol
# GULP energy per Si atom -5574.192452 kJ/mol
# Density = 1.898495 g / cm^3
# Si number density = 19.028255 Si / 1000 Ang^3
#
#
#
# Elastic Constant Matrix: (Units=GPa)
#
#
# Indices 1 2 3 4 5 6 
#
# 1 92.2806 35.9782 38.2075 0.0000 0.0000 0.0000
# 2 35.9782 92.2806 38.2075 0.0000 0.0000 0.0000
# 3 38.2075 38.2075 128.0379 0.0000 0.0000 0.0000
# 4 0.0000 0.0000 0.0000 20.5483 0.0000 0.0000
# 5 0.0000 0.0000 0.0000 0.0000 20.5483 0.0000
# 6 0.0000 0.0000 0.0000 0.0000 0.0000 28.1512
#
#
#
# Elastic Compliance Matrix: (Units=1/GPa)
#
#
# Indices 1 2 3 4 5 6 
#
# 1 0.013622 -0.004139 -0.002830 0.000000 0.000000 0.000000
# 2 -0.004139 0.013622 -0.002830 0.000000 0.000000 0.000000
# 3 -0.002830 -0.002830 0.009499 0.000000 0.000000 0.000000
# 4 0.000000 0.000000 0.000000 0.048666 0.000000 0.000000
# 5 0.000000 0.000000 0.000000 0.000000 0.048666 0.000000
# 6 0.000000 0.000000 0.000000 0.000000 0.000000 0.035522
#
#
# Mechanical properties :
#
#
# Convention : Reuss Voigt Hill
#
# Bulk Modulus (GPa) = 58.32438 59.70950 59.01694
# Shear Modulus (GPa) = 25.65294 27.19663 26.42479
#
# Velocity S-wave (km/s) = 3.67570 3.78468 3.73059
# Velocity P-wave (km/s) = 6.98086 7.10956 7.04550
#
# Compressibility (1/GPa) = 0.01714549
#
# Stress axis : x y z
#
# Youngs Moduli (GPa) = 73.41105 73.41105 105.27438
#
# Poissons Ratio (x) = 0.30387 0.29789
# Poissons Ratio (y) = 0.30387 0.29789
# Poissons Ratio (z) = 0.20773 0.20773
#
# Static dielectric constant tensor:
#      x y z
#    x 1.636150 0.000000 0.000000 
#    y 0.000000 1.636150 0.000000 
#    z 0.000000 0.000000 1.695390 
# 
# From -- ./inp_files/1266.got.cif
#   From: 2010.05.17/outbox.cif.g08.bks.cpg/sg191_1_cif.got.tgz:1266.got - 2010.05.20 12:20:32.
