data_PCOD9588058
_publ_section_title
;
Structure prediction by ZEFSAII (Michael W. Deem and Ramdas Pophale) SiO2 
 PCOD9588058
Probable space group: P 6/M M M
;
_chemical_formula_sum "Si O2"
_cell_formula_units_Z 60
_cell_length_a 21.042370
_cell_length_b 21.042370
_cell_length_c 7.616197
_cell_angle_alpha 90.000000
_cell_angle_beta 90.000000
_cell_angle_gamma 120.000000
_cell_volume 2920.506023
_symmetry_space_group_name_H-M "P 6/M M M"
_symmetry_group_IT_number 191
_symmetry_cell_setting 'hexagonal'
loop_
_space_group_symop_operation_xyz
x,y,z
x-y,x,z
-y,x-y,z
-x,-y,z
-x+y,-x,z
y,-x+y,z
x-y,-y,-z
-x,-x+y,-z
y,x,-z
-y,-x,-z
-x+y,y,-z
x,x-y,-z
-x,-y,-z
-x+y,-x,-z
y,-x+y,-z
x,y,-z
x-y,x,-z
-y,x-y,-z
-x+y,y,z
x,x-y,z
-y,-x,z
y,x,z
x-y,-y,z
-x,-x+y,z
loop_
_atom_site_type_symbol
_atom_site_label
_atom_site_fract_x
_atom_site_fract_y
_atom_site_fract_z
Si Si1 0.542304 0.457697 0.208632
Si Si2 0.145822 0.709772 0.290291
Si Si3 0.708782 0.000000 0.284731
Si Si4 0.000000 0.145236 0.714643
O O1 0.500000 0.500000 0.279990
O O2 0.627517 0.498554 0.259423
O O3 0.539146 0.460855 0.000000
O O4 0.146805 0.719290 0.500000
O O5 0.222795 0.777206 0.222751
O O6 0.074077 0.711410 0.223416
O O7 0.781830 0.000000 0.231304
O O8 0.706514 0.000000 0.500000
O O9 0.072707 0.145413 0.772522
O O10 0.000000 0.144759 0.500000
#
# Coordination Sequence:
#
# PCOD9588058 Si02
#       4
#    12  24  12  12
#     4  11  23  39  59  83 113 151 191 229 283 347
#     4  10  20  35  58  85 110 142 185 232 282 333
#     4   9  16  28  48  74 104 135 175 224 270 315
#     4   9  15  22  34  58  97 141 177 208 250 308
#
# _framework density 20.544385999999999
#
# number of rings (size 3 to 8) (size 9 to 14) (size 15 to 20)
#    0.000    2.200    2.000    2.000    0.000    7.200 
#    1.200    0.000    0.000    0.000    0.000    0.000 
#    0.000    0.000    0.000    0.000    0.000   14.200 
#
# Total GULP energy -335052.299666 kJ/mol
# GULP energy per Si atom -5584.204994 kJ/mol
# Density = 2.049763 g / cm^3
# Si number density = 20.544386 Si / 1000 Ang^3
#
#
#
# Elastic Constant Matrix: (Units=GPa)
#
#
# Indices 1 2 3 4 5 6 
#
# 1 223.1155 155.7495 3.1664 0.0000 0.0000 0.0000
# 2 155.7495 223.1155 3.1664 0.0000 0.0000 0.0000
# 3 3.1664 3.1664 43.4733 0.0000 0.0000 0.0000
# 4 0.0000 0.0000 0.0000 -6.7870 0.0000 0.0000
# 5 0.0000 0.0000 0.0000 0.0000 -6.7870 0.0000
# 6 0.0000 0.0000 0.0000 0.0000 0.0000 33.6830
#
#
#
# Elastic Compliance Matrix: (Units=1/GPa)
#
#
# Indices 1 2 3 4 5 6 
#
# 1 0.008743 -0.006101 -0.000192 0.000000 0.000000 0.000000
# 2 -0.006101 0.008743 -0.000192 0.000000 0.000000 0.000000
# 3 -0.000192 -0.000192 0.023031 0.000000 0.000000 0.000000
# 4 0.000000 0.000000 0.000000 -0.147340 0.000000 0.000000
# 5 0.000000 0.000000 0.000000 0.000000 -0.147340 0.000000
# 6 0.000000 0.000000 0.000000 0.000000 0.000000 0.029689
#
#
# Mechanical properties :
#
#
# Convention : Reuss Voigt Hill
#
# Bulk Modulus (GPa) = 36.30278 90.42987 63.36633
# Shear Modulus (GPa) = -24.71338 25.86327 0.57495
#
# Velocity S-wave (km/s) = -3.47208 3.55194 0.52959
# Velocity P-wave (km/s) = 1.27865 7.80603 5.59326
#
# Compressibility (1/GPa) = 0.02754610
#
# Stress axis : x y z
#
# Youngs Moduli (GPa) = 114.37099 114.37099 43.42038
#
# Poissons Ratio (x) = 0.69775 0.00836
# Poissons Ratio (y) = 0.69775 0.00836
# Poissons Ratio (z) = 0.02201 0.02201
#
# Static dielectric constant tensor:
#      x y z
#    x 1.714870 0.000000 0.000000 
#    y 0.000000 1.714870 0.000000 
#    z 0.000000 0.000000 1.761470 
# 
# From -- ./inp_files/611.got.cif
#   From: 2010.05.17/outbox.cif.g08.bks.cpg/sg191_1_cif.got.tgz:611.got - 2010.05.20 12:20:32.
