data_PCOD9588728
_publ_section_title
;
Structure prediction by ZEFSAII (Michael W. Deem and Ramdas Pophale) SiO2 
 PCOD9588728
Probable space group: P 6/M C C
;
_chemical_formula_sum "Si O2"
_cell_formula_units_Z 116
_cell_length_a 19.178462
_cell_length_b 19.178462
_cell_length_c 15.617102
_cell_angle_alpha 90.000000
_cell_angle_beta 90.000000
_cell_angle_gamma 120.000000
_cell_volume 4974.605334
_symmetry_space_group_name_H-M "P 6/M C C"
_symmetry_group_IT_number 192
_symmetry_cell_setting 'hexagonal'
loop_
_space_group_symop_operation_xyz
x,y,z
x-y,x,z
-y,x-y,z
-x,-y,z
-x+y,-x,z
y,-x+y,z
x-y,-y,1/2-z
-x,-x+y,1/2-z
y,x,1/2-z
-y,-x,1/2-z
-x+y,y,1/2-z
x,x-y,1/2-z
-x,-y,-z
-x+y,-x,-z
y,-x+y,-z
x,y,-z
x-y,x,-z
-y,x-y,-z
-x+y,y,1/2+z
x,x-y,1/2+z
-y,-x,1/2+z
y,x,1/2+z
x-y,-y,1/2+z
-x,-x+y,1/2+z
loop_
_atom_site_type_symbol
_atom_site_label
_atom_site_fract_x
_atom_site_fract_y
_atom_site_fract_z
Si Si1 0.333334 0.666668 0.148550
Si Si2 0.882647 0.421417 0.598338
Si Si3 0.806879 0.683353 0.157637
Si Si4 0.494636 0.253923 0.897981
Si Si5 0.972222 0.377109 0.154491
Si Si6 0.105965 0.910349 0.500000
O O1 0.333334 0.666667 0.250000
O O2 0.418395 0.737669 0.113789
O O3 0.861362 0.423056 0.500000
O O4 0.821449 0.339524 0.644599
O O5 0.899788 0.505077 0.638555
O O6 0.960616 0.408400 0.596811
O O7 0.852948 0.705896 0.250000
O O8 0.784237 0.591448 0.140406
O O9 0.714837 0.667602 0.148141
O O10 0.860741 0.746117 0.083946
O O11 0.480293 0.251247 0.000000
O O12 0.000000 0.402826 0.250000
O O13 0.008027 0.863153 0.500000
#
# Coordination Sequence:
#
# PCOD9588728 Si02
#       6
#     8  24  24  24  24  12
#     4  12  25  38  61  93 160 230 292 340 383 439
#     4  10  22  37  65  99 149 207 263 316 378 444
#     4  12  28  47  81 120 156 197 258 324 392 474
#     4  11  23  42  65 102 147 210 274 330 383 446
#     4  11  23  38  64 101 152 198 248 306 383 451
#     4  12  33  60  94 121 157 191 243 311 421 513
#
# _framework density 23.318432999999999
#
# number of rings (size 3 to 8) (size 9 to 14) (size 15 to 20)
#    0.000    0.828    1.034    6.310    8.690    3.310 
#    0.000    0.000    0.000    1.241    0.000    0.000 
#    0.000    0.000    0.000    0.000    0.000    0.000 
#
# Total GULP energy -647109.738512 kJ/mol
# GULP energy per Si atom -5578.532229 kJ/mol
# Density = 2.326536 g / cm^3
# Si number density = 23.318433 Si / 1000 Ang^3
#
#
#
# Elastic Constant Matrix: (Units=GPa)
#
#
# Indices 1 2 3 4 5 6 
#
# 1 117.3077 48.9272 39.0227 0.0000 0.0006 0.0001
# 2 48.9272 117.3084 39.0228 -0.0008 0.0004 0.0001
# 3 39.0227 39.0228 151.8353 0.0006 0.0000 0.0000
# 4 0.0000 -0.0008 0.0006 78.0535 -0.0028 0.0001
# 5 0.0006 0.0004 0.0000 -0.0028 78.0525 -0.0004
# 6 0.0001 0.0001 0.0000 0.0001 -0.0004 34.1904
#
#
#
# Elastic Compliance Matrix: (Units=1/GPa)
#
#
# Indices 1 2 3 4 5 6 
#
# 1 0.010733 -0.003891 -0.001758 0.000000 0.000000 0.000000
# 2 -0.003891 0.010732 -0.001758 0.000000 0.000000 0.000000
# 3 -0.001758 -0.001758 0.007490 0.000000 0.000000 0.000000
# 4 0.000000 0.000000 0.000000 0.012812 0.000000 0.000000
# 5 0.000000 0.000000 0.000000 0.000000 0.012812 0.000000
# 6 0.000000 0.000000 0.000000 0.000000 0.000000 0.029248
#
#
# Mechanical properties :
#
#
# Convention : Reuss Voigt Hill
#
# Bulk Modulus (GPa) = 70.72590 71.15523 70.94056
# Shear Modulus (GPa) = 48.37687 55.35785 51.86736
#
# Velocity S-wave (km/s) = 4.55974 4.87765 4.72137
# Velocity P-wave (km/s) = 7.62351 7.89321 7.75954
#
# Compressibility (1/GPa) = 0.01413909
#
# Stress axis : x y z
#
# Youngs Moduli (GPa) = 93.17462 93.17523 133.51459
#
# Poissons Ratio (x) = 0.36259 0.23474
# Poissons Ratio (y) = 0.36259 0.23474
# Poissons Ratio (z) = 0.16382 0.16382
#
# Static dielectric constant tensor:
#      x y z
#    x 2.133370 0.000000 0.000000 
#    y 0.000000 2.133370 0.000000 
#    z 0.000000 0.000000 1.808310 
# 
# From -- ./inp_files/2995.got.cif
#   From: 2010.05.17/outbox.cif.g08.bks.cpg/sg192_2_cif.got.tgz:2995.got - 2010.05.20 12:28:01.
