data_PCOD9588065
_publ_section_title
;
Structure prediction by ZEFSAII (Michael W. Deem and Ramdas Pophale) SiO2 
 PCOD9588065
Probable space group: P 6/M M M
;
_chemical_formula_sum "Si O2"
_cell_formula_units_Z 102
_cell_length_a 22.100889
_cell_length_b 22.100889
_cell_length_c 14.602502
_cell_angle_alpha 90.000000
_cell_angle_beta 90.000000
_cell_angle_gamma 120.000000
_cell_volume 6176.997034
_symmetry_space_group_name_H-M "P 6/M M M"
_symmetry_group_IT_number 191
_symmetry_cell_setting 'hexagonal'
loop_
_space_group_symop_operation_xyz
x,y,z
x-y,x,z
-y,x-y,z
-x,-y,z
-x+y,-x,z
y,-x+y,z
x-y,-y,-z
-x,-x+y,-z
y,x,-z
-y,-x,-z
-x+y,y,-z
x,x-y,-z
-x,-y,-z
-x+y,-x,-z
y,-x+y,-z
x,y,-z
x-y,x,-z
-y,x-y,-z
-x+y,y,z
x,x-y,z
-y,-x,z
y,x,z
x-y,-y,z
-x,-x+y,z
loop_
_atom_site_type_symbol
_atom_site_label
_atom_site_fract_x
_atom_site_fract_y
_atom_site_fract_z
Si Si1 0.476004 0.809205 0.798960
Si Si2 0.878541 0.613205 0.692230
Si Si3 0.732870 0.732870 0.808507
Si Si4 0.701935 0.543561 0.000000
Si Si5 0.313624 0.230758 0.500000
Si Si6 0.332905 0.332905 0.000000
Si Si7 0.857502 0.857502 0.894359
O O1 0.406445 0.812889 0.785910
O O2 0.462773 0.731387 0.779965
O O3 0.539008 0.863025 0.732868
O O4 0.500536 0.824850 0.905344
O O5 0.804992 0.609983 0.700170
O O6 0.904761 0.638375 0.589305
O O7 0.933014 0.674403 0.756652
O O8 0.706237 0.706237 0.909234
O O9 0.804285 0.804285 0.821118
O O10 0.787147 0.574294 0.000000
O O11 0.671822 0.596530 0.000000
O O12 0.251330 0.251330 0.500000
O O13 0.294569 0.147285 0.500000
O O14 0.863335 0.931668 0.883648
O O15 0.834539 0.834539 0.000000
#
# Coordination Sequence:
#
# PCOD9588065 Si02
#       7
#    24  24  12  12  12   6  12
#     4  10  20  36  57  81 110 146 187 229 276 329
#     4  10  21  36  57  82 108 139 180 232 276 325
#     4  12  20  34  54  77 105 144 184 223 272 326
#     4  10  21  35  52  77 113 152 191 233 271 324
#     4  10  20  38  63  86 111 143 187 233 281 332
#     4  12  22  32  53  80 111 150 184 222 272 316
#     4  10  21  34  49  71 104 144 185 226 269 319
#
# _framework density 16.512879000000002
#
# number of rings (size 3 to 8) (size 9 to 14) (size 15 to 20)
#    0.000    1.647    4.118    1.412    0.000    1.412 
#    0.000    4.706    0.000    0.824    0.000    1.647 
#    0.000    0.000    0.000    0.000    0.000    0.000 
#
# Total GULP energy -568163.209267 kJ/mol
# GULP energy per Si atom -5570.227542 kJ/mol
# Density = 1.647529 g / cm^3
# Si number density = 16.512879 Si / 1000 Ang^3
#
#
#
# Elastic Constant Matrix: (Units=GPa)
#
#
# Indices 1 2 3 4 5 6 
#
# 1 113.1458 68.0270 50.0679 0.0000 0.0000 0.0000
# 2 68.0270 113.1458 50.0679 0.0000 0.0000 0.0000
# 3 50.0679 50.0679 119.3724 0.0000 0.0000 0.0000
# 4 0.0000 0.0000 0.0000 15.3467 0.0000 0.0000
# 5 0.0000 0.0000 0.0000 0.0000 15.3467 0.0000
# 6 0.0000 0.0000 0.0000 0.0000 0.0000 22.5594
#
#
#
# Elastic Compliance Matrix: (Units=1/GPa)
#
#
# Indices 1 2 3 4 5 6 
#
# 1 0.014674 -0.007489 -0.003014 0.000000 0.000000 0.000000
# 2 -0.007489 0.014674 -0.003014 0.000000 0.000000 0.000000
# 3 -0.003014 -0.003014 0.010905 0.000000 0.000000 0.000000
# 4 0.000000 0.000000 0.000000 0.065160 0.000000 0.000000
# 5 0.000000 0.000000 0.000000 0.000000 0.065160 0.000000
# 6 0.000000 0.000000 0.000000 0.000000 0.000000 0.044327
#
#
# Mechanical properties :
#
#
# Convention : Reuss Voigt Hill
#
# Bulk Modulus (GPa) = 75.63734 75.77660 75.70697
# Shear Modulus (GPa) = 20.29694 22.48401 21.39048
#
# Velocity S-wave (km/s) = 3.50974 3.69400 3.60305
# Velocity P-wave (km/s) = 7.89486 8.01144 7.95336
#
# Compressibility (1/GPa) = 0.01322098
#
# Stress axis : x y z
#
# Youngs Moduli (GPa) = 68.14551 68.14551 91.69947
#
# Poissons Ratio (x) = 0.51035 0.27635
# Poissons Ratio (y) = 0.51035 0.27635
# Poissons Ratio (z) = 0.20537 0.20537
#
# Static dielectric constant tensor:
#      x y z
#    x 1.562880 0.000000 0.000000 
#    y 0.000000 1.562880 0.000000 
#    z 0.000000 0.000000 1.567090 
# 
# From -- ./inp_files/4386.got.cif
#   From: 2010.05.17/outbox.cif.g08.bks.cpg/sg191_3_cif.got.tgz:4386.got - 2010.05.20 12:20:32.
