data_PCOD9588958
_publ_section_title
;
Structure prediction by ZEFSAII (Michael W. Deem and Ramdas Pophale) SiO2 
 PCOD9588958
Probable space group: P 63/M C M
;
_chemical_formula_sum "Si O2"
_cell_formula_units_Z 168
_cell_length_a 17.882073
_cell_length_b 17.882073
_cell_length_c 33.300824
_cell_angle_alpha 90.000000
_cell_angle_beta 90.000000
_cell_angle_gamma 120.000000
_cell_volume 9221.919748
_symmetry_space_group_name_H-M "P 63/M C M"
_symmetry_group_IT_number 193
_symmetry_cell_setting 'hexagonal'
loop_
_space_group_symop_operation_xyz
x,y,z
x-y,x,1/2+z
-y,x-y,z
-x,-y,1/2+z
-x+y,-x,z
y,-x+y,1/2+z
x-y,-y,1/2-z
-x,-x+y,1/2-z
y,x,1/2-z
-y,-x,-z
-x+y,y,-z
x,x-y,-z
-x,-y,-z
-x+y,-x,1/2-z
y,-x+y,-z
x,y,1/2-z
x-y,x,-z
-y,x-y,1/2-z
-x+y,y,1/2+z
x,x-y,1/2+z
-y,-x,1/2+z
y,x,z
x-y,-y,z
-x,-x+y,z
loop_
_atom_site_type_symbol
_atom_site_label
_atom_site_fract_x
_atom_site_fract_y
_atom_site_fract_z
Si Si1 0.838061 0.326259 0.750000
Si Si2 0.102968 0.371974 0.669399
Si Si3 0.403174 0.895004 0.039603
Si Si4 0.542427 0.900820 0.830742
Si Si5 0.306537 0.207372 0.625941
Si Si6 0.771727 0.104181 0.965437
Si Si7 0.594917 0.105670 0.118984
Si Si8 0.333253 0.509149 0.750000
O O1 0.870103 0.296964 0.789291
O O2 0.861917 0.425790 0.750000
O O3 0.733844 0.276815 0.750000
O O4 0.141846 0.311291 0.657224
O O5 0.131456 0.441338 0.632722
O O6 0.000000 0.315994 0.669810
O O7 0.303761 0.870705 0.037600
O O8 0.437859 0.865473 0.077509
O O9 0.455233 0.000000 0.041363
O O10 0.434175 0.868350 0.000000
O O11 0.602987 0.898531 0.865362
O O12 0.446452 0.862843 0.846811
O O13 0.546220 0.856744 0.790346
O O14 0.578371 0.000000 0.820695
O O15 0.233162 0.233162 0.633656
O O16 0.304769 0.185865 0.578935
O O17 0.723346 0.000000 0.973288
O O18 0.839502 0.160499 0.000000
O O19 0.540869 0.000000 0.118772
#
# Coordination Sequence:
#
# PCOD9588958 Si02
#       8
#    12  24  24  24  24  24  24  12
#     4  12  24  37  53  82 123 160 189 236 286 342
#     4  11  23  37  58  87 116 148 195 255 305 342
#     4   9  17  30  50  79 109 139 179 227 279 344
#     4  10  18  32  55  77 102 143 191 231 273 338
#     4  10  21  39  58  80 114 154 197 242 292 355
#     4  10  21  36  57  85 117 151 193 246 302 358
#     4   9  17  31  52  78 106 139 180 227 282 339
#     4  12  22  35  51  76 116 154 191 220 274 344
#
# _framework density 18.217466000000002
#
# number of rings (size 3 to 8) (size 9 to 14) (size 15 to 20)
#    0.000    1.857    4.286    0.571    2.000    1.143 
#    0.000    0.357    0.000    0.714    3.714    0.000 
#    0.000    0.000    0.000    0.000    0.000    0.000 
#
# Total GULP energy -935620.544297 kJ/mol
# GULP energy per Si atom -5569.169907 kJ/mol
# Density = 1.817600 g / cm^3
# Si number density = 18.217466 Si / 1000 Ang^3
#
#
#
# Elastic Constant Matrix: (Units=GPa)
#
#
# Indices 1 2 3 4 5 6 
#
# 1 62.7874 23.7080 33.4385 0.0000 0.0000 0.0000
# 2 23.7080 62.7874 33.4385 0.0000 0.0000 0.0000
# 3 33.4385 33.4385 116.1875 0.0000 0.0000 0.0000
# 4 0.0000 0.0000 0.0000 16.4264 0.0000 0.0000
# 5 0.0000 0.0000 0.0000 0.0000 16.4264 0.0000
# 6 0.0000 0.0000 0.0000 0.0000 0.0000 19.5397
#
#
#
# Elastic Compliance Matrix: (Units=1/GPa)
#
#
# Indices 1 2 3 4 5 6 
#
# 1 0.020230 -0.005359 -0.004280 0.000000 0.000000 0.000000
# 2 -0.005359 0.020230 -0.004280 0.000000 0.000000 0.000000
# 3 -0.004280 -0.004280 0.011070 0.000000 0.000000 0.000000
# 4 0.000000 0.000000 0.000000 0.060878 0.000000 0.000000
# 5 0.000000 0.000000 0.000000 0.000000 0.060878 0.000000
# 6 0.000000 0.000000 0.000000 0.000000 0.000000 0.051178
#
#
# Mechanical properties :
#
#
# Convention : Reuss Voigt Hill
#
# Bulk Modulus (GPa) = 42.20815 46.99248 44.60032
# Shear Modulus (GPa) = 19.21623 20.55700 19.88661
#
# Velocity S-wave (km/s) = 3.25133 3.36284 3.30756
# Velocity P-wave (km/s) = 6.10854 6.39762 6.25475
#
# Compressibility (1/GPa) = 0.02369211
#
# Stress axis : x y z
#
# Youngs Moduli (GPa) = 49.43259 49.43259 90.33331
#
# Poissons Ratio (x) = 0.26492 0.38659
# Poissons Ratio (y) = 0.26492 0.38659
# Poissons Ratio (z) = 0.21155 0.21155
#
# Static dielectric constant tensor:
#      x y z
#    x 1.629490 0.000000 0.000000 
#    y 0.000000 1.629490 0.000000 
#    z 0.000000 0.000000 1.650190 
# 
# From -- ./inp_files/9350.got.cif
#   From: 2010.05.17/outbox.cif.g08.bks.cpg/sg193_5_cif.got.tgz:9350.got - 2010.05.20 12:33:02.
