data_PCOD9588405
_publ_section_title
;
Structure prediction by ZEFSAII (Michael W. Deem and Ramdas Pophale) SiO2 
 PCOD9588405
Probable space group: P 6/M C C
;
_chemical_formula_sum "Si O2"
_cell_formula_units_Z 144
_cell_length_a 33.329087
_cell_length_b 33.329087
_cell_length_c 8.568440
_cell_angle_alpha 90.000000
_cell_angle_beta 90.000000
_cell_angle_gamma 120.000000
_cell_volume 8242.884711
_symmetry_space_group_name_H-M "P 6/M C C"
_symmetry_group_IT_number 192
_symmetry_cell_setting 'hexagonal'
loop_
_space_group_symop_operation_xyz
x,y,z
x-y,x,z
-y,x-y,z
-x,-y,z
-x+y,-x,z
y,-x+y,z
x-y,-y,1/2-z
-x,-x+y,1/2-z
y,x,1/2-z
-y,-x,1/2-z
-x+y,y,1/2-z
x,x-y,1/2-z
-x,-y,-z
-x+y,-x,-z
y,-x+y,-z
x,y,-z
x-y,x,-z
-y,x-y,-z
-x+y,y,1/2+z
x,x-y,1/2+z
-y,-x,1/2+z
y,x,1/2+z
x-y,-y,1/2+z
-x,-x+y,1/2+z
loop_
_atom_site_type_symbol
_atom_site_label
_atom_site_fract_x
_atom_site_fract_y
_atom_site_fract_z
Si Si1 0.522311 0.717268 0.187592
Si Si2 0.139114 0.948953 0.813109
Si Si3 0.948722 0.718086 0.811271
Si Si4 0.561496 0.612794 0.187379
Si Si5 0.280291 0.894764 0.189225
Si Si6 0.140944 0.614434 0.813873
O O1 0.510914 0.755457 0.250000
O O2 0.574321 0.730187 0.239922
O O3 0.489127 0.665561 0.249710
O O4 0.521107 0.716326 0.000000
O O5 0.090281 0.909719 0.750000
O O6 0.179668 0.938046 0.762658
O O7 0.155007 0.000000 0.750000
O O8 0.138387 0.949648 0.000000
O O9 0.912642 0.666454 0.755474
O O10 0.000000 0.733776 0.750000
O O11 0.949792 0.717805 0.000000
O O12 0.579757 0.579757 0.250000
O O13 0.597307 0.666409 0.232406
O O14 0.512279 0.602296 0.254366
O O15 0.558628 0.610381 0.000000
O O16 0.278661 0.893845 0.000000
O O17 0.151832 0.575916 0.750000
O O18 0.141500 0.614934 0.000000
#
# Coordination Sequence:
#
# PCOD9588405 Si02
#       6
#    24  24  24  24  24  24
#     4  10  20  36  56  80 108 139 174 214 260 312
#     4  10  20  34  53  75 101 131 167 207 253 303
#     4   9  17  30  47  70 101 139 178 217 255 295
#     4  10  19  32  50  75 107 144 184 225 265 309
#     4   8  16  30  48  71 104 142 181 221 258 296
#     4  11  22  38  58  80 105 136 173 216 266 319
#
# _framework density 17.469612000000001
#
# number of rings (size 3 to 8) (size 9 to 14) (size 15 to 20)
#    0.000    2.333    0.000    4.500    0.000    1.667 
#    0.000    5.833    0.000    0.500    0.000    3.500 
#    0.000    0.000    0.000    0.000    0.000    0.000 
#
# Total GULP energy -803589.048356 kJ/mol
# GULP energy per Si atom -5580.479502 kJ/mol
# Density = 1.742985 g / cm^3
# Si number density = 17.469612 Si / 1000 Ang^3
#
#
#
# Elastic Constant Matrix: (Units=GPa)
#
#
# Indices 1 2 3 4 5 6 
#
# 1 121.7112 103.2448 44.1043 0.0000 0.0000 0.0000
# 2 103.2448 121.7112 44.1043 0.0000 0.0000 0.0000
# 3 44.1043 44.1043 75.6570 0.0000 0.0000 0.0000
# 4 0.0000 0.0000 0.0000 24.6296 0.0000 0.0000
# 5 0.0000 0.0000 0.0000 0.0000 24.6296 0.0000
# 6 0.0000 0.0000 0.0000 0.0000 0.0000 9.2332
#
#
#
# Elastic Compliance Matrix: (Units=1/GPa)
#
#
# Indices 1 2 3 4 5 6 
#
# 1 0.029957 -0.024195 -0.003359 0.000000 0.000000 0.000000
# 2 -0.024195 0.029957 -0.003359 0.000000 0.000000 0.000000
# 3 -0.003359 -0.003359 0.017134 0.000000 0.000000 0.000000
# 4 0.000000 0.000000 0.000000 0.040602 0.000000 0.000000
# 5 0.000000 0.000000 0.000000 0.000000 0.040602 0.000000
# 6 0.000000 0.000000 0.000000 0.000000 0.000000 0.108304
#
#
# Mechanical properties :
#
#
# Convention : Reuss Voigt Hill
#
# Bulk Modulus (GPa) = 65.69394 77.99849 71.84621
# Shear Modulus (GPa) = 14.99443 20.20688 17.60065
#
# Velocity S-wave (km/s) = 2.93288 3.40470 3.17756
# Velocity P-wave (km/s) = 7.01109 7.75893 7.39447
#
# Compressibility (1/GPa) = 0.01522210
#
# Stress axis : x y z
#
# Youngs Moduli (GPa) = 33.38078 33.38078 58.36298
#
# Poissons Ratio (x) = 0.80764 0.19606
# Poissons Ratio (y) = 0.80764 0.19606
# Poissons Ratio (z) = 0.11214 0.11214
#
# Static dielectric constant tensor:
#      x y z
#    x 1.580020 0.000000 0.000000 
#    y 0.000000 1.580020 0.000000 
#    z 0.000000 0.000000 1.582330 
# 
# From -- ./inp_files/1128.got.cif
#   From: 2010.05.17/outbox.cif.g08.bks.cpg/sg192_1_cif.got.tgz:1128.got - 2010.05.20 12:28:01.
