data_PCOD9588675
_publ_section_title
;
Structure prediction by ZEFSAII (Michael W. Deem and Ramdas Pophale) SiO2 
 PCOD9588675
Probable space group: P 6/M C C
;
_chemical_formula_sum "Si O2"
_cell_formula_units_Z 48
_cell_length_a 11.855061
_cell_length_b 11.855061
_cell_length_c 15.061939
_cell_angle_alpha 90.000000
_cell_angle_beta 90.000000
_cell_angle_gamma 120.000000
_cell_volume 1833.239060
_symmetry_space_group_name_H-M "P 6/M C C"
_symmetry_group_IT_number 192
_symmetry_cell_setting 'hexagonal'
loop_
_space_group_symop_operation_xyz
x,y,z
x-y,x,z
-y,x-y,z
-x,-y,z
-x+y,-x,z
y,-x+y,z
x-y,-y,1/2-z
-x,-x+y,1/2-z
y,x,1/2-z
-y,-x,1/2-z
-x+y,y,1/2-z
x,x-y,1/2-z
-x,-y,-z
-x+y,-x,-z
y,-x+y,-z
x,y,-z
x-y,x,-z
-y,x-y,-z
-x+y,y,1/2+z
x,x-y,1/2+z
-y,-x,1/2+z
y,x,1/2+z
x-y,-y,1/2+z
-x,-x+y,1/2+z
loop_
_atom_site_type_symbol
_atom_site_label
_atom_site_fract_x
_atom_site_fract_y
_atom_site_fract_z
Si Si1 0.986585 0.739051 0.355411
Si Si2 0.821399 0.364967 0.893274
O O1 0.860437 0.742879 0.392164
O O2 0.948179 0.588965 0.367900
O O3 0.000000 0.761200 0.250000
O O4 0.772069 0.464060 0.863404
O O5 0.824657 0.372187 0.000000
#
# Coordination Sequence:
#
# PCOD9588675 Si02
#       2
#    24  24
#     4  10  21  38  58  84 123 168 209 251 303 369
#     4   8  18  39  64  92 121 155 203 263 317 363
#
# _framework density 26.183164000000001
#
# number of rings (size 3 to 8) (size 9 to 14) (size 15 to 20)
#    1.000    2.000    0.000    0.500    0.000    6.000 
#    0.000   22.500    0.000    3.000    0.000    0.000 
#    0.000    0.000    0.000    0.000    0.000    0.000 
#
# Total GULP energy -267643.660753 kJ/mol
# GULP energy per Si atom -5575.909599 kJ/mol
# Density = 2.612357 g / cm^3
# Si number density = 26.183164 Si / 1000 Ang^3
#
#
#
# Elastic Constant Matrix: (Units=GPa)
#
#
# Indices 1 2 3 4 5 6 
#
# 1 118.9114 31.5603 -5.4430 0.0000 0.0000 0.0000
# 2 31.5603 118.9114 -5.4430 0.0000 0.0000 0.0000
# 3 -5.4430 -5.4430 54.9552 0.0000 0.0000 0.0000
# 4 0.0000 0.0000 0.0000 0.0384 0.0000 0.0000
# 5 0.0000 0.0000 0.0000 0.0000 0.0384 0.0000
# 6 0.0000 0.0000 0.0000 0.0000 0.0000 43.6756
#
#
#
# Elastic Compliance Matrix: (Units=1/GPa)
#
#
# Indices 1 2 3 4 5 6 
#
# 1 0.009071 -0.002377 0.000663 0.000000 0.000000 0.000000
# 2 -0.002377 0.009071 0.000663 0.000000 0.000000 0.000000
# 3 0.000663 0.000663 0.018328 0.000000 0.000000 0.000000
# 4 0.000000 0.000000 0.000000 26.043888 -0.000020 0.000000
# 5 0.000000 0.000000 0.000000 -0.000020 26.043911 0.000000
# 6 0.000000 0.000000 0.000000 0.000000 0.000000 0.022896
#
#
# Mechanical properties :
#
#
# Convention : Reuss Voigt Hill
#
# Bulk Modulus (GPa) = 29.09740 37.12519 33.11130
# Shear Modulus (GPa) = 0.09586 26.89072 13.49329
#
# Velocity S-wave (km/s) = 0.19155 3.20820 2.27258
# Velocity P-wave (km/s) = 3.34456 5.28519 4.42263
#
# Compressibility (1/GPa) = 0.03436733
#
# Stress axis : x y z
#
# Youngs Moduli (GPa) = 110.24279 110.24279 54.56142
#
# Poissons Ratio (x) = 0.26206 -0.03617
# Poissons Ratio (y) = 0.26206 -0.03617
# Poissons Ratio (z) = -0.07309 -0.07309
#
# Static dielectric constant tensor:
#      x y z
#    x 2.145330 0.000000 0.000000 
#    y 0.000000 2.145330 0.000000 
#    z 0.000000 0.000000 1.951930 
# 
# From -- ./inp_files/2082.got.cif
#   From: 2010.05.17/outbox.cif.g08.bks.cpg/sg192_2_cif.got.tgz:2082.got - 2010.05.20 12:28:01.
