data_PCOD9588467
_publ_section_title
;
Structure prediction by ZEFSAII (Michael W. Deem and Ramdas Pophale) SiO2 
 PCOD9588467
Probable space group: P 6/M C C
;
_chemical_formula_sum "Si O2"
_cell_formula_units_Z 116
_cell_length_a 19.656585
_cell_length_b 19.656585
_cell_length_c 15.247916
_cell_angle_alpha 90.000000
_cell_angle_beta 90.000000
_cell_angle_gamma 120.000000
_cell_volume 5102.197433
_symmetry_space_group_name_H-M "P 6/M C C"
_symmetry_group_IT_number 192
_symmetry_cell_setting 'hexagonal'
loop_
_space_group_symop_operation_xyz
x,y,z
x-y,x,z
-y,x-y,z
-x,-y,z
-x+y,-x,z
y,-x+y,z
x-y,-y,1/2-z
-x,-x+y,1/2-z
y,x,1/2-z
-y,-x,1/2-z
-x+y,y,1/2-z
x,x-y,1/2-z
-x,-y,-z
-x+y,-x,-z
y,-x+y,-z
x,y,-z
x-y,x,-z
-y,x-y,-z
-x+y,y,1/2+z
x,x-y,1/2+z
-y,-x,1/2+z
y,x,1/2+z
x-y,-y,1/2+z
-x,-x+y,1/2+z
loop_
_atom_site_type_symbol
_atom_site_label
_atom_site_fract_x
_atom_site_fract_y
_atom_site_fract_z
Si Si1 0.984622 0.732710 0.844915
Si Si2 0.666668 0.333334 0.893332
Si Si3 0.335818 0.427946 0.893637
Si Si4 0.154429 0.598200 0.607307
Si Si5 0.589332 0.830372 0.394114
Si Si6 0.019518 0.848963 0.000000
O O1 0.026421 0.680055 0.854319
O O2 0.020729 0.799583 0.917291
O O3 0.000000 0.769163 0.750000
O O4 0.892656 0.674432 0.859848
O O5 0.621260 0.378351 0.866681
O O6 0.666667 0.333334 0.000000
O O7 0.412244 0.508758 0.865179
O O8 0.258519 0.434502 0.872569
O O9 0.339303 0.421870 0.000000
O O10 0.151694 0.597746 0.500000
O O11 0.145552 0.671420 0.636692
O O12 0.592148 0.835682 0.500000
O O13 0.936631 0.845988 0.000000
#
# Coordination Sequence:
#
# PCOD9588467 Si02
#       6
#    24   8  24  24  24  12
#     4  12  26  44  68 100 140 179 215 262 323 393
#     4   9  12  24  45  90 127 164 226 286 341 379
#     4  10  19  35  60  91 129 174 223 275 332 392
#     4   9  16  27  54  91 130 170 226 290 334 381
#     4  10  19  35  60  91 129 174 223 275 332 392
#     4  12  27  52  82 111 136 164 206 258 320 391
#
# _framework density 22.735302000000001
#
# number of rings (size 3 to 8) (size 9 to 14) (size 15 to 20)
#    0.000    1.655    4.138    1.345    0.000    4.138 
#    0.000    5.172    0.000    1.241    0.000    0.000 
#    0.000    0.000    0.000    0.000    0.000    0.000 
#
# Total GULP energy -649175.776570 kJ/mol
# GULP energy per Si atom -5596.342901 kJ/mol
# Density = 2.268356 g / cm^3
# Si number density = 22.735302 Si / 1000 Ang^3
#
#
#
# Elastic Constant Matrix: (Units=GPa)
#
#
# Indices 1 2 3 4 5 6 
#
# 1 76.2416 7.9330 23.0099 -0.0001 0.0001 0.0000
# 2 7.9330 76.2409 23.0099 0.0001 0.0000 -0.0001
# 3 23.0099 23.0099 54.8742 0.0000 -0.0002 0.0000
# 4 -0.0001 0.0001 0.0000 7.1167 0.0001 0.0001
# 5 0.0001 0.0000 -0.0002 0.0001 7.1187 0.0001
# 6 0.0000 -0.0001 0.0000 0.0001 0.0001 34.1542
#
#
#
# Elastic Compliance Matrix: (Units=1/GPa)
#
#
# Indices 1 2 3 4 5 6 
#
# 1 0.015027 0.000387 -0.006463 0.000000 0.000000 0.000000
# 2 0.000387 0.015027 -0.006463 0.000000 0.000000 0.000000
# 3 -0.006463 -0.006463 0.023644 0.000000 0.000001 0.000000
# 4 0.000000 0.000000 0.000000 0.140515 -0.000001 0.000000
# 5 0.000000 0.000000 0.000001 -0.000001 0.140476 0.000000
# 6 0.000000 0.000000 0.000000 0.000000 0.000000 0.029279
#
#
# Mechanical properties :
#
#
# Convention : Reuss Voigt Hill
#
# Bulk Modulus (GPa) = 34.94285 35.02915 34.98600
# Shear Modulus (GPa) = 12.54437 19.90483 16.22460
#
# Velocity S-wave (km/s) = 2.35150 2.96210 2.67428
# Velocity P-wave (km/s) = 4.77237 5.20956 4.99575
#
# Compressibility (1/GPa) = 0.02861816
#
# Stress axis : x y z
#
# Youngs Moduli (GPa) = 66.54886 66.54824 42.29427
#
# Poissons Ratio (x) = -0.02576 0.27336
# Poissons Ratio (y) = -0.02576 0.27336
# Poissons Ratio (z) = 0.43012 0.43012
#
# Static dielectric constant tensor:
#      x y z
#    x 1.789190 0.000000 0.000000 
#    y 0.000000 1.789190 0.000000 
#    z 0.000000 0.000000 1.939500 
# 
# From -- ./inp_files/3001.got.cif
#   From: 2010.05.17/outbox.cif.g08.bks.cpg/sg192_2_cif.got.tgz:3001.got - 2010.05.20 12:28:01.
