data_PCOD9588870
_publ_section_title
;
Structure prediction by ZEFSAII (Michael W. Deem and Ramdas Pophale) SiO2 
 PCOD9588870
Probable space group: P 6/M C C
;
_chemical_formula_sum "Si O2"
_cell_formula_units_Z 144
_cell_length_a 21.000000
_cell_length_b 21.000000
_cell_length_c 21.000000
_cell_angle_alpha 90.000000
_cell_angle_beta 90.000000
_cell_angle_gamma 120.000000
_cell_volume 8020.261264
_symmetry_space_group_name_H-M "P 6/M C C"
_symmetry_group_IT_number 192
_symmetry_cell_setting 'hexagonal'
loop_
_space_group_symop_operation_xyz
x,y,z
x-y,x,z
-y,x-y,z
-x,-y,z
-x+y,-x,z
y,-x+y,z
x-y,-y,1/2-z
-x,-x+y,1/2-z
y,x,1/2-z
-y,-x,1/2-z
-x+y,y,1/2-z
x,x-y,1/2-z
-x,-y,-z
-x+y,-x,-z
y,-x+y,-z
x,y,-z
x-y,x,-z
-y,x-y,-z
-x+y,y,1/2+z
x,x-y,1/2+z
-y,-x,1/2+z
y,x,1/2+z
x-y,-y,1/2+z
-x,-x+y,1/2+z
loop_
_atom_site_type_symbol
_atom_site_label
_atom_site_fract_x
_atom_site_fract_y
_atom_site_fract_z
Si Si1 0.159182 0.143577 0.500000
Si Si2 0.170757 0.536969 0.422222
Si Si3 0.847632 0.647478 0.927678
Si Si4 0.316513 0.379417 0.072881
Si Si5 0.511955 0.208084 0.577357
Si Si6 0.760756 0.985674 0.375818
Si Si7 0.000000 0.847976 0.250000
O O1 0.083226 0.144533 0.500000
O O2 0.203745 0.186272 0.437207
O O3 0.169900 0.535337 0.500000
O O4 0.096091 0.462901 0.403489
O O5 0.179952 0.613871 0.400770
O O6 0.243840 0.534565 0.402318
O O7 0.763897 0.627858 0.930464
O O8 0.844515 0.572898 0.906195
O O9 0.897746 0.715193 0.883630
O O10 0.877289 0.666739 0.000000
O O11 0.300415 0.310611 0.116087
O O12 0.337387 0.371720 0.000000
O O13 0.514667 0.210262 0.500000
O O14 0.805899 0.005032 0.311843
O O15 0.927864 0.855727 0.250000
#
# Coordination Sequence:
#
# PCOD9588870 Si02
#       7
#    12  24  24  24  24  24  12
#     4  12  23  36  56  78  99 122 154 192 232 288
#     4   8  13  21  37  64 101 139 172 207 249 292
#     4   9  16  28  46  70  98 130 170 209 242 286
#     4   9  16  28  46  70  98 130 170 209 242 286
#     4   8  13  21  37  64 101 139 172 207 249 292
#     4  12  22  36  56  75 100 131 162 195 245 303
#     4  12  27  44  60  78 101 126 156 202 254 302
#
# _framework density 17.954526999999999
#
# number of rings (size 3 to 8) (size 9 to 14) (size 15 to 20)
#    0.000    2.333    1.667    5.500    0.000    1.333 
#    0.000    2.500    0.000    4.000    0.000    2.333 
#    0.000    0.000    0.000    4.333    0.000    1.333 
#
# Total GULP energy -802390.893643 kJ/mol
# GULP energy per Si atom -5572.158984 kJ/mol
# Density = 1.791366 g / cm^3
# Si number density = 17.954527 Si / 1000 Ang^3
#
#
#
# Elastic Constant Matrix: (Units=GPa)
#
#
# Indices 1 2 3 4 5 6 
#
# 1 64.3862 6.6270 18.2485 0.0000 0.0000 0.0000
# 2 6.6270 64.3862 18.2485 0.0000 0.0000 0.0000
# 3 18.2485 18.2485 60.6386 0.0000 0.0000 0.0000
# 4 0.0000 0.0000 0.0000 7.2577 0.0000 0.0000
# 5 0.0000 0.0000 0.0000 0.0000 7.2577 0.0000
# 6 0.0000 0.0000 0.0000 0.0000 0.0000 28.8796
#
#
#
# Elastic Compliance Matrix: (Units=1/GPa)
#
#
# Indices 1 2 3 4 5 6 
#
# 1 0.016986 -0.000327 -0.005013 0.000000 0.000000 0.000000
# 2 -0.000327 0.016986 -0.005013 0.000000 0.000000 0.000000
# 3 -0.005013 -0.005013 0.019508 0.000000 0.000000 0.000000
# 4 0.000000 0.000000 0.000000 0.137785 0.000000 0.000000
# 5 0.000000 0.000000 0.000000 0.000000 0.137785 0.000000
# 6 0.000000 0.000000 0.000000 0.000000 0.000000 0.034627
#
#
# Mechanical properties :
#
#
# Convention : Reuss Voigt Hill
#
# Bulk Modulus (GPa) = 30.51331 30.62880 30.57106
# Shear Modulus (GPa) = 12.64834 18.43146 15.53990
#
# Velocity S-wave (km/s) = 2.65706 3.20748 2.94515
# Velocity P-wave (km/s) = 5.14246 5.55098 5.35062
#
# Compressibility (1/GPa) = 0.03277258
#
# Stress axis : x y z
#
# Youngs Moduli (GPa) = 58.87268 58.87268 51.25986
#
# Poissons Ratio (x) = 0.01928 0.25697
# Poissons Ratio (y) = 0.01928 0.25697
# Poissons Ratio (z) = 0.29514 0.29514
#
# Static dielectric constant tensor:
#      x y z
#    x 1.674510 0.000000 0.000000 
#    y 0.000000 1.674510 0.000000 
#    z 0.000000 0.000000 1.588570 
# 
# From -- ./inp_files/5175.got.cif
#   From: 2010.05.17/outbox.ucp.g08.bks.cvg/sg192_3_cif.got.tgz:5175.got - 2010.06.11 15:23:19.
