data_PCOD9588222
_publ_section_title
;
Structure prediction by ZEFSAII (Michael W. Deem and Ramdas Pophale) SiO2 
 PCOD9588222
Probable space group: P 6/M M M
;
_chemical_formula_sum "Si O2"
_cell_formula_units_Z 132
_cell_length_a 24.090129
_cell_length_b 24.090129
_cell_length_c 14.258790
_cell_angle_alpha 90.000000
_cell_angle_beta 90.000000
_cell_angle_gamma 120.000000
_cell_volume 7166.243416
_symmetry_space_group_name_H-M "P 6/M M M"
_symmetry_group_IT_number 191
_symmetry_cell_setting 'hexagonal'
loop_
_space_group_symop_operation_xyz
x,y,z
x-y,x,z
-y,x-y,z
-x,-y,z
-x+y,-x,z
y,-x+y,z
x-y,-y,-z
-x,-x+y,-z
y,x,-z
-y,-x,-z
-x+y,y,-z
x,x-y,-z
-x,-y,-z
-x+y,-x,-z
y,-x+y,-z
x,y,-z
x-y,x,-z
-y,x-y,-z
-x+y,y,z
x,x-y,z
-y,-x,z
y,x,z
x-y,-y,z
-x,-x+y,z
loop_
_atom_site_type_symbol
_atom_site_label
_atom_site_fract_x
_atom_site_fract_y
_atom_site_fract_z
Si Si1 0.073952 0.335563 0.393955
Si Si2 0.000000 0.436789 0.886163
Si Si3 0.585787 0.884408 0.112045
Si Si4 0.075763 0.276767 0.797380
Si Si5 0.544235 0.209399 0.202645
Si Si6 0.174833 0.483622 0.604584
O O1 0.087103 0.322020 0.500000
O O2 0.081404 0.293888 0.313243
O O3 0.120047 0.410649 0.376729
O O4 0.000000 0.317108 0.389882
O O5 0.939499 0.369686 0.858747
O O6 0.000000 0.500000 0.851018
O O7 0.000000 0.439560 0.000000
O O8 0.654188 0.900389 0.153306
O O9 0.523074 0.822046 0.148692
O O10 0.589958 0.882972 0.000000
O O11 0.127243 0.254486 0.821143
O O12 0.000000 0.229151 0.818957
O O13 0.597763 0.195526 0.160433
O O14 0.570177 0.285089 0.207042
O O15 0.527363 0.181375 0.308004
O O16 0.165106 0.502505 0.500000
O O17 0.241390 0.482780 0.603327
#
# Coordination Sequence:
#
# PCOD9588222 Si02
#       6
#    24  12  24  24  24  24
#     4   9  17  30  52  83 116 146 177 218 270 329
#     4   9  18  34  56  80 107 139 176 222 277 338
#     4  11  22  38  58  83 111 142 185 233 285 338
#     4  11  22  37  59  88 119 150 187 230 277 330
#     4  11  23  38  55  77 106 145 191 238 285 334
#     4   9  17  31  52  75 101 137 181 228 279 333
#
# _framework density 18.419692000000001
#
# number of rings (size 3 to 8) (size 9 to 14) (size 15 to 20)
#    0.000    1.909    2.727    1.818    0.000    4.000 
#    0.000    0.000    0.000    2.364    0.000    2.545 
#    0.000    0.000    0.000    6.182    0.000    0.000 
#
# Total GULP energy -736090.787207 kJ/mol
# GULP energy per Si atom -5576.445358 kJ/mol
# Density = 1.837777 g / cm^3
# Si number density = 18.419692 Si / 1000 Ang^3
#
#
#
# Elastic Constant Matrix: (Units=GPa)
#
#
# Indices 1 2 3 4 5 6 
#
# 1 89.5049 60.7172 24.5021 0.0000 0.0000 0.0000
# 2 60.7172 89.5049 24.5021 0.0000 0.0000 0.0000
# 3 24.5021 24.5021 57.0721 0.0000 0.0000 0.0000
# 4 0.0000 0.0000 0.0000 15.3359 0.0000 0.0000
# 5 0.0000 0.0000 0.0000 0.0000 15.3359 0.0000
# 6 0.0000 0.0000 0.0000 0.0000 0.0000 14.3938
#
#
#
# Elastic Compliance Matrix: (Units=1/GPa)
#
#
# Indices 1 2 3 4 5 6 
#
# 1 0.021239 -0.013498 -0.003323 0.000000 0.000000 0.000000
# 2 -0.013498 0.021239 -0.003323 0.000000 0.000000 0.000000
# 3 -0.003323 -0.003323 0.020375 0.000000 0.000000 0.000000
# 4 0.000000 0.000000 0.000000 0.065206 0.000000 0.000000
# 5 0.000000 0.000000 0.000000 0.000000 0.065206 0.000000
# 6 0.000000 0.000000 0.000000 0.000000 0.000000 0.069474
#
#
# Mechanical properties :
#
#
# Convention : Reuss Voigt Hill
#
# Bulk Modulus (GPa) = 44.31883 50.61386 47.46635
# Shear Modulus (GPa) = 16.10042 17.43716 16.76879
#
# Velocity S-wave (km/s) = 2.95970 3.08012 3.02051
# Velocity P-wave (km/s) = 5.98269 6.33935 6.16360
#
# Compressibility (1/GPa) = 0.02256377
#
# Stress axis : x y z
#
# Youngs Moduli (GPa) = 47.08317 47.08317 49.07920
#
# Poissons Ratio (x) = 0.63553 0.16311
# Poissons Ratio (y) = 0.63553 0.16311
# Poissons Ratio (z) = 0.15647 0.15647
#
# Static dielectric constant tensor:
#      x y z
#    x 1.650090 0.000000 0.000000 
#    y 0.000000 1.650090 0.000000 
#    z 0.000000 0.000000 1.673290 
# 
# From -- ./inp_files/4917.got.cif
#   From: 2010.05.17/outbox.cif.g08.bks.cpg/sg191_3_cif.got.tgz:4917.got - 2010.05.20 12:20:32.
