data_PCOD9588741
_publ_section_title
;
Structure prediction by ZEFSAII (Michael W. Deem and Ramdas Pophale) SiO2 
 PCOD9588741
Probable space group: P 6/M C C
;
_chemical_formula_sum "Si O2"
_cell_formula_units_Z 144
_cell_length_a 20.168202
_cell_length_b 20.168202
_cell_length_c 22.284887
_cell_angle_alpha 90.000000
_cell_angle_beta 90.000000
_cell_angle_gamma 120.000000
_cell_volume 7850.104407
_symmetry_space_group_name_H-M "P 6/M C C"
_symmetry_group_IT_number 192
_symmetry_cell_setting 'hexagonal'
loop_
_space_group_symop_operation_xyz
x,y,z
x-y,x,z
-y,x-y,z
-x,-y,z
-x+y,-x,z
y,-x+y,z
x-y,-y,1/2-z
-x,-x+y,1/2-z
y,x,1/2-z
-y,-x,1/2-z
-x+y,y,1/2-z
x,x-y,1/2-z
-x,-y,-z
-x+y,-x,-z
y,-x+y,-z
x,y,-z
x-y,x,-z
-y,x-y,-z
-x+y,y,1/2+z
x,x-y,1/2+z
-y,-x,1/2+z
y,x,1/2+z
x-y,-y,1/2+z
-x,-x+y,1/2+z
loop_
_atom_site_type_symbol
_atom_site_label
_atom_site_fract_x
_atom_site_fract_y
_atom_site_fract_z
Si Si1 0.720114 0.122821 0.382006
Si Si2 0.007381 0.575947 0.679716
Si Si3 0.623552 0.533165 0.000000
Si Si4 0.017878 0.163436 0.000000
Si Si5 0.134687 0.415180 0.122492
Si Si6 0.904740 0.372542 0.500000
Si Si7 0.238053 0.233325 0.877857
Si Si8 0.000000 0.158656 0.750000
O O1 0.649376 0.063904 0.340636
O O2 0.677867 0.123966 0.442518
O O3 0.781854 0.209155 0.362840
O O4 0.764747 0.075639 0.389916
O O5 0.000000 0.500000 0.649629
O O6 0.000000 0.566725 0.750000
O O7 0.091301 0.646382 0.665669
O O8 0.587755 0.590129 0.000000
O O9 0.553163 0.446184 0.000000
O O10 0.020772 0.203929 0.937241
O O11 0.086485 0.147604 0.000000
O O12 0.074264 0.324751 0.123690
O O13 0.130257 0.448862 0.057938
O O14 0.200618 0.200140 0.812593
O O15 0.076134 0.152267 0.750000
#
# Coordination Sequence:
#
# PCOD9588741 Si02
#       8
#    24  24  12  12  24  12  24  12
#     4  11  22  37  61  92 119 152 196 247 304 363
#     4  10  22  40  61  87 121 162 206 249 303 369
#     4  11  20  37  64  90 122 159 198 241 301 381
#     4  12  23  38  54  74 103 148 198 244 292 352
#     4  11  22  37  61  92 119 152 196 247 304 363
#     4  11  20  37  64  90 122 159 198 241 301 381
#     4  11  24  40  57  86 120 156 195 255 317 365
#     4  12  25  42  58  78 113 164 212 258 312 376
#
# _framework density 18.343705
#
# number of rings (size 3 to 8) (size 9 to 14) (size 15 to 20)
#    0.000    1.000    3.333    5.667    4.667    0.667 
#    0.000    1.667    0.000    9.333    0.000    0.000 
#    0.000    0.000    0.000    0.000    0.000    0.000 
#
# Total GULP energy -803218.159870 kJ/mol
# GULP energy per Si atom -5577.903888 kJ/mol
# Density = 1.830195 g / cm^3
# Si number density = 18.343705 Si / 1000 Ang^3
#
#
#
# Elastic Constant Matrix: (Units=GPa)
#
#
# Indices 1 2 3 4 5 6 
#
# 1 84.2527 42.6019 19.4319 0.0000 0.0000 0.0000
# 2 42.6019 84.2527 19.4319 0.0000 0.0000 0.0000
# 3 19.4319 19.4319 100.3922 0.0000 0.0000 0.0000
# 4 0.0000 0.0000 0.0000 19.9636 0.0000 0.0000
# 5 0.0000 0.0000 0.0000 0.0000 19.9636 0.0000
# 6 0.0000 0.0000 0.0000 0.0000 0.0000 20.8254
#
#
#
# Elastic Compliance Matrix: (Units=1/GPa)
#
#
# Indices 1 2 3 4 5 6 
#
# 1 0.016195 -0.007815 -0.001622 0.000000 0.000000 0.000000
# 2 -0.007815 0.016195 -0.001622 0.000000 0.000000 0.000000
# 3 -0.001622 -0.001622 0.010589 0.000000 0.000000 0.000000
# 4 0.000000 0.000000 0.000000 0.050091 0.000000 0.000000
# 5 0.000000 0.000000 0.000000 0.000000 0.050091 0.000000
# 6 0.000000 0.000000 0.000000 0.000000 0.000000 0.048018
#
#
# Mechanical properties :
#
#
# Convention : Reuss Voigt Hill
#
# Bulk Modulus (GPa) = 47.93703 47.98098 47.95900
# Shear Modulus (GPa) = 22.70154 24.64598 23.67376
#
# Velocity S-wave (km/s) = 3.52172 3.66945 3.59634
# Velocity P-wave (km/s) = 6.53652 6.64579 6.59138
#
# Compressibility (1/GPa) = 0.02086070
#
# Stress axis : x y z
#
# Youngs Moduli (GPa) = 61.74910 61.74910 94.43896
#
# Poissons Ratio (x) = 0.48254 0.15318
# Poissons Ratio (y) = 0.48254 0.15318
# Poissons Ratio (z) = 0.10016 0.10016
#
# Static dielectric constant tensor:
#      x y z
#    x 1.622060 0.000000 0.000000 
#    y 0.000000 1.622060 0.000000 
#    z 0.000000 0.000000 1.488340 
# 
# From -- ./inp_files/5217.got.cif
#   From: 2010.05.17/outbox.cif.g08.bks.cpg/sg192_3_cif.got.tgz:5217.got - 2010.05.20 12:28:01.
