data_PCOD9588435
_publ_section_title
;
Structure prediction by ZEFSAII (Michael W. Deem and Ramdas Pophale) SiO2 
 PCOD9588435
Probable space group: P 6/M C C
;
_chemical_formula_sum "Si O2"
_cell_formula_units_Z 144
_cell_length_a 32.128695
_cell_length_b 32.128695
_cell_length_c 8.666189
_cell_angle_alpha 90.000000
_cell_angle_beta 90.000000
_cell_angle_gamma 120.000000
_cell_volume 7747.203421
_symmetry_space_group_name_H-M "P 6/M C C"
_symmetry_group_IT_number 192
_symmetry_cell_setting 'hexagonal'
loop_
_space_group_symop_operation_xyz
x,y,z
x-y,x,z
-y,x-y,z
-x,-y,z
-x+y,-x,z
y,-x+y,z
x-y,-y,1/2-z
-x,-x+y,1/2-z
y,x,1/2-z
-y,-x,1/2-z
-x+y,y,1/2-z
x,x-y,1/2-z
-x,-y,-z
-x+y,-x,-z
y,-x+y,-z
x,y,-z
x-y,x,-z
-y,x-y,-z
-x+y,y,1/2+z
x,x-y,1/2+z
-y,-x,1/2+z
y,x,1/2+z
x-y,-y,1/2+z
-x,-x+y,1/2+z
loop_
_atom_site_type_symbol
_atom_site_label
_atom_site_fract_x
_atom_site_fract_y
_atom_site_fract_z
Si Si1 0.759299 0.333272 0.184687
Si Si2 0.852284 0.240234 0.185983
Si Si3 0.571953 0.050832 0.815355
Si Si4 0.667472 0.518821 0.314540
Si Si5 0.051999 0.855822 0.814853
Si Si6 0.707364 0.948506 0.185441
O O1 0.716697 0.283304 0.250000
O O2 0.753075 0.376538 0.250000
O O3 0.809857 0.340119 0.241771
O O4 0.757519 0.332993 0.000000
O O5 0.809693 0.190308 0.250000
O O6 0.846501 0.283519 0.251924
O O7 0.903634 0.246698 0.234205
O O8 0.850104 0.240064 0.000000
O O9 0.528966 0.057932 0.750000
O O10 0.622870 0.096362 0.773639
O O11 0.562278 0.000000 0.750000
O O12 0.567928 0.047651 0.000000
O O13 0.669437 0.515966 0.500000
O O14 0.095044 0.904957 0.750000
O O15 0.059437 0.811068 0.767669
O O16 0.000000 0.842522 0.750000
O O17 0.051563 0.857474 0.000000
O O18 0.719440 0.000000 0.250000
O O19 0.707672 0.950829 0.000000
#
# Coordination Sequence:
#
# PCOD9588435 Si02
#       6
#    24  24  24  24  24  24
#     4  12  25  43  66  92 121 153 189 234 284 340
#     4  11  23  39  58  82 113 152 192 234 282 336
#     4  10  21  37  60  86 115 148 187 233 283 335
#     4  11  24  41  60  86 117 154 195 237 284 337
#     4  10  19  33  53  79 109 143 183 230 280 334
#     4   9  20  36  56  82 112 146 187 233 284 335
#
# _framework density 18.587353
#
# number of rings (size 3 to 8) (size 9 to 14) (size 15 to 20)
#    0.000    1.500    0.000    5.667    0.000    6.667 
#    0.000    3.333    0.000    0.167    0.000    1.167 
#    0.000    0.000    0.000    0.000    0.000    0.000 
#
# Total GULP energy -805132.526893 kJ/mol
# GULP energy per Si atom -5591.198103 kJ/mol
# Density = 1.854505 g / cm^3
# Si number density = 18.587353 Si / 1000 Ang^3
#
#
#
# Elastic Constant Matrix: (Units=GPa)
#
#
# Indices 1 2 3 4 5 6 
#
# 1 100.3039 37.5605 39.0647 0.0000 0.0000 0.0000
# 2 37.5605 100.3039 39.0647 0.0000 0.0000 0.0000
# 3 39.0647 39.0647 82.0444 0.0000 0.0000 0.0000
# 4 0.0000 0.0000 0.0000 24.6394 0.0000 0.0000
# 5 0.0000 0.0000 0.0000 0.0000 24.6394 0.0000
# 6 0.0000 0.0000 0.0000 0.0000 0.0000 31.3717
#
#
#
# Elastic Compliance Matrix: (Units=1/GPa)
#
#
# Indices 1 2 3 4 5 6 
#
# 1 0.012936 -0.003002 -0.004730 0.000000 0.000000 0.000000
# 2 -0.003002 0.012936 -0.004730 0.000000 0.000000 0.000000
# 3 -0.004730 -0.004730 0.016693 0.000000 0.000000 0.000000
# 4 0.000000 0.000000 0.000000 0.040585 0.000000 0.000000
# 5 0.000000 0.000000 0.000000 0.000000 0.040585 0.000000
# 6 0.000000 0.000000 0.000000 0.000000 0.000000 0.031876
#
#
# Mechanical properties :
#
#
# Convention : Reuss Voigt Hill
#
# Bulk Modulus (GPa) = 56.68647 57.11467 56.90057
# Shear Modulus (GPa) = 26.82177 27.26092 27.04134
#
# Velocity S-wave (km/s) = 3.80282 3.83383 3.81835
# Velocity P-wave (km/s) = 7.06013 7.09873 7.07946
#
# Compressibility (1/GPa) = 0.01764090
#
# Stress axis : x y z
#
# Youngs Moduli (GPa) = 77.30371 77.30371 59.90595
#
# Poissons Ratio (x) = 0.23206 0.28336
# Poissons Ratio (y) = 0.23206 0.28336
# Poissons Ratio (z) = 0.36565 0.36565
#
# Static dielectric constant tensor:
#      x y z
#    x 1.617990 0.000000 0.000000 
#    y 0.000000 1.617990 0.000000 
#    z 0.000000 0.000000 1.624790 
# 
# From -- ./inp_files/1149.got.cif
#   From: 2010.05.17/outbox.cif.g08.bks.cpg/sg192_1_cif.got.tgz:1149.got - 2010.05.20 12:28:01.
