data_PCOD9588824
_publ_section_title
;
Structure prediction by ZEFSAII (Michael W. Deem and Ramdas Pophale) SiO2 
 PCOD9588824
Probable space group: P 6/M C C
;
_chemical_formula_sum "Si O2"
_cell_formula_units_Z 72
_cell_length_a 20.706923
_cell_length_b 20.706923
_cell_length_c 9.688842
_cell_angle_alpha 90.000000
_cell_angle_beta 90.000000
_cell_angle_gamma 120.000000
_cell_volume 3597.772041
_symmetry_space_group_name_H-M "P 6/M C C"
_symmetry_group_IT_number 192
_symmetry_cell_setting 'hexagonal'
loop_
_space_group_symop_operation_xyz
x,y,z
x-y,x,z
-y,x-y,z
-x,-y,z
-x+y,-x,z
y,-x+y,z
x-y,-y,1/2-z
-x,-x+y,1/2-z
y,x,1/2-z
-y,-x,1/2-z
-x+y,y,1/2-z
x,x-y,1/2-z
-x,-y,-z
-x+y,-x,-z
y,-x+y,-z
x,y,-z
x-y,x,-z
-y,x-y,-z
-x+y,y,1/2+z
x,x-y,1/2+z
-y,-x,1/2+z
y,x,1/2+z
x-y,-y,1/2+z
-x,-x+y,1/2+z
loop_
_atom_site_type_symbol
_atom_site_label
_atom_site_fract_x
_atom_site_fract_y
_atom_site_fract_z
Si Si1 0.650914 0.086645 0.766206
Si Si2 0.179098 0.537228 0.000000
Si Si3 0.809976 0.310810 0.000000
Si Si4 0.793915 0.074898 0.162542
O O1 0.678474 0.137203 0.629684
O O2 0.722454 0.086387 0.831318
O O3 0.589969 0.000000 0.750000
O O4 0.622273 0.126776 0.868140
O O5 0.212702 0.625106 0.000000
O O6 0.235459 0.504855 0.000000
O O7 0.859495 0.140506 0.250000
O O8 0.770133 0.000000 0.250000
O O9 0.811393 0.071707 0.000000
#
# Coordination Sequence:
#
# PCOD9588824 Si02
#       4
#    24  12  12  24
#     4  11  25  41  64  92 124 162 214 272 341 396
#     4  12  24  45  61  93 120 167 215 265 331 406
#     4  12  26  41  67  87 126 167 213 273 329 406
#     4  11  23  40  66  98 135 174 220 272 332 398
#
# _framework density 20.012384000000001
#
# number of rings (size 3 to 8) (size 9 to 14) (size 15 to 20)
#    0.000    0.667    1.667    6.333    9.333    4.000 
#    0.000    3.333    0.000    0.333    0.000    2.333 
#    0.000    0.000    0.000    0.000    0.000    0.000 
#
# Total GULP energy -402574.342570 kJ/mol
# GULP energy per Si atom -5591.310313 kJ/mol
# Density = 1.996684 g / cm^3
# Si number density = 20.012384 Si / 1000 Ang^3
#
#
#
# Elastic Constant Matrix: (Units=GPa)
#
#
# Indices 1 2 3 4 5 6 
#
# 1 85.6756 45.1701 33.9168 0.0000 0.0000 0.0000
# 2 45.1701 85.6756 33.9168 0.0000 0.0000 0.0000
# 3 33.9168 33.9168 170.4876 0.0000 0.0000 0.0000
# 4 0.0000 0.0000 0.0000 6.3314 0.0000 0.0000
# 5 0.0000 0.0000 0.0000 0.0000 6.3314 0.0000
# 6 0.0000 0.0000 0.0000 0.0000 0.0000 20.2528
#
#
#
# Elastic Compliance Matrix: (Units=1/GPa)
#
#
# Indices 1 2 3 4 5 6 
#
# 1 0.016605 -0.008083 -0.001695 0.000000 0.000000 0.000000
# 2 -0.008083 0.016605 -0.001695 0.000000 0.000000 0.000000
# 3 -0.001695 -0.001695 0.006540 0.000000 0.000000 0.000000
# 4 0.000000 0.000000 0.000000 0.157944 0.000000 0.000000
# 5 0.000000 0.000000 0.000000 0.000000 0.157944 0.000000
# 6 0.000000 0.000000 0.000000 0.000000 0.000000 0.049376
#
#
# Mechanical properties :
#
#
# Convention : Reuss Voigt Hill
#
# Bulk Modulus (GPa) = 59.51703 63.09401 61.30552
# Shear Modulus (GPa) = 11.53240 21.83878 16.68559
#
# Velocity S-wave (km/s) = 2.40315 3.30701 2.89063
# Velocity P-wave (km/s) = 6.12412 6.79542 6.46848
#
# Compressibility (1/GPa) = 0.01680191
#
# Stress axis : x y z
#
# Youngs Moduli (GPa) = 60.22384 60.22384 152.90434
#
# Poissons Ratio (x) = 0.48681 0.25921
# Poissons Ratio (y) = 0.48681 0.25921
# Poissons Ratio (z) = 0.10209 0.10209
#
# Static dielectric constant tensor:
#      x y z
#    x 1.693230 0.000000 0.000000 
#    y 0.000000 1.693230 0.000000 
#    z 0.000000 0.000000 1.633630 
# 
# From -- ./inp_files/542.got.cif
#   From: 2010.05.17/outbox.cif.g08.bks.cpg/sg192_1_cif.got.tgz:542.got - 2010.05.20 12:28:01.
