data_PCOD9588410
_publ_section_title
;
Structure prediction by ZEFSAII (Michael W. Deem and Ramdas Pophale) SiO2 
 PCOD9588410
Probable space group: P 6/M C C
;
_chemical_formula_sum "Si O2"
_cell_formula_units_Z 144
_cell_length_a 32.933481
_cell_length_b 32.933481
_cell_length_c 8.535731
_cell_angle_alpha 90.000000
_cell_angle_beta 90.000000
_cell_angle_gamma 120.000000
_cell_volume 8017.641365
_symmetry_space_group_name_H-M "P 6/M C C"
_symmetry_group_IT_number 192
_symmetry_cell_setting 'hexagonal'
loop_
_space_group_symop_operation_xyz
x,y,z
x-y,x,z
-y,x-y,z
-x,-y,z
-x+y,-x,z
y,-x+y,z
x-y,-y,1/2-z
-x,-x+y,1/2-z
y,x,1/2-z
-y,-x,1/2-z
-x+y,y,1/2-z
x,x-y,1/2-z
-x,-y,-z
-x+y,-x,-z
y,-x+y,-z
x,y,-z
x-y,x,-z
-y,x-y,-z
-x+y,y,1/2+z
x,x-y,1/2+z
-y,-x,1/2+z
y,x,1/2+z
x-y,-y,1/2+z
-x,-x+y,1/2+z
loop_
_atom_site_type_symbol
_atom_site_label
_atom_site_fract_x
_atom_site_fract_y
_atom_site_fract_z
Si Si1 0.950616 0.521241 0.686597
Si Si2 0.424827 0.758135 0.688354
Si Si3 0.191650 0.141567 0.187674
Si Si4 0.396036 0.152056 0.310680
Si Si5 0.484787 0.341213 0.810268
Si Si6 0.101100 0.294419 0.811175
O O1 0.947700 0.473850 0.750000
O O2 0.952279 0.521379 0.500000
O O3 0.904093 0.520455 0.744096
O O4 0.000000 0.563376 0.750000
O O5 0.376032 0.752064 0.750000
O O6 0.431958 0.715979 0.750000
O O7 0.423748 0.756436 0.500000
O O8 0.467614 0.809193 0.737181
O O9 0.153059 0.153059 0.250000
O O10 0.186140 0.093070 0.250000
O O11 0.243500 0.183519 0.240110
O O12 0.190512 0.139982 0.000000
O O13 0.400247 0.200124 0.250000
O O14 0.396815 0.153784 0.500000
O O15 0.439988 0.147557 0.258904
O O16 0.344926 0.109027 0.261262
O O17 0.485028 0.343635 0.000000
O O18 0.147669 0.295337 0.750000
O O19 0.100953 0.294081 0.000000
#
# Coordination Sequence:
#
# PCOD9588410 Si02
#       6
#    24  24  24  24  24  24
#     4  11  22  38  60  81 103 131 166 210 259 313
#     4  11  23  38  56  78 107 143 183 230 280 331
#     4  10  19  32  51  76 105 138 177 220 265 312
#     4   9  17  31  51  75 106 141 177 218 262 311
#     4  10  21  36  55  81 111 142 177 218 265 319
#     4   8  15  28  47  70  97 131 168 207 250 296
#
# _framework density 17.960394000000001
#
# number of rings (size 3 to 8) (size 9 to 14) (size 15 to 20)
#    0.000    2.167    0.000    4.167    0.000    4.000 
#    0.000    0.833    0.000    2.167    0.000    1.167 
#    0.000    0.000    0.000    0.000    0.000    0.000 
#
# Total GULP energy -802890.399102 kJ/mol
# GULP energy per Si atom -5575.627772 kJ/mol
# Density = 1.791952 g / cm^3
# Si number density = 17.960394 Si / 1000 Ang^3
#
#
#
# Elastic Constant Matrix: (Units=GPa)
#
#
# Indices 1 2 3 4 5 6 
#
# 1 132.9983 78.3627 34.8862 0.0000 0.0000 0.0000
# 2 78.3627 132.9983 34.8862 0.0000 0.0000 0.0000
# 3 34.8862 34.8862 44.7440 0.0000 0.0000 0.0000
# 4 0.0000 0.0000 0.0000 18.0823 0.0000 0.0000
# 5 0.0000 0.0000 0.0000 0.0000 18.0823 0.0000
# 6 0.0000 0.0000 0.0000 0.0000 0.0000 27.3178
#
#
#
# Elastic Compliance Matrix: (Units=1/GPa)
#
#
# Indices 1 2 3 4 5 6 
#
# 1 0.012337 -0.005966 -0.004967 0.000000 0.000000 0.000000
# 2 -0.005966 0.012337 -0.004967 0.000000 0.000000 0.000000
# 3 -0.004967 -0.004967 0.030095 0.000000 0.000000 0.000000
# 4 0.000000 0.000000 0.000000 0.055303 0.000000 0.000000
# 5 0.000000 0.000000 0.000000 0.000000 0.055303 0.000000
# 6 0.000000 0.000000 0.000000 0.000000 0.000000 0.036606
#
#
# Mechanical properties :
#
#
# Convention : Reuss Voigt Hill
#
# Bulk Modulus (GPa) = 43.53915 67.44564 55.49240
# Shear Modulus (GPa) = 20.70919 23.53683 22.12301
#
# Velocity S-wave (km/s) = 3.39934 3.62399 3.51346
# Velocity P-wave (km/s) = 6.30093 7.42597 6.88646
#
# Compressibility (1/GPa) = 0.02296783
#
# Stress axis : x y z
#
# Youngs Moduli (GPa) = 81.05656 81.05656 33.22775
#
# Poissons Ratio (x) = 0.48359 0.16506
# Poissons Ratio (y) = 0.48359 0.16506
# Poissons Ratio (z) = 0.40264 0.40264
#
# Static dielectric constant tensor:
#      x y z
#    x 1.614770 0.000000 0.000000 
#    y 0.000000 1.614770 0.000000 
#    z 0.000000 0.000000 1.612500 
# 
# From -- ./inp_files/1195.got.cif
#   From: 2010.05.17/outbox.cif.g08.bks.cpg/sg192_1_cif.got.tgz:1195.got - 2010.05.20 12:28:01.
