data_PCOD9588797
_publ_section_title
;
Structure prediction by ZEFSAII (Michael W. Deem and Ramdas Pophale) SiO2 
 PCOD9588797
Probable space group: P 6/M C C
;
_chemical_formula_sum "Si O2"
_cell_formula_units_Z 96
_cell_length_a 25.324303
_cell_length_b 25.324303
_cell_length_c 10.448569
_cell_angle_alpha 90.000000
_cell_angle_beta 90.000000
_cell_angle_gamma 120.000000
_cell_volume 5803.131996
_symmetry_space_group_name_H-M "P 6/M C C"
_symmetry_group_IT_number 192
_symmetry_cell_setting 'hexagonal'
loop_
_space_group_symop_operation_xyz
x,y,z
x-y,x,z
-y,x-y,z
-x,-y,z
-x+y,-x,z
y,-x+y,z
x-y,-y,1/2-z
-x,-x+y,1/2-z
y,x,1/2-z
-y,-x,1/2-z
-x+y,y,1/2-z
x,x-y,1/2-z
-x,-y,-z
-x+y,-x,-z
y,-x+y,-z
x,y,-z
x-y,x,-z
-y,x-y,-z
-x+y,y,1/2+z
x,x-y,1/2+z
-y,-x,1/2+z
y,x,1/2+z
x-y,-y,1/2+z
-x,-x+y,1/2+z
loop_
_atom_site_type_symbol
_atom_site_label
_atom_site_fract_x
_atom_site_fract_y
_atom_site_fract_z
Si Si1 0.314255 0.434121 0.000000
Si Si2 0.073244 0.473555 0.253753
Si Si3 0.860611 0.139390 0.750000
Si Si4 0.307326 0.299185 0.500000
Si Si5 0.767159 0.000000 0.250000
Si Si6 0.902270 0.330592 0.500000
Si Si7 0.632776 0.814031 0.000000
O O1 0.357268 0.461044 0.123547
O O2 0.284326 0.360950 0.000000
O O3 0.248451 0.429022 0.000000
O O4 0.079854 0.539927 0.250000
O O5 0.000000 0.425841 0.250000
O O6 0.104010 0.465071 0.127655
O O7 0.828849 0.065652 0.746324
O O8 0.840062 0.163581 0.874195
O O9 0.267404 0.271786 0.374663
O O10 0.342320 0.371609 0.500000
O O11 0.863469 0.258378 0.500000
#
# Coordination Sequence:
#
# PCOD9588797 Si02
#       7
#    12  24  12  12  12  12  12
#     4  12  21  35  53  79 113 143 175 219 261 316
#     4  11  22  35  54  78 108 146 178 206 253 314
#     4  12  22  36  52  79 108 146 190 228 280 338
#     4  12  20  34  55  78 110 155 170 220 272 322
#     4  12  22  36  52  75 111 146 190 228 276 336
#     4  12  21  35  53  79 113 143 175 219 261 316
#     4  12  24  34  56  82 112 145 182 220 280 332
#
# _framework density 16.542791000000001
#
# number of rings (size 3 to 8) (size 9 to 14) (size 15 to 20)
#    0.000    0.250    7.500    3.750    0.000    2.000 
#    0.000    0.000    0.000    0.250    0.000    0.000 
#   25.000    4.000    0.000    0.000    0.000    0.500 
#
# Total GULP energy -535461.585335 kJ/mol
# GULP energy per Si atom -5577.724847 kJ/mol
# Density = 1.650514 g / cm^3
# Si number density = 16.542791 Si / 1000 Ang^3
#
#
#
# Elastic Constant Matrix: (Units=GPa)
#
#
# Indices 1 2 3 4 5 6 
#
# 1 83.0370 17.2018 45.6408 0.0000 0.0000 0.0000
# 2 17.2018 83.0370 45.6408 0.0000 0.0000 0.0000
# 3 45.6408 45.6408 167.5354 0.0000 0.0000 0.0000
# 4 0.0000 0.0000 0.0000 98.4980 0.0000 0.0000
# 5 0.0000 0.0000 0.0000 0.0000 98.4980 0.0000
# 6 0.0000 0.0000 0.0000 0.0000 0.0000 32.9176
#
#
#
# Elastic Compliance Matrix: (Units=1/GPa)
#
#
# Indices 1 2 3 4 5 6 
#
# 1 0.014229 -0.000961 -0.003614 0.000000 0.000000 0.000000
# 2 -0.000961 0.014229 -0.003614 0.000000 0.000000 0.000000
# 3 -0.003614 -0.003614 0.007938 0.000000 0.000000 0.000000
# 4 0.000000 0.000000 0.000000 0.010152 0.000000 0.000000
# 5 0.000000 0.000000 0.000000 0.000000 0.010152 0.000000
# 6 0.000000 0.000000 0.000000 0.000000 0.000000 0.030379
#
#
# Mechanical properties :
#
#
# Convention : Reuss Voigt Hill
#
# Bulk Modulus (GPa) = 49.96069 61.17515 55.56792
# Shear Modulus (GPa) = 45.40062 60.99111 53.19586
#
# Velocity S-wave (km/s) = 5.24442 6.07855 5.67682
# Velocity P-wave (km/s) = 8.18159 9.29114 8.75396
#
# Compressibility (1/GPa) = 0.02001574
#
# Stress axis : x y z
#
# Youngs Moduli (GPa) = 70.28126 70.28126 125.97296
#
# Poissons Ratio (x) = 0.06753 0.45532
# Poissons Ratio (y) = 0.06753 0.45532
# Poissons Ratio (z) = 0.25403 0.25403
#
# Static dielectric constant tensor:
#      x y z
#    x 1.591840 0.000000 0.000000 
#    y 0.000000 1.591840 0.000000 
#    z 0.000000 0.000000 1.560950 
# 
# From -- ./inp_files/1753.got.cif
#   From: 2010.05.17/outbox.cif.g08.bks.cpg/sg192_1_cif.got.tgz:1753.got - 2010.05.20 12:28:01.
