data_PCOD9588884
_publ_section_title
;
Structure prediction by ZEFSAII (Michael W. Deem and Ramdas Pophale) SiO2 
 PCOD9588884
Probable space group: P 63/M C M
;
_chemical_formula_sum "Si O2"
_cell_formula_units_Z 104
_cell_length_a 18.484804
_cell_length_b 18.484804
_cell_length_c 23.697131
_cell_angle_alpha 90.000000
_cell_angle_beta 90.000000
_cell_angle_gamma 120.000000
_cell_volume 7012.229170
_symmetry_space_group_name_H-M "P 63/M C M"
_symmetry_group_IT_number 193
_symmetry_cell_setting 'hexagonal'
loop_
_space_group_symop_operation_xyz
x,y,z
x-y,x,1/2+z
-y,x-y,z
-x,-y,1/2+z
-x+y,-x,z
y,-x+y,1/2+z
x-y,-y,1/2-z
-x,-x+y,1/2-z
y,x,1/2-z
-y,-x,-z
-x+y,y,-z
x,x-y,-z
-x,-y,-z
-x+y,-x,1/2-z
y,-x+y,-z
x,y,1/2-z
x-y,x,-z
-y,x-y,1/2-z
-x+y,y,1/2+z
x,x-y,1/2+z
-y,-x,1/2+z
y,x,z
x-y,-y,z
-x,-x+y,z
loop_
_atom_site_type_symbol
_atom_site_label
_atom_site_fract_x
_atom_site_fract_y
_atom_site_fract_z
Si Si1 0.465613 0.095872 0.009219
Si Si2 0.727049 0.516596 0.109880
Si Si3 0.584555 0.676869 0.880650
Si Si4 0.904441 0.474441 0.815770
Si Si5 0.333333 0.666666 0.431983
O O1 0.453558 0.152588 0.054256
O O2 0.423377 0.000000 0.030156
O O3 0.563471 0.126942 0.000000
O O4 0.429087 0.094433 0.948022
O O5 0.820234 0.580065 0.130993
O O6 0.657546 0.498227 0.156590
O O7 0.717855 0.427839 0.091455
O O8 0.661184 0.661184 0.866158
O O9 0.503961 0.602094 0.849890
O O10 0.886156 0.452333 0.750000
O O11 0.000000 0.549245 0.820336
O O12 0.333334 0.666667 0.500000
#
# Coordination Sequence:
#
# PCOD9588884 Si02
#       5
#    24  24  24  24   8
#     4  10  17  28  47  67  89 115 145 185 233 275
#     4  12  19  31  45  67  87 116 152 190 229 263
#     4  10  20  32  45  63  89 118 146 181 228 271
#     4  10  21  35  47  60  83 116 153 191 230 271
#     4  12  21  27  40  71  94 111 144 199 236 256
#
# _framework density 14.831232
#
# number of rings (size 3 to 8) (size 9 to 14) (size 15 to 20)
#    0.000    1.385    4.615    3.462    0.000    0.923 
#    0.000    0.000    0.000    0.000    0.000    0.000 
#    0.000    0.000    0.000    5.538    0.000   44.769 
#
# Total GULP energy -580210.638052 kJ/mol
# GULP energy per Si atom -5578.948443 kJ/mol
# Density = 1.479748 g / cm^3
# Si number density = 14.831232 Si / 1000 Ang^3
#
#
#
# Elastic Constant Matrix: (Units=GPa)
#
#
# Indices 1 2 3 4 5 6 
#
# 1 70.8863 24.4903 24.5795 0.0000 0.0000 0.0000
# 2 24.4903 70.8863 24.5794 0.0000 0.0000 0.0000
# 3 24.5795 24.5794 69.1156 0.0000 0.0000 0.0000
# 4 0.0000 0.0000 0.0000 17.9490 0.0001 0.0000
# 5 0.0000 0.0000 0.0000 0.0001 17.9492 0.0000
# 6 0.0000 0.0000 0.0000 0.0000 0.0000 23.1980
#
#
#
# Elastic Compliance Matrix: (Units=1/GPa)
#
#
# Indices 1 2 3 4 5 6 
#
# 1 0.017196 -0.004358 -0.004566 0.000000 0.000000 0.000000
# 2 -0.004358 0.017196 -0.004566 0.000000 0.000000 0.000000
# 3 -0.004566 -0.004566 0.017716 0.000000 0.000000 0.000000
# 4 0.000000 0.000000 0.000000 0.055714 0.000000 0.000000
# 5 0.000000 0.000000 0.000000 0.000000 0.055713 0.000000
# 6 0.000000 0.000000 0.000000 0.000000 0.000000 0.043107
#
#
# Mechanical properties :
#
#
# Convention : Reuss Voigt Hill
#
# Bulk Modulus (GPa) = 39.79387 39.79851 39.79619
# Shear Modulus (GPa) = 20.66157 20.96849 20.81503
#
# Velocity S-wave (km/s) = 3.73649 3.76414 3.75034
# Velocity P-wave (km/s) = 6.74570 6.76640 6.75606
#
# Compressibility (1/GPa) = 0.02512950
#
# Stress axis : x y z
#
# Youngs Moduli (GPa) = 58.15389 58.15398 56.44692
#
# Poissons Ratio (x) = 0.25343 0.25771
# Poissons Ratio (y) = 0.25342 0.25771
# Poissons Ratio (z) = 0.26550 0.26550
#
# Static dielectric constant tensor:
#      x y z
#    x 1.512410 0.000000 0.000000 
#    y 0.000000 1.512410 0.000000 
#    z 0.000000 0.000000 1.501270 
# 
# From -- ./inp_files/6316.got.cif
#   From: 2010.05.17/outbox.cif.g08.bks.cpg/sg193_4_cif.got.tgz:6316.got - 2010.05.20 12:33:02.
