data_PCOD9588438
_publ_section_title
;
Structure prediction by ZEFSAII (Michael W. Deem and Ramdas Pophale) SiO2 
 PCOD9588438
Probable space group: P 6/M C C
;
_chemical_formula_sum "Si O2"
_cell_formula_units_Z 104
_cell_length_a 19.196138
_cell_length_b 19.196138
_cell_length_c 14.009398
_cell_angle_alpha 90.000000
_cell_angle_beta 90.000000
_cell_angle_gamma 120.000000
_cell_volume 4470.723717
_symmetry_space_group_name_H-M "P 6/M C C"
_symmetry_group_IT_number 192
_symmetry_cell_setting 'hexagonal'
loop_
_space_group_symop_operation_xyz
x,y,z
x-y,x,z
-y,x-y,z
-x,-y,z
-x+y,-x,z
y,-x+y,z
x-y,-y,1/2-z
-x,-x+y,1/2-z
y,x,1/2-z
-y,-x,1/2-z
-x+y,y,1/2-z
x,x-y,1/2-z
-x,-y,-z
-x+y,-x,-z
y,-x+y,-z
x,y,-z
x-y,x,-z
-y,x-y,-z
-x+y,y,1/2+z
x,x-y,1/2+z
-y,-x,1/2+z
y,x,1/2+z
x-y,-y,1/2+z
-x,-x+y,1/2+z
loop_
_atom_site_type_symbol
_atom_site_label
_atom_site_fract_x
_atom_site_fract_y
_atom_site_fract_z
Si Si1 0.481659 0.206633 0.890054
Si Si2 0.903299 0.261927 0.616573
Si Si3 0.666668 0.333334 0.137509
Si Si4 0.129759 0.949322 0.883169
Si Si5 0.033741 0.441965 0.616485
O O1 0.426021 0.240564 0.851120
O O2 0.574803 0.274584 0.891476
O O3 0.469954 0.123665 0.848241
O O4 0.454875 0.186393 0.000000
O O5 0.903854 0.262252 0.500000
O O6 0.924264 0.194407 0.648189
O O7 0.971607 0.350774 0.644500
O O8 0.666668 0.333334 0.250000
O O9 0.039553 0.884502 0.853826
O O10 0.130311 0.949102 0.000000
O O11 0.036122 0.444946 0.500000
O O12 0.000000 0.500000 0.645473
#
# Coordination Sequence:
#
# PCOD9588438 Si02
#       5
#    24  24   8  24  24
#     4  10  19  33  54  75  97 130 168 204 246 296
#     4   9  16  26  43  69  96 122 161 211 251 285
#     4  12  25  38  52  72 100 128 157 201 250 299
#     4   9  15  22  33  55  93 137 171 197 235 290
#     4   9  16  26  43  69  96 120 156 209 255 289
#
# _framework density 23.262453000000001
#
# number of rings (size 3 to 8) (size 9 to 14) (size 15 to 20)
#    0.000    2.538    0.000    3.692    0.000   10.154 
#    0.000    0.000    0.000    6.231    0.000    0.000 
#    0.000    0.000    0.000    0.000    0.000    6.231 
#
# Total GULP energy -581903.331883 kJ/mol
# GULP energy per Si atom -5595.224345 kJ/mol
# Density = 2.320951 g / cm^3
# Si number density = 23.262453 Si / 1000 Ang^3
#
#
#
# Elastic Constant Matrix: (Units=GPa)
#
#
# Indices 1 2 3 4 5 6 
#
# 1 251.6138 160.8243 -2.0751 0.0000 0.0000 0.0004
# 2 160.8243 251.6134 -2.0749 0.0001 0.0002 -0.0006
# 3 -2.0751 -2.0749 73.9820 -0.0002 0.0000 -0.0001
# 4 0.0000 0.0001 -0.0002 -1.0702 0.0000 -0.0001
# 5 0.0000 0.0002 0.0000 0.0000 -1.0702 0.0000
# 6 0.0004 -0.0006 -0.0001 -0.0001 0.0000 45.3953
#
#
#
# Elastic Compliance Matrix: (Units=1/GPa)
#
#
# Indices 1 2 3 4 5 6 
#
# 1 0.006720 -0.004295 0.000068 0.000000 -0.000001 0.000000
# 2 -0.004295 0.006720 0.000068 0.000001 0.000001 0.000000
# 3 0.000068 0.000068 0.013521 -0.000002 0.000001 0.000000
# 4 0.000000 0.000001 -0.000002 -0.934439 -0.000013 -0.000002
# 5 -0.000001 0.000001 0.000001 -0.000013 -0.934393 0.000001
# 6 0.000000 0.000000 0.000000 -0.000002 0.000001 0.022029
#
#
# Mechanical properties :
#
#
# Convention : Reuss Voigt Hill
#
# Bulk Modulus (GPa) = 53.63860 98.95086 76.29473
# Shear Modulus (GPa) = -2.76961 36.68665 16.95852
#
# Velocity S-wave (km/s) = -1.09233 3.97555 2.70294
# Velocity P-wave (km/s) = 4.63866 7.98138 6.52762
#
# Compressibility (1/GPa) = 0.01864329
#
# Stress axis : x y z
#
# Youngs Moduli (GPa) = 148.81182 148.81159 73.96115
#
# Poissons Ratio (x) = 0.63909 -0.00503
# Poissons Ratio (y) = 0.63909 -0.00503
# Poissons Ratio (z) = -0.01013 -0.01012
#
# Static dielectric constant tensor:
#      x y z
#    x 1.807240 0.000000 0.000000 
#    y 0.000000 1.807240 0.000000 
#    z 0.000000 0.000000 1.947460 
# 
# From -- ./inp_files/4881.got.cif
#   From: 2010.05.17/outbox.cif.g08.bks.cpg/sg192_3_cif.got.tgz:4881.got - 2010.05.20 12:28:01.
