data_PCOD9588223
_publ_section_title
;
Structure prediction by ZEFSAII (Michael W. Deem and Ramdas Pophale) SiO2 
 PCOD9588223
Probable space group: P 6/M M M
;
_chemical_formula_sum "Si O2"
_cell_formula_units_Z 132
_cell_length_a 23.834414
_cell_length_b 23.834414
_cell_length_c 14.399068
_cell_angle_alpha 90.000000
_cell_angle_beta 90.000000
_cell_angle_gamma 120.000000
_cell_volume 7083.925282
_symmetry_space_group_name_H-M "P 6/M M M"
_symmetry_group_IT_number 191
_symmetry_cell_setting 'hexagonal'
loop_
_space_group_symop_operation_xyz
x,y,z
x-y,x,z
-y,x-y,z
-x,-y,z
-x+y,-x,z
y,-x+y,z
x-y,-y,-z
-x,-x+y,-z
y,x,-z
-y,-x,-z
-x+y,y,-z
x,x-y,-z
-x,-y,-z
-x+y,-x,-z
y,-x+y,-z
x,y,-z
x-y,x,-z
-y,x-y,-z
-x+y,y,z
x,x-y,z
-y,-x,z
y,x,z
x-y,-y,z
-x,-x+y,z
loop_
_atom_site_type_symbol
_atom_site_label
_atom_site_fract_x
_atom_site_fract_y
_atom_site_fract_z
Si Si1 0.076969 0.361713 0.396004
Si Si2 0.000000 0.436559 0.887308
Si Si3 0.586404 0.883536 0.110859
Si Si4 0.078012 0.284252 0.779134
Si Si5 0.546148 0.213462 0.198114
Si Si6 0.154266 0.514791 0.605586
O O1 0.096281 0.353329 0.500000
O O2 0.091037 0.322143 0.319005
O O3 0.109228 0.438270 0.378741
O O4 0.000000 0.331565 0.394216
O O5 0.939426 0.368719 0.860085
O O6 0.000000 0.500000 0.851291
O O7 0.000000 0.439593 0.000000
O O8 0.656898 0.901704 0.147941
O O9 0.524840 0.822404 0.154305
O O10 0.585779 0.878326 0.000000
O O11 0.129347 0.258693 0.788549
O O12 0.000000 0.233166 0.786426
O O13 0.593776 0.187551 0.165424
O O14 0.576641 0.288320 0.175778
O O15 0.538659 0.203565 0.309100
O O16 0.180486 0.522947 0.500000
O O17 0.122269 0.561135 0.610171
#
# Coordination Sequence:
#
# PCOD9588223 Si02
#       6
#    24  12  24  24  24  24
#     4   9  18  33  54  83 117 150 185 226 276 334
#     4   9  18  34  56  80 109 145 184 230 283 340
#     4  11  22  38  58  84 114 145 188 238 291 344
#     4  11  23  40  62  90 121 152 187 228 280 342
#     4  11  23  38  54  75 105 147 197 247 295 341
#     4   9  18  32  50  75 108 147 192 240 291 345
#
# _framework density 18.633737
#
# number of rings (size 3 to 8) (size 9 to 14) (size 15 to 20)
#    0.000    1.909    2.727    1.273    0.000    3.636 
#    0.000    3.636    0.000    2.364    0.000    0.000 
#    0.000    0.000    0.000    6.182    0.000    0.000 
#
# Total GULP energy -735579.542056 kJ/mol
# GULP energy per Si atom -5572.572288 kJ/mol
# Density = 1.859133 g / cm^3
# Si number density = 18.633737 Si / 1000 Ang^3
#
#
#
# Elastic Constant Matrix: (Units=GPa)
#
#
# Indices 1 2 3 4 5 6 
#
# 1 98.8444 61.6495 28.7075 0.0000 0.0000 0.0000
# 2 61.6495 98.8444 28.7075 0.0000 0.0000 0.0000
# 3 28.7075 28.7075 75.7230 0.0000 0.0000 0.0000
# 4 0.0000 0.0000 0.0000 -9.6816 0.0000 0.0000
# 5 0.0000 0.0000 0.0000 0.0000 -9.6816 0.0000
# 6 0.0000 0.0000 0.0000 0.0000 0.0000 18.5974
#
#
#
# Elastic Compliance Matrix: (Units=1/GPa)
#
#
# Indices 1 2 3 4 5 6 
#
# 1 0.017047 -0.009839 -0.002733 0.000000 0.000000 0.000000
# 2 -0.009839 0.017047 -0.002733 0.000000 0.000000 0.000000
# 3 -0.002733 -0.002733 0.015278 0.000000 0.000000 0.000000
# 4 0.000000 0.000000 0.000000 -0.103289 0.000000 0.000000
# 5 0.000000 0.000000 0.000000 0.000000 -0.103289 0.000000
# 6 0.000000 0.000000 0.000000 0.000000 0.000000 0.053771
#
#
# Mechanical properties :
#
#
# Convention : Reuss Voigt Hill
#
# Bulk Modulus (GPa) = 53.29433 56.83786 55.06610
# Shear Modulus (GPa) = -75.10675 10.13666 -32.48505
#
# Velocity S-wave (km/s) = -6.35566 2.33490 -4.17987
# Velocity P-wave (km/s) = 5.01957 6.15125 2.51414
#
# Compressibility (1/GPa) = 0.01876372
#
# Stress axis : x y z
#
# Youngs Moduli (GPa) = 58.66168 58.66168 65.45317
#
# Poissons Ratio (x) = 0.57714 0.17887
# Poissons Ratio (y) = 0.57714 0.17887
# Poissons Ratio (z) = 0.16031 0.16031
#
# Static dielectric constant tensor:
#      x y z
#    x 1.675020 0.000000 0.000000 
#    y 0.000000 1.675020 0.000000 
#    z 0.000000 0.000000 1.671580 
# 
# From -- ./inp_files/4918.got.cif
#   From: 2010.05.17/outbox.cif.g08.bks.cpg/sg191_3_cif.got.tgz:4918.got - 2010.05.20 12:20:32.
