data_PCOD9588613
_publ_section_title
;
Structure prediction by ZEFSAII (Michael W. Deem and Ramdas Pophale) SiO2 
 PCOD9588613
Probable space group: P 6/M C C
;
_chemical_formula_sum "Si O2"
_cell_formula_units_Z 120
_cell_length_a 13.964680
_cell_length_b 13.964680
_cell_length_c 33.410521
_cell_angle_alpha 90.000000
_cell_angle_beta 90.000000
_cell_angle_gamma 120.000000
_cell_volume 5642.555719
_symmetry_space_group_name_H-M "P 6/M C C"
_symmetry_group_IT_number 192
_symmetry_cell_setting 'hexagonal'
loop_
_space_group_symop_operation_xyz
x,y,z
x-y,x,z
-y,x-y,z
-x,-y,z
-x+y,-x,z
y,-x+y,z
x-y,-y,1/2-z
-x,-x+y,1/2-z
y,x,1/2-z
-y,-x,1/2-z
-x+y,y,1/2-z
x,x-y,1/2-z
-x,-y,-z
-x+y,-x,-z
y,-x+y,-z
x,y,-z
x-y,x,-z
-y,x-y,-z
-x+y,y,1/2+z
x,x-y,1/2+z
-y,-x,1/2+z
y,x,1/2+z
x-y,-y,1/2+z
-x,-x+y,1/2+z
loop_
_atom_site_type_symbol
_atom_site_label
_atom_site_fract_x
_atom_site_fract_y
_atom_site_fract_z
Si Si1 0.189437 0.941026 0.333723
Si Si2 0.149927 0.887395 0.952513
Si Si3 0.797842 0.565968 0.612662
Si Si4 0.117173 0.435942 0.272204
Si Si5 0.572919 0.128932 0.848968
O O1 0.248034 0.910973 0.368649
O O2 0.240018 0.919378 0.294480
O O3 0.061530 0.853123 0.336486
O O4 0.211583 0.834503 0.927469
O O5 0.017704 0.818679 0.943798
O O6 0.162891 0.877636 0.000000
O O7 0.811408 0.458726 0.616069
O O8 0.699675 0.535308 0.644634
O O9 0.231449 0.462898 0.250000
O O10 0.147482 0.532852 0.305462
O O11 0.000000 0.402042 0.250000
O O12 0.500000 0.000000 0.855336
#
# Coordination Sequence:
#
# PCOD9588613 Si02
#       5
#    24  24  24  24  24
#     4  11  21  36  61  91 127 167 207 257 327 407
#     4  10  20  37  67 109 149 178 204 249 316 395
#     4  11  23  43  64  90 129 173 226 275 322 382
#     4  11  23  42  65  89 124 162 211 274 344 403
#     4  11  25  43  65  88 120 169 223 281 331 377
#
# _framework density 21.266959
#
# number of rings (size 3 to 8) (size 9 to 14) (size 15 to 20)
#    0.000    1.200    2.000    5.600    2.800    1.200 
#    0.000    3.000    0.000    3.600    0.000    0.000 
#    0.000    0.000    0.000    0.000    0.000    0.000 
#
# Total GULP energy -669681.450269 kJ/mol
# GULP energy per Si atom -5580.678752 kJ/mol
# Density = 2.121855 g / cm^3
# Si number density = 21.266959 Si / 1000 Ang^3
#
#
#
# Elastic Constant Matrix: (Units=GPa)
#
#
# Indices 1 2 3 4 5 6 
#
# 1 103.6946 28.4333 40.3274 0.0000 0.0000 0.0000
# 2 28.4333 103.6946 40.3274 0.0000 0.0000 0.0000
# 3 40.3274 40.3274 80.3986 0.0000 0.0000 0.0000
# 4 0.0000 0.0000 0.0000 31.8060 0.0000 0.0000
# 5 0.0000 0.0000 0.0000 0.0000 31.8060 0.0000
# 6 0.0000 0.0000 0.0000 0.0000 0.0000 37.6307
#
#
#
# Elastic Compliance Matrix: (Units=1/GPa)
#
#
# Indices 1 2 3 4 5 6 
#
# 1 0.012098 -0.001189 -0.005472 0.000000 0.000000 0.000000
# 2 -0.001189 0.012098 -0.005472 0.000000 0.000000 0.000000
# 3 -0.005472 -0.005472 0.017927 0.000000 0.000000 0.000000
# 4 0.000000 0.000000 0.000000 0.031441 0.000000 0.000000
# 5 0.000000 0.000000 0.000000 0.000000 0.031441 0.000000
# 6 0.000000 0.000000 0.000000 0.000000 0.000000 0.026574
#
#
# Mechanical properties :
#
#
# Convention : Reuss Voigt Hill
#
# Bulk Modulus (GPa) = 55.99872 56.21822 56.10847
# Shear Modulus (GPa) = 30.90323 32.16185 31.53254
#
# Velocity S-wave (km/s) = 3.81610 3.89304 3.85476
# Velocity P-wave (km/s) = 6.76796 6.83371 6.80092
#
# Compressibility (1/GPa) = 0.01785755
#
# Stress axis : x y z
#
# Youngs Moduli (GPa) = 82.65999 82.65999 55.78153
#
# Poissons Ratio (x) = 0.09831 0.30522
# Poissons Ratio (y) = 0.09831 0.30522
# Poissons Ratio (z) = 0.45228 0.45228
#
# Static dielectric constant tensor:
#      x y z
#    x 1.811070 0.000000 0.000000 
#    y 0.000000 1.811070 0.000000 
#    z 0.000000 0.000000 1.830100 
# 
# From -- ./inp_files/6948.got.cif
#   From: 2010.05.17/outbox.cif.g08.bks.cpg/sg192_4_cif.got.tgz:6948.got - 2010.05.20 12:28:01.
