data_PCOD9588869
_publ_section_title
;
Structure prediction by ZEFSAII (Michael W. Deem and Ramdas Pophale) SiO2 
 PCOD9588869
Probable space group: P 6/M C C
;
_chemical_formula_sum "Si O2"
_cell_formula_units_Z 120
_cell_length_a 18.000000
_cell_length_b 18.000000
_cell_length_c 24.000000
_cell_angle_alpha 90.000000
_cell_angle_beta 90.000000
_cell_angle_gamma 120.000000
_cell_volume 6734.213540
_symmetry_space_group_name_H-M "P 6/M C C"
_symmetry_group_IT_number 192
_symmetry_cell_setting 'hexagonal'
loop_
_space_group_symop_operation_xyz
x,y,z
x-y,x,z
-y,x-y,z
-x,-y,z
-x+y,-x,z
y,-x+y,z
x-y,-y,1/2-z
-x,-x+y,1/2-z
y,x,1/2-z
-y,-x,1/2-z
-x+y,y,1/2-z
x,x-y,1/2-z
-x,-y,-z
-x+y,-x,-z
y,-x+y,-z
x,y,-z
x-y,x,-z
-y,x-y,-z
-x+y,y,1/2+z
x,x-y,1/2+z
-y,-x,1/2+z
y,x,1/2+z
x-y,-y,1/2+z
-x,-x+y,1/2+z
loop_
_atom_site_type_symbol
_atom_site_label
_atom_site_fract_x
_atom_site_fract_y
_atom_site_fract_z
Si Si1 0.941026 0.669345 0.199474
Si Si2 0.371041 0.316325 0.500000
Si Si3 0.951511 0.557918 0.624155
Si Si4 0.287570 0.109050 0.500000
Si Si5 0.503033 0.170017 0.229691
Si Si6 0.074745 0.202343 0.122007
O O1 0.878532 0.583702 0.233749
O O2 0.902402 0.717727 0.163485
O O3 0.000000 0.729522 0.250000
O O4 0.990540 0.640102 0.155589
O O5 0.421254 0.360032 0.559062
O O6 0.345828 0.214683 0.500000
O O7 0.282344 0.322200 0.500000
O O8 0.865683 0.516334 0.664982
O O9 0.000000 0.500000 0.625428
O O10 0.234219 0.087676 0.442326
O O11 0.572419 0.144838 0.250000
O O12 0.536288 0.268144 0.250000
O O13 0.134613 0.160628 0.131251
#
# Coordination Sequence:
#
# PCOD9588869 Si02
#       6
#    24  12  24  12  24  24
#     4  10  23  38  64  93 126 166 221 274 332 392
#     4  12  25  40  66  97 131 173 228 278 337 403
#     4  11  22  43  66  96 129 169 221 277 332 402
#     4  12  22  38  61  90 125 163 218 280 313 384
#     4  11  24  40  68  98 132 169 212 277 337 406
#     4  12  24  41  61  91 129 175 223 273 326 387
#
# _framework density 17.819452999999999
#
# number of rings (size 3 to 8) (size 9 to 14) (size 15 to 20)
#    0.000    0.800    6.000    0.700    8.400    0.000 
#    0.000    1.000    0.000    1.200    0.000    0.000 
#    0.000    0.000    0.000    0.000    0.000    0.000 
#
# Total GULP energy -668886.792396 kJ/mol
# GULP energy per Si atom -5574.056603 kJ/mol
# Density = 1.777889 g / cm^3
# Si number density = 17.819453 Si / 1000 Ang^3
#
#
#
# Elastic Constant Matrix: (Units=GPa)
#
#
# Indices 1 2 3 4 5 6 
#
# 1 99.4715 26.0845 46.4399 0.0000 0.0000 0.0000
# 2 26.0845 99.4715 46.4399 0.0000 0.0000 0.0000
# 3 46.4399 46.4399 157.4501 0.0000 0.0000 0.0000
# 4 0.0000 0.0000 0.0000 33.8407 0.0000 0.0000
# 5 0.0000 0.0000 0.0000 0.0000 33.8407 0.0000
# 6 0.0000 0.0000 0.0000 0.0000 0.0000 36.6935
#
#
#
# Elastic Compliance Matrix: (Units=1/GPa)
#
#
# Indices 1 2 3 4 5 6 
#
# 1 0.011907 -0.001720 -0.003005 0.000000 0.000000 0.000000
# 2 -0.001720 0.011907 -0.003005 0.000000 0.000000 0.000000
# 3 -0.003005 -0.003005 0.008124 0.000000 0.000000 0.000000
# 4 0.000000 0.000000 0.000000 0.029550 0.000000 0.000000
# 5 0.000000 0.000000 0.000000 0.000000 0.029550 0.000000
# 6 0.000000 0.000000 0.000000 0.000000 0.000000 0.027253
#
#
# Mechanical properties :
#
#
# Convention : Reuss Voigt Hill
#
# Bulk Modulus (GPa) = 60.68187 66.03571 63.35879
# Shear Modulus (GPa) = 35.90875 36.70358 36.30616
#
# Velocity S-wave (km/s) = 4.49390 4.54337 4.51870
# Velocity P-wave (km/s) = 7.81374 8.04124 7.92831
#
# Compressibility (1/GPa) = 0.01647939
#
# Stress axis : x y z
#
# Youngs Moduli (GPa) = 83.98516 83.98516 123.09630
#
# Poissons Ratio (x) = 0.14441 0.36987
# Poissons Ratio (y) = 0.14441 0.36987
# Poissons Ratio (z) = 0.25235 0.25235
#
# Static dielectric constant tensor:
#      x y z
#    x 1.649130 0.000000 0.000000 
#    y 0.000000 1.649130 0.000000 
#    z 0.000000 0.000000 1.597890 
# 
# From -- ./inp_files/5771.got.cif
#   From: 2010.05.17/outbox.ucp.g08.bks.cvg/sg192_3_cif.got.tgz:5771.got - 2010.06.11 15:23:19.
