data_PCOD9588036
_publ_section_title
;
Structure prediction by ZEFSAII (Michael W. Deem and Ramdas Pophale) SiO2 
 PCOD9588036
Probable space group: P 6/M M M
;
_chemical_formula_sum "Si O2"
_cell_formula_units_Z 54
_cell_length_a 22.261360
_cell_length_b 22.261360
_cell_length_c 7.723630
_cell_angle_alpha 90.000000
_cell_angle_beta 90.000000
_cell_angle_gamma 120.000000
_cell_volume 3314.785865
_symmetry_space_group_name_H-M "P 6/M M M"
_symmetry_group_IT_number 191
_symmetry_cell_setting 'hexagonal'
loop_
_space_group_symop_operation_xyz
x,y,z
x-y,x,z
-y,x-y,z
-x,-y,z
-x+y,-x,z
y,-x+y,z
x-y,-y,-z
-x,-x+y,-z
y,x,-z
-y,-x,-z
-x+y,y,-z
x,x-y,-z
-x,-y,-z
-x+y,-x,-z
y,-x+y,-z
x,y,-z
x-y,x,-z
-y,x-y,-z
-x+y,y,z
x,x-y,z
-y,-x,z
y,x,z
x-y,-y,z
-x,-x+y,z
loop_
_atom_site_type_symbol
_atom_site_label
_atom_site_fract_x
_atom_site_fract_y
_atom_site_fract_z
Si Si1 0.385265 0.301709 0.303990
Si Si2 0.166031 0.083016 0.000000
Si Si3 0.859078 0.140923 0.706333
Si Si4 0.473393 0.084738 0.000000
O O1 0.409666 0.302343 0.500000
O O2 0.343806 0.343806 0.303220
O O3 0.330028 0.222742 0.257829
O O4 0.446824 0.339672 0.167760
O O5 0.119534 0.119534 0.000000
O O6 0.215925 0.107962 0.168742
O O7 0.867885 0.132116 0.500000
O O8 0.553834 0.107668 0.000000
O O9 0.431697 0.000000 0.000000
#
# Coordination Sequence:
#
# PCOD9588036 Si02
#       4
#    24   6  12  12
#     4   9  17  29  46  69  95 122 155 195 239 289
#     4  12  25  38  52  70  96 132 176 226 278 330
#     4  10  20  35  55  75  96 126 166 214 264 310
#     4   9  17  28  42  63  94 127 150 172 214 274
#
# _framework density 16.290644
#
# number of rings (size 3 to 8) (size 9 to 14) (size 15 to 20)
#    0.000    2.444    0.000    2.778    0.000    5.333 
#    0.000    4.444    0.000    1.333    0.000    0.000 
#    8.889    0.000    2.667    0.000    0.000    0.000 
#
# Total GULP energy -301081.510027 kJ/mol
# GULP energy per Si atom -5575.583519 kJ/mol
# Density = 1.625357 g / cm^3
# Si number density = 16.290644 Si / 1000 Ang^3
#
#
#
# Elastic Constant Matrix: (Units=GPa)
#
#
# Indices 1 2 3 4 5 6 
#
# 1 94.4957 43.9710 73.8904 0.0000 0.0000 0.0000
# 2 43.9710 94.4957 73.8904 0.0000 0.0000 0.0000
# 3 73.8904 73.8904 114.8981 0.0000 0.0000 0.0000
# 4 0.0000 0.0000 0.0000 12.4991 0.0000 0.0000
# 5 0.0000 0.0000 0.0000 0.0000 12.4991 0.0000
# 6 0.0000 0.0000 0.0000 0.0000 0.0000 25.2623
#
#
#
# Elastic Compliance Matrix: (Units=1/GPa)
#
#
# Indices 1 2 3 4 5 6 
#
# 1 0.021409 0.001617 -0.014808 0.000000 0.000000 0.000000
# 2 0.001617 0.021409 -0.014808 0.000000 0.000000 0.000000
# 3 -0.014808 -0.014808 0.027749 0.000000 0.000000 0.000000
# 4 0.000000 0.000000 0.000000 0.080006 0.000000 0.000000
# 5 0.000000 0.000000 0.000000 0.000000 0.080006 0.000000
# 6 0.000000 0.000000 0.000000 0.000000 0.000000 0.039585
#
#
# Mechanical properties :
#
#
# Convention : Reuss Voigt Hill
#
# Bulk Modulus (GPa) = 68.63670 76.37702 72.50686
# Shear Modulus (GPa) = 15.10494 17.52794 16.31644
#
# Velocity S-wave (km/s) = 3.04832 3.28373 3.16821
# Velocity P-wave (km/s) = 7.39011 7.83345 7.61501
#
# Compressibility (1/GPa) = 0.01456947
#
# Stress axis : x y z
#
# Youngs Moduli (GPa) = 46.70921 46.70921 36.03734
#
# Poissons Ratio (x) = -0.07552 0.53363
# Poissons Ratio (y) = -0.07552 0.53363
# Poissons Ratio (z) = 0.69166 0.69166
#
# Static dielectric constant tensor:
#      x y z
#    x 1.522700 0.000000 0.000000 
#    y 0.000000 1.522700 0.000000 
#    z 0.000000 0.000000 1.581440 
# 
# From -- ./inp_files/520.got.cif
#   From: 2010.05.17/outbox.cif.g08.bks.cpg/sg191_1_cif.got.tgz:520.got - 2010.05.20 12:20:32.
