data_PCOD9588216
_publ_section_title
;
Structure prediction by ZEFSAII (Michael W. Deem and Ramdas Pophale) SiO2 
 PCOD9588216
Probable space group: P 6/M M M
;
_chemical_formula_sum "Si O2"
_cell_formula_units_Z 96
_cell_length_a 20.698350
_cell_length_b 20.698350
_cell_length_c 17.028088
_cell_angle_alpha 90.000000
_cell_angle_beta 90.000000
_cell_angle_gamma 120.000000
_cell_volume 6317.830504
_symmetry_space_group_name_H-M "P 6/M M M"
_symmetry_group_IT_number 191
_symmetry_cell_setting 'hexagonal'
loop_
_space_group_symop_operation_xyz
x,y,z
x-y,x,z
-y,x-y,z
-x,-y,z
-x+y,-x,z
y,-x+y,z
x-y,-y,-z
-x,-x+y,-z
y,x,-z
-y,-x,-z
-x+y,y,-z
x,x-y,-z
-x,-y,-z
-x+y,-x,-z
y,-x+y,-z
x,y,-z
x-y,x,-z
-y,x-y,-z
-x+y,y,z
x,x-y,z
-y,-x,z
y,x,z
x-y,-y,z
-x,-x+y,z
loop_
_atom_site_type_symbol
_atom_site_label
_atom_site_fract_x
_atom_site_fract_y
_atom_site_fract_z
Si Si1 0.297074 0.297074 0.094539
Si Si2 0.820054 0.333764 0.500000
Si Si3 0.487457 0.666628 0.672021
Si Si4 0.854407 0.854407 0.094941
Si Si5 0.296771 0.439776 0.164411
Si Si6 0.543796 0.087592 0.093654
O O1 0.221084 0.221084 0.109782
O O2 0.289645 0.363666 0.132889
O O3 0.309202 0.309202 0.000000
O O4 0.744449 0.255552 0.500000
O O5 0.801827 0.400914 0.500000
O O6 0.855583 0.338719 0.414646
O O7 0.469600 0.734800 0.670205
O O8 0.411331 0.588670 0.687105
O O9 0.545257 0.686234 0.742682
O O10 0.852162 0.926081 0.124991
O O11 0.860918 0.860918 0.000000
O O12 0.221847 0.443694 0.147784
O O13 0.371461 0.502733 0.122781
O O14 0.500000 0.000000 0.121476
O O15 0.542329 0.084657 0.000000
#
# Coordination Sequence:
#
# PCOD9588216 Si02
#       6
#    12  12  24  12  24  12
#     4  11  22  36  52  69  92 127 173 211 239 287
#     4   8  13  22  40  65  91 119 150 188 240 301
#     4   9  16  27  44  67  94 122 155 198 248 301
#     4   9  17  30  50  76 102 123 145 184 240 294
#     4  11  22  35  52  72  95 127 167 211 255 295
#     4  11  22  38  54  69  93 131 175 214 256 302
#
# _framework density 15.195088999999999
#
# number of rings (size 3 to 8) (size 9 to 14) (size 15 to 20)
#    0.000    2.125    2.500    2.000    0.000    5.500 
#    0.750    0.000    0.000    0.750    0.000    3.500 
#    0.000    0.000    0.000    0.000    0.000    3.125 
#
# Total GULP energy -534541.430622 kJ/mol
# GULP energy per Si atom -5568.139902 kJ/mol
# Density = 1.516050 g / cm^3
# Si number density = 15.195089 Si / 1000 Ang^3
#
#
#
# Elastic Constant Matrix: (Units=GPa)
#
#
# Indices 1 2 3 4 5 6 
#
# 1 102.2557 67.7615 54.1601 0.0000 0.0000 0.0000
# 2 67.7615 102.2557 54.1601 0.0000 0.0000 0.0000
# 3 54.1601 54.1601 107.9301 0.0000 0.0000 0.0000
# 4 0.0000 0.0000 0.0000 12.6938 0.0000 0.0000
# 5 0.0000 0.0000 0.0000 0.0000 12.6938 0.0000
# 6 0.0000 0.0000 0.0000 0.0000 0.0000 17.2471
#
#
#
# Elastic Compliance Matrix: (Units=1/GPa)
#
#
# Indices 1 2 3 4 5 6 
#
# 1 0.018818 -0.010172 -0.004339 0.000000 0.000000 0.000000
# 2 -0.010172 0.018818 -0.004339 0.000000 0.000000 0.000000
# 3 -0.004339 -0.004339 0.013620 0.000000 0.000000 0.000000
# 4 0.000000 0.000000 0.000000 0.078779 0.000000 0.000000
# 5 0.000000 0.000000 0.000000 0.000000 0.078779 0.000000
# 6 0.000000 0.000000 0.000000 0.000000 0.000000 0.057981
#
#
# Mechanical properties :
#
#
# Convention : Reuss Voigt Hill
#
# Bulk Modulus (GPa) = 73.76247 73.84498 73.80372
# Shear Modulus (GPa) = 16.18064 17.61761 16.89912
#
# Velocity S-wave (km/s) = 3.26676 3.40873 3.33850
# Velocity P-wave (km/s) = 7.92956 8.01224 7.97101
#
# Compressibility (1/GPa) = 0.01355703
#
# Stress axis : x y z
#
# Youngs Moduli (GPa) = 53.14024 53.14024 73.42400
#
# Poissons Ratio (x) = 0.54055 0.31856
# Poissons Ratio (y) = 0.54055 0.31856
# Poissons Ratio (z) = 0.23055 0.23055
#
# Static dielectric constant tensor:
#      x y z
#    x 1.495720 0.000000 0.000000 
#    y 0.000000 1.495720 0.000000 
#    z 0.000000 0.000000 1.539850 
# 
# From -- ./inp_files/6018.got.cif
#   From: 2010.05.17/outbox.cif.g08.bks.cpg/sg191_4_cif.got.tgz:6018.got - 2010.05.20 12:20:32.
