data_PCOD9588590
_publ_section_title
;
Structure prediction by ZEFSAII (Michael W. Deem and Ramdas Pophale) SiO2 
 PCOD9588590
Probable space group: P 6/M C C
;
_chemical_formula_sum "Si O2"
_cell_formula_units_Z 102
_cell_length_a 26.831908
_cell_length_b 26.831908
_cell_length_c 7.993705
_cell_angle_alpha 90.000000
_cell_angle_beta 90.000000
_cell_angle_gamma 120.000000
_cell_volume 4984.043924
_symmetry_space_group_name_H-M "P 6/M C C"
_symmetry_group_IT_number 192
_symmetry_cell_setting 'hexagonal'
loop_
_space_group_symop_operation_xyz
x,y,z
x-y,x,z
-y,x-y,z
-x,-y,z
-x+y,-x,z
y,-x+y,z
x-y,-y,1/2-z
-x,-x+y,1/2-z
y,x,1/2-z
-y,-x,1/2-z
-x+y,y,1/2-z
x,x-y,1/2-z
-x,-y,-z
-x+y,-x,-z
y,-x+y,-z
x,y,-z
x-y,x,-z
-y,x-y,-z
-x+y,y,1/2+z
x,x-y,1/2+z
-y,-x,1/2+z
y,x,1/2+z
x-y,-y,1/2+z
-x,-x+y,1/2+z
loop_
_atom_site_type_symbol
_atom_site_label
_atom_site_fract_x
_atom_site_fract_y
_atom_site_fract_z
Si Si1 0.500000 0.000000 0.250000
Si Si2 0.350156 0.066645 0.701046
Si Si3 0.526188 0.903937 0.300958
Si Si4 0.175020 0.240841 0.698532
Si Si5 0.775798 0.441520 0.697658
O O1 0.483430 0.049337 0.200196
O O2 0.352592 0.072281 0.500000
O O3 0.415652 0.094625 0.757267
O O4 0.305312 0.085590 0.766086
O O5 0.320423 0.000000 0.750000
O O6 0.530463 0.920410 0.500000
O O7 0.476610 0.838407 0.281732
O O8 0.199156 0.199156 0.750000
O O9 0.110793 0.221586 0.750000
O O10 0.177945 0.244209 0.500000
O O11 0.730667 0.461333 0.750000
O O12 0.751105 0.375553 0.750000
O O13 0.784050 0.447399 0.500000
#
# Coordination Sequence:
#
# PCOD9588590 Si02
#       5
#     6  24  24  24  24
#     4  12  22  36  68  94 138 172 218 264 324 384
#     4   9  19  35  55  82 118 157 199 246 297 357
#     4  11  23  39  61  94 130 166 211 259 316 380
#     4  10  20  36  59  87 121 161 206 253 307 366
#     4  12  26  45  67  90 118 154 201 255 314 376
#
# _framework density 20.465308
#
# number of rings (size 3 to 8) (size 9 to 14) (size 15 to 20)
#    0.000    1.412    2.353    3.412    0.000    3.765 
#    0.000    2.353    0.000    0.235    0.000    1.647 
#    0.000    0.000    0.000    0.000    0.000    0.000 
#
# Total GULP energy -568416.117263 kJ/mol
# GULP energy per Si atom -5572.707032 kJ/mol
# Density = 2.041873 g / cm^3
# Si number density = 20.465308 Si / 1000 Ang^3
#
#
#
# Elastic Constant Matrix: (Units=GPa)
#
#
# Indices 1 2 3 4 5 6 
#
# 1 119.9182 70.9687 8.3710 0.0000 0.0000 0.0000
# 2 70.9687 119.9182 8.3710 0.0000 0.0000 0.0000
# 3 8.3710 8.3710 53.5382 0.0000 0.0000 0.0000
# 4 0.0000 0.0000 0.0000 24.7202 0.0000 0.0000
# 5 0.0000 0.0000 0.0000 0.0000 24.7202 0.0000
# 6 0.0000 0.0000 0.0000 0.0000 0.0000 24.4748
#
#
#
# Elastic Compliance Matrix: (Units=1/GPa)
#
#
# Indices 1 2 3 4 5 6 
#
# 1 0.012870 -0.007559 -0.000830 0.000000 0.000000 0.000000
# 2 -0.007559 0.012870 -0.000830 0.000000 0.000000 0.000000
# 3 -0.000830 -0.000830 0.018938 0.000000 0.000000 0.000000
# 4 0.000000 0.000000 0.000000 0.040453 0.000000 0.000000
# 5 0.000000 0.000000 0.000000 0.000000 0.040453 0.000000
# 6 0.000000 0.000000 0.000000 0.000000 0.000000 0.040858
#
#
# Mechanical properties :
#
#
# Convention : Reuss Voigt Hill
#
# Bulk Modulus (GPa) = 38.11110 52.08848 45.09979
# Shear Modulus (GPa) = 25.82261 28.49394 27.15827
#
# Velocity S-wave (km/s) = 3.55600 3.73541 3.64681
# Velocity P-wave (km/s) = 5.96011 6.64166 6.31010
#
# Compressibility (1/GPa) = 0.02623907
#
# Stress axis : x y z
#
# Youngs Moduli (GPa) = 77.69779 77.69779 52.80398
#
# Poissons Ratio (x) = 0.58730 0.04385
# Poissons Ratio (y) = 0.58730 0.04385
# Poissons Ratio (z) = 0.06453 0.06453
#
# Static dielectric constant tensor:
#      x y z
#    x 1.683370 0.000000 0.000000 
#    y 0.000000 1.683370 0.000000 
#    z 0.000000 0.000000 1.766060 
# 
# From -- ./inp_files/877.got.cif
#   From: 2010.05.17/outbox.cif.g08.bks.cpg/sg192_1_cif.got.tgz:877.got - 2010.05.20 12:28:01.
