data_PCOD9588268
_publ_section_title
;
Structure prediction by ZEFSAII (Michael W. Deem and Ramdas Pophale) SiO2 
 PCOD9588268
Probable space group: P 6/M M M
;
_chemical_formula_sum "Si O2"
_cell_formula_units_Z 156
_cell_length_a 21.000000
_cell_length_b 21.000000
_cell_length_c 21.000000
_cell_angle_alpha 90.000000
_cell_angle_beta 90.000000
_cell_angle_gamma 120.000000
_cell_volume 8020.261264
_symmetry_space_group_name_H-M "P 6/M M M"
_symmetry_group_IT_number 191
_symmetry_cell_setting 'hexagonal'
loop_
_space_group_symop_operation_xyz
x,y,z
x-y,x,z
-y,x-y,z
-x,-y,z
-x+y,-x,z
y,-x+y,z
x-y,-y,-z
-x,-x+y,-z
y,x,-z
-y,-x,-z
-x+y,y,-z
x,x-y,-z
-x,-y,-z
-x+y,-x,-z
y,-x+y,-z
x,y,-z
x-y,x,-z
-y,x-y,-z
-x+y,y,z
x,x-y,z
-y,-x,z
y,x,z
x-y,-y,z
-x,-x+y,z
loop_
_atom_site_type_symbol
_atom_site_label
_atom_site_fract_x
_atom_site_fract_y
_atom_site_fract_z
Si Si1 0.390352 0.303145 0.568888
Si Si2 0.524443 0.190627 0.773699
Si Si3 0.666151 0.191316 0.376375
Si Si4 0.084261 0.779699 0.688525
Si Si5 0.915940 0.361386 0.883162
Si Si6 0.918317 0.225994 0.167410
Si Si7 0.475077 0.810897 0.000000
O O1 0.377452 0.266388 0.500000
O O2 0.348782 0.348782 0.569310
O O3 0.475812 0.355133 0.582037
O O4 0.361003 0.251715 0.630673
O O5 0.611542 0.223083 0.781791
O O6 0.503182 0.251591 0.793681
O O7 0.509552 0.175678 0.698838
O O8 0.485240 0.119031 0.816867
O O9 0.610113 0.220226 0.385140
O O10 0.746687 0.253314 0.395830
O O11 0.133496 0.866505 0.688673
O O12 0.092797 0.755234 0.759364
O O13 0.000000 0.751957 0.678693
O O14 0.914445 0.284145 0.878449
O O15 0.000000 0.423699 0.891455
O O16 0.863015 0.356475 0.938964
O O17 0.855124 0.144877 0.153505
O O18 0.000000 0.239280 0.165322
O O19 0.387743 0.775486 0.000000
O O20 0.496970 0.748485 0.000000
#
# Coordination Sequence:
#
# PCOD9588268 Si02
#       7
#    24  24  24  24  24  24  12
#     4  10  21  35  50  70  96 126 162 206 257 309
#     4  10  20  35  55  77 102 132 169 210 249 293
#     4  10  21  36  54  75  99 129 165 206 250 297
#     4   9  17  30  50  75 102 132 167 208 251 297
#     4  11  23  37  55  80 109 138 167 207 257 303
#     4   9  17  31  52  77 104 134 170 209 250 297
#     4  12  26  43  61  79 104 139 179 217 253 298
#
# _framework density 19.450738000000001
#
# number of rings (size 3 to 8) (size 9 to 14) (size 15 to 20)
#    0.000    2.000    0.000    3.846    0.000    8.923 
#    0.000    3.846    0.000    1.231    0.000    2.154 
#    0.000    0.000    0.000    3.846    0.000   20.000 
#
# Total GULP energy -869284.351006 kJ/mol
# GULP energy per Si atom -5572.335583 kJ/mol
# Density = 1.940647 g / cm^3
# Si number density = 19.450738 Si / 1000 Ang^3
#
#
#
# Elastic Constant Matrix: (Units=GPa)
#
#
# Indices 1 2 3 4 5 6 
#
# 1 76.8308 56.3621 27.1924 0.0000 0.0000 0.0000
# 2 56.3621 76.8308 27.1924 0.0000 0.0000 0.0000
# 3 27.1924 27.1924 28.1564 0.0000 0.0000 0.0000
# 4 0.0000 0.0000 0.0000 18.6148 0.0000 0.0000
# 5 0.0000 0.0000 0.0000 0.0000 18.6148 0.0000
# 6 0.0000 0.0000 0.0000 0.0000 0.0000 10.2344
#
#
#
# Elastic Compliance Matrix: (Units=1/GPa)
#
#
# Indices 1 2 3 4 5 6 
#
# 1 0.030626 -0.018229 -0.011972 0.000000 0.000000 0.000000
# 2 -0.018229 0.030626 -0.011972 0.000000 0.000000 0.000000
# 3 -0.011972 -0.011972 0.058640 0.000000 0.000000 0.000000
# 4 0.000000 0.000000 0.000000 0.053721 0.000000 0.000000
# 5 0.000000 0.000000 0.000000 0.000000 0.053721 0.000000
# 6 0.000000 0.000000 0.000000 0.000000 0.000000 0.097710
#
#
# Mechanical properties :
#
#
# Convention : Reuss Voigt Hill
#
# Bulk Modulus (GPa) = 28.13339 44.81245 36.47292
# Shear Modulus (GPa) = 11.86982 14.23087 13.05035
#
# Velocity S-wave (km/s) = 2.47300 2.70781 2.59307
# Velocity P-wave (km/s) = 4.75917 5.73283 5.26854
#
# Compressibility (1/GPa) = 0.03554495
#
# Stress axis : x y z
#
# Youngs Moduli (GPa) = 32.65243 32.65243 17.05330
#
# Poissons Ratio (x) = 0.59523 0.20416
# Poissons Ratio (y) = 0.59523 0.20416
# Poissons Ratio (z) = 0.39091 0.39091
#
# Static dielectric constant tensor:
#      x y z
#    x 1.684360 0.000000 0.000000 
#    y 0.000000 1.684360 0.000000 
#    z 0.000000 0.000000 1.694050 
# 
# From -- ./inp_files/7746.got.cif
#   From: 2010.05.17/outbox.ucp.g08.bks.cvg/sg191_4_cif.got.tgz:7746.got - 2010.06.11 15:22:43.
