data_PCOD9588070
_publ_section_title
;
Structure prediction by ZEFSAII (Michael W. Deem and Ramdas Pophale) SiO2 
 PCOD9588070
Probable space group: P 6/M M M
;
_chemical_formula_sum "Si O2"
_cell_formula_units_Z 60
_cell_length_a 22.798174
_cell_length_b 22.798174
_cell_length_c 7.261598
_cell_angle_alpha 90.000000
_cell_angle_beta 90.000000
_cell_angle_gamma 120.000000
_cell_volume 3268.608927
_symmetry_space_group_name_H-M "P 6/M M M"
_symmetry_group_IT_number 191
_symmetry_cell_setting 'hexagonal'
loop_
_space_group_symop_operation_xyz
x,y,z
x-y,x,z
-y,x-y,z
-x,-y,z
-x+y,-x,z
y,-x+y,z
x-y,-y,-z
-x,-x+y,-z
y,x,-z
-y,-x,-z
-x+y,y,-z
x,x-y,-z
-x,-y,-z
-x+y,-x,-z
y,-x+y,-z
x,y,-z
x-y,x,-z
-y,x-y,-z
-x+y,y,z
x,x-y,z
-y,-x,z
y,x,z
x-y,-y,z
-x,-x+y,z
loop_
_atom_site_type_symbol
_atom_site_label
_atom_site_fract_x
_atom_site_fract_y
_atom_site_fract_z
Si Si1 0.866256 0.000000 0.275192
Si Si2 0.733110 0.733110 0.722918
Si Si3 0.918320 0.528888 0.000000
Si Si4 0.593933 0.866172 0.278777
O O1 0.866446 0.933223 0.216498
O O2 0.865803 0.000000 0.500000
O O3 0.799584 0.000000 0.213785
O O4 0.733374 0.733374 0.500000
O O5 0.666494 0.736050 0.775545
O O6 0.882163 0.541697 0.173968
O O7 0.909971 0.454986 0.000000
O O8 0.000000 0.581578 0.000000
O O9 0.587060 0.867059 0.500000
O O10 0.589870 0.794935 0.231017
#
# Coordination Sequence:
#
# PCOD9588070 Si02
#       4
#    12  12  12  24
#     4   9  15  22  34  57  94 141 190 234 274 318
#     4   9  16  28  47  75 108 144 185 231 282 329
#     4  11  23  38  58  85 117 151 186 235 296 351
#     4  10  20  36  59  86 119 156 192 235 284 337
#
# _framework density 18.356432000000002
#
# number of rings (size 3 to 8) (size 9 to 14) (size 15 to 20)
#    0.000    2.200    2.000    2.000    0.000    6.400 
#    0.000    2.000    0.000    3.200    0.000    0.000 
#    0.000    0.000    0.000    8.600    0.000   25.800 
#
# Total GULP energy -334927.368645 kJ/mol
# GULP energy per Si atom -5582.122811 kJ/mol
# Density = 1.831465 g / cm^3
# Si number density = 18.356432 Si / 1000 Ang^3
#
#
#
# Elastic Constant Matrix: (Units=GPa)
#
#
# Indices 1 2 3 4 5 6 
#
# 1 148.2073 103.6738 45.9962 0.0000 0.0000 0.0000
# 2 103.6738 148.2073 45.9962 0.0000 0.0000 0.0000
# 3 45.9962 45.9962 97.6584 0.0000 0.0000 0.0000
# 4 0.0000 0.0000 0.0000 5.2531 0.0000 0.0000
# 5 0.0000 0.0000 0.0000 0.0000 5.2531 0.0000
# 6 0.0000 0.0000 0.0000 0.0000 0.0000 22.2668
#
#
#
# Elastic Compliance Matrix: (Units=1/GPa)
#
#
# Indices 1 2 3 4 5 6 
#
# 1 0.013625 -0.008830 -0.002258 0.000000 0.000000 0.000000
# 2 -0.008830 0.013625 -0.002258 0.000000 0.000000 0.000000
# 3 -0.002258 -0.002258 0.012367 0.000000 0.000000 0.000000
# 4 0.000000 0.000000 0.000000 0.190363 0.000000 0.000000
# 5 0.000000 0.000000 0.000000 0.000000 0.190363 0.000000
# 6 0.000000 0.000000 0.000000 0.000000 0.000000 0.044910
#
#
# Mechanical properties :
#
#
# Convention : Reuss Voigt Hill
#
# Bulk Modulus (GPa) = 77.37839 87.26726 82.32282
# Shear Modulus (GPa) = 10.07547 19.78172 14.92860
#
# Velocity S-wave (km/s) = 2.34536 3.28631 2.85487
# Velocity P-wave (km/s) = 7.04124 7.87676 7.47069
#
# Compressibility (1/GPa) = 0.01292350
#
# Stress axis : x y z
#
# Youngs Moduli (GPa) = 73.39468 73.39468 80.85961
#
# Poissons Ratio (x) = 0.64808 0.18261
# Poissons Ratio (y) = 0.64808 0.18261
# Poissons Ratio (z) = 0.16575 0.16575
#
# Static dielectric constant tensor:
#      x y z
#    x 1.598080 0.000000 0.000000 
#    y 0.000000 1.598080 0.000000 
#    z 0.000000 0.000000 1.705580 
# 
# From -- ./inp_files/612.got.cif
#   From: 2010.05.17/outbox.cif.g08.bks.cpg/sg191_1_cif.got.tgz:612.got - 2010.05.20 12:20:32.
