data_PCOD9588032
_publ_section_title
;
Structure prediction by ZEFSAII (Michael W. Deem and Ramdas Pophale) SiO2 
 PCOD9588032
Probable space group: P 6/M M M
;
_chemical_formula_sum "Si O2"
_cell_formula_units_Z 102
_cell_length_a 27.494971
_cell_length_b 27.494971
_cell_length_c 9.173815
_cell_angle_alpha 90.000000
_cell_angle_beta 90.000000
_cell_angle_gamma 120.000000
_cell_volume 6006.025081
_symmetry_space_group_name_H-M "P 6/M M M"
_symmetry_group_IT_number 191
_symmetry_cell_setting 'hexagonal'
loop_
_space_group_symop_operation_xyz
x,y,z
x-y,x,z
-y,x-y,z
-x,-y,z
-x+y,-x,z
y,-x+y,z
x-y,-y,-z
-x,-x+y,-z
y,x,-z
-y,-x,-z
-x+y,y,-z
x,x-y,-z
-x,-y,-z
-x+y,-x,-z
y,-x+y,-z
x,y,-z
x-y,x,-z
-y,x-y,-z
-x+y,y,z
x,x-y,z
-y,-x,z
y,x,z
x-y,-y,z
-x,-x+y,z
loop_
_atom_site_type_symbol
_atom_site_label
_atom_site_fract_x
_atom_site_fract_y
_atom_site_fract_z
Si Si1 0.441165 0.000000 0.164915
Si Si2 0.214445 0.214445 0.665170
Si Si3 0.000000 0.882589 0.500000
Si Si4 0.876494 0.381779 0.176717
Si Si5 0.430555 0.156870 0.668834
Si Si6 0.316535 0.099656 0.832358
O O1 0.459975 0.060325 0.230510
O O2 0.500000 0.000000 0.153286
O O3 0.421249 0.000000 0.000000
O O4 0.234696 0.234696 0.500000
O O5 0.156042 0.156042 0.635773
O O6 0.207538 0.261428 0.749255
O O7 0.943372 0.886743 0.500000
O O8 0.865160 0.432580 0.213120
O O9 0.837918 0.322437 0.249921
O O10 0.875821 0.378122 0.000000
O O11 0.429162 0.141280 0.500000
O O12 0.432019 0.216010 0.674231
O O13 0.373575 0.112540 0.751280
O O14 0.315960 0.157980 0.832078
O O15 0.316875 0.083008 0.000000
#
# Coordination Sequence:
#
# PCOD9588032 Si02
#       6
#    12  12   6  24  24  24
#     4   7  12  25  45  69  95 121 147 180 231 289
#     4  10  21  33  55  80 111 141 177 222 274 327
#     4  10  21  36  58  84 114 150 189 232 280 332
#     4   9  17  31  52  76 102 135 174 215 259 314
#     4  10  21  35  51  72 103 142 179 220 274 329
#     4  10  20  35  54  76 104 138 178 223 272 329
#
# _framework density 16.982945000000001
#
# number of rings (size 3 to 8) (size 9 to 14) (size 15 to 20)
#    0.353    2.235    0.000    3.941    0.000    3.765 
#    0.000    4.118    0.000    2.588    0.000    0.000 
#    0.000    5.647    0.000    0.000    0.000    0.000 
#
# Total GULP energy -567868.495464 kJ/mol
# GULP energy per Si atom -5567.338191 kJ/mol
# Density = 1.694429 g / cm^3
# Si number density = 16.982945 Si / 1000 Ang^3
#
#
#
# Elastic Constant Matrix: (Units=GPa)
#
#
# Indices 1 2 3 4 5 6 
#
# 1 80.9356 33.3115 46.5778 0.0000 0.0000 0.0000
# 2 33.3115 80.9356 46.5778 0.0000 0.0000 0.0000
# 3 46.5778 46.5778 96.9304 0.0000 0.0000 0.0000
# 4 0.0000 0.0000 0.0000 27.0778 0.0000 0.0000
# 5 0.0000 0.0000 0.0000 0.0000 27.0778 0.0000
# 6 0.0000 0.0000 0.0000 0.0000 0.0000 23.8120
#
#
#
# Elastic Compliance Matrix: (Units=1/GPa)
#
#
# Indices 1 2 3 4 5 6 
#
# 1 0.017695 -0.003303 -0.006916 0.000000 0.000000 0.000000
# 2 -0.003303 0.017695 -0.006916 0.000000 0.000000 0.000000
# 3 -0.006916 -0.006916 0.016963 0.000000 0.000000 0.000000
# 4 0.000000 0.000000 0.000000 0.036931 0.000000 0.000000
# 5 0.000000 0.000000 0.000000 0.000000 0.036931 0.000000
# 6 0.000000 0.000000 0.000000 0.000000 0.000000 0.041996
#
#
# Mechanical properties :
#
#
# Convention : Reuss Voigt Hill
#
# Bulk Modulus (GPa) = 55.29735 56.85954 56.07844
# Shear Modulus (GPa) = 23.98007 24.41582 24.19794
#
# Velocity S-wave (km/s) = 3.76175 3.79577 3.77880
# Velocity P-wave (km/s) = 7.17627 7.26385 7.22019
#
# Compressibility (1/GPa) = 0.01808405
#
# Stress axis : x y z
#
# Youngs Moduli (GPa) = 56.51354 56.51354 58.95147
#
# Poissons Ratio (x) = 0.18666 0.40769
# Poissons Ratio (y) = 0.18666 0.40769
# Poissons Ratio (z) = 0.39083 0.39083
#
# Static dielectric constant tensor:
#      x y z
#    x 1.579400 0.000000 0.000000 
#    y 0.000000 1.579400 0.000000 
#    z 0.000000 0.000000 1.575470 
# 
# From -- ./inp_files/1477.got.cif
#   From: 2010.05.17/outbox.cif.g08.bks.cpg/sg191_1_cif.got.tgz:1477.got - 2010.05.20 12:20:32.
