data_PCOD9588710
_publ_section_title
;
Structure prediction by ZEFSAII (Michael W. Deem and Ramdas Pophale) SiO2 
 PCOD9588710
Probable space group: P 6/M C C
;
_chemical_formula_sum "Si O2"
_cell_formula_units_Z 132
_cell_length_a 17.350247
_cell_length_b 17.350247
_cell_length_c 21.673677
_cell_angle_alpha 90.000000
_cell_angle_beta 90.000000
_cell_angle_gamma 120.000000
_cell_volume 5650.339618
_symmetry_space_group_name_H-M "P 6/M C C"
_symmetry_group_IT_number 192
_symmetry_cell_setting 'hexagonal'
loop_
_space_group_symop_operation_xyz
x,y,z
x-y,x,z
-y,x-y,z
-x,-y,z
-x+y,-x,z
y,-x+y,z
x-y,-y,1/2-z
-x,-x+y,1/2-z
y,x,1/2-z
-y,-x,1/2-z
-x+y,y,1/2-z
x,x-y,1/2-z
-x,-y,-z
-x+y,-x,-z
y,-x+y,-z
x,y,-z
x-y,x,-z
-y,x-y,-z
-x+y,y,1/2+z
x,x-y,1/2+z
-y,-x,1/2+z
y,x,1/2+z
x-y,-y,1/2+z
-x,-x+y,1/2+z
loop_
_atom_site_type_symbol
_atom_site_label
_atom_site_fract_x
_atom_site_fract_y
_atom_site_fract_z
Si Si1 0.152147 0.534792 0.568897
Si Si2 0.823365 0.000000 0.250000
Si Si3 0.862677 0.791972 0.927033
Si Si4 0.281903 0.323555 0.843172
Si Si5 0.411705 0.361804 0.065775
Si Si6 0.665258 0.487608 0.209505
O O1 0.191969 0.536794 0.500000
O O2 0.123989 0.610169 0.568714
O O3 0.197722 0.541005 0.635708
O O4 0.052357 0.446451 0.568493
O O5 0.832774 0.916387 0.250000
O O6 0.763932 0.994555 0.194643
O O7 0.832573 0.865390 0.912838
O O8 0.792645 0.697237 0.895812
O O9 0.853586 0.777612 0.000000
O O10 0.362104 0.315764 0.873103
O O11 0.312454 0.410897 0.801790
O O12 0.374859 0.316256 0.000000
O O13 0.575920 0.424081 0.250000
O O14 0.742617 0.485233 0.250000
#
# Coordination Sequence:
#
# PCOD9588710 Si02
#       6
#    24  12  24  24  24  24
#     4   8  16  35  64  96 130 175 230 284 353 434
#     4  12  27  46  65  90 132 188 238 288 345 432
#     4  10  21  40  69 105 146 192 240 295 363 442
#     4  11  23  39  66  98 137 176 236 295 361 435
#     4   8  15  32  61  97 131 165 216 287 354 417
#     4  11  25  45  69  98 141 188 243 306 378 440
#
# _framework density 23.361426999999999
#
# number of rings (size 3 to 8) (size 9 to 14) (size 15 to 20)
#    0.000    2.182    0.000    3.727    2.545    1.455 
#    0.000    2.727    0.000    0.000    0.000    0.000 
#    0.000    0.000    0.000    0.000    0.000    0.000 
#
# Total GULP energy -735421.282820 kJ/mol
# GULP energy per Si atom -5571.373355 kJ/mol
# Density = 2.330826 g / cm^3
# Si number density = 23.361427 Si / 1000 Ang^3
#
#
#
# Elastic Constant Matrix: (Units=GPa)
#
#
# Indices 1 2 3 4 5 6 
#
# 1 75.9596 29.3263 42.4174 0.0000 0.0000 0.0000
# 2 29.3263 75.9596 42.4174 0.0000 0.0000 0.0000
# 3 42.4174 42.4174 174.5140 0.0000 0.0000 0.0000
# 4 0.0000 0.0000 0.0000 64.7056 0.0000 0.0000
# 5 0.0000 0.0000 0.0000 0.0000 64.7056 0.0000
# 6 0.0000 0.0000 0.0000 0.0000 0.0000 23.3167
#
#
#
# Elastic Compliance Matrix: (Units=1/GPa)
#
#
# Indices 1 2 3 4 5 6 
#
# 1 0.016628 -0.004816 -0.002871 0.000000 0.000000 0.000000
# 2 -0.004816 0.016628 -0.002871 0.000000 0.000000 0.000000
# 3 -0.002871 -0.002871 0.007126 0.000000 0.000000 0.000000
# 4 0.000000 0.000000 0.000000 0.015455 0.000000 0.000000
# 5 0.000000 0.000000 0.000000 0.000000 0.015455 0.000000
# 6 0.000000 0.000000 0.000000 0.000000 0.000000 0.042888
#
#
# Mechanical properties :
#
#
# Convention : Reuss Voigt Hill
#
# Bulk Modulus (GPa) = 51.90824 61.63950 56.77387
# Shear Modulus (GPa) = 35.28198 44.69704 39.98951
#
# Velocity S-wave (km/s) = 3.89043 4.37886 4.14185
# Velocity P-wave (km/s) = 6.51525 7.21168 6.87229
#
# Compressibility (1/GPa) = 0.01926476
#
# Stress axis : x y z
#
# Youngs Moduli (GPa) = 60.14128 60.14128 140.33582
#
# Poissons Ratio (x) = 0.28966 0.40288
# Poissons Ratio (y) = 0.28966 0.40288
# Poissons Ratio (z) = 0.17265 0.17265
#
# Static dielectric constant tensor:
#      x y z
#    x 1.902820 0.000000 0.000000 
#    y 0.000000 1.902820 0.000000 
#    z 0.000000 0.000000 2.035530 
# 
# From -- ./inp_files/5807.got.cif
#   From: 2010.05.17/outbox.cif.g08.bks.cpg/sg192_3_cif.got.tgz:5807.got - 2010.05.20 12:28:01.
