data_PCOD9588643
_publ_section_title
;
Structure prediction by ZEFSAII (Michael W. Deem and Ramdas Pophale) SiO2 
 PCOD9588643
Probable space group: P 6/M C C
;
_chemical_formula_sum "Si O2"
_cell_formula_units_Z 192
_cell_length_a 29.762461
_cell_length_b 29.762461
_cell_length_c 14.714669
_cell_angle_alpha 90.000000
_cell_angle_beta 90.000000
_cell_angle_gamma 120.000000
_cell_volume 11288.046964
_symmetry_space_group_name_H-M "P 6/M C C"
_symmetry_group_IT_number 192
_symmetry_cell_setting 'hexagonal'
loop_
_space_group_symop_operation_xyz
x,y,z
x-y,x,z
-y,x-y,z
-x,-y,z
-x+y,-x,z
y,-x+y,z
x-y,-y,1/2-z
-x,-x+y,1/2-z
y,x,1/2-z
-y,-x,1/2-z
-x+y,y,1/2-z
x,x-y,1/2-z
-x,-y,-z
-x+y,-x,-z
y,-x+y,-z
x,y,-z
x-y,x,-z
-y,x-y,-z
-x+y,y,1/2+z
x,x-y,1/2+z
-y,-x,1/2+z
y,x,1/2+z
x-y,-y,1/2+z
-x,-x+y,1/2+z
loop_
_atom_site_type_symbol
_atom_site_label
_atom_site_fract_x
_atom_site_fract_y
_atom_site_fract_z
Si Si1 0.616018 0.677456 0.250000
Si Si2 0.459308 0.136043 0.603017
Si Si3 0.141945 0.283890 0.395024
Si Si4 0.769487 0.333348 0.889185
Si Si5 0.323264 0.459307 0.103016
Si Si6 0.769488 0.333349 0.389185
Si Si7 0.405704 0.202852 0.859807
Si Si8 0.061974 0.785455 0.750000
O O1 0.642380 0.642380 0.250000
O O2 0.578700 0.666634 0.164422
O O3 0.578700 0.666635 0.335578
O O4 0.663769 0.737306 0.249999
O O5 0.461723 0.120444 0.500000
O O6 0.517282 0.174336 0.638942
O O7 0.434114 0.173018 0.604859
O O8 0.133508 0.267017 0.500000
O O9 0.173216 0.346431 0.390926
O O10 0.178266 0.268114 0.337422
O O11 0.089849 0.268115 0.337421
O O12 0.825663 0.342944 0.861058
O O13 0.760742 0.380371 0.862158
O O14 0.721984 0.278015 0.858935
O O15 0.769571 0.331866 0.000000
O O16 0.261095 0.434113 0.104859
O O17 0.341279 0.461723 0.000000
O O18 0.769572 0.331866 0.500000
O O19 0.407348 0.203674 0.750000
O O20 0.000000 0.759970 0.750000
#
# Coordination Sequence:
#
# PCOD9588643 Si02
#       8
#    24  24  24  24  24  24  24  24
#     4  11  23  37  52  74 103 132 169 221 271 309
#     4  11  20  33  54  76 101 135 173 212 254 306
#     4  11  19  32  53  75 104 143 179 220 265 310
#     4   9  17  29  49  78 109 136 162 198 251 316
#     4  11  20  33  54  76 101 135 173 212 254 306
#     4   9  17  29  49  78 109 136 162 198 251 316
#     4  12  18  31  51  76 105 137 176 217 253 300
#     4  10  21  35  48  74 109 140 177 222 269 315
#
# _framework density 17.009143000000002
#
# number of rings (size 3 to 8) (size 9 to 14) (size 15 to 20)
#    0.000    1.500    6.250    1.375    0.000    2.000 
#    0.000    3.125    0.000    1.500    0.000    5.250 
#    0.000    0.000    0.000   12.000    0.000   26.000 
#
# Total GULP energy -1071847.914350 kJ/mol
# GULP energy per Si atom -5582.541221 kJ/mol
# Density = 1.697043 g / cm^3
# Si number density = 17.009143 Si / 1000 Ang^3
#
#
#
# Elastic Constant Matrix: (Units=GPa)
#
#
# Indices 1 2 3 4 5 6 
#
# 1 92.2926 37.5128 33.9999 0.0000 0.0000 0.0000
# 2 37.5128 92.2926 33.9999 0.0000 0.0000 0.0000
# 3 33.9999 33.9999 121.6501 0.0000 0.0000 0.0000
# 4 0.0000 0.0000 0.0000 13.4930 0.0000 0.0000
# 5 0.0000 0.0000 0.0000 0.0000 13.4930 0.0000
# 6 0.0000 0.0000 0.0000 0.0000 0.0000 27.3899
#
#
#
# Elastic Compliance Matrix: (Units=1/GPa)
#
#
# Indices 1 2 3 4 5 6 
#
# 1 0.013640 -0.004615 -0.002522 0.000000 0.000000 0.000000
# 2 -0.004615 0.013640 -0.002522 0.000000 0.000000 0.000000
# 3 -0.002522 -0.002522 0.009630 0.000000 0.000000 0.000000
# 4 0.000000 0.000000 0.000000 0.074112 0.000000 0.000000
# 5 0.000000 0.000000 0.000000 0.000000 0.074112 0.000000
# 6 0.000000 0.000000 0.000000 0.000000 0.000000 0.036510
#
#
# Mechanical properties :
#
#
# Convention : Reuss Voigt Hill
#
# Bulk Modulus (GPa) = 56.84738 57.47340 57.16039
# Shear Modulus (GPa) = 20.25704 24.25673 22.25688
#
# Velocity S-wave (km/s) = 3.45476 3.78047 3.62128
# Velocity P-wave (km/s) = 7.02908 7.27454 7.15287
#
# Compressibility (1/GPa) = 0.01759096
#
# Stress axis : x y z
#
# Youngs Moduli (GPa) = 73.31343 73.31343 103.83894
#
# Poissons Ratio (x) = 0.33833 0.26193
# Poissons Ratio (y) = 0.33833 0.26193
# Poissons Ratio (z) = 0.18493 0.18493
#
# Static dielectric constant tensor:
#      x y z
#    x 1.557280 0.000000 0.000000 
#    y 0.000000 1.557280 0.000000 
#    z 0.000000 0.000000 1.644310 
# 
# From -- ./inp_files/3582.got.cif
#   From: 2010.05.17/outbox.cif.g08.bks.cpg/sg192_2_cif.got.tgz:3582.got - 2010.05.20 12:28:01.
