data_PCOD9588828
_publ_section_title
;
Structure prediction by ZEFSAII (Michael W. Deem and Ramdas Pophale) SiO2 
 PCOD9588828
Probable space group: P 6/M C C
;
_chemical_formula_sum "Si O2"
_cell_formula_units_Z 108
_cell_length_a 17.156290
_cell_length_b 17.156290
_cell_length_c 19.230111
_cell_angle_alpha 90.000000
_cell_angle_beta 90.000000
_cell_angle_gamma 120.000000
_cell_volume 4901.840550
_symmetry_space_group_name_H-M "P 6/M C C"
_symmetry_group_IT_number 192
_symmetry_cell_setting 'hexagonal'
loop_
_space_group_symop_operation_xyz
x,y,z
x-y,x,z
-y,x-y,z
-x,-y,z
-x+y,-x,z
y,-x+y,z
x-y,-y,1/2-z
-x,-x+y,1/2-z
y,x,1/2-z
-y,-x,1/2-z
-x+y,y,1/2-z
x,x-y,1/2-z
-x,-y,-z
-x+y,-x,-z
y,-x+y,-z
x,y,-z
x-y,x,-z
-y,x-y,-z
-x+y,y,1/2+z
x,x-y,1/2+z
-y,-x,1/2+z
y,x,1/2+z
x-y,-y,1/2+z
-x,-x+y,1/2+z
loop_
_atom_site_type_symbol
_atom_site_label
_atom_site_fract_x
_atom_site_fract_y
_atom_site_fract_z
Si Si1 0.741354 0.741354 0.750000
Si Si2 0.437386 0.896922 0.165938
Si Si3 0.732003 0.605275 0.421046
Si Si4 0.164838 0.433733 0.315622
Si Si5 0.972037 0.168650 0.606467
O O1 0.644811 0.720152 0.720726
O O2 0.813506 0.781064 0.688657
O O3 0.446265 0.892530 0.250000
O O4 0.346411 0.875899 0.127538
O O5 0.485234 0.840203 0.147170
O O6 0.500000 0.000000 0.146613
O O7 0.722355 0.573316 0.500000
O O8 0.816266 0.616041 0.377708
O O9 0.751748 0.707791 0.423070
O O10 0.233764 0.467528 0.250000
O O11 0.068581 0.178463 0.588821
#
# Coordination Sequence:
#
# PCOD9588828 Si02
#       5
#    12  24  24  24  24
#     4  12  20  42  78 112 142 198 254 314 373 453
#     4  11  23  43  76 109 138 184 244 300 361 440
#     4  12  28  47  70 104 148 197 243 302 380 453
#     4  12  22  44  76 107 142 191 248 309 372 448
#     4  12  24  43  71 108 151 194 252 316 382 447
#
# _framework density 22.032540000000001
#
# number of rings (size 3 to 8) (size 9 to 14) (size 15 to 20)
#    0.000    0.222    6.667    3.556    0.000    2.222 
#    1.333    2.222    0.000    1.333    0.000    0.000 
#    0.000    0.000    0.000    0.000    0.000    0.000 
#
# Total GULP energy -602230.450320 kJ/mol
# GULP energy per Si atom -5576.207873 kJ/mol
# Density = 2.198239 g / cm^3
# Si number density = 22.032540 Si / 1000 Ang^3
#
#
#
# Elastic Constant Matrix: (Units=GPa)
#
#
# Indices 1 2 3 4 5 6 
#
# 1 121.9200 43.6308 36.6920 0.0000 0.0000 0.0000
# 2 43.6308 121.9200 36.6920 0.0000 0.0000 0.0000
# 3 36.6920 36.6920 134.4899 0.0000 0.0000 0.0000
# 4 0.0000 0.0000 0.0000 -49.7544 0.0000 0.0000
# 5 0.0000 0.0000 0.0000 0.0000 -49.7544 0.0000
# 6 0.0000 0.0000 0.0000 0.0000 0.0000 39.1446
#
#
#
# Elastic Compliance Matrix: (Units=1/GPa)
#
#
# Indices 1 2 3 4 5 6 
#
# 1 0.009822 -0.002951 -0.001875 0.000000 0.000000 0.000000
# 2 -0.002951 0.009822 -0.001875 0.000000 0.000000 0.000000
# 3 -0.001875 -0.001875 0.008458 0.000000 0.000000 0.000000
# 4 0.000000 0.000000 0.000000 -0.020099 0.000000 0.000000
# 5 0.000000 0.000000 0.000000 0.000000 -0.020099 0.000000
# 6 0.000000 0.000000 0.000000 0.000000 0.000000 0.025546
#
#
# Mechanical properties :
#
#
# Convention : Reuss Voigt Hill
#
# Bulk Modulus (GPa) = 68.01545 68.03993 68.02769
# Shear Modulus (GPa) = 157.46441 5.34817 81.40629
#
# Velocity S-wave (km/s) = 8.46311 1.55970 6.08510
# Velocity P-wave (km/s) = 11.24439 5.84741 8.96182
#
# Compressibility (1/GPa) = 0.01470254
#
# Stress axis : x y z
#
# Youngs Moduli (GPa) = 101.80913 101.80913 118.22540
#
# Poissons Ratio (x) = 0.30042 0.22164
# Poissons Ratio (y) = 0.30042 0.22164
# Poissons Ratio (z) = 0.19086 0.19086
#
# Static dielectric constant tensor:
#      x y z
#    x 1.993610 0.000000 0.000000 
#    y 0.000000 1.993610 0.000000 
#    z 0.000000 0.000000 1.839750 
# 
# From -- ./inp_files/4855.got.cif
#   From: 2010.05.17/outbox.cif.g08.bks.cpg/sg192_3_cif.got.tgz:4855.got - 2010.05.20 12:28:01.
