data_PCOD9588733
_publ_section_title
;
Structure prediction by ZEFSAII (Michael W. Deem and Ramdas Pophale) SiO2 
 PCOD9588733
Probable space group: P 6/M C C
;
_chemical_formula_sum "Si O2"
_cell_formula_units_Z 104
_cell_length_a 21.465454
_cell_length_b 21.465454
_cell_length_c 14.371727
_cell_angle_alpha 90.000000
_cell_angle_beta 90.000000
_cell_angle_gamma 120.000000
_cell_volume 5734.819421
_symmetry_space_group_name_H-M "P 6/M C C"
_symmetry_group_IT_number 192
_symmetry_cell_setting 'hexagonal'
loop_
_space_group_symop_operation_xyz
x,y,z
x-y,x,z
-y,x-y,z
-x,-y,z
-x+y,-x,z
y,-x+y,z
x-y,-y,1/2-z
-x,-x+y,1/2-z
y,x,1/2-z
-y,-x,1/2-z
-x+y,y,1/2-z
x,x-y,1/2-z
-x,-y,-z
-x+y,-x,-z
y,-x+y,-z
x,y,-z
x-y,x,-z
-y,x-y,-z
-x+y,y,1/2+z
x,x-y,1/2+z
-y,-x,1/2+z
y,x,1/2+z
x-y,-y,1/2+z
-x,-x+y,1/2+z
loop_
_atom_site_type_symbol
_atom_site_label
_atom_site_fract_x
_atom_site_fract_y
_atom_site_fract_z
Si Si1 0.087604 0.918344 0.361202
Si Si2 0.577806 0.007832 0.360133
Si Si3 0.410570 0.097042 0.500000
Si Si4 0.666667 0.333334 0.639223
Si Si5 0.878973 0.314117 0.000000
Si Si6 0.542283 0.287999 0.000000
Si Si7 0.700182 0.846183 0.500000
O O1 0.089570 0.910431 0.250000
O O2 0.129171 0.883673 0.412845
O O3 0.002886 0.877246 0.385725
O O4 0.638924 0.080221 0.409164
O O5 0.500000 0.000000 0.380548
O O6 0.581929 0.000000 0.250000
O O7 0.587782 0.947149 0.411376
O O8 0.483246 0.172114 0.500000
O O9 0.344260 0.111554 0.500000
O O10 0.666668 0.333334 0.750000
O O11 0.682941 0.407831 0.591175
O O12 0.797961 0.297738 0.000000
O O13 0.879097 0.238572 0.000000
#
# Coordination Sequence:
#
# PCOD9588733 Si02
#       7
#    24  24  12   8  12  12  12
#     4  10  22  39  61  87 119 158 209 262 305 354
#     4  10  23  39  64  91 115 156 201 242 285 347
#     4  10  22  41  60  85 124 155 192 239 298 353
#     4  10  23  37  61  92 115 151 194 238 292 344
#     4  10  22  41  60  85 124 155 192 239 298 353
#     4   9  22  40  60  84 119 155 187 243 290 348
#     4  11  24  38  59  90 119 162 194 237 310 369
#
# _framework density 18.134834999999999
#
# number of rings (size 3 to 8) (size 9 to 14) (size 15 to 20)
#    0.000    2.077    0.000    2.308   12.923    4.615 
#    0.000    5.769    0.000    0.000    0.000    0.000 
#    0.000    0.000    0.000    0.000    0.000    0.000 
#
# Total GULP energy -580499.721250 kJ/mol
# GULP energy per Si atom -5581.728089 kJ/mol
# Density = 1.809356 g / cm^3
# Si number density = 18.134835 Si / 1000 Ang^3
#
#
#
# Elastic Constant Matrix: (Units=GPa)
#
#
# Indices 1 2 3 4 5 6 
#
# 1 52.9624 22.7910 17.6177 0.0001 -0.0006 -0.0008
# 2 22.7910 52.9577 17.6163 0.0000 -0.0006 -0.0007
# 3 17.6177 17.6163 119.4122 -0.0005 -0.0004 -0.0005
# 4 0.0001 0.0000 -0.0005 8.3433 0.0001 0.0000
# 5 -0.0006 -0.0006 -0.0004 0.0001 8.3436 0.0000
# 6 -0.0008 -0.0007 -0.0005 0.0000 0.0000 15.0845
#
#
#
# Elastic Compliance Matrix: (Units=1/GPa)
#
#
# Indices 1 2 3 4 5 6 
#
# 1 0.023659 -0.009486 -0.002091 0.000000 0.000001 0.000001
# 2 -0.009486 0.023661 -0.002091 0.000000 0.000001 0.000001
# 3 -0.002091 -0.002091 0.008991 0.000000 0.000000 0.000000
# 4 0.000000 0.000000 0.000000 0.119857 -0.000002 0.000000
# 5 0.000001 0.000001 0.000000 -0.000002 0.119853 0.000000
# 6 0.000001 0.000001 0.000000 0.000000 0.000000 0.066293
#
#
# Mechanical properties :
#
#
# Convention : Reuss Voigt Hill
#
# Bulk Modulus (GPa) = 34.51302 37.93138 36.22220
# Shear Modulus (GPa) = 12.52160 17.50808 15.01484
#
# Velocity S-wave (km/s) = 2.63053 3.11052 2.88054
# Velocity P-wave (km/s) = 5.31967 5.81912 5.57499
#
# Compressibility (1/GPa) = 0.02897457
#
# Stress axis : x y z
#
# Youngs Moduli (GPa) = 42.26690 42.26333 111.21805
#
# Poissons Ratio (x) = 0.40093 0.23257
# Poissons Ratio (y) = 0.40096 0.23256
# Poissons Ratio (z) = 0.08838 0.08837
#
# Static dielectric constant tensor:
#      x y z
#    x 1.616540 0.000000 0.000000 
#    y 0.000000 1.616540 0.000000 
#    z 0.000000 0.000000 1.603040 
# 
# From -- ./inp_files/2976.got.cif
#   From: 2010.05.17/outbox.cif.g08.bks.cpg/sg192_2_cif.got.tgz:2976.got - 2010.05.20 12:28:01.
