data_PCOD9588525
_publ_section_title
;
Structure prediction by ZEFSAII (Michael W. Deem and Ramdas Pophale) SiO2 
 PCOD9588525
Probable space group: P 6/M C C
;
_chemical_formula_sum "Si O2"
_cell_formula_units_Z 120
_cell_length_a 15.043257
_cell_length_b 15.043257
_cell_length_c 28.160297
_cell_angle_alpha 90.000000
_cell_angle_beta 90.000000
_cell_angle_gamma 120.000000
_cell_volume 5518.888409
_symmetry_space_group_name_H-M "P 6/M C C"
_symmetry_group_IT_number 192
_symmetry_cell_setting 'hexagonal'
loop_
_space_group_symop_operation_xyz
x,y,z
x-y,x,z
-y,x-y,z
-x,-y,z
-x+y,-x,z
y,-x+y,z
x-y,-y,1/2-z
-x,-x+y,1/2-z
y,x,1/2-z
-y,-x,1/2-z
-x+y,y,1/2-z
x,x-y,1/2-z
-x,-y,-z
-x+y,-x,-z
y,-x+y,-z
x,y,-z
x-y,x,-z
-y,x-y,-z
-x+y,y,1/2+z
x,x-y,1/2+z
-y,-x,1/2+z
y,x,1/2+z
x-y,-y,1/2+z
-x,-x+y,1/2+z
loop_
_atom_site_type_symbol
_atom_site_label
_atom_site_fract_x
_atom_site_fract_y
_atom_site_fract_z
Si Si1 0.514800 0.886500 0.947493
Si Si2 0.228175 0.147287 0.943317
Si Si3 0.832764 0.534528 0.922875
Si Si4 0.204832 0.993859 0.692738
Si Si5 0.392663 0.409072 0.648629
O O1 0.407045 0.883975 0.949100
O O2 0.485526 0.770286 0.936285
O O3 0.575608 0.950196 0.900895
O O4 0.565385 0.914653 0.000000
O O5 0.158319 0.192213 0.924640
O O6 0.346653 0.224875 0.934877
O O7 0.214609 0.137748 0.000000
O O8 0.864861 0.535559 0.868346
O O9 0.306169 0.991027 0.675982
O O10 0.099573 0.891429 0.677642
O O11 0.207745 0.000000 0.750000
O O12 0.500000 0.500000 0.669754
#
# Coordination Sequence:
#
# PCOD9588525 Si02
#       5
#    24  24  24  24  24
#     4  11  22  35  54  80 113 160 216 267 313 360
#     4  10  20  34  52  74 102 140 187 241 302 366
#     4  11  22  36  54  78 113 155 208 264 312 357
#     4  10  21  41  71 104 134 164 203 256 319 387
#     4  10  23  39  58  87 124 167 212 257 312 378
#
# _framework density 21.743509
#
# number of rings (size 3 to 8) (size 9 to 14) (size 15 to 20)
#    0.000    1.600    0.000    5.000    0.000    8.800 
#    0.000    0.000    0.000    3.200    0.000    0.000 
#    0.000    1.600    0.000    0.000    0.000    0.000 
#
# Total GULP energy -670288.277201 kJ/mol
# GULP energy per Si atom -5585.735643 kJ/mol
# Density = 2.169402 g / cm^3
# Si number density = 21.743509 Si / 1000 Ang^3
#
#
#
# Elastic Constant Matrix: (Units=GPa)
#
#
# Indices 1 2 3 4 5 6 
#
# 1 143.7638 70.6808 32.3324 0.0000 0.0000 0.0000
# 2 70.6808 143.7638 32.3324 0.0000 0.0000 0.0000
# 3 32.3324 32.3324 55.0800 0.0000 0.0000 0.0000
# 4 0.0000 0.0000 0.0000 25.9565 0.0000 0.0000
# 5 0.0000 0.0000 0.0000 0.0000 25.9565 0.0000
# 6 0.0000 0.0000 0.0000 0.0000 0.0000 36.5415
#
#
#
# Elastic Compliance Matrix: (Units=1/GPa)
#
#
# Indices 1 2 3 4 5 6 
#
# 1 0.009675 -0.004008 -0.003326 0.000000 0.000000 0.000000
# 2 -0.004008 0.009675 -0.003326 0.000000 0.000000 0.000000
# 3 -0.003326 -0.003326 0.022060 0.000000 0.000000 0.000000
# 4 0.000000 0.000000 0.000000 0.038526 0.000000 0.000000
# 5 0.000000 0.000000 0.000000 0.000000 0.038526 0.000000
# 6 0.000000 0.000000 0.000000 0.000000 0.000000 0.027366
#
#
# Mechanical properties :
#
#
# Convention : Reuss Voigt Hill
#
# Bulk Modulus (GPa) = 49.78025 68.14432 58.96229
# Shear Modulus (GPa) = 28.76123 31.50835 30.13479
#
# Velocity S-wave (km/s) = 3.64091 3.81082 3.72683
# Velocity P-wave (km/s) = 6.37330 7.12540 6.75982
#
# Compressibility (1/GPa) = 0.02008829
#
# Stress axis : x y z
#
# Youngs Moduli (GPa) = 103.36319 103.36319 45.33033
#
# Poissons Ratio (x) = 0.41433 0.15077
# Poissons Ratio (y) = 0.41433 0.15077
# Poissons Ratio (z) = 0.34379 0.34379
#
# Static dielectric constant tensor:
#      x y z
#    x 1.838430 0.000000 0.000000 
#    y 0.000000 1.838430 0.000000 
#    z 0.000000 0.000000 1.821460 
# 
# From -- ./inp_files/6957.got.cif
#   From: 2010.05.17/outbox.cif.g08.bks.cpg/sg192_4_cif.got.tgz:6957.got - 2010.05.20 12:28:01.
