data_PCOD9588079
_publ_section_title
;
Structure prediction by ZEFSAII (Michael W. Deem and Ramdas Pophale) SiO2 
 PCOD9588079
Probable space group: P 6/M M M
;
_chemical_formula_sum "Si O2"
_cell_formula_units_Z 138
_cell_length_a 31.217173
_cell_length_b 31.217173
_cell_length_c 9.240461
_cell_angle_alpha 90.000000
_cell_angle_beta 90.000000
_cell_angle_gamma 120.000000
_cell_volume 7798.506033
_symmetry_space_group_name_H-M "P 6/M M M"
_symmetry_group_IT_number 191
_symmetry_cell_setting 'hexagonal'
loop_
_space_group_symop_operation_xyz
x,y,z
x-y,x,z
-y,x-y,z
-x,-y,z
-x+y,-x,z
y,-x+y,z
x-y,-y,-z
-x,-x+y,-z
y,x,-z
-y,-x,-z
-x+y,y,-z
x,x-y,-z
-x,-y,-z
-x+y,-x,-z
y,-x+y,-z
x,y,-z
x-y,x,-z
-y,x-y,-z
-x+y,y,z
x,x-y,z
-y,-x,z
y,x,z
x-y,-y,z
-x,-x+y,z
loop_
_atom_site_type_symbol
_atom_site_label
_atom_site_fract_x
_atom_site_fract_y
_atom_site_fract_z
Si Si1 0.528390 0.672178 0.672271
Si Si2 0.522236 0.942226 0.169177
Si Si3 0.333407 0.767853 0.828017
Si Si4 0.210907 0.942618 0.826995
Si Si5 0.881841 0.940921 0.500000
Si Si6 0.107956 0.215912 0.663632
Si Si7 0.759365 0.138092 0.169808
O O1 0.527263 0.673383 0.500000
O O2 0.529092 0.623869 0.729459
O O3 0.479941 0.670500 0.738830
O O4 0.576689 0.719637 0.735186
O O5 0.467722 0.935443 0.186771
O O6 0.560730 0.000000 0.196543
O O7 0.527086 0.931939 0.000000
O O8 0.383846 0.767692 0.794958
O O9 0.285769 0.714232 0.801285
O O10 0.333945 0.778414 0.000000
O O11 0.159237 0.923968 0.746334
O O12 0.233603 0.907912 0.787869
O O13 0.247773 0.000000 0.795543
O O14 0.201710 0.936903 0.000000
O O15 0.914629 0.914629 0.500000
O O16 0.843132 0.921566 0.635017
O O17 0.118529 0.237058 0.500000
O O18 0.812475 0.187526 0.181950
O O19 0.744544 0.132467 0.000000
#
# Coordination Sequence:
#
# PCOD9588079 Si02
#       7
#    24  24  24  24   6  12  24
#     4  12  25  37  54  84 121 154 190 230 287 354
#     4   9  19  38  63  86 108 142 190 238 282 333
#     4  10  21  39  63  88 113 147 194 247 296 347
#     4  10  20  37  62  89 115 146 192 248 298 346
#     4  10  21  36  56  84 122 166 208 244 284 344
#     4  10  21  34  56  84 122 153 193 236 291 354
#     4  10  21  39  59  80 109 149 196 238 281 337
#
# _framework density 17.695696999999999
#
# number of rings (size 3 to 8) (size 9 to 14) (size 15 to 20)
#    0.261    1.565    0.870    4.130    0.000    8.000 
#    0.000    2.609    0.000    1.043    0.000    0.000 
#    0.000    4.174    0.000    0.000    0.000    0.000 
#
# Total GULP energy -770682.937892 kJ/mol
# GULP energy per Si atom -5584.658970 kJ/mol
# Density = 1.765542 g / cm^3
# Si number density = 17.695697 Si / 1000 Ang^3
#
#
#
# Elastic Constant Matrix: (Units=GPa)
#
#
# Indices 1 2 3 4 5 6 
#
# 1 140.5756 104.7910 86.7336 0.0000 0.0000 0.0000
# 2 104.7910 140.5756 86.7336 0.0000 0.0000 0.0000
# 3 86.7336 86.7336 86.0325 0.0000 0.0000 0.0000
# 4 0.0000 0.0000 0.0000 8.5725 0.0000 0.0000
# 5 0.0000 0.0000 0.0000 0.0000 8.5725 0.0000
# 6 0.0000 0.0000 0.0000 0.0000 0.0000 17.8923
#
#
#
# Elastic Compliance Matrix: (Units=1/GPa)
#
#
# Indices 1 2 3 4 5 6 
#
# 1 0.021066 -0.006879 -0.014303 0.000000 0.000000 0.000000
# 2 -0.006879 0.021066 -0.014303 0.000000 0.000000 0.000000
# 3 -0.014303 -0.014303 0.040462 0.000000 0.000000 0.000000
# 4 0.000000 0.000000 0.000000 0.116652 0.000000 0.000000
# 5 0.000000 0.000000 0.000000 0.000000 0.116652 0.000000
# 6 0.000000 0.000000 0.000000 0.000000 0.000000 0.055890
#
#
# Mechanical properties :
#
#
# Convention : Reuss Voigt Hill
#
# Bulk Modulus (GPa) = 86.01859 102.63333 94.32596
# Shear Modulus (GPa) = 11.19488 12.93583 12.06536
#
# Velocity S-wave (km/s) = 2.51795 2.70666 2.61401
# Velocity P-wave (km/s) = 7.56101 8.23972 7.90765
#
# Compressibility (1/GPa) = 0.01162539
#
# Stress axis : x y z
#
# Youngs Moduli (GPa) = 47.46962 47.46962 24.71440
#
# Poissons Ratio (x) = 0.32654 0.35349
# Poissons Ratio (y) = 0.32654 0.35349
# Poissons Ratio (z) = 0.67895 0.67895
#
# Static dielectric constant tensor:
#      x y z
#    x 1.585420 0.000000 0.000000 
#    y 0.000000 1.585420 0.000000 
#    z 0.000000 0.000000 1.587140 
# 
# From -- ./inp_files/2031.got.cif
#   From: 2010.05.17/outbox.cif.g08.bks.cpg/sg191_2_cif.got.tgz:2031.got - 2010.05.20 12:20:32.
