data_PCOD9588747
_publ_section_title
;
Structure prediction by ZEFSAII (Michael W. Deem and Ramdas Pophale) SiO2 
 PCOD9588747
Probable space group: P 6/M C C
;
_chemical_formula_sum "Si O2"
_cell_formula_units_Z 84
_cell_length_a 17.080359
_cell_length_b 17.080359
_cell_length_c 14.535382
_cell_angle_alpha 90.000000
_cell_angle_beta 90.000000
_cell_angle_gamma 120.000000
_cell_volume 3672.409234
_symmetry_space_group_name_H-M "P 6/M C C"
_symmetry_group_IT_number 192
_symmetry_cell_setting 'hexagonal'
loop_
_space_group_symop_operation_xyz
x,y,z
x-y,x,z
-y,x-y,z
-x,-y,z
-x+y,-x,z
y,-x+y,z
x-y,-y,1/2-z
-x,-x+y,1/2-z
y,x,1/2-z
-y,-x,1/2-z
-x+y,y,1/2-z
x,x-y,1/2-z
-x,-y,-z
-x+y,-x,-z
y,-x+y,-z
x,y,-z
x-y,x,-z
-y,x-y,-z
-x+y,y,1/2+z
x,x-y,1/2+z
-y,-x,1/2+z
y,x,1/2+z
x-y,-y,1/2+z
-x,-x+y,1/2+z
loop_
_atom_site_type_symbol
_atom_site_label
_atom_site_fract_x
_atom_site_fract_y
_atom_site_fract_z
Si Si1 0.605048 0.962003 0.000000
Si Si2 0.336842 0.514028 0.302794
Si Si3 0.043312 0.738270 0.658887
Si Si4 0.550611 0.399994 0.000000
Si Si5 0.131803 0.919178 0.000000
O O1 0.661248 0.969490 0.908902
O O2 0.504975 0.878417 0.000000
O O3 0.600604 0.055024 0.000000
O O4 0.432317 0.567684 0.250000
O O5 0.266115 0.532229 0.250000
O O6 0.298748 0.407249 0.307626
O O7 0.351896 0.550333 0.406638
O O8 0.095191 0.823320 0.591331
O O9 0.000000 0.753184 0.750000
O O10 0.025167 0.860534 0.000000
#
# Coordination Sequence:
#
# PCOD9588747 Si02
#       5
#    12  24  24  12  12
#     4   8  16  35  61  92 132 171 227 279 350 401
#     4  11  24  40  63  99 146 195 247 288 358 419
#     4  10  22  41  70 105 136 179 238 300 358 426
#     4   9  18  36  57  88 129 181 228 292 336 404
#     4  11  27  49  76 105 143 184 237 297 385 466
#
# _framework density 22.873269000000001
#
# number of rings (size 3 to 8) (size 9 to 14) (size 15 to 20)
#    0.000    2.000    0.000    3.000    4.000    4.000 
#    0.000    0.000    0.000    1.714    0.000    0.000 
#    0.000    0.000    0.000    0.000    0.000    0.000 
#
# Total GULP energy -470288.402543 kJ/mol
# GULP energy per Si atom -5598.671459 kJ/mol
# Density = 2.282121 g / cm^3
# Si number density = 22.873269 Si / 1000 Ang^3
#
#
#
# Elastic Constant Matrix: (Units=GPa)
#
#
# Indices 1 2 3 4 5 6 
#
# 1 93.1841 42.2746 38.3277 0.0000 0.0000 0.0000
# 2 42.2746 93.1841 38.3277 0.0000 0.0000 0.0000
# 3 38.3277 38.3277 182.5414 0.0000 0.0000 0.0000
# 4 0.0000 0.0000 0.0000 14.3817 0.0000 0.0000
# 5 0.0000 0.0000 0.0000 0.0000 14.3817 0.0000
# 6 0.0000 0.0000 0.0000 0.0000 0.0000 25.4548
#
#
#
# Elastic Compliance Matrix: (Units=1/GPa)
#
#
# Indices 1 2 3 4 5 6 
#
# 1 0.014010 -0.005632 -0.001759 0.000000 0.000000 0.000000
# 2 -0.005632 0.014010 -0.001759 0.000000 0.000000 0.000000
# 3 -0.001759 -0.001759 0.006217 0.000000 0.000000 0.000000
# 4 0.000000 0.000000 0.000000 0.069533 0.000000 0.000000
# 5 0.000000 0.000000 0.000000 0.000000 0.069533 0.000000
# 6 0.000000 0.000000 0.000000 0.000000 0.000000 0.039285
#
#
# Mechanical properties :
#
#
# Convention : Reuss Voigt Hill
#
# Bulk Modulus (GPa) = 62.75024 67.41888 65.08456
# Shear Modulus (GPa) = 21.16832 27.50892 24.33862
#
# Velocity S-wave (km/s) = 3.04544 3.47171 3.26554
# Velocity P-wave (km/s) = 6.31345 6.75347 6.53716
#
# Compressibility (1/GPa) = 0.01593619
#
# Stress axis : x y z
#
# Youngs Moduli (GPa) = 71.37642 71.37642 160.85194
#
# Poissons Ratio (x) = 0.40203 0.28295
# Poissons Ratio (y) = 0.40203 0.28295
# Poissons Ratio (z) = 0.12556 0.12556
#
# Static dielectric constant tensor:
#      x y z
#    x 1.864690 0.000000 0.000000 
#    y 0.000000 1.864690 0.000000 
#    z 0.000000 0.000000 1.839090 
# 
# From -- ./inp_files/2610.got.cif
#   From: 2010.05.17/outbox.cif.g08.bks.cpg/sg192_2_cif.got.tgz:2610.got - 2010.05.20 12:28:01.
