data_PCOD9588847
_publ_section_title
;
Structure prediction by ZEFSAII (Michael W. Deem and Ramdas Pophale) SiO2 
 PCOD9588847
Probable space group: P 6/M C C
;
_chemical_formula_sum "Si O2"
_cell_formula_units_Z 44
_cell_length_a 12.860911
_cell_length_b 12.860911
_cell_length_c 14.185491
_cell_angle_alpha 90.000000
_cell_angle_beta 90.000000
_cell_angle_gamma 120.000000
_cell_volume 2031.975513
_symmetry_space_group_name_H-M "P 6/M C C"
_symmetry_group_IT_number 192
_symmetry_cell_setting 'hexagonal'
loop_
_space_group_symop_operation_xyz
x,y,z
x-y,x,z
-y,x-y,z
-x,-y,z
-x+y,-x,z
y,-x+y,z
x-y,-y,1/2-z
-x,-x+y,1/2-z
y,x,1/2-z
-y,-x,1/2-z
-x+y,y,1/2-z
x,x-y,1/2-z
-x,-y,-z
-x+y,-x,-z
y,-x+y,-z
x,y,-z
x-y,x,-z
-y,x-y,-z
-x+y,y,1/2+z
x,x-y,1/2+z
-y,-x,1/2+z
y,x,1/2+z
x-y,-y,1/2+z
-x,-x+y,1/2+z
loop_
_atom_site_type_symbol
_atom_site_label
_atom_site_fract_x
_atom_site_fract_y
_atom_site_fract_z
Si Si1 0.218335 0.948720 0.500000
Si Si2 0.571759 0.686193 0.313568
Si Si3 0.333335 0.666668 0.613000
O O1 0.279201 0.930610 0.407474
O O2 0.079680 0.846139 0.500000
O O3 0.603742 0.603742 0.250000
O O4 0.604873 0.802437 0.250000
O O5 0.435560 0.639614 0.348851
O O6 0.333334 0.666668 0.500000
#
# Coordination Sequence:
#
# PCOD9588847 Si02
#       3
#    12  24   8
#     4  12  25  48  78 116 156 207 271 330 384 465
#     4  12  26  49  78 112 158 204 261 324 396 464
#     4  12  28  50  79 121 155 202 268 326 391 475
#
# _framework density 21.653803
#
# number of rings (size 3 to 8) (size 9 to 14) (size 15 to 20)
#    0.000    0.000    8.182    1.909    0.000    4.364 
#    0.000    5.455    0.000    0.000    0.000    0.000 
#    0.000    0.000    0.000    0.000    0.000    0.000 
#
# Total GULP energy -246557.176085 kJ/mol
# GULP energy per Si atom -5603.572184 kJ/mol
# Density = 2.160452 g / cm^3
# Si number density = 21.653803 Si / 1000 Ang^3
#
#
#
# Elastic Constant Matrix: (Units=GPa)
#
#
# Indices 1 2 3 4 5 6 
#
# 1 165.7021 112.5517 99.0866 -0.0002 0.0002 -0.0003
# 2 112.5517 165.7009 99.0871 -0.0003 0.0002 -0.0007
# 3 99.0866 99.0871 243.7898 0.0004 -0.0010 -0.0002
# 4 -0.0002 -0.0003 0.0004 -21.6943 -0.0009 0.0000
# 5 0.0002 0.0002 -0.0010 -0.0009 -21.6919 0.0000
# 6 -0.0003 -0.0007 -0.0002 0.0000 0.0000 26.5747
#
#
#
# Elastic Compliance Matrix: (Units=1/GPa)
#
#
# Indices 1 2 3 4 5 6 
#
# 1 0.011936 -0.006878 -0.002056 0.000000 0.000000 0.000000
# 2 -0.006878 0.011936 -0.002056 0.000000 0.000000 0.000000
# 3 -0.002056 -0.002056 0.005773 0.000000 0.000000 0.000000
# 4 0.000000 0.000000 0.000000 -0.046095 0.000002 0.000000
# 5 0.000000 0.000000 0.000000 0.000002 -0.046100 0.000000
# 6 0.000000 0.000000 0.000000 0.000000 0.000000 0.037630
#
#
# Mechanical properties :
#
#
# Convention : Reuss Voigt Hill
#
# Bulk Modulus (GPa) = 130.44870 132.96041 131.70456
# Shear Modulus (GPa) = -13002.43299 14.26887 -6494.08206
#
# Velocity S-wave (km/s) = -77.57399 2.56980 -54.82299
# Velocity P-wave (km/s) = 89.23709 8.38697 62.82084
#
# Compressibility (1/GPa) = 0.00766585
#
# Stress axis : x y z
#
# Youngs Moduli (GPa) = 83.77803 83.77702 173.21953
#
# Poissons Ratio (x) = 0.57625 0.35610
# Poissons Ratio (y) = 0.57626 0.35611
# Poissons Ratio (z) = 0.17223 0.17223
#
# Static dielectric constant tensor:
#      x y z
#    x 1.773830 0.000000 0.000000 
#    y 0.000000 1.773830 0.000000 
#    z 0.000000 0.000000 1.752710 
# 
# From -- ./inp_files/2126.got.cif
#   From: 2010.05.17/outbox.cif.g08.bks.cpg/sg192_2_cif.got.tgz:2126.got - 2010.05.20 12:28:01.
