data_PCOD9588267
_publ_section_title
;
Structure prediction by ZEFSAII (Michael W. Deem and Ramdas Pophale) SiO2 
 PCOD9588267
Probable space group: P 6/M M M
;
_chemical_formula_sum "Si O2"
_cell_formula_units_Z 120
_cell_length_a 27.000000
_cell_length_b 27.000000
_cell_length_c 12.000000
_cell_angle_alpha 90.000000
_cell_angle_beta 90.000000
_cell_angle_gamma 120.000000
_cell_volume 7575.990232
_symmetry_space_group_name_H-M "P 6/M M M"
_symmetry_group_IT_number 191
_symmetry_cell_setting 'hexagonal'
loop_
_space_group_symop_operation_xyz
x,y,z
x-y,x,z
-y,x-y,z
-x,-y,z
-x+y,-x,z
y,-x+y,z
x-y,-y,-z
-x,-x+y,-z
y,x,-z
-y,-x,-z
-x+y,y,-z
x,x-y,-z
-x,-y,-z
-x+y,-x,-z
y,-x+y,-z
x,y,-z
x-y,x,-z
-y,x-y,-z
-x+y,y,z
x,x-y,z
-y,-x,z
y,x,z
x-y,-y,z
-x,-x+y,z
loop_
_atom_site_type_symbol
_atom_site_label
_atom_site_fract_x
_atom_site_fract_y
_atom_site_fract_z
Si Si1 0.659880 0.523564 0.296290
Si Si2 0.932636 0.466318 0.629545
Si Si3 0.365636 0.239559 0.633883
Si Si4 0.554399 0.220856 0.866743
Si Si5 0.548774 0.332372 0.500000
Si Si6 0.937161 0.172069 0.364169
O O1 0.593989 0.502860 0.311365
O O2 0.700693 0.589969 0.314944
O O3 0.672235 0.502854 0.181025
O O4 0.672658 0.489305 0.392616
O O5 0.913202 0.456601 0.500000
O O6 0.000000 0.500000 0.629441
O O7 0.368689 0.244976 0.500000
O O8 0.381732 0.190866 0.662413
O O9 0.300350 0.215051 0.667156
O O10 0.607408 0.214815 0.824362
O O11 0.561843 0.280922 0.829386
O O12 0.555300 0.220798 0.000000
O O13 0.607594 0.392407 0.500000
O O14 0.561003 0.280502 0.500000
O O15 0.937566 0.171765 0.500000
O O16 0.890550 0.109451 0.327063
O O17 0.000000 0.193555 0.323142
#
# Coordination Sequence:
#
# PCOD9588267 Si02
#       6
#    24  12  24  24  12  24
#     4  12  19  33  47  65  90 118 152 190 236 284
#     4  11  22  36  49  65  91 121 154 189 237 297
#     4   9  16  25  40  61  83 110 140 180 228 279
#     4  10  20  33  50  69  92 121 155 193 234 283
#     4  12  21  30  44  66  92 120 145 184 235 295
#     4   8  14  24  38  58  85 115 148 181 218 260
#
# _framework density 15.839513999999999
#
# number of rings (size 3 to 8) (size 9 to 14) (size 15 to 20)
#    0.000    1.900    4.000    3.300    0.000    1.600 
#    0.000    4.000    0.000    1.400    0.000    1.400 
#    0.000    0.000    0.000    0.000    0.000    0.200 
#
# Total GULP energy -668703.490218 kJ/mol
# GULP energy per Si atom -5572.529085 kJ/mol
# Density = 1.580346 g / cm^3
# Si number density = 15.839514 Si / 1000 Ang^3
#
#
#
# Elastic Constant Matrix: (Units=GPa)
#
#
# Indices 1 2 3 4 5 6 
#
# 1 55.5633 102.4321 7.8806 0.0000 0.0000 0.0000
# 2 102.4321 55.5633 7.8806 0.0000 0.0000 0.0000
# 3 7.8806 7.8806 10.0055 0.0000 0.0000 0.0000
# 4 0.0000 0.0000 0.0000 6.6427 0.0000 0.0000
# 5 0.0000 0.0000 0.0000 0.0000 6.6427 0.0000
# 6 0.0000 0.0000 0.0000 0.0000 0.0000 -23.4344
#
#
#
# Elastic Compliance Matrix: (Units=1/GPa)
#
#
# Indices 1 2 3 4 5 6 
#
# 1 -0.007234 0.014103 -0.005410 0.000000 0.000000 0.000000
# 2 0.014103 -0.007234 -0.005410 0.000000 0.000000 0.000000
# 3 -0.005410 -0.005410 0.108468 0.000000 0.000000 0.000000
# 4 0.000000 0.000000 0.000000 0.150541 0.000000 0.000000
# 5 0.000000 0.000000 0.000000 0.000000 0.150541 0.000000
# 6 0.000000 0.000000 0.000000 0.000000 0.000000 -0.042672
#
#
# Mechanical properties :
#
#
# Convention : Reuss Voigt Hill
#
# Bulk Modulus (GPa) = 9.94383 39.72429 24.83406
# Shear Modulus (GPa) = 13.17985 -1.83387 5.67299
#
# Velocity S-wave (km/s) = 2.88772 -1.07717 1.89455
# Velocity P-wave (km/s) = 4.17254 4.85661 4.52751
#
# Compressibility (1/GPa) = 0.10056490
#
# Stress axis : x y z
#
# Youngs Moduli (GPa) = -138.24414 -138.24414 9.21933
#
# Poissons Ratio (x) = 1.94960 0.04988
# Poissons Ratio (y) = 1.94960 0.04988
# Poissons Ratio (z) = -0.74793 -0.74793
#
# Static dielectric constant tensor:
#      x y z
#    x 1.533360 0.000000 0.000000 
#    y 0.000000 1.533360 0.000000 
#    z 0.000000 0.000000 1.515330 
# 
# From -- ./inp_files/3259.got.cif
#   From: 2010.05.17/outbox.ucp.g08.bks.cvg/sg191_2_cif.got.tgz:3259.got - 2010.06.11 15:22:43.
