data_PCOD9588844
_publ_section_title
;
Structure prediction by ZEFSAII (Michael W. Deem and Ramdas Pophale) SiO2 
 PCOD9588844
Probable space group: P 6/M C C
;
_chemical_formula_sum "Si O2"
_cell_formula_units_Z 116
_cell_length_a 21.663749
_cell_length_b 21.663749
_cell_length_c 14.410696
_cell_angle_alpha 90.000000
_cell_angle_beta 90.000000
_cell_angle_gamma 120.000000
_cell_volume 5857.102426
_symmetry_space_group_name_H-M "P 6/M C C"
_symmetry_group_IT_number 192
_symmetry_cell_setting 'hexagonal'
loop_
_space_group_symop_operation_xyz
x,y,z
x-y,x,z
-y,x-y,z
-x,-y,z
-x+y,-x,z
y,-x+y,z
x-y,-y,1/2-z
-x,-x+y,1/2-z
y,x,1/2-z
-y,-x,1/2-z
-x+y,y,1/2-z
x,x-y,1/2-z
-x,-y,-z
-x+y,-x,-z
y,-x+y,-z
x,y,-z
x-y,x,-z
-y,x-y,-z
-x+y,y,1/2+z
x,x-y,1/2+z
-y,-x,1/2+z
y,x,1/2+z
x-y,-y,1/2+z
-x,-x+y,1/2+z
loop_
_atom_site_type_symbol
_atom_site_label
_atom_site_fract_x
_atom_site_fract_y
_atom_site_fract_z
Si Si1 0.258944 0.069617 0.814201
Si Si2 0.666668 0.333334 0.358986
Si Si3 0.440349 0.831353 0.891006
Si Si4 0.076778 0.398042 0.613153
Si Si5 0.043886 0.165263 0.500000
Si Si6 0.948334 0.413897 0.606457
O O1 0.260154 0.130077 0.750000
O O2 0.337814 0.089644 0.845607
O O3 0.212265 0.056354 0.907325
O O4 0.225987 0.000000 0.750000
O O5 0.666668 0.333334 0.250000
O O6 0.747029 0.390701 0.386580
O O7 0.521565 0.864360 0.857884
O O8 0.403685 0.875333 0.850545
O O9 0.449244 0.850548 0.000000
O O10 0.076744 0.394312 0.500000
O O11 0.999012 0.385444 0.643341
O O12 0.100101 0.137190 0.500000
O O13 0.933435 0.387925 0.500000
O O14 0.000000 0.500000 0.606367
#
# Coordination Sequence:
#
# PCOD9588844 Si02
#       6
#    24   8  24  24  12  24
#     4  12  25  43  68 101 142 176 207 263 326 387
#     4  12  25  38  49  75 127 170 211 288 343 386
#     4   9  18  37  62  83 113 164 224 276 329 395
#     4   9  18  37  65  95 125 165 217 270 327 393
#     4  12  25  48  76 102 133 170 216 260 312 384
#     4   7  12  28  58  88 111 146 206 271 320 380
#
# _framework density 19.805015000000001
#
# number of rings (size 3 to 8) (size 9 to 14) (size 15 to 20)
#    0.000    2.276    3.103    3.207    0.000    0.828 
#    7.448    0.000    0.000    0.000    0.000    0.000 
#    0.000    0.000    0.000    0.000    0.000    0.000 
#
# Total GULP energy -646886.248299 kJ/mol
# GULP energy per Si atom -5576.605589 kJ/mol
# Density = 1.975994 g / cm^3
# Si number density = 19.805015 Si / 1000 Ang^3
#
#
#
# Elastic Constant Matrix: (Units=GPa)
#
#
# Indices 1 2 3 4 5 6 
#
# 1 119.9616 61.3050 28.1583 -0.0010 0.0075 -0.0009
# 2 61.3050 119.9642 28.1581 -0.0102 -0.0110 0.0013
# 3 28.1583 28.1581 105.3793 0.0047 0.0006 0.0002
# 4 -0.0010 -0.0102 0.0047 -280.2150 -0.1048 0.0092
# 5 0.0075 -0.0110 0.0006 -0.1048 -279.8993 -0.0046
# 6 -0.0009 0.0013 0.0002 0.0092 -0.0046 29.3277
#
#
#
# Elastic Compliance Matrix: (Units=1/GPa)
#
#
# Indices 1 2 3 4 5 6 
#
# 1 0.011532 -0.005516 -0.001608 0.000000 0.000001 0.000001
# 2 -0.005516 0.011532 -0.001608 0.000000 -0.000001 -0.000001
# 3 -0.001608 -0.001608 0.010349 0.000000 0.000000 0.000000
# 4 0.000000 0.000000 0.000000 -0.003569 0.000001 0.000001
# 5 0.000001 -0.000001 0.000000 0.000001 -0.003573 -0.000001
# 6 0.000001 -0.000001 0.000000 0.000001 -0.000001 0.034097
#
#
# Mechanical properties :
#
#
# Convention : Reuss Voigt Hill
#
# Bulk Modulus (GPa) = 62.69330 64.50531 63.59931
# Shear Modulus (GPa) = 60.13389 -90.97839 -15.42225
#
# Velocity S-wave (km/s) = 5.51624 -6.78504 -2.79355
# Velocity P-wave (km/s) = 8.50269 5.36111 4.66660
#
# Compressibility (1/GPa) = 0.01595067
#
# Stress axis : x y z
#
# Youngs Moduli (GPa) = 86.71369 86.71570 96.63117
#
# Poissons Ratio (x) = 0.47832 0.15535
# Poissons Ratio (y) = 0.47831 0.15533
# Poissons Ratio (z) = 0.13940 0.13940
#
# Static dielectric constant tensor:
#      x y z
#    x 2.269290 0.000550 0.000000 
#    y 0.000550 2.269500 0.000010 
#    z 0.000000 0.000010 1.743400 
# 
# From -- ./inp_files/3004.got.cif
#   From: 2010.05.17/outbox.cif.g08.bks.cpg/sg192_2_cif.got.tgz:3004.got - 2010.05.20 12:28:01.
