data_PCOD9588522
_publ_section_title
;
Structure prediction by ZEFSAII (Michael W. Deem and Ramdas Pophale) SiO2 
 PCOD9588522
Probable space group: P 6/M C C
;
_chemical_formula_sum "Si O2"
_cell_formula_units_Z 192
_cell_length_a 29.695064
_cell_length_b 29.695064
_cell_length_c 15.272309
_cell_angle_alpha 90.000000
_cell_angle_beta 90.000000
_cell_angle_gamma 120.000000
_cell_volume 11662.827853
_symmetry_space_group_name_H-M "P 6/M C C"
_symmetry_group_IT_number 192
_symmetry_cell_setting 'hexagonal'
loop_
_space_group_symop_operation_xyz
x,y,z
x-y,x,z
-y,x-y,z
-x,-y,z
-x+y,-x,z
y,-x+y,z
x-y,-y,1/2-z
-x,-x+y,1/2-z
y,x,1/2-z
-y,-x,1/2-z
-x+y,y,1/2-z
x,x-y,1/2-z
-x,-y,-z
-x+y,-x,-z
y,-x+y,-z
x,y,-z
x-y,x,-z
-y,x-y,-z
-x+y,y,1/2+z
x,x-y,1/2+z
-y,-x,1/2+z
y,x,1/2+z
x-y,-y,1/2+z
-x,-x+y,1/2+z
loop_
_atom_site_type_symbol
_atom_site_label
_atom_site_fract_x
_atom_site_fract_y
_atom_site_fract_z
Si Si1 0.611499 0.387213 0.897029
Si Si2 0.359400 0.347350 0.098938
Si Si3 0.784829 0.581119 0.403179
Si Si4 0.271616 0.537005 0.849592
Si Si5 0.707133 0.102106 0.399802
Si Si6 0.299032 0.880389 0.795509
Si Si7 0.986776 0.541781 0.852761
Si Si8 0.132414 0.621099 0.396319
O O1 0.666407 0.423943 0.854260
O O2 0.575815 0.325705 0.876359
O O3 0.571659 0.407016 0.875372
O O4 0.622429 0.390785 0.000000
O O5 0.305566 0.347831 0.111735
O O6 0.380717 0.319046 0.163774
O O7 0.401679 0.409178 0.106904
O O8 0.361539 0.330453 0.000000
O O9 0.768268 0.589394 0.500000
O O10 0.765282 0.518612 0.398414
O O11 0.847527 0.612362 0.399433
O O12 0.759143 0.598915 0.327601
O O13 0.260339 0.520678 0.750000
O O14 0.687853 0.103321 0.500000
O O15 0.687532 0.113041 0.307267
O O16 0.327559 0.852578 0.842226
O O17 0.926077 0.513058 0.868828
O O18 0.000000 0.500000 0.891088
O O19 0.000000 0.549131 0.750000
O O20 0.138001 0.632400 0.500000
#
# Coordination Sequence:
#
# PCOD9588522 Si02
#       8
#    24  24  24  24  24  24  24  24
#     4  11  23  40  58  74  97 123 154 192 234 276
#     4  10  20  34  54  76 101 130 160 194 234 282
#     4  11  22  37  57  79 102 126 163 201 239 287
#     4  12  24  40  54  78  96 124 151 190 235 288
#     4  10  22  35  50  79 108 129 155 197 245 283
#     4  11  18  35  59  77  98 133 167 195 232 282
#     4  10  20  34  47  70  96 123 155 184 226 271
#     4  10  21  36  57  79  95 122 162 196 224 274
#
# _framework density 16.46256
#
# number of rings (size 3 to 8) (size 9 to 14) (size 15 to 20)
#    0.000    1.375    1.250    7.000    0.000    2.000 
#    4.500    2.500    0.000    0.000    0.000    0.000 
#    0.000    0.000    0.000    0.000    0.000    0.000 
#
# Total GULP energy -1068885.198201 kJ/mol
# GULP energy per Si atom -5567.110407 kJ/mol
# Density = 1.642509 g / cm^3
# Si number density = 16.462560 Si / 1000 Ang^3
#
#
#
# Elastic Constant Matrix: (Units=GPa)
#
#
# Indices 1 2 3 4 5 6 
#
# 1 46.7476 29.4326 17.8231 0.0000 0.0000 0.0000
# 2 29.4326 46.7476 17.8231 0.0000 0.0000 0.0000
# 3 17.8231 17.8231 97.4675 0.0000 0.0000 0.0000
# 4 0.0000 0.0000 0.0000 35.1367 0.0000 0.0000
# 5 0.0000 0.0000 0.0000 0.0000 35.1367 0.0000
# 6 0.0000 0.0000 0.0000 0.0000 0.0000 8.6575
#
#
#
# Elastic Compliance Matrix: (Units=1/GPa)
#
#
# Indices 1 2 3 4 5 6 
#
# 1 0.036054 -0.021699 -0.002625 0.000000 0.000000 0.000000
# 2 -0.021699 0.036054 -0.002625 0.000000 0.000000 0.000000
# 3 -0.002625 -0.002625 0.011220 0.000000 0.000000 0.000000
# 4 0.000000 0.000000 0.000000 0.028460 0.000000 0.000000
# 5 0.000000 0.000000 0.000000 0.000000 0.028460 0.000000
# 6 0.000000 0.000000 0.000000 0.000000 0.000000 0.115507
#
#
# Mechanical properties :
#
#
# Convention : Reuss Voigt Hill
#
# Bulk Modulus (GPa) = 33.97897 35.68005 34.82951
# Shear Modulus (GPa) = 15.65124 24.17843 19.91483
#
# Velocity S-wave (km/s) = 3.08672 3.83651 3.48185
# Velocity P-wave (km/s) = 5.77830 6.43005 6.11287
#
# Compressibility (1/GPa) = 0.02942997
#
# Stress axis : x y z
#
# Youngs Moduli (GPa) = 27.73605 27.73605 89.12773
#
# Poissons Ratio (x) = 0.60185 0.23396
# Poissons Ratio (y) = 0.60185 0.23396
# Poissons Ratio (z) = 0.07281 0.07281
#
# Static dielectric constant tensor:
#      x y z
#    x 1.793760 0.000000 0.000000 
#    y 0.000000 1.793760 0.000000 
#    z 0.000000 0.000000 1.610210 
# 
# From -- ./inp_files/3576.got.cif
#   From: 2010.05.17/outbox.cif.g08.bks.cpg/sg192_2_cif.got.tgz:3576.got - 2010.05.20 12:28:01.
