data_PCOD9588972
_publ_section_title
;
Structure prediction by ZEFSAII (Michael W. Deem and Ramdas Pophale) SiO2 
 PCOD9588972
Probable space group: P 63/M C M
;
_chemical_formula_sum "Si O2"
_cell_formula_units_Z 132
_cell_length_a 25.901289
_cell_length_b 25.901289
_cell_length_c 14.926377
_cell_angle_alpha 90.000000
_cell_angle_beta 90.000000
_cell_angle_gamma 120.000000
_cell_volume 8672.170216
_symmetry_space_group_name_H-M "P 63/M C M"
_symmetry_group_IT_number 193
_symmetry_cell_setting 'hexagonal'
loop_
_space_group_symop_operation_xyz
x,y,z
x-y,x,1/2+z
-y,x-y,z
-x,-y,1/2+z
-x+y,-x,z
y,-x+y,1/2+z
x-y,-y,1/2-z
-x,-x+y,1/2-z
y,x,1/2-z
-y,-x,-z
-x+y,y,-z
x,x-y,-z
-x,-y,-z
-x+y,-x,1/2-z
y,-x+y,-z
x,y,1/2-z
x-y,x,-z
-y,x-y,1/2-z
-x+y,y,1/2+z
x,x-y,1/2+z
-y,-x,1/2+z
y,x,z
x-y,-y,z
-x,-x+y,z
loop_
_atom_site_type_symbol
_atom_site_label
_atom_site_fract_x
_atom_site_fract_y
_atom_site_fract_z
Si Si1 0.577331 0.929593 0.647152
Si Si2 0.467357 0.931741 0.107241
Si Si3 0.581391 0.930886 0.146483
Si Si4 0.152048 0.421981 0.503996
Si Si5 0.735805 0.399862 0.250000
Si Si6 0.437920 0.772317 0.453220
O O1 0.591876 0.926481 0.750000
O O2 0.506479 0.906944 0.639980
O O3 0.590905 0.888656 0.583275
O O4 0.612660 0.000000 0.619537
O O5 0.510413 0.907041 0.135910
O O6 0.501889 0.000000 0.141535
O O7 0.466684 0.933368 0.000000
O O8 0.593816 0.928910 0.250000
O O9 0.600900 0.892723 0.087375
O O10 0.614941 0.000000 0.116017
O O11 0.200583 0.401166 0.500000
O O12 0.188965 0.493420 0.519222
O O13 0.668701 0.390431 0.250000
O O14 0.765183 0.428893 0.154556
O O15 0.398394 0.796787 0.500000
O O16 0.416395 0.708198 0.500000
#
# Coordination Sequence:
#
# PCOD9588972 Si02
#       6
#    24  24  24  24  12  24
#     4  10  20  37  58  75  91 117 153 192 234 278
#     4   9  15  27  50  74  95 113 143 190 233 275
#     4  10  20  35  54  73  92 119 151 186 230 278
#     4  11  25  36  48  71 100 122 142 185 233 286
#     4  10  18  34  60  62  73 116 162 208 224 260
#     4  11  21  37  49  67  87 115 158 190 233 281
#
# _framework density 15.221104
#
# number of rings (size 3 to 8) (size 9 to 14) (size 15 to 20)
#    0.182    1.636    3.636    1.273    3.818    2.909 
#    6.545    0.000    0.000    0.000    0.000    0.000 
#    0.000    0.000    0.000    0.000    0.000    0.000 
#
# Total GULP energy -736575.652739 kJ/mol
# GULP energy per Si atom -5580.118581 kJ/mol
# Density = 1.518646 g / cm^3
# Si number density = 15.221104 Si / 1000 Ang^3
#
#
#
# Elastic Constant Matrix: (Units=GPa)
#
#
# Indices 1 2 3 4 5 6 
#
# 1 66.7654 20.1500 31.3211 0.0000 0.0000 0.0000
# 2 20.1500 66.7654 31.3211 0.0000 0.0000 0.0000
# 3 31.3211 31.3211 115.4344 0.0000 0.0000 0.0000
# 4 0.0000 0.0000 0.0000 10.1368 0.0000 0.0000
# 5 0.0000 0.0000 0.0000 0.0000 10.1368 0.0000
# 6 0.0000 0.0000 0.0000 0.0000 0.0000 23.3077
#
#
#
# Elastic Compliance Matrix: (Units=1/GPa)
#
#
# Indices 1 2 3 4 5 6 
#
# 1 0.017877 -0.003575 -0.003881 0.000000 0.000000 0.000000
# 2 -0.003575 0.017877 -0.003881 0.000000 0.000000 0.000000
# 3 -0.003881 -0.003881 0.010769 0.000000 0.000000 0.000000
# 4 0.000000 0.000000 0.000000 0.098651 0.000000 0.000000
# 5 0.000000 0.000000 0.000000 0.000000 0.098651 0.000000
# 6 0.000000 0.000000 0.000000 0.000000 0.000000 0.042904
#
#
# Mechanical properties :
#
#
# Convention : Reuss Voigt Hill
#
# Bulk Modulus (GPa) = 41.92733 46.06105 43.99419
# Shear Modulus (GPa) = 15.75538 19.79446 17.77492
#
# Velocity S-wave (km/s) = 3.22079 3.61010 3.42099
# Velocity P-wave (km/s) = 6.43713 6.90682 6.67611
#
# Compressibility (1/GPa) = 0.02385079
#
# Stress axis : x y z
#
# Youngs Moduli (GPa) = 55.93709 55.93709 92.86047
#
# Poissons Ratio (x) = 0.19997 0.36036
# Poissons Ratio (y) = 0.19997 0.36036
# Poissons Ratio (z) = 0.21707 0.21707
#
# Static dielectric constant tensor:
#      x y z
#    x 1.532330 0.000000 0.000000 
#    y 0.000000 1.532330 0.000000 
#    z 0.000000 0.000000 1.532650 
# 
# From -- ./inp_files/4256.got.cif
#   From: 2010.05.17/outbox.cif.g08.bks.cpg/sg193_3_cif.got.tgz:4256.got - 2010.05.20 12:33:02.
