data_PCOD9588230
_publ_section_title
;
Structure prediction by ZEFSAII (Michael W. Deem and Ramdas Pophale) SiO2 
 PCOD9588230
Probable space group: P 6/M M M
;
_chemical_formula_sum "Si O2"
_cell_formula_units_Z 72
_cell_length_a 17.976971
_cell_length_b 17.976971
_cell_length_c 14.389879
_cell_angle_alpha 90.000000
_cell_angle_beta 90.000000
_cell_angle_gamma 120.000000
_cell_volume 4027.363312
_symmetry_space_group_name_H-M "P 6/M M M"
_symmetry_group_IT_number 191
_symmetry_cell_setting 'hexagonal'
loop_
_space_group_symop_operation_xyz
x,y,z
x-y,x,z
-y,x-y,z
-x,-y,z
-x+y,-x,z
y,-x+y,z
x-y,-y,-z
-x,-x+y,-z
y,x,-z
-y,-x,-z
-x+y,y,-z
x,x-y,-z
-x,-y,-z
-x+y,-x,-z
y,-x+y,-z
x,y,-z
x-y,x,-z
-y,x-y,-z
-x+y,y,z
x,x-y,z
-y,-x,z
y,x,z
x-y,-y,z
-x,-x+y,z
loop_
_atom_site_type_symbol
_atom_site_label
_atom_site_fract_x
_atom_site_fract_y
_atom_site_fract_z
Si Si1 0.098483 0.365028 0.891165
Si Si2 0.490437 0.157534 0.277247
Si Si3 0.654856 0.654856 0.611048
Si Si4 0.000000 0.828306 0.386696
O O1 0.166513 0.333026 0.874074
O O2 0.126546 0.445532 0.823615
O O3 0.000000 0.295377 0.872140
O O4 0.105078 0.388854 0.000000
O O5 0.582785 0.165570 0.279028
O O6 0.495841 0.247921 0.297982
O O7 0.426201 0.084315 0.347774
O O8 0.651104 0.651104 0.500000
O O9 0.741792 0.741792 0.639844
O O10 0.913764 0.827527 0.355941
O O11 0.000000 0.829997 0.500000
#
# Coordination Sequence:
#
# PCOD9588230 Si02
#       4
#    24  24  12  12
#     4   9  18  34  58  87 117 149 185 226 275 333
#     4  11  23  39  58  83 113 147 186 232 285 339
#     4  11  23  39  58  79 107 147 195 239 281 335
#     4   9  17  31  53  80 107 135 170 218 276 333
#
# _framework density 17.877700999999998
#
# number of rings (size 3 to 8) (size 9 to 14) (size 15 to 20)
#    0.000    2.000    1.667    2.000    0.000    4.667 
#    0.000    1.667    0.000    4.333    0.000    2.333 
#    0.000    0.000    0.000    0.000    0.000    0.000 
#
# Total GULP energy -401902.407884 kJ/mol
# GULP energy per Si atom -5581.977887 kJ/mol
# Density = 1.783701 g / cm^3
# Si number density = 17.877701 Si / 1000 Ang^3
#
#
#
# Elastic Constant Matrix: (Units=GPa)
#
#
# Indices 1 2 3 4 5 6 
#
# 1 158.4159 128.2453 61.2860 0.0000 0.0000 0.0000
# 2 128.2453 158.4159 61.2860 0.0000 0.0000 0.0000
# 3 61.2860 61.2860 78.1334 0.0000 0.0000 0.0000
# 4 0.0000 0.0000 0.0000 23.6378 0.0000 0.0000
# 5 0.0000 0.0000 0.0000 0.0000 23.6378 0.0000
# 6 0.0000 0.0000 0.0000 0.0000 0.0000 15.0853
#
#
#
# Elastic Compliance Matrix: (Units=1/GPa)
#
#
# Indices 1 2 3 4 5 6 
#
# 1 0.019197 -0.013948 -0.004117 0.000000 0.000000 0.000000
# 2 -0.013948 0.019197 -0.004117 0.000000 0.000000 0.000000
# 3 -0.004117 -0.004117 0.019257 0.000000 0.000000 0.000000
# 4 0.000000 0.000000 0.000000 0.042305 0.000000 0.000000
# 5 0.000000 0.000000 0.000000 0.000000 0.042305 0.000000
# 6 0.000000 0.000000 0.000000 0.000000 0.000000 0.066290
#
#
# Mechanical properties :
#
#
# Convention : Reuss Voigt Hill
#
# Bulk Modulus (GPa) = 75.26323 99.62219 87.44271
# Shear Modulus (GPa) = 19.42924 22.08203 20.75563
#
# Velocity S-wave (km/s) = 3.30022 3.51831 3.41101
# Velocity P-wave (km/s) = 7.53076 8.50588 8.03313
#
# Compressibility (1/GPa) = 0.01328670
#
# Stress axis : x y z
#
# Youngs Moduli (GPa) = 52.09195 52.09195 51.92841
#
# Poissons Ratio (x) = 0.72658 0.21379
# Poissons Ratio (y) = 0.72658 0.21379
# Poissons Ratio (z) = 0.21447 0.21447
#
# Static dielectric constant tensor:
#      x y z
#    x 1.588190 0.000000 0.000000 
#    y 0.000000 1.588190 0.000000 
#    z 0.000000 0.000000 1.622420 
# 
# From -- ./inp_files/3923.got.cif
#   From: 2010.05.17/outbox.cif.g08.bks.cpg/sg191_2_cif.got.tgz:3923.got - 2010.05.20 12:20:32.
