data_PCOD9588926
_publ_section_title
;
Structure prediction by ZEFSAII (Michael W. Deem and Ramdas Pophale) SiO2 
 PCOD9588926
Probable space group: P 63/M C M
;
_chemical_formula_sum "Si O2"
_cell_formula_units_Z 144
_cell_length_a 20.100679
_cell_length_b 20.100679
_cell_length_c 25.613019
_cell_angle_alpha 90.000000
_cell_angle_beta 90.000000
_cell_angle_gamma 120.000000
_cell_volume 8962.163437
_symmetry_space_group_name_H-M "P 63/M C M"
_symmetry_group_IT_number 193
_symmetry_cell_setting 'hexagonal'
loop_
_space_group_symop_operation_xyz
x,y,z
x-y,x,1/2+z
-y,x-y,z
-x,-y,1/2+z
-x+y,-x,z
y,-x+y,1/2+z
x-y,-y,1/2-z
-x,-x+y,1/2-z
y,x,1/2-z
-y,-x,-z
-x+y,y,-z
x,x-y,-z
-x,-y,-z
-x+y,-x,1/2-z
y,-x+y,-z
x,y,1/2-z
x-y,x,-z
-y,x-y,1/2-z
-x+y,y,1/2+z
x,x-y,1/2+z
-y,-x,1/2+z
y,x,z
x-y,-y,z
-x,-x+y,z
loop_
_atom_site_type_symbol
_atom_site_label
_atom_site_fract_x
_atom_site_fract_y
_atom_site_fract_z
Si Si1 0.539876 0.455173 0.585712
Si Si2 0.602307 0.443184 0.191679
Si Si3 0.493902 0.197693 0.044389
Si Si4 0.090225 0.764850 0.004556
Si Si5 0.085748 0.392319 0.885207
Si Si6 0.497430 0.766305 0.157798
O O1 0.479722 0.479722 0.566563
O O2 0.522280 0.425700 0.645757
O O3 0.536457 0.386969 0.552470
O O4 0.622667 0.530951 0.589040
O O5 0.574524 0.444193 0.250000
O O6 0.694367 0.486045 0.190810
O O7 0.568465 0.354419 0.173586
O O8 0.405020 0.135600 0.028953
O O9 0.504170 0.242606 0.098412
O O10 0.523074 0.261537 0.000000
O O11 0.000000 0.724484 0.990552
O O12 0.143255 0.856745 0.000000
O O13 0.094498 0.745800 0.065457
O O14 0.152564 0.423254 0.842320
O O15 0.000000 0.343059 0.863358
#
# Coordination Sequence:
#
# PCOD9588926 Si02
#       6
#    24  24  24  24  24  24
#     4   9  19  32  47  67  91 122 159 200 243 287
#     4  10  20  31  49  65  84 122 160 203 249 286
#     4  10  18  31  45  67  98 126 158 194 240 290
#     4  10  18  30  48  69  97 130 160 188 228 290
#     4   9  17  31  48  66  91 123 157 197 240 285
#     4  10  18  33  46  66  94 118 162 202 241 295
#
# _framework density 16.067550000000001
#
# number of rings (size 3 to 8) (size 9 to 14) (size 15 to 20)
#    0.000    2.333    3.333    1.333    0.000    1.000 
#    3.000    2.500    0.000    1.667    0.000    0.000 
#    0.000    0.000    0.000    0.000    0.000    0.000 
#
# Total GULP energy -802119.771621 kJ/mol
# GULP energy per Si atom -5570.276192 kJ/mol
# Density = 1.603098 g / cm^3
# Si number density = 16.067550 Si / 1000 Ang^3
#
#
#
# Elastic Constant Matrix: (Units=GPa)
#
#
# Indices 1 2 3 4 5 6 
#
# 1 58.1550 25.1537 18.1178 0.0000 0.0000 0.0000
# 2 25.1537 58.1550 18.1178 0.0000 0.0000 0.0000
# 3 18.1178 18.1178 69.7740 0.0000 0.0000 0.0000
# 4 0.0000 0.0000 0.0000 -0.6202 0.0000 0.0000
# 5 0.0000 0.0000 0.0000 0.0000 -0.6202 0.0000
# 6 0.0000 0.0000 0.0000 0.0000 0.0000 16.5006
#
#
#
# Elastic Compliance Matrix: (Units=1/GPa)
#
#
# Indices 1 2 3 4 5 6 
#
# 1 0.021917 -0.008385 -0.003514 0.000000 0.000000 0.000000
# 2 -0.008385 0.021917 -0.003514 0.000000 0.000000 0.000000
# 3 -0.003514 -0.003514 0.016157 0.000000 0.000000 0.000000
# 4 0.000000 0.000000 0.000000 -1.612328 0.000000 0.000000
# 5 0.000000 0.000000 0.000000 0.000000 -1.612328 0.000000
# 6 0.000000 0.000000 0.000000 0.000000 0.000000 0.060604
#
#
# Mechanical properties :
#
#
# Convention : Reuss Voigt Hill
#
# Bulk Modulus (GPa) = 34.28701 34.31804 34.30253
# Shear Modulus (GPa) = -1.63211 11.36501 4.86645
#
# Velocity S-wave (km/s) = -1.00895 2.66245 1.74222
# Velocity P-wave (km/s) = 4.47530 5.55486 5.04404
#
# Compressibility (1/GPa) = 0.02916557
#
# Stress axis : x y z
#
# Youngs Moduli (GPa) = 45.62692 45.62692 61.89360
#
# Poissons Ratio (x) = 0.38258 0.21748
# Poissons Ratio (y) = 0.38258 0.21748
# Poissons Ratio (z) = 0.16032 0.16032
#
# Static dielectric constant tensor:
#      x y z
#    x 1.563650 0.000000 0.000000 
#    y 0.000000 1.563650 0.000000 
#    z 0.000000 0.000000 1.560790 
# 
# From -- ./inp_files/8427.got.cif
#   From: 2010.05.17/outbox.cif.g08.bks.cpg/sg193_5_cif.got.tgz:8427.got - 2010.05.20 12:33:02.
