data_PCOD9588597
_publ_section_title
;
Structure prediction by ZEFSAII (Michael W. Deem and Ramdas Pophale) SiO2 
 PCOD9588597
Probable space group: P 6/M C C
;
_chemical_formula_sum "Si O2"
_cell_formula_units_Z 104
_cell_length_a 19.078309
_cell_length_b 19.078309
_cell_length_c 14.843056
_cell_angle_alpha 90.000000
_cell_angle_beta 90.000000
_cell_angle_gamma 120.000000
_cell_volume 4678.791742
_symmetry_space_group_name_H-M "P 6/M C C"
_symmetry_group_IT_number 192
_symmetry_cell_setting 'hexagonal'
loop_
_space_group_symop_operation_xyz
x,y,z
x-y,x,z
-y,x-y,z
-x,-y,z
-x+y,-x,z
y,-x+y,z
x-y,-y,1/2-z
-x,-x+y,1/2-z
y,x,1/2-z
-y,-x,1/2-z
-x+y,y,1/2-z
x,x-y,1/2-z
-x,-y,-z
-x+y,-x,-z
y,-x+y,-z
x,y,-z
x-y,x,-z
-y,x-y,-z
-x+y,y,1/2+z
x,x-y,1/2+z
-y,-x,1/2+z
y,x,1/2+z
x-y,-y,1/2+z
-x,-x+y,1/2+z
loop_
_atom_site_type_symbol
_atom_site_label
_atom_site_fract_x
_atom_site_fract_y
_atom_site_fract_z
Si Si1 0.480594 0.210909 0.893572
Si Si2 0.909781 0.263991 0.608762
Si Si3 0.666668 0.333334 0.143542
Si Si4 0.023886 0.167129 0.855707
Si Si5 0.036795 0.444530 0.610501
O O1 0.414726 0.233399 0.857100
O O2 0.572917 0.283165 0.885515
O O3 0.471470 0.127265 0.857085
O O4 0.463260 0.196951 0.000000
O O5 0.906391 0.266566 0.500000
O O6 0.947418 0.208073 0.632348
O O7 0.973268 0.353984 0.639091
O O8 0.666668 0.333334 0.250000
O O9 0.097666 0.158434 0.894273
O O10 0.000000 0.146987 0.750000
O O11 0.039418 0.447157 0.500000
O O12 0.000000 0.500000 0.639161
#
# Coordination Sequence:
#
# PCOD9588597 Si02
#       5
#    24  24   8  24  24
#     4  10  20  37  62  84 113 159 200 244 308 371
#     4  10  20  36  60  90 116 146 197 251 300 355
#     4  12  25  41  55  87 121 155 199 255 301 365
#     4  10  21  38  58  83 116 160 201 237 288 355
#     4   9  17  31  55  84 110 141 188 241 291 354
#
# _framework density 22.227961000000001
#
# number of rings (size 3 to 8) (size 9 to 14) (size 15 to 20)
#    0.000    2.077    0.000    3.692    0.000    7.385 
#    8.308    0.000    0.000    1.385    0.000    0.000 
#    0.000    0.000    0.000    0.000    0.000    0.000 
#
# Total GULP energy -580760.311900 kJ/mol
# GULP energy per Si atom -5584.233768 kJ/mol
# Density = 2.217737 g / cm^3
# Si number density = 22.227961 Si / 1000 Ang^3
#
#
#
# Elastic Constant Matrix: (Units=GPa)
#
#
# Indices 1 2 3 4 5 6 
#
# 1 195.4151 149.0665 -3.8515 0.0002 -0.0008 0.0028
# 2 149.0665 195.4021 -3.8500 -0.0004 0.0015 -0.0071
# 3 -3.8515 -3.8500 44.8869 -0.0001 -0.0002 -0.0004
# 4 0.0002 -0.0004 -0.0001 15.8302 -0.0001 -0.0011
# 5 -0.0008 0.0015 -0.0002 -0.0001 15.8294 -0.0003
# 6 0.0028 -0.0071 -0.0004 -0.0011 -0.0003 23.1839
#
#
#
# Elastic Compliance Matrix: (Units=1/GPa)
#
#
# Indices 1 2 3 4 5 6 
#
# 1 0.012243 -0.009335 0.000250 0.000000 0.000001 -0.000004
# 2 -0.009335 0.012244 0.000249 0.000000 -0.000002 0.000005
# 3 0.000250 0.000249 0.022321 0.000000 0.000000 0.000000
# 4 0.000000 0.000000 0.000000 0.063170 0.000001 0.000003
# 5 0.000001 -0.000002 0.000000 0.000001 0.063174 0.000001
# 6 -0.000004 0.000005 0.000000 0.000003 0.000001 0.043133
#
#
# Mechanical properties :
#
#
# Convention : Reuss Voigt Hill
#
# Bulk Modulus (GPa) = 34.32156 79.82600 57.07378
# Shear Modulus (GPa) = 20.51959 30.59131 25.55545
#
# Velocity S-wave (km/s) = 3.04162 3.71381 3.39440
# Velocity P-wave (km/s) = 5.27347 7.37430 6.41053
#
# Compressibility (1/GPa) = 0.02913621
#
# Stress axis : x y z
#
# Youngs Moduli (GPa) = 81.67802 81.67270 44.80079
#
# Poissons Ratio (x) = 0.76242 -0.01119
# Poissons Ratio (y) = 0.76247 -0.01116
# Poissons Ratio (z) = -0.02041 -0.02035
#
# Static dielectric constant tensor:
#      x y z
#    x 1.836430 -0.000010 0.000000 
#    y -0.000010 1.836480 0.000000 
#    z 0.000000 0.000000 1.902310 
# 
# From -- ./inp_files/4882.got.cif
#   From: 2010.05.17/outbox.cif.g08.bks.cpg/sg192_3_cif.got.tgz:4882.got - 2010.05.20 12:28:01.
