data_PCOD9588277
_publ_section_title
;
Structure prediction by ZEFSAII (Michael W. Deem and Ramdas Pophale) SiO2 
 PCOD9588277
Probable space group: P 6/M C C
;
_chemical_formula_sum "Si O2"
_cell_formula_units_Z 96
_cell_length_a 14.279655
_cell_length_b 14.279655
_cell_length_c 22.744131
_cell_angle_alpha 90.000000
_cell_angle_beta 90.000000
_cell_angle_gamma 120.000000
_cell_volume 4016.385677
_symmetry_space_group_name_H-M "P 6/M C C"
_symmetry_group_IT_number 192
_symmetry_cell_setting 'hexagonal'
loop_
_space_group_symop_operation_xyz
x,y,z
x-y,x,z
-y,x-y,z
-x,-y,z
-x+y,-x,z
y,-x+y,z
x-y,-y,1/2-z
-x,-x+y,1/2-z
y,x,1/2-z
-y,-x,1/2-z
-x+y,y,1/2-z
x,x-y,1/2-z
-x,-y,-z
-x+y,-x,-z
y,-x+y,-z
x,y,-z
x-y,x,-z
-y,x-y,-z
-x+y,y,1/2+z
x,x-y,1/2+z
-y,-x,1/2+z
y,x,1/2+z
x-y,-y,1/2+z
-x,-x+y,1/2+z
loop_
_atom_site_type_symbol
_atom_site_label
_atom_site_fract_x
_atom_site_fract_y
_atom_site_fract_z
Si Si1 0.671915 0.151692 0.286296
Si Si2 0.824808 0.066715 0.070688
Si Si3 0.382455 0.988752 0.387360
Si Si4 0.688676 0.229155 0.415766
O O1 0.780892 0.219109 0.250000
O O2 0.569899 0.139797 0.250000
O O3 0.649912 0.042643 0.318908
O O4 0.686422 0.222362 0.344904
O O5 0.945637 0.151376 0.089810
O O6 0.725631 0.078656 0.095337
O O7 0.822621 0.069400 0.000000
O O8 0.314381 0.882238 0.429501
O O9 0.500000 0.000000 0.390907
O O10 0.774052 0.350850 0.434086
#
# Coordination Sequence:
#
# PCOD9588277 Si02
#       4
#    24  24  24  24
#     4  10  14  27  47  78 118 166 204 239 280 344
#     4  10  23  44  70  91 113 152 211 275 328 378
#     4  10  22  32  56  90 130 156 202 252 315 375
#     4   8  15  27  48  72 113 161 200 236 278 348
#
# _framework density 23.902087000000002
#
# number of rings (size 3 to 8) (size 9 to 14) (size 15 to 20)
#    2.000    0.500    2.500    0.500    3.500    2.000 
#    0.000    0.000    0.000    0.000    0.000    0.000 
#    0.000    2.000    0.000    0.000    0.000    0.000 
#
# Total GULP energy -534528.850698 kJ/mol
# GULP energy per Si atom -5568.008861 kJ/mol
# Density = 2.384768 g / cm^3
# Si number density = 23.902087 Si / 1000 Ang^3
#
#
#
# Elastic Constant Matrix: (Units=GPa)
#
#
# Indices 1 2 3 4 5 6 
#
# 1 91.9619 19.4694 8.5652 0.0000 0.0000 0.0000
# 2 19.4694 91.9619 8.5652 0.0000 0.0000 0.0000
# 3 8.5652 8.5652 86.4389 0.0000 0.0000 0.0000
# 4 0.0000 0.0000 0.0000 3.7408 0.0000 0.0000
# 5 0.0000 0.0000 0.0000 0.0000 3.7408 0.0000
# 6 0.0000 0.0000 0.0000 0.0000 0.0000 36.2463
#
#
#
# Elastic Compliance Matrix: (Units=1/GPa)
#
#
# Indices 1 2 3 4 5 6 
#
# 1 0.011454 -0.002341 -0.000903 0.000000 0.000000 0.000000
# 2 -0.002341 0.011454 -0.000903 0.000000 0.000000 0.000000
# 3 -0.000903 -0.000903 0.011748 0.000000 0.000000 0.000000
# 4 0.000000 0.000000 0.000000 0.267324 0.000000 0.000000
# 5 0.000000 0.000000 0.000000 0.000000 0.267324 0.000000
# 6 0.000000 0.000000 0.000000 0.000000 0.000000 0.027589
#
#
# Mechanical properties :
#
#
# Convention : Reuss Voigt Hill
#
# Bulk Modulus (GPa) = 37.93376 38.17358 38.05367
# Shear Modulus (GPa) = 8.14369 24.32975 16.23672
#
# Velocity S-wave (km/s) = 1.84784 3.19390 2.60917
# Velocity P-wave (km/s) = 4.52301 5.44122 5.00322
#
# Compressibility (1/GPa) = 0.02636174
#
# Stress axis : x y z
#
# Youngs Moduli (GPa) = 87.30768 87.30768 85.12211
#
# Poissons Ratio (x) = 0.20437 0.07687
# Poissons Ratio (y) = 0.20437 0.07687
# Poissons Ratio (z) = 0.07884 0.07884
#
# Static dielectric constant tensor:
#      x y z
#    x 2.010070 0.000000 0.000000 
#    y 0.000000 2.010070 0.000000 
#    z 0.000000 0.000000 1.898790 
# 
# From -- ./inp_files/6339.got.cif
#   From: 2010.05.17/outbox.cif.g08.bks.cpg/sg192_4_cif.got.tgz:6339.got - 2010.05.20 12:28:01.
