data_PCOD9588950
_publ_section_title
;
Structure prediction by ZEFSAII (Michael W. Deem and Ramdas Pophale) SiO2 
 PCOD9588950
Probable space group: P 63/M C M
;
_chemical_formula_sum "Si O2"
_cell_formula_units_Z 144
_cell_length_a 23.038849
_cell_length_b 23.038849
_cell_length_c 19.394173
_cell_angle_alpha 90.000000
_cell_angle_beta 90.000000
_cell_angle_gamma 120.000000
_cell_volume 8915.043234
_symmetry_space_group_name_H-M "P 63/M C M"
_symmetry_group_IT_number 193
_symmetry_cell_setting 'hexagonal'
loop_
_space_group_symop_operation_xyz
x,y,z
x-y,x,1/2+z
-y,x-y,z
-x,-y,1/2+z
-x+y,-x,z
y,-x+y,1/2+z
x-y,-y,1/2-z
-x,-x+y,1/2-z
y,x,1/2-z
-y,-x,-z
-x+y,y,-z
x,x-y,-z
-x,-y,-z
-x+y,-x,1/2-z
y,-x+y,-z
x,y,1/2-z
x-y,x,-z
-y,x-y,1/2-z
-x+y,y,1/2+z
x,x-y,1/2+z
-y,-x,1/2+z
y,x,z
x-y,-y,z
-x,-x+y,z
loop_
_atom_site_type_symbol
_atom_site_label
_atom_site_fract_x
_atom_site_fract_y
_atom_site_fract_z
Si Si1 0.871661 0.271436 0.425540
Si Si2 0.859619 0.000000 0.831125
Si Si3 0.609629 0.865913 0.408873
Si Si4 0.134546 0.000000 0.669026
Si Si5 0.741602 0.000000 0.918728
Si Si6 0.391400 0.469788 0.169118
Si Si7 0.496794 0.575968 0.068892
Si Si8 0.251495 0.251495 0.415211
O O1 0.868170 0.265523 0.508720
O O2 0.807001 0.206968 0.394270
O O3 0.882426 0.345333 0.414740
O O4 0.935361 0.265310 0.402740
O O5 0.802134 0.000000 0.877915
O O6 0.932154 0.064760 0.843399
O O7 0.842904 0.000000 0.750000
O O8 0.555425 0.877274 0.369516
O O9 0.681745 0.931299 0.393267
O O10 0.189485 0.000000 0.619924
O O11 0.151631 0.000000 0.750000
O O12 0.752617 0.000000 0.001442
O O13 0.386872 0.479367 0.250000
O O14 0.413753 0.413753 0.159813
O O15 0.449278 0.535097 0.132013
O O16 0.551320 0.551320 0.058476
O O17 0.450219 0.549782 0.000000
#
# Coordination Sequence:
#
# PCOD9588950 Si02
#       8
#    24  12  24  12  12  24  24  12
#     4  10  19  32  54  84 110 142 177 223 266 327
#     4  10  21  38  54  70  96 138 190 237 278 325
#     4  10  19  32  52  81 115 141 180 221 269 321
#     4  10  21  36  54  71  93 136 192 238 277 327
#     4  10  20  35  53  78 114 142 170 218 282 331
#     4  10  20  34  54  82 112 141 180 231 273 315
#     4  10  18  31  57  81 108 142 182 224 272 326
#     4  10  20  33  54  80 110 143 176 221 278 332
#
# _framework density 16.152474000000002
#
# number of rings (size 3 to 8) (size 9 to 14) (size 15 to 20)
#    0.000    2.000    3.333    1.167    0.000    3.333 
#    0.000    2.500    0.000    1.667    4.333    0.000 
#    0.000    0.000    0.000    0.000    0.000    0.000 
#
# Total GULP energy -802745.878885 kJ/mol
# GULP energy per Si atom -5574.624159 kJ/mol
# Density = 1.611571 g / cm^3
# Si number density = 16.152474 Si / 1000 Ang^3
#
#
#
# Elastic Constant Matrix: (Units=GPa)
#
#
# Indices 1 2 3 4 5 6 
#
# 1 118.3502 73.9406 37.0665 0.0000 0.0000 0.0000
# 2 73.9406 118.3502 37.0665 0.0000 0.0000 0.0000
# 3 37.0665 37.0665 29.8501 0.0000 0.0000 0.0000
# 4 0.0000 0.0000 0.0000 20.1737 0.0000 0.0000
# 5 0.0000 0.0000 0.0000 0.0000 20.1737 0.0000
# 6 0.0000 0.0000 0.0000 0.0000 0.0000 22.2048
#
#
#
# Elastic Compliance Matrix: (Units=1/GPa)
#
#
# Indices 1 2 3 4 5 6 
#
# 1 0.016247 -0.006271 -0.012388 0.000000 0.000000 0.000000
# 2 -0.006271 0.016247 -0.012388 0.000000 0.000000 0.000000
# 3 -0.012388 -0.012388 0.064267 0.000000 0.000000 0.000000
# 4 0.000000 0.000000 0.000000 0.049569 0.000000 0.000000
# 5 0.000000 0.000000 0.000000 0.000000 0.049569 0.000000
# 6 0.000000 0.000000 0.000000 0.000000 0.000000 0.045035
#
#
# Mechanical properties :
#
#
# Convention : Reuss Voigt Hill
#
# Bulk Modulus (GPa) = 28.84596 62.52196 45.68396
# Shear Modulus (GPa) = 15.89392 20.40892 18.15142
#
# Velocity S-wave (km/s) = 3.14027 3.55845 3.35588
# Velocity P-wave (km/s) = 5.57187 7.46156 6.58485
#
# Compressibility (1/GPa) = 0.03466690
#
# Stress axis : x y z
#
# Youngs Moduli (GPa) = 61.54959 61.54959 15.56001
#
# Poissons Ratio (x) = 0.38595 0.19276
# Poissons Ratio (y) = 0.38595 0.19276
# Poissons Ratio (z) = 0.76250 0.76250
#
# Static dielectric constant tensor:
#      x y z
#    x 1.541620 0.000000 0.000000 
#    y 0.000000 1.541620 0.000000 
#    z 0.000000 0.000000 1.529050 
# 
# From -- ./inp_files/6669.got.cif
#   From: 2010.05.17/outbox.cif.g08.bks.cpg/sg193_4_cif.got.tgz:6669.got - 2010.05.20 12:33:02.
