data_PCOD9588328
_publ_section_title
;
Structure prediction by ZEFSAII (Michael W. Deem and Ramdas Pophale) SiO2 
 PCOD9588328
Probable space group: P 6/M C C
;
_chemical_formula_sum "Si O2"
_cell_formula_units_Z 76
_cell_length_a 13.071229
_cell_length_b 13.071229
_cell_length_c 28.455063
_cell_angle_alpha 90.000000
_cell_angle_beta 90.000000
_cell_angle_gamma 120.000000
_cell_volume 4210.396828
_symmetry_space_group_name_H-M "P 6/M C C"
_symmetry_group_IT_number 192
_symmetry_cell_setting 'hexagonal'
loop_
_space_group_symop_operation_xyz
x,y,z
x-y,x,z
-y,x-y,z
-x,-y,z
-x+y,-x,z
y,-x+y,z
x-y,-y,1/2-z
-x,-x+y,1/2-z
y,x,1/2-z
-y,-x,1/2-z
-x+y,y,1/2-z
x,x-y,1/2-z
-x,-y,-z
-x+y,-x,-z
y,-x+y,-z
x,y,-z
x-y,x,-z
-y,x-y,-z
-x+y,y,1/2+z
x,x-y,1/2+z
-y,-x,1/2+z
y,x,1/2+z
x-y,-y,1/2+z
-x,-x+y,1/2+z
loop_
_atom_site_type_symbol
_atom_site_label
_atom_site_fract_x
_atom_site_fract_y
_atom_site_fract_z
Si Si1 0.333334 0.666667 0.805516
Si Si2 0.278181 0.189623 0.104172
Si Si3 0.272545 0.186440 0.000000
Si Si4 0.480116 0.870061 0.627718
Si Si5 0.666668 0.333334 0.556712
O O1 0.333334 0.666667 0.750000
O O2 0.203536 0.602434 0.828882
O O3 0.176055 0.224864 0.109888
O O4 0.330134 0.225570 0.050725
O O5 0.393193 0.271711 0.134348
O O6 0.168927 0.216152 0.000000
O O7 0.411973 0.794787 0.581205
O O8 0.500000 0.000000 0.624057
O O9 0.666667 0.333334 0.500000
#
# Coordination Sequence:
#
# PCOD9588328 Si02
#       5
#     8  24  12  24   8
#     4  10  23  43  64  86 109 136 182 244 304 365
#     4  10  18  31  50  77 111 149 190 233 280 333
#     4   8  15  24  39  64  98 142 185 220 254 302
#     4  10  21  39  57  82 113 148 191 242 292 346
#     4  10  23  37  52  80 118 160 200 235 271 323
#
# _framework density 18.050554999999999
#
# number of rings (size 3 to 8) (size 9 to 14) (size 15 to 20)
#    0.000    2.526    0.000    4.263    2.211    3.789 
#    5.684    0.000    0.000    0.000    0.000    0.000 
#    0.000    2.526    0.000    0.000    0.000    0.000 
#
# Total GULP energy -423224.442644 kJ/mol
# GULP energy per Si atom -5568.742666 kJ/mol
# Density = 1.800947 g / cm^3
# Si number density = 18.050555 Si / 1000 Ang^3
#
#
#
# Elastic Constant Matrix: (Units=GPa)
#
#
# Indices 1 2 3 4 5 6 
#
# 1 112.6590 34.4038 46.5597 0.0000 0.0000 0.0003
# 2 34.4038 112.6592 46.5596 0.0000 0.0000 0.0000
# 3 46.5597 46.5596 105.7275 0.0003 -0.0001 -0.0001
# 4 0.0000 0.0000 0.0003 8.1862 0.0000 0.0000
# 5 0.0000 0.0000 -0.0001 0.0000 8.1861 0.0000
# 6 0.0003 0.0000 -0.0001 0.0000 0.0000 39.1276
#
#
#
# Elastic Compliance Matrix: (Units=1/GPa)
#
#
# Indices 1 2 3 4 5 6 
#
# 1 0.011104 -0.001675 -0.004152 0.000000 0.000000 0.000000
# 2 -0.001675 0.011104 -0.004152 0.000000 0.000000 0.000000
# 3 -0.004152 -0.004152 0.013115 0.000000 0.000000 0.000000
# 4 0.000000 0.000000 0.000000 0.122157 0.000001 0.000000
# 5 0.000000 0.000000 0.000000 0.000001 0.122158 0.000000
# 6 0.000000 0.000000 0.000000 0.000000 0.000000 0.025557
#
#
# Mechanical properties :
#
#
# Convention : Reuss Voigt Hill
#
# Bulk Modulus (GPa) = 65.08613 65.12134 65.10374
# Shear Modulus (GPa) = 15.13887 24.66816 19.90351
#
# Velocity S-wave (km/s) = 2.89916 3.70079 3.32423
# Velocity P-wave (km/s) = 6.88061 7.37676 7.13300
#
# Compressibility (1/GPa) = 0.01536426
#
# Stress axis : x y z
#
# Youngs Moduli (GPa) = 90.05868 90.05894 76.24620
#
# Poissons Ratio (x) = 0.15083 0.31660
# Poissons Ratio (y) = 0.15083 0.31660
# Poissons Ratio (z) = 0.37395 0.37395
#
# Static dielectric constant tensor:
#      x y z
#    x 1.630420 0.000000 0.000000 
#    y 0.000000 1.630420 0.000000 
#    z 0.000000 0.000000 1.632940 
# 
# From -- ./inp_files/6771.got.cif
#   From: 2010.05.17/outbox.cif.g08.bks.cpg/sg192_4_cif.got.tgz:6771.got - 2010.05.20 12:28:01.
