data_PCOD9588582
_publ_section_title
;
Structure prediction by ZEFSAII (Michael W. Deem and Ramdas Pophale) SiO2 
 PCOD9588582
Probable space group: P 6/M C C
;
_chemical_formula_sum "Si O2"
_cell_formula_units_Z 104
_cell_length_a 19.293672
_cell_length_b 19.293672
_cell_length_c 15.629494
_cell_angle_alpha 90.000000
_cell_angle_beta 90.000000
_cell_angle_gamma 120.000000
_cell_volume 5038.547208
_symmetry_space_group_name_H-M "P 6/M C C"
_symmetry_group_IT_number 192
_symmetry_cell_setting 'hexagonal'
loop_
_space_group_symop_operation_xyz
x,y,z
x-y,x,z
-y,x-y,z
-x,-y,z
-x+y,-x,z
y,-x+y,z
x-y,-y,1/2-z
-x,-x+y,1/2-z
y,x,1/2-z
-y,-x,1/2-z
-x+y,y,1/2-z
x,x-y,1/2-z
-x,-y,-z
-x+y,-x,-z
y,-x+y,-z
x,y,-z
x-y,x,-z
-y,x-y,-z
-x+y,y,1/2+z
x,x-y,1/2+z
-y,-x,1/2+z
y,x,1/2+z
x-y,-y,1/2+z
-x,-x+y,1/2+z
loop_
_atom_site_type_symbol
_atom_site_label
_atom_site_fract_x
_atom_site_fract_y
_atom_site_fract_z
Si Si1 0.666667 0.333334 0.351485
Si Si2 0.768542 0.103856 0.149690
Si Si3 0.077954 0.491794 0.603160
Si Si4 0.925919 0.670818 0.351411
Si Si5 0.332883 0.518232 0.399044
O O1 0.666668 0.333334 0.250000
O O2 0.721044 0.297209 0.384952
O O3 0.767097 0.085263 0.250691
O O4 0.852691 0.172985 0.112016
O O5 0.711755 0.142551 0.140654
O O6 0.730645 0.014412 0.112384
O O7 0.081875 0.485762 0.500000
O O8 0.081976 0.416407 0.639174
O O9 0.147113 0.577114 0.634913
O O10 0.000000 0.500000 0.621895
O O11 0.336340 0.505482 0.500000
#
# Coordination Sequence:
#
# PCOD9588582 Si02
#       5
#     8  24  24  24  24
#     4  12  28  38  55  84 121 158 202 255 289 362
#     4  10  22  37  60  84 113 151 193 250 295 364
#     4  10  20  36  58  82 114 150 193 240 289 351
#     4  10  21  38  57  85 116 149 197 243 304 354
#     4  11  23  40  57  79 115 161 201 245 299 349
#
# _framework density 20.640871000000001
#
# number of rings (size 3 to 8) (size 9 to 14) (size 15 to 20)
#    0.000    1.615    2.308    2.077    6.462    2.769 
#    0.000    0.000    0.000    0.462    0.000    3.231 
#    0.000    0.000    0.000    4.154    0.000    4.615 
#
# Total GULP energy -580088.336668 kJ/mol
# GULP energy per Si atom -5577.772468 kJ/mol
# Density = 2.059389 g / cm^3
# Si number density = 20.640871 Si / 1000 Ang^3
#
#
#
# Elastic Constant Matrix: (Units=GPa)
#
#
# Indices 1 2 3 4 5 6 
#
# 1 156.1348 92.5981 -4.3397 0.0104 -0.0065 0.0006
# 2 92.5981 156.1366 -4.3402 -0.0019 -0.0040 0.0000
# 3 -4.3397 -4.3402 26.3187 -0.0023 0.0037 -0.0001
# 4 0.0104 -0.0019 -0.0023 167.2518 -0.1192 -0.0012
# 5 -0.0065 -0.0040 0.0037 -0.1192 166.9612 -0.0061
# 6 0.0006 0.0000 -0.0001 -0.0012 -0.0061 31.7679
#
#
#
# Elastic Compliance Matrix: (Units=1/GPa)
#
#
# Indices 1 2 3 4 5 6 
#
# 1 0.009891 -0.005848 0.000667 -0.000001 0.000000 0.000000
# 2 -0.005848 0.009891 0.000667 0.000000 0.000000 0.000000
# 3 0.000667 0.000667 0.038216 0.000000 -0.000001 0.000000
# 4 -0.000001 0.000000 0.000000 0.005979 0.000004 0.000000
# 5 0.000000 0.000000 -0.000001 0.000004 0.005989 0.000001
# 6 0.000000 0.000000 0.000000 0.000000 0.000001 0.031478
#
#
# Mechanical properties :
#
#
# Convention : Reuss Voigt Hill
#
# Bulk Modulus (GPa) = 20.42059 56.26961 38.34510
# Shear Modulus (GPa) = 39.43337 90.17429 64.80383
#
# Velocity S-wave (km/s) = 4.37561 6.61680 5.60928
# Velocity P-wave (km/s) = 5.95338 9.25724 7.78265
#
# Compressibility (1/GPa) = 0.04897019
#
# Stress axis : x y z
#
# Youngs Moduli (GPa) = 101.09967 101.10070 26.16723
#
# Poissons Ratio (x) = 0.59119 -0.01744
# Poissons Ratio (y) = 0.59119 -0.01745
# Poissons Ratio (z) = -0.06740 -0.06743
#
# Static dielectric constant tensor:
#      x y z
#    x 1.795570 0.000000 0.000000 
#    y 0.000000 1.795570 0.000000 
#    z 0.000000 0.000000 1.776480 
# 
# From -- ./inp_files/4887.got.cif
#   From: 2010.05.17/outbox.cif.g08.bks.cpg/sg192_3_cif.got.tgz:4887.got - 2010.05.20 12:28:01.
