data_PCOD9588919
_publ_section_title
;
Structure prediction by ZEFSAII (Michael W. Deem and Ramdas Pophale) SiO2 
 PCOD9588919
Probable space group: P 63/M C M
;
_chemical_formula_sum "Si O2"
_cell_formula_units_Z 64
_cell_length_a 15.715027
_cell_length_b 15.715027
_cell_length_c 13.689577
_cell_angle_alpha 90.000000
_cell_angle_beta 90.000000
_cell_angle_gamma 120.000000
_cell_volume 2927.864161
_symmetry_space_group_name_H-M "P 63/M C M"
_symmetry_group_IT_number 193
_symmetry_cell_setting 'hexagonal'
loop_
_space_group_symop_operation_xyz
x,y,z
x-y,x,1/2+z
-y,x-y,z
-x,-y,1/2+z
-x+y,-x,z
y,-x+y,1/2+z
x-y,-y,1/2-z
-x,-x+y,1/2-z
y,x,1/2-z
-y,-x,-z
-x+y,y,-z
x,x-y,-z
-x,-y,-z
-x+y,-x,1/2-z
y,-x+y,-z
x,y,1/2-z
x-y,x,-z
-y,x-y,1/2-z
-x+y,y,1/2+z
x,x-y,1/2+z
-y,-x,1/2+z
y,x,z
x-y,-y,z
-x,-x+y,z
loop_
_atom_site_type_symbol
_atom_site_label
_atom_site_fract_x
_atom_site_fract_y
_atom_site_fract_z
Si Si1 0.669403 0.782754 0.629911
Si Si2 0.550870 0.313233 0.368348
Si Si3 0.000000 0.000000 0.615293
Si Si4 0.797872 0.797872 0.139562
O O1 0.670337 0.784611 0.750000
O O2 0.736264 0.736264 0.601952
O O3 0.556814 0.716945 0.597499
O O4 0.718137 0.895742 0.597146
O O5 0.584632 0.233613 0.395552
O O6 0.547114 0.314681 0.250000
O O7 0.098792 0.098792 0.644576
O O8 0.000000 0.000000 0.500000
O O9 0.764373 0.764373 0.250000
#
# Coordination Sequence:
#
# PCOD9588919 Si02
#       4
#    24  24   4  12
#     4   9  15  23  38  57  79 114 150 174 212 265
#     4   7  12  23  33  48  83 117 141 176 217 255
#     4  12  22  32  46  63  88 122 148 177 226 263
#     4  10  18  30  46  63  88 117 146 181 218 262
#
# _framework density 21.858937999999998
#
# number of rings (size 3 to 8) (size 9 to 14) (size 15 to 20)
#    0.750    2.625    1.875    0.562    0.000    0.000 
#    3.375    0.000    0.000    0.000    0.000    0.000 
#    0.000    6.000    0.000    0.000    0.000    0.000 
#
# Total GULP energy -356710.531237 kJ/mol
# GULP energy per Si atom -5573.602051 kJ/mol
# Density = 2.180919 g / cm^3
# Si number density = 21.858938 Si / 1000 Ang^3
#
#
#
# Elastic Constant Matrix: (Units=GPa)
#
#
# Indices 1 2 3 4 5 6 
#
# 1 103.9103 58.9262 -8.0034 0.0000 0.0000 0.0000
# 2 58.9262 103.9103 -8.0034 0.0000 0.0000 0.0000
# 3 -8.0034 -8.0034 75.6422 0.0000 0.0000 0.0000
# 4 0.0000 0.0000 0.0000 12.3965 0.0000 0.0000
# 5 0.0000 0.0000 0.0000 0.0000 12.3965 0.0000
# 6 0.0000 0.0000 0.0000 0.0000 0.0000 22.4921
#
#
#
# Elastic Compliance Matrix: (Units=1/GPa)
#
#
# Indices 1 2 3 4 5 6 
#
# 1 0.014218 -0.008012 0.000657 0.000000 0.000000 0.000000
# 2 -0.008012 0.014218 0.000657 0.000000 0.000000 0.000000
# 3 0.000657 0.000657 0.013359 0.000000 0.000000 0.000000
# 4 0.000000 0.000000 0.000000 0.080668 0.000000 0.000000
# 5 0.000000 0.000000 0.000000 0.000000 0.080668 0.000000
# 6 0.000000 0.000000 0.000000 0.000000 0.000000 0.044460
#
#
# Mechanical properties :
#
#
# Convention : Reuss Voigt Hill
#
# Bulk Modulus (GPa) = 35.21519 41.03349 38.12434
# Shear Modulus (GPa) = 18.48738 25.49324 21.99031
#
# Velocity S-wave (km/s) = 2.91135 3.41876 3.17521
# Velocity P-wave (km/s) = 5.23893 5.86486 5.56071
#
# Compressibility (1/GPa) = 0.02839683
#
# Stress axis : x y z
#
# Youngs Moduli (GPa) = 70.33405 70.33405 74.85543
#
# Poissons Ratio (x) = 0.56353 -0.04915
# Poissons Ratio (y) = 0.56353 -0.04915
# Poissons Ratio (z) = -0.04618 -0.04618
#
# Static dielectric constant tensor:
#      x y z
#    x 1.751560 0.000000 0.000000 
#    y 0.000000 1.751560 0.000000 
#    z 0.000000 0.000000 1.888150 
# 
# From -- ./inp_files/5891.got.cif
#   From: 2010.05.17/outbox.cif.g08.bks.cpg/sg193_3_cif.got.tgz:5891.got - 2010.05.20 12:33:02.
