data_PCOD9588931
_publ_section_title
;
Structure prediction by ZEFSAII (Michael W. Deem and Ramdas Pophale) SiO2 
 PCOD9588931
Probable space group: P 63/M C M
;
_chemical_formula_sum "Si O2"
_cell_formula_units_Z 168
_cell_length_a 20.674907
_cell_length_b 20.674907
_cell_length_c 24.378394
_cell_angle_alpha 90.000000
_cell_angle_beta 90.000000
_cell_angle_gamma 120.000000
_cell_volume 9024.493840
_symmetry_space_group_name_H-M "P 63/M C M"
_symmetry_group_IT_number 193
_symmetry_cell_setting 'hexagonal'
loop_
_space_group_symop_operation_xyz
x,y,z
x-y,x,1/2+z
-y,x-y,z
-x,-y,1/2+z
-x+y,-x,z
y,-x+y,1/2+z
x-y,-y,1/2-z
-x,-x+y,1/2-z
y,x,1/2-z
-y,-x,-z
-x+y,y,-z
x,x-y,-z
-x,-y,-z
-x+y,-x,1/2-z
y,-x+y,-z
x,y,1/2-z
x-y,x,-z
-y,x-y,1/2-z
-x+y,y,1/2+z
x,x-y,1/2+z
-y,-x,1/2+z
y,x,z
x-y,-y,z
-x,-x+y,z
loop_
_atom_site_type_symbol
_atom_site_label
_atom_site_fract_x
_atom_site_fract_y
_atom_site_fract_z
Si Si1 0.080729 0.918282 0.066061
Si Si2 0.201622 0.328141 0.415455
Si Si3 0.086446 0.704188 0.922548
Si Si4 0.090859 0.516377 0.864002
Si Si5 0.531479 0.855584 0.685286
Si Si6 0.444081 0.357097 0.471837
Si Si7 0.575325 0.734394 0.812411
O O1 0.085933 0.846179 0.082113
O O2 0.000000 0.903938 0.083562
O O3 0.145635 0.000000 0.084669
O O4 0.081776 0.918224 0.000000
O O5 0.142586 0.352540 0.434755
O O6 0.278715 0.375363 0.448894
O O7 0.224311 0.356294 0.353672
O O8 0.094767 0.690569 0.858715
O O9 0.000000 0.676299 0.934295
O O10 0.110570 0.658850 0.964564
O O11 0.133303 0.598227 0.837602
O O12 0.116993 0.507910 0.925521
O O13 0.113978 0.466256 0.827718
O O14 0.000000 0.481264 0.863498
O O15 0.544968 0.876082 0.750000
O O16 0.524577 0.773983 0.679974
O O17 0.416528 0.416528 0.473424
O O18 0.599642 0.746022 0.750000
#
# Coordination Sequence:
#
# PCOD9588931 Si02
#       7
#    24  24  24  24  24  24  24
#     4  10  19  30  46  70 101 135 171 212 261 321
#     4  10  18  30  50  72  98 134 170 210 262 315
#     4  10  19  30  47  72 101 132 166 208 257 307
#     4  10  20  35  57  81 104 135 175 218 264 316
#     4  10  21  36  52  73 103 138 172 208 254 307
#     4   9  18  31  48  74 102 127 164 213 262 308
#     4   9  20  37  53  76 107 134 170 218 265 310
#
# _framework density 18.616002000000002
#
# number of rings (size 3 to 8) (size 9 to 14) (size 15 to 20)
#    0.000    2.286    0.000    3.143    0.000    6.000 
#    0.857    2.143    0.000    1.286    0.000    0.000 
#    0.000    1.143    0.000    0.000    0.000    0.000 
#
# Total GULP energy -935279.042852 kJ/mol
# GULP energy per Si atom -5567.137160 kJ/mol
# Density = 1.857363 g / cm^3
# Si number density = 18.616002 Si / 1000 Ang^3
#
#
#
# Elastic Constant Matrix: (Units=GPa)
#
#
# Indices 1 2 3 4 5 6 
#
# 1 48.7209 19.7398 7.6843 0.0000 0.0000 0.0000
# 2 19.7398 48.7209 7.6843 0.0000 0.0000 0.0000
# 3 7.6843 7.6843 81.2377 0.0000 0.0000 0.0000
# 4 0.0000 0.0000 0.0000 5.7931 0.0000 0.0000
# 5 0.0000 0.0000 0.0000 0.0000 5.7931 0.0000
# 6 0.0000 0.0000 0.0000 0.0000 0.0000 14.4905
#
#
#
# Elastic Compliance Matrix: (Units=1/GPa)
#
#
# Indices 1 2 3 4 5 6 
#
# 1 0.024715 -0.009791 -0.001412 0.000000 0.000000 0.000000
# 2 -0.009791 0.024715 -0.001412 0.000000 0.000000 0.000000
# 3 -0.001412 -0.001412 0.012577 0.000000 0.000000 0.000000
# 4 0.000000 0.000000 0.000000 0.172620 0.000000 0.000000
# 5 0.000000 0.000000 0.000000 0.000000 0.172620 0.000000
# 6 0.000000 0.000000 0.000000 0.000000 0.000000 0.069011
#
#
# Mechanical properties :
#
#
# Convention : Reuss Voigt Hill
#
# Bulk Modulus (GPa) = 27.19044 27.65516 27.42280
# Shear Modulus (GPa) = 9.73248 14.78673 12.25961
#
# Velocity S-wave (km/s) = 2.28897 2.82139 2.56901
# Velocity P-wave (km/s) = 4.65011 5.04990 4.85412
#
# Compressibility (1/GPa) = 0.03677763
#
# Stress axis : x y z
#
# Youngs Moduli (GPa) = 40.46201 40.46201 79.51261
#
# Poissons Ratio (x) = 0.39615 0.11224
# Poissons Ratio (y) = 0.39615 0.11224
# Poissons Ratio (z) = 0.05712 0.05712
#
# Static dielectric constant tensor:
#      x y z
#    x 1.665390 0.000000 0.000000 
#    y 0.000000 1.665390 0.000000 
#    z 0.000000 0.000000 1.673450 
# 
# From -- ./inp_files/7709.got.cif
#   From: 2010.05.17/outbox.cif.g08.bks.cpg/sg193_4_cif.got.tgz:7709.got - 2010.05.20 12:33:02.
