data_PCOD9588327
_publ_section_title
;
Structure prediction by ZEFSAII (Michael W. Deem and Ramdas Pophale) SiO2 
 PCOD9588327
Probable space group: P 6/M C C
;
_chemical_formula_sum "Si O2"
_cell_formula_units_Z 144
_cell_length_a 30.723592
_cell_length_b 30.723592
_cell_length_c 8.981258
_cell_angle_alpha 90.000000
_cell_angle_beta 90.000000
_cell_angle_gamma 120.000000
_cell_volume 7341.956083
_symmetry_space_group_name_H-M "P 6/M C C"
_symmetry_group_IT_number 192
_symmetry_cell_setting 'hexagonal'
loop_
_space_group_symop_operation_xyz
x,y,z
x-y,x,z
-y,x-y,z
-x,-y,z
-x+y,-x,z
y,-x+y,z
x-y,-y,1/2-z
-x,-x+y,1/2-z
y,x,1/2-z
-y,-x,1/2-z
-x+y,y,1/2-z
x,x-y,1/2-z
-x,-y,-z
-x+y,-x,-z
y,-x+y,-z
x,y,-z
x-y,x,-z
-y,x-y,-z
-x+y,y,1/2+z
x,x-y,1/2+z
-y,-x,1/2+z
y,x,1/2+z
x-y,-y,1/2+z
-x,-x+y,1/2+z
loop_
_atom_site_type_symbol
_atom_site_label
_atom_site_fract_x
_atom_site_fract_y
_atom_site_fract_z
Si Si1 0.236480 0.666822 0.182762
Si Si2 0.140880 0.464644 0.328760
Si Si3 0.865219 0.814753 0.334126
Si Si4 0.944745 0.644907 0.679690
Si Si5 0.522557 0.953708 0.170064
Si Si6 0.803826 0.109200 0.829997
O O1 0.288929 0.711072 0.250000
O O2 0.226923 0.613462 0.250000
O O3 0.192511 0.679892 0.227695
O O4 0.237746 0.665160 0.000000
O O5 0.151851 0.457159 0.500000
O O6 0.104083 0.408192 0.266340
O O7 0.100038 0.482555 0.326169
O O8 0.829211 0.829211 0.250000
O O9 0.917184 0.834368 0.250000
O O10 0.873607 0.834785 0.500000
O O11 0.838517 0.754518 0.340320
O O12 0.948498 0.641201 0.500000
O O13 0.927340 0.683822 0.729828
O O14 0.000000 0.664364 0.750000
O O15 0.474488 0.948976 0.250000
O O16 0.569770 0.000000 0.250000
O O17 0.525452 0.968496 0.000000
O O18 0.837077 0.162924 0.750000
O O19 0.789435 0.114017 0.000000
#
# Coordination Sequence:
#
# PCOD9588327 Si02
#       6
#    24  24  24  24  24  24
#     4  11  23  43  67  93 120 151 190 239 300 368
#     4   9  21  38  57  81 113 148 188 235 282 336
#     4  10  20  34  54  79 109 142 182 229 281 334
#     4  11  22  38  58  84 120 164 209 255 302 359
#     4  10  18  31  50  75 105 139 176 218 263 312
#     4  10  21  37  57  83 113 151 197 250 305 358
#
# _framework density 19.613302999999998
#
# number of rings (size 3 to 8) (size 9 to 14) (size 15 to 20)
#    0.000    1.833    0.000    4.667    0.000    4.000 
#    0.000   10.000    0.000    0.167    0.000    1.167 
#    0.000    0.000    0.000    0.000    0.000    0.000 
#
# Total GULP energy -801751.301241 kJ/mol
# GULP energy per Si atom -5567.717370 kJ/mol
# Density = 1.956866 g / cm^3
# Si number density = 19.613303 Si / 1000 Ang^3
#
#
#
# Elastic Constant Matrix: (Units=GPa)
#
#
# Indices 1 2 3 4 5 6 
#
# 1 -141.5804 228.4367 28.1304 0.0000 0.0000 0.0000
# 2 228.4367 -141.5804 28.1304 0.0000 0.0000 0.0000
# 3 28.1304 28.1304 106.3671 0.0000 0.0000 0.0000
# 4 0.0000 0.0000 0.0000 27.0802 0.0000 0.0000
# 5 0.0000 0.0000 0.0000 0.0000 27.0802 0.0000
# 6 0.0000 0.0000 0.0000 0.0000 0.0000 -185.0085
#
#
#
# Elastic Compliance Matrix: (Units=1/GPa)
#
#
# Indices 1 2 3 4 5 6 
#
# 1 0.005595 0.008298 -0.003674 0.000000 0.000000 0.000000
# 2 0.008298 0.005595 -0.003674 0.000000 0.000000 0.000000
# 3 -0.003674 -0.003674 0.011345 0.000000 0.000000 0.000000
# 4 0.000000 0.000000 0.000000 0.036927 0.000000 0.000000
# 5 0.000000 0.000000 0.000000 0.000000 0.036927 0.000000
# 6 0.000000 0.000000 0.000000 0.000000 0.000000 -0.005405
#
#
# Mechanical properties :
#
#
# Convention : Reuss Voigt Hill
#
# Bulk Modulus (GPa) = 40.92616 43.62234 42.27425
# Shear Modulus (GPa) = 51.42382 -56.93572 -2.75595
#
# Velocity S-wave (km/s) = 5.12599 -5.39371 -1.18667
# Velocity P-wave (km/s) = 7.47972 4.06203 4.44107
#
# Compressibility (1/GPa) = 0.02443425
#
# Stress axis : x y z
#
# Youngs Moduli (GPa) = 178.72004 178.72004 88.14578
#
# Poissons Ratio (x) = -1.48300 0.32387
# Poissons Ratio (y) = -1.48300 0.32387
# Poissons Ratio (z) = 0.65667 0.65667
#
# Static dielectric constant tensor:
#      x y z
#    x 1.750170 0.000000 0.000000 
#    y 0.000000 1.750170 0.000000 
#    z 0.000000 0.000000 1.563710 
# 
# From -- ./inp_files/1130.got.cif
#   From: 2010.05.17/outbox.cif.g08.bks.cpg/sg192_1_cif.got.tgz:1130.got - 2010.05.20 12:28:01.
