data_PCOD9588385
_publ_section_title
;
Structure prediction by ZEFSAII (Michael W. Deem and Ramdas Pophale) SiO2 
 PCOD9588385
Probable space group: P 6/M C C
;
_chemical_formula_sum "Si O2"
_cell_formula_units_Z 144
_cell_length_a 33.434015
_cell_length_b 33.434015
_cell_length_c 8.672279
_cell_angle_alpha 90.000000
_cell_angle_beta 90.000000
_cell_angle_gamma 120.000000
_cell_volume 8395.391223
_symmetry_space_group_name_H-M "P 6/M C C"
_symmetry_group_IT_number 192
_symmetry_cell_setting 'hexagonal'
loop_
_space_group_symop_operation_xyz
x,y,z
x-y,x,z
-y,x-y,z
-x,-y,z
-x+y,-x,z
y,-x+y,z
x-y,-y,1/2-z
-x,-x+y,1/2-z
y,x,1/2-z
-y,-x,1/2-z
-x+y,y,1/2-z
x,x-y,1/2-z
-x,-y,-z
-x+y,-x,-z
y,-x+y,-z
x,y,-z
x-y,x,-z
-y,x-y,-z
-x+y,y,1/2+z
x,x-y,1/2+z
-y,-x,1/2+z
y,x,1/2+z
x-y,-y,1/2+z
-x,-x+y,1/2+z
loop_
_atom_site_type_symbol
_atom_site_label
_atom_site_fract_x
_atom_site_fract_y
_atom_site_fract_z
Si Si1 0.703954 0.809118 0.185394
Si Si2 0.658062 0.951144 0.685619
Si Si3 0.385677 0.860844 0.314981
Si Si4 0.615015 0.049961 0.185345
Si Si5 0.861698 0.810778 0.315015
Si Si6 0.243864 0.576707 0.685307
O O1 0.690888 0.845444 0.250000
O O2 0.669938 0.757245 0.238445
O O3 0.757162 0.827190 0.231175
O O4 0.703161 0.810147 0.000000
O O5 0.659415 0.952665 0.500000
O O6 0.609104 0.945010 0.733305
O O7 0.696730 0.000000 0.750000
O O8 0.431669 0.863338 0.250000
O O9 0.387545 0.864193 0.500000
O O10 0.384492 0.904738 0.247034
O O11 0.345094 0.808593 0.274328
O O12 0.575895 0.000000 0.250000
O O13 0.611671 0.048507 0.000000
O O14 0.842589 0.842589 0.250000
O O15 0.911573 0.823145 0.250000
O O16 0.863448 0.813106 0.500000
O O17 0.284570 0.569140 0.750000
O O18 0.249581 0.624791 0.750000
O O19 0.247217 0.579994 0.500000
#
# Coordination Sequence:
#
# PCOD9588385 Si02
#       6
#    24  24  24  24  24  24
#     4   9  18  31  47  70  99 129 162 199 240 287
#     4   9  18  32  50  72  97 127 163 202 244 290
#     4  10  21  37  56  79 106 136 172 214 260 306
#     4  10  20  35  55  77 103 134 170 213 258 306
#     4  10  19  31  48  70  96 125 158 197 241 288
#     4  10  20  34  54  79 108 140 174 212 253 302
#
# _framework density 17.152267999999999
#
# number of rings (size 3 to 8) (size 9 to 14) (size 15 to 20)
#    0.000    2.333    0.000    2.667    0.000    4.333 
#    0.000    2.500    0.000    4.167    0.000    1.167 
#    0.000    0.000    0.000    0.000    0.000    0.000 
#
# Total GULP energy -803003.483732 kJ/mol
# GULP energy per Si atom -5576.413081 kJ/mol
# Density = 1.711323 g / cm^3
# Si number density = 17.152268 Si / 1000 Ang^3
#
#
#
# Elastic Constant Matrix: (Units=GPa)
#
#
# Indices 1 2 3 4 5 6 
#
# 1 123.5420 74.7881 36.6484 0.0000 0.0000 0.0000
# 2 74.7881 123.5420 36.6484 0.0000 0.0000 0.0000
# 3 36.6484 36.6484 41.8858 0.0000 0.0000 0.0000
# 4 0.0000 0.0000 0.0000 24.1394 0.0000 0.0000
# 5 0.0000 0.0000 0.0000 0.0000 24.1394 0.0000
# 6 0.0000 0.0000 0.0000 0.0000 0.0000 24.3769
#
#
#
# Elastic Compliance Matrix: (Units=1/GPa)
#
#
# Indices 1 2 3 4 5 6 
#
# 1 0.013981 -0.006530 -0.006520 0.000000 0.000000 0.000000
# 2 -0.006530 0.013981 -0.006520 0.000000 0.000000 0.000000
# 3 -0.006520 -0.006520 0.035284 0.000000 0.000000 0.000000
# 4 0.000000 0.000000 0.000000 0.041426 0.000000 0.000000
# 5 0.000000 0.000000 0.000000 0.000000 0.041426 0.000000
# 6 0.000000 0.000000 0.000000 0.000000 0.000000 0.041022
#
#
# Mechanical properties :
#
#
# Convention : Reuss Voigt Hill
#
# Bulk Modulus (GPa) = 41.48094 65.01552 53.24823
# Shear Modulus (GPa) = 21.34053 23.92348 22.63200
#
# Velocity S-wave (km/s) = 3.53112 3.73871 3.63640
# Velocity P-wave (km/s) = 6.39230 7.52493 6.98162
#
# Compressibility (1/GPa) = 0.02410746
#
# Stress axis : x y z
#
# Youngs Moduli (GPa) = 71.52343 71.52343 28.34163
#
# Poissons Ratio (x) = 0.46703 0.18479
# Poissons Ratio (y) = 0.46703 0.18479
# Poissons Ratio (z) = 0.46633 0.46633
#
# Static dielectric constant tensor:
#      x y z
#    x 1.574790 0.000000 0.000000 
#    y 0.000000 1.574790 0.000000 
#    z 0.000000 0.000000 1.517530 
# 
# From -- ./inp_files/1141.got.cif
#   From: 2010.05.17/outbox.cif.g08.bks.cpg/sg192_1_cif.got.tgz:1141.got - 2010.05.20 12:28:01.
