data_PCOD9588113
_publ_section_title
;
Structure prediction by ZEFSAII (Michael W. Deem and Ramdas Pophale) SiO2 
 PCOD9588113
Probable space group: P 6/M M M
;
_chemical_formula_sum "Si O2"
_cell_formula_units_Z 144
_cell_length_a 23.119851
_cell_length_b 23.119851
_cell_length_c 16.997893
_cell_angle_alpha 90.000000
_cell_angle_beta 90.000000
_cell_angle_gamma 120.000000
_cell_volume 7868.569489
_symmetry_space_group_name_H-M "P 6/M M M"
_symmetry_group_IT_number 191
_symmetry_cell_setting 'hexagonal'
loop_
_space_group_symop_operation_xyz
x,y,z
x-y,x,z
-y,x-y,z
-x,-y,z
-x+y,-x,z
y,-x+y,z
x-y,-y,-z
-x,-x+y,-z
y,x,-z
-y,-x,-z
-x+y,y,-z
x,x-y,-z
-x,-y,-z
-x+y,-x,-z
y,-x+y,-z
x,y,-z
x-y,x,-z
-y,x-y,-z
-x+y,y,z
x,x-y,z
-y,-x,z
y,x,z
x-y,-y,z
-x,-x+y,z
loop_
_atom_site_type_symbol
_atom_site_label
_atom_site_fract_x
_atom_site_fract_y
_atom_site_fract_z
Si Si1 0.923551 0.319606 0.910102
Si Si2 0.200145 0.666648 0.130103
Si Si3 0.075583 0.280975 0.813496
Si Si4 0.206937 0.282212 0.376474
Si Si5 0.466722 0.799887 0.320191
Si Si6 0.417484 0.076654 0.409250
O O1 0.868945 0.341726 0.900111
O O2 0.908218 0.259368 0.851224
O O3 0.000000 0.377155 0.895064
O O4 0.920661 0.296591 0.000000
O O5 0.209501 0.604751 0.106803
O O6 0.263146 0.736855 0.104487
O O7 0.197606 0.667667 0.225337
O O8 0.131703 0.263406 0.837664
O O9 0.076920 0.286101 0.718832
O O10 0.000000 0.228064 0.837374
O O11 0.134940 0.269880 0.401704
O O12 0.226735 0.226735 0.399615
O O13 0.266599 0.353123 0.405506
O O14 0.394532 0.789064 0.342862
O O15 0.474861 0.737431 0.345948
O O16 0.524482 0.868404 0.356171
O O17 0.439388 0.083383 0.500000
O O18 0.390298 0.000000 0.383618
#
# Coordination Sequence:
#
# PCOD9588113 Si02
#       6
#    24  24  24  24  24  24
#     4  10  21  35  51  74 103 131 160 200 249 294
#     4  10  21  37  56  76  99 129 165 203 242 287
#     4   9  17  30  49  72  98 129 165 203 243 290
#     4   9  17  30  49  72  98 129 165 203 243 290
#     4  10  21  37  56  76  99 129 165 203 242 287
#     4  10  21  35  51  74 103 131 160 200 249 294
#
# _framework density 18.300657999999999
#
# number of rings (size 3 to 8) (size 9 to 14) (size 15 to 20)
#    0.000    2.333    0.000    2.333    0.000   10.000 
#    0.000    3.333    0.000    2.333    0.000    2.333 
#    0.000    0.000    0.000    8.333    0.000    8.667 
#
# Total GULP energy -803797.367269 kJ/mol
# GULP energy per Si atom -5581.926162 kJ/mol
# Density = 1.825900 g / cm^3
# Si number density = 18.300658 Si / 1000 Ang^3
#
#
#
# Elastic Constant Matrix: (Units=GPa)
#
#
# Indices 1 2 3 4 5 6 
#
# 1 86.9988 51.0970 25.5056 0.0000 0.0000 0.0000
# 2 51.0970 86.9988 25.5056 0.0000 0.0000 0.0000
# 3 25.5056 25.5056 28.8500 0.0000 0.0000 0.0000
# 4 0.0000 0.0000 0.0000 -2.4776 0.0000 0.0000
# 5 0.0000 0.0000 0.0000 0.0000 -2.4776 0.0000
# 6 0.0000 0.0000 0.0000 0.0000 0.0000 17.9509
#
#
#
# Elastic Compliance Matrix: (Units=1/GPa)
#
#
# Indices 1 2 3 4 5 6 
#
# 1 0.019303 -0.008550 -0.009506 0.000000 0.000000 0.000000
# 2 -0.008550 0.019303 -0.009506 0.000000 0.000000 0.000000
# 3 -0.009506 -0.009506 0.051471 0.000000 0.000000 0.000000
# 4 0.000000 0.000000 0.000000 -0.403622 0.000000 0.000000
# 5 0.000000 0.000000 0.000000 0.000000 -0.403622 0.000000
# 6 0.000000 0.000000 0.000000 0.000000 0.000000 0.055708
#
#
# Mechanical properties :
#
#
# Convention : Reuss Voigt Hill
#
# Bulk Modulus (GPa) = 28.61141 45.22932 36.92036
# Shear Modulus (GPa) = -8.40785 9.31512 0.45364
#
# Velocity S-wave (km/s) = -2.14575 2.25856 0.49842
# Velocity P-wave (km/s) = 3.08691 5.61869 4.53314
#
# Compressibility (1/GPa) = 0.03495110
#
# Stress axis : x y z
#
# Youngs Moduli (GPa) = 51.80455 51.80455 19.42849
#
# Poissons Ratio (x) = 0.44295 0.18469
# Poissons Ratio (y) = 0.44295 0.18469
# Poissons Ratio (z) = 0.49247 0.49247
#
# Static dielectric constant tensor:
#      x y z
#    x 1.612220 0.000000 0.000000 
#    y 0.000000 1.612220 0.000000 
#    z 0.000000 0.000000 1.648270 
# 
# From -- ./inp_files/7614.got.cif
#   From: 2010.05.17/outbox.cif.g08.bks.cpg/sg191_4_cif.got.tgz:7614.got - 2010.05.20 12:20:32.
