data_PCOD9588946
_publ_section_title
;
Structure prediction by ZEFSAII (Michael W. Deem and Ramdas Pophale) SiO2 
 PCOD9588946
Probable space group: P 63/M C M
;
_chemical_formula_sum "Si O2"
_cell_formula_units_Z 96
_cell_length_a 25.668468
_cell_length_b 25.668468
_cell_length_c 9.935579
_cell_angle_alpha 90.000000
_cell_angle_beta 90.000000
_cell_angle_gamma 120.000000
_cell_volume 5669.225221
_symmetry_space_group_name_H-M "P 63/M C M"
_symmetry_group_IT_number 193
_symmetry_cell_setting 'hexagonal'
loop_
_space_group_symop_operation_xyz
x,y,z
x-y,x,1/2+z
-y,x-y,z
-x,-y,1/2+z
-x+y,-x,z
y,-x+y,1/2+z
x-y,-y,1/2-z
-x,-x+y,1/2-z
y,x,1/2-z
-y,-x,-z
-x+y,y,-z
x,x-y,-z
-x,-y,-z
-x+y,-x,1/2-z
y,-x+y,-z
x,y,1/2-z
x-y,x,-z
-y,x-y,1/2-z
-x+y,y,1/2+z
x,x-y,1/2+z
-y,-x,1/2+z
y,x,z
x-y,-y,z
-x,-x+y,z
loop_
_atom_site_type_symbol
_atom_site_label
_atom_site_fract_x
_atom_site_fract_y
_atom_site_fract_z
Si Si1 0.352561 0.485073 0.012592
Si Si2 0.704092 0.704092 0.906255
Si Si3 0.422121 0.000000 0.590507
Si Si4 0.362568 0.130376 0.910527
Si Si5 0.322046 0.785006 0.250000
Si Si6 0.787669 0.347865 0.750000
O O1 0.405290 0.467834 0.016545
O O2 0.292926 0.425851 0.066000
O O3 0.366447 0.536055 0.121035
O O4 0.334886 0.505948 0.876591
O O5 0.719235 0.719235 0.750000
O O6 0.641092 0.641092 0.909105
O O7 0.753199 0.688822 0.960529
O O8 0.437919 0.000000 0.750000
O O9 0.356513 0.136939 0.750000
O O10 0.361564 0.180782 0.000000
O O11 0.368578 0.759929 0.250000
O O12 0.257489 0.723984 0.250000
#
# Coordination Sequence:
#
# PCOD9588946 Si02
#       6
#    24  12  12  24  12  12
#     4  11  22  38  61  82 107 137 176 214 266 329
#     4   7  14  28  46  71 102 138 172 202 253 317
#     4   9  16  37  62  81 109 144 162 205 273 334
#     4  10  18  31  53  77 103 138 176 214 258 311
#     4  12  27  39  61  83 107 137 182 230 266 313
#     4  12  23  45  57  79 107 143 176 220 276 317
#
# _framework density 16.933530999999999
#
# number of rings (size 3 to 8) (size 9 to 14) (size 15 to 20)
#    0.000    1.750    2.500    4.750    1.750    0.500 
#    0.000    6.875    0.000    0.000    0.000    0.000 
#    0.000    0.000    0.000    0.375    0.000    4.500 
#
# Total GULP energy -535169.170147 kJ/mol
# GULP energy per Si atom -5574.678856 kJ/mol
# Density = 1.689499 g / cm^3
# Si number density = 16.933531 Si / 1000 Ang^3
#
#
#
# Elastic Constant Matrix: (Units=GPa)
#
#
# Indices 1 2 3 4 5 6 
#
# 1 74.1679 40.9814 19.5864 0.0000 0.0000 0.0000
# 2 40.9814 74.1679 19.5864 0.0000 0.0000 0.0000
# 3 19.5864 19.5864 82.4990 0.0000 0.0000 0.0000
# 4 0.0000 0.0000 0.0000 12.6813 0.0000 0.0000
# 5 0.0000 0.0000 0.0000 0.0000 12.6813 0.0000
# 6 0.0000 0.0000 0.0000 0.0000 0.0000 16.5933
#
#
#
# Elastic Compliance Matrix: (Units=1/GPa)
#
#
# Indices 1 2 3 4 5 6 
#
# 1 0.019790 -0.010343 -0.002243 0.000000 0.000000 0.000000
# 2 -0.010343 0.019790 -0.002243 0.000000 0.000000 0.000000
# 3 -0.002243 -0.002243 0.013186 0.000000 0.000000 0.000000
# 4 0.000000 0.000000 0.000000 0.078856 0.000000 0.000000
# 5 0.000000 0.000000 0.000000 0.000000 0.078856 0.000000
# 6 0.000000 0.000000 0.000000 0.000000 0.000000 0.060265
#
#
# Mechanical properties :
#
#
# Convention : Reuss Voigt Hill
#
# Bulk Modulus (GPa) = 43.27243 43.46036 43.36640
# Shear Modulus (GPa) = 16.22828 18.43657 17.33242
#
# Velocity S-wave (km/s) = 3.09908 3.30322 3.20278
# Velocity P-wave (km/s) = 6.19803 6.34581 6.27235
#
# Compressibility (1/GPa) = 0.02310940
#
# Stress axis : x y z
#
# Youngs Moduli (GPa) = 50.53045 50.53045 75.83590
#
# Poissons Ratio (x) = 0.52262 0.17010
# Poissons Ratio (y) = 0.52262 0.17010
# Poissons Ratio (z) = 0.11334 0.11334
#
# Static dielectric constant tensor:
#      x y z
#    x 1.593670 0.000000 0.000000 
#    y 0.000000 1.593670 0.000000 
#    z 0.000000 0.000000 1.634630 
# 
# From -- ./inp_files/2335.got.cif
#   From: 2010.05.17/outbox.cif.g08.bks.cpg/sg193_2_cif.got.tgz:2335.got - 2010.05.20 12:33:02.
