data_PCOD9588541
_publ_section_title
;
Structure prediction by ZEFSAII (Michael W. Deem and Ramdas Pophale) SiO2 
 PCOD9588541
Probable space group: P 6/M C C
;
_chemical_formula_sum "Si O2"
_cell_formula_units_Z 144
_cell_length_a 20.964177
_cell_length_b 20.964177
_cell_length_c 22.621991
_cell_angle_alpha 90.000000
_cell_angle_beta 90.000000
_cell_angle_gamma 120.000000
_cell_volume 8610.276390
_symmetry_space_group_name_H-M "P 6/M C C"
_symmetry_group_IT_number 192
_symmetry_cell_setting 'hexagonal'
loop_
_space_group_symop_operation_xyz
x,y,z
x-y,x,z
-y,x-y,z
-x,-y,z
-x+y,-x,z
y,-x+y,z
x-y,-y,1/2-z
-x,-x+y,1/2-z
y,x,1/2-z
-y,-x,1/2-z
-x+y,y,1/2-z
x,x-y,1/2-z
-x,-y,-z
-x+y,-x,-z
y,-x+y,-z
x,y,-z
x-y,x,-z
-y,x-y,-z
-x+y,y,1/2+z
x,x-y,1/2+z
-y,-x,1/2+z
y,x,1/2+z
x-y,-y,1/2+z
-x,-x+y,1/2+z
loop_
_atom_site_type_symbol
_atom_site_label
_atom_site_fract_x
_atom_site_fract_y
_atom_site_fract_z
Si Si1 0.287964 0.569895 0.500000
Si Si2 0.266377 0.477058 0.382392
Si Si3 0.943148 0.697153 0.570815
Si Si4 0.436126 0.326285 0.653702
Si Si5 0.539305 0.123652 0.686733
Si Si6 0.316248 0.207261 0.928615
Si Si7 0.603837 0.000000 0.750000
O O1 0.375815 0.629626 0.500000
O O2 0.266900 0.520684 0.441389
O O3 0.195869 0.461428 0.343262
O O4 0.342823 0.521016 0.348240
O O5 0.254002 0.397852 0.402079
O O6 0.942744 0.692131 0.500000
O O7 0.922047 0.618415 0.598406
O O8 0.877459 0.712429 0.588053
O O9 0.024605 0.758338 0.589903
O O10 0.510584 0.405045 0.651736
O O11 0.390683 0.330774 0.709736
O O12 0.578026 0.156052 0.750000
O O13 0.464050 0.050403 0.706171
O O14 0.322277 0.211663 0.000000
#
# Coordination Sequence:
#
# PCOD9588541 Si02
#       7
#    12  24  24  24  24  24  12
#     4  10  22  36  52  72 112 145 178 235 292 332
#     4  11  20  35  55  78 104 144 185 227 283 347
#     4   9  18  32  53  80 108 138 175 223 273 332
#     4  10  20  34  55  75 102 139 179 231 276 332
#     4  10  21  36  53  72 101 139 184 226 280 331
#     4   9  17  31  51  78 107 137 174 216 268 335
#     4  10  21  38  54  72 100 138 178 239 286 323
#
# _framework density 16.724202999999999
#
# number of rings (size 3 to 8) (size 9 to 14) (size 15 to 20)
#    0.167    2.000    0.833    4.250    1.167    2.667 
#    2.500    0.000    0.000    3.333    0.000    2.333 
#    0.000    0.000    0.000    0.000    0.000   30.667 
#
# Total GULP energy -802281.173211 kJ/mol
# GULP energy per Si atom -5571.397036 kJ/mol
# Density = 1.668614 g / cm^3
# Si number density = 16.724203 Si / 1000 Ang^3
#
#
#
# Elastic Constant Matrix: (Units=GPa)
#
#
# Indices 1 2 3 4 5 6 
#
# 1 95.6731 49.6648 37.2870 0.0000 0.0000 0.0000
# 2 49.6648 95.6731 37.2870 0.0000 0.0000 0.0000
# 3 37.2870 37.2870 43.5939 0.0000 0.0000 0.0000
# 4 0.0000 0.0000 0.0000 19.3448 0.0000 0.0000
# 5 0.0000 0.0000 0.0000 0.0000 19.3448 0.0000
# 6 0.0000 0.0000 0.0000 0.0000 0.0000 23.0041
#
#
#
# Elastic Compliance Matrix: (Units=1/GPa)
#
#
# Indices 1 2 3 4 5 6 
#
# 1 0.016999 -0.004737 -0.010488 0.000000 0.000000 0.000000
# 2 -0.004737 0.016999 -0.010488 0.000000 0.000000 0.000000
# 3 -0.010488 -0.010488 0.040880 0.000000 0.000000 0.000000
# 4 0.000000 0.000000 0.000000 0.051694 0.000000 0.000000
# 5 0.000000 0.000000 0.000000 0.000000 0.051694 0.000000
# 6 0.000000 0.000000 0.000000 0.000000 0.000000 0.043470
#
#
# Mechanical properties :
#
#
# Convention : Reuss Voigt Hill
#
# Bulk Modulus (GPa) = 42.63977 53.71309 48.17643
# Shear Modulus (GPa) = 17.79500 19.71882 18.75691
#
# Velocity S-wave (km/s) = 3.26548 3.43747 3.35258
# Velocity P-wave (km/s) = 6.30627 6.92399 6.62234
#
# Compressibility (1/GPa) = 0.02345228
#
# Stress axis : x y z
#
# Youngs Moduli (GPa) = 58.82833 58.82833 24.46163
#
# Poissons Ratio (x) = 0.27865 0.25655
# Poissons Ratio (y) = 0.27865 0.25655
# Poissons Ratio (z) = 0.61699 0.61699
#
# Static dielectric constant tensor:
#      x y z
#    x 1.574260 0.000000 0.000000 
#    y 0.000000 1.574260 0.000000 
#    z 0.000000 0.000000 1.573820 
# 
# From -- ./inp_files/5163.got.cif
#   From: 2010.05.17/outbox.cif.g08.bks.cpg/sg192_3_cif.got.tgz:5163.got - 2010.05.20 12:28:01.
