data_PCOD9588460
_publ_section_title
;
Structure prediction by ZEFSAII (Michael W. Deem and Ramdas Pophale) SiO2 
 PCOD9588460
Probable space group: P 6/M C C
;
_chemical_formula_sum "Si O2"
_cell_formula_units_Z 192
_cell_length_a 26.097146
_cell_length_b 26.097146
_cell_length_c 18.391365
_cell_angle_alpha 90.000000
_cell_angle_beta 90.000000
_cell_angle_gamma 120.000000
_cell_volume 10847.524152
_symmetry_space_group_name_H-M "P 6/M C C"
_symmetry_group_IT_number 192
_symmetry_cell_setting 'hexagonal'
loop_
_space_group_symop_operation_xyz
x,y,z
x-y,x,z
-y,x-y,z
-x,-y,z
-x+y,-x,z
y,-x+y,z
x-y,-y,1/2-z
-x,-x+y,1/2-z
y,x,1/2-z
-y,-x,1/2-z
-x+y,y,1/2-z
x,x-y,1/2-z
-x,-y,-z
-x+y,-x,-z
y,-x+y,-z
x,y,-z
x-y,x,-z
-y,x-y,-z
-x+y,y,1/2+z
x,x-y,1/2+z
-y,-x,1/2+z
y,x,1/2+z
x-y,-y,1/2+z
-x,-x+y,1/2+z
loop_
_atom_site_type_symbol
_atom_site_label
_atom_site_fract_x
_atom_site_fract_y
_atom_site_fract_z
Si Si1 0.667533 0.729072 0.917203
Si Si2 0.356712 0.173757 0.335398
Si Si3 0.434613 0.448206 0.672293
Si Si4 0.630049 0.530327 0.915516
Si Si5 0.195303 0.543464 0.705541
Si Si6 0.525927 0.884062 0.578611
Si Si7 0.075043 0.735433 0.084430
Si Si8 0.495290 0.222529 0.344258
O O1 0.672839 0.780276 0.865554
O O2 0.596895 0.684544 0.921495
O O3 0.699931 0.693471 0.891928
O O4 0.686794 0.750261 0.000000
O O5 0.352621 0.176311 0.250000
O O6 0.326268 0.207572 0.370851
O O7 0.427628 0.207325 0.353249
O O8 0.500000 0.500000 0.682051
O O9 0.414683 0.414683 0.750000
O O10 0.442127 0.410644 0.608470
O O11 0.399653 0.480147 0.645133
O O12 0.626022 0.483929 0.853639
O O13 0.693721 0.589360 0.911415
O O14 0.619859 0.509697 0.000000
O O15 0.202936 0.601468 0.750000
O O16 0.249983 0.542514 0.662459
O O17 0.190694 0.499014 0.770120
O O18 0.508168 0.896370 0.500000
O O19 0.494666 0.814410 0.593306
O O20 0.075009 0.750108 0.000000
#
# Coordination Sequence:
#
# PCOD9588460 Si02
#       8
#    24  24  24  24  24  24  24  24
#     4   9  19  34  51  78 112 148 188 226 277 338
#     4  11  19  33  55  81 115 146 188 240 279 339
#     4  11  24  37  53  78 113 152 174 215 271 344
#     4  11  22  37  57  83 111 143 186 228 277 342
#     4  11  23  41  60  78 110 142 182 235 290 352
#     4  10  20  36  58  82 111 142 179 231 281 333
#     4  10  19  35  56  80 113 152 191 233 283 337
#     4  10  21  40  57  83 106 136 189 225 282 354
#
# _framework density 17.699891999999998
#
# number of rings (size 3 to 8) (size 9 to 14) (size 15 to 20)
#    0.000    1.625    3.750    1.500    3.500    3.500 
#    3.000    0.000    0.000    0.750    0.000    0.000 
#    0.000    0.000    0.000    0.375    0.000    7.250 
#
# Total GULP energy -1069038.178103 kJ/mol
# GULP energy per Si atom -5567.907178 kJ/mol
# Density = 1.765961 g / cm^3
# Si number density = 17.699892 Si / 1000 Ang^3
#
#
#
# Elastic Constant Matrix: (Units=GPa)
#
#
# Indices 1 2 3 4 5 6 
#
# 1 83.1712 40.4580 36.0297 0.0000 0.0000 0.0000
# 2 40.4580 83.1712 36.0297 0.0000 0.0000 0.0000
# 3 36.0297 36.0297 60.2578 0.0000 0.0000 0.0000
# 4 0.0000 0.0000 0.0000 21.8325 0.0000 0.0000
# 5 0.0000 0.0000 0.0000 0.0000 21.8325 0.0000
# 6 0.0000 0.0000 0.0000 0.0000 0.0000 21.3566
#
#
#
# Elastic Compliance Matrix: (Units=1/GPa)
#
#
# Indices 1 2 3 4 5 6 
#
# 1 0.017914 -0.005498 -0.007424 0.000000 0.000000 0.000000
# 2 -0.005498 0.017914 -0.007424 0.000000 0.000000 0.000000
# 3 -0.007424 -0.007424 0.025473 0.000000 0.000000 0.000000
# 4 0.000000 0.000000 0.000000 0.045803 0.000000 0.000000
# 5 0.000000 0.000000 0.000000 0.000000 0.045803 0.000000
# 6 0.000000 0.000000 0.000000 0.000000 0.000000 0.046824
#
#
# Mechanical properties :
#
#
# Convention : Reuss Voigt Hill
#
# Bulk Modulus (GPa) = 48.52084 50.18167 49.35126
# Shear Modulus (GPa) = 20.21899 20.60983 20.41441
#
# Velocity S-wave (km/s) = 3.38349 3.41604 3.39980
# Velocity P-wave (km/s) = 6.53733 6.63114 6.58440
#
# Compressibility (1/GPa) = 0.02060970
#
# Stress axis : x y z
#
# Youngs Moduli (GPa) = 55.82268 55.82268 39.25718
#
# Poissons Ratio (x) = 0.30692 0.29143
# Poissons Ratio (y) = 0.30692 0.29143
# Poissons Ratio (z) = 0.41441 0.41441
#
# Static dielectric constant tensor:
#      x y z
#    x 1.638400 0.000000 0.000000 
#    y 0.000000 1.638400 0.000000 
#    z 0.000000 0.000000 1.735040 
# 
# From -- ./inp_files/5427.got.cif
#   From: 2010.05.17/outbox.cif.g08.bks.cpg/sg192_3_cif.got.tgz:5427.got - 2010.05.20 12:28:01.
