data_PCOD9588094
_publ_section_title
;
Structure prediction by ZEFSAII (Michael W. Deem and Ramdas Pophale) SiO2 
 PCOD9588094
Probable space group: P 6/M M M
;
_chemical_formula_sum "Si O2"
_cell_formula_units_Z 168
_cell_length_a 30.341911
_cell_length_b 30.341911
_cell_length_c 13.385338
_cell_angle_alpha 90.000000
_cell_angle_beta 90.000000
_cell_angle_gamma 120.000000
_cell_volume 10672.000433
_symmetry_space_group_name_H-M "P 6/M M M"
_symmetry_group_IT_number 191
_symmetry_cell_setting 'hexagonal'
loop_
_space_group_symop_operation_xyz
x,y,z
x-y,x,z
-y,x-y,z
-x,-y,z
-x+y,-x,z
y,-x+y,z
x-y,-y,-z
-x,-x+y,-z
y,x,-z
-y,-x,-z
-x+y,y,-z
x,x-y,-z
-x,-y,-z
-x+y,-x,-z
y,-x+y,-z
x,y,-z
x-y,x,-z
-y,x-y,-z
-x+y,y,z
x,x-y,z
-y,-x,z
y,x,z
x-y,-y,z
-x,-x+y,z
loop_
_atom_site_type_symbol
_atom_site_label
_atom_site_fract_x
_atom_site_fract_y
_atom_site_fract_z
Si Si1 0.666587 0.229253 0.879616
Si Si2 0.057615 0.842007 0.385243
Si Si3 0.418418 0.476064 0.613712
Si Si4 0.790016 0.105346 0.258245
Si Si5 0.661421 0.132393 0.771673
Si Si6 0.059572 0.365182 0.880671
Si Si7 0.257700 0.410844 0.389441
O O1 0.618307 0.236613 0.855465
O O2 0.720357 0.279644 0.851426
O O3 0.658473 0.177232 0.829566
O O4 0.667464 0.224246 0.000000
O O5 0.063542 0.828015 0.500000
O O6 0.099079 0.900921 0.373401
O O7 0.071383 0.811312 0.305809
O O8 0.000000 0.828081 0.373284
O O9 0.397766 0.469790 0.500000
O O10 0.472144 0.527857 0.612867
O O11 0.430596 0.430596 0.632272
O O12 0.385649 0.481106 0.701216
O O13 0.839306 0.160695 0.233365
O O14 0.749920 0.080307 0.169009
O O15 0.758472 0.114159 0.345426
O O16 0.673259 0.096080 0.841868
O O17 0.706929 0.157896 0.691933
O O18 0.000000 0.342150 0.852582
O O19 0.062492 0.364227 0.000000
O O20 0.279929 0.418494 0.500000
O O21 0.206408 0.412815 0.395790
#
# Coordination Sequence:
#
# PCOD9588094 Si02
#       7
#    24  24  24  24  24  24  24
#     4  10  21  37  56  76  97 121 153 198 251 301
#     4   9  16  26  42  64  89 117 151 192 236 281
#     4   9  18  32  49  70  96 124 154 189 228 270
#     4   9  17  29  46  65  86 118 160 201 236 271
#     4  11  19  31  50  73  94 121 157 192 226 274
#     4  10  21  34  46  64  95 131 161 192 234 282
#     4   9  17  28  42  64  94 121 145 178 221 267
#
# _framework density 15.742127999999999
#
# number of rings (size 3 to 8) (size 9 to 14) (size 15 to 20)
#    0.000    2.429    0.000    3.571    0.000    3.143 
#    0.000    0.000    0.000    7.000    0.000    7.000 
#    0.000    6.857    0.000    0.000    0.000    0.000 
#
# Total GULP energy -935503.374570 kJ/mol
# GULP energy per Si atom -5568.472468 kJ/mol
# Density = 1.570630 g / cm^3
# Si number density = 15.742128 Si / 1000 Ang^3
#
#
#
# Elastic Constant Matrix: (Units=GPa)
#
#
# Indices 1 2 3 4 5 6 
#
# 1 91.6821 53.0443 51.0833 0.0000 0.0000 0.0000
# 2 53.0443 91.6821 51.0833 0.0000 0.0000 0.0000
# 3 51.0833 51.0833 85.9020 0.0000 0.0000 0.0000
# 4 0.0000 0.0000 0.0000 23.9453 0.0000 0.0000
# 5 0.0000 0.0000 0.0000 0.0000 23.9453 0.0000
# 6 0.0000 0.0000 0.0000 0.0000 0.0000 19.3189
#
#
#
# Elastic Compliance Matrix: (Units=1/GPa)
#
#
# Indices 1 2 3 4 5 6 
#
# 1 0.018895 -0.006986 -0.007082 0.000000 0.000000 0.000000
# 2 -0.006986 0.018895 -0.007082 0.000000 0.000000 0.000000
# 3 -0.007082 -0.007082 0.020064 0.000000 0.000000 0.000000
# 4 0.000000 0.000000 0.000000 0.041762 0.000000 0.000000
# 5 0.000000 0.000000 0.000000 0.000000 0.041762 0.000000
# 6 0.000000 0.000000 0.000000 0.000000 0.000000 0.051763
#
#
# Mechanical properties :
#
#
# Convention : Reuss Voigt Hill
#
# Bulk Modulus (GPa) = 64.29110 64.40979 64.35044
# Shear Modulus (GPa) = 20.77919 21.04559 20.91239
#
# Velocity S-wave (km/s) = 3.63709 3.66033 3.64872
# Velocity P-wave (km/s) = 7.65289 7.67257 7.66274
#
# Compressibility (1/GPa) = 0.01555425
#
# Stress axis : x y z
#
# Youngs Moduli (GPa) = 52.92361 52.92361 49.84070
#
# Poissons Ratio (x) = 0.36974 0.35296
# Poissons Ratio (y) = 0.36974 0.35296
# Poissons Ratio (z) = 0.37480 0.37480
#
# Static dielectric constant tensor:
#      x y z
#    x 1.531560 0.000000 0.000000 
#    y 0.000000 1.531560 0.000000 
#    z 0.000000 0.000000 1.598390 
# 
# From -- ./inp_files/3617.got.cif
#   From: 2010.05.17/outbox.cif.g08.bks.cpg/sg191_2_cif.got.tgz:3617.got - 2010.05.20 12:20:32.
