data_PCOD9588177
_publ_section_title
;
Structure prediction by ZEFSAII (Michael W. Deem and Ramdas Pophale) SiO2 
 PCOD9588177
Probable space group: P 6/M M M
;
_chemical_formula_sum "Si O2"
_cell_formula_units_Z 138
_cell_length_a 31.059920
_cell_length_b 31.059920
_cell_length_c 8.866372
_cell_angle_alpha 90.000000
_cell_angle_beta 90.000000
_cell_angle_gamma 120.000000
_cell_volume 7407.595275
_symmetry_space_group_name_H-M "P 6/M M M"
_symmetry_group_IT_number 191
_symmetry_cell_setting 'hexagonal'
loop_
_space_group_symop_operation_xyz
x,y,z
x-y,x,z
-y,x-y,z
-x,-y,z
-x+y,-x,z
y,-x+y,z
x-y,-y,-z
-x,-x+y,-z
y,x,-z
-y,-x,-z
-x+y,y,-z
x,x-y,-z
-x,-y,-z
-x+y,-x,-z
y,-x+y,-z
x,y,-z
x-y,x,-z
-y,x-y,-z
-x+y,y,z
x,x-y,z
-y,-x,z
y,x,z
x-y,-y,z
-x,-x+y,z
loop_
_atom_site_type_symbol
_atom_site_label
_atom_site_fract_x
_atom_site_fract_y
_atom_site_fract_z
Si Si1 0.513811 0.852386 0.170976
Si Si2 0.799135 0.799135 0.318986
Si Si3 0.000000 0.899715 0.683797
Si Si4 0.365434 0.730868 0.500000
Si Si5 0.788825 0.394413 0.820921
Si Si6 0.853220 0.603215 0.670715
Si Si7 0.057532 0.580391 0.329250
Si Si8 0.096035 0.801827 0.179001
O O1 0.454320 0.820593 0.192177
O O2 0.549647 0.842201 0.274131
O O3 0.528104 0.908481 0.207397
O O4 0.524434 0.845458 0.000000
O O5 0.798712 0.798712 0.500000
O O6 0.849521 0.849521 0.269666
O O7 0.799050 0.750317 0.259296
O O8 0.949810 0.899620 0.732015
O O9 0.000000 0.900086 0.500000
O O10 0.306049 0.693952 0.500000
O O11 0.378599 0.757197 0.664496
O O12 0.769211 0.384606 0.000000
O O13 0.872043 0.611618 0.500000
O O14 0.801358 0.602716 0.674766
O O15 0.891153 0.650814 0.768569
O O16 0.074828 0.599573 0.500000
O O17 0.061072 0.530536 0.314044
O O18 0.000000 0.563410 0.316868
O O19 0.144980 0.855021 0.214721
O O20 0.088641 0.798772 0.000000
#
# Coordination Sequence:
#
# PCOD9588177 Si02
#       8
#    24  12  12   6  12  24  24  24
#     4  11  22  37  59  89 122 160 200 244 301 360
#     4  11  21  34  57  88 120 159 205 254 308 373
#     4   9  17  29  48  79 120 164 211 261 314 365
#     4  10  26  46  66  96 121 166 212 252 324 376
#     4  10  24  42  65  97 131 166 208 258 306 368
#     4  10  22  40  62  88 114 148 193 245 298 355
#     4   9  18  33  55  83 114 152 194 240 292 345
#     4  10  21  39  61  84 116 153 194 248 306 365
#
# _framework density 18.629528000000001
#
# number of rings (size 3 to 8) (size 9 to 14) (size 15 to 20)
#    0.087    1.913    0.870    2.957    2.435    4.522 
#    1.565    2.609    0.000    0.000    0.000    0.000 
#    0.000    4.174    0.000    0.000    0.000    0.000 
#
# Total GULP energy -769221.358705 kJ/mol
# GULP energy per Si atom -5574.067817 kJ/mol
# Density = 1.858713 g / cm^3
# Si number density = 18.629528 Si / 1000 Ang^3
#
#
#
# Elastic Constant Matrix: (Units=GPa)
#
#
# Indices 1 2 3 4 5 6 
#
# 1 75.4211 36.3187 47.0318 0.0000 0.0000 0.0000
# 2 36.3187 75.4211 47.0318 0.0000 0.0000 0.0000
# 3 47.0318 47.0318 81.1651 0.0000 0.0000 0.0000
# 4 0.0000 0.0000 0.0000 24.8386 0.0000 0.0000
# 5 0.0000 0.0000 0.0000 0.0000 24.8386 0.0000
# 6 0.0000 0.0000 0.0000 0.0000 0.0000 19.5512
#
#
#
# Elastic Compliance Matrix: (Units=1/GPa)
#
#
# Indices 1 2 3 4 5 6 
#
# 1 0.021523 -0.004051 -0.010124 0.000000 0.000000 0.000000
# 2 -0.004051 0.021523 -0.010124 0.000000 0.000000 0.000000
# 3 -0.010124 -0.010124 0.024054 0.000000 0.000000 0.000000
# 4 0.000000 0.000000 0.000000 0.040260 0.000000 0.000000
# 5 0.000000 0.000000 0.000000 0.000000 0.040260 0.000000
# 6 0.000000 0.000000 0.000000 0.000000 0.000000 0.051148
#
#
# Mechanical properties :
#
#
# Convention : Reuss Voigt Hill
#
# Bulk Modulus (GPa) = 54.05212 54.75244 54.40228
# Shear Modulus (GPa) = 19.72124 20.62069 20.17096
#
# Velocity S-wave (km/s) = 3.25714 3.33059 3.29407
# Velocity P-wave (km/s) = 6.57438 6.65165 6.61313
#
# Compressibility (1/GPa) = 0.01850066
#
# Stress axis : x y z
#
# Youngs Moduli (GPa) = 46.46181 46.46181 41.57322
#
# Poissons Ratio (x) = 0.18821 0.42091
# Poissons Ratio (y) = 0.18821 0.42091
# Poissons Ratio (z) = 0.47040 0.47040
#
# Static dielectric constant tensor:
#      x y z
#    x 1.638370 0.000000 0.000000 
#    y 0.000000 1.638370 0.000000 
#    z 0.000000 0.000000 1.660270 
# 
# From -- ./inp_files/2078.got.cif
#   From: 2010.05.17/outbox.cif.g08.bks.cpg/sg191_2_cif.got.tgz:2078.got - 2010.05.20 12:20:32.
