data_PCOD9588945
_publ_section_title
;
Structure prediction by ZEFSAII (Michael W. Deem and Ramdas Pophale) SiO2 
 PCOD9588945
Probable space group: P 63/M C M
;
_chemical_formula_sum "Si O2"
_cell_formula_units_Z 144
_cell_length_a 21.914258
_cell_length_b 21.914258
_cell_length_c 20.229495
_cell_angle_alpha 90.000000
_cell_angle_beta 90.000000
_cell_angle_gamma 120.000000
_cell_volume 8413.354991
_symmetry_space_group_name_H-M "P 63/M C M"
_symmetry_group_IT_number 193
_symmetry_cell_setting 'hexagonal'
loop_
_space_group_symop_operation_xyz
x,y,z
x-y,x,1/2+z
-y,x-y,z
-x,-y,1/2+z
-x+y,-x,z
y,-x+y,1/2+z
x-y,-y,1/2-z
-x,-x+y,1/2-z
y,x,1/2-z
-y,-x,-z
-x+y,y,-z
x,x-y,-z
-x,-y,-z
-x+y,-x,1/2-z
y,-x+y,-z
x,y,1/2-z
x-y,x,-z
-y,x-y,1/2-z
-x+y,y,1/2+z
x,x-y,1/2+z
-y,-x,1/2+z
y,x,z
x-y,-y,z
-x,-x+y,z
loop_
_atom_site_type_symbol
_atom_site_label
_atom_site_fract_x
_atom_site_fract_y
_atom_site_fract_z
Si Si1 0.914834 0.286397 0.935780
Si Si2 0.473351 0.086085 0.174000
Si Si3 0.276382 0.359036 0.586155
Si Si4 0.834148 0.915275 0.750000
Si Si5 0.081567 0.163133 0.500000
Si Si6 0.857801 0.121941 0.123056
Si Si7 0.085658 0.511504 0.569513
O O1 0.891371 0.221054 0.886578
O O2 0.891948 0.344465 0.922201
O O3 0.000000 0.327533 0.934748
O O4 0.890057 0.260504 0.010989
O O5 0.485561 0.109733 0.250000
O O6 0.426905 0.111210 0.132698
O O7 0.542422 0.106472 0.131038
O O8 0.428786 0.000000 0.175529
O O9 0.330988 0.330988 0.579105
O O10 0.205812 0.299068 0.618796
O O11 0.896042 0.896042 0.750000
O O12 0.784299 0.878162 0.687021
O O13 0.867442 0.000000 0.750000
O O14 0.115296 0.115296 0.519127
O O15 0.087969 0.213277 0.560234
O O16 0.108034 0.554017 0.500000
O O17 0.000000 0.468036 0.567172
#
# Coordination Sequence:
#
# PCOD9588945 Si02
#       7
#    24  24  24  12  12  24  24
#     4  10  18  32  53  75 105 140 175 221 278 344
#     4   9  17  28  46  75 107 135 168 208 250 309
#     4  10  18  31  52  77 105 137 175 222 284 351
#     4  12  27  46  62  76 102 148 208 268 332 400
#     4  12  23  38  58  78 100 132 188 256 316 370
#     4  12  24  38  56  80 109 142 186 244 312 376
#     4   9  15  27  48  73 102 138 171 196 238 309
#
# _framework density 17.115646000000002
#
# number of rings (size 3 to 8) (size 9 to 14) (size 15 to 20)
#    0.000    1.667    3.333    3.167    1.167    0.000 
#    1.500    1.667    0.000    0.000    0.000    0.000 
#    1.667    0.333    0.000    0.000    0.000    0.000 
#
# Total GULP energy -802808.516812 kJ/mol
# GULP energy per Si atom -5575.059145 kJ/mol
# Density = 1.707669 g / cm^3
# Si number density = 17.115646 Si / 1000 Ang^3
#
#
#
# Elastic Constant Matrix: (Units=GPa)
#
#
# Indices 1 2 3 4 5 6 
#
# 1 72.7481 7.1199 32.0172 0.0000 0.0000 0.0000
# 2 7.1199 72.7481 32.0172 0.0000 0.0000 0.0000
# 3 32.0172 32.0172 106.4076 0.0000 0.0000 0.0000
# 4 0.0000 0.0000 0.0000 19.3521 0.0000 0.0000
# 5 0.0000 0.0000 0.0000 0.0000 19.3521 0.0000
# 6 0.0000 0.0000 0.0000 0.0000 0.0000 32.8141
#
#
#
# Elastic Compliance Matrix: (Units=1/GPa)
#
#
# Indices 1 2 3 4 5 6 
#
# 1 0.015869 0.000632 -0.004965 0.000000 0.000000 0.000000
# 2 0.000632 0.015869 -0.004965 0.000000 0.000000 0.000000
# 3 -0.004965 -0.004965 0.012386 0.000000 0.000000 0.000000
# 4 0.000000 0.000000 0.000000 0.051674 0.000000 0.000000
# 5 0.000000 0.000000 0.000000 0.000000 0.051674 0.000000
# 6 0.000000 0.000000 0.000000 0.000000 0.000000 0.030475
#
#
# Mechanical properties :
#
#
# Convention : Reuss Voigt Hill
#
# Bulk Modulus (GPa) = 39.17251 43.80138 41.48695
# Shear Modulus (GPa) = 24.38392 26.35363 25.36878
#
# Velocity S-wave (km/s) = 3.77856 3.92821 3.85411
# Velocity P-wave (km/s) = 6.47868 6.79863 6.64058
#
# Compressibility (1/GPa) = 0.02552810
#
# Stress axis : x y z
#
# Youngs Moduli (GPa) = 63.01426 63.01426 80.73775
#
# Poissons Ratio (x) = -0.03983 0.40088
# Poissons Ratio (y) = -0.03983 0.40088
# Poissons Ratio (z) = 0.31288 0.31288
#
# Static dielectric constant tensor:
#      x y z
#    x 1.583340 0.000000 0.000000 
#    y 0.000000 1.583340 0.000000 
#    z 0.000000 0.000000 1.589080 
# 
# From -- ./inp_files/6660.got.cif
#   From: 2010.05.17/outbox.cif.g08.bks.cpg/sg193_4_cif.got.tgz:6660.got - 2010.05.20 12:33:02.
