data_PCOD9588658
_publ_section_title
;
Structure prediction by ZEFSAII (Michael W. Deem and Ramdas Pophale) SiO2 
 PCOD9588658
Probable space group: P 6/M C C
;
_chemical_formula_sum "Si O2"
_cell_formula_units_Z 192
_cell_length_a 22.924562
_cell_length_b 22.924562
_cell_length_c 22.554348
_cell_angle_alpha 90.000000
_cell_angle_beta 90.000000
_cell_angle_gamma 120.000000
_cell_volume 10265.095691
_symmetry_space_group_name_H-M "P 6/M C C"
_symmetry_group_IT_number 192
_symmetry_cell_setting 'hexagonal'
loop_
_space_group_symop_operation_xyz
x,y,z
x-y,x,z
-y,x-y,z
-x,-y,z
-x+y,-x,z
y,-x+y,z
x-y,-y,1/2-z
-x,-x+y,1/2-z
y,x,1/2-z
-y,-x,1/2-z
-x+y,y,1/2-z
x,x-y,1/2-z
-x,-y,-z
-x+y,-x,-z
y,-x+y,-z
x,y,-z
x-y,x,-z
-y,x-y,-z
-x+y,y,1/2+z
x,x-y,1/2+z
-y,-x,1/2+z
y,x,1/2+z
x-y,-y,1/2+z
-x,-x+y,1/2+z
loop_
_atom_site_type_symbol
_atom_site_label
_atom_site_fract_x
_atom_site_fract_y
_atom_site_fract_z
Si Si1 0.959826 0.233135 0.349404
Si Si2 0.410926 0.265954 0.652504
Si Si3 0.984742 0.347441 0.929444
Si Si4 0.825638 0.412524 0.933381
Si Si5 0.254556 0.507527 0.067539
Si Si6 0.486847 0.057321 0.360976
Si Si7 0.597782 0.674938 0.230404
Si Si8 0.737371 0.844470 0.684560
O O1 0.929831 0.264222 0.300151
O O2 0.906272 0.154697 0.358821
O O3 0.977387 0.286108 0.403223
O O4 0.028522 0.235868 0.327727
O O5 0.396994 0.310023 0.604468
O O6 0.454587 0.239598 0.619378
O O7 0.433340 0.307320 0.713624
O O8 0.341559 0.203917 0.674102
O O9 0.023688 0.425458 0.908734
O O10 0.978159 0.342142 0.000000
O O11 0.787415 0.454596 0.927358
O O12 0.774110 0.333957 0.926212
O O13 0.887454 0.443700 0.889320
O O14 0.853252 0.422129 0.000000
O O15 0.243464 0.478900 0.000000
O O16 0.459940 0.092221 0.316128
O O17 0.500000 0.000000 0.334834
O O18 0.625798 0.625798 0.250000
O O19 0.754568 0.877284 0.750000
#
# Coordination Sequence:
#
# PCOD9588658 Si02
#       8
#    24  24  24  24  24  24  24  24
#     4  10  21  36  57  86 113 150 192 227 275 336
#     4  11  21  34  59  84 113 147 186 234 283 336
#     4  10  21  37  54  79 117 148 180 232 283 338
#     4  10  22  40  59  80 107 146 191 237 284 337
#     4  10  22  40  59  81 107 145 194 237 284 337
#     4  11  23  36  57  82 113 146 183 232 286 351
#     4  11  19  39  53  81 113 144 186 223 279 339
#     4  11  19  33  58  84 117 149 188 233 277 333
#
# _framework density 18.704160000000002
#
# number of rings (size 3 to 8) (size 9 to 14) (size 15 to 20)
#    0.000    1.500    5.000    2.125    3.500    3.250 
#    0.000    2.500    0.000    0.250    0.000    2.625 
#    0.000    0.000    0.000    4.500    0.000    0.500 
#
# Total GULP energy -1070890.797254 kJ/mol
# GULP energy per Si atom -5577.556236 kJ/mol
# Density = 1.866159 g / cm^3
# Si number density = 18.704160 Si / 1000 Ang^3
#
#
#
# Elastic Constant Matrix: (Units=GPa)
#
#
# Indices 1 2 3 4 5 6 
#
# 1 597.8471 -540.5776 17.9003 0.0000 0.0000 0.0000
# 2 -540.5776 597.8471 17.9003 0.0000 0.0000 0.0000
# 3 17.9003 17.9003 81.7768 0.0000 0.0000 0.0000
# 4 0.0000 0.0000 0.0000 11.2631 0.0000 0.0000
# 5 0.0000 0.0000 0.0000 0.0000 11.2631 0.0000
# 6 0.0000 0.0000 0.0000 0.0000 0.0000 569.2123
#
#
#
# Elastic Compliance Matrix: (Units=1/GPa)
#
#
# Indices 1 2 3 4 5 6 
#
# 1 0.010554 0.009675 -0.004428 0.000000 0.000000 0.000000
# 2 0.009675 0.010554 -0.004428 0.000000 0.000000 0.000000
# 3 -0.004428 -0.004428 0.014167 0.000000 0.000000 0.000000
# 4 0.000000 0.000000 0.000000 0.088786 0.000000 0.000000
# 5 0.000000 0.000000 0.000000 0.000000 0.088786 0.000000
# 6 0.000000 0.000000 0.000000 0.000000 0.000000 0.001757
#
#
# Mechanical properties :
#
#
# Convention : Reuss Voigt Hill
#
# Bulk Modulus (GPa) = 27.09038 29.76858 28.42948
# Shear Modulus (GPa) = 22.19571 237.16422 129.67997
#
# Velocity S-wave (km/s) = 3.44855 11.27266 8.33563
# Velocity P-wave (km/s) = 5.51105 13.61545 10.38634
#
# Compressibility (1/GPa) = 0.03691347
#
# Stress axis : x y z
#
# Youngs Moduli (GPa) = 94.75177 94.75177 70.58686
#
# Poissons Ratio (x) = -0.91677 0.31256
# Poissons Ratio (y) = -0.91677 0.31256
# Poissons Ratio (z) = 0.41957 0.41957
#
# Static dielectric constant tensor:
#      x y z
#    x 1.702170 0.000000 0.000000 
#    y 0.000000 1.702170 0.000000 
#    z 0.000000 0.000000 1.689270 
# 
# From -- ./inp_files/5410.got.cif
#   From: 2010.05.17/outbox.cif.g08.bks.cpg/sg192_3_cif.got.tgz:5410.got - 2010.05.20 12:28:01.
