data_PCOD9588795
_publ_section_title
;
Structure prediction by ZEFSAII (Michael W. Deem and Ramdas Pophale) SiO2 
 PCOD9588795
Probable space group: P 6/M C C
;
_chemical_formula_sum "Si O2"
_cell_formula_units_Z 104
_cell_length_a 18.863921
_cell_length_b 18.863921
_cell_length_c 15.845445
_cell_angle_alpha 90.000000
_cell_angle_beta 90.000000
_cell_angle_gamma 120.000000
_cell_volume 4883.138136
_symmetry_space_group_name_H-M "P 6/M C C"
_symmetry_group_IT_number 192
_symmetry_cell_setting 'hexagonal'
loop_
_space_group_symop_operation_xyz
x,y,z
x-y,x,z
-y,x-y,z
-x,-y,z
-x+y,-x,z
y,-x+y,z
x-y,-y,1/2-z
-x,-x+y,1/2-z
y,x,1/2-z
-y,-x,1/2-z
-x+y,y,1/2-z
x,x-y,1/2-z
-x,-y,-z
-x+y,-x,-z
y,-x+y,-z
x,y,-z
x-y,x,-z
-y,x-y,-z
-x+y,y,1/2+z
x,x-y,1/2+z
-y,-x,1/2+z
y,x,1/2+z
x-y,-y,1/2+z
-x,-x+y,1/2+z
loop_
_atom_site_type_symbol
_atom_site_label
_atom_site_fract_x
_atom_site_fract_y
_atom_site_fract_z
Si Si1 0.083518 0.496766 0.402468
Si Si2 0.722755 0.679987 0.096908
Si Si3 0.188165 0.676603 0.399992
Si Si4 0.868153 0.199403 0.658792
Si Si5 0.666668 0.333334 0.649247
O O1 0.110501 0.497914 0.500000
O O2 0.067898 0.410417 0.366583
O O3 0.144401 0.584645 0.363124
O O4 0.000000 0.500000 0.404586
O O5 0.811772 0.689034 0.098884
O O6 0.717512 0.752505 0.143301
O O7 0.697009 0.680683 0.000000
O O8 0.169699 0.673257 0.500000
O O9 0.158860 0.732983 0.356156
O O10 0.283042 0.708146 0.386430
O O11 0.840476 0.159525 0.750000
O O12 0.666668 0.333334 0.750000
#
# Coordination Sequence:
#
# PCOD9588795 Si02
#       5
#    24  24  24  24   8
#     4   9  17  33  60  90 117 150 205 264 304 353
#     4  11  22  41  67  94 123 168 221 267 318 392
#     4  11  21  38  62  88 120 167 216 261 310 386
#     4  12  25  41  62  92 132 164 207 267 336 381
#     4  12  25  38  52  81 124 161 208 267 328 371
#
# _framework density 21.297779999999999
#
# number of rings (size 3 to 8) (size 9 to 14) (size 15 to 20)
#    0.000    1.154    2.308    5.538    0.000    1.846 
#    0.000    0.000    0.000    0.462    0.000    3.231 
#    0.000    0.000    0.000    0.000    0.000    0.000 
#
# Total GULP energy -581256.106326 kJ/mol
# GULP energy per Si atom -5589.001022 kJ/mol
# Density = 2.124931 g / cm^3
# Si number density = 21.297780 Si / 1000 Ang^3
#
#
#
# Elastic Constant Matrix: (Units=GPa)
#
#
# Indices 1 2 3 4 5 6 
#
# 1 127.3525 61.3859 11.2167 0.0000 0.0001 0.0003
# 2 61.3859 127.3536 11.2164 0.0000 0.0000 0.0000
# 3 11.2167 11.2164 63.2552 -0.0001 0.0000 -0.0001
# 4 0.0000 0.0000 -0.0001 24.4640 0.0000 0.0000
# 5 0.0001 0.0000 0.0000 0.0000 24.4639 0.0000
# 6 0.0003 0.0000 -0.0001 0.0000 0.0000 32.9831
#
#
#
# Elastic Compliance Matrix: (Units=1/GPa)
#
#
# Indices 1 2 3 4 5 6 
#
# 1 0.010286 -0.004873 -0.000960 0.000000 0.000000 0.000000
# 2 -0.004873 0.010286 -0.000960 0.000000 0.000000 0.000000
# 3 -0.000960 -0.000960 0.016149 0.000000 0.000000 0.000000
# 4 0.000000 0.000000 0.000000 0.040876 0.000000 0.000000
# 5 0.000000 0.000000 0.000000 0.000000 0.040877 0.000000
# 6 0.000000 0.000000 0.000000 0.000000 0.000000 0.030319
#
#
# Mechanical properties :
#
#
# Convention : Reuss Voigt Hill
#
# Bulk Modulus (GPa) = 43.22423 53.95550 48.58986
# Shear Modulus (GPa) = 29.39625 31.99167 30.69396
#
# Velocity S-wave (km/s) = 3.71920 3.87991 3.80041
# Velocity P-wave (km/s) = 6.22756 6.74244 6.49011
#
# Compressibility (1/GPa) = 0.02313517
#
# Stress axis : x y z
#
# Youngs Moduli (GPa) = 97.22160 97.22257 61.92201
#
# Poissons Ratio (x) = 0.47380 0.05943
# Poissons Ratio (y) = 0.47379 0.05943
# Poissons Ratio (z) = 0.09331 0.09330
#
# Static dielectric constant tensor:
#      x y z
#    x 1.802590 0.000000 0.000000 
#    y 0.000000 1.802590 0.000000 
#    z 0.000000 0.000000 1.837860 
# 
# From -- ./inp_files/2867.got.cif
#   From: 2010.05.17/outbox.cif.g08.bks.cpg/sg192_2_cif.got.tgz:2867.got - 2010.05.20 12:28:01.
