data_PCOD9588018
_publ_section_title
;
Structure prediction by ZEFSAII (Michael W. Deem and Ramdas Pophale) SiO2 
 PCOD9588018
Probable space group: P 6/M M M
;
_chemical_formula_sum "Si O2"
_cell_formula_units_Z 108
_cell_length_a 29.659559
_cell_length_b 29.659559
_cell_length_c 7.240408
_cell_angle_alpha 90.000000
_cell_angle_beta 90.000000
_cell_angle_gamma 120.000000
_cell_volume 5515.984662
_symmetry_space_group_name_H-M "P 6/M M M"
_symmetry_group_IT_number 191
_symmetry_cell_setting 'hexagonal'
loop_
_space_group_symop_operation_xyz
x,y,z
x-y,x,z
-y,x-y,z
-x,-y,z
-x+y,-x,z
y,-x+y,z
x-y,-y,-z
-x,-x+y,-z
y,x,-z
-y,-x,-z
-x+y,y,-z
x,x-y,-z
-x,-y,-z
-x+y,-x,-z
y,-x+y,-z
x,y,-z
x-y,x,-z
-y,x-y,-z
-x+y,y,z
x,x-y,z
-y,-x,z
y,x,z
x-y,-y,z
-x,-x+y,z
loop_
_atom_site_type_symbol
_atom_site_label
_atom_site_fract_x
_atom_site_fract_y
_atom_site_fract_z
Si Si1 0.059258 0.387963 0.724444
Si Si2 0.939951 0.165509 0.000000
Si Si3 0.493922 0.886650 0.724883
Si Si4 0.767168 0.434514 0.275709
Si Si5 0.892441 0.210861 0.720242
O O1 0.060180 0.389487 0.500000
O O2 0.079671 0.446825 0.786247
O O3 0.093575 0.362086 0.778540
O O4 0.000000 0.350785 0.781878
O O5 0.927599 0.192009 0.826266
O O6 0.895630 0.104371 0.000000
O O7 0.000000 0.180871 0.000000
O O8 0.494098 0.887738 0.500000
O O9 0.451285 0.902570 0.782625
O O10 0.471468 0.826639 0.780937
O O11 0.767450 0.435803 0.500000
O O12 0.724246 0.448491 0.212721
O O13 0.751894 0.375947 0.223163
O O14 0.900666 0.211503 0.500000
O O15 0.832926 0.167075 0.759444
#
# Coordination Sequence:
#
# PCOD9588018 Si02
#       5
#    24  12  24  24  24
#     4   9  16  25  38  56  80 113 151 189 231 281
#     4  10  20  34  54  79 107 139 171 203 241 285
#     4   8  14  22  30  45  71 103 143 190 236 283
#     4   8  12  17  25  37  55  82 118 161 210 264
#     4   9  18  32  50  74 103 132 164 205 251 297
#
# _framework density 19.579459
#
# number of rings (size 3 to 8) (size 9 to 14) (size 15 to 20)
#    0.000    3.333    0.000    2.222    0.000    3.556 
#    0.000    6.667    0.000    0.111    0.000    0.778 
#    0.000    2.667    0.000    5.778    0.000    0.000 
#
# Total GULP energy -602460.084919 kJ/mol
# GULP energy per Si atom -5578.334120 kJ/mol
# Density = 1.953490 g / cm^3
# Si number density = 19.579459 Si / 1000 Ang^3
#
#
#
# Elastic Constant Matrix: (Units=GPa)
#
#
# Indices 1 2 3 4 5 6 
#
# 1 129.1595 101.8260 16.4008 0.0000 0.0000 0.0000
# 2 101.8260 129.1595 16.4008 0.0000 0.0000 0.0000
# 3 16.4008 16.4008 88.5550 0.0000 0.0000 0.0000
# 4 0.0000 0.0000 0.0000 24.4563 0.0000 0.0000
# 5 0.0000 0.0000 0.0000 0.0000 24.4563 0.0000
# 6 0.0000 0.0000 0.0000 0.0000 0.0000 13.6668
#
#
#
# Elastic Compliance Matrix: (Units=1/GPa)
#
#
# Indices 1 2 3 4 5 6 
#
# 1 0.020516 -0.016069 -0.000823 0.000000 0.000000 0.000000
# 2 -0.016069 0.020516 -0.000823 0.000000 0.000000 0.000000
# 3 -0.000823 -0.000823 0.011597 0.000000 0.000000 0.000000
# 4 0.000000 0.000000 0.000000 0.040889 0.000000 0.000000
# 5 0.000000 0.000000 0.000000 0.000000 0.040889 0.000000
# 6 0.000000 0.000000 0.000000 0.000000 0.000000 0.073170
#
#
# Mechanical properties :
#
#
# Convention : Reuss Voigt Hill
#
# Bulk Modulus (GPa) = 58.15300 68.45883 63.30591
# Shear Modulus (GPa) = 20.10111 26.66561 23.38336
#
# Velocity S-wave (km/s) = 3.20760 3.69442 3.45959
# Velocity P-wave (km/s) = 6.59422 7.29650 6.95423
#
# Compressibility (1/GPa) = 0.01719602
#
# Stress axis : x y z
#
# Youngs Moduli (GPa) = 48.74323 48.74323 86.22593
#
# Poissons Ratio (x) = 0.78328 0.07100
# Poissons Ratio (y) = 0.78328 0.07100
# Poissons Ratio (z) = 0.04014 0.04014
#
# Static dielectric constant tensor:
#      x y z
#    x 1.658790 0.000000 0.000000 
#    y 0.000000 1.658790 0.000000 
#    z 0.000000 0.000000 1.771340 
# 
# From -- ./inp_files/1745.got.cif
#   From: 2010.05.17/outbox.cif.g08.bks.cpg/sg191_1_cif.got.tgz:1745.got - 2010.05.20 12:20:32.
