data_PCOD9588185
_publ_section_title
;
Structure prediction by ZEFSAII (Michael W. Deem and Ramdas Pophale) SiO2 
 PCOD9588185
Probable space group: P 6/M M M
;
_chemical_formula_sum "Si O2"
_cell_formula_units_Z 102
_cell_length_a 27.383500
_cell_length_b 27.383500
_cell_length_c 7.155647
_cell_angle_alpha 90.000000
_cell_angle_beta 90.000000
_cell_angle_gamma 120.000000
_cell_volume 4646.837146
_symmetry_space_group_name_H-M "P 6/M M M"
_symmetry_group_IT_number 191
_symmetry_cell_setting 'hexagonal'
loop_
_space_group_symop_operation_xyz
x,y,z
x-y,x,z
-y,x-y,z
-x,-y,z
-x+y,-x,z
y,-x+y,z
x-y,-y,-z
-x,-x+y,-z
y,x,-z
-y,-x,-z
-x+y,y,-z
x,x-y,-z
-x,-y,-z
-x+y,-x,-z
y,-x+y,-z
x,y,-z
x-y,x,-z
-y,x-y,-z
-x+y,y,z
x,x-y,z
-y,-x,z
y,x,z
x-y,-y,z
-x,-x+y,z
loop_
_atom_site_type_symbol
_atom_site_label
_atom_site_fract_x
_atom_site_fract_y
_atom_site_fract_z
Si Si1 0.356039 0.533321 0.276740
Si Si2 0.746047 0.253954 0.000000
Si Si3 0.935639 0.366139 0.725921
Si Si4 0.829815 0.063502 0.726742
Si Si5 0.871302 0.236236 0.726438
O O1 0.344504 0.527227 0.500000
O O2 0.401901 0.598100 0.237446
O O3 0.299565 0.512776 0.161788
O O4 0.383615 0.494431 0.230061
O O5 0.939110 0.365587 0.500000
O O6 0.904743 0.300648 0.787533
O O7 0.000000 0.403514 0.791666
O O8 0.829147 0.062325 0.500000
O O9 0.893492 0.106509 0.784654
O O10 0.792765 0.092044 0.778676
O O11 0.802600 0.000000 0.792022
O O12 0.868971 0.236940 0.500000
O O13 0.806990 0.193011 0.790773
#
# Coordination Sequence:
#
# PCOD9588185 Si02
#       5
#    24   6  24  24  24
#     4  10  23  43  67  97 129 163 210 264 319 386
#     4  12  24  44  70  92 124 168 208 260 323 380
#     4   9  17  30  53  86 124 164 202 248 308 374
#     4   8  12  17  25  40  66 104 152 206 263 323
#     4   8  13  20  35  62  98 139 181 227 281 344
#
# _framework density 21.950416000000001
#
# number of rings (size 3 to 8) (size 9 to 14) (size 15 to 20)
#    0.000    3.059    0.000    2.824    1.647    3.294 
#    2.824    2.941    0.000    1.647    0.000    1.647 
#    0.000    0.000    0.000    0.000    0.000    0.000 
#
# Total GULP energy -568023.146087 kJ/mol
# GULP energy per Si atom -5568.854373 kJ/mol
# Density = 2.190046 g / cm^3
# Si number density = 21.950416 Si / 1000 Ang^3
#
#
#
# Elastic Constant Matrix: (Units=GPa)
#
#
# Indices 1 2 3 4 5 6 
#
# 1 100.8735 53.1109 15.7448 0.0000 0.0000 0.0000
# 2 53.1109 100.8735 15.7448 0.0000 0.0000 0.0000
# 3 15.7448 15.7448 127.7039 0.0000 0.0000 0.0000
# 4 0.0000 0.0000 0.0000 -41.3950 0.0000 0.0000
# 5 0.0000 0.0000 0.0000 0.0000 -41.3950 0.0000
# 6 0.0000 0.0000 0.0000 0.0000 0.0000 23.8813
#
#
#
# Elastic Compliance Matrix: (Units=1/GPa)
#
#
# Indices 1 2 3 4 5 6 
#
# 1 0.013800 -0.007137 -0.000821 0.000000 0.000000 0.000000
# 2 -0.007137 0.013800 -0.000821 0.000000 0.000000 0.000000
# 3 -0.000821 -0.000821 0.008033 0.000000 0.000000 0.000000
# 4 0.000000 0.000000 0.000000 -0.024158 0.000000 0.000000
# 5 0.000000 0.000000 0.000000 0.000000 -0.024158 0.000000
# 6 0.000000 0.000000 0.000000 0.000000 0.000000 0.041874
#
#
# Mechanical properties :
#
#
# Convention : Reuss Voigt Hill
#
# Bulk Modulus (GPa) = 55.33456 55.40576 55.37016
# Shear Modulus (GPa) = 94.74140 4.54161 49.64150
#
# Velocity S-wave (km/s) = 6.57687 1.43997 4.76071
# Velocity P-wave (km/s) = 9.10699 5.29725 7.44977
#
# Compressibility (1/GPa) = 0.01807189
#
# Stress axis : x y z
#
# Youngs Moduli (GPa) = 72.46631 72.46631 124.48406
#
# Poissons Ratio (x) = 0.51722 0.10225
# Poissons Ratio (y) = 0.51722 0.10225
# Poissons Ratio (z) = 0.05952 0.05952
#
# Static dielectric constant tensor:
#      x y z
#    x 1.780390 0.000000 0.000000 
#    y 0.000000 1.780390 0.000000 
#    z 0.000000 0.000000 1.696480 
# 
# From -- ./inp_files/1418.got.cif
#   From: 2010.05.17/outbox.cif.g08.bks.cpg/sg191_1_cif.got.tgz:1418.got - 2010.05.20 12:20:32.
