data_PCOD9588251
_publ_section_title
;
Structure prediction by ZEFSAII (Michael W. Deem and Ramdas Pophale) SiO2 
 PCOD9588251
Probable space group: P 6/M M M
;
_chemical_formula_sum "Si O2"
_cell_formula_units_Z 132
_cell_length_a 19.120552
_cell_length_b 19.120552
_cell_length_c 27.954468
_cell_angle_alpha 90.000000
_cell_angle_beta 90.000000
_cell_angle_gamma 120.000000
_cell_volume 8850.803833
_symmetry_space_group_name_H-M "P 6/M M M"
_symmetry_group_IT_number 191
_symmetry_cell_setting 'hexagonal'
loop_
_space_group_symop_operation_xyz
x,y,z
x-y,x,z
-y,x-y,z
-x,-y,z
-x+y,-x,z
y,-x+y,z
x-y,-y,-z
-x,-x+y,-z
y,x,-z
-y,-x,-z
-x+y,y,-z
x,x-y,-z
-x,-y,-z
-x+y,-x,-z
y,-x+y,-z
x,y,-z
x-y,x,-z
-y,x-y,-z
-x+y,y,z
x,x-y,z
-y,-x,z
y,x,z
x-y,-y,z
-x,-x+y,z
loop_
_atom_site_type_symbol
_atom_site_label
_atom_site_fract_x
_atom_site_fract_y
_atom_site_fract_z
Si Si1 0.340829 0.090673 0.112594
Si Si2 0.171446 0.665962 0.281313
Si Si3 0.504351 0.334350 0.943246
Si Si4 0.333028 0.831078 0.603962
Si Si5 0.249938 0.340506 0.772903
Si Si6 0.000000 0.415168 0.555413
O O1 0.319447 0.159724 0.099575
O O2 0.424027 0.113832 0.086195
O O3 0.353456 0.094762 0.169860
O O4 0.273573 0.000000 0.100288
O O5 0.159429 0.579715 0.267398
O O6 0.262970 0.737031 0.271264
O O7 0.159767 0.666064 0.338495
O O8 0.113633 0.690141 0.253725
O O9 0.523885 0.261942 0.935850
O O10 0.580547 0.419454 0.929371
O O11 0.489820 0.336554 0.000000
O O12 0.408553 0.817105 0.592046
O O13 0.247813 0.752188 0.590653
O O14 0.351807 0.915621 0.580330
O O15 0.159507 0.319014 0.759998
O O16 0.273088 0.273088 0.760704
O O17 0.000000 0.500000 0.557608
O O18 0.000000 0.394061 0.500000
#
# Coordination Sequence:
#
# PCOD9588251 Si02
#       6
#    24  24  24  24  24  12
#     4   9  18  32  47  63  85 112 142 176 216 261
#     4   9  17  28  43  63  87 115 147 180 211 245
#     4   9  17  29  45  64  87 116 149 182 214 249
#     4   9  17  29  45  63  85 115 150 184 216 255
#     4   9  18  31  46  64  86 113 143 175 214 260
#     4   9  18  30  42  60  86 112 141 181 224 258
#
# _framework density 14.913899000000001
#
# number of rings (size 3 to 8) (size 9 to 14) (size 15 to 20)
#    0.000    3.000    0.000    0.545    1.273    4.364 
#    0.000    2.727    0.000    3.636    0.000    2.545 
#    0.000    0.000    0.000    4.818    0.000    5.909 
#
# Total GULP energy -735137.033707 kJ/mol
# GULP energy per Si atom -5569.219952 kJ/mol
# Density = 1.487995 g / cm^3
# Si number density = 14.913899 Si / 1000 Ang^3
#
#
#
# Elastic Constant Matrix: (Units=GPa)
#
#
# Indices 1 2 3 4 5 6 
#
# 1 100.0466 79.3330 34.7488 0.0000 0.0000 0.0000
# 2 79.3330 100.0466 34.7488 0.0000 0.0000 0.0000
# 3 34.7488 34.7488 15.6692 0.0000 0.0000 0.0000
# 4 0.0000 0.0000 0.0000 18.7192 0.0000 0.0000
# 5 0.0000 0.0000 0.0000 0.0000 18.7192 0.0000
# 6 0.0000 0.0000 0.0000 0.0000 0.0000 10.3568
#
#
#
# Elastic Compliance Matrix: (Units=1/GPa)
#
#
# Indices 1 2 3 4 5 6 
#
# 1 0.043934 -0.004343 -0.087799 0.000000 0.000000 0.000000
# 2 -0.004343 0.043934 -0.087799 0.000000 0.000000 0.000000
# 3 -0.087799 -0.087799 0.453234 0.000000 0.000000 0.000000
# 4 0.000000 0.000000 0.000000 0.053421 0.000000 0.000000
# 5 0.000000 0.000000 0.000000 0.000000 0.053421 0.000000
# 6 0.000000 0.000000 0.000000 0.000000 0.000000 0.096555
#
#
# Mechanical properties :
#
#
# Convention : Reuss Voigt Hill
#
# Bulk Modulus (GPa) = 5.51815 57.04708 31.28262
# Shear Modulus (GPa) = 4.29262 14.02116 9.15689
#
# Velocity S-wave (km/s) = 1.69839 3.06950 2.48056
# Velocity P-wave (km/s) = 2.74847 7.13417 5.40604
#
# Compressibility (1/GPa) = 0.18122008
#
# Stress axis : x y z
#
# Youngs Moduli (GPa) = 22.76129 22.76129 2.20637
#
# Poissons Ratio (x) = 0.09886 0.19372
# Poissons Ratio (y) = 0.09886 0.19372
# Poissons Ratio (z) = 1.99842 1.99842
#
# Static dielectric constant tensor:
#      x y z
#    x 1.485540 0.000000 0.000000 
#    y 0.000000 1.485540 0.000000 
#    z 0.000000 0.000000 1.491740 
# 
# From -- ./inp_files/10404.got.cif
#   From: 2010.05.17/outbox.cif.g08.bks.cpg/sg191_6_cif.got.tgz:10404.got - 2010.05.20 12:20:32.
