data_PCOD9588517
_publ_section_title
;
Structure prediction by ZEFSAII (Michael W. Deem and Ramdas Pophale) SiO2 
 PCOD9588517
Probable space group: P 6/M C C
;
_chemical_formula_sum "Si O2"
_cell_formula_units_Z 144
_cell_length_a 24.323868
_cell_length_b 24.323868
_cell_length_c 15.284341
_cell_angle_alpha 90.000000
_cell_angle_beta 90.000000
_cell_angle_gamma 120.000000
_cell_volume 7831.458051
_symmetry_space_group_name_H-M "P 6/M C C"
_symmetry_group_IT_number 192
_symmetry_cell_setting 'hexagonal'
loop_
_space_group_symop_operation_xyz
x,y,z
x-y,x,z
-y,x-y,z
-x,-y,z
-x+y,-x,z
y,-x+y,z
x-y,-y,1/2-z
-x,-x+y,1/2-z
y,x,1/2-z
-y,-x,1/2-z
-x+y,y,1/2-z
x,x-y,1/2-z
-x,-y,-z
-x+y,-x,-z
y,-x+y,-z
x,y,-z
x-y,x,-z
-y,x-y,-z
-x+y,y,1/2+z
x,x-y,1/2+z
-y,-x,1/2+z
y,x,1/2+z
x-y,-y,1/2+z
-x,-x+y,1/2+z
loop_
_atom_site_type_symbol
_atom_site_label
_atom_site_fract_x
_atom_site_fract_y
_atom_site_fract_z
Si Si1 0.259049 0.510383 0.103898
Si Si2 0.307096 0.928212 0.758042
Si Si3 0.350944 0.524212 0.738771
Si Si4 0.144817 0.775261 0.906350
Si Si5 0.724214 0.902077 0.334324
Si Si6 0.886536 0.862177 0.605891
O O1 0.317343 0.526150 0.169789
O O2 0.220642 0.538065 0.156378
O O3 0.219882 0.433030 0.107768
O O4 0.271664 0.527473 0.000000
O O5 0.335251 0.882609 0.778032
O O6 0.268989 0.901289 0.667833
O O7 0.251547 0.924703 0.819651
O O8 0.361539 0.000000 0.750000
O O9 0.423919 0.576082 0.750000
O O10 0.152809 0.844521 0.902803
O O11 0.120911 0.744831 0.000000
O O12 0.729320 0.864660 0.250000
O O13 0.793272 0.958069 0.359242
O O14 0.874962 0.919034 0.633780
O O15 0.884916 0.860707 0.500000
#
# Coordination Sequence:
#
# PCOD9588517 Si02
#       6
#    24  24  24  24  24  24
#     4   9  18  36  60  84 110 150 196 241 294 344
#     4  10  21  36  55  84 117 152 187 236 293 343
#     4  10  20  37  59  84 120 159 195 237 289 357
#     4   9  17  34  58  80 107 141 186 239 292 344
#     4  10  20  33  54  78 105 138 183 239 290 337
#     4  10  22  38  54  75 107 148 190 235 294 359
#
# _framework density 18.387381000000001
#
# number of rings (size 3 to 8) (size 9 to 14) (size 15 to 20)
#    0.000    2.333    1.667    0.667    4.667    1.667 
#    4.000    1.667    0.000    1.000    0.000    5.833 
#    0.000    0.000    0.000    0.000    0.000    0.000 
#
# Total GULP energy -802430.395219 kJ/mol
# GULP energy per Si atom -5572.433300 kJ/mol
# Density = 1.834553 g / cm^3
# Si number density = 18.387381 Si / 1000 Ang^3
#
#
#
# Elastic Constant Matrix: (Units=GPa)
#
#
# Indices 1 2 3 4 5 6 
#
# 1 97.1623 47.2137 25.4069 0.0000 0.0000 0.0000
# 2 47.2137 97.1623 25.4069 0.0000 0.0000 0.0000
# 3 25.4069 25.4069 80.0987 0.0000 0.0000 0.0000
# 4 0.0000 0.0000 0.0000 14.4865 0.0000 0.0000
# 5 0.0000 0.0000 0.0000 0.0000 14.4865 0.0000
# 6 0.0000 0.0000 0.0000 0.0000 0.0000 24.9743
#
#
#
# Elastic Compliance Matrix: (Units=1/GPa)
#
#
# Indices 1 2 3 4 5 6 
#
# 1 0.013909 -0.006112 -0.002473 0.000000 0.000000 0.000000
# 2 -0.006112 0.013909 -0.002473 0.000000 0.000000 0.000000
# 3 -0.002473 -0.002473 0.014053 0.000000 0.000000 0.000000
# 4 0.000000 0.000000 0.000000 0.069030 0.000000 0.000000
# 5 0.000000 0.000000 0.000000 0.000000 0.069030 0.000000
# 6 0.000000 0.000000 0.000000 0.000000 0.000000 0.040041
#
#
# Mechanical properties :
#
#
# Convention : Reuss Voigt Hill
#
# Bulk Modulus (GPa) = 50.62093 52.27535 51.44814
# Shear Modulus (GPa) = 20.10679 22.54920 21.32799
#
# Velocity S-wave (km/s) = 3.31041 3.50571 3.40946
# Velocity P-wave (km/s) = 6.49629 6.69914 6.59849
#
# Compressibility (1/GPa) = 0.01975467
#
# Stress axis : x y z
#
# Youngs Moduli (GPa) = 71.89752 71.89752 71.15669
#
# Poissons Ratio (x) = 0.43943 0.17598
# Poissons Ratio (y) = 0.43943 0.17598
# Poissons Ratio (z) = 0.17781 0.17781
#
# Static dielectric constant tensor:
#      x y z
#    x 1.629020 0.000000 0.000000 
#    y 0.000000 1.629020 0.000000 
#    z 0.000000 0.000000 1.667890 
# 
# From -- ./inp_files/4318.got.cif
#   From: 2010.05.17/outbox.cif.g08.bks.cpg/sg192_3_cif.got.tgz:4318.got - 2010.05.20 12:28:01.
