data_PCOD9588386
_publ_section_title
;
Structure prediction by ZEFSAII (Michael W. Deem and Ramdas Pophale) SiO2 
 PCOD9588386
Probable space group: P 6/M C C
;
_chemical_formula_sum "Si O2"
_cell_formula_units_Z 128
_cell_length_a 21.353781
_cell_length_b 21.353781
_cell_length_c 14.689837
_cell_angle_alpha 90.000000
_cell_angle_beta 90.000000
_cell_angle_gamma 120.000000
_cell_volume 5800.924022
_symmetry_space_group_name_H-M "P 6/M C C"
_symmetry_group_IT_number 192
_symmetry_cell_setting 'hexagonal'
loop_
_space_group_symop_operation_xyz
x,y,z
x-y,x,z
-y,x-y,z
-x,-y,z
-x+y,-x,z
y,-x+y,z
x-y,-y,1/2-z
-x,-x+y,1/2-z
y,x,1/2-z
-y,-x,1/2-z
-x+y,y,1/2-z
x,x-y,1/2-z
-x,-y,-z
-x+y,-x,-z
y,-x+y,-z
x,y,-z
x-y,x,-z
-y,x-y,-z
-x+y,y,1/2+z
x,x-y,1/2+z
-y,-x,1/2+z
y,x,1/2+z
x-y,-y,1/2+z
-x,-x+y,1/2+z
loop_
_atom_site_type_symbol
_atom_site_label
_atom_site_fract_x
_atom_site_fract_y
_atom_site_fract_z
Si Si1 0.831954 0.168046 0.141783
Si Si2 0.416423 0.083311 0.361260
Si Si3 0.333334 0.666668 0.861091
Si Si4 0.083309 0.666888 0.138740
Si Si5 0.082547 0.165090 0.390885
Si Si6 0.583365 0.416638 0.860998
O O1 0.825958 0.174043 0.250000
O O2 0.749884 0.123859 0.107458
O O3 0.876144 0.250116 0.107458
O O4 0.874843 0.125152 0.127698
O O5 0.416050 0.083240 0.250000
O O6 0.499928 0.125334 0.389587
O O7 0.375527 0.000001 0.389940
O O8 0.333334 0.666667 0.750000
O O9 0.250028 0.625017 0.889962
O O10 0.125333 0.625407 0.110413
O O11 0.126017 0.126015 0.356900
O O12 0.078726 0.157448 0.500000
O O13 0.583348 0.416653 0.750000
#
# Coordination Sequence:
#
# PCOD9588386 Si02
#       6
#    24  24   8  24  24  24
#     4  10  19  31  48  72 100 126 155 196 244 287
#     4   9  16  25  38  58  86 119 151 184 225 272
#     4   9  15  21  30  45  69 105 145 182 217 252
#     4   9  16  25  38  58  86 119 151 184 225 272
#     4  10  21  37  55  73  94 123 159 197 238 289
#     4   9  15  23  35  54  84 121 157 189 223 266
#
# _framework density 22.065449999999998
#
# number of rings (size 3 to 8) (size 9 to 14) (size 15 to 20)
#    0.000    2.625    0.000    3.000    0.000    9.750 
#    0.000    0.000    0.000    1.125    0.000    1.312 
#    0.000    6.000    0.000    0.000    0.000    0.000 
#
# Total GULP energy -715676.116544 kJ/mol
# GULP energy per Si atom -5591.219660 kJ/mol
# Density = 2.201523 g / cm^3
# Si number density = 22.065450 Si / 1000 Ang^3
#
#
#
# Elastic Constant Matrix: (Units=GPa)
#
#
# Indices 1 2 3 4 5 6 
#
# 1 283.7868 182.7187 4.1562 0.0000 0.0000 0.0000
# 2 182.7187 283.7876 4.1562 0.0001 0.0000 0.0001
# 3 4.1562 4.1562 83.3846 0.0000 0.0000 0.0000
# 4 0.0000 0.0001 0.0000 -2.0702 0.0000 0.0000
# 5 0.0000 0.0000 0.0000 0.0000 -2.0702 0.0000
# 6 0.0000 0.0001 0.0000 0.0000 0.0000 50.5340
#
#
#
# Elastic Compliance Matrix: (Units=1/GPa)
#
#
# Indices 1 2 3 4 5 6 
#
# 1 0.006020 -0.003874 -0.000107 0.000000 0.000000 0.000000
# 2 -0.003874 0.006020 -0.000107 0.000000 0.000000 0.000000
# 3 -0.000107 -0.000107 0.012003 0.000000 0.000000 0.000000
# 4 0.000000 0.000000 0.000000 -0.483049 0.000003 0.000000
# 5 0.000000 0.000000 0.000000 0.000003 -0.483051 0.000000
# 6 0.000000 0.000000 0.000000 0.000000 0.000000 0.019789
#
#
# Mechanical properties :
#
#
# Convention : Reuss Voigt Hill
#
# Bulk Modulus (GPa) = 63.02579 114.78015 88.90297
# Shear Modulus (GPa) = -5.50174 39.94058 17.21942
#
# Velocity S-wave (km/s) = -1.58075 4.25914 2.79656
# Velocity P-wave (km/s) = 5.02925 8.73602 7.12781
#
# Compressibility (1/GPa) = 0.01586652
#
# Stress axis : x y z
#
# Youngs Moduli (GPa) = 166.11582 166.11627 83.31055
#
# Poissons Ratio (x) = 0.64360 0.00891
# Poissons Ratio (y) = 0.64360 0.00891
# Poissons Ratio (z) = 0.01776 0.01776
#
# Static dielectric constant tensor:
#      x y z
#    x 1.743890 0.000000 0.000000 
#    y 0.000000 1.743890 0.000000 
#    z 0.000000 0.000000 1.843990 
# 
# From -- ./inp_files/5004.got.cif
#   From: 2010.05.17/outbox.cif.g08.bks.cpg/sg192_3_cif.got.tgz:5004.got - 2010.05.20 12:28:01.
