data_PCOD9588948
_publ_section_title
;
Structure prediction by ZEFSAII (Michael W. Deem and Ramdas Pophale) SiO2 
 PCOD9588948
Probable space group: P 63/M C M
;
_chemical_formula_sum "Si O2"
_cell_formula_units_Z 192
_cell_length_a 24.466907
_cell_length_b 24.466907
_cell_length_c 19.401608
_cell_angle_alpha 90.000000
_cell_angle_beta 90.000000
_cell_angle_gamma 120.000000
_cell_volume 10058.344350
_symmetry_space_group_name_H-M "P 63/M C M"
_symmetry_group_IT_number 193
_symmetry_cell_setting 'hexagonal'
loop_
_space_group_symop_operation_xyz
x,y,z
x-y,x,1/2+z
-y,x-y,z
-x,-y,1/2+z
-x+y,-x,z
y,-x+y,1/2+z
x-y,-y,1/2-z
-x,-x+y,1/2-z
y,x,1/2-z
-y,-x,-z
-x+y,y,-z
x,x-y,-z
-x,-y,-z
-x+y,-x,1/2-z
y,-x+y,-z
x,y,1/2-z
x-y,x,-z
-y,x-y,1/2-z
-x+y,y,1/2+z
x,x-y,1/2+z
-y,-x,1/2+z
y,x,z
x-y,-y,z
-x,-x+y,z
loop_
_atom_site_type_symbol
_atom_site_label
_atom_site_fract_x
_atom_site_fract_y
_atom_site_fract_z
Si Si1 0.603907 0.854188 0.172676
Si Si2 0.755677 0.648833 0.329540
Si Si3 0.437315 0.073430 0.082783
Si Si4 0.695015 0.456582 0.827791
Si Si5 0.834979 0.760543 0.551047
Si Si6 0.925602 0.288880 0.961867
Si Si7 0.552073 0.183723 0.335107
Si Si8 0.070072 0.859632 0.669706
O O1 0.629484 0.875215 0.250000
O O2 0.625408 0.804416 0.148972
O O3 0.528788 0.815337 0.175312
O O4 0.622620 0.908871 0.118111
O O5 0.739868 0.629251 0.250000
O O6 0.692557 0.617103 0.372441
O O7 0.793809 0.723702 0.334068
O O8 0.501818 0.121726 0.122605
O O9 0.420030 0.000000 0.077923
O O10 0.425299 0.098452 0.009363
O O11 0.689037 0.430957 0.750000
O O12 0.624432 0.416633 0.855943
O O13 0.756999 0.456969 0.855371
O O14 0.893163 0.786325 0.500000
O O15 0.797458 0.797458 0.546847
O O16 0.784582 0.689152 0.525956
O O17 0.868352 0.773497 0.625431
O O18 0.000000 0.327126 0.973648
O O19 0.543866 0.173541 0.250000
O O20 0.077703 0.878612 0.750000
O O21 0.000000 0.843907 0.646552
#
# Coordination Sequence:
#
# PCOD9588948 Si02
#       8
#    24  24  24  24  24  24  24  24
#     4  10  19  35  58  83 111 143 184 235 288 341
#     4  10  18  31  53  82 114 147 181 222 278 340
#     4  11  22  35  53  82 121 159 193 232 288 358
#     4   9  18  33  56  84 112 147 192 241 286 328
#     4  11  22  36  55  78 106 142 185 230 276 333
#     4  10  23  38  55  82 113 149 189 231 286 350
#     4  10  19  35  58  86 118 154 199 247 292 338
#     4  10  20  34  54  82 114 144 178 227 286 341
#
# _framework density 19.088628
#
# number of rings (size 3 to 8) (size 9 to 14) (size 15 to 20)
#    0.000    1.875    2.500    2.125    0.000    4.000 
#    0.000    2.500    0.000    6.000    0.000    1.750 
#    0.000    0.000    0.000    0.000    0.000    0.000 
#
# Total GULP energy -1068977.121162 kJ/mol
# GULP energy per Si atom -5567.589173 kJ/mol
# Density = 1.904518 g / cm^3
# Si number density = 19.088628 Si / 1000 Ang^3
#
#
#
# Elastic Constant Matrix: (Units=GPa)
#
#
# Indices 1 2 3 4 5 6 
#
# 1 66.4527 27.5821 23.1950 0.0000 0.0000 0.0000
# 2 27.5821 66.4527 23.1950 0.0000 0.0000 0.0000
# 3 23.1950 23.1950 42.5916 0.0000 0.0000 0.0000
# 4 0.0000 0.0000 0.0000 20.9522 0.0000 0.0000
# 5 0.0000 0.0000 0.0000 0.0000 20.9522 0.0000
# 6 0.0000 0.0000 0.0000 0.0000 0.0000 19.4353
#
#
#
# Elastic Compliance Matrix: (Units=1/GPa)
#
#
# Indices 1 2 3 4 5 6 
#
# 1 0.020134 -0.005593 -0.007919 0.000000 0.000000 0.000000
# 2 -0.005593 0.020134 -0.007919 0.000000 0.000000 0.000000
# 3 -0.007919 -0.007919 0.032104 0.000000 0.000000 0.000000
# 4 0.000000 0.000000 0.000000 0.047728 0.000000 0.000000
# 5 0.000000 0.000000 0.000000 0.000000 0.047728 0.000000
# 6 0.000000 0.000000 0.000000 0.000000 0.000000 0.051453
#
#
# Mechanical properties :
#
#
# Convention : Reuss Voigt Hill
#
# Bulk Modulus (GPa) = 33.88644 35.93790 34.91217
# Shear Modulus (GPa) = 18.38391 19.03628 18.71010
#
# Velocity S-wave (km/s) = 3.10672 3.16136 3.13416
# Velocity P-wave (km/s) = 5.53712 5.67392 5.60594
#
# Compressibility (1/GPa) = 0.02951033
#
# Stress axis : x y z
#
# Youngs Moduli (GPa) = 49.66808 49.66808 31.14889
#
# Poissons Ratio (x) = 0.27778 0.24666
# Poissons Ratio (y) = 0.27778 0.24666
# Poissons Ratio (z) = 0.39331 0.39331
#
# Static dielectric constant tensor:
#      x y z
#    x 1.681870 0.000000 0.000000 
#    y 0.000000 1.681870 0.000000 
#    z 0.000000 0.000000 1.747470 
# 
# From -- ./inp_files/6893.got.cif
#   From: 2010.05.17/outbox.cif.g08.bks.cpg/sg193_4_cif.got.tgz:6893.got - 2010.05.20 12:33:02.
