data_PCOD9588445
_publ_section_title
;
Structure prediction by ZEFSAII (Michael W. Deem and Ramdas Pophale) SiO2 
 PCOD9588445
Probable space group: P 6/M C C
;
_chemical_formula_sum "Si O2"
_cell_formula_units_Z 192
_cell_length_a 23.194305
_cell_length_b 23.194305
_cell_length_c 25.667778
_cell_angle_alpha 90.000000
_cell_angle_beta 90.000000
_cell_angle_gamma 120.000000
_cell_volume 11958.635633
_symmetry_space_group_name_H-M "P 6/M C C"
_symmetry_group_IT_number 192
_symmetry_cell_setting 'hexagonal'
loop_
_space_group_symop_operation_xyz
x,y,z
x-y,x,z
-y,x-y,z
-x,-y,z
-x+y,-x,z
y,-x+y,z
x-y,-y,1/2-z
-x,-x+y,1/2-z
y,x,1/2-z
-y,-x,1/2-z
-x+y,y,1/2-z
x,x-y,1/2-z
-x,-y,-z
-x+y,-x,-z
y,-x+y,-z
x,y,-z
x-y,x,-z
-y,x-y,-z
-x+y,y,1/2+z
x,x-y,1/2+z
-y,-x,1/2+z
y,x,1/2+z
x-y,-y,1/2+z
-x,-x+y,1/2+z
loop_
_atom_site_type_symbol
_atom_site_label
_atom_site_fract_x
_atom_site_fract_y
_atom_site_fract_z
Si Si1 0.079190 0.608610 0.356316
Si Si2 0.200014 0.926176 0.105952
Si Si3 0.721285 0.577301 0.438260
Si Si4 0.799493 0.075177 0.230495
Si Si5 0.919446 0.591929 0.749652
Si Si6 0.471983 0.079835 0.144257
Si Si7 0.574543 0.854015 0.938662
Si Si8 0.195261 0.267798 0.062203
O O1 0.119300 0.655651 0.404213
O O2 0.100965 0.651570 0.303141
O O3 0.088535 0.544864 0.351984
O O4 0.999559 0.579097 0.363260
O O5 0.246347 0.900352 0.079922
O O6 0.204787 0.925087 0.168090
O O7 0.125715 0.874356 0.087448
O O8 0.225028 0.000097 0.086224
O O9 0.708394 0.572824 0.500000
O O10 0.778531 0.558092 0.428642
O O11 0.872957 0.127044 0.250000
O O12 0.748790 0.098820 0.251601
O O13 0.772145 0.000000 0.250000
O O14 0.898637 0.547482 0.698166
O O15 0.000000 0.630888 0.750000
O O16 0.463861 0.120648 0.097506
O O17 0.653720 0.899860 0.927832
O O18 0.564006 0.860002 0.000000
O O19 0.187899 0.259223 0.000000
#
# Coordination Sequence:
#
# PCOD9588445 Si02
#       8
#    24  24  24  24  24  24  24  24
#     4  10  19  34  49  79 104 139 166 212 260 318
#     4  11  20  34  53  75 108 139 177 224 273 322
#     4  10  20  34  51  72 103 138 177 220 265 314
#     4  11  23  35  53  82 112 145 183 228 272 316
#     4   9  19  32  49  74 105 138 172 208 253 308
#     4  10  20  31  54  74 109 135 170 207 262 315
#     4   9  20  34  50  74 103 138 176 218 262 311
#     4  10  20  33  53  77 104 140 180 221 270 322
#
# _framework density 16.055343000000001
#
# number of rings (size 3 to 8) (size 9 to 14) (size 15 to 20)
#    0.000    2.000    1.250    3.750    7.000    3.500 
#    0.000    1.250    0.000    0.875    0.000    2.625 
#    0.000    0.000    0.000    0.000    0.000    0.000 
#
# Total GULP energy -1071568.728024 kJ/mol
# GULP energy per Si atom -5581.087125 kJ/mol
# Density = 1.601880 g / cm^3
# Si number density = 16.055343 Si / 1000 Ang^3
#
#
#
# Elastic Constant Matrix: (Units=GPa)
#
#
# Indices 1 2 3 4 5 6 
#
# 1 77.2653 40.3449 43.3050 0.0000 0.0000 0.0000
# 2 40.3449 77.2653 43.3050 0.0000 0.0000 0.0000
# 3 43.3050 43.3050 91.5835 0.0000 0.0000 0.0000
# 4 0.0000 0.0000 0.0000 21.1831 0.0000 0.0000
# 5 0.0000 0.0000 0.0000 0.0000 21.1831 0.0000
# 6 0.0000 0.0000 0.0000 0.0000 0.0000 18.4602
#
#
#
# Elastic Compliance Matrix: (Units=1/GPa)
#
#
# Indices 1 2 3 4 5 6 
#
# 1 0.020065 -0.007020 -0.006168 0.000000 0.000000 0.000000
# 2 -0.007020 0.020065 -0.006168 0.000000 0.000000 0.000000
# 3 -0.006168 -0.006168 0.016752 0.000000 0.000000 0.000000
# 4 0.000000 0.000000 0.000000 0.047207 0.000000 0.000000
# 5 0.000000 0.000000 0.000000 0.000000 0.047207 0.000000
# 6 0.000000 0.000000 0.000000 0.000000 0.000000 0.054171
#
#
# Mechanical properties :
#
#
# Convention : Reuss Voigt Hill
#
# Bulk Modulus (GPa) = 55.03815 55.55824 55.29819
# Shear Modulus (GPa) = 19.98096 20.10923 20.04509
#
# Velocity S-wave (km/s) = 3.53158 3.54290 3.53724
# Velocity P-wave (km/s) = 7.14032 7.17046 7.15540
#
# Compressibility (1/GPa) = 0.01816922
#
# Stress axis : x y z
#
# Youngs Moduli (GPa) = 49.83748 49.83748 59.69295
#
# Poissons Ratio (x) = 0.34986 0.36821
# Poissons Ratio (y) = 0.34986 0.36821
# Poissons Ratio (z) = 0.30742 0.30742
#
# Static dielectric constant tensor:
#      x y z
#    x 1.526140 0.000000 0.000000 
#    y 0.000000 1.526140 0.000000 
#    z 0.000000 0.000000 1.535280 
# 
# From -- ./inp_files/5422.got.cif
#   From: 2010.05.17/outbox.cif.g08.bks.cpg/sg192_3_cif.got.tgz:5422.got - 2010.05.20 12:28:01.
