data_PCOD9588202
_publ_section_title
;
Structure prediction by ZEFSAII (Michael W. Deem and Ramdas Pophale) SiO2 
 PCOD9588202
Probable space group: P 6/M M M
;
_chemical_formula_sum "Si O2"
_cell_formula_units_Z 72
_cell_length_a 22.211380
_cell_length_b 22.211380
_cell_length_c 10.324582
_cell_angle_alpha 90.000000
_cell_angle_beta 90.000000
_cell_angle_gamma 120.000000
_cell_volume 4411.174052
_symmetry_space_group_name_H-M "P 6/M M M"
_symmetry_group_IT_number 191
_symmetry_cell_setting 'hexagonal'
loop_
_space_group_symop_operation_xyz
x,y,z
x-y,x,z
-y,x-y,z
-x,-y,z
-x+y,-x,z
y,-x+y,z
x-y,-y,-z
-x,-x+y,-z
y,x,-z
-y,-x,-z
-x+y,y,-z
x,x-y,-z
-x,-y,-z
-x+y,-x,-z
y,-x+y,-z
x,y,-z
x-y,x,-z
-y,x-y,-z
-x+y,y,z
x,x-y,z
-y,-x,z
y,x,z
x-y,-y,z
-x,-x+y,z
loop_
_atom_site_type_symbol
_atom_site_label
_atom_site_fract_x
_atom_site_fract_y
_atom_site_fract_z
Si Si1 0.710754 0.921121 0.347250
Si Si2 0.917852 0.386788 0.500000
Si Si3 0.291942 0.442413 0.250684
Si Si4 0.917104 0.386117 0.000000
O O1 0.690581 0.916275 0.500000
O O2 0.742321 0.871161 0.330115
O O3 0.641033 0.890512 0.264794
O O4 0.762259 0.000000 0.315925
O O5 0.919389 0.459695 0.500000
O O6 0.876023 0.342458 0.375075
O O7 0.000000 0.407489 0.500000
O O8 0.232453 0.464906 0.250770
O O9 0.339885 0.462637 0.124566
O O10 0.913573 0.456787 0.000000
O O11 0.000000 0.411573 0.000000
#
# Coordination Sequence:
#
# PCOD9588202 Si02
#       4
#    24  12  24  12
#     4   9  16  27  46  72 100 130 164 203 246 292
#     4  11  21  34  56  82 106 133 171 221 268 310
#     4  11  21  35  54  77 105 137 170 213 265 317
#     4  11  23  38  56  78 104 135 173 219 270 320
#
# _framework density 16.322185000000001
#
# number of rings (size 3 to 8) (size 9 to 14) (size 15 to 20)
#    0.000    1.667    1.667    5.000    0.000    2.667 
#    0.000    0.000    0.000   13.667    0.000    2.333 
#    0.000    0.000    0.000    0.000    0.000   34.667 
#
# Total GULP energy -401436.554948 kJ/mol
# GULP energy per Si atom -5575.507708 kJ/mol
# Density = 1.628504 g / cm^3
# Si number density = 16.322185 Si / 1000 Ang^3
#
#
#
# Elastic Constant Matrix: (Units=GPa)
#
#
# Indices 1 2 3 4 5 6 
#
# 1 119.0435 58.4051 57.0383 0.0000 0.0000 0.0000
# 2 58.4051 119.0435 57.0383 0.0000 0.0000 0.0000
# 3 57.0383 57.0383 134.3779 0.0000 0.0000 0.0000
# 4 0.0000 0.0000 0.0000 -14.7169 0.0000 0.0000
# 5 0.0000 0.0000 0.0000 0.0000 -14.7169 0.0000
# 6 0.0000 0.0000 0.0000 0.0000 0.0000 30.3192
#
#
#
# Elastic Compliance Matrix: (Units=1/GPa)
#
#
# Indices 1 2 3 4 5 6 
#
# 1 0.012121 -0.004370 -0.003290 0.000000 0.000000 0.000000
# 2 -0.004370 0.012121 -0.003290 0.000000 0.000000 0.000000
# 3 -0.003290 -0.003290 0.010234 0.000000 0.000000 0.000000
# 4 0.000000 0.000000 0.000000 -0.067949 0.000000 0.000000
# 5 0.000000 0.000000 0.000000 0.000000 -0.067949 0.000000
# 6 0.000000 0.000000 0.000000 0.000000 0.000000 0.032982
#
#
# Mechanical properties :
#
#
# Convention : Reuss Voigt Hill
#
# Bulk Modulus (GPa) = 79.51544 79.71426 79.61485
# Shear Modulus (GPa) = -118.06942 13.50929 -52.28007
#
# Velocity S-wave (km/s) = -8.51433 2.88004 -5.66565
# Velocity P-wave (km/s) = 6.91639 7.74619 2.46648
#
# Compressibility (1/GPa) = 0.01257617
#
# Stress axis : x y z
#
# Youngs Moduli (GPa) = 82.50317 82.50317 97.70963
#
# Poissons Ratio (x) = 0.36058 0.32144
# Poissons Ratio (y) = 0.36058 0.32144
# Poissons Ratio (z) = 0.27141 0.27141
#
# Static dielectric constant tensor:
#      x y z
#    x 1.546660 0.000000 0.000000 
#    y 0.000000 1.546660 0.000000 
#    z 0.000000 0.000000 1.569440 
# 
# From -- ./inp_files/893.got.cif
#   From: 2010.05.17/outbox.cif.g08.bks.cpg/sg191_1_cif.got.tgz:893.got - 2010.05.20 12:20:32.
