data_PCOD9588203
_publ_section_title
;
Structure prediction by ZEFSAII (Michael W. Deem and Ramdas Pophale) SiO2 
 PCOD9588203
Probable space group: P 6/M M M
;
_chemical_formula_sum "Si O2"
_cell_formula_units_Z 156
_cell_length_a 21.633929
_cell_length_b 21.633929
_cell_length_c 20.851734
_cell_angle_alpha 90.000000
_cell_angle_beta 90.000000
_cell_angle_gamma 120.000000
_cell_volume 8451.690949
_symmetry_space_group_name_H-M "P 6/M M M"
_symmetry_group_IT_number 191
_symmetry_cell_setting 'hexagonal'
loop_
_space_group_symop_operation_xyz
x,y,z
x-y,x,z
-y,x-y,z
-x,-y,z
-x+y,-x,z
y,-x+y,z
x-y,-y,-z
-x,-x+y,-z
y,x,-z
-y,-x,-z
-x+y,y,-z
x,x-y,-z
-x,-y,-z
-x+y,-x,-z
y,-x+y,-z
x,y,-z
x-y,x,-z
-y,x-y,-z
-x+y,y,z
x,x-y,z
-y,-x,z
y,x,z
x-y,-y,z
-x,-x+y,z
loop_
_atom_site_type_symbol
_atom_site_label
_atom_site_fract_x
_atom_site_fract_y
_atom_site_fract_z
Si Si1 0.188216 0.522635 0.377972
Si Si2 0.920479 0.699166 0.705548
Si Si3 0.459566 0.300316 0.762765
Si Si4 0.190291 0.663817 0.000000
Si Si5 0.297830 0.219062 0.077612
Si Si6 0.371746 0.260120 0.429495
Si Si7 0.917133 0.557176 0.113967
O O1 0.266189 0.532378 0.391797
O O2 0.185703 0.592852 0.394410
O O3 0.174412 0.504802 0.302077
O O4 0.128996 0.451596 0.413594
O O5 0.862088 0.724176 0.710903
O O6 0.887156 0.623501 0.742046
O O7 0.923859 0.678492 0.631362
O O8 0.000000 0.753601 0.728234
O O9 0.471159 0.235580 0.787004
O O10 0.473534 0.357875 0.816739
O O11 0.137289 0.643767 0.060380
O O12 0.253680 0.746321 0.000000
O O13 0.222328 0.611164 0.000000
O O14 0.288031 0.144016 0.099130
O O15 0.233370 0.233370 0.092528
O O16 0.368955 0.284574 0.106432
O O17 0.306907 0.223682 0.000000
O O18 0.348506 0.268794 0.500000
O O19 0.378274 0.189137 0.431034
O O20 0.000000 0.579384 0.105848
#
# Coordination Sequence:
#
# PCOD9588203 Si02
#       7
#    24  24  24  12  24  24  24
#     4   9  17  29  46  69  97 130 167 204 242 284
#     4   9  17  30  49  73  99 127 161 200 241 288
#     4   9  18  32  50  73 101 133 166 201 242 288
#     4  12  26  43  59  75 100 133 167 199 237 294
#     4   9  16  27  45  70  97 124 154 189 233 281
#     4   8  15  28  45  66  93 125 161 201 244 285
#     4  11  21  35  57  81 101 123 155 204 260 301
#
# _framework density 18.457846
#
# number of rings (size 3 to 8) (size 9 to 14) (size 15 to 20)
#    0.000    2.615    0.769    4.154    0.000    1.846 
#    0.000    0.000    0.000   14.154    0.000    5.385 
#    0.000    0.000    0.000    8.769    0.000    3.385 
#
# Total GULP energy -869946.887764 kJ/mol
# GULP energy per Si atom -5576.582614 kJ/mol
# Density = 1.841583 g / cm^3
# Si number density = 18.457846 Si / 1000 Ang^3
#
#
#
# Elastic Constant Matrix: (Units=GPa)
#
#
# Indices 1 2 3 4 5 6 
#
# 1 51.0027 26.4157 -7.0261 0.0000 0.0000 0.0000
# 2 26.4157 51.0027 -7.0261 0.0000 0.0000 0.0000
# 3 -7.0261 -7.0261 52.9606 0.0000 0.0000 0.0000
# 4 0.0000 0.0000 0.0000 8.0462 0.0000 0.0000
# 5 0.0000 0.0000 0.0000 0.0000 8.0462 0.0000
# 6 0.0000 0.0000 0.0000 0.0000 0.0000 12.2935
#
#
#
# Elastic Compliance Matrix: (Units=1/GPa)
#
#
# Indices 1 2 3 4 5 6 
#
# 1 0.026954 -0.013718 0.001756 0.000000 0.000000 0.000000
# 2 -0.013718 0.026954 0.001756 0.000000 0.000000 0.000000
# 3 0.001756 0.001756 0.019348 0.000000 0.000000 0.000000
# 4 0.000000 0.000000 0.000000 0.124282 0.000000 0.000000
# 5 0.000000 0.000000 0.000000 0.000000 0.124282 0.000000
# 6 0.000000 0.000000 0.000000 0.000000 0.000000 0.081344
#
#
# Mechanical properties :
#
#
# Convention : Reuss Voigt Hill
#
# Bulk Modulus (GPa) = 18.92412 19.96589 19.44500
# Shear Modulus (GPa) = 11.33299 15.18402 13.25850
#
# Velocity S-wave (km/s) = 2.48058 2.87127 2.68304
# Velocity P-wave (km/s) = 4.29875 4.67255 4.48954
#
# Compressibility (1/GPa) = 0.05284261
#
# Stress axis : x y z
#
# Youngs Moduli (GPa) = 37.10061 37.10061 51.68527
#
# Poissons Ratio (x) = 0.50895 -0.09076
# Poissons Ratio (y) = 0.50895 -0.09076
# Poissons Ratio (z) = -0.06515 -0.06515
#
# Static dielectric constant tensor:
#      x y z
#    x 1.625880 0.000000 0.000000 
#    y 0.000000 1.625880 0.000000 
#    z 0.000000 0.000000 1.681720 
# 
# From -- ./inp_files/7747.got.cif
#   From: 2010.05.17/outbox.cif.g08.bks.cpg/sg191_4_cif.got.tgz:7747.got - 2010.05.20 12:20:32.
