data_PCOD9588729
_publ_section_title
;
Structure prediction by ZEFSAII (Michael W. Deem and Ramdas Pophale) SiO2 
 PCOD9588729
Probable space group: P 6/M C C
;
_chemical_formula_sum "Si O2"
_cell_formula_units_Z 80
_cell_length_a 15.635651
_cell_length_b 15.635651
_cell_length_c 14.539371
_cell_angle_alpha 90.000000
_cell_angle_beta 90.000000
_cell_angle_gamma 120.000000
_cell_volume 3078.280466
_symmetry_space_group_name_H-M "P 6/M C C"
_symmetry_group_IT_number 192
_symmetry_cell_setting 'hexagonal'
loop_
_space_group_symop_operation_xyz
x,y,z
x-y,x,z
-y,x-y,z
-x,-y,z
-x+y,-x,z
y,-x+y,z
x-y,-y,1/2-z
-x,-x+y,1/2-z
y,x,1/2-z
-y,-x,1/2-z
-x+y,y,1/2-z
x,x-y,1/2-z
-x,-y,-z
-x+y,-x,-z
y,-x+y,-z
x,y,-z
x-y,x,-z
-y,x-y,-z
-x+y,y,1/2+z
x,x-y,1/2+z
-y,-x,1/2+z
y,x,1/2+z
x-y,-y,1/2+z
-x,-x+y,1/2+z
loop_
_atom_site_type_symbol
_atom_site_label
_atom_site_fract_x
_atom_site_fract_y
_atom_site_fract_z
Si Si1 0.065825 0.356528 0.395284
Si Si2 0.333333 0.666667 0.641271
Si Si3 0.122433 0.549588 0.103034
Si Si4 0.258691 0.368273 0.301433
O O1 0.103325 0.364679 0.500000
O O2 0.054927 0.455059 0.383003
O O3 0.149362 0.363372 0.319140
O O4 0.957241 0.259059 0.390395
O O5 0.333334 0.666667 0.750000
O O6 0.418308 0.648099 0.605171
O O7 0.136105 0.480395 0.176421
O O8 0.109050 0.508558 0.000000
O O9 0.319812 0.319812 0.250000
#
# Coordination Sequence:
#
# PCOD9588729 Si02
#       4
#    24   8  24  24
#     4  10  22  38  55  77 106 143 187 238 299 361
#     4  12  22  32  49  78 115 158 212 272 319 360
#     4  11  21  34  52  75 108 149 195 249 308 364
#     4  11  22  36  55  78 106 144 192 245 297 350
#
# _framework density 25.988534000000001
#
# number of rings (size 3 to 8) (size 9 to 14) (size 15 to 20)
#    0.000    1.200    0.000    8.100    0.000    9.600 
#    0.000    0.000    0.000    0.000    0.000    0.000 
#    0.000    0.000    0.000   28.800    0.000   62.400 
#
# Total GULP energy -445810.538795 kJ/mol
# GULP energy per Si atom -5572.631735 kJ/mol
# Density = 2.592938 g / cm^3
# Si number density = 25.988534 Si / 1000 Ang^3
#
#
#
# Elastic Constant Matrix: (Units=GPa)
#
#
# Indices 1 2 3 4 5 6 
#
# 1 158.2742 89.2685 77.7911 0.0000 0.0000 0.0000
# 2 89.2685 158.2742 77.7911 0.0000 0.0000 0.0000
# 3 77.7911 77.7911 206.5266 0.0000 0.0000 0.0000
# 4 0.0000 0.0000 0.0000 44.5462 -0.0001 0.0000
# 5 0.0000 0.0000 0.0000 -0.0001 44.5462 0.0000
# 6 0.0000 0.0000 0.0000 0.0000 0.0000 34.5027
#
#
#
# Elastic Compliance Matrix: (Units=1/GPa)
#
#
# Indices 1 2 3 4 5 6 
#
# 1 0.009892 -0.004599 -0.001994 0.000000 0.000000 0.000000
# 2 -0.004599 0.009892 -0.001994 0.000000 0.000000 0.000000
# 3 -0.001994 -0.001994 0.006344 0.000000 0.000000 0.000000
# 4 0.000000 0.000000 0.000000 0.022449 0.000000 0.000000
# 5 0.000000 0.000000 0.000000 0.000000 0.022449 0.000000
# 6 0.000000 0.000000 0.000000 0.000000 0.000000 0.028983
#
#
# Mechanical properties :
#
#
# Convention : Reuss Voigt Hill
#
# Bulk Modulus (GPa) = 111.67067 112.53074 112.10071
# Shear Modulus (GPa) = 41.60891 43.26730 42.43810
#
# Velocity S-wave (km/s) = 4.00565 4.08470 4.04537
# Velocity P-wave (km/s) = 8.02846 8.10188 8.06525
#
# Compressibility (1/GPa) = 0.00895490
#
# Stress axis : x y z
#
# Youngs Moduli (GPa) = 101.09057 101.09058 157.63439
#
# Poissons Ratio (x) = 0.46496 0.31425
# Poissons Ratio (y) = 0.46496 0.31425
# Poissons Ratio (z) = 0.20153 0.20153
#
# Static dielectric constant tensor:
#      x y z
#    x 2.011810 0.000000 0.000000 
#    y 0.000000 2.011810 0.000000 
#    z 0.000000 0.000000 8.216810 
# 
# From -- ./inp_files/2656.got.cif
#   From: 2010.05.17/outbox.cif.g08.bks.cpg/sg192_2_cif.got.tgz:2656.got - 2010.05.20 12:28:01.
