data_PCOD9588832
_publ_section_title
;
Structure prediction by ZEFSAII (Michael W. Deem and Ramdas Pophale) SiO2 
 PCOD9588832
Probable space group: P 6/M C C
;
_chemical_formula_sum "Si O2"
_cell_formula_units_Z 84
_cell_length_a 14.943852
_cell_length_b 14.943852
_cell_length_c 19.806554
_cell_angle_alpha 90.000000
_cell_angle_beta 90.000000
_cell_angle_gamma 120.000000
_cell_volume 3830.581171
_symmetry_space_group_name_H-M "P 6/M C C"
_symmetry_group_IT_number 192
_symmetry_cell_setting 'hexagonal'
loop_
_space_group_symop_operation_xyz
x,y,z
x-y,x,z
-y,x-y,z
-x,-y,z
-x+y,-x,z
y,-x+y,z
x-y,-y,1/2-z
-x,-x+y,1/2-z
y,x,1/2-z
-y,-x,1/2-z
-x+y,y,1/2-z
x,x-y,1/2-z
-x,-y,-z
-x+y,-x,-z
y,-x+y,-z
x,y,-z
x-y,x,-z
-y,x-y,-z
-x+y,y,1/2+z
x,x-y,1/2+z
-y,-x,1/2+z
y,x,1/2+z
x-y,-y,1/2+z
-x,-x+y,1/2+z
loop_
_atom_site_type_symbol
_atom_site_label
_atom_site_fract_x
_atom_site_fract_y
_atom_site_fract_z
Si Si1 0.396663 0.358234 0.500000
Si Si2 0.114682 0.290682 0.000000
Si Si3 0.500000 0.500000 0.875746
Si Si4 0.883459 0.572637 0.214356
Si Si5 0.225718 0.152603 0.853041
O O1 0.350420 0.236977 0.500000
O O2 0.297358 0.372948 0.500000
O O3 0.453821 0.405789 0.570581
O O4 0.071315 0.222316 0.933664
O O5 0.494461 0.586406 0.828482
O O6 0.769341 0.538681 0.250000
O O7 0.886601 0.656853 0.163620
O O8 0.000000 0.639197 0.250000
O O9 0.152087 0.192564 0.826247
#
# Coordination Sequence:
#
# PCOD9588832 Si02
#       5
#    12  12  12  24  24
#     4  11  24  42  76 106 137 183 252 305 377 444
#     4  12  20  40  69 101 139 186 225 303 367 436
#     4  11  25  46  70 108 133 191 258 314 378 447
#     4  12  25  44  72 103 144 195 245 302 372 457
#     4  12  22  38  64 109 152 190 229 282 357 448
#
# _framework density 21.928785999999999
#
# number of rings (size 3 to 8) (size 9 to 14) (size 15 to 20)
#    0.000    0.286    8.571    0.714    0.000    0.000 
#    0.000    1.429    0.000   22.857    0.000    0.000 
#    0.000    0.000    0.000    0.000    0.000    0.000 
#
# Total GULP energy -467679.605369 kJ/mol
# GULP energy per Si atom -5567.614350 kJ/mol
# Density = 2.187888 g / cm^3
# Si number density = 21.928786 Si / 1000 Ang^3
#
#
#
# Elastic Constant Matrix: (Units=GPa)
#
#
# Indices 1 2 3 4 5 6 
#
# 1 111.8046 43.0593 35.6120 0.0000 0.0000 0.0000
# 2 43.0593 111.8046 35.6120 0.0000 0.0000 0.0000
# 3 35.6120 35.6120 96.7730 0.0000 0.0000 0.0000
# 4 0.0000 0.0000 0.0000 24.3530 0.0000 0.0000
# 5 0.0000 0.0000 0.0000 0.0000 24.3530 0.0000
# 6 0.0000 0.0000 0.0000 0.0000 0.0000 34.3726
#
#
#
# Elastic Compliance Matrix: (Units=1/GPa)
#
#
# Indices 1 2 3 4 5 6 
#
# 1 0.011160 -0.003387 -0.002860 0.000000 0.000000 0.000000
# 2 -0.003387 0.011160 -0.002860 0.000000 0.000000 0.000000
# 3 -0.002860 -0.002860 0.012439 0.000000 0.000000 0.000000
# 4 0.000000 0.000000 0.000000 0.041063 0.000000 0.000000
# 5 0.000000 0.000000 0.000000 0.000000 0.041063 0.000000
# 6 0.000000 0.000000 0.000000 0.000000 0.000000 0.029093
#
#
# Mechanical properties :
#
#
# Convention : Reuss Voigt Hill
#
# Bulk Modulus (GPa) = 60.44913 60.99432 60.72173
# Shear Modulus (GPa) = 29.46276 30.35562 29.90919
#
# Velocity S-wave (km/s) = 3.66944 3.72463 3.69714
# Velocity P-wave (km/s) = 6.75123 6.80972 6.78054
#
# Compressibility (1/GPa) = 0.01654284
#
# Stress axis : x y z
#
# Youngs Moduli (GPa) = 89.60868 89.60868 80.39452
#
# Poissons Ratio (x) = 0.30349 0.22996
# Poissons Ratio (y) = 0.30349 0.22996
# Poissons Ratio (z) = 0.25631 0.25631
#
# Static dielectric constant tensor:
#      x y z
#    x 1.834000 0.000000 0.000000 
#    y 0.000000 1.834000 0.000000 
#    z 0.000000 0.000000 1.897390 
# 
# From -- ./inp_files/5613.got.cif
#   From: 2010.05.17/outbox.cif.g08.bks.cpg/sg192_3_cif.got.tgz:5613.got - 2010.05.20 12:28:01.
