data_PCOD9588400
_publ_section_title
;
Structure prediction by ZEFSAII (Michael W. Deem and Ramdas Pophale) SiO2 
 PCOD9588400
Probable space group: P 6/M C C
;
_chemical_formula_sum "Si O2"
_cell_formula_units_Z 168
_cell_length_a 29.636811
_cell_length_b 29.636811
_cell_length_c 14.422938
_cell_angle_alpha 90.000000
_cell_angle_beta 90.000000
_cell_angle_gamma 120.000000
_cell_volume 10971.027646
_symmetry_space_group_name_H-M "P 6/M C C"
_symmetry_group_IT_number 192
_symmetry_cell_setting 'hexagonal'
loop_
_space_group_symop_operation_xyz
x,y,z
x-y,x,z
-y,x-y,z
-x,-y,z
-x+y,-x,z
y,-x+y,z
x-y,-y,1/2-z
-x,-x+y,1/2-z
y,x,1/2-z
-y,-x,1/2-z
-x+y,y,1/2-z
x,x-y,1/2-z
-x,-y,-z
-x+y,-x,-z
y,-x+y,-z
x,y,-z
x-y,x,-z
-y,x-y,-z
-x+y,y,1/2+z
x,x-y,1/2+z
-y,-x,1/2+z
y,x,1/2+z
x-y,-y,1/2+z
-x,-x+y,1/2+z
loop_
_atom_site_type_symbol
_atom_site_label
_atom_site_fract_x
_atom_site_fract_y
_atom_site_fract_z
Si Si1 0.000000 0.249621 0.110278
Si Si2 0.894917 0.543844 0.888451
Si Si3 0.351073 0.456156 0.111549
Si Si4 0.583526 0.845331 0.750000
Si Si5 0.709870 0.801057 0.250000
Si Si6 0.355885 0.355886 0.389592
Si Si7 0.469269 0.938538 0.387658
O O1 0.946978 0.208535 0.162355
O O2 0.000000 0.303325 0.127642
O O3 0.053022 0.261557 0.162355
O O4 0.000000 0.240828 0.000000
O O5 0.852876 0.553624 0.837078
O O6 0.905873 0.497455 0.862190
O O7 0.948311 0.594524 0.857558
O O8 0.888754 0.543089 0.000000
O O9 0.299252 0.446376 0.162922
O O10 0.353788 0.405476 0.142443
O O11 0.408418 0.502545 0.137810
O O12 0.345666 0.456911 0.000000
O O13 0.578732 0.789366 0.750000
O O14 0.646741 0.886332 0.750000
O O15 0.716081 0.858041 0.250000
O O16 0.362317 0.362317 0.500000
O O17 0.470950 0.941899 0.500000
O O18 0.500000 0.000000 0.357185
#
# Coordination Sequence:
#
# PCOD9588400 Si02
#       7
#    24  24  24  24  24  24  24
#     4  10  19  33  51  68  93 135 172 205 246 282
#     4  10  19  32  49  69  98 129 156 192 239 294
#     4  10  19  32  49  69  98 129 156 192 239 294
#     4  11  23  34  45  64  93 129 167 204 241 279
#     4  10  21  33  47  71  97 125 170 215 241 276
#     4   9  15  26  45  67  93 129 160 185 229 284
#     4   9  16  29  49  75 104 127 149 184 237 303
#
# _framework density 15.31306
#
# number of rings (size 3 to 8) (size 9 to 14) (size 15 to 20)
#    0.000    2.143    4.286    0.000    0.000    2.286 
#    0.000    3.571    0.000    0.000    0.000    0.000 
#    5.714    0.000    1.714   13.714    0.000   29.714 
#
# Total GULP energy -935330.861322 kJ/mol
# GULP energy per Si atom -5567.445603 kJ/mol
# Density = 1.527821 g / cm^3
# Si number density = 15.313060 Si / 1000 Ang^3
#
#
#
# Elastic Constant Matrix: (Units=GPa)
#
#
# Indices 1 2 3 4 5 6 
#
# 1 99.6852 52.3154 48.5850 0.0000 0.0000 0.0000
# 2 52.3154 99.6852 48.5850 0.0000 0.0000 0.0000
# 3 48.5850 48.5850 95.0875 0.0000 0.0000 0.0000
# 4 0.0000 0.0000 0.0000 11.8070 0.0000 0.0000
# 5 0.0000 0.0000 0.0000 0.0000 11.8070 0.0000
# 6 0.0000 0.0000 0.0000 0.0000 0.0000 23.6849
#
#
#
# Elastic Compliance Matrix: (Units=1/GPa)
#
#
# Indices 1 2 3 4 5 6 
#
# 1 0.015440 -0.005670 -0.004992 0.000000 0.000000 0.000000
# 2 -0.005670 0.015440 -0.004992 0.000000 0.000000 0.000000
# 3 -0.004992 -0.004992 0.015618 0.000000 0.000000 0.000000
# 4 0.000000 0.000000 0.000000 0.084696 0.000000 0.000000
# 5 0.000000 0.000000 0.000000 0.000000 0.084696 0.000000
# 6 0.000000 0.000000 0.000000 0.000000 0.000000 0.042221
#
#
# Mechanical properties :
#
#
# Convention : Reuss Voigt Hill
#
# Bulk Modulus (GPa) = 65.83229 65.93655 65.88442
# Shear Modulus (GPa) = 16.97887 19.12458 18.05172
#
# Velocity S-wave (km/s) = 3.33345 3.53782 3.43716
# Velocity P-wave (km/s) = 7.60921 7.73568 7.67271
#
# Compressibility (1/GPa) = 0.01519011
#
# Stress axis : x y z
#
# Youngs Moduli (GPa) = 64.76523 64.76523 64.02830
#
# Poissons Ratio (x) = 0.36723 0.31964
# Poissons Ratio (y) = 0.36723 0.31964
# Poissons Ratio (z) = 0.32332 0.32332
#
# Static dielectric constant tensor:
#      x y z
#    x 1.508010 0.000000 0.000000 
#    y 0.000000 1.508010 0.000000 
#    z 0.000000 0.000000 1.574760 
# 
# From -- ./inp_files/3509.got.cif
#   From: 2010.05.17/outbox.cif.g08.bks.cpg/sg192_2_cif.got.tgz:3509.got - 2010.05.20 12:28:01.
