data_PCOD9588690
_publ_section_title
;
Structure prediction by ZEFSAII (Michael W. Deem and Ramdas Pophale) SiO2 
 PCOD9588690
Probable space group: P 6/M C C
;
_chemical_formula_sum "Si O2"
_cell_formula_units_Z 120
_cell_length_a 13.778548
_cell_length_b 13.778548
_cell_length_c 29.462903
_cell_angle_alpha 90.000000
_cell_angle_beta 90.000000
_cell_angle_gamma 120.000000
_cell_volume 4844.099717
_symmetry_space_group_name_H-M "P 6/M C C"
_symmetry_group_IT_number 192
_symmetry_cell_setting 'hexagonal'
loop_
_space_group_symop_operation_xyz
x,y,z
x-y,x,z
-y,x-y,z
-x,-y,z
-x+y,-x,z
y,-x+y,z
x-y,-y,1/2-z
-x,-x+y,1/2-z
y,x,1/2-z
-y,-x,1/2-z
-x+y,y,1/2-z
x,x-y,1/2-z
-x,-y,-z
-x+y,-x,-z
y,-x+y,-z
x,y,-z
x-y,x,-z
-y,x-y,-z
-x+y,y,1/2+z
x,x-y,1/2+z
-y,-x,1/2+z
y,x,1/2+z
x-y,-y,1/2+z
-x,-x+y,1/2+z
loop_
_atom_site_type_symbol
_atom_site_label
_atom_site_fract_x
_atom_site_fract_y
_atom_site_fract_z
Si Si1 0.261485 0.467897 0.801279
Si Si2 0.530583 0.400995 0.141808
Si Si3 0.044123 0.238056 0.682164
Si Si4 0.504892 0.119276 0.950540
Si Si5 0.059140 0.250489 0.572674
O O1 0.244237 0.488473 0.750000
O O2 0.372606 0.566593 0.822029
O O3 0.163055 0.442182 0.838730
O O4 0.278781 0.360874 0.800855
O O5 0.500000 0.500000 0.142346
O O6 0.582881 0.410782 0.091899
O O7 0.140824 0.214170 0.698118
O O8 0.048728 0.241570 0.627307
O O9 0.378309 0.093681 0.939924
O O10 0.500000 0.000000 0.954375
O O11 0.538692 0.174857 0.000000
O O12 0.155821 0.222573 0.557219
#
# Coordination Sequence:
#
# PCOD9588690 Si02
#       5
#    24  24  24  24  24
#     4  12  25  42  67 101 133 176 236 291 354 428
#     4  11  25  45  70  95 136 178 222 290 360 423
#     4  10  21  38  63  98 139 185 229 282 345 420
#     4  10  23  42  68 100 136 184 237 290 350 422
#     4  10  21  40  70 107 150 194 239 290 352 427
#
# _framework density 24.772403000000001
#
# number of rings (size 3 to 8) (size 9 to 14) (size 15 to 20)
#    0.000    1.400    2.000    2.600    8.400    6.400 
#    0.000    3.000    0.000    3.200    0.000    0.000 
#    0.000    0.000    0.000    0.000    0.000    0.000 
#
# Total GULP energy -670946.562713 kJ/mol
# GULP energy per Si atom -5591.221356 kJ/mol
# Density = 2.471602 g / cm^3
# Si number density = 24.772403 Si / 1000 Ang^3
#
#
#
# Elastic Constant Matrix: (Units=GPa)
#
#
# Indices 1 2 3 4 5 6 
#
# 1 98.8922 15.5717 26.7924 0.0000 0.0000 0.0000
# 2 15.5717 98.8922 26.7924 0.0000 0.0000 0.0000
# 3 26.7924 26.7924 162.1116 0.0000 0.0000 0.0000
# 4 0.0000 0.0000 0.0000 63.5181 0.0000 0.0000
# 5 0.0000 0.0000 0.0000 0.0000 63.5181 0.0000
# 6 0.0000 0.0000 0.0000 0.0000 0.0000 41.6603
#
#
#
# Elastic Compliance Matrix: (Units=1/GPa)
#
#
# Indices 1 2 3 4 5 6 
#
# 1 0.010735 -0.001266 -0.001565 0.000000 0.000000 0.000000
# 2 -0.001266 0.010735 -0.001565 0.000000 0.000000 0.000000
# 3 -0.001565 -0.001565 0.006686 0.000000 0.000000 0.000000
# 4 0.000000 0.000000 0.000000 0.015744 0.000000 0.000000
# 5 0.000000 0.000000 0.000000 0.000000 0.015744 0.000000
# 6 0.000000 0.000000 0.000000 0.000000 0.000000 0.024004
#
#
# Mechanical properties :
#
#
# Convention : Reuss Voigt Hill
#
# Bulk Modulus (GPa) = 51.64210 55.35657 53.49934
# Shear Modulus (GPa) = 50.55875 53.12193 51.84034
#
# Velocity S-wave (km/s) = 4.52257 4.63579 4.57953
# Velocity P-wave (km/s) = 6.93998 7.14483 7.04315
#
# Compressibility (1/GPa) = 0.01936405
#
# Stress axis : x y z
#
# Youngs Moduli (GPa) = 93.14958 93.14958 149.56906
#
# Poissons Ratio (x) = 0.11797 0.23407
# Poissons Ratio (y) = 0.11797 0.23407
# Poissons Ratio (z) = 0.14578 0.14578
#
# Static dielectric constant tensor:
#      x y z
#    x 1.978960 0.000000 0.000000 
#    y 0.000000 1.978960 0.000000 
#    z 0.000000 0.000000 1.963790 
# 
# From -- ./inp_files/6931.got.cif
#   From: 2010.05.17/outbox.cif.g08.bks.cpg/sg192_4_cif.got.tgz:6931.got - 2010.05.20 12:28:01.
