data_PCOD9588914
_publ_section_title
;
Structure prediction by ZEFSAII (Michael W. Deem and Ramdas Pophale) SiO2 
 PCOD9588914
Probable space group: P 63/M C M
;
_chemical_formula_sum "Si O2"
_cell_formula_units_Z 192
_cell_length_a 30.369862
_cell_length_b 30.369862
_cell_length_c 14.134811
_cell_angle_alpha 90.000000
_cell_angle_beta 90.000000
_cell_angle_gamma 120.000000
_cell_volume 11290.320604
_symmetry_space_group_name_H-M "P 63/M C M"
_symmetry_group_IT_number 193
_symmetry_cell_setting 'hexagonal'
loop_
_space_group_symop_operation_xyz
x,y,z
x-y,x,1/2+z
-y,x-y,z
-x,-y,1/2+z
-x+y,-x,z
y,-x+y,1/2+z
x-y,-y,1/2-z
-x,-x+y,1/2-z
y,x,1/2-z
-y,-x,-z
-x+y,y,-z
x,x-y,-z
-x,-y,-z
-x+y,-x,1/2-z
y,-x+y,-z
x,y,1/2-z
x-y,x,-z
-y,x-y,1/2-z
-x+y,y,1/2+z
x,x-y,1/2+z
-y,-x,1/2+z
y,x,z
x-y,-y,z
-x,-x+y,z
loop_
_atom_site_type_symbol
_atom_site_label
_atom_site_fract_x
_atom_site_fract_y
_atom_site_fract_z
Si Si1 0.156552 0.285799 0.639280
Si Si2 0.772609 0.440920 0.364774
Si Si3 0.058591 0.358307 0.643815
Si Si4 0.208545 0.939629 0.536112
Si Si5 0.574868 0.240119 0.141325
Si Si6 0.793031 0.198730 0.357200
Si Si7 0.454503 0.314723 0.059300
Si Si8 0.679473 0.534722 0.146711
O O1 0.159962 0.276153 0.750000
O O2 0.098206 0.259732 0.603396
O O3 0.189067 0.271315 0.568976
O O4 0.179027 0.346520 0.626950
O O5 0.778225 0.446617 0.250000
O O6 0.721165 0.440591 0.394595
O O7 0.763893 0.386192 0.395098
O O8 0.822638 0.487703 0.409720
O O9 0.066819 0.344351 0.750000
O O10 0.068278 0.323577 0.569907
O O11 0.093555 0.417792 0.626130
O O12 0.000000 0.341306 0.635714
O O13 0.229571 0.000000 0.544399
O O14 0.589554 0.256818 0.250000
O O15 0.525006 0.185194 0.141337
O O16 0.771392 0.182820 0.250000
O O17 0.746615 0.175071 0.429776
O O18 0.822382 0.259323 0.355032
O O19 0.450898 0.333154 0.954314
O O20 0.664495 0.545925 0.250000
#
# Coordination Sequence:
#
# PCOD9588914 Si02
#       8
#    24  24  24  24  24  24  24  24
#     4  10  20  33  51  74 105 146 186 222 264 318
#     4  10  19  31  50  72  99 133 164 202 254 315
#     4  10  20  34  53  78 107 133 161 210 272 323
#     4  10  20  32  49  75 107 143 183 226 272 318
#     4   9  18  32  45  67  99 129 160 196 247 305
#     4  10  18  29  47  72  96 121 164 211 252 300
#     4  12  20  30  52  74  97 128 169 210 249 307
#     4  10  21  33  45  65  95 128 162 204 248 291
#
# _framework density 17.005716
#
# number of rings (size 3 to 8) (size 9 to 14) (size 15 to 20)
#    0.000    1.875    2.500    2.875    1.750    2.500 
#    0.000    0.000    0.000    2.625    0.000    1.750 
#    0.000    3.000    0.000   12.125    0.000   26.000 
#
# Total GULP energy -1070180.833388 kJ/mol
# GULP energy per Si atom -5573.858507 kJ/mol
# Density = 1.696701 g / cm^3
# Si number density = 17.005716 Si / 1000 Ang^3
#
#
#
# Elastic Constant Matrix: (Units=GPa)
#
#
# Indices 1 2 3 4 5 6 
#
# 1 51.1421 33.5983 20.5424 0.0000 0.0000 0.0000
# 2 33.5983 51.1421 20.5424 0.0000 0.0000 0.0000
# 3 20.5424 20.5424 125.3283 0.0000 0.0000 0.0000
# 4 0.0000 0.0000 0.0000 8.3390 0.0000 0.0000
# 5 0.0000 0.0000 0.0000 0.0000 8.3390 0.0000
# 6 0.0000 0.0000 0.0000 0.0000 0.0000 8.7719
#
#
#
# Elastic Compliance Matrix: (Units=1/GPa)
#
#
# Indices 1 2 3 4 5 6 
#
# 1 0.034910 -0.022090 -0.002101 0.000000 0.000000 0.000000
# 2 -0.022090 0.034910 -0.002101 0.000000 0.000000 0.000000
# 3 -0.002101 -0.002101 0.008668 0.000000 0.000000 0.000000
# 4 0.000000 0.000000 0.000000 0.119918 0.000000 0.000000
# 5 0.000000 0.000000 0.000000 0.000000 0.119918 0.000000
# 6 0.000000 0.000000 0.000000 0.000000 0.000000 0.114000
#
#
# Mechanical properties :
#
#
# Convention : Reuss Voigt Hill
#
# Bulk Modulus (GPa) = 38.60716 41.88654 40.24685
# Shear Modulus (GPa) = 10.13082 15.28528 12.70805
#
# Velocity S-wave (km/s) = 2.44341 3.00131 2.73661
# Velocity P-wave (km/s) = 5.54185 6.05762 5.80546
#
# Compressibility (1/GPa) = 0.02590193
#
# Stress axis : x y z
#
# Youngs Moduli (GPa) = 28.64532 28.64532 115.36865
#
# Poissons Ratio (x) = 0.63278 0.24242
# Poissons Ratio (y) = 0.63278 0.24242
# Poissons Ratio (z) = 0.06019 0.06019
#
# Static dielectric constant tensor:
#      x y z
#    x 1.562540 0.000000 0.000000 
#    y 0.000000 1.562540 0.000000 
#    z 0.000000 0.000000 1.712060 
# 
# From -- ./inp_files/4478.got.cif
#   From: 2010.05.17/outbox.cif.g08.bks.cpg/sg193_3_cif.got.tgz:4478.got - 2010.05.20 12:33:02.
