data_PCOD9588207
_publ_section_title
;
Structure prediction by ZEFSAII (Michael W. Deem and Ramdas Pophale) SiO2 
 PCOD9588207
Probable space group: P 6/M M M
;
_chemical_formula_sum "Si O2"
_cell_formula_units_Z 120
_cell_length_a 23.277078
_cell_length_b 23.277078
_cell_length_c 13.800834
_cell_angle_alpha 90.000000
_cell_angle_beta 90.000000
_cell_angle_gamma 120.000000
_cell_volume 6475.791950
_symmetry_space_group_name_H-M "P 6/M M M"
_symmetry_group_IT_number 191
_symmetry_cell_setting 'hexagonal'
loop_
_space_group_symop_operation_xyz
x,y,z
x-y,x,z
-y,x-y,z
-x,-y,z
-x+y,-x,z
y,-x+y,z
x-y,-y,-z
-x,-x+y,-z
y,x,-z
-y,-x,-z
-x+y,y,-z
x,x-y,-z
-x,-y,-z
-x+y,-x,-z
y,-x+y,-z
x,y,-z
x-y,x,-z
-y,x-y,-z
-x+y,y,z
x,x-y,z
-y,-x,z
y,x,z
x-y,-y,z
-x,-x+y,z
loop_
_atom_site_type_symbol
_atom_site_label
_atom_site_fract_x
_atom_site_fract_y
_atom_site_fract_z
Si Si1 0.336157 0.921199 0.386335
Si Si2 0.000000 0.745972 0.118170
Si Si3 0.388529 0.000000 0.884263
Si Si4 0.853840 0.707679 0.882004
Si Si5 0.366466 0.500875 0.793006
Si Si6 0.795117 0.074962 0.381875
Si Si7 0.775765 0.224236 0.883520
O O1 0.334537 0.906139 0.500000
O O2 0.355118 0.878403 0.318179
O O3 0.264254 0.910814 0.357461
O O4 0.387335 0.000000 0.373885
O O5 0.000000 0.678656 0.147010
O O6 0.930608 0.740216 0.148962
O O7 0.000000 0.746404 0.000000
O O8 0.452181 0.064732 0.845058
O O9 0.388886 0.000000 0.000000
O O10 0.814846 0.629692 0.856097
O O11 0.855028 0.710056 0.000000
O O12 0.424034 0.575966 0.803018
O O13 0.297637 0.483855 0.841185
O O14 0.796546 0.074299 0.500000
O O15 0.865862 0.134139 0.348920
O O16 0.772010 0.000000 0.350613
O O17 0.774464 0.225537 0.000000
#
# Coordination Sequence:
#
# PCOD9588207 Si02
#       7
#    24  12  12  12  24  24  12
#     4   9  19  36  57  86 122 153 186 236 300 365
#     4   9  16  29  52  79 110 149 193 240 294 346
#     4  11  21  36  60  88 117 150 189 243 305 360
#     4   9  16  30  52  78 111 150 193 240 292 346
#     4  12  25  40  60  89 119 153 198 245 300 370
#     4   8  14  26  47  75 108 148 191 236 289 346
#     4  11  24  42  61  83 116 159 203 253 302 350
#
# _framework density 18.530552
#
# number of rings (size 3 to 8) (size 9 to 14) (size 15 to 20)
#    0.000    2.200    3.000    2.100    1.400    2.400 
#    0.600    1.000    0.000    0.400    0.000    2.800 
#    0.000    0.000    0.000    0.000    3.000    0.000 
#
# Total GULP energy -670668.548755 kJ/mol
# GULP energy per Si atom -5588.904573 kJ/mol
# Density = 1.848838 g / cm^3
# Si number density = 18.530552 Si / 1000 Ang^3
#
#
#
# Elastic Constant Matrix: (Units=GPa)
#
#
# Indices 1 2 3 4 5 6 
#
# 1 132.9916 82.0278 38.9843 0.0000 0.0000 0.0000
# 2 82.0278 132.9916 38.9843 0.0000 0.0000 0.0000
# 3 38.9843 38.9843 88.1293 0.0000 0.0000 0.0000
# 4 0.0000 0.0000 0.0000 23.3458 0.0000 0.0000
# 5 0.0000 0.0000 0.0000 0.0000 23.3458 0.0000
# 6 0.0000 0.0000 0.0000 0.0000 0.0000 25.4819
#
#
#
# Elastic Compliance Matrix: (Units=1/GPa)
#
#
# Indices 1 2 3 4 5 6 
#
# 1 0.012581 -0.007041 -0.002450 0.000000 0.000000 0.000000
# 2 -0.007041 0.012581 -0.002450 0.000000 0.000000 0.000000
# 3 -0.002450 -0.002450 0.013515 0.000000 0.000000 0.000000
# 4 0.000000 0.000000 0.000000 0.042834 0.000000 0.000000
# 5 0.000000 0.000000 0.000000 0.000000 0.042834 0.000000
# 6 0.000000 0.000000 0.000000 0.000000 0.000000 0.039243
#
#
# Mechanical properties :
#
#
# Convention : Reuss Voigt Hill
#
# Bulk Modulus (GPa) = 67.60389 74.90057 71.25223
# Shear Modulus (GPa) = 25.98725 27.37580 26.68153
#
# Velocity S-wave (km/s) = 3.74893 3.84778 3.79867
# Velocity P-wave (km/s) = 7.43645 7.76198 7.60096
#
# Compressibility (1/GPa) = 0.01479205
#
# Stress axis : x y z
#
# Youngs Moduli (GPa) = 79.48809 79.48809 73.99315
#
# Poissons Ratio (x) = 0.55970 0.18131
# Poissons Ratio (y) = 0.55970 0.18131
# Poissons Ratio (z) = 0.19477 0.19477
#
# Static dielectric constant tensor:
#      x y z
#    x 1.619080 0.000000 0.000000 
#    y 0.000000 1.619080 0.000000 
#    z 0.000000 0.000000 1.712520 
# 
# From -- ./inp_files/4877.got.cif
#   From: 2010.05.17/outbox.cif.g08.bks.cpg/sg191_3_cif.got.tgz:4877.got - 2010.05.20 12:20:32.
