data_PCOD9588662
_publ_section_title
;
Structure prediction by ZEFSAII (Michael W. Deem and Ramdas Pophale) SiO2 
 PCOD9588662
Probable space group: P 6/M C C
;
_chemical_formula_sum "Si O2"
_cell_formula_units_Z 104
_cell_length_a 21.635020
_cell_length_b 21.635020
_cell_length_c 14.568368
_cell_angle_alpha 90.000000
_cell_angle_beta 90.000000
_cell_angle_gamma 120.000000
_cell_volume 5905.492700
_symmetry_space_group_name_H-M "P 6/M C C"
_symmetry_group_IT_number 192
_symmetry_cell_setting 'hexagonal'
loop_
_space_group_symop_operation_xyz
x,y,z
x-y,x,z
-y,x-y,z
-x,-y,z
-x+y,-x,z
y,-x+y,z
x-y,-y,1/2-z
-x,-x+y,1/2-z
y,x,1/2-z
-y,-x,1/2-z
-x+y,y,1/2-z
x,x-y,1/2-z
-x,-y,-z
-x+y,-x,-z
y,-x+y,-z
x,y,-z
x-y,x,-z
-y,x-y,-z
-x+y,y,1/2+z
x,x-y,1/2+z
-y,-x,1/2+z
y,x,1/2+z
x-y,-y,1/2+z
-x,-x+y,1/2+z
loop_
_atom_site_type_symbol
_atom_site_label
_atom_site_fract_x
_atom_site_fract_y
_atom_site_fract_z
Si Si1 0.426234 0.426234 0.853878
Si Si2 0.145642 0.145642 0.140328
Si Si3 0.898087 0.578267 0.500000
Si Si4 0.743950 0.743950 0.500000
Si Si5 0.333334 0.666668 0.862664
Si Si6 0.319820 0.898088 0.000000
Si Si7 0.732333 0.464666 0.500000
O O1 0.500000 0.500000 0.855146
O O2 0.404007 0.404007 0.750000
O O3 0.368072 0.435086 0.910417
O O4 0.435085 0.368072 0.910417
O O5 0.142121 0.071060 0.117036
O O6 0.155382 0.155382 0.250000
O O7 0.210190 0.210190 0.086635
O O8 0.930295 0.664199 0.500000
O O9 0.816297 0.519466 0.500000
O O10 0.733905 0.664199 0.500000
O O11 0.333334 0.666667 0.750000
O O12 0.293980 0.587961 0.910988
O O13 0.296832 0.816298 0.000000
#
# Coordination Sequence:
#
# PCOD9588662 Si02
#       7
#    24  24  12  12   8  12  12
#     4   9  19  35  61  87 111 145 192 241 287 351
#     4  10  21  37  58  83 114 154 200 248 294 344
#     4  10  22  38  58  84 120 154 191 237 302 357
#     4  10  22  36  60  84 120 150 194 242 292 354
#     4  10  26  46  64  92 121 157 206 250 295 359
#     4  10  22  38  58  84 120 154 191 237 302 357
#     4  10  24  42  66  88 124 162 196 248 304 360
#
# _framework density 17.610723
#
# number of rings (size 3 to 8) (size 9 to 14) (size 15 to 20)
#    0.000    2.538    0.000    2.308    9.692    6.462 
#    0.000    1.154    0.000    0.000    0.000    0.000 
#    0.000    0.000    0.000    0.000    0.000    0.000 
#
# Total GULP energy -579611.087505 kJ/mol
# GULP energy per Si atom -5573.183534 kJ/mol
# Density = 1.757064 g / cm^3
# Si number density = 17.610723 Si / 1000 Ang^3
#
#
#
# Elastic Constant Matrix: (Units=GPa)
#
#
# Indices 1 2 3 4 5 6 
#
# 1 141.8413 90.6782 71.4266 0.0000 0.0000 0.0000
# 2 90.6782 141.8409 71.4264 -0.0001 0.0000 0.0000
# 3 71.4266 71.4264 165.2359 0.0000 0.0000 0.0000
# 4 0.0000 -0.0001 0.0000 -9.6521 0.0000 0.0000
# 5 0.0000 0.0000 0.0000 0.0000 -9.6520 0.0000
# 6 0.0000 0.0000 0.0000 0.0000 0.0000 25.5816
#
#
#
# Elastic Compliance Matrix: (Units=1/GPa)
#
#
# Indices 1 2 3 4 5 6 
#
# 1 0.012701 -0.006845 -0.002531 0.000000 0.000000 0.000000
# 2 -0.006845 0.012701 -0.002531 0.000000 0.000000 0.000000
# 3 -0.002531 -0.002531 0.008240 0.000000 0.000000 0.000000
# 4 0.000000 0.000000 0.000000 -0.103604 0.000000 0.000000
# 5 0.000000 0.000000 0.000000 0.000000 -0.103605 0.000000
# 6 0.000000 0.000000 0.000000 0.000000 0.000000 0.039091
#
#
# Mechanical properties :
#
#
# Convention : Reuss Voigt Hill
#
# Bulk Modulus (GPa) = 101.76187 101.77562 101.76875
# Shear Modulus (GPa) = -46.56084 15.61460 -15.47312
#
# Velocity S-wave (km/s) = -5.14746 2.98090 -2.96737
# Velocity P-wave (km/s) = 4.75195 8.35255 6.79507
#
# Compressibility (1/GPa) = 0.00982686
#
# Stress axis : x y z
#
# Youngs Moduli (GPa) = 78.73623 78.73604 121.35357
#
# Poissons Ratio (x) = 0.53893 0.30719
# Poissons Ratio (y) = 0.53893 0.30719
# Poissons Ratio (z) = 0.19931 0.19931
#
# Static dielectric constant tensor:
#      x y z
#    x 1.639370 0.000000 0.000000 
#    y 0.000000 1.639380 0.000000 
#    z 0.000000 0.000000 1.595110 
# 
# From -- ./inp_files/2979.got.cif
#   From: 2010.05.17/outbox.cif.g08.bks.cpg/sg192_2_cif.got.tgz:2979.got - 2010.05.20 12:28:01.
