data_PCOD9588319
_publ_section_title
;
Structure prediction by ZEFSAII (Michael W. Deem and Ramdas Pophale) SiO2 
 PCOD9588319
Probable space group: P 6/M C C
;
_chemical_formula_sum "Si O2"
_cell_formula_units_Z 144
_cell_length_a 21.991136
_cell_length_b 21.991136
_cell_length_c 20.519485
_cell_angle_alpha 90.000000
_cell_angle_beta 90.000000
_cell_angle_gamma 120.000000
_cell_volume 8593.941975
_symmetry_space_group_name_H-M "P 6/M C C"
_symmetry_group_IT_number 192
_symmetry_cell_setting 'hexagonal'
loop_
_space_group_symop_operation_xyz
x,y,z
x-y,x,z
-y,x-y,z
-x,-y,z
-x+y,-x,z
y,-x+y,z
x-y,-y,1/2-z
-x,-x+y,1/2-z
y,x,1/2-z
-y,-x,1/2-z
-x+y,y,1/2-z
x,x-y,1/2-z
-x,-y,-z
-x+y,-x,-z
y,-x+y,-z
x,y,-z
x-y,x,-z
-y,x-y,-z
-x+y,y,1/2+z
x,x-y,1/2+z
-y,-x,1/2+z
y,x,1/2+z
x-y,-y,1/2+z
-x,-x+y,1/2+z
loop_
_atom_site_type_symbol
_atom_site_label
_atom_site_fract_x
_atom_site_fract_y
_atom_site_fract_z
Si Si1 0.916658 0.083335 0.500000
Si Si2 0.193813 0.527770 0.579240
Si Si3 0.918157 0.630268 0.922406
Si Si4 0.287891 0.369734 0.077594
Si Si5 0.527768 0.193814 0.579241
Si Si6 0.865923 0.134074 0.375909
Si Si7 0.915462 0.830924 0.250000
O O1 0.892025 0.107967 0.437114
O O2 0.999997 0.119484 0.500000
O O3 0.194195 0.529541 0.500000
O O4 0.132148 0.450321 0.597365
O O5 0.268568 0.537139 0.599614
O O6 0.184155 0.592079 0.602014
O O7 0.867850 0.549682 0.902635
O O8 0.899349 0.681704 0.883407
O O9 1.000000 0.656154 0.915088
O O10 0.905429 0.636227 0.000000
O O11 0.217648 0.318301 0.116594
O O12 0.269204 0.363775 0.000000
O O13 0.529538 0.194196 0.500000
O O14 0.889946 0.110052 0.312438
O O15 0.878975 0.878975 0.250000
#
# Coordination Sequence:
#
# PCOD9588319 Si02
#       7
#    12  24  24  24  24  24  12
#     4  12  23  36  56  80 106 138 182 230 278 332
#     4   9  16  26  41  67 105 147 180 213 264 326
#     4  10  18  30  50  75 104 138 179 225 271 322
#     4  10  18  30  50  75 104 138 179 225 271 322
#     4   9  16  26  41  67 105 147 180 213 264 326
#     4  12  22  38  57  80 106 144 184 222 281 335
#     4  12  27  44  60  80 110 146 186 234 286 340
#
# _framework density 16.755989
#
# number of rings (size 3 to 8) (size 9 to 14) (size 15 to 20)
#    0.000    1.667    3.333    3.500    0.000    2.000 
#    0.000    5.000    0.000    0.000    0.000    1.167 
#    0.000    4.000    0.000    0.000    0.000    0.000 
#
# Total GULP energy -803643.265205 kJ/mol
# GULP energy per Si atom -5580.856008 kJ/mol
# Density = 1.671785 g / cm^3
# Si number density = 16.755989 Si / 1000 Ang^3
#
#
#
# Elastic Constant Matrix: (Units=GPa)
#
#
# Indices 1 2 3 4 5 6 
#
# 1 169.8124 104.4071 43.6927 0.0000 0.0000 0.0000
# 2 104.4071 169.8124 43.6927 0.0000 0.0000 0.0000
# 3 43.6927 43.6927 63.5526 0.0000 0.0000 0.0000
# 4 0.0000 0.0000 0.0000 40.9074 0.0000 0.0000
# 5 0.0000 0.0000 0.0000 0.0000 40.9074 0.0000
# 6 0.0000 0.0000 0.0000 0.0000 0.0000 32.7026
#
#
#
# Elastic Compliance Matrix: (Units=1/GPa)
#
#
# Indices 1 2 3 4 5 6 
#
# 1 0.009980 -0.005310 -0.003211 0.000000 0.000000 0.000000
# 2 -0.005310 0.009980 -0.003211 0.000000 0.000000 0.000000
# 3 -0.003211 -0.003211 0.020149 0.000000 0.000000 0.000000
# 4 0.000000 0.000000 0.000000 0.024445 0.000000 0.000000
# 5 0.000000 0.000000 0.000000 0.000000 0.024445 0.000000
# 6 0.000000 0.000000 0.000000 0.000000 0.000000 0.030579
#
#
# Mechanical properties :
#
#
# Convention : Reuss Voigt Hill
#
# Bulk Modulus (GPa) = 60.07074 87.41802 73.74438
# Shear Modulus (GPa) = 33.64996 36.99580 35.32288
#
# Velocity S-wave (km/s) = 4.48619 4.70394 4.59636
# Velocity P-wave (km/s) = 7.92229 9.04363 8.50147
#
# Compressibility (1/GPa) = 0.01664704
#
# Stress axis : x y z
#
# Youngs Moduli (GPa) = 100.20498 100.20498 49.62912
#
# Poissons Ratio (x) = 0.53206 0.15933
# Poissons Ratio (y) = 0.53206 0.15933
# Poissons Ratio (z) = 0.32171 0.32171
#
# Static dielectric constant tensor:
#      x y z
#    x 1.561860 0.000000 0.000000 
#    y 0.000000 1.561860 0.000000 
#    z 0.000000 0.000000 1.558060 
# 
# From -- ./inp_files/5176.got.cif
#   From: 2010.05.17/outbox.cif.g08.bks.cpg/sg192_3_cif.got.tgz:5176.got - 2010.05.20 12:28:01.
