data_PCOD9588722
_publ_section_title
;
Structure prediction by ZEFSAII (Michael W. Deem and Ramdas Pophale) SiO2 
 PCOD9588722
Probable space group: P 6/M C C
;
_chemical_formula_sum "Si O2"
_cell_formula_units_Z 132
_cell_length_a 24.147038
_cell_length_b 24.147038
_cell_length_c 15.005655
_cell_angle_alpha 90.000000
_cell_angle_beta 90.000000
_cell_angle_gamma 120.000000
_cell_volume 7577.279724
_symmetry_space_group_name_H-M "P 6/M C C"
_symmetry_group_IT_number 192
_symmetry_cell_setting 'hexagonal'
loop_
_space_group_symop_operation_xyz
x,y,z
x-y,x,z
-y,x-y,z
-x,-y,z
-x+y,-x,z
y,-x+y,z
x-y,-y,1/2-z
-x,-x+y,1/2-z
y,x,1/2-z
-y,-x,1/2-z
-x+y,y,1/2-z
x,x-y,1/2-z
-x,-y,-z
-x+y,-x,-z
y,-x+y,-z
x,y,-z
x-y,x,-z
-y,x-y,-z
-x+y,y,1/2+z
x,x-y,1/2+z
-y,-x,1/2+z
y,x,1/2+z
x-y,-y,1/2+z
-x,-x+y,1/2+z
loop_
_atom_site_type_symbol
_atom_site_label
_atom_site_fract_x
_atom_site_fract_y
_atom_site_fract_z
Si Si1 0.932080 0.621486 0.606404
Si Si2 0.864121 0.875954 0.000000
Si Si3 0.077034 0.601024 0.246365
Si Si4 0.608260 0.689989 0.104224
Si Si5 0.163404 0.322926 0.894312
Si Si6 0.197366 0.052416 0.311829
O O1 0.926115 0.610890 0.500000
O O2 0.911240 0.556134 0.659698
O O3 0.885702 0.648852 0.632691
O O4 0.007747 0.670930 0.624632
O O5 0.929050 0.875590 0.000000
O O6 0.829641 0.847467 0.906476
O O7 0.102730 0.551365 0.250000
O O8 0.097150 0.646823 0.331750
O O9 0.000000 0.558353 0.250000
O O10 0.631575 0.764415 0.117205
O O11 0.592556 0.674912 0.000000
O O12 0.116149 0.260279 0.840746
O O13 0.159134 0.307134 0.000000
O O14 0.160511 0.080256 0.250000
O O15 0.200365 0.000000 0.250000
#
# Coordination Sequence:
#
# PCOD9588722 Si02
#       6
#    24  12  24  24  24  24
#     4   9  19  34  52  77 110 146 184 225 277 331
#     4  12  25  46  60  76  98 128 182 256 318 380
#     4   9  18  32  51  75 104 139 174 207 250 311
#     4   9  19  33  50  76 110 144 183 223 272 325
#     4  10  22  37  55  81 114 152 185 233 288 346
#     4  12  26  39  59  82 106 140 189 242 306 374
#
# _framework density 17.420500000000001
#
# number of rings (size 3 to 8) (size 9 to 14) (size 15 to 20)
#    0.000    2.000    2.727    0.091    5.091    1.455 
#    0.000    3.636    0.000    0.000    0.000    0.000 
#    7.273    0.000    2.182    0.000    0.000    0.000 
#
# Total GULP energy -736077.714626 kJ/mol
# GULP energy per Si atom -5576.346323 kJ/mol
# Density = 1.738085 g / cm^3
# Si number density = 17.420500 Si / 1000 Ang^3
#
#
#
# Elastic Constant Matrix: (Units=GPa)
#
#
# Indices 1 2 3 4 5 6 
#
# 1 96.9113 44.6911 50.7713 0.0000 0.0000 0.0000
# 2 44.6911 96.9113 50.7713 0.0000 0.0000 0.0000
# 3 50.7713 50.7713 95.1747 0.0000 0.0000 0.0000
# 4 0.0000 0.0000 0.0000 21.8151 0.0000 0.0000
# 5 0.0000 0.0000 0.0000 0.0000 21.8151 0.0000
# 6 0.0000 0.0000 0.0000 0.0000 0.0000 26.1101
#
#
#
# Elastic Compliance Matrix: (Units=1/GPa)
#
#
# Indices 1 2 3 4 5 6 
#
# 1 0.015293 -0.003856 -0.006101 0.000000 0.000000 0.000000
# 2 -0.003856 0.015293 -0.006101 0.000000 0.000000 0.000000
# 3 -0.006101 -0.006101 0.017016 0.000000 0.000000 0.000000
# 4 0.000000 0.000000 0.000000 0.045840 0.000000 0.000000
# 5 0.000000 0.000000 0.000000 0.000000 0.045840 0.000000
# 6 0.000000 0.000000 0.000000 0.000000 0.000000 0.038299
#
#
# Mechanical properties :
#
#
# Convention : Reuss Voigt Hill
#
# Bulk Modulus (GPa) = 64.57465 64.60719 64.59092
# Shear Modulus (GPa) = 23.27080 23.46563 23.36822
#
# Velocity S-wave (km/s) = 3.65886 3.67415 3.66651
# Velocity P-wave (km/s) = 7.41609 7.42742 7.42176
#
# Compressibility (1/GPa) = 0.01548595
#
# Stress axis : x y z
#
# Youngs Moduli (GPa) = 65.38755 65.38755 58.76677
#
# Poissons Ratio (x) = 0.25215 0.35855
# Poissons Ratio (y) = 0.25215 0.35855
# Poissons Ratio (z) = 0.39894 0.39894
#
# Static dielectric constant tensor:
#      x y z
#    x 1.596630 0.000000 0.000000 
#    y 0.000000 1.596630 0.000000 
#    z 0.000000 0.000000 1.600790 
# 
# From -- ./inp_files/3246.got.cif
#   From: 2010.05.17/outbox.cif.g08.bks.cpg/sg192_2_cif.got.tgz:3246.got - 2010.05.20 12:28:01.
