data_PCOD9588365
_publ_section_title
;
Structure prediction by ZEFSAII (Michael W. Deem and Ramdas Pophale) SiO2 
 PCOD9588365
Probable space group: P 6/M C C
;
_chemical_formula_sum "Si O2"
_cell_formula_units_Z 108
_cell_length_a 14.332979
_cell_length_b 14.332979
_cell_length_c 29.506796
_cell_angle_alpha 90.000000
_cell_angle_beta 90.000000
_cell_angle_gamma 120.000000
_cell_volume 5249.592770
_symmetry_space_group_name_H-M "P 6/M C C"
_symmetry_group_IT_number 192
_symmetry_cell_setting 'hexagonal'
loop_
_space_group_symop_operation_xyz
x,y,z
x-y,x,z
-y,x-y,z
-x,-y,z
-x+y,-x,z
y,-x+y,z
x-y,-y,1/2-z
-x,-x+y,1/2-z
y,x,1/2-z
-y,-x,1/2-z
-x+y,y,1/2-z
x,x-y,1/2-z
-x,-y,-z
-x+y,-x,-z
y,-x+y,-z
x,y,-z
x-y,x,-z
-y,x-y,-z
-x+y,y,1/2+z
x,x-y,1/2+z
-y,-x,1/2+z
y,x,1/2+z
x-y,-y,1/2+z
-x,-x+y,1/2+z
loop_
_atom_site_type_symbol
_atom_site_label
_atom_site_fract_x
_atom_site_fract_y
_atom_site_fract_z
Si Si1 0.755178 0.814909 0.947863
Si Si2 0.546206 0.666826 0.733240
Si Si3 0.601628 0.116523 0.368587
Si Si4 0.181566 0.457762 0.905680
Si Si5 0.346998 0.553285 0.500000
O O1 0.853607 0.794069 0.944051
O O2 0.666081 0.756951 0.908880
O O3 0.711497 0.782968 0.000000
O O4 0.633817 0.633817 0.750000
O O5 0.429872 0.570129 0.750000
O O6 0.564139 0.782070 0.750000
O O7 0.538982 0.653810 0.678989
O O8 0.538571 0.183989 0.367524
O O9 0.700885 0.170751 0.403329
O O10 0.500000 0.000000 0.379680
O O11 0.159152 0.502507 0.952161
O O12 0.439441 0.676954 0.500000
#
# Coordination Sequence:
#
# PCOD9588365 Si02
#       5
#    24  24  24  24  12
#     4  10  21  38  59  82 114 162 221 275 320 363
#     4  11  23  45  70 100 133 170 213 270 341 408
#     4  12  24  39  63  97 126 160 214 258 316 391
#     4  12  22  38  59  89 128 169 204 258 313 376
#     4  10  18  38  52  80 124 176 208 236 298 374
#
# _framework density 20.573022999999999
#
# number of rings (size 3 to 8) (size 9 to 14) (size 15 to 20)
#    0.222    0.667    5.556    3.556    0.000    0.889 
#    0.000    1.111    0.000    0.222    0.000    0.000 
#    0.000    0.000    0.000    0.000    0.000    0.000 
#
# Total GULP energy -602127.418522 kJ/mol
# GULP energy per Si atom -5575.253875 kJ/mol
# Density = 2.052620 g / cm^3
# Si number density = 20.573023 Si / 1000 Ang^3
#
#
#
# Elastic Constant Matrix: (Units=GPa)
#
#
# Indices 1 2 3 4 5 6 
#
# 1 80.2419 31.4032 23.1164 0.0000 0.0000 0.0000
# 2 31.4032 80.2419 23.1164 0.0000 0.0000 0.0000
# 3 23.1164 23.1164 81.6211 0.0000 0.0000 0.0000
# 4 0.0000 0.0000 0.0000 19.1521 0.0000 0.0000
# 5 0.0000 0.0000 0.0000 0.0000 19.1521 0.0000
# 6 0.0000 0.0000 0.0000 0.0000 0.0000 24.4194
#
#
#
# Elastic Compliance Matrix: (Units=1/GPa)
#
#
# Indices 1 2 3 4 5 6 
#
# 1 0.015311 -0.005164 -0.002874 0.000000 0.000000 0.000000
# 2 -0.005164 0.015311 -0.002874 0.000000 0.000000 0.000000
# 3 -0.002874 -0.002874 0.013880 0.000000 0.000000 0.000000
# 4 0.000000 0.000000 0.000000 0.052214 0.000000 0.000000
# 5 0.000000 0.000000 0.000000 0.000000 0.052214 0.000000
# 6 0.000000 0.000000 0.000000 0.000000 0.000000 0.040951
#
#
# Mechanical properties :
#
#
# Convention : Reuss Voigt Hill
#
# Bulk Modulus (GPa) = 44.09485 44.15298 44.12391
# Shear Modulus (GPa) = 22.80362 23.50933 23.15647
#
# Velocity S-wave (km/s) = 3.33291 3.38409 3.35860
# Velocity P-wave (km/s) = 6.02420 6.06445 6.04436
#
# Compressibility (1/GPa) = 0.02267839
#
# Stress axis : x y z
#
# Youngs Moduli (GPa) = 65.31136 65.31136 72.04853
#
# Poissons Ratio (x) = 0.33729 0.20705
# Poissons Ratio (y) = 0.33729 0.20705
# Poissons Ratio (z) = 0.18769 0.18769
#
# Static dielectric constant tensor:
#      x y z
#    x 1.794780 0.000000 0.000000 
#    y 0.000000 1.794780 0.000000 
#    z 0.000000 0.000000 1.772440 
# 
# From -- ./inp_files/6888.got.cif
#   From: 2010.05.17/outbox.cif.g08.bks.cpg/sg192_4_cif.got.tgz:6888.got - 2010.05.20 12:28:01.
