data_PCOD9588016
_publ_section_title
;
Structure prediction by ZEFSAII (Michael W. Deem and Ramdas Pophale) SiO2 
 PCOD9588016
Probable space group: P 6/M M M
;
_chemical_formula_sum "Si O2"
_cell_formula_units_Z 144
_cell_length_a 32.683155
_cell_length_b 32.683155
_cell_length_c 7.747740
_cell_angle_alpha 90.000000
_cell_angle_beta 90.000000
_cell_angle_gamma 120.000000
_cell_volume 7167.267555
_symmetry_space_group_name_H-M "P 6/M M M"
_symmetry_group_IT_number 191
_symmetry_cell_setting 'hexagonal'
loop_
_space_group_symop_operation_xyz
x,y,z
x-y,x,z
-y,x-y,z
-x,-y,z
-x+y,-x,z
y,-x+y,z
x-y,-y,-z
-x,-x+y,-z
y,x,-z
-y,-x,-z
-x+y,y,-z
x,x-y,-z
-x,-y,-z
-x+y,-x,-z
y,-x+y,-z
x,y,-z
x-y,x,-z
-y,x-y,-z
-x+y,y,z
x,x-y,z
-y,-x,z
y,x,z
x-y,-y,z
-x,-x+y,z
loop_
_atom_site_type_symbol
_atom_site_label
_atom_site_fract_x
_atom_site_fract_y
_atom_site_fract_z
Si Si1 0.143928 0.196561 0.207118
Si Si2 0.239750 0.573073 0.291962
Si Si3 0.761618 0.708845 0.705984
Si Si4 0.476964 0.144785 0.207874
Si Si5 0.573853 0.521131 0.210588
Si Si6 0.614418 0.853273 0.206286
O O1 0.094862 0.189723 0.275977
O O2 0.161289 0.161289 0.275062
O O3 0.186621 0.249304 0.240864
O O4 0.139500 0.190820 0.000000
O O5 0.242867 0.575995 0.500000
O O6 0.284784 0.569567 0.228590
O O7 0.241102 0.620551 0.228640
O O8 0.190632 0.526805 0.247557
O O9 0.759571 0.708394 0.500000
O O10 0.724492 0.724492 0.772219
O O11 0.754191 0.658923 0.763099
O O12 0.473721 0.096470 0.272140
O O13 0.433632 0.150494 0.274550
O O14 0.472970 0.140866 0.000000
O O15 0.529555 0.470446 0.260808
O O16 0.560768 0.560768 0.265184
O O17 0.574783 0.521780 0.000000
O O18 0.622251 0.811126 0.274200
O O19 0.609217 0.847364 0.000000
#
# Coordination Sequence:
#
# PCOD9588016 Si02
#       6
#    24  24  24  24  24  24
#     4   9  17  30  49  72  98 129 165 205 250 300
#     4  10  21  37  56  77 103 136 172 208 249 300
#     4  10  21  35  51  73  99 127 164 210 254 296
#     4  10  20  34  54  79 104 131 167 210 251 292
#     4   8  14  26  46  73 102 129 159 197 241 287
#     4  10  21  35  50  71 101 135 169 205 247 299
#
# _framework density 20.091338
#
# number of rings (size 3 to 8) (size 9 to 14) (size 15 to 20)
#    0.000    2.500    0.000    2.667    0.000    7.667 
#    0.000    1.667    0.000    1.667    0.000    3.500 
#    0.000    0.000    0.000    4.167    0.000    4.333 
#
# Total GULP energy -803804.818258 kJ/mol
# GULP energy per Si atom -5581.977905 kJ/mol
# Density = 2.004561 g / cm^3
# Si number density = 20.091338 Si / 1000 Ang^3
#
#
#
# Elastic Constant Matrix: (Units=GPa)
#
#
# Indices 1 2 3 4 5 6 
#
# 1 171.6669 110.4067 4.3872 0.0000 0.0000 0.0000
# 2 110.4067 171.6669 4.3872 0.0000 0.0000 0.0000
# 3 4.3872 4.3872 29.3572 0.0000 0.0000 0.0000
# 4 0.0000 0.0000 0.0000 16.5311 0.0000 0.0000
# 5 0.0000 0.0000 0.0000 0.0000 16.5311 0.0000
# 6 0.0000 0.0000 0.0000 0.0000 0.0000 30.6301
#
#
#
# Elastic Compliance Matrix: (Units=1/GPa)
#
#
# Indices 1 2 3 4 5 6 
#
# 1 0.009943 -0.006381 -0.000532 0.000000 0.000000 0.000000
# 2 -0.006381 0.009943 -0.000532 0.000000 0.000000 0.000000
# 3 -0.000532 -0.000532 0.034222 0.000000 0.000000 0.000000
# 4 0.000000 0.000000 0.000000 0.060492 0.000000 0.000000
# 5 0.000000 0.000000 0.000000 0.000000 0.060492 0.000000
# 6 0.000000 0.000000 0.000000 0.000000 0.000000 0.032648
#
#
# Mechanical properties :
#
#
# Convention : Reuss Voigt Hill
#
# Bulk Modulus (GPa) = 25.49936 67.89482 46.69709
# Shear Modulus (GPa) = 21.21316 29.63912 25.42614
#
# Velocity S-wave (km/s) = 3.25289 3.84502 3.56128
# Velocity P-wave (km/s) = 5.17954 7.31975 6.34060
#
# Compressibility (1/GPa) = 0.03921667
#
# Stress axis : x y z
#
# Youngs Moduli (GPa) = 100.57554 100.57554 29.22070
#
# Poissons Ratio (x) = 0.64178 0.01555
# Poissons Ratio (y) = 0.64178 0.01555
# Poissons Ratio (z) = 0.05353 0.05353
#
# Static dielectric constant tensor:
#      x y z
#    x 1.693390 0.000000 0.000000 
#    y 0.000000 1.693390 0.000000 
#    z 0.000000 0.000000 1.748010 
# 
# From -- ./inp_files/1973.got.cif
#   From: 2010.05.17/outbox.cif.g08.bks.cpg/sg191_1_cif.got.tgz:1973.got - 2010.05.20 12:20:32.
