data_PCOD9588529
_publ_section_title
;
Structure prediction by ZEFSAII (Michael W. Deem and Ramdas Pophale) SiO2 
 PCOD9588529
Probable space group: P 6/M C C
;
_chemical_formula_sum "Si O2"
_cell_formula_units_Z 104
_cell_length_a 20.776862
_cell_length_b 20.776862
_cell_length_c 15.827356
_cell_angle_alpha 90.000000
_cell_angle_beta 90.000000
_cell_angle_gamma 120.000000
_cell_volume 5916.963810
_symmetry_space_group_name_H-M "P 6/M C C"
_symmetry_group_IT_number 192
_symmetry_cell_setting 'hexagonal'
loop_
_space_group_symop_operation_xyz
x,y,z
x-y,x,z
-y,x-y,z
-x,-y,z
-x+y,-x,z
y,-x+y,z
x-y,-y,1/2-z
-x,-x+y,1/2-z
y,x,1/2-z
-y,-x,1/2-z
-x+y,y,1/2-z
x,x-y,1/2-z
-x,-y,-z
-x+y,-x,-z
y,-x+y,-z
x,y,-z
x-y,x,-z
-y,x-y,-z
-x+y,y,1/2+z
x,x-y,1/2+z
-y,-x,1/2+z
y,x,1/2+z
x-y,-y,1/2+z
-x,-x+y,1/2+z
loop_
_atom_site_type_symbol
_atom_site_label
_atom_site_fract_x
_atom_site_fract_y
_atom_site_fract_z
Si Si1 0.419646 0.580356 0.150162
Si Si2 0.289344 0.862565 0.904690
Si Si3 0.573220 0.710657 0.595310
Si Si4 0.333334 0.666668 0.601894
Si Si5 0.684510 0.767339 0.750000
O O1 0.426857 0.573144 0.250000
O O2 0.500652 0.631353 0.110869
O O3 0.368646 0.499350 0.110869
O O4 0.375404 0.624602 0.134220
O O5 0.224469 0.775531 0.897157
O O6 0.270643 0.904144 0.832301
O O7 0.285071 0.886278 0.000000
O O8 0.601205 0.714928 0.500000
O O9 0.633501 0.729357 0.667698
O O10 0.333334 0.666668 0.500000
O O11 0.752216 0.752216 0.750000
O O12 0.705425 0.852712 0.750000
#
# Coordination Sequence:
#
# PCOD9588529 Si02
#       5
#    24  24  24   8  24
#     4  12  20  30  46  74 110 152 202 250 291 315
#     4  10  20  34  52  77 111 150 192 236 277 316
#     4  10  20  34  52  77 111 150 192 236 277 316
#     4  12  22  26  40  72 109 152 205 262 296 319
#     4  10  22  41  63  86 109 137 173 215 266 330
#
# _framework density 17.576581999999998
#
# number of rings (size 3 to 8) (size 9 to 14) (size 15 to 20)
#    0.000    1.385    4.615    2.769    0.000    0.923 
#    0.000    2.308    0.000    3.000    0.000    0.000 
#    0.000    0.000    0.000   11.538    0.000    0.000 
#
# Total GULP energy -581043.007050 kJ/mol
# GULP energy per Si atom -5586.951991 kJ/mol
# Density = 1.753658 g / cm^3
# Si number density = 17.576582 Si / 1000 Ang^3
#
#
#
# Elastic Constant Matrix: (Units=GPa)
#
#
# Indices 1 2 3 4 5 6 
#
# 1 68.1137 51.6767 31.8007 -0.0001 0.0000 0.0000
# 2 51.6767 68.1142 31.8006 0.0000 0.0000 0.0000
# 3 31.8007 31.8006 148.7453 0.0002 0.0000 0.0000
# 4 -0.0001 0.0000 0.0002 2.7740 0.0000 0.0000
# 5 0.0000 0.0000 0.0000 0.0000 2.7742 0.0000
# 6 0.0000 0.0000 0.0000 0.0000 0.0000 8.2184
#
#
#
# Elastic Compliance Matrix: (Units=1/GPa)
#
#
# Indices 1 2 3 4 5 6 
#
# 1 0.035127 -0.025710 -0.002013 0.000001 0.000000 0.000000
# 2 -0.025710 0.035127 -0.002013 0.000000 0.000000 0.000000
# 3 -0.002013 -0.002013 0.007584 -0.000001 0.000000 0.000000
# 4 0.000001 0.000000 -0.000001 0.360488 0.000001 0.000000
# 5 0.000000 0.000000 0.000000 0.000001 0.360467 -0.000001
# 6 0.000000 0.000000 0.000000 0.000000 -0.000001 0.121678
#
#
# Mechanical properties :
#
#
# Convention : Reuss Voigt Hill
#
# Bulk Modulus (GPa) = 54.45329 57.28103 55.86716
# Shear Modulus (GPa) = 5.07066 14.06634 9.56850
#
# Velocity S-wave (km/s) = 1.70034 2.83201 2.33575
# Velocity P-wave (km/s) = 5.90785 6.58436 6.25526
#
# Compressibility (1/GPa) = 0.01836436
#
# Stress axis : x y z
#
# Youngs Moduli (GPa) = 28.46791 28.46817 131.86120
#
# Poissons Ratio (x) = 0.73193 0.26547
# Poissons Ratio (y) = 0.73192 0.26546
# Poissons Ratio (z) = 0.05731 0.05731
#
# Static dielectric constant tensor:
#      x y z
#    x 1.583200 0.000000 0.000000 
#    y 0.000000 1.583200 0.000000 
#    z 0.000000 0.000000 1.610440 
# 
# From -- ./inp_files/2837.got.cif
#   From: 2010.05.17/outbox.cif.g08.bks.cpg/sg192_2_cif.got.tgz:2837.got - 2010.05.20 12:28:01.
