data_PCOD9588549
_publ_section_title
;
Structure prediction by ZEFSAII (Michael W. Deem and Ramdas Pophale) SiO2 
 PCOD9588549
Probable space group: P 6/M C C
;
_chemical_formula_sum "Si O2"
_cell_formula_units_Z 144
_cell_length_a 21.589040
_cell_length_b 21.589040
_cell_length_c 19.897462
_cell_angle_alpha 90.000000
_cell_angle_beta 90.000000
_cell_angle_gamma 120.000000
_cell_volume 8031.468819
_symmetry_space_group_name_H-M "P 6/M C C"
_symmetry_group_IT_number 192
_symmetry_cell_setting 'hexagonal'
loop_
_space_group_symop_operation_xyz
x,y,z
x-y,x,z
-y,x-y,z
-x,-y,z
-x+y,-x,z
y,-x+y,z
x-y,-y,1/2-z
-x,-x+y,1/2-z
y,x,1/2-z
-y,-x,1/2-z
-x+y,y,1/2-z
x,x-y,1/2-z
-x,-y,-z
-x+y,-x,-z
y,-x+y,-z
x,y,-z
x-y,x,-z
-y,x-y,-z
-x+y,y,1/2+z
x,x-y,1/2+z
-y,-x,1/2+z
y,x,1/2+z
x-y,-y,1/2+z
-x,-x+y,1/2+z
loop_
_atom_site_type_symbol
_atom_site_label
_atom_site_fract_x
_atom_site_fract_y
_atom_site_fract_z
Si Si1 0.760903 0.094553 0.500000
Si Si2 0.260231 0.386356 0.145993
Si Si3 0.763008 0.757211 0.680462
Si Si4 0.877227 0.844825 0.419619
Si Si5 0.118541 0.392969 0.144524
Si Si6 0.086162 0.471715 0.247391
Si Si7 0.240810 0.918750 0.000000
O O1 0.728797 0.110972 0.433880
O O2 0.849191 0.154575 0.500000
O O3 0.734631 0.007853 0.500000
O O4 0.232009 0.303113 0.163843
O O5 0.195759 0.401830 0.155863
O O6 0.327502 0.439367 0.191715
O O7 0.796694 0.796694 0.750000
O O8 0.818362 0.777948 0.620108
O O9 0.733677 0.673554 0.688872
O O10 0.862791 0.907697 0.399689
O O11 0.873232 0.839468 0.500000
O O12 0.113238 0.457542 0.176488
O O13 0.096268 0.369702 0.067288
O O14 0.109246 0.554623 0.250000
O O15 0.000000 0.427306 0.250000
#
# Coordination Sequence:
#
# PCOD9588549 Si02
#       7
#    12  24  24  24  24  24  12
#     4  10  20  34  57  84 121 161 209 263 307 350
#     4  11  21  36  57  86 120 155 195 242 289 347
#     4  12  22  35  53  83 113 154 191 247 303 355
#     4  10  23  40  56  74 104 152 209 262 310 358
#     4  11  21  36  57  86 120 155 195 242 289 347
#     4  11  21  38  60  83 113 147 182 229 290 361
#     4  10  20  34  57  84 121 161 209 263 307 350
#
# _framework density 17.929472000000001
#
# number of rings (size 3 to 8) (size 9 to 14) (size 15 to 20)
#    0.000    1.167    5.000    1.667    2.333    2.667 
#    0.000    0.833    0.000    6.833    0.000    0.000 
#    0.000    0.000    0.000    0.000    0.000    2.667 
#
# Total GULP energy -802886.231036 kJ/mol
# GULP energy per Si atom -5575.598827 kJ/mol
# Density = 1.788866 g / cm^3
# Si number density = 17.929472 Si / 1000 Ang^3
#
#
#
# Elastic Constant Matrix: (Units=GPa)
#
#
# Indices 1 2 3 4 5 6 
#
# 1 88.2712 42.9044 30.6034 0.0000 0.0000 0.0000
# 2 42.9044 88.2712 30.6034 0.0000 0.0000 0.0000
# 3 30.6034 30.6034 107.1490 0.0000 0.0000 0.0000
# 4 0.0000 0.0000 0.0000 25.5580 0.0000 0.0000
# 5 0.0000 0.0000 0.0000 0.0000 25.5580 0.0000
# 6 0.0000 0.0000 0.0000 0.0000 0.0000 22.6834
#
#
#
# Elastic Compliance Matrix: (Units=1/GPa)
#
#
# Indices 1 2 3 4 5 6 
#
# 1 0.015419 -0.006623 -0.002512 0.000000 0.000000 0.000000
# 2 -0.006623 0.015419 -0.002512 0.000000 0.000000 0.000000
# 3 -0.002512 -0.002512 0.010768 0.000000 0.000000 0.000000
# 4 0.000000 0.000000 0.000000 0.039127 0.000000 0.000000
# 5 0.000000 0.000000 0.000000 0.000000 0.039127 0.000000
# 6 0.000000 0.000000 0.000000 0.000000 0.000000 0.044085
#
#
# Mechanical properties :
#
#
# Convention : Reuss Voigt Hill
#
# Bulk Modulus (GPa) = 54.61399 54.65708 54.63554
# Shear Modulus (GPa) = 25.86076 26.73193 26.29634
#
# Velocity S-wave (km/s) = 3.80196 3.86547 3.83385
# Velocity P-wave (km/s) = 7.05690 7.10445 7.08071
#
# Compressibility (1/GPa) = 0.01831033
#
# Stress axis : x y z
#
# Youngs Moduli (GPa) = 64.85492 64.85492 92.86941
#
# Poissons Ratio (x) = 0.42957 0.23330
# Poissons Ratio (y) = 0.42957 0.23330
# Poissons Ratio (z) = 0.16292 0.16292
#
# Static dielectric constant tensor:
#      x y z
#    x 1.620350 0.000000 0.000000 
#    y 0.000000 1.620350 0.000000 
#    z 0.000000 0.000000 1.700200 
# 
# From -- ./inp_files/5194.got.cif
#   From: 2010.05.17/outbox.cif.g08.bks.cpg/sg192_3_cif.got.tgz:5194.got - 2010.05.20 12:28:01.
