data_PCOD9588042
_publ_section_title
;
Structure prediction by ZEFSAII (Michael W. Deem and Ramdas Pophale) SiO2 
 PCOD9588042
Probable space group: P 6/M M M
;
_chemical_formula_sum "Si O2"
_cell_formula_units_Z 114
_cell_length_a 22.196070
_cell_length_b 22.196070
_cell_length_c 15.247532
_cell_angle_alpha 90.000000
_cell_angle_beta 90.000000
_cell_angle_gamma 120.000000
_cell_volume 6505.525099
_symmetry_space_group_name_H-M "P 6/M M M"
_symmetry_group_IT_number 191
_symmetry_cell_setting 'hexagonal'
loop_
_space_group_symop_operation_xyz
x,y,z
x-y,x,z
-y,x-y,z
-x,-y,z
-x+y,-x,z
y,-x+y,z
x-y,-y,-z
-x,-x+y,-z
y,x,-z
-y,-x,-z
-x+y,y,-z
x,x-y,-z
-x,-y,-z
-x+y,-x,-z
y,-x+y,-z
x,y,-z
x-y,x,-z
-y,x-y,-z
-x+y,y,z
x,x-y,z
-y,-x,z
y,x,z
x-y,-y,z
-x,-x+y,z
loop_
_atom_site_type_symbol
_atom_site_label
_atom_site_fract_x
_atom_site_fract_y
_atom_site_fract_z
Si Si1 0.000000 0.131407 0.396697
Si Si2 0.333893 0.522517 0.000000
Si Si3 0.148588 0.148588 0.000000
Si Si4 0.590833 0.723614 0.856453
Si Si5 0.721896 0.133811 0.348796
Si Si6 0.000000 0.739046 0.868164
Si Si7 0.735586 0.000000 0.658841
Si Si8 0.083167 0.613245 0.500000
O O1 0.000000 0.201595 0.387941
O O2 0.068256 0.136511 0.356024
O O3 0.000000 0.118402 0.500000
O O4 0.325719 0.474288 0.083315
O O5 0.404826 0.595175 0.000000
O O6 0.266876 0.533751 0.000000
O O7 0.071673 0.143346 0.000000
O O8 0.197167 0.197167 0.081111
O O9 0.600140 0.800070 0.863687
O O10 0.575774 0.702513 0.754300
O O11 0.663672 0.730968 0.886374
O O12 0.792021 0.207980 0.362361
O O13 0.660562 0.119996 0.414975
O O14 0.735181 0.069794 0.365245
O O15 0.000000 0.747990 0.763225
O O16 0.089523 0.544762 0.500000
O O17 0.000000 0.586181 0.500000
#
# Coordination Sequence:
#
# PCOD9588042 Si02
#       8
#    12  12   6  24  24  12  12  12
#     4  10  21  34  48  70 105 148 186 222 267 321
#     4  10  20  36  58  84 113 143 179 220 270 329
#     4  12  25  38  54  76 107 148 198 246 284 322
#     4   9  19  35  57  84 113 146 184 228 276 331
#     4  10  20  36  58  84 116 148 183 231 279 331
#     4  10  20  37  59  77 106 143 181 227 282 332
#     4  10  20  35  55  86 111 134 181 230 281 334
#     4  11  23  38  56  79 111 151 188 223 274 337
#
# _framework density 17.523565999999999
#
# number of rings (size 3 to 8) (size 9 to 14) (size 15 to 20)
#    0.000    2.000    1.053    2.474    1.474    4.632 
#    0.000    1.053    0.000    2.947    0.000    0.000 
#    0.000    0.000    0.000    0.000    0.000    0.000 
#
# Total GULP energy -635761.807376 kJ/mol
# GULP energy per Si atom -5576.857959 kJ/mol
# Density = 1.748368 g / cm^3
# Si number density = 17.523566 Si / 1000 Ang^3
#
#
#
# Elastic Constant Matrix: (Units=GPa)
#
#
# Indices 1 2 3 4 5 6 
#
# 1 124.0398 65.0748 63.2876 0.0000 0.0000 0.0000
# 2 65.0748 124.0398 63.2876 0.0000 0.0000 0.0000
# 3 63.2876 63.2876 74.1427 0.0000 0.0000 0.0000
# 4 0.0000 0.0000 0.0000 22.7048 0.0000 0.0000
# 5 0.0000 0.0000 0.0000 0.0000 22.7048 0.0000
# 6 0.0000 0.0000 0.0000 0.0000 0.0000 29.4825
#
#
#
# Elastic Compliance Matrix: (Units=1/GPa)
#
#
# Indices 1 2 3 4 5 6 
#
# 1 0.014647 -0.002312 -0.010529 0.000000 0.000000 0.000000
# 2 -0.002312 0.014647 -0.010529 0.000000 0.000000 0.000000
# 3 -0.010529 -0.010529 0.031462 0.000000 0.000000 0.000000
# 4 0.000000 0.000000 0.000000 0.044044 0.000000 0.000000
# 5 0.000000 0.000000 0.000000 0.000000 0.044044 0.000000
# 6 0.000000 0.000000 0.000000 0.000000 0.000000 0.033918
#
#
# Mechanical properties :
#
#
# Convention : Reuss Voigt Hill
#
# Bulk Modulus (GPa) = 71.34542 78.39134 74.86838
# Shear Modulus (GPa) = 21.35164 23.68325 22.51745
#
# Velocity S-wave (km/s) = 3.49442 3.68028 3.58855
# Velocity P-wave (km/s) = 7.55537 7.93039 7.74515
#
# Compressibility (1/GPa) = 0.01401632
#
# Stress axis : x y z
#
# Youngs Moduli (GPa) = 68.27321 68.27321 31.78403
#
# Poissons Ratio (x) = 0.15786 0.33465
# Poissons Ratio (y) = 0.15786 0.33465
# Poissons Ratio (z) = 0.71884 0.71884
#
# Static dielectric constant tensor:
#      x y z
#    x 1.571830 0.000000 0.000000 
#    y 0.000000 1.571830 0.000000 
#    z 0.000000 0.000000 1.631190 
# 
# From -- ./inp_files/4468.got.cif
#   From: 2010.05.17/outbox.cif.g08.bks.cpg/sg191_3_cif.got.tgz:4468.got - 2010.05.20 12:20:32.
