data_PCOD9588996
_publ_section_title
;
Structure prediction by ZEFSAII (Michael W. Deem and Ramdas Pophale) SiO2 
 PCOD9588996
Probable space group: P 63/M C M
;
_chemical_formula_sum "Si O2"
_cell_formula_units_Z 132
_cell_length_a 21.386639
_cell_length_b 21.386639
_cell_length_c 14.417512
_cell_angle_alpha 90.000000
_cell_angle_beta 90.000000
_cell_angle_gamma 120.000000
_cell_volume 5710.919398
_symmetry_space_group_name_H-M "P 63/M C M"
_symmetry_group_IT_number 193
_symmetry_cell_setting 'hexagonal'
loop_
_space_group_symop_operation_xyz
x,y,z
x-y,x,1/2+z
-y,x-y,z
-x,-y,1/2+z
-x+y,-x,z
y,-x+y,1/2+z
x-y,-y,1/2-z
-x,-x+y,1/2-z
y,x,1/2-z
-y,-x,-z
-x+y,y,-z
x,x-y,-z
-x,-y,-z
-x+y,-x,1/2-z
y,-x+y,-z
x,y,1/2-z
x-y,x,-z
-y,x-y,1/2-z
-x+y,y,1/2+z
x,x-y,1/2+z
-y,-x,1/2+z
y,x,z
x-y,-y,z
-x,-x+y,z
loop_
_atom_site_type_symbol
_atom_site_label
_atom_site_fract_x
_atom_site_fract_y
_atom_site_fract_z
Si Si1 0.644736 0.564022 0.996992
Si Si2 0.300158 0.794546 0.357986
Si Si3 0.267292 0.189695 0.640056
Si Si4 0.238458 0.320036 0.141696
Si Si5 0.923132 0.846264 0.000000
Si Si6 0.365594 0.823140 0.857860
O O1 0.591355 0.591355 0.030118
O O2 0.705086 0.625018 0.930954
O O3 0.606669 0.496182 0.927335
O O4 0.683248 0.545652 0.079142
O O5 0.292340 0.808909 0.250000
O O6 0.371678 0.787066 0.366186
O O7 0.232240 0.717543 0.383234
O O8 0.255529 0.179756 0.750000
O O9 0.263852 0.263852 0.619411
O O10 0.320483 0.156859 0.623808
O O11 0.203131 0.131181 0.578003
O O12 0.256715 0.340806 0.250000
O O13 0.247817 0.247817 0.131092
O O14 0.895630 0.895630 0.955408
O O15 0.368288 0.843823 0.750000
#
# Coordination Sequence:
#
# PCOD9588996 Si02
#       6
#    24  24  24  24  12  24
#     4  11  23  38  60  93 132 175 219 257 305 375
#     4  10  22  41  67  98 132 170 212 263 320 374
#     4   9  18  34  57  82 106 138 191 258 321 379
#     4   9  18  35  59  84 115 160 212 264 318 383
#     4  10  19  30  46  72 106 140 178 234 312 390
#     4  10  21  40  67  97 129 167 214 266 318 374
#
# _framework density 23.113617999999999
#
# number of rings (size 3 to 8) (size 9 to 14) (size 15 to 20)
#    0.000    2.182    0.000    2.636    0.000    5.455 
#    3.273    3.636    0.000    1.455    0.000    2.545 
#    0.000    0.000    0.000    0.000    0.000    0.000 
#
# Total GULP energy -736315.798661 kJ/mol
# GULP energy per Si atom -5578.149990 kJ/mol
# Density = 2.306101 g / cm^3
# Si number density = 23.113618 Si / 1000 Ang^3
#
#
#
# Elastic Constant Matrix: (Units=GPa)
#
#
# Indices 1 2 3 4 5 6 
#
# 1 84.3584 33.8784 41.8648 0.0000 0.0000 0.0000
# 2 33.8784 84.3584 41.8648 0.0000 0.0000 0.0000
# 3 41.8648 41.8648 71.2932 0.0000 0.0000 0.0000
# 4 0.0000 0.0000 0.0000 -14.0260 0.0000 0.0000
# 5 0.0000 0.0000 0.0000 0.0000 -14.0260 0.0000
# 6 0.0000 0.0000 0.0000 0.0000 0.0000 25.2400
#
#
#
# Elastic Compliance Matrix: (Units=1/GPa)
#
#
# Indices 1 2 3 4 5 6 
#
# 1 0.017144 -0.002666 -0.008502 0.000000 0.000000 0.000000
# 2 -0.002666 0.017144 -0.008502 0.000000 0.000000 0.000000
# 3 -0.008502 -0.008502 0.024012 0.000000 0.000000 0.000000
# 4 0.000000 0.000000 0.000000 -0.071296 0.000000 0.000000
# 5 0.000000 0.000000 0.000000 0.000000 -0.071296 0.000000
# 6 0.000000 0.000000 0.000000 0.000000 0.000000 0.039620
#
#
# Mechanical properties :
#
#
# Convention : Reuss Voigt Hill
#
# Bulk Modulus (GPa) = 52.74153 52.80292 52.77223
# Shear Modulus (GPa) = 5071.08191 7.59775 2539.33983
#
# Velocity S-wave (km/s) = 46.89076 1.81501 33.18160
# Velocity P-wave (km/s) = 54.35555 5.22369 38.61225
#
# Compressibility (1/GPa) = 0.01896039
#
# Stress axis : x y z
#
# Youngs Moduli (GPa) = 58.32929 58.32929 41.64652
#
# Poissons Ratio (x) = 0.15549 0.35408
# Poissons Ratio (y) = 0.15549 0.35408
# Poissons Ratio (z) = 0.49591 0.49591
#
# Static dielectric constant tensor:
#      x y z
#    x 1.952360 0.000000 0.000000 
#    y 0.000000 1.952360 0.000000 
#    z 0.000000 0.000000 0.789470 
# 
# From -- ./inp_files/4172.got.cif
#   From: 2010.05.17/outbox.cif.g08.bks.cpg/sg193_3_cif.got.tgz:4172.got - 2010.05.20 12:33:02.
