data_PCOD9588028
_publ_section_title
;
Structure prediction by ZEFSAII (Michael W. Deem and Ramdas Pophale) SiO2 
 PCOD9588028
Probable space group: P 6/M M M
;
_chemical_formula_sum "Si O2"
_cell_formula_units_Z 192
_cell_length_a 31.846408
_cell_length_b 31.846408
_cell_length_c 14.661855
_cell_angle_alpha 90.000000
_cell_angle_beta 90.000000
_cell_angle_gamma 120.000000
_cell_volume 12877.763986
_symmetry_space_group_name_H-M "P 6/M M M"
_symmetry_group_IT_number 191
_symmetry_cell_setting 'hexagonal'
loop_
_space_group_symop_operation_xyz
x,y,z
x-y,x,z
-y,x-y,z
-x,-y,z
-x+y,-x,z
y,-x+y,z
x-y,-y,-z
-x,-x+y,-z
y,x,-z
-y,-x,-z
-x+y,y,-z
x,x-y,-z
-x,-y,-z
-x+y,-x,-z
y,-x+y,-z
x,y,-z
x-y,x,-z
-y,x-y,-z
-x+y,y,z
x,x-y,z
-y,-x,z
y,x,z
x-y,-y,z
-x,-x+y,z
loop_
_atom_site_type_symbol
_atom_site_label
_atom_site_fract_x
_atom_site_fract_y
_atom_site_fract_z
Si Si1 0.233423 0.367429 0.250000
Si Si2 0.947236 0.551480 0.110285
Si Si3 0.375082 0.844115 0.890612
Si Si4 0.515536 0.709056 0.750000
Si Si5 0.295357 0.944323 0.109089
Si Si6 0.944323 0.295357 0.390911
Si Si7 0.604244 0.551480 0.389715
Si Si8 0.844115 0.375082 0.609388
O O1 0.177690 0.355380 0.250000
O O2 0.266136 0.426157 0.250000
O O3 0.250644 0.348190 0.163726
O O4 0.250644 0.348190 0.336274
O O5 0.900439 0.502265 0.137797
O O6 0.940807 0.597521 0.133355
O O7 0.000000 0.563779 0.143161
O O8 0.948542 0.550378 0.000000
O O9 0.413609 0.827218 0.868434
O O10 0.325068 0.817010 0.837344
O O11 0.368121 0.841171 0.000000
O O12 0.504101 0.752051 0.750000
O O13 0.491942 0.674932 0.662655
O O14 0.310483 0.000000 0.130925
O O15 0.288823 0.938147 0.000000
O O16 0.938147 0.288823 0.500000
O O17 0.940807 0.343286 0.366646
O O18 0.000000 0.310483 0.369075
O O19 0.601835 0.550377 0.500000
O O20 0.563779 0.563779 0.356839
O O21 0.601826 0.502265 0.362203
O O22 0.841171 0.368121 0.500000
O O23 0.827218 0.413609 0.631567
#
# Coordination Sequence:
#
# PCOD9588028 Si02
#       8
#    24  24  24  24  24  24  24  24
#     4  11  21  30  46  71  95 121 154 194 233 268
#     4   8  14  26  45  68  94 123 149 171 201 248
#     4  10  20  35  54  73  94 116 141 176 214 261
#     4  11  23  36  50  68  91 116 141 174 221 273
#     4   9  17  31  49  66  92 130 162 188 223 270
#     4   9  17  31  49  66  92 130 162 188 223 270
#     4   8  14  26  45  68  94 123 149 171 201 248
#     4  10  20  35  54  73  94 116 141 176 214 261
#
# _framework density 14.909421
#
# number of rings (size 3 to 8) (size 9 to 14) (size 15 to 20)
#    0.000    2.500    2.500    2.250    0.000    1.500 
#    0.000    5.625    0.000    3.500    0.000    0.000 
#    0.000    0.000    0.000    0.000    0.000    0.000 
#
# Total GULP energy -1070526.026109 kJ/mol
# GULP energy per Si atom -5575.656386 kJ/mol
# Density = 1.487549 g / cm^3
# Si number density = 14.909421 Si / 1000 Ang^3
#
#
#
# Elastic Constant Matrix: (Units=GPa)
#
#
# Indices 1 2 3 4 5 6 
#
# 1 83.6319 45.2029 33.7910 0.0000 0.0000 0.0000
# 2 45.2029 83.6319 33.7910 0.0000 0.0000 0.0000
# 3 33.7910 33.7910 73.3370 0.0000 0.0000 0.0000
# 4 0.0000 0.0000 0.0000 10.9919 0.0000 0.0000
# 5 0.0000 0.0000 0.0000 0.0000 10.9919 0.0000
# 6 0.0000 0.0000 0.0000 0.0000 0.0000 19.2145
#
#
#
# Elastic Compliance Matrix: (Units=1/GPa)
#
#
# Indices 1 2 3 4 5 6 
#
# 1 0.018129 -0.007893 -0.004716 0.000000 0.000000 0.000000
# 2 -0.007893 0.018129 -0.004716 0.000000 0.000000 0.000000
# 3 -0.004716 -0.004716 0.017982 0.000000 0.000000 0.000000
# 4 0.000000 0.000000 0.000000 0.090976 0.000000 0.000000
# 5 0.000000 0.000000 0.000000 0.000000 0.090976 0.000000
# 6 0.000000 0.000000 0.000000 0.000000 0.000000 0.052044
#
#
# Mechanical properties :
#
#
# Convention : Reuss Voigt Hill
#
# Bulk Modulus (GPa) = 51.05065 51.79674 51.42369
# Shear Modulus (GPa) = 15.17835 16.76073 15.96954
#
# Velocity S-wave (km/s) = 3.19413 3.35650 3.27632
# Velocity P-wave (km/s) = 6.92230 7.05959 6.99128
#
# Compressibility (1/GPa) = 0.01958839
#
# Stress axis : x y z
#
# Youngs Moduli (GPa) = 55.16039 55.16039 55.61148
#
# Poissons Ratio (x) = 0.43538 0.26228
# Poissons Ratio (y) = 0.43538 0.26228
# Poissons Ratio (z) = 0.26015 0.26015
#
# Static dielectric constant tensor:
#      x y z
#    x 1.481610 0.000000 0.000000 
#    y 0.000000 1.481610 0.000000 
#    z 0.000000 0.000000 1.551890 
# 
# From -- ./inp_files/5591.got.cif
#   From: 2010.05.17/outbox.cif.g08.bks.cpg/sg191_3_cif.got.tgz:5591.got - 2010.05.20 12:20:32.
