data_PCOD9588535
_publ_section_title
;
Structure prediction by ZEFSAII (Michael W. Deem and Ramdas Pophale) SiO2 
 PCOD9588535
Probable space group: P 6/M C C
;
_chemical_formula_sum "Si O2"
_cell_formula_units_Z 168
_cell_length_a 22.159501
_cell_length_b 22.159501
_cell_length_c 22.494657
_cell_angle_alpha 90.000000
_cell_angle_beta 90.000000
_cell_angle_gamma 120.000000
_cell_volume 9565.990826
_symmetry_space_group_name_H-M "P 6/M C C"
_symmetry_group_IT_number 192
_symmetry_cell_setting 'hexagonal'
loop_
_space_group_symop_operation_xyz
x,y,z
x-y,x,z
-y,x-y,z
-x,-y,z
-x+y,-x,z
y,-x+y,z
x-y,-y,1/2-z
-x,-x+y,1/2-z
y,x,1/2-z
-y,-x,1/2-z
-x+y,y,1/2-z
x,x-y,1/2-z
-x,-y,-z
-x+y,-x,-z
y,-x+y,-z
x,y,-z
x-y,x,-z
-y,x-y,-z
-x+y,y,1/2+z
x,x-y,1/2+z
-y,-x,1/2+z
y,x,1/2+z
x-y,-y,1/2+z
-x,-x+y,1/2+z
loop_
_atom_site_type_symbol
_atom_site_label
_atom_site_fract_x
_atom_site_fract_y
_atom_site_fract_z
Si Si1 0.019589 0.871925 0.072587
Si Si2 0.110645 0.391909 0.638744
Si Si3 0.004716 0.274712 0.567092
Si Si4 0.917716 0.221957 0.744042
Si Si5 0.803615 0.480329 0.930682
Si Si6 0.470010 0.656151 0.429766
Si Si7 0.867303 0.628758 0.116287
O O1 0.945599 0.862258 0.091588
O O2 0.025416 0.805844 0.092377
O O3 0.019036 0.870778 0.000000
O O4 0.101553 0.364742 0.706342
O O5 0.138846 0.470648 0.617777
O O6 0.167840 0.374177 0.611892
O O7 0.038350 0.343098 0.606361
O O8 0.030441 0.292049 0.500000
O O9 0.921921 0.239996 0.569328
O O10 0.861017 0.138984 0.750000
O O11 0.901427 0.241496 0.679724
O O12 0.000000 0.247423 0.750000
O O13 0.722794 0.459100 0.923367
O O14 0.813671 0.415002 0.918285
O O15 0.850041 0.549991 0.893346
O O16 0.820921 0.499341 0.000000
O O17 0.490225 0.656268 0.500000
#
# Coordination Sequence:
#
# PCOD9588535 Si02
#       7
#    24  24  24  24  24  24  24
#     4   9  17  28  42  62  91 126 161 196 240 299
#     4  10  20  34  53  76 103 135 176 223 266 312
#     4  11  20  30  48  72 101 134 166 207 261 319
#     4  10  20  38  61  80 101 137 183 229 273 316
#     4   9  17  31  53  81 112 144 177 215 262 316
#     4   9  17  31  53  81 112 144 177 215 262 316
#     4  10  20  34  53  76 103 135 176 223 266 312
#
# _framework density 17.562217
#
# number of rings (size 3 to 8) (size 9 to 14) (size 15 to 20)
#    0.000    2.286    1.429    2.143    0.000    4.571 
#    0.000    1.429    0.000    3.571    0.000    2.000 
#    0.000    0.000    0.000    0.000    0.000    0.000 
#
# Total GULP energy -936270.542152 kJ/mol
# GULP energy per Si atom -5573.038941 kJ/mol
# Density = 1.752225 g / cm^3
# Si number density = 17.562217 Si / 1000 Ang^3
#
#
#
# Elastic Constant Matrix: (Units=GPa)
#
#
# Indices 1 2 3 4 5 6 
#
# 1 77.2050 34.1349 23.9381 0.0000 0.0000 0.0000
# 2 34.1349 77.2050 23.9381 0.0000 0.0000 0.0000
# 3 23.9381 23.9381 50.6372 0.0000 0.0000 0.0000
# 4 0.0000 0.0000 0.0000 19.4240 0.0000 0.0000
# 5 0.0000 0.0000 0.0000 0.0000 19.4240 0.0000
# 6 0.0000 0.0000 0.0000 0.0000 0.0000 21.5351
#
#
#
# Elastic Compliance Matrix: (Units=1/GPa)
#
#
# Indices 1 2 3 4 5 6 
#
# 1 0.017246 -0.005972 -0.005329 0.000000 0.000000 0.000000
# 2 -0.005972 0.017246 -0.005329 0.000000 0.000000 0.000000
# 3 -0.005329 -0.005329 0.024787 0.000000 0.000000 0.000000
# 4 0.000000 0.000000 0.000000 0.051483 0.000000 0.000000
# 5 0.000000 0.000000 0.000000 0.000000 0.051483 0.000000
# 6 0.000000 0.000000 0.000000 0.000000 0.000000 0.046436
#
#
# Mechanical properties :
#
#
# Convention : Reuss Voigt Hill
#
# Bulk Modulus (GPa) = 38.43744 41.00769 39.72257
# Shear Modulus (GPa) = 19.95107 20.27902 20.11504
#
# Velocity S-wave (km/s) = 3.37415 3.40177 3.38799
# Velocity P-wave (km/s) = 6.09211 6.23137 6.16213
#
# Compressibility (1/GPa) = 0.02601630
#
# Stress axis : x y z
#
# Youngs Moduli (GPa) = 57.98612 57.98612 40.34379
#
# Poissons Ratio (x) = 0.34632 0.21500
# Poissons Ratio (y) = 0.34632 0.21500
# Poissons Ratio (z) = 0.30902 0.30902
#
# Static dielectric constant tensor:
#      x y z
#    x 1.602280 0.000000 0.000000 
#    y 0.000000 1.602280 0.000000 
#    z 0.000000 0.000000 1.603320 
# 
# From -- ./inp_files/6020.got.cif
#   From: 2010.05.17/outbox.cif.g08.bks.cpg/sg192_4_cif.got.tgz:6020.got - 2010.05.20 12:28:01.
