data_PCOD9588278
_publ_section_title
;
Structure prediction by ZEFSAII (Michael W. Deem and Ramdas Pophale) SiO2 
 PCOD9588278
Probable space group: P 6/M C C
;
_chemical_formula_sum "Si O2"
_cell_formula_units_Z 180
_cell_length_a 26.780973
_cell_length_b 26.780973
_cell_length_c 16.453406
_cell_angle_alpha 90.000000
_cell_angle_beta 90.000000
_cell_angle_gamma 120.000000
_cell_volume 10219.723582
_symmetry_space_group_name_H-M "P 6/M C C"
_symmetry_group_IT_number 192
_symmetry_cell_setting 'hexagonal'
loop_
_space_group_symop_operation_xyz
x,y,z
x-y,x,z
-y,x-y,z
-x,-y,z
-x+y,-x,z
y,-x+y,z
x-y,-y,1/2-z
-x,-x+y,1/2-z
y,x,1/2-z
-y,-x,1/2-z
-x+y,y,1/2-z
x,x-y,1/2-z
-x,-y,-z
-x+y,-x,-z
y,-x+y,-z
x,y,-z
x-y,x,-z
-y,x-y,-z
-x+y,y,1/2+z
x,x-y,1/2+z
-y,-x,1/2+z
y,x,1/2+z
x-y,-y,1/2+z
-x,-x+y,1/2+z
loop_
_atom_site_type_symbol
_atom_site_label
_atom_site_fract_x
_atom_site_fract_y
_atom_site_fract_z
Si Si1 0.771069 0.992342 0.152197
Si Si2 0.882723 0.992442 0.402264
Si Si3 0.838138 0.304710 0.589400
Si Si4 0.873291 0.377944 0.247003
Si Si5 0.061481 0.351291 0.848835
Si Si6 0.741738 0.199067 0.336409
Si Si7 0.881162 0.213325 0.807122
Si Si8 0.600936 0.000000 0.750000
O O1 0.832772 0.008783 0.118833
O O2 0.722448 0.925681 0.141447
O O3 0.776496 0.000000 0.250000
O O4 0.745024 0.031238 0.119779
O O5 0.887074 0.992433 0.500000
O O6 0.936879 0.051850 0.371391
O O7 0.844870 0.329994 0.500000
O O8 0.855128 0.348149 0.664416
O O9 0.884622 0.282891 0.600332
O O10 0.772984 0.252470 0.602682
O O11 0.862458 0.431229 0.250000
O O12 0.835573 0.326386 0.182531
O O13 0.941342 0.400435 0.234603
O O14 0.085309 0.349270 0.759014
O O15 0.015796 0.371901 0.827706
O O16 0.772520 0.227481 0.250000
O O17 0.765499 0.155891 0.357026
O O18 0.841100 0.158901 0.750000
#
# Coordination Sequence:
#
# PCOD9588278 Si02
#       8
#    24  24  24  24  24  24  24  12
#     4  10  21  30  51  80 105 127 160 213 270 322
#     4  10  23  41  54  62  82 124 174 221 273 333
#     4  10  20  33  54  82 112 143 179 226 279 320
#     4  10  19  32  56  83 107 147 195 228 255 313
#     4  10  16  30  50  77 108 142 170 210 261 320
#     4   9  15  31  53  75 104 139 181 215 249 312
#     4  10  15  28  51  76 104 138 170 210 253 310
#     4  10  15  30  52  80 108 140 187 220 240 298
#
# _framework density 17.613001000000001
#
# number of rings (size 3 to 8) (size 9 to 14) (size 15 to 20)
#    0.000    2.133    7.333    0.333    3.733    1.067 
#    0.000    2.667    0.000   20.800    0.000    0.000 
#    0.000    0.000    0.000    0.000    0.000    0.000 
#
# Total GULP energy -1002461.119668 kJ/mol
# GULP energy per Si atom -5569.228443 kJ/mol
# Density = 1.757291 g / cm^3
# Si number density = 17.613001 Si / 1000 Ang^3
#
#
#
# Elastic Constant Matrix: (Units=GPa)
#
#
# Indices 1 2 3 4 5 6 
#
# 1 105.6903 60.9487 9.6620 0.0000 0.0000 0.0000
# 2 60.9487 105.6903 9.6620 0.0000 0.0000 0.0000
# 3 9.6620 9.6620 34.5135 0.0000 0.0000 0.0000
# 4 0.0000 0.0000 0.0000 6.6342 0.0000 0.0000
# 5 0.0000 0.0000 0.0000 0.0000 6.6342 0.0000
# 6 0.0000 0.0000 0.0000 0.0000 0.0000 22.3708
#
#
#
# Elastic Compliance Matrix: (Units=1/GPa)
#
#
# Indices 1 2 3 4 5 6 
#
# 1 0.014276 -0.008074 -0.001736 0.000000 0.000000 0.000000
# 2 -0.008074 0.014276 -0.001736 0.000000 0.000000 0.000000
# 3 -0.001736 -0.001736 0.029946 0.000000 0.000000 0.000000
# 4 0.000000 0.000000 0.000000 0.150734 0.000000 0.000000
# 5 0.000000 0.000000 0.000000 0.000000 0.150734 0.000000
# 6 0.000000 0.000000 0.000000 0.000000 0.000000 0.044701
#
#
# Mechanical properties :
#
#
# Convention : Reuss Voigt Hill
#
# Bulk Modulus (GPa) = 28.24405 45.15994 36.70200
# Shear Modulus (GPa) = 11.37491 18.16928 14.77209
#
# Velocity S-wave (km/s) = 2.54406 3.21531 2.89918
# Velocity P-wave (km/s) = 4.96995 6.28332 5.66483
#
# Compressibility (1/GPa) = 0.03540569
#
# Stress axis : x y z
#
# Youngs Moduli (GPa) = 70.04543 70.04543 33.39308
#
# Poissons Ratio (x) = 0.56555 0.05798
# Poissons Ratio (y) = 0.56555 0.05798
# Poissons Ratio (z) = 0.12162 0.12162
#
# Static dielectric constant tensor:
#      x y z
#    x 1.645500 0.000000 0.000000 
#    y 0.000000 1.645500 0.000000 
#    z 0.000000 0.000000 1.596440 
# 
# From -- ./inp_files/4418.got.cif
#   From: 2010.05.17/outbox.cif.g08.bks.cpg/sg192_3_cif.got.tgz:4418.got - 2010.05.20 12:28:01.
