data_PCOD9588383
_publ_section_title
;
Structure prediction by ZEFSAII (Michael W. Deem and Ramdas Pophale) SiO2 
 PCOD9588383
Probable space group: P 6/M C C
;
_chemical_formula_sum "Si O2"
_cell_formula_units_Z 120
_cell_length_a 16.876395
_cell_length_b 16.876395
_cell_length_c 32.170764
_cell_angle_alpha 90.000000
_cell_angle_beta 90.000000
_cell_angle_gamma 120.000000
_cell_volume 7935.081101
_symmetry_space_group_name_H-M "P 6/M C C"
_symmetry_group_IT_number 192
_symmetry_cell_setting 'hexagonal'
loop_
_space_group_symop_operation_xyz
x,y,z
x-y,x,z
-y,x-y,z
-x,-y,z
-x+y,-x,z
y,-x+y,z
x-y,-y,1/2-z
-x,-x+y,1/2-z
y,x,1/2-z
-y,-x,1/2-z
-x+y,y,1/2-z
x,x-y,1/2-z
-x,-y,-z
-x+y,-x,-z
y,-x+y,-z
x,y,-z
x-y,x,-z
-y,x-y,-z
-x+y,y,1/2+z
x,x-y,1/2+z
-y,-x,1/2+z
y,x,1/2+z
x-y,-y,1/2+z
-x,-x+y,1/2+z
loop_
_atom_site_type_symbol
_atom_site_label
_atom_site_fract_x
_atom_site_fract_y
_atom_site_fract_z
Si Si1 0.991764 0.805657 0.841240
Si Si2 0.026220 0.824933 0.500000
Si Si3 0.002050 0.701589 0.420719
Si Si4 0.165954 0.695960 0.950887
Si Si5 0.865894 0.363919 0.549270
Si Si6 0.811468 0.000000 0.250000
O O1 0.986041 0.739474 0.877905
O O2 0.903672 0.818992 0.844841
O O3 0.995515 0.768252 0.795069
O O4 0.928499 0.819806 0.500000
O O5 0.030952 0.772581 0.459061
O O6 0.896883 0.623575 0.426968
O O7 0.061482 0.651648 0.425661
O O8 0.141227 0.593620 0.939493
O O9 0.272728 0.767622 0.945622
O O10 0.145100 0.695418 0.000000
O O11 0.890020 0.371687 0.500000
O O12 0.911069 0.088932 0.250000
#
# Coordination Sequence:
#
# PCOD9588383 Si02
#       6
#    24  12  24  24  24  12
#     4  10  19  31  47  67  91 121 155 193 232 274
#     4  12  23  34  43  58  88 128 162 184 207 256
#     4  12  21  31  47  66  94 123 153 187 226 273
#     4  10  19  32  48  67  90 120 157 196 233 269
#     4  10  19  32  48  67  90 120 157 196 233 269
#     4   8  15  28  46  66  87 112 148 192 238 276
#
# _framework density 15.122719999999999
#
# number of rings (size 3 to 8) (size 9 to 14) (size 15 to 20)
#    0.000    1.600    2.000    5.000    0.000    4.800 
#    0.000    2.000    0.000    0.000    0.000    2.800 
#    0.000    0.000    0.000    4.000    0.000    0.000 
#
# Total GULP energy -669670.885494 kJ/mol
# GULP energy per Si atom -5580.590712 kJ/mol
# Density = 1.508830 g / cm^3
# Si number density = 15.122720 Si / 1000 Ang^3
#
#
#
# Elastic Constant Matrix: (Units=GPa)
#
#
# Indices 1 2 3 4 5 6 
#
# 1 58.4764 -5.5187 25.3467 0.0000 0.0000 0.0000
# 2 -5.5187 58.4764 25.3467 0.0000 0.0000 0.0000
# 3 25.3467 25.3467 105.0445 0.0000 0.0000 0.0000
# 4 0.0000 0.0000 0.0000 15.2658 0.0000 0.0000
# 5 0.0000 0.0000 0.0000 0.0000 15.2658 0.0000
# 6 0.0000 0.0000 0.0000 0.0000 0.0000 31.9976
#
#
#
# Elastic Compliance Matrix: (Units=1/GPa)
#
#
# Indices 1 2 3 4 5 6 
#
# 1 0.020090 0.004464 -0.005925 0.000000 0.000000 0.000000
# 2 0.004464 0.020090 -0.005925 0.000000 0.000000 0.000000
# 3 -0.005925 -0.005925 0.012379 0.000000 0.000000 0.000000
# 4 0.000000 0.000000 0.000000 0.065506 0.000000 0.000000
# 5 0.000000 0.000000 0.000000 0.000000 0.065506 0.000000
# 6 0.000000 0.000000 0.000000 0.000000 0.000000 0.031252
#
#
# Mechanical properties :
#
#
# Convention : Reuss Voigt Hill
#
# Bulk Modulus (GPa) = 26.46300 34.70519 30.58409
# Shear Modulus (GPa) = 20.64485 24.29403 22.46944
#
# Velocity S-wave (km/s) = 3.69881 4.01241 3.85880
# Velocity P-wave (km/s) = 5.98151 6.66819 6.33416
#
# Compressibility (1/GPa) = 0.03778861
#
# Stress axis : x y z
#
# Youngs Moduli (GPa) = 49.77512 49.77512 80.78161
#
# Poissons Ratio (x) = -0.22220 0.47862
# Poissons Ratio (y) = -0.22220 0.47862
# Poissons Ratio (z) = 0.29491 0.29491
#
# Static dielectric constant tensor:
#      x y z
#    x 1.505610 0.000000 0.000000 
#    y 0.000000 1.505610 0.000000 
#    z 0.000000 0.000000 1.500950 
# 
# From -- ./inp_files/6469.got.cif
#   From: 2010.05.17/outbox.cif.g08.bks.cpg/sg192_4_cif.got.tgz:6469.got - 2010.05.20 12:28:01.
