data_PCOD9588023
_publ_section_title
;
Structure prediction by ZEFSAII (Michael W. Deem and Ramdas Pophale) SiO2 
 PCOD9588023
Probable space group: P 6/M M M
;
_chemical_formula_sum "Si O2"
_cell_formula_units_Z 102
_cell_length_a 20.631034
_cell_length_b 20.631034
_cell_length_c 15.934280
_cell_angle_alpha 90.000000
_cell_angle_beta 90.000000
_cell_angle_gamma 120.000000
_cell_volume 5873.609447
_symmetry_space_group_name_H-M "P 6/M M M"
_symmetry_group_IT_number 191
_symmetry_cell_setting 'hexagonal'
loop_
_space_group_symop_operation_xyz
x,y,z
x-y,x,z
-y,x-y,z
-x,-y,z
-x+y,-x,z
y,-x+y,z
x-y,-y,-z
-x,-x+y,-z
y,x,-z
-y,-x,-z
-x+y,y,-z
x,x-y,-z
-x,-y,-z
-x+y,-x,-z
y,-x+y,-z
x,y,-z
x-y,x,-z
-y,x-y,-z
-x+y,y,z
x,x-y,z
-y,-x,z
y,x,z
x-y,-y,z
-x,-x+y,z
loop_
_atom_site_type_symbol
_atom_site_label
_atom_site_fract_x
_atom_site_fract_y
_atom_site_fract_z
Si Si1 0.688979 0.603143 0.174717
Si Si2 0.090108 0.326857 0.000000
Si Si3 0.566812 0.711739 0.646987
Si Si4 0.456215 0.543786 0.122032
Si Si5 0.543774 0.456227 0.601204
Si Si6 0.082924 0.316038 0.500000
Si Si7 0.768306 0.384153 0.000000
O O1 0.665557 0.665557 0.188348
O O2 0.729956 0.622936 0.084371
O O3 0.727626 0.598049 0.258621
O O4 0.612945 0.523779 0.167980
O O5 0.147608 0.295216 0.000000
O O6 0.000000 0.268002 0.000000
O O7 0.538857 0.769429 0.625105
O O8 0.502423 0.627014 0.636117
O O9 0.632107 0.728099 0.581019
O O10 0.500000 0.500000 0.085529
O O11 0.415715 0.584286 0.073462
O O12 0.500000 0.500000 0.624257
O O13 0.546432 0.453569 0.500000
O O14 0.147409 0.294817 0.500000
O O15 0.000000 0.247651 0.500000
O O16 0.706805 0.413610 0.000000
#
# Coordination Sequence:
#
# PCOD9588023 Si02
#       7
#    24  12  24  12  12  12   6
#     4  10  20  34  56  81 109 140 183 228 275 325
#     4  10  21  36  54  81 109 143 178 220 274 324
#     4  11  22  36  55  82 108 142 183 229 281 327
#     4  10  20  36  56  77 101 139 186 232 267 325
#     4  11  21  35  58  78 104 145 188 229 278 330
#     4  10  20  35  57  82 111 137 173 219 269 325
#     4  10  23  36  50  76 108 144 178 222 286 338
#
# _framework density 17.365812999999999
#
# number of rings (size 3 to 8) (size 9 to 14) (size 15 to 20)
#    0.118    1.529    1.176    4.412    0.000    5.647 
#    0.706    0.000    0.000    0.235    0.000    0.000 
#    0.000    0.000    0.000    7.529    0.000    0.000 
#
# Total GULP energy -567982.371481 kJ/mol
# GULP energy per Si atom -5568.454622 kJ/mol
# Density = 1.732629 g / cm^3
# Si number density = 17.365813 Si / 1000 Ang^3
#
#
#
# Elastic Constant Matrix: (Units=GPa)
#
#
# Indices 1 2 3 4 5 6 
#
# 1 90.9307 64.2186 37.4598 0.0000 0.0000 0.0000
# 2 64.2186 90.9307 37.4598 0.0000 0.0000 0.0000
# 3 37.4598 37.4598 106.9139 0.0000 0.0000 0.0000
# 4 0.0000 0.0000 0.0000 23.9217 0.0000 0.0000
# 5 0.0000 0.0000 0.0000 0.0000 23.9217 0.0000
# 6 0.0000 0.0000 0.0000 0.0000 0.0000 13.3560
#
#
#
# Elastic Compliance Matrix: (Units=1/GPa)
#
#
# Indices 1 2 3 4 5 6 
#
# 1 0.022597 -0.014839 -0.002718 0.000000 0.000000 0.000000
# 2 -0.014839 0.022597 -0.002718 0.000000 0.000000 0.000000
# 3 -0.002718 -0.002718 0.011258 0.000000 0.000000 0.000000
# 4 0.000000 0.000000 0.000000 0.041803 0.000000 0.000000
# 5 0.000000 0.000000 0.000000 0.000000 0.041803 0.000000
# 6 0.000000 0.000000 0.000000 0.000000 0.000000 0.074873
#
#
# Mechanical properties :
#
#
# Convention : Reuss Voigt Hill
#
# Bulk Modulus (GPa) = 62.88800 63.00575 62.94688
# Shear Modulus (GPa) = 19.17306 22.21566 20.69436
#
# Velocity S-wave (km/s) = 3.32636 3.58058 3.45581
# Velocity P-wave (km/s) = 7.14459 7.31124 7.22840
#
# Compressibility (1/GPa) = 0.01590128
#
# Stress axis : x y z
#
# Youngs Moduli (GPa) = 44.25341 44.25341 88.82499
#
# Poissons Ratio (x) = 0.65668 0.24144
# Poissons Ratio (y) = 0.65668 0.24144
# Poissons Ratio (z) = 0.12029 0.12029
#
# Static dielectric constant tensor:
#      x y z
#    x 1.583410 0.000000 0.000000 
#    y 0.000000 1.583410 0.000000 
#    z 0.000000 0.000000 1.653470 
# 
# From -- ./inp_files/4388.got.cif
#   From: 2010.05.17/outbox.cif.g08.bks.cpg/sg191_3_cif.got.tgz:4388.got - 2010.05.20 12:20:32.
