data_PCOD9588074
_publ_section_title
;
Structure prediction by ZEFSAII (Michael W. Deem and Ramdas Pophale) SiO2 
 PCOD9588074
Probable space group: P 6/M M M
;
_chemical_formula_sum "Si O2"
_cell_formula_units_Z 78
_cell_length_a 22.516360
_cell_length_b 22.516360
_cell_length_c 9.548040
_cell_angle_alpha 90.000000
_cell_angle_beta 90.000000
_cell_angle_gamma 120.000000
_cell_volume 4192.192618
_symmetry_space_group_name_H-M "P 6/M M M"
_symmetry_group_IT_number 191
_symmetry_cell_setting 'hexagonal'
loop_
_space_group_symop_operation_xyz
x,y,z
x-y,x,z
-y,x-y,z
-x,-y,z
-x+y,-x,z
y,-x+y,z
x-y,-y,-z
-x,-x+y,-z
y,x,-z
-y,-x,-z
-x+y,y,-z
x,x-y,-z
-x,-y,-z
-x+y,-x,-z
y,-x+y,-z
x,y,-z
x-y,x,-z
-y,x-y,-z
-x+y,y,z
x,x-y,z
-y,-x,z
y,x,z
x-y,-y,z
-x,-x+y,z
loop_
_atom_site_type_symbol
_atom_site_label
_atom_site_fract_x
_atom_site_fract_y
_atom_site_fract_z
Si Si1 0.615344 0.615344 0.665345
Si Si2 0.491800 0.374342 0.847535
Si Si3 0.713108 0.426216 0.500000
Si Si4 0.737606 0.000000 0.165285
Si Si5 0.768408 0.231593 0.244783
Si Si6 0.154808 0.309615 0.167397
O O1 0.620829 0.620829 0.500000
O O2 0.548098 0.613916 0.723261
O O3 0.678883 0.678883 0.740936
O O4 0.571376 0.428625 0.836219
O O5 0.477571 0.298375 0.838272
O O6 0.467968 0.385013 0.000000
O O7 0.629850 0.370151 0.500000
O O8 0.740302 0.480603 0.371059
O O9 0.806318 0.072863 0.191682
O O10 0.721604 0.000000 0.000000
O O11 0.810239 0.189762 0.261016
O O12 0.164552 0.329104 0.000000
#
# Coordination Sequence:
#
# PCOD9588074 Si02
#       6
#    12  24   6  12  12  12
#     4  12  25  39  60  89 123 159 202 256 322 394
#     4  11  24  41  62  86 118 158 207 264 319 377
#     4  10  26  46  58  80 128 181 218 267 336 386
#     4  10  20  39  63  93 128 165 207 252 318 385
#     4  12  22  38  64  88 116 160 213 262 318 381
#     4  10  20  36  66  95 124 160 207 266 316 381
#
# _framework density 18.606013999999998
#
# number of rings (size 3 to 8) (size 9 to 14) (size 15 to 20)
#    0.154    0.923    3.077    4.154    2.154    2.462 
#    0.923    0.000    0.000    0.308    0.000    2.154 
#    0.000    0.000    0.000    1.385    0.000    1.538 
#
# Total GULP energy -434981.356639 kJ/mol
# GULP energy per Si atom -5576.684059 kJ/mol
# Density = 1.856367 g / cm^3
# Si number density = 18.606014 Si / 1000 Ang^3
#
#
#
# Elastic Constant Matrix: (Units=GPa)
#
#
# Indices 1 2 3 4 5 6 
#
# 1 114.6183 66.7426 27.0167 0.0000 0.0000 0.0000
# 2 66.7426 114.6183 27.0167 0.0000 0.0000 0.0000
# 3 27.0167 27.0167 86.2286 0.0000 0.0000 0.0000
# 4 0.0000 0.0000 0.0000 15.1083 0.0000 0.0000
# 5 0.0000 0.0000 0.0000 0.0000 15.1083 0.0000
# 6 0.0000 0.0000 0.0000 0.0000 0.0000 23.9378
#
#
#
# Elastic Compliance Matrix: (Units=1/GPa)
#
#
# Indices 1 2 3 4 5 6 
#
# 1 0.013485 -0.007403 -0.001905 0.000000 0.000000 0.000000
# 2 -0.007403 0.013485 -0.001905 0.000000 0.000000 0.000000
# 3 -0.001905 -0.001905 0.012791 0.000000 0.000000 0.000000
# 4 0.000000 0.000000 0.000000 0.066189 0.000000 0.000000
# 5 0.000000 0.000000 0.000000 0.000000 0.066189 0.000000
# 6 0.000000 0.000000 0.000000 0.000000 0.000000 0.041775
#
#
# Mechanical properties :
#
#
# Convention : Reuss Voigt Hill
#
# Bulk Modulus (GPa) = 57.69531 61.89081 59.79306
# Shear Modulus (GPa) = 20.65113 23.81016 22.23065
#
# Velocity S-wave (km/s) = 3.33516 3.58117 3.46035
# Velocity P-wave (km/s) = 6.77549 7.10182 6.94057
#
# Compressibility (1/GPa) = 0.01733243
#
# Stress axis : x y z
#
# Youngs Moduli (GPa) = 74.15919 74.15919 78.17943
#
# Poissons Ratio (x) = 0.54900 0.14897
# Poissons Ratio (y) = 0.54900 0.14897
# Poissons Ratio (z) = 0.14131 0.14131
#
# Static dielectric constant tensor:
#      x y z
#    x 1.643230 0.000000 0.000000 
#    y 0.000000 1.643230 0.000000 
#    z 0.000000 0.000000 1.653130 
# 
# From -- ./inp_files/1112.got.cif
#   From: 2010.05.17/outbox.cif.g08.bks.cpg/sg191_1_cif.got.tgz:1112.got - 2010.05.20 12:20:32.
