data_PCOD9588513
_publ_section_title
;
Structure prediction by ZEFSAII (Michael W. Deem and Ramdas Pophale) SiO2 
 PCOD9588513
Probable space group: P 6/M C C
;
_chemical_formula_sum "Si O2"
_cell_formula_units_Z 104
_cell_length_a 20.926368
_cell_length_b 20.926368
_cell_length_c 15.584490
_cell_angle_alpha 90.000000
_cell_angle_beta 90.000000
_cell_angle_gamma 120.000000
_cell_volume 5910.319287
_symmetry_space_group_name_H-M "P 6/M C C"
_symmetry_group_IT_number 192
_symmetry_cell_setting 'hexagonal'
loop_
_space_group_symop_operation_xyz
x,y,z
x-y,x,z
-y,x-y,z
-x,-y,z
-x+y,-x,z
y,-x+y,z
x-y,-y,1/2-z
-x,-x+y,1/2-z
y,x,1/2-z
-y,-x,1/2-z
-x+y,y,1/2-z
x,x-y,1/2-z
-x,-y,-z
-x+y,-x,-z
y,-x+y,-z
x,y,-z
x-y,x,-z
-y,x-y,-z
-x+y,y,1/2+z
x,x-y,1/2+z
-y,-x,1/2+z
y,x,1/2+z
x-y,-y,1/2+z
-x,-x+y,1/2+z
loop_
_atom_site_type_symbol
_atom_site_label
_atom_site_fract_x
_atom_site_fract_y
_atom_site_fract_z
Si Si1 0.428214 0.139297 0.902016
Si Si2 0.917673 0.686601 0.750000
Si Si3 0.333334 0.666667 0.145543
Si Si4 0.418454 0.836907 0.353449
Si Si5 0.139296 0.428214 0.902016
O O1 0.364891 0.095719 0.832845
O O2 0.498419 0.129395 0.885727
O O3 0.451591 0.225796 0.889135
O O4 0.402997 0.120066 0.000000
O O5 0.853775 0.707549 0.750000
O O6 0.904282 0.635110 0.832845
O O7 0.000000 0.753603 0.750000
O O8 0.333334 0.666667 0.250000
O O9 0.248696 0.624347 0.117855
O O10 0.419512 0.839023 0.250000
O O11 0.501581 0.870606 0.385727
O O12 0.120066 0.402997 0.000000
#
# Coordination Sequence:
#
# PCOD9588513 Si02
#       5
#    24  24   8  24  24
#     4  10  20  33  51  77 110 148 190 233 272 310
#     4  10  22  41  63  84 107 135 169 211 262 326
#     4   9  18  21  43  71 103 148 197 253 283 311
#     4  11  17  29  47  73 110 151 197 245 286 307
#     4  10  20  33  51  77 110 148 190 233 272 310
#
# _framework density 17.596342
#
# number of rings (size 3 to 8) (size 9 to 14) (size 15 to 20)
#    0.000    1.846    4.615    0.692    0.000    0.923 
#    0.000    2.308    0.000    3.000    0.000    0.000 
#    0.000    0.000    0.000   11.538    0.000    0.000 
#
# Total GULP energy -580725.688508 kJ/mol
# GULP energy per Si atom -5583.900851 kJ/mol
# Density = 1.755629 g / cm^3
# Si number density = 17.596342 Si / 1000 Ang^3
#
#
#
# Elastic Constant Matrix: (Units=GPa)
#
#
# Indices 1 2 3 4 5 6 
#
# 1 73.3942 53.7702 33.8779 0.0000 0.0000 -0.0001
# 2 53.7702 73.3945 33.8778 0.0000 0.0000 0.0000
# 3 33.8779 33.8778 110.7308 -0.0001 0.0000 0.0000
# 4 0.0000 0.0000 -0.0001 6.7458 0.0000 0.0000
# 5 0.0000 0.0000 0.0000 0.0000 6.7457 0.0000
# 6 -0.0001 0.0000 0.0000 0.0000 0.0000 9.8120
#
#
#
# Elastic Compliance Matrix: (Units=1/GPa)
#
#
# Indices 1 2 3 4 5 6 
#
# 1 0.030177 -0.020781 -0.002875 0.000000 0.000000 0.000000
# 2 -0.020781 0.030176 -0.002874 0.000000 0.000000 0.000000
# 3 -0.002875 -0.002874 0.010790 0.000000 0.000000 0.000000
# 4 0.000000 0.000000 0.000000 0.148241 0.000001 0.000000
# 5 0.000000 0.000000 0.000000 0.000001 0.148243 0.000000
# 6 0.000000 0.000000 0.000000 0.000000 0.000000 0.101916
#
#
# Mechanical properties :
#
#
# Convention : Reuss Voigt Hill
#
# Bulk Modulus (GPa) = 55.30171 55.61901 55.46036
# Shear Modulus (GPa) = 9.45841 13.72694 11.59268
#
# Velocity S-wave (km/s) = 2.32097 2.79606 2.56952
# Velocity P-wave (km/s) = 6.21922 6.48852 6.35529
#
# Compressibility (1/GPa) = 0.01808262
#
# Stress axis : x y z
#
# Youngs Moduli (GPa) = 33.13835 33.13849 92.68003
#
# Poissons Ratio (x) = 0.68865 0.26641
# Poissons Ratio (y) = 0.68865 0.26641
# Poissons Ratio (z) = 0.09526 0.09526
#
# Static dielectric constant tensor:
#      x y z
#    x 1.586050 0.000000 0.000000 
#    y 0.000000 1.586050 0.000000 
#    z 0.000000 0.000000 1.610950 
# 
# From -- ./inp_files/2847.got.cif
#   From: 2010.05.17/outbox.cif.g08.bks.cpg/sg192_2_cif.got.tgz:2847.got - 2010.05.20 12:28:01.
