data_PCOD9588977
_publ_section_title
;
Structure prediction by ZEFSAII (Michael W. Deem and Ramdas Pophale) SiO2 
 PCOD9588977
Probable space group: P 63/M C M
;
_chemical_formula_sum "Si O2"
_cell_formula_units_Z 108
_cell_length_a 17.859366
_cell_length_b 17.859366
_cell_length_c 21.002211
_cell_angle_alpha 90.000000
_cell_angle_beta 90.000000
_cell_angle_gamma 120.000000
_cell_volume 5801.332054
_symmetry_space_group_name_H-M "P 63/M C M"
_symmetry_group_IT_number 193
_symmetry_cell_setting 'hexagonal'
loop_
_space_group_symop_operation_xyz
x,y,z
x-y,x,1/2+z
-y,x-y,z
-x,-y,1/2+z
-x+y,-x,z
y,-x+y,1/2+z
x-y,-y,1/2-z
-x,-x+y,1/2-z
y,x,1/2-z
-y,-x,-z
-x+y,y,-z
x,x-y,-z
-x,-y,-z
-x+y,-x,1/2-z
y,-x+y,-z
x,y,1/2-z
x-y,x,-z
-y,x-y,1/2-z
-x+y,y,1/2+z
x,x-y,1/2+z
-y,-x,1/2+z
y,x,z
x-y,-y,z
-x,-x+y,z
loop_
_atom_site_type_symbol
_atom_site_label
_atom_site_fract_x
_atom_site_fract_y
_atom_site_fract_z
Si Si1 0.682490 0.785063 0.056914
Si Si2 0.224159 0.638554 0.250000
Si Si3 0.896256 0.364561 0.503528
Si Si4 0.280139 0.099709 0.678940
Si Si5 0.645944 0.547246 0.848769
O O1 0.734351 0.734351 0.048025
O O2 0.707973 0.833856 0.123896
O O3 0.705628 0.852814 0.000000
O O4 0.580903 0.713987 0.045560
O O5 0.266272 0.576916 0.250000
O O6 0.165565 0.627559 0.311226
O O7 0.859062 0.429531 0.500000
O O8 0.882783 0.333738 0.576508
O O9 0.000000 0.422285 0.493761
O O10 0.262838 0.120763 0.750000
O O11 0.371105 0.100875 0.680254
O O12 0.208777 0.000000 0.663685
O O13 0.567207 0.567207 0.843176
#
# Coordination Sequence:
#
# PCOD9588977 Si02
#       5
#    24  12  24  24  24
#     4  11  21  36  61  91 121 156 198 249 299 349
#     4  10  23  36  50  82 120 152 189 248 300 342
#     4   9  19  35  57  84 111 143 188 240 294 348
#     4  10  20  36  62  90 116 154 201 244 293 358
#     4  10  18  36  62  81 107 156 201 233 288 363
#
# _framework density 18.616413000000001
#
# number of rings (size 3 to 8) (size 9 to 14) (size 15 to 20)
#    0.222    1.778    3.333    1.000    0.000    2.222 
#    0.000    0.000    0.000    5.778    0.000    0.000 
#    0.000    0.000    0.000    0.000    0.000    0.000 
#
# Total GULP energy -601806.823928 kJ/mol
# GULP energy per Si atom -5572.285407 kJ/mol
# Density = 1.857404 g / cm^3
# Si number density = 18.616413 Si / 1000 Ang^3
#
#
#
# Elastic Constant Matrix: (Units=GPa)
#
#
# Indices 1 2 3 4 5 6 
#
# 1 83.4645 37.3226 42.1154 0.0000 0.0000 0.0000
# 2 37.3226 83.4645 42.1154 0.0000 0.0000 0.0000
# 3 42.1154 42.1154 81.6725 0.0000 0.0000 0.0000
# 4 0.0000 0.0000 0.0000 9.0253 0.0000 0.0000
# 5 0.0000 0.0000 0.0000 0.0000 9.0253 0.0000
# 6 0.0000 0.0000 0.0000 0.0000 0.0000 23.0709
#
#
#
# Elastic Compliance Matrix: (Units=1/GPa)
#
#
# Indices 1 2 3 4 5 6 
#
# 1 0.017300 -0.004372 -0.006666 0.000000 0.000000 0.000000
# 2 -0.004372 0.017300 -0.006666 0.000000 0.000000 0.000000
# 3 -0.006666 -0.006666 0.019119 0.000000 0.000000 0.000000
# 4 0.000000 0.000000 0.000000 0.110799 0.000000 0.000000
# 5 0.000000 0.000000 0.000000 0.000000 0.110799 0.000000
# 6 0.000000 0.000000 0.000000 0.000000 0.000000 0.043345
#
#
# Mechanical properties :
#
#
# Convention : Reuss Voigt Hill
#
# Bulk Modulus (GPa) = 54.61695 54.63425 54.62560
# Shear Modulus (GPa) = 13.88212 16.69420 15.28816
#
# Velocity S-wave (km/s) = 2.73370 2.99782 2.86880
# Velocity P-wave (km/s) = 6.27423 6.43379 6.35451
#
# Compressibility (1/GPa) = 0.01830934
#
# Stress axis : x y z
#
# Youngs Moduli (GPa) = 57.80328 57.80328 52.30340
#
# Poissons Ratio (x) = 0.25273 0.34867
# Poissons Ratio (y) = 0.25273 0.34867
# Poissons Ratio (z) = 0.38534 0.38534
#
# Static dielectric constant tensor:
#      x y z
#    x 1.663660 0.000000 0.000000 
#    y 0.000000 1.663660 0.000000 
#    z 0.000000 0.000000 1.747280 
# 
# From -- ./inp_files/6270.got.cif
#   From: 2010.05.17/outbox.cif.g08.bks.cpg/sg193_4_cif.got.tgz:6270.got - 2010.05.20 12:33:02.
