data_PCOD9588651
_publ_section_title
;
Structure prediction by ZEFSAII (Michael W. Deem and Ramdas Pophale) SiO2 
 PCOD9588651
Probable space group: P 6/M C C
;
_chemical_formula_sum "Si O2"
_cell_formula_units_Z 80
_cell_length_a 19.137275
_cell_length_b 19.137275
_cell_length_c 14.970087
_cell_angle_alpha 90.000000
_cell_angle_beta 90.000000
_cell_angle_gamma 120.000000
_cell_volume 4748.048553
_symmetry_space_group_name_H-M "P 6/M C C"
_symmetry_group_IT_number 192
_symmetry_cell_setting 'hexagonal'
loop_
_space_group_symop_operation_xyz
x,y,z
x-y,x,z
-y,x-y,z
-x,-y,z
-x+y,-x,z
y,-x+y,z
x-y,-y,1/2-z
-x,-x+y,1/2-z
y,x,1/2-z
-y,-x,1/2-z
-x+y,y,1/2-z
x,x-y,1/2-z
-x,-y,-z
-x+y,-x,-z
y,-x+y,-z
x,y,-z
x-y,x,-z
-y,x-y,-z
-x+y,y,1/2+z
x,x-y,1/2+z
-y,-x,1/2+z
y,x,1/2+z
x-y,-y,1/2+z
-x,-x+y,1/2+z
loop_
_atom_site_type_symbol
_atom_site_label
_atom_site_fract_x
_atom_site_fract_y
_atom_site_fract_z
Si Si1 0.271106 0.486619 0.895158
Si Si2 0.309975 0.000000 0.250000
Si Si3 0.333334 0.666668 0.391239
Si Si4 0.559540 0.967255 0.895402
Si Si5 0.644654 0.822327 0.250000
O O1 0.287462 0.573571 0.864034
O O2 0.354168 0.483971 0.886867
O O3 0.205976 0.414824 0.835325
O O4 0.248952 0.476184 0.000000
O O5 0.361418 0.998095 0.165325
O O6 0.306106 0.081424 0.246151
O O7 0.333334 0.666668 0.500000
O O8 0.500000 0.000000 0.868077
O O9 0.579540 0.987480 0.000000
#
# Coordination Sequence:
#
# PCOD9588651 Si02
#       5
#    24  12   8  24  12
#     4   9  19  33  48  72 100 133 171 204 243 284
#     4  10  21  36  52  75  98 126 166 208 256 309
#     4   9  18  31  47  67 100 137 172 208 236 271
#     4   9  18  32  51  72  99 134 168 205 244 285
#     4  10  22  36  54  73  98 128 161 210 256 308
#
# _framework density 16.849027
#
# number of rings (size 3 to 8) (size 9 to 14) (size 15 to 20)
#    0.000    2.700    0.000    0.450    4.200    2.400 
#    0.000    0.000    0.000    0.300    0.000    0.000 
#    0.000    0.000    0.000   15.000    0.000    0.000 
#
# Total GULP energy -446409.842076 kJ/mol
# GULP energy per Si atom -5580.123026 kJ/mol
# Density = 1.681068 g / cm^3
# Si number density = 16.849027 Si / 1000 Ang^3
#
#
#
# Elastic Constant Matrix: (Units=GPa)
#
#
# Indices 1 2 3 4 5 6 
#
# 1 84.2530 64.2108 30.9365 0.0000 0.0000 0.0002
# 2 64.2108 84.2529 30.9366 0.0000 0.0000 0.0001
# 3 30.9365 30.9366 61.9436 0.0000 0.0000 0.0001
# 4 0.0000 0.0000 0.0000 16.5495 0.0000 0.0000
# 5 0.0000 0.0000 0.0000 0.0000 16.5491 0.0000
# 6 0.0002 0.0001 0.0001 0.0000 0.0000 10.0209
#
#
#
# Elastic Compliance Matrix: (Units=1/GPa)
#
#
# Indices 1 2 3 4 5 6 
#
# 1 0.029200 -0.020694 -0.004248 0.000000 0.000000 0.000000
# 2 -0.020694 0.029201 -0.004248 0.000000 0.000000 0.000000
# 3 -0.004248 -0.004248 0.020387 0.000000 0.000000 0.000000
# 4 0.000000 0.000000 0.000000 0.060425 0.000000 0.000000
# 5 0.000000 0.000000 0.000000 0.000000 0.060426 0.000000
# 6 0.000000 0.000000 0.000000 0.000000 0.000000 0.099791
#
#
# Mechanical properties :
#
#
# Convention : Reuss Voigt Hill
#
# Bulk Modulus (GPa) = 49.00407 53.62415 51.31411
# Shear Modulus (GPa) = 13.71312 15.58160 14.64736
#
# Velocity S-wave (km/s) = 2.85596 3.04431 2.95164
# Velocity P-wave (km/s) = 6.32635 6.65225 6.49135
#
# Compressibility (1/GPa) = 0.02040647
#
# Stress axis : x y z
#
# Youngs Moduli (GPa) = 34.24602 34.24589 49.05057
#
# Poissons Ratio (x) = 0.70870 0.20837
# Poissons Ratio (y) = 0.70870 0.20838
# Poissons Ratio (z) = 0.14548 0.14549
#
# Static dielectric constant tensor:
#      x y z
#    x 1.553990 0.000000 0.000000 
#    y 0.000000 1.553990 0.000000 
#    z 0.000000 0.000000 1.600090 
# 
# From -- ./inp_files/2686.got.cif
#   From: 2010.05.17/outbox.cif.g08.bks.cpg/sg192_2_cif.got.tgz:2686.got - 2010.05.20 12:28:01.
