data_PCOD9588397
_publ_section_title
;
Structure prediction by ZEFSAII (Michael W. Deem and Ramdas Pophale) SiO2 
 PCOD9588397
Probable space group: P 6/M C C
;
_chemical_formula_sum "Si O2"
_cell_formula_units_Z 192
_cell_length_a 22.268413
_cell_length_b 22.268413
_cell_length_c 27.324460
_cell_angle_alpha 90.000000
_cell_angle_beta 90.000000
_cell_angle_gamma 120.000000
_cell_volume 11734.396380
_symmetry_space_group_name_H-M "P 6/M C C"
_symmetry_group_IT_number 192
_symmetry_cell_setting 'hexagonal'
loop_
_space_group_symop_operation_xyz
x,y,z
x-y,x,z
-y,x-y,z
-x,-y,z
-x+y,-x,z
y,-x+y,z
x-y,-y,1/2-z
-x,-x+y,1/2-z
y,x,1/2-z
-y,-x,1/2-z
-x+y,y,1/2-z
x,x-y,1/2-z
-x,-y,-z
-x+y,-x,-z
y,-x+y,-z
x,y,-z
x-y,x,-z
-y,x-y,-z
-x+y,y,1/2+z
x,x-y,1/2+z
-y,-x,1/2+z
y,x,1/2+z
x-y,-y,1/2+z
-x,-x+y,1/2+z
loop_
_atom_site_type_symbol
_atom_site_label
_atom_site_fract_x
_atom_site_fract_y
_atom_site_fract_z
Si Si1 0.797936 0.946089 0.286266
Si Si2 0.034239 0.152814 0.895821
Si Si3 0.829242 0.183385 0.195659
Si Si4 0.073976 0.616617 0.944346
Si Si5 0.336147 0.276253 0.620934
Si Si6 0.509059 0.600922 0.055891
Si Si7 0.713043 0.854717 0.943268
Si Si8 0.723862 0.617991 0.387037
O O1 0.835635 0.917818 0.250000
O O2 0.833661 0.972449 0.338224
O O3 0.724876 0.880159 0.299865
O O4 0.791965 0.000000 0.250000
O O5 0.090764 0.130887 0.907896
O O6 0.067876 0.224232 0.925187
O O7 0.808052 0.191949 0.250000
O O8 0.897478 0.247567 0.171607
O O9 0.765335 0.153818 0.158496
O O10 0.085726 0.677375 0.907867
O O11 0.105518 0.567366 0.931641
O O12 0.991252 0.562447 0.945390
O O13 0.094437 0.643152 0.000000
O O14 0.292156 0.205041 0.589433
O O15 0.301276 0.325289 0.624095
O O16 0.545269 0.661358 0.095088
O O17 0.507274 0.623695 0.000000
O O18 0.647348 0.780559 0.930485
O O19 0.718707 0.872373 0.000000
#
# Coordination Sequence:
#
# PCOD9588397 Si02
#       8
#    24  24  24  24  24  24  24  24
#     4  11  21  32  52  67  84 113 154 221 283 340
#     4  12  24  38  49  65  84 118 168 228 294 354
#     4  10  23  32  47  70  98 126 171 217 267 315
#     4   8  14  26  47  73 104 131 153 179 217 279
#     4  10  19  32  49  73  97 129 165 204 254 312
#     4   8  14  26  46  74 102 130 156 179 216 278
#     4  11  23  34  48  69  96 128 166 212 260 319
#     4  10  19  31  50  70  97 129 166 205 253 306
#
# _framework density 16.362152999999999
#
# number of rings (size 3 to 8) (size 9 to 14) (size 15 to 20)
#    0.000    2.000    3.750    2.375    3.500    3.000 
#    0.000    0.000    0.000    1.500    0.000    3.500 
#   10.000    0.000    6.000    0.000    0.000    0.000 
#
# Total GULP energy -1069204.952508 kJ/mol
# GULP energy per Si atom -5568.775794 kJ/mol
# Density = 1.632491 g / cm^3
# Si number density = 16.362153 Si / 1000 Ang^3
#
#
#
# Elastic Constant Matrix: (Units=GPa)
#
#
# Indices 1 2 3 4 5 6 
#
# 1 50.9809 7.6138 13.3815 0.0000 0.0000 0.0000
# 2 7.6138 50.9809 13.3815 0.0000 0.0000 0.0000
# 3 13.3815 13.3815 77.2828 0.0000 0.0000 0.0000
# 4 0.0000 0.0000 0.0000 23.6450 0.0000 0.0000
# 5 0.0000 0.0000 0.0000 0.0000 23.6450 0.0000
# 6 0.0000 0.0000 0.0000 0.0000 0.0000 21.6836
#
#
#
# Elastic Compliance Matrix: (Units=1/GPa)
#
#
# Indices 1 2 3 4 5 6 
#
# 1 0.020795 -0.002263 -0.003209 0.000000 0.000000 0.000000
# 2 -0.002263 0.020795 -0.003209 0.000000 0.000000 0.000000
# 3 -0.003209 -0.003209 0.014051 0.000000 0.000000 0.000000
# 4 0.000000 0.000000 0.000000 0.042292 0.000000 0.000000
# 5 0.000000 0.000000 0.000000 0.000000 0.042292 0.000000
# 6 0.000000 0.000000 0.000000 0.000000 0.000000 0.046118
#
#
# Mechanical properties :
#
#
# Convention : Reuss Voigt Hill
#
# Bulk Modulus (GPa) = 26.12368 27.55537 26.83953
# Shear Modulus (GPa) = 23.09832 23.45257 23.27544
#
# Velocity S-wave (km/s) = 3.76132 3.79006 3.77572
# Velocity P-wave (km/s) = 5.90457 6.00252 5.95375
#
# Compressibility (1/GPa) = 0.03827944
#
# Stress axis : x y z
#
# Youngs Moduli (GPa) = 48.08742 48.08742 71.17080
#
# Poissons Ratio (x) = 0.10884 0.22837
# Poissons Ratio (y) = 0.10884 0.22837
# Poissons Ratio (z) = 0.15430 0.15430
#
# Static dielectric constant tensor:
#      x y z
#    x 1.577910 0.000000 0.000000 
#    y 0.000000 1.577910 0.000000 
#    z 0.000000 0.000000 1.586270 
# 
# From -- ./inp_files/6686.got.cif
#   From: 2010.05.17/outbox.cif.g08.bks.cpg/sg192_4_cif.got.tgz:6686.got - 2010.05.20 12:28:01.
