data_PCOD9588899
_publ_section_title
;
Structure prediction by ZEFSAII (Michael W. Deem and Ramdas Pophale) SiO2 
 PCOD9588899
Probable space group: P 63/M C M
;
_chemical_formula_sum "Si O2"
_cell_formula_units_Z 108
_cell_length_a 19.090494
_cell_length_b 19.090494
_cell_length_c 14.539468
_cell_angle_alpha 90.000000
_cell_angle_beta 90.000000
_cell_angle_gamma 120.000000
_cell_volume 4588.951640
_symmetry_space_group_name_H-M "P 63/M C M"
_symmetry_group_IT_number 193
_symmetry_cell_setting 'hexagonal'
loop_
_space_group_symop_operation_xyz
x,y,z
x-y,x,1/2+z
-y,x-y,z
-x,-y,1/2+z
-x+y,-x,z
y,-x+y,1/2+z
x-y,-y,1/2-z
-x,-x+y,1/2-z
y,x,1/2-z
-y,-x,-z
-x+y,y,-z
x,x-y,-z
-x,-y,-z
-x+y,-x,1/2-z
y,-x+y,-z
x,y,1/2-z
x-y,x,-z
-y,x-y,1/2-z
-x+y,y,1/2+z
x,x-y,1/2+z
-y,-x,1/2+z
y,x,z
x-y,-y,z
-x,-x+y,z
loop_
_atom_site_type_symbol
_atom_site_label
_atom_site_fract_x
_atom_site_fract_y
_atom_site_fract_z
Si Si1 0.747761 0.426387 0.138235
Si Si2 0.904614 0.098140 0.250000
Si Si3 0.914593 0.392335 0.637484
Si Si4 0.795074 0.096208 0.919305
Si Si5 0.450137 0.094932 0.352466
O O1 0.657779 0.403433 0.110146
O O2 0.749648 0.427735 0.250000
O O3 0.827504 0.505466 0.106055
O O4 0.891966 0.144842 0.164860
O O5 0.000000 0.124066 0.250000
O O6 0.847528 0.000000 0.250000
O O7 0.917270 0.389541 0.750000
O O8 0.909719 0.472344 0.612797
O O9 0.000000 0.405777 0.602416
O O10 0.730285 0.125763 0.899850
O O11 0.745804 0.000000 0.939717
O O12 0.852294 0.147707 0.000000
O O13 0.472242 0.131830 0.250000
O O14 0.385608 0.000000 0.342015
#
# Coordination Sequence:
#
# PCOD9588899 Si02
#       5
#    24  12  24  24  24
#     4   7  11  18  28  46  79 112 141 175 221 276
#     4  10  19  30  42  56  76 102 134 172 218 274
#     4   8  12  18  32  53  75 103 141 180 219 261
#     4  10  18  28  41  57  78 103 135 174 220 270
#     4   8  13  23  37  54  76  98 128 174 219 257
#
# _framework density 23.534787000000001
#
# number of rings (size 3 to 8) (size 9 to 14) (size 15 to 20)
#    0.444    3.111    1.111    2.111    0.000    0.000 
#    0.000    0.000    0.000    3.556    0.000    3.111 
#    0.000    1.778    0.000    8.000    0.000    7.111 
#
# Total GULP energy -601416.087323 kJ/mol
# GULP energy per Si atom -5568.667475 kJ/mol
# Density = 2.348122 g / cm^3
# Si number density = 23.534787 Si / 1000 Ang^3
#
#
#
# Elastic Constant Matrix: (Units=GPa)
#
#
# Indices 1 2 3 4 5 6 
#
# 1 39.1355 17.2901 11.4039 0.0000 0.0000 0.0000
# 2 17.2901 39.1355 11.4039 0.0000 0.0000 0.0000
# 3 11.4039 11.4039 72.8602 0.0000 0.0000 0.0000
# 4 0.0000 0.0000 0.0000 13.3309 0.0000 0.0000
# 5 0.0000 0.0000 0.0000 0.0000 13.3309 0.0000
# 6 0.0000 0.0000 0.0000 0.0000 0.0000 10.9227
#
#
#
# Elastic Compliance Matrix: (Units=1/GPa)
#
#
# Indices 1 2 3 4 5 6 
#
# 1 0.032348 -0.013428 -0.002961 0.000000 0.000000 0.000000
# 2 -0.013428 0.032348 -0.002961 0.000000 0.000000 0.000000
# 3 -0.002961 -0.002961 0.014652 0.000000 0.000000 0.000000
# 4 0.000000 0.000000 0.000000 0.075013 0.000000 0.000000
# 5 0.000000 0.000000 0.000000 0.000000 0.075013 0.000000
# 6 0.000000 0.000000 0.000000 0.000000 0.000000 0.091552
#
#
# Mechanical properties :
#
#
# Convention : Reuss Voigt Hill
#
# Bulk Modulus (GPa) = 24.60276 25.70298 25.15287
# Shear Modulus (GPa) = 13.39847 14.91914 14.15881
#
# Velocity S-wave (km/s) = 2.38860 2.52051 2.45544
# Velocity P-wave (km/s) = 4.25249 4.40631 4.33008
#
# Compressibility (1/GPa) = 0.04064585
#
# Stress axis : x y z
#
# Youngs Moduli (GPa) = 30.91401 30.91401 68.25058
#
# Poissons Ratio (x) = 0.41512 0.20211
# Poissons Ratio (y) = 0.41512 0.20211
# Poissons Ratio (z) = 0.09154 0.09154
#
# Static dielectric constant tensor:
#      x y z
#    x 1.916500 0.000000 0.000000 
#    y 0.000000 1.916500 0.000000 
#    z 0.000000 0.000000 1.991730 
# 
# From -- ./inp_files/5429.got.cif
#   From: 2010.05.17/outbox.cif.g08.bks.cpg/sg193_3_cif.got.tgz:5429.got - 2010.05.20 12:33:02.
