data_PCOD9588560
_publ_section_title
;
Structure prediction by ZEFSAII (Michael W. Deem and Ramdas Pophale) SiO2 
 PCOD9588560
Probable space group: P 6/M C C
;
_chemical_formula_sum "Si O2"
_cell_formula_units_Z 84
_cell_length_a 22.519919
_cell_length_b 22.519919
_cell_length_c 11.028941
_cell_angle_alpha 90.000000
_cell_angle_beta 90.000000
_cell_angle_gamma 120.000000
_cell_volume 4843.932619
_symmetry_space_group_name_H-M "P 6/M C C"
_symmetry_group_IT_number 192
_symmetry_cell_setting 'hexagonal'
loop_
_space_group_symop_operation_xyz
x,y,z
x-y,x,z
-y,x-y,z
-x,-y,z
-x+y,-x,z
y,-x+y,z
x-y,-y,1/2-z
-x,-x+y,1/2-z
y,x,1/2-z
-y,-x,1/2-z
-x+y,y,1/2-z
x,x-y,1/2-z
-x,-y,-z
-x+y,-x,-z
y,-x+y,-z
x,y,-z
x-y,x,-z
-y,x-y,-z
-x+y,y,1/2+z
x,x-y,1/2+z
-y,-x,1/2+z
y,x,1/2+z
x-y,-y,1/2+z
-x,-x+y,1/2+z
loop_
_atom_site_type_symbol
_atom_site_label
_atom_site_fract_x
_atom_site_fract_y
_atom_site_fract_z
Si Si1 0.614155 0.787864 0.371267
Si Si2 0.586313 0.633487 0.636296
Si Si3 0.233789 0.695384 0.366043
Si Si4 0.440761 0.559240 0.750000
O O1 0.652288 0.826144 0.250000
O O2 0.648733 0.817296 0.500000
O O3 0.596124 0.709337 0.365271
O O4 0.541649 0.786942 0.370976
O O5 0.627464 0.627464 0.750000
O O6 0.603283 0.619640 0.500000
O O7 0.507174 0.581153 0.668534
O O8 0.283876 0.716125 0.250000
O O9 0.261758 0.694862 0.500000
O O10 0.167773 0.623262 0.334960
#
# Coordination Sequence:
#
# PCOD9588560 Si02
#       4
#    24  24  24  12
#     4   9  17  35  55  70  88 118 153 187 228 283
#     4  11  24  38  53  75 100 125 156 195 244 298
#     4  10  20  35  55  71  89 117 150 190 231 283
#     4  12  21  36  56  76  96 124 160 198 242 298
#
# _framework density 17.341280999999999
#
# number of rings (size 3 to 8) (size 9 to 14) (size 15 to 20)
#    0.000    1.714    5.714    1.286    0.000    5.714 
#    0.857    0.000    0.000    0.000    0.000    0.000 
#    0.000    0.000    0.000    0.000    0.000    0.000 
#
# Total GULP energy -468389.072389 kJ/mol
# GULP energy per Si atom -5576.060386 kJ/mol
# Density = 1.730181 g / cm^3
# Si number density = 17.341281 Si / 1000 Ang^3
#
#
#
# Elastic Constant Matrix: (Units=GPa)
#
#
# Indices 1 2 3 4 5 6 
#
# 1 21.9110 2.9784 15.8082 0.0000 0.0000 0.0000
# 2 2.9784 21.9110 15.8082 0.0000 0.0000 0.0000
# 3 15.8082 15.8082 207.3147 0.0000 0.0000 0.0000
# 4 0.0000 0.0000 0.0000 22.3787 0.0000 0.0000
# 5 0.0000 0.0000 0.0000 0.0000 22.3787 0.0000
# 6 0.0000 0.0000 0.0000 0.0000 0.0000 9.4663
#
#
#
# Elastic Compliance Matrix: (Units=1/GPa)
#
#
# Indices 1 2 3 4 5 6 
#
# 1 0.048653 -0.004166 -0.003392 0.000000 0.000000 0.000000
# 2 -0.004166 0.048653 -0.003392 0.000000 0.000000 0.000000
# 3 -0.003392 -0.003392 0.005341 0.000000 0.000000 0.000000
# 4 0.000000 0.000000 0.000000 0.044685 0.000000 0.000000
# 5 0.000000 0.000000 0.000000 0.000000 0.044685 0.000000
# 6 0.000000 0.000000 0.000000 0.000000 0.000000 0.105638
#
#
# Mechanical properties :
#
#
# Convention : Reuss Voigt Hill
#
# Bulk Modulus (GPa) = 12.38461 35.59183 23.98822
# Shear Modulus (GPa) = 14.43122 25.28088 19.85605
#
# Velocity S-wave (km/s) = 2.88790 3.82231 3.38748
# Velocity P-wave (km/s) = 4.27518 6.32843 5.40028
#
# Compressibility (1/GPa) = 0.08074536
#
# Stress axis : x y z
#
# Youngs Moduli (GPa) = 20.55382 20.55382 187.23407
#
# Poissons Ratio (x) = 0.08563 0.63514
# Poissons Ratio (y) = 0.08563 0.63514
# Poissons Ratio (z) = 0.06972 0.06972
#
# Static dielectric constant tensor:
#      x y z
#    x 1.580870 0.000000 0.000000 
#    y 0.000000 1.580870 0.000000 
#    z 0.000000 0.000000 1.714550 
# 
# From -- ./inp_files/1573.got.cif
#   From: 2010.05.17/outbox.cif.g08.bks.cpg/sg192_1_cif.got.tgz:1573.got - 2010.05.20 12:28:01.
