data_PCOD9588934
_publ_section_title
;
Structure prediction by ZEFSAII (Michael W. Deem and Ramdas Pophale) SiO2 
 PCOD9588934
Probable space group: P 63/M C M
;
_chemical_formula_sum "Si O2"
_cell_formula_units_Z 168
_cell_length_a 17.560176
_cell_length_b 17.560176
_cell_length_c 32.816596
_cell_angle_alpha 90.000000
_cell_angle_beta 90.000000
_cell_angle_gamma 120.000000
_cell_volume 8763.586769
_symmetry_space_group_name_H-M "P 63/M C M"
_symmetry_group_IT_number 193
_symmetry_cell_setting 'hexagonal'
loop_
_space_group_symop_operation_xyz
x,y,z
x-y,x,1/2+z
-y,x-y,z
-x,-y,1/2+z
-x+y,-x,z
y,-x+y,1/2+z
x-y,-y,1/2-z
-x,-x+y,1/2-z
y,x,1/2-z
-y,-x,-z
-x+y,y,-z
x,x-y,-z
-x,-y,-z
-x+y,-x,1/2-z
y,-x+y,-z
x,y,1/2-z
x-y,x,-z
-y,x-y,1/2-z
-x+y,y,1/2+z
x,x-y,1/2+z
-y,-x,1/2+z
y,x,z
x-y,-y,z
-x,-x+y,z
loop_
_atom_site_type_symbol
_atom_site_label
_atom_site_fract_x
_atom_site_fract_y
_atom_site_fract_z
Si Si1 0.509405 0.835347 0.931253
Si Si2 0.499928 0.164432 0.583562
Si Si3 0.103155 0.811043 0.295650
Si Si4 0.357865 0.252945 0.641873
Si Si5 0.107085 0.619618 0.794961
Si Si6 0.543911 0.647165 0.672509
Si Si7 0.624422 0.724371 0.991819
O O1 0.437082 0.860590 0.917875
O O2 0.465307 0.729908 0.930227
O O3 0.594697 0.866909 0.901983
O O4 0.547155 0.875078 0.975256
O O5 0.466488 0.151069 0.629822
O O6 0.420136 0.110585 0.552302
O O7 0.133094 0.850908 0.250000
O O8 0.160544 0.863590 0.335014
O O9 0.108380 0.721942 0.298332
O O10 0.000000 0.780186 0.299867
O O11 0.302510 0.302510 0.641057
O O12 0.439920 0.304714 0.672480
O O13 0.137618 0.655357 0.750000
O O14 0.135984 0.549785 0.807140
O O15 0.000000 0.565792 0.794579
O O16 0.584710 0.584710 0.662463
O O17 0.700302 0.700302 0.997630
O O18 0.651496 0.825748 0.000000
#
# Coordination Sequence:
#
# PCOD9588934 Si02
#       7
#    24  24  24  24  24  24  24
#     4  11  22  37  56  83 119 156 194 234 281 333
#     4  11  21  36  56  80 115 157 194 234 279 337
#     4  10  21  37  55  76 107 146 188 237 290 346
#     4  11  21  34  55  81 109 143 183 236 290 343
#     4   9  17  29  47  73 103 134 173 224 276 328
#     4  10  18  30  51  76 103 141 187 227 272 331
#     4  10  23  40  61  88 117 152 194 242 292 344
#
# _framework density 19.170231999999999
#
# number of rings (size 3 to 8) (size 9 to 14) (size 15 to 20)
#    0.000    1.714    2.857    2.429    0.000    4.857 
#    0.000    1.429    0.000    0.429    0.000    4.000 
#    0.000    1.143    0.000    0.000    0.000    0.000 
#
# Total GULP energy -936767.216047 kJ/mol
# GULP energy per Si atom -5575.995334 kJ/mol
# Density = 1.912660 g / cm^3
# Si number density = 19.170232 Si / 1000 Ang^3
#
#
#
# Elastic Constant Matrix: (Units=GPa)
#
#
# Indices 1 2 3 4 5 6 
#
# 1 54.2968 20.3468 2.1112 0.0000 0.0000 0.0000
# 2 20.3468 54.2968 2.1112 0.0000 0.0000 0.0000
# 3 2.1112 2.1112 78.0553 0.0000 0.0000 0.0000
# 4 0.0000 0.0000 0.0000 20.4190 0.0000 0.0000
# 5 0.0000 0.0000 0.0000 0.0000 20.4190 0.0000
# 6 0.0000 0.0000 0.0000 0.0000 0.0000 16.9750
#
#
#
# Elastic Compliance Matrix: (Units=1/GPa)
#
#
# Indices 1 2 3 4 5 6 
#
# 1 0.021436 -0.008019 -0.000363 0.000000 0.000000 0.000000
# 2 -0.008019 0.021436 -0.000363 0.000000 0.000000 0.000000
# 3 -0.000363 -0.000363 0.012831 0.000000 0.000000 0.000000
# 4 0.000000 0.000000 0.000000 0.048974 0.000000 0.000000
# 5 0.000000 0.000000 0.000000 0.000000 0.048974 0.000000
# 6 0.000000 0.000000 0.000000 0.000000 0.000000 0.058910
#
#
# Mechanical properties :
#
#
# Convention : Reuss Voigt Hill
#
# Bulk Modulus (GPa) = 26.16814 26.19863 26.18338
# Shear Modulus (GPa) = 20.59400 22.36791 21.48096
#
# Velocity S-wave (km/s) = 3.28116 3.41956 3.35107
# Velocity P-wave (km/s) = 5.29478 5.41176 5.35359
#
# Compressibility (1/GPa) = 0.03821441
#
# Stress axis : x y z
#
# Youngs Moduli (GPa) = 46.64987 46.64987 77.93590
#
# Poissons Ratio (x) = 0.37407 0.02828
# Poissons Ratio (y) = 0.37407 0.02828
# Poissons Ratio (z) = 0.01693 0.01693
#
# Static dielectric constant tensor:
#      x y z
#    x 1.681580 0.000000 0.000000 
#    y 0.000000 1.681580 0.000000 
#    z 0.000000 0.000000 1.680130 
# 
# From -- ./inp_files/9289.got.cif
#   From: 2010.05.17/outbox.cif.g08.bks.cpg/sg193_5_cif.got.tgz:9289.got - 2010.05.20 12:33:02.
