data_PCOD9588902
_publ_section_title
;
Structure prediction by ZEFSAII (Michael W. Deem and Ramdas Pophale) SiO2 
 PCOD9588902
Probable space group: P 63/M C M
;
_chemical_formula_sum "Si O2"
_cell_formula_units_Z 96
_cell_length_a 28.137334
_cell_length_b 28.137334
_cell_length_c 9.963462
_cell_angle_alpha 90.000000
_cell_angle_beta 90.000000
_cell_angle_gamma 120.000000
_cell_volume 6831.354018
_symmetry_space_group_name_H-M "P 63/M C M"
_symmetry_group_IT_number 193
_symmetry_cell_setting 'hexagonal'
loop_
_space_group_symop_operation_xyz
x,y,z
x-y,x,1/2+z
-y,x-y,z
-x,-y,1/2+z
-x+y,-x,z
y,-x+y,1/2+z
x-y,-y,1/2-z
-x,-x+y,1/2-z
y,x,1/2-z
-y,-x,-z
-x+y,y,-z
x,x-y,-z
-x,-y,-z
-x+y,-x,1/2-z
y,-x+y,-z
x,y,1/2-z
x-y,x,-z
-y,x-y,1/2-z
-x+y,y,1/2+z
x,x-y,1/2+z
-y,-x,1/2+z
y,x,z
x-y,-y,z
-x,-x+y,z
loop_
_atom_site_type_symbol
_atom_site_label
_atom_site_fract_x
_atom_site_fract_y
_atom_site_fract_z
Si Si1 0.577783 0.511058 0.906806
Si Si2 0.333686 0.399986 0.593545
Si Si3 0.164676 0.937430 0.250000
Si Si4 0.686620 0.898291 0.511300
Si Si5 0.179299 0.937777 0.750000
O O1 0.585266 0.500454 0.750000
O O2 0.543232 0.543232 0.902732
O O3 0.542054 0.457947 0.000000
O O4 0.632930 0.550713 0.989164
O O5 0.337252 0.417583 0.750000
O O6 0.362392 0.362392 0.588548
O O7 0.271053 0.362678 0.548194
O O8 0.193130 0.926476 0.376157
O O9 0.102764 0.886408 0.250000
O O10 0.177829 0.000000 0.250000
O O11 0.668489 0.834245 0.500000
O O12 0.718472 0.925345 0.375370
O O13 0.194260 0.000000 0.750000
#
# Coordination Sequence:
#
# PCOD9588902 Si02
#       5
#    24  24  12  24  12
#     4   9  17  28  41  60  85 112 144 178 208 236
#     4  10  18  28  44  61  81 113 148 180 216 260
#     4  10  18  32  48  61  81 113 145 179 227 289
#     4  10  20  31  44  63  87 114 145 183 228 279
#     4  10  20  30  44  65  87 107 139 187 233 279
#
# _framework density 14.052851
#
# number of rings (size 3 to 8) (size 9 to 14) (size 15 to 20)
#    0.000    2.250    1.250    3.000    1.750    3.000 
#    0.000    0.000    0.000    0.250    0.000    0.000 
#    0.000    6.000    0.000    0.750    0.000    5.250 
#
# Total GULP energy -534731.069880 kJ/mol
# GULP energy per Si atom -5570.115311 kJ/mol
# Density = 1.402087 g / cm^3
# Si number density = 14.052851 Si / 1000 Ang^3
#
#
#
# Elastic Constant Matrix: (Units=GPa)
#
#
# Indices 1 2 3 4 5 6 
#
# 1 79.5535 34.0803 47.9933 0.0000 0.0000 0.0000
# 2 34.0803 79.5535 47.9933 0.0000 0.0000 0.0000
# 3 47.9933 47.9933 152.7351 0.0000 0.0000 0.0000
# 4 0.0000 0.0000 0.0000 28.4815 0.0000 0.0000
# 5 0.0000 0.0000 0.0000 0.0000 28.4815 0.0000
# 6 0.0000 0.0000 0.0000 0.0000 0.0000 22.7366
#
#
#
# Elastic Compliance Matrix: (Units=1/GPa)
#
#
# Indices 1 2 3 4 5 6 
#
# 1 0.016985 -0.005005 -0.003764 0.000000 0.000000 0.000000
# 2 -0.005005 0.016985 -0.003764 0.000000 0.000000 0.000000
# 3 -0.003764 -0.003764 0.008913 0.000000 0.000000 0.000000
# 4 0.000000 0.000000 0.000000 0.035111 0.000000 0.000000
# 5 0.000000 0.000000 0.000000 0.000000 0.035111 0.000000
# 6 0.000000 0.000000 0.000000 0.000000 0.000000 0.043982
#
#
# Mechanical properties :
#
#
# Convention : Reuss Voigt Hill
#
# Bulk Modulus (GPa) = 56.13136 63.55290 59.84213
# Shear Modulus (GPa) = 26.58244 28.05827 27.32035
#
# Velocity S-wave (km/s) = 4.35398 4.47321 4.41399
# Velocity P-wave (km/s) = 8.08121 8.48539 8.28576
#
# Compressibility (1/GPa) = 0.01781535
#
# Stress axis : x y z
#
# Youngs Moduli (GPa) = 58.87377 58.87377 112.19506
#
# Poissons Ratio (x) = 0.29469 0.42235
# Poissons Ratio (y) = 0.29469 0.42235
# Poissons Ratio (z) = 0.22163 0.22163
#
# Static dielectric constant tensor:
#      x y z
#    x 1.447480 0.000000 0.000000 
#    y 0.000000 1.447480 0.000000 
#    z 0.000000 0.000000 1.468270 
# 
# From -- ./inp_files/1242.got.cif
#   From: 2010.05.17/outbox.cif.g08.bks.cpg/sg193_1_cif.got.tgz:1242.got - 2010.05.20 12:33:02.
