data_PCOD9588536
_publ_section_title
;
Structure prediction by ZEFSAII (Michael W. Deem and Ramdas Pophale) SiO2 
 PCOD9588536
Probable space group: P 6/M C C
;
_chemical_formula_sum "Si O2"
_cell_formula_units_Z 144
_cell_length_a 22.782570
_cell_length_b 22.782570
_cell_length_c 14.931023
_cell_angle_alpha 90.000000
_cell_angle_beta 90.000000
_cell_angle_gamma 120.000000
_cell_volume 6711.593161
_symmetry_space_group_name_H-M "P 6/M C C"
_symmetry_group_IT_number 192
_symmetry_cell_setting 'hexagonal'
loop_
_space_group_symop_operation_xyz
x,y,z
x-y,x,z
-y,x-y,z
-x,-y,z
-x+y,-x,z
y,-x+y,z
x-y,-y,1/2-z
-x,-x+y,1/2-z
y,x,1/2-z
-y,-x,1/2-z
-x+y,y,1/2-z
x,x-y,1/2-z
-x,-y,-z
-x+y,-x,-z
y,-x+y,-z
x,y,-z
x-y,x,-z
-y,x-y,-z
-x+y,y,1/2+z
x,x-y,1/2+z
-y,-x,1/2+z
y,x,1/2+z
x-y,-y,1/2+z
-x,-x+y,1/2+z
loop_
_atom_site_type_symbol
_atom_site_label
_atom_site_fract_x
_atom_site_fract_y
_atom_site_fract_z
Si Si1 0.077825 0.922175 0.640501
Si Si2 0.685441 0.608796 0.105800
Si Si3 0.666451 0.197800 0.609577
Si Si4 0.310249 0.155125 0.142963
Si Si5 0.333549 0.802200 0.890423
Si Si6 0.608796 0.685441 0.894200
O O1 0.078028 0.921973 0.750000
O O2 0.116559 0.883441 0.610089
O O3 0.000000 0.883372 0.611991
O O4 0.662544 0.533918 0.141279
O O5 0.766604 0.651884 0.115268
O O6 0.648248 0.648248 0.142702
O O7 0.671136 0.600479 0.000000
O O8 0.667254 0.197578 0.500000
O O9 0.601692 0.203384 0.637037
O O10 0.736870 0.263130 0.637647
O O11 0.308755 0.154378 0.250000
O O12 0.348116 0.233397 0.115267
O O13 0.337456 0.871374 0.858721
O O14 0.332746 0.802422 0.000000
O O15 0.600479 0.671135 0.000000
#
# Coordination Sequence:
#
# PCOD9588536 Si02
#       6
#    24  24  24  24  24  24
#     4   9  17  29  46  69  96 126 164 214 266 309
#     4  10  20  34  53  78 109 141 174 218 272 326
#     4   9  16  28  49  78 109 136 169 216 267 317
#     4  11  21  34  53  76 106 142 184 224 261 315
#     4   9  16  28  49  78 109 136 169 216 267 317
#     4  10  20  34  53  78 109 141 174 218 272 326
#
# _framework density 21.455411999999999
#
# number of rings (size 3 to 8) (size 9 to 14) (size 15 to 20)
#    0.000    2.333    1.667    2.000    0.000    4.667 
#    0.000    3.333    0.000    1.000    0.000    2.333 
#    0.000    8.000    0.000    0.000    0.000    0.000 
#
# Total GULP energy -804527.122408 kJ/mol
# GULP energy per Si atom -5586.993906 kJ/mol
# Density = 2.140658 g / cm^3
# Si number density = 21.455412 Si / 1000 Ang^3
#
#
#
# Elastic Constant Matrix: (Units=GPa)
#
#
# Indices 1 2 3 4 5 6 
#
# 1 241.5238 63.4249 3.0249 0.0000 0.0000 0.0000
# 2 63.4249 241.5238 3.0249 0.0000 0.0000 0.0000
# 3 3.0249 3.0249 63.3553 0.0000 0.0000 0.0000
# 4 0.0000 0.0000 0.0000-1054.9651 -0.0002 0.0000
# 5 0.0000 0.0000 0.0000 -0.0002-1054.9649 0.0000
# 6 0.0000 0.0000 0.0000 0.0000 0.0000 89.0494
#
#
#
# Elastic Compliance Matrix: (Units=1/GPa)
#
#
# Indices 1 2 3 4 5 6 
#
# 1 0.004449 -0.001166 -0.000157 0.000000 0.000000 0.000000
# 2 -0.001166 0.004449 -0.000157 0.000000 0.000000 0.000000
# 3 -0.000157 -0.000157 0.015799 0.000000 0.000000 0.000000
# 4 0.000000 0.000000 0.000000 -0.000948 0.000000 0.000000
# 5 0.000000 0.000000 0.000000 0.000000 -0.000948 0.000000
# 6 0.000000 0.000000 0.000000 0.000000 0.000000 0.011230
#
#
# Mechanical properties :
#
#
# Convention : Reuss Voigt Hill
#
# Bulk Modulus (GPa) = 46.00494 76.15026 61.07760
# Shear Modulus (GPa) = 113.03251 -372.38090 -129.67419
#
# Velocity S-wave (km/s) = 7.26615 -13.18852 -7.78268
# Velocity P-wave (km/s) = 9.58564 14.01238 7.22711
#
# Compressibility (1/GPa) = 0.02173679
#
# Stress axis : x y z
#
# Youngs Moduli (GPa) = 224.78962 224.78962 63.29530
#
# Poissons Ratio (x) = 0.26216 0.00992
# Poissons Ratio (y) = 0.26216 0.00992
# Poissons Ratio (z) = 0.03523 0.03523
#
# Static dielectric constant tensor:
#      x y z
#    x 1.733450 0.000000 0.000000 
#    y 0.000000 1.733450 0.000000 
#    z 0.000000 0.000000 1.823800 
# 
# From -- ./inp_files/5094.got.cif
#   From: 2010.05.17/outbox.cif.g08.bks.cpg/sg192_3_cif.got.tgz:5094.got - 2010.05.20 12:28:01.
