data_PCOD9588117
_publ_section_title
;
Structure prediction by ZEFSAII (Michael W. Deem and Ramdas Pophale) SiO2 
 PCOD9588117
Probable space group: P 6/M M M
;
_chemical_formula_sum "Si O2"
_cell_formula_units_Z 144
_cell_length_a 32.231655
_cell_length_b 32.231655
_cell_length_c 8.961305
_cell_angle_alpha 90.000000
_cell_angle_beta 90.000000
_cell_angle_gamma 120.000000
_cell_volume 8062.451260
_symmetry_space_group_name_H-M "P 6/M M M"
_symmetry_group_IT_number 191
_symmetry_cell_setting 'hexagonal'
loop_
_space_group_symop_operation_xyz
x,y,z
x-y,x,z
-y,x-y,z
-x,-y,z
-x+y,-x,z
y,-x+y,z
x-y,-y,-z
-x,-x+y,-z
y,x,-z
-y,-x,-z
-x+y,y,-z
x,x-y,-z
-x,-y,-z
-x+y,-x,-z
y,-x+y,-z
x,y,-z
x-y,x,-z
-y,x-y,-z
-x+y,y,z
x,x-y,z
-y,-x,z
y,x,z
x-y,-y,z
-x,-x+y,z
loop_
_atom_site_type_symbol
_atom_site_label
_atom_site_fract_x
_atom_site_fract_y
_atom_site_fract_z
Si Si1 0.760366 0.616891 0.320411
Si Si2 0.945255 0.707012 0.821494
Si Si3 0.945909 0.797580 0.679113
Si Si4 0.666765 0.429736 0.820071
Si Si5 0.854351 0.519255 0.678355
Si Si6 0.945267 0.521768 0.178883
O O1 0.761450 0.622130 0.500000
O O2 0.810882 0.621763 0.274025
O O3 0.752645 0.657658 0.247323
O O4 0.716353 0.564731 0.282582
O O5 0.937495 0.749446 0.758398
O O6 0.000000 0.722267 0.781367
O O7 0.941576 0.705521 0.000000
O O8 0.943381 0.789794 0.500000
O O9 0.904534 0.809067 0.720698
O O10 0.000000 0.838467 0.714953
O O11 0.716609 0.433217 0.774452
O O12 0.621793 0.378208 0.780385
O O13 0.660725 0.471724 0.748781
O O14 0.667123 0.434018 0.000000
O O15 0.853156 0.514763 0.500000
O O16 0.904690 0.527455 0.739535
O O17 0.938865 0.469433 0.209904
O O18 0.000000 0.560313 0.220397
O O19 0.940753 0.524788 0.000000
#
# Coordination Sequence:
#
# PCOD9588117 Si02
#       6
#    24  24  24  24  24  24
#     4  10  22  39  55  72 101 141 178 210 249 302
#     4  10  21  35  52  77 105 130 163 212 263 306
#     4   9  17  30  49  72  99 133 171 209 252 304
#     4  10  21  38  60  84 110 141 178 219 263 313
#     4  11  23  37  55  81 112 143 176 217 264 314
#     4   9  19  37  59  81 107 141 180 221 265 312
#
# _framework density 17.860572999999999
#
# number of rings (size 3 to 8) (size 9 to 14) (size 15 to 20)
#    0.000    2.167    0.000    3.167    0.000   10.333 
#    0.000    4.167    0.000    1.167    0.000    1.167 
#    0.000    0.000    0.000    4.167    0.000    4.333 
#
# Total GULP energy -804054.274035 kJ/mol
# GULP energy per Si atom -5583.710236 kJ/mol
# Density = 1.781992 g / cm^3
# Si number density = 17.860573 Si / 1000 Ang^3
#
#
#
# Elastic Constant Matrix: (Units=GPa)
#
#
# Indices 1 2 3 4 5 6 
#
# 1 117.3951 62.7929 36.0939 0.0000 0.0000 0.0000
# 2 62.7929 117.3951 36.0939 0.0000 0.0000 0.0000
# 3 36.0939 36.0939 18.6495 0.0000 0.0000 0.0000
# 4 0.0000 0.0000 0.0000 23.9374 0.0000 0.0000
# 5 0.0000 0.0000 0.0000 0.0000 23.9374 0.0000
# 6 0.0000 0.0000 0.0000 0.0000 0.0000 27.3011
#
#
#
# Elastic Compliance Matrix: (Units=1/GPa)
#
#
# Indices 1 2 3 4 5 6 
#
# 1 0.021510 0.003196 -0.047814 0.000000 0.000000 0.000000
# 2 0.003196 0.021510 -0.047814 0.000000 0.000000 0.000000
# 3 -0.047814 -0.047814 0.238699 0.000000 0.000000 0.000000
# 4 0.000000 0.000000 0.000000 0.041776 0.000000 0.000000
# 5 0.000000 0.000000 0.000000 0.000000 0.041776 0.000000
# 6 0.000000 0.000000 0.000000 0.000000 0.000000 0.036629
#
#
# Mechanical properties :
#
#
# Convention : Reuss Voigt Hill
#
# Bulk Modulus (GPa) = 10.32502 58.15567 34.24034
# Shear Modulus (GPa) = 8.07691 22.93245 15.50468
#
# Velocity S-wave (km/s) = 2.12885 3.58714 2.94954
# Velocity P-wave (km/s) = 3.44037 7.05609 5.55088
#
# Compressibility (1/GPa) = 0.09685216
#
# Stress axis : x y z
#
# Youngs Moduli (GPa) = 46.49038 46.49038 4.18938
#
# Poissons Ratio (x) = -0.14856 0.20031
# Poissons Ratio (y) = -0.14856 0.20031
# Poissons Ratio (z) = 2.22291 2.22291
#
# Static dielectric constant tensor:
#      x y z
#    x 1.591590 0.000000 0.000000 
#    y 0.000000 1.591590 0.000000 
#    z 0.000000 0.000000 1.596960 
# 
# From -- ./inp_files/1931.got.cif
#   From: 2010.05.17/outbox.cif.g08.bks.cpg/sg191_1_cif.got.tgz:1931.got - 2010.05.20 12:20:32.
