data_PCOD9588553
_publ_section_title
;
Structure prediction by ZEFSAII (Michael W. Deem and Ramdas Pophale) SiO2 
 PCOD9588553
Probable space group: P 6/M C C
;
_chemical_formula_sum "Si O2"
_cell_formula_units_Z 144
_cell_length_a 33.198689
_cell_length_b 33.198689
_cell_length_c 8.613699
_cell_angle_alpha 90.000000
_cell_angle_beta 90.000000
_cell_angle_gamma 120.000000
_cell_volume 8221.710703
_symmetry_space_group_name_H-M "P 6/M C C"
_symmetry_group_IT_number 192
_symmetry_cell_setting 'hexagonal'
loop_
_space_group_symop_operation_xyz
x,y,z
x-y,x,z
-y,x-y,z
-x,-y,z
-x+y,-x,z
y,-x+y,z
x-y,-y,1/2-z
-x,-x+y,1/2-z
y,x,1/2-z
-y,-x,1/2-z
-x+y,y,1/2-z
x,x-y,1/2-z
-x,-y,-z
-x+y,-x,-z
y,-x+y,-z
x,y,-z
x-y,x,-z
-y,x-y,-z
-x+y,y,1/2+z
x,x-y,1/2+z
-y,-x,1/2+z
y,x,1/2+z
x-y,-y,1/2+z
-x,-x+y,1/2+z
loop_
_atom_site_type_symbol
_atom_site_label
_atom_site_fract_x
_atom_site_fract_y
_atom_site_fract_z
Si Si1 0.618387 0.719059 0.313061
Si Si2 0.948465 0.808818 0.314152
Si Si3 0.949271 0.384346 0.314283
Si Si4 0.228398 0.279940 0.685768
Si Si5 0.861433 0.474615 0.686803
Si Si6 0.474052 0.280815 0.686146
O O1 0.621320 0.719095 0.500000
O O2 0.600730 0.667015 0.251586
O O3 0.668102 0.754325 0.242057
O O4 0.577602 0.729875 0.267719
O O5 0.910032 0.820063 0.250000
O O6 0.949119 0.809172 0.500000
O O7 0.936380 0.757849 0.253698
O O8 0.000000 0.843589 0.250000
O O9 0.949453 0.383333 0.500000
O O10 0.910691 0.396346 0.253923
O O11 0.000000 0.419773 0.250000
O O12 0.264191 0.264191 0.750000
O O13 0.227115 0.277130 0.500000
O O14 0.849914 0.424957 0.750000
O O15 0.864224 0.475616 0.500000
O O16 0.824412 0.490526 0.734213
O O17 0.484633 0.242317 0.750000
O O18 0.474646 0.279616 0.500000
#
# Coordination Sequence:
#
# PCOD9588553 Si02
#       6
#    24  24  24  24  24  24
#     4  10  20  35  51  74 108 146 186 229 268 312
#     4  11  22  39  60  84 111 143 180 223 272 326
#     4  11  21  34  52  76 106 144 184 225 266 311
#     4  11  21  34  52  77 108 147 189 230 272 317
#     4  10  21  38  57  81 107 136 172 215 263 317
#     4   9  20  36  56  79 106 135 170 212 260 313
#
# _framework density 17.514603000000001
#
# number of rings (size 3 to 8) (size 9 to 14) (size 15 to 20)
#    0.000    1.667    0.000    8.000    0.000    5.000 
#    0.000    3.333    0.000    0.500    0.000    1.167 
#    0.000    0.000    0.000    0.000    0.000    0.000 
#
# Total GULP energy -804593.598795 kJ/mol
# GULP energy per Si atom -5587.455547 kJ/mol
# Density = 1.747474 g / cm^3
# Si number density = 17.514603 Si / 1000 Ang^3
#
#
#
# Elastic Constant Matrix: (Units=GPa)
#
#
# Indices 1 2 3 4 5 6 
#
# 1 117.8208 103.6725 52.5381 0.0000 0.0000 0.0000
# 2 103.6725 117.8208 52.5381 0.0000 0.0000 0.0000
# 3 52.5381 52.5381 134.6886 0.0000 0.0000 0.0000
# 4 0.0000 0.0000 0.0000 31.9391 0.0000 0.0000
# 5 0.0000 0.0000 0.0000 0.0000 31.9391 0.0000
# 6 0.0000 0.0000 0.0000 0.0000 0.0000 7.0742
#
#
#
# Elastic Compliance Matrix: (Units=1/GPa)
#
#
# Indices 1 2 3 4 5 6 
#
# 1 0.038110 -0.032570 -0.002161 0.000000 0.000000 0.000000
# 2 -0.032570 0.038110 -0.002161 0.000000 0.000000 0.000000
# 3 -0.002161 -0.002161 0.009110 0.000000 0.000000 0.000000
# 4 0.000000 0.000000 0.000000 0.031310 0.000000 0.000000
# 5 0.000000 0.000000 0.000000 0.000000 0.031310 0.000000
# 6 0.000000 0.000000 0.000000 0.000000 0.000000 0.141360
#
#
# Mechanical properties :
#
#
# Convention : Reuss Voigt Hill
#
# Bulk Modulus (GPa) = 86.60688 87.53640 87.07164
# Shear Modulus (GPa) = 13.62615 24.96256 19.29436
#
# Velocity S-wave (km/s) = 2.79227 3.77933 3.32266
# Velocity P-wave (km/s) = 7.74283 8.31457 8.03379
#
# Compressibility (1/GPa) = 0.01154643
#
# Stress axis : x y z
#
# Youngs Moduli (GPa) = 26.23991 26.23991 109.76455
#
# Poissons Ratio (x) = 0.85463 0.23720
# Poissons Ratio (y) = 0.85463 0.23720
# Poissons Ratio (z) = 0.05670 0.05670
#
# Static dielectric constant tensor:
#      x y z
#    x 1.583340 0.000000 0.000000 
#    y 0.000000 1.583340 0.000000 
#    z 0.000000 0.000000 1.584550 
# 
# From -- ./inp_files/1213.got.cif
#   From: 2010.05.17/outbox.cif.g08.bks.cpg/sg192_1_cif.got.tgz:1213.got - 2010.05.20 12:28:01.
