data_PCOD9588995
_publ_section_title
;
Structure prediction by ZEFSAII (Michael W. Deem and Ramdas Pophale) SiO2 
 PCOD9588995
Probable space group: P 63/M C M
;
_chemical_formula_sum "Si O2"
_cell_formula_units_Z 108
_cell_length_a 18.086111
_cell_length_b 18.086111
_cell_length_c 22.584423
_cell_angle_alpha 90.000000
_cell_angle_beta 90.000000
_cell_angle_gamma 120.000000
_cell_volume 6397.790503
_symmetry_space_group_name_H-M "P 63/M C M"
_symmetry_group_IT_number 193
_symmetry_cell_setting 'hexagonal'
loop_
_space_group_symop_operation_xyz
x,y,z
x-y,x,1/2+z
-y,x-y,z
-x,-y,1/2+z
-x+y,-x,z
y,-x+y,1/2+z
x-y,-y,1/2-z
-x,-x+y,1/2-z
y,x,1/2-z
-y,-x,-z
-x+y,y,-z
x,x-y,-z
-x,-y,-z
-x+y,-x,1/2-z
y,-x+y,-z
x,y,1/2-z
x-y,x,-z
-y,x-y,1/2-z
-x+y,y,1/2+z
x,x-y,1/2+z
-y,-x,1/2+z
y,x,z
x-y,-y,z
-x,-x+y,z
loop_
_atom_site_type_symbol
_atom_site_label
_atom_site_fract_x
_atom_site_fract_y
_atom_site_fract_z
Si Si1 0.480553 0.103905 0.421115
Si Si2 0.354543 0.457964 0.446220
Si Si3 0.899497 0.695850 0.385056
Si Si4 0.368606 0.102546 0.182594
Si Si5 0.899215 0.100786 0.500000
O O1 0.463070 0.131337 0.485356
O O2 0.580313 0.132001 0.421290
O O3 0.443641 0.129706 0.365713
O O4 0.428715 0.000000 0.420683
O O5 0.409214 0.409214 0.448823
O O6 0.274977 0.398372 0.405986
O O7 0.833013 0.685486 0.334998
O O8 0.886774 0.741274 0.442507
O O9 0.000000 0.749143 0.368922
O O10 0.399942 0.122676 0.250000
O O11 0.309060 0.000000 0.177854
O O12 0.000000 0.144036 0.489554
#
# Coordination Sequence:
#
# PCOD9588995 Si02
#       5
#    24  24  24  24  12
#     4   8  14  27  47  70  93 115 143 182 233 294
#     4   8  14  26  47  73  96 114 138 185 246 299
#     4  10  19  30  47  72  99 128 166 213 261 301
#     4  10  20  33  48  66  93 132 173 208 244 294
#     4  10  19  30  46  70 102 138 176 222 273 318
#
# _framework density 16.880827
#
# number of rings (size 3 to 8) (size 9 to 14) (size 15 to 20)
#    0.000    2.889    0.000    3.444    0.000    4.000 
#    0.000    1.111    0.000    5.333    0.000    3.111 
#    0.000    0.000    0.000    0.000    0.000    0.000 
#
# Total GULP energy -601661.494545 kJ/mol
# GULP energy per Si atom -5570.939764 kJ/mol
# Density = 1.684241 g / cm^3
# Si number density = 16.880827 Si / 1000 Ang^3
#
#
#
# Elastic Constant Matrix: (Units=GPa)
#
#
# Indices 1 2 3 4 5 6 
#
# 1 55.4761 22.2468 39.0850 0.0000 0.0000 0.0000
# 2 22.2468 55.4761 39.0850 0.0000 0.0000 0.0000
# 3 39.0850 39.0850 93.9687 0.0000 0.0000 0.0000
# 4 0.0000 0.0000 0.0000 20.4335 0.0000 0.0000
# 5 0.0000 0.0000 0.0000 0.0000 20.4335 0.0000
# 6 0.0000 0.0000 0.0000 0.0000 0.0000 16.6146
#
#
#
# Elastic Compliance Matrix: (Units=1/GPa)
#
#
# Indices 1 2 3 4 5 6 
#
# 1 0.026107 -0.003987 -0.009200 0.000000 0.000000 0.000000
# 2 -0.003987 0.026107 -0.009200 0.000000 0.000000 0.000000
# 3 -0.009200 -0.009200 0.018295 0.000000 0.000000 0.000000
# 4 0.000000 0.000000 0.000000 0.048939 0.000000 0.000000
# 5 0.000000 0.000000 0.000000 0.000000 0.048939 0.000000
# 6 0.000000 0.000000 0.000000 0.000000 0.000000 0.060188
#
#
# Mechanical properties :
#
#
# Convention : Reuss Voigt Hill
#
# Bulk Modulus (GPa) = 38.86054 45.08385 41.97220
# Shear Modulus (GPa) = 17.73500 18.46326 18.09913
#
# Velocity S-wave (km/s) = 3.24481 3.31076 3.27795
# Velocity P-wave (km/s) = 6.09171 6.43273 6.26454
#
# Compressibility (1/GPa) = 0.02573304
#
# Stress axis : x y z
#
# Youngs Moduli (GPa) = 38.30434 38.30434 54.65886
#
# Poissons Ratio (x) = 0.15273 0.50288
# Poissons Ratio (y) = 0.15273 0.50288
# Poissons Ratio (z) = 0.35241 0.35241
#
# Static dielectric constant tensor:
#      x y z
#    x 1.576710 0.000000 0.000000 
#    y 0.000000 1.576710 0.000000 
#    z 0.000000 0.000000 1.551850 
# 
# From -- ./inp_files/6268.got.cif
#   From: 2010.05.17/outbox.cif.g08.bks.cpg/sg193_4_cif.got.tgz:6268.got - 2010.05.20 12:33:02.
