data_PCOD9588153
_publ_section_title
;
Structure prediction by ZEFSAII (Michael W. Deem and Ramdas Pophale) SiO2 
 PCOD9588153
Probable space group: P 6/M M M
;
_chemical_formula_sum "Si O2"
_cell_formula_units_Z 144
_cell_length_a 21.646328
_cell_length_b 21.646328
_cell_length_c 20.037984
_cell_angle_alpha 90.000000
_cell_angle_beta 90.000000
_cell_angle_gamma 120.000000
_cell_volume 8131.171609
_symmetry_space_group_name_H-M "P 6/M M M"
_symmetry_group_IT_number 191
_symmetry_cell_setting 'hexagonal'
loop_
_space_group_symop_operation_xyz
x,y,z
x-y,x,z
-y,x-y,z
-x,-y,z
-x+y,-x,z
y,-x+y,z
x-y,-y,-z
-x,-x+y,-z
y,x,-z
-y,-x,-z
-x+y,y,-z
x,x-y,-z
-x,-y,-z
-x+y,-x,-z
y,-x+y,-z
x,y,-z
x-y,x,-z
-y,x-y,-z
-x+y,y,z
x,x-y,z
-y,-x,z
y,x,z
x-y,-y,z
-x,-x+y,z
loop_
_atom_site_type_symbol
_atom_site_label
_atom_site_fract_x
_atom_site_fract_y
_atom_site_fract_z
Si Si1 0.298829 0.219710 0.893881
Si Si2 0.443396 0.081539 0.923892
Si Si3 0.473706 0.809646 0.807921
Si Si4 0.078040 0.782336 0.732917
Si Si5 0.561403 0.644027 0.689843
Si Si6 0.191084 0.524083 0.579203
O O1 0.287857 0.143929 0.914921
O O2 0.235641 0.235641 0.910691
O O3 0.371070 0.285055 0.922184
O O4 0.307546 0.224797 0.813176
O O5 0.496631 0.142315 0.874342
O O6 0.418497 0.000000 0.902247
O O7 0.468999 0.090764 0.000000
O O8 0.389379 0.778757 0.803944
O O9 0.492085 0.746043 0.805980
O O10 0.510400 0.865654 0.747733
O O11 0.142249 0.857752 0.712008
O O12 0.083519 0.718318 0.699487
O O13 0.000000 0.769788 0.718777
O O14 0.582448 0.582448 0.695549
O O15 0.524706 0.644824 0.620861
O O16 0.180433 0.510303 0.500000
O O17 0.256321 0.512642 0.601099
O O18 0.212097 0.606049 0.590041
#
# Coordination Sequence:
#
# PCOD9588153 Si02
#       6
#    24  24  24  24  24  24
#     4   9  16  28  47  71  98 128 164 206 252 302
#     4  10  21  37  57  80 103 129 166 216 272 321
#     4  12  25  40  57  77 104 138 176 216 260 315
#     4   9  16  28  48  73 100 130 166 208 253 302
#     4  11  22  36  56  81 107 137 175 221 271 316
#     4  10  21  37  57  80 108 143 181 219 260 311
#
# _framework density 17.709626
#
# number of rings (size 3 to 8) (size 9 to 14) (size 15 to 20)
#    0.000    1.833    1.667    3.333    0.000    5.000 
#    0.000    3.333    0.000    1.333    0.000    2.333 
#    0.000    0.000    0.000    4.167    0.000    4.333 
#
# Total GULP energy -803986.496680 kJ/mol
# GULP energy per Si atom -5583.239560 kJ/mol
# Density = 1.766932 g / cm^3
# Si number density = 17.709626 Si / 1000 Ang^3
#
#
#
# Elastic Constant Matrix: (Units=GPa)
#
#
# Indices 1 2 3 4 5 6 
#
# 1 92.6721 49.7549 31.8180 0.0000 0.0000 0.0000
# 2 49.7549 92.6721 31.8180 0.0000 0.0000 0.0000
# 3 31.8180 31.8180 51.5458 0.0000 0.0000 0.0000
# 4 0.0000 0.0000 0.0000 94.9042 0.0000 0.0000
# 5 0.0000 0.0000 0.0000 0.0000 94.9042 0.0000
# 6 0.0000 0.0000 0.0000 0.0000 0.0000 21.4586
#
#
#
# Elastic Compliance Matrix: (Units=1/GPa)
#
#
# Indices 1 2 3 4 5 6 
#
# 1 0.016498 -0.006803 -0.005984 0.000000 0.000000 0.000000
# 2 -0.006803 0.016498 -0.005984 0.000000 0.000000 0.000000
# 3 -0.005984 -0.005984 0.026788 0.000000 0.000000 0.000000
# 4 0.000000 0.000000 0.000000 0.010537 0.000000 0.000000
# 5 0.000000 0.000000 0.000000 0.000000 0.010537 0.000000
# 6 0.000000 0.000000 0.000000 0.000000 0.000000 0.046601
#
#
# Mechanical properties :
#
#
# Convention : Reuss Voigt Hill
#
# Bulk Modulus (GPa) = 44.96315 51.51906 48.24111
# Shear Modulus (GPa) = 28.99955 50.48666 39.74310
#
# Velocity S-wave (km/s) = 4.05100 5.34508 4.74239
# Velocity P-wave (km/s) = 6.87932 8.20045 7.56876
#
# Compressibility (1/GPa) = 0.02224043
#
# Stress axis : x y z
#
# Youngs Moduli (GPa) = 60.61398 60.61398 37.32961
#
# Poissons Ratio (x) = 0.41235 0.22340
# Poissons Ratio (y) = 0.41235 0.22340
# Poissons Ratio (z) = 0.36274 0.36274
#
# Static dielectric constant tensor:
#      x y z
#    x 1.600940 0.000000 0.000000 
#    y 0.000000 1.600940 0.000000 
#    z 0.000000 0.000000 1.615870 
# 
# From -- ./inp_files/7608.got.cif
#   From: 2010.05.17/outbox.cif.g08.bks.cpg/sg191_4_cif.got.tgz:7608.got - 2010.05.20 12:20:32.
