data_PCOD9588413
_publ_section_title
;
Structure prediction by ZEFSAII (Michael W. Deem and Ramdas Pophale) SiO2 
 PCOD9588413
Probable space group: P 6/M C C
;
_chemical_formula_sum "Si O2"
_cell_formula_units_Z 144
_cell_length_a 31.784368
_cell_length_b 31.784368
_cell_length_c 8.047919
_cell_angle_alpha 90.000000
_cell_angle_beta 90.000000
_cell_angle_gamma 120.000000
_cell_volume 7041.114214
_symmetry_space_group_name_H-M "P 6/M C C"
_symmetry_group_IT_number 192
_symmetry_cell_setting 'hexagonal'
loop_
_space_group_symop_operation_xyz
x,y,z
x-y,x,z
-y,x-y,z
-x,-y,z
-x+y,-x,z
y,-x+y,z
x-y,-y,1/2-z
-x,-x+y,1/2-z
y,x,1/2-z
-y,-x,1/2-z
-x+y,y,1/2-z
x,x-y,1/2-z
-x,-y,-z
-x+y,-x,-z
y,-x+y,-z
x,y,-z
x-y,x,-z
-y,x-y,-z
-x+y,y,1/2+z
x,x-y,1/2+z
-y,-x,1/2+z
y,x,1/2+z
x-y,-y,1/2+z
-x,-x+y,1/2+z
loop_
_atom_site_type_symbol
_atom_site_label
_atom_site_fract_x
_atom_site_fract_y
_atom_site_fract_z
Si Si1 0.635606 0.943201 0.200962
Si Si2 0.804872 0.859284 0.304079
Si Si3 0.432317 0.666911 0.699264
Si Si4 0.529234 0.667372 0.690868
Si Si5 0.803160 0.107437 0.700064
Si Si6 0.478086 0.426506 0.802626
O O1 0.583302 0.898673 0.264865
O O2 0.671455 0.923706 0.253771
O O3 0.658822 0.000000 0.250000
O O4 0.631181 0.942651 0.000000
O O5 0.834280 0.834280 0.250000
O O6 0.828956 0.914478 0.250000
O O7 0.799680 0.856569 0.500000
O O8 0.750481 0.830815 0.230880
O O9 0.384392 0.615609 0.750000
O O10 0.427464 0.713732 0.750000
O O11 0.434090 0.665854 0.500000
O O12 0.484594 0.673484 0.760702
O O13 0.536530 0.685190 0.500000
O O14 0.512110 0.610855 0.701763
O O15 0.836155 0.163846 0.750000
O O16 0.802409 0.106535 0.500000
O O17 0.431580 0.431580 0.750000
O O18 0.523346 0.476655 0.750000
O O19 0.476085 0.418052 0.000000
#
# Coordination Sequence:
#
# PCOD9588413 Si02
#       6
#    24  24  24  24  24  24
#     4  10  21  37  56  82 118 160 204 248 294 348
#     4  10  19  32  51  76 105 138 178 225 276 329
#     4  11  24  43  67  93 121 152 189 239 299 366
#     4  10  22  39  58  83 116 151 189 234 283 339
#     4   9  19  34  53  78 109 146 191 243 295 344
#     4  11  21  34  54  79 109 144 183 225 269 319
#
# _framework density 20.451309999999999
#
# number of rings (size 3 to 8) (size 9 to 14) (size 15 to 20)
#    0.000    1.833    0.000    4.667    0.000    6.667 
#    0.000    0.000    0.000    0.167    0.000    1.167 
#    0.000    0.000    0.000    0.000    0.000    0.000 
#
# Total GULP energy -801656.529880 kJ/mol
# GULP energy per Si atom -5567.059235 kJ/mol
# Density = 2.040476 g / cm^3
# Si number density = 20.451310 Si / 1000 Ang^3
#
#
#
# Elastic Constant Matrix: (Units=GPa)
#
#
# Indices 1 2 3 4 5 6 
#
# 1 104.0581 120.0403 6.5471 0.0000 0.0000 0.0000
# 2 120.0403 104.0581 6.5471 0.0000 0.0000 0.0000
# 3 6.5471 6.5471 42.7876 0.0000 0.0000 0.0000
# 4 0.0000 0.0000 0.0000 13.9212 0.0000 0.0000
# 5 0.0000 0.0000 0.0000 0.0000 13.9212 0.0000
# 6 0.0000 0.0000 0.0000 0.0000 0.0000 -7.9911
#
#
#
# Elastic Compliance Matrix: (Units=1/GPa)
#
#
# Indices 1 2 3 4 5 6 
#
# 1 -0.029033 0.033536 -0.000689 0.000000 0.000000 0.000000
# 2 0.033536 -0.029033 -0.000689 0.000000 0.000000 0.000000
# 3 -0.000689 -0.000689 0.023582 0.000000 0.000000 0.000000
# 4 0.000000 0.000000 0.000000 0.071833 0.000000 0.000000
# 5 0.000000 0.000000 0.000000 0.000000 0.071833 0.000000
# 6 0.000000 0.000000 0.000000 0.000000 0.000000 -0.125139
#
#
# Mechanical properties :
#
#
# Convention : Reuss Voigt Hill
#
# Bulk Modulus (GPa) = 33.52166 57.46363 45.49264
# Shear Modulus (GPa) = -71.09319 11.82155 -29.63582
#
# Velocity S-wave (km/s) = -5.90234 2.40684 -3.81082
# Velocity P-wave (km/s) = 5.47938 5.99021 1.71158
#
# Compressibility (1/GPa) = 0.02983146
#
# Stress axis : x y z
#
# Youngs Moduli (GPa) = -34.44312 -34.44312 42.40501
#
# Poissons Ratio (x) = 1.15508 0.02922
# Poissons Ratio (y) = 1.15508 0.02922
# Poissons Ratio (z) = -0.02373 -0.02373
#
# Static dielectric constant tensor:
#      x y z
#    x 1.778570 0.000000 0.000000 
#    y 0.000000 1.778570 0.000000 
#    z 0.000000 0.000000 1.747360 
# 
# From -- ./inp_files/1201.got.cif
#   From: 2010.05.17/outbox.cif.g08.bks.cpg/sg192_1_cif.got.tgz:1201.got - 2010.05.20 12:28:01.
