data_PCOD9588455
_publ_section_title
;
Structure prediction by ZEFSAII (Michael W. Deem and Ramdas Pophale) SiO2 
 PCOD9588455
Probable space group: P 6/M C C
;
_chemical_formula_sum "Si O2"
_cell_formula_units_Z 72
_cell_length_a 14.767963
_cell_length_b 14.767963
_cell_length_c 16.112381
_cell_angle_alpha 90.000000
_cell_angle_beta 90.000000
_cell_angle_gamma 120.000000
_cell_volume 3043.207361
_symmetry_space_group_name_H-M "P 6/M C C"
_symmetry_group_IT_number 192
_symmetry_cell_setting 'hexagonal'
loop_
_space_group_symop_operation_xyz
x,y,z
x-y,x,z
-y,x-y,z
-x,-y,z
-x+y,-x,z
y,-x+y,z
x-y,-y,1/2-z
-x,-x+y,1/2-z
y,x,1/2-z
-y,-x,1/2-z
-x+y,y,1/2-z
x,x-y,1/2-z
-x,-y,-z
-x+y,-x,-z
y,-x+y,-z
x,y,-z
x-y,x,-z
-y,x-y,-z
-x+y,y,1/2+z
x,x-y,1/2+z
-y,-x,1/2+z
y,x,1/2+z
x-y,-y,1/2+z
-x,-x+y,1/2+z
loop_
_atom_site_type_symbol
_atom_site_label
_atom_site_fract_x
_atom_site_fract_y
_atom_site_fract_z
Si Si1 0.418748 0.535817 0.402806
Si Si2 0.247068 0.440807 0.155416
Si Si3 0.779668 0.809222 0.349472
O O1 0.500000 0.500000 0.374033
O O2 0.437778 0.561381 0.500000
O O3 0.454195 0.643458 0.355111
O O4 0.296676 0.455429 0.390219
O O5 0.210203 0.420406 0.250000
O O6 0.260629 0.342753 0.128331
O O7 0.875977 0.797314 0.379200
O O8 0.792503 0.792503 0.250000
#
# Coordination Sequence:
#
# PCOD9588455 Si02
#       3
#    24  24  24
#     4  11  26  44  64  89 127 174 219 267 324 394
#     4  12  23  40  65  95 128 167 215 275 327 384
#     4  10  19  34  58  94 132 167 196 250 319 389
#
# _framework density 23.65925
#
# number of rings (size 3 to 8) (size 9 to 14) (size 15 to 20)
#    0.000    1.000    3.333    5.000    0.000    2.667 
#    0.000    0.000    0.000    0.000    0.000    0.000 
#    0.000   16.000    0.000    0.000    0.000    0.000 
#
# Total GULP energy -401741.470670 kJ/mol
# GULP energy per Si atom -5579.742648 kJ/mol
# Density = 2.360540 g / cm^3
# Si number density = 23.659250 Si / 1000 Ang^3
#
#
#
# Elastic Constant Matrix: (Units=GPa)
#
#
# Indices 1 2 3 4 5 6 
#
# 1 141.6524 46.8262 8.9629 0.0000 0.0000 0.0000
# 2 46.8262 141.6524 8.9629 0.0000 0.0000 0.0000
# 3 8.9629 8.9629 16.4307 0.0000 0.0000 0.0000
# 4 0.0000 0.0000 0.0000 10.7192 0.0000 0.0000
# 5 0.0000 0.0000 0.0000 0.0000 10.7192 0.0000
# 6 0.0000 0.0000 0.0000 0.0000 0.0000 47.4131
#
#
#
# Elastic Compliance Matrix: (Units=1/GPa)
#
#
# Indices 1 2 3 4 5 6 
#
# 1 0.008071 -0.002475 -0.003053 0.000000 0.000000 0.000000
# 2 -0.002475 0.008071 -0.003053 0.000000 0.000000 0.000000
# 3 -0.003053 -0.003053 0.064192 0.000000 0.000000 0.000000
# 4 0.000000 0.000000 0.000000 0.093290 0.000000 0.000000
# 5 0.000000 0.000000 0.000000 0.000000 0.093290 0.000000
# 6 0.000000 0.000000 0.000000 0.000000 0.000000 0.021091
#
#
# Mechanical properties :
#
#
# Convention : Reuss Voigt Hill
#
# Bulk Modulus (GPa) = 15.82940 47.69330 31.76135
# Shear Modulus (GPa) = 15.32692 29.43586 22.38139
#
# Velocity S-wave (km/s) = 2.54799 3.53109 3.07903
# Velocity P-wave (km/s) = 3.91937 6.06852 5.10825
#
# Compressibility (1/GPa) = 0.06317357
#
# Stress axis : x y z
#
# Youngs Moduli (GPa) = 123.90360 123.90360 15.57826
#
# Poissons Ratio (x) = 0.30664 0.04755
# Poissons Ratio (y) = 0.30664 0.04755
# Poissons Ratio (z) = 0.37823 0.37823
#
# Static dielectric constant tensor:
#      x y z
#    x 1.915080 0.000000 0.000000 
#    y 0.000000 1.915080 0.000000 
#    z 0.000000 0.000000 1.916300 
# 
# From -- ./inp_files/3768.got.cif
#   From: 2010.05.17/outbox.cif.g08.bks.cpg/sg192_2_cif.got.tgz:3768.got - 2010.05.20 12:28:01.
