data_PCOD9588346
_publ_section_title
;
Structure prediction by ZEFSAII (Michael W. Deem and Ramdas Pophale) SiO2 
 PCOD9588346
Probable space group: P 6/M C C
;
_chemical_formula_sum "Si O2"
_cell_formula_units_Z 168
_cell_length_a 19.529901
_cell_length_b 19.529901
_cell_length_c 26.953629
_cell_angle_alpha 90.000000
_cell_angle_beta 90.000000
_cell_angle_gamma 120.000000
_cell_volume 8903.237560
_symmetry_space_group_name_H-M "P 6/M C C"
_symmetry_group_IT_number 192
_symmetry_cell_setting 'hexagonal'
loop_
_space_group_symop_operation_xyz
x,y,z
x-y,x,z
-y,x-y,z
-x,-y,z
-x+y,-x,z
y,-x+y,z
x-y,-y,1/2-z
-x,-x+y,1/2-z
y,x,1/2-z
-y,-x,1/2-z
-x+y,y,1/2-z
x,x-y,1/2-z
-x,-y,-z
-x+y,-x,-z
y,-x+y,-z
x,y,-z
x-y,x,-z
-y,x-y,-z
-x+y,y,1/2+z
x,x-y,1/2+z
-y,-x,1/2+z
y,x,1/2+z
x-y,-y,1/2+z
-x,-x+y,1/2+z
loop_
_atom_site_type_symbol
_atom_site_label
_atom_site_fract_x
_atom_site_fract_y
_atom_site_fract_z
Si Si1 0.708408 0.199884 0.445541
Si Si2 0.372219 0.528872 0.554247
Si Si3 0.717927 0.520869 0.837055
Si Si4 0.163833 0.149284 0.309735
Si Si5 0.592028 0.045040 0.144526
Si Si6 0.954430 0.292284 0.802543
Si Si7 0.438362 0.622023 0.802386
O O1 0.727202 0.178175 0.500000
O O2 0.614742 0.165141 0.444005
O O3 0.756192 0.295498 0.443844
O O4 0.734216 0.180247 0.393248
O O5 0.371221 0.493652 0.500000
O O6 0.368086 0.473528 0.599163
O O7 0.728567 0.591384 0.801055
O O8 0.767655 0.479550 0.820077
O O9 0.629380 0.445183 0.836534
O O10 0.158022 0.067988 0.327946
O O11 0.151855 0.151855 0.250000
O O12 0.252897 0.220099 0.318607
O O13 0.601604 0.093783 0.194980
O O14 0.500000 0.000000 0.132233
O O15 0.629364 0.991512 0.157030
O O16 0.000000 0.322291 0.750000
O O17 0.395188 0.604813 0.750000
#
# Coordination Sequence:
#
# PCOD9588346 Si02
#       7
#    24  24  24  24  24  24  24
#     4  10  18  33  56  84 109 145 198 254 309 358
#     4  10  20  35  57  82 111 147 192 253 310 361
#     4  12  22  42  58  85 118 158 207 262 303 350
#     4   9  19  37  60  88 115 148 193 246 306 368
#     4  12  23  39  54  79 117 158 202 243 297 362
#     4  11  25  40  58  85 119 161 203 246 303 369
#     4  12  25  38  58  82 115 160 206 249 292 345
#
# _framework density 18.869541000000002
#
# number of rings (size 3 to 8) (size 9 to 14) (size 15 to 20)
#    0.000    1.143    4.286    2.000    2.000    2.000 
#    2.571    0.714    0.000    0.000    0.000    0.000 
#    0.000    0.000    0.000    0.857    0.000   14.000 
#
# Total GULP energy -936185.304445 kJ/mol
# GULP energy per Si atom -5572.531574 kJ/mol
# Density = 1.882659 g / cm^3
# Si number density = 18.869541 Si / 1000 Ang^3
#
#
#
# Elastic Constant Matrix: (Units=GPa)
#
#
# Indices 1 2 3 4 5 6 
#
# 1 105.9678 53.6331 24.6524 0.0000 0.0000 0.0000
# 2 53.6331 105.9678 24.6524 0.0000 0.0000 0.0000
# 3 24.6524 24.6524 106.0068 0.0000 0.0000 0.0000
# 4 0.0000 0.0000 0.0000 16.7120 0.0000 0.0000
# 5 0.0000 0.0000 0.0000 0.0000 16.7120 0.0000
# 6 0.0000 0.0000 0.0000 0.0000 0.0000 26.1674
#
#
#
# Elastic Compliance Matrix: (Units=1/GPa)
#
#
# Indices 1 2 3 4 5 6 
#
# 1 0.012929 -0.006179 -0.001570 0.000000 0.000000 0.000000
# 2 -0.006179 0.012929 -0.001570 0.000000 0.000000 0.000000
# 3 -0.001570 -0.001570 0.010164 0.000000 0.000000 0.000000
# 4 0.000000 0.000000 0.000000 0.059837 0.000000 0.000000
# 5 0.000000 0.000000 0.000000 0.000000 0.059837 0.000000
# 6 0.000000 0.000000 0.000000 0.000000 0.000000 0.038216
#
#
# Mechanical properties :
#
#
# Convention : Reuss Voigt Hill
#
# Bulk Modulus (GPa) = 57.52021 58.20202 57.86112
# Shear Modulus (GPa) = 22.89968 26.25191 24.57580
#
# Velocity S-wave (km/s) = 3.48743 3.73397 3.61280
# Velocity P-wave (km/s) = 6.83853 7.03572 6.93783
#
# Compressibility (1/GPa) = 0.01738519
#
# Stress axis : x y z
#
# Youngs Moduli (GPa) = 77.34437 77.34437 98.39109
#
# Poissons Ratio (x) = 0.47788 0.15446
# Poissons Ratio (y) = 0.47788 0.15446
# Poissons Ratio (z) = 0.12142 0.12142
#
# Static dielectric constant tensor:
#      x y z
#    x 1.702080 0.000000 0.000000 
#    y 0.000000 1.702080 0.000000 
#    z 0.000000 0.000000 1.738210 
# 
# From -- ./inp_files/7191.got.cif
#   From: 2010.05.17/outbox.cif.g08.bks.cpg/sg192_4_cif.got.tgz:7191.got - 2010.05.20 12:28:01.
