data_PCOD9588812
_publ_section_title
;
Structure prediction by ZEFSAII (Michael W. Deem and Ramdas Pophale) SiO2 
 PCOD9588812
Probable space group: P 6/M C C
;
_chemical_formula_sum "Si O2"
_cell_formula_units_Z 132
_cell_length_a 17.520825
_cell_length_b 17.520825
_cell_length_c 24.585628
_cell_angle_alpha 90.000000
_cell_angle_beta 90.000000
_cell_angle_gamma 120.000000
_cell_volume 6536.135419
_symmetry_space_group_name_H-M "P 6/M C C"
_symmetry_group_IT_number 192
_symmetry_cell_setting 'hexagonal'
loop_
_space_group_symop_operation_xyz
x,y,z
x-y,x,z
-y,x-y,z
-x,-y,z
-x+y,-x,z
y,-x+y,z
x-y,-y,1/2-z
-x,-x+y,1/2-z
y,x,1/2-z
-y,-x,1/2-z
-x+y,y,1/2-z
x,x-y,1/2-z
-x,-y,-z
-x+y,-x,-z
y,-x+y,-z
x,y,-z
x-y,x,-z
-y,x-y,-z
-x+y,y,1/2+z
x,x-y,1/2+z
-y,-x,1/2+z
y,x,1/2+z
x-y,-y,1/2+z
-x,-x+y,1/2+z
loop_
_atom_site_type_symbol
_atom_site_label
_atom_site_fract_x
_atom_site_fract_y
_atom_site_fract_z
Si Si1 0.159959 0.479078 0.891333
Si Si2 0.019982 0.191081 0.500000
Si Si3 0.162857 0.653588 0.935128
Si Si4 0.505989 0.839661 0.736822
Si Si5 0.684713 0.920535 0.215195
Si Si6 0.313232 0.297064 0.594073
O O1 0.150531 0.561376 0.912730
O O2 0.258548 0.502698 0.908544
O O3 0.149017 0.472658 0.826543
O O4 0.083539 0.381103 0.908861
O O5 0.100859 0.173248 0.500000
O O6 0.024843 0.249315 0.551662
O O7 0.078083 0.662952 0.922373
O O8 0.177247 0.656586 0.000000
O O9 0.427501 0.855001 0.750000
O O10 0.479667 0.739834 0.750000
O O11 0.587601 0.904513 0.773825
O O12 0.677632 0.838816 0.250000
O O13 0.701146 0.947324 0.152025
O O14 0.756249 0.000000 0.250000
#
# Coordination Sequence:
#
# PCOD9588812 Si02
#       6
#    24  12  24  24  24  24
#     4  12  25  44  67  99 144 189 246 302 365 435
#     4  12  29  50  79 106 142 184 232 294 359 436
#     4  12  26  43  66  98 140 195 248 304 364 429
#     4  11  22  39  64  97 137 184 230 285 348 412
#     4  11  24  44  69 102 136 174 223 282 354 426
#     4  12  26  46  74 106 141 186 240 298 365 436
#
# _framework density 20.195421
#
# number of rings (size 3 to 8) (size 9 to 14) (size 15 to 20)
#    0.000    0.364    2.727    7.182    5.091    1.091 
#    0.000    0.000    0.000    0.182    0.000    0.000 
#    0.000    0.000    0.000    0.000    0.000    0.000 
#
# Total GULP energy -737236.887448 kJ/mol
# GULP energy per Si atom -5585.127935 kJ/mol
# Density = 2.014945 g / cm^3
# Si number density = 20.195421 Si / 1000 Ang^3
#
#
#
# Elastic Constant Matrix: (Units=GPa)
#
#
# Indices 1 2 3 4 5 6 
#
# 1 87.0203 31.0579 39.8905 0.0000 0.0000 0.0000
# 2 31.0579 87.0203 39.8905 0.0000 0.0000 0.0000
# 3 39.8905 39.8905 169.9245 0.0000 0.0000 0.0000
# 4 0.0000 0.0000 0.0000 -7.1335 0.0000 0.0000
# 5 0.0000 0.0000 0.0000 0.0000 -7.1335 0.0000
# 6 0.0000 0.0000 0.0000 0.0000 0.0000 27.9812
#
#
#
# Elastic Compliance Matrix: (Units=1/GPa)
#
#
# Indices 1 2 3 4 5 6 
#
# 1 0.013967 -0.003902 -0.002363 0.000000 0.000000 0.000000
# 2 -0.003902 0.013967 -0.002363 0.000000 0.000000 0.000000
# 3 -0.002363 -0.002363 0.006994 0.000000 0.000000 0.000000
# 4 0.000000 0.000000 0.000000 -0.140183 0.000000 0.000000
# 5 0.000000 0.000000 0.000000 0.000000 -0.140183 0.000000
# 6 0.000000 0.000000 0.000000 0.000000 0.000000 0.035738
#
#
# Mechanical properties :
#
#
# Convention : Reuss Voigt Hill
#
# Bulk Modulus (GPa) = 56.58124 62.84920 59.71522
# Shear Modulus (GPa) = -26.80221 18.28456 -4.25882
#
# Velocity S-wave (km/s) = -3.64695 3.01222 -1.45375
# Velocity P-wave (km/s) = 3.21621 6.57921 5.17832
#
# Compressibility (1/GPa) = 0.01767370
#
# Stress axis : x y z
#
# Youngs Moduli (GPa) = 71.59566 71.59566 142.97204
#
# Poissons Ratio (x) = 0.27935 0.33783
# Poissons Ratio (y) = 0.27935 0.33783
# Poissons Ratio (z) = 0.16917 0.16917
#
# Static dielectric constant tensor:
#      x y z
#    x 1.751480 0.000000 0.000000 
#    y 0.000000 1.751480 0.000000 
#    z 0.000000 0.000000 2.127250 
# 
# From -- ./inp_files/5820.got.cif
#   From: 2010.05.17/outbox.cif.g08.bks.cpg/sg192_3_cif.got.tgz:5820.got - 2010.05.20 12:28:01.
