data_PCOD9588351
_publ_section_title
;
Structure prediction by ZEFSAII (Michael W. Deem and Ramdas Pophale) SiO2 
 PCOD9588351
Probable space group: P 6/M C C
;
_chemical_formula_sum "Si O2"
_cell_formula_units_Z 132
_cell_length_a 24.438735
_cell_length_b 24.438735
_cell_length_c 14.532736
_cell_angle_alpha 90.000000
_cell_angle_beta 90.000000
_cell_angle_gamma 120.000000
_cell_volume 7516.842668
_symmetry_space_group_name_H-M "P 6/M C C"
_symmetry_group_IT_number 192
_symmetry_cell_setting 'hexagonal'
loop_
_space_group_symop_operation_xyz
x,y,z
x-y,x,z
-y,x-y,z
-x,-y,z
-x+y,-x,z
y,-x+y,z
x-y,-y,1/2-z
-x,-x+y,1/2-z
y,x,1/2-z
-y,-x,1/2-z
-x+y,y,1/2-z
x,x-y,1/2-z
-x,-y,-z
-x+y,-x,-z
y,-x+y,-z
x,y,-z
x-y,x,-z
-y,x-y,-z
-x+y,y,1/2+z
x,x-y,1/2+z
-y,-x,1/2+z
y,x,1/2+z
x-y,-y,1/2+z
-x,-x+y,1/2+z
loop_
_atom_site_type_symbol
_atom_site_label
_atom_site_fract_x
_atom_site_fract_y
_atom_site_fract_z
Si Si1 0.223200 0.748303 0.000000
Si Si2 0.577817 0.489097 0.660504
Si Si3 0.266442 0.966997 0.000000
Si Si4 0.884038 0.665672 0.500000
Si Si5 0.277003 0.821019 0.815103
Si Si6 0.186234 0.309950 0.338314
Si Si7 0.130926 0.609260 0.000000
Si Si8 0.405913 0.990020 0.000000
O O1 0.156264 0.746663 0.000000
O O2 0.262839 0.789392 0.085409
O O3 0.197248 0.674221 0.000000
O O4 0.533872 0.466129 0.750000
O O5 0.649009 0.515165 0.696665
O O6 0.556257 0.430543 0.590878
O O7 0.577939 0.541803 0.592580
O O8 0.224461 0.936808 0.092989
O O9 0.329621 0.960288 0.000000
O O10 0.298574 0.041690 0.000000
O O11 0.859492 0.683673 0.410203
O O12 0.239166 0.760835 0.750000
O O13 0.241029 0.861390 0.806333
O O14 0.139497 0.278994 0.250000
O O15 0.065780 0.613339 0.000000
#
# Coordination Sequence:
#
# PCOD9588351 Si02
#       8
#    12  24  12  12  24  24  12  12
#     4  10  18  34  53  75  98 123 169 225 263 340
#     4  11  22  37  54  74 101 137 173 212 278 343
#     4  11  18  36  57  79 120 145 183 241 272 324
#     4   9  19  31  54  82 108 149 190 224 277 318
#     4  10  19  34  55  71  92 126 174 216 267 328
#     4   9  19  34  54  80 109 148 189 224 270 327
#     4  11  23  35  54  76 107 132 168 207 281 355
#     4  11  22  38  52  79 108 144 167 217 286 339
#
# _framework density 17.560565
#
# number of rings (size 3 to 8) (size 9 to 14) (size 15 to 20)
#    0.000    1.818    2.727    3.818    0.000    2.182 
#    0.000    1.818    0.000   10.909    0.000    0.000 
#    0.000    0.000    0.000   17.455    0.000   37.818 
#
# Total GULP energy -734875.393956 kJ/mol
# GULP energy per Si atom -5567.237833 kJ/mol
# Density = 1.752060 g / cm^3
# Si number density = 17.560565 Si / 1000 Ang^3
#
#
#
# Elastic Constant Matrix: (Units=GPa)
#
#
# Indices 1 2 3 4 5 6 
#
# 1 62.9158 29.6778 23.4910 0.0000 0.0000 0.0000
# 2 29.6778 62.9158 23.4910 0.0000 0.0000 0.0000
# 3 23.4910 23.4910 96.4814 0.0000 0.0000 0.0000
# 4 0.0000 0.0000 0.0000 -0.7823 0.0000 0.0000
# 5 0.0000 0.0000 0.0000 0.0000 -0.7823 0.0000
# 6 0.0000 0.0000 0.0000 0.0000 0.0000 16.6190
#
#
#
# Elastic Compliance Matrix: (Units=1/GPa)
#
#
# Indices 1 2 3 4 5 6 
#
# 1 0.021204 -0.008882 -0.003000 0.000000 0.000000 0.000000
# 2 -0.008882 0.021204 -0.003000 0.000000 0.000000 0.000000
# 3 -0.003000 -0.003000 0.011826 0.000000 0.000000 0.000000
# 4 0.000000 0.000000 0.000000 -1.278261 0.000000 0.000000
# 5 0.000000 0.000000 0.000000 0.000000 -1.278261 0.000000
# 6 0.000000 0.000000 0.000000 0.000000 0.000000 0.060172
#
#
# Mechanical properties :
#
#
# Convention : Reuss Voigt Hill
#
# Bulk Modulus (GPa) = 40.86753 41.73696 41.30224
# Shear Modulus (GPa) = -2.07970 12.72109 5.32070
#
# Velocity S-wave (km/s) = -1.08944 2.69441 1.74255
# Velocity P-wave (km/s) = 4.66266 5.78782 5.25544
#
# Compressibility (1/GPa) = 0.02446930
#
# Stress axis : x y z
#
# Youngs Moduli (GPa) = 47.16068 47.16068 84.56213
#
# Poissons Ratio (x) = 0.41888 0.25370
# Poissons Ratio (y) = 0.41888 0.25370
# Poissons Ratio (z) = 0.14149 0.14149
#
# Static dielectric constant tensor:
#      x y z
#    x 1.608900 0.000000 0.000000 
#    y 0.000000 1.608900 0.000000 
#    z 0.000000 0.000000 1.625390 
# 
# From -- ./inp_files/3308.got.cif
#   From: 2010.05.17/outbox.cif.g08.bks.cpg/sg192_2_cif.got.tgz:3308.got - 2010.05.20 12:28:01.
