data_PCOD9588577
_publ_section_title
;
Structure prediction by ZEFSAII (Michael W. Deem and Ramdas Pophale) SiO2 
 PCOD9588577
Probable space group: P 6/M C C
;
_chemical_formula_sum "Si O2"
_cell_formula_units_Z 116
_cell_length_a 20.488754
_cell_length_b 20.488754
_cell_length_c 15.428161
_cell_angle_alpha 90.000000
_cell_angle_beta 90.000000
_cell_angle_gamma 120.000000
_cell_volume 5608.876663
_symmetry_space_group_name_H-M "P 6/M C C"
_symmetry_group_IT_number 192
_symmetry_cell_setting 'hexagonal'
loop_
_space_group_symop_operation_xyz
x,y,z
x-y,x,z
-y,x-y,z
-x,-y,z
-x+y,-x,z
y,-x+y,z
x-y,-y,1/2-z
-x,-x+y,1/2-z
y,x,1/2-z
-y,-x,1/2-z
-x+y,y,1/2-z
x,x-y,1/2-z
-x,-y,-z
-x+y,-x,-z
y,-x+y,-z
x,y,-z
x-y,x,-z
-y,x-y,-z
-x+y,y,1/2+z
x,x-y,1/2+z
-y,-x,1/2+z
y,x,1/2+z
x-y,-y,1/2+z
-x,-x+y,1/2+z
loop_
_atom_site_type_symbol
_atom_site_label
_atom_site_fract_x
_atom_site_fract_y
_atom_site_fract_z
Si Si1 0.333334 0.666668 0.601023
Si Si2 0.027852 0.860841 0.403691
Si Si3 0.555700 0.181757 0.842742
Si Si4 0.063354 0.475156 0.098634
Si Si5 0.715243 0.589440 0.246610
Si Si6 0.000000 0.247466 0.750000
O O1 0.333334 0.666668 0.500000
O O2 0.318776 0.732200 0.633422
O O3 0.946921 0.854530 0.396128
O O4 0.033612 0.833986 0.500000
O O5 0.032481 0.811918 0.327327
O O6 0.591403 0.182805 0.750000
O O7 0.584317 0.140060 0.905232
O O8 0.467527 0.133695 0.828798
O O9 0.086788 0.430034 0.169692
O O10 0.000000 0.500000 0.124662
O O11 0.044772 0.442973 0.000000
O O12 0.789890 0.579779 0.250000
O O13 0.741761 0.673653 0.219361
#
# Coordination Sequence:
#
# PCOD9588577 Si02
#       6
#     8  24  24  24  24  12
#     4  12  22  35  58  87 118 146 190 264 331 374
#     4  10  21  39  64  92 121 154 195 245 299 353
#     4  10  20  36  57  81 111 150 196 247 310 378
#     4  10  21  39  63  90 121 159 208 267 328 393
#     4  11  23  39  60  86 121 167 213 258 315 390
#     4  12  24  40  60  88 126 168 210 250 300 368
#
# _framework density 20.681502999999999
#
# number of rings (size 3 to 8) (size 9 to 14) (size 15 to 20)
#    0.000    1.448    0.000    7.034    0.000    4.552 
#    0.000    5.172    0.000    0.000    0.000    0.000 
#    0.000    0.000    0.000    0.000    0.000    0.000 
#
# Total GULP energy -646439.106639 kJ/mol
# GULP energy per Si atom -5572.750919 kJ/mol
# Density = 2.063443 g / cm^3
# Si number density = 20.681503 Si / 1000 Ang^3
#
#
#
# Elastic Constant Matrix: (Units=GPa)
#
#
# Indices 1 2 3 4 5 6 
#
# 1 66.8622 -3.7032 7.9226 -0.0003 0.0001 0.0108
# 2 -3.7032 66.8611 7.9234 0.0004 0.0000 -0.0099
# 3 7.9226 7.9234 51.0098 0.0000 0.0001 -0.0007
# 4 -0.0003 0.0004 0.0000 21.7171 -0.0001 0.0000
# 5 0.0001 0.0000 0.0001 -0.0001 21.7173 0.0004
# 6 0.0108 -0.0099 -0.0007 0.0000 0.0004 35.2687
#
#
#
# Elastic Compliance Matrix: (Units=1/GPa)
#
#
# Indices 1 2 3 4 5 6 
#
# 1 0.015323 0.001152 -0.002559 0.000000 0.000000 -0.000004
# 2 0.001152 0.015323 -0.002559 0.000000 0.000000 0.000004
# 3 -0.002559 -0.002559 0.020399 0.000000 0.000000 0.000000
# 4 0.000000 0.000000 0.000000 0.046047 0.000000 0.000000
# 5 0.000000 0.000000 0.000000 0.000000 0.046046 -0.000001
# 6 -0.000004 0.000004 0.000000 0.000000 -0.000001 0.028354
#
#
# Mechanical properties :
#
#
# Convention : Reuss Voigt Hill
#
# Bulk Modulus (GPa) = 23.19456 23.22429 23.20942
# Shear Modulus (GPa) = 25.80038 27.24663 26.52350
#
# Velocity S-wave (km/s) = 3.53584 3.63359 3.58505
# Velocity P-wave (km/s) = 5.28290 5.37195 5.32761
#
# Compressibility (1/GPa) = 0.04311356
#
# Stress axis : x y z
#
# Youngs Moduli (GPa) = 65.26080 65.25950 49.02196
#
# Poissons Ratio (x) = -0.07517 0.12544
# Poissons Ratio (y) = -0.07518 0.12545
# Poissons Ratio (z) = 0.16699 0.16701
#
# Static dielectric constant tensor:
#      x y z
#    x 1.793560 0.000000 0.000000 
#    y 0.000000 1.793500 0.000000 
#    z 0.000000 0.000000 1.762970 
# 
# From -- ./inp_files/3002.got.cif
#   From: 2010.05.17/outbox.cif.g08.bks.cpg/sg192_2_cif.got.tgz:3002.got - 2010.05.20 12:28:01.
