data_PCOD9588160
_publ_section_title
;
Structure prediction by ZEFSAII (Michael W. Deem and Ramdas Pophale) SiO2 
 PCOD9588160
Probable space group: P 6/M M M
;
_chemical_formula_sum "Si O2"
_cell_formula_units_Z 96
_cell_length_a 29.401729
_cell_length_b 29.401729
_cell_length_c 8.548756
_cell_angle_alpha 90.000000
_cell_angle_beta 90.000000
_cell_angle_gamma 120.000000
_cell_volume 6399.989978
_symmetry_space_group_name_H-M "P 6/M M M"
_symmetry_group_IT_number 191
_symmetry_cell_setting 'hexagonal'
loop_
_space_group_symop_operation_xyz
x,y,z
x-y,x,z
-y,x-y,z
-x,-y,z
-x+y,-x,z
y,-x+y,z
x-y,-y,-z
-x,-x+y,-z
y,x,-z
-y,-x,-z
-x+y,y,-z
x,x-y,-z
-x,-y,-z
-x+y,-x,-z
y,-x+y,-z
x,y,-z
x-y,x,-z
-y,x-y,-z
-x+y,y,z
x,x-y,z
-y,-x,z
y,x,z
x-y,-y,z
-x,-x+y,z
loop_
_atom_site_type_symbol
_atom_site_label
_atom_site_fract_x
_atom_site_fract_y
_atom_site_fract_z
Si Si1 0.936529 0.517164 0.813798
Si Si2 0.897443 0.690164 0.687406
Si Si3 0.893386 0.893386 0.687751
Si Si4 0.207609 0.207609 0.815231
Si Si5 0.061632 0.382346 0.810536
O O1 0.918053 0.459027 0.748257
O O2 0.919759 0.558342 0.753976
O O3 0.000000 0.549293 0.800175
O O4 0.925208 0.510991 0.000000
O O5 0.897687 0.690208 0.500000
O O6 0.843698 0.687396 0.741384
O O7 0.904989 0.642755 0.747837
O O8 0.947858 0.743509 0.745418
O O9 0.948015 0.896030 0.725267
O O10 0.885037 0.885037 0.500000
O O11 0.845474 0.845474 0.774021
O O12 0.215178 0.215178 0.000000
O O13 0.000000 0.345260 0.765686
O O14 0.062800 0.382859 0.000000
#
# Coordination Sequence:
#
# PCOD9588160 Si02
#       5
#    24  24  12  12  24
#     4   7  10  18  35  61  91 118 143 170 199 236
#     4  11  23  36  49  65  87 118 152 185 228 279
#     4  10  21  38  58  76  92 109 129 158 207 276
#     4  12  24  37  53  71  87 107 140 184 229 273
#     4   9  16  27  45  68  90 115 148 183 218 254
#
# _framework density 15.000023000000001
#
# number of rings (size 3 to 8) (size 9 to 14) (size 15 to 20)
#    0.000    2.500    1.250    5.000    0.000    6.000 
#    0.000    0.000    0.000    1.500    0.000    3.500 
#    0.000    0.000    0.000    0.750    0.000   11.500 
#
# Total GULP energy -534817.921391 kJ/mol
# GULP energy per Si atom -5571.020014 kJ/mol
# Density = 1.496588 g / cm^3
# Si number density = 15.000023 Si / 1000 Ang^3
#
#
#
# Elastic Constant Matrix: (Units=GPa)
#
#
# Indices 1 2 3 4 5 6 
#
# 1 101.5691 76.5225 22.7520 0.0000 0.0000 0.0000
# 2 76.5225 101.5691 22.7520 0.0000 0.0000 0.0000
# 3 22.7520 22.7520 18.2979 0.0000 0.0000 0.0000
# 4 0.0000 0.0000 0.0000 23.5714 0.0000 0.0000
# 5 0.0000 0.0000 0.0000 0.0000 23.5714 0.0000
# 6 0.0000 0.0000 0.0000 0.0000 0.0000 12.5233
#
#
#
# Elastic Compliance Matrix: (Units=1/GPa)
#
#
# Indices 1 2 3 4 5 6 
#
# 1 0.024078 -0.015848 -0.010233 0.000000 0.000000 0.000000
# 2 -0.015848 0.024078 -0.010233 0.000000 0.000000 0.000000
# 3 -0.010233 -0.010233 0.080099 0.000000 0.000000 0.000000
# 4 0.000000 0.000000 0.000000 0.042424 0.000000 0.000000
# 5 0.000000 0.000000 0.000000 0.000000 0.042424 0.000000
# 6 0.000000 0.000000 0.000000 0.000000 0.000000 0.079851
#
#
# Mechanical properties :
#
#
# Convention : Reuss Voigt Hill
#
# Bulk Modulus (GPa) = 17.97704 51.72098 34.84901
# Shear Modulus (GPa) = 13.01662 18.56052 15.78857
#
# Velocity S-wave (km/s) = 2.94899 3.52144 3.24785
# Velocity P-wave (km/s) = 4.85861 7.14769 6.11128
#
# Compressibility (1/GPa) = 0.05562651
#
# Stress axis : x y z
#
# Youngs Moduli (GPa) = 41.53224 41.53224 12.48454
#
# Poissons Ratio (x) = 0.65820 0.12775
# Poissons Ratio (y) = 0.65820 0.12775
# Poissons Ratio (z) = 0.42500 0.42500
#
# Static dielectric constant tensor:
#      x y z
#    x 1.506120 0.000000 0.000000 
#    y 0.000000 1.506120 0.000000 
#    z 0.000000 0.000000 1.514790 
# 
# From -- ./inp_files/1606.got.cif
#   From: 2010.05.17/outbox.cif.g08.bks.cpg/sg191_1_cif.got.tgz:1606.got - 2010.05.20 12:20:32.
