data_PCOD9588852
_publ_section_title
;
Structure prediction by ZEFSAII (Michael W. Deem and Ramdas Pophale) SiO2 
 PCOD9588852
Probable space group: P 6/M C C
;
_chemical_formula_sum "Si O2"
_cell_formula_units_Z 192
_cell_length_a 31.347974
_cell_length_b 31.347974
_cell_length_c 14.997405
_cell_angle_alpha 90.000000
_cell_angle_beta 90.000000
_cell_angle_gamma 120.000000
_cell_volume 12763.380222
_symmetry_space_group_name_H-M "P 6/M C C"
_symmetry_group_IT_number 192
_symmetry_cell_setting 'hexagonal'
loop_
_space_group_symop_operation_xyz
x,y,z
x-y,x,z
-y,x-y,z
-x,-y,z
-x+y,-x,z
y,-x+y,z
x-y,-y,1/2-z
-x,-x+y,1/2-z
y,x,1/2-z
-y,-x,1/2-z
-x+y,y,1/2-z
x,x-y,1/2-z
-x,-y,-z
-x+y,-x,-z
y,-x+y,-z
x,y,-z
x-y,x,-z
-y,x-y,-z
-x+y,y,1/2+z
x,x-y,1/2+z
-y,-x,1/2+z
y,x,1/2+z
x-y,-y,1/2+z
-x,-x+y,1/2+z
loop_
_atom_site_type_symbol
_atom_site_label
_atom_site_fract_x
_atom_site_fract_y
_atom_site_fract_z
Si Si1 0.097273 0.296450 0.895063
Si Si2 0.803212 0.803212 0.391426
Si Si3 0.239505 0.375400 0.250000
Si Si4 0.808038 0.512697 0.250000
Si Si5 0.767055 0.433322 0.394496
Si Si6 0.566678 0.333733 0.894496
Si Si7 0.901392 0.000000 0.890972
Si Si8 0.097272 0.296450 0.395063
O O1 0.107595 0.343158 0.836068
O O2 0.144650 0.289299 0.884754
O O3 0.048905 0.246733 0.865179
O O4 0.092749 0.304340 0.000000
O O5 0.804592 0.804592 0.500000
O O6 0.852237 0.852237 0.361456
O O7 0.753267 0.802172 0.365179
O O8 0.188850 0.377700 0.250000
O O9 0.283501 0.431383 0.250000
O O10 0.235563 0.343158 0.163932
O O11 0.757808 0.515616 0.250000
O O12 0.803583 0.480170 0.335954
O O13 0.803583 0.480170 0.164046
O O14 0.776463 0.442488 0.500000
O O15 0.769514 0.384757 0.370923
O O16 0.711872 0.423744 0.377885
O O17 0.557511 0.333974 0.000000
O O18 0.901473 0.950737 0.863000
O O19 0.901194 0.000000 0.000000
O O20 0.092749 0.304340 0.500000
#
# Coordination Sequence:
#
# PCOD9588852 Si02
#       8
#    24  24  24  24  24  24  24  24
#     4   9  17  29  44  61  82 107 134 168 209 249
#     4   9  16  26  41  60  80 106 140 173 208 252
#     4   9  18  30  42  58  79 105 141 177 208 250
#     4   9  17  27  38  54  77 107 144 182 214 244
#     4   9  16  25  38  57  82 113 148 182 211 237
#     4   9  16  25  38  57  82 113 148 182 211 237
#     4   9  15  22  34  55  85 117 146 176 210 249
#     4   9  17  29  44  61  82 107 134 168 209 249
#
# _framework density 15.043037
#
# number of rings (size 3 to 8) (size 9 to 14) (size 15 to 20)
#    0.000    3.000    0.000    1.500    0.000    6.000 
#    0.000    6.250    0.000    0.000    0.000    0.000 
#    0.000    0.000    0.000   18.500    0.000   77.875 
#
# Total GULP energy -1070042.180133 kJ/mol
# GULP energy per Si atom -5573.136355 kJ/mol
# Density = 1.500880 g / cm^3
# Si number density = 15.043037 Si / 1000 Ang^3
#
#
#
# Elastic Constant Matrix: (Units=GPa)
#
#
# Indices 1 2 3 4 5 6 
#
# 1 97.4946 75.7607 49.1908 0.0000 0.0000 0.0000
# 2 75.7607 97.4946 49.1908 0.0000 0.0000 0.0000
# 3 49.1908 49.1908 66.9346 0.0000 0.0000 0.0000
# 4 0.0000 0.0000 0.0000 -2.8503 0.0000 0.0000
# 5 0.0000 0.0000 0.0000 0.0000 -2.8503 0.0000
# 6 0.0000 0.0000 0.0000 0.0000 0.0000 10.8670
#
#
#
# Elastic Compliance Matrix: (Units=1/GPa)
#
#
# Indices 1 2 3 4 5 6 
#
# 1 0.027958 -0.018053 -0.007280 0.000000 0.000000 0.000000
# 2 -0.018053 0.027958 -0.007280 0.000000 0.000000 0.000000
# 3 -0.007280 -0.007280 0.025640 0.000000 0.000000 0.000000
# 4 0.000000 0.000000 0.000000 -0.350842 0.000000 0.000000
# 5 0.000000 0.000000 0.000000 0.000000 -0.350842 0.000000
# 6 0.000000 0.000000 0.000000 0.000000 0.000000 0.092022
#
#
# Mechanical properties :
#
#
# Convention : Reuss Voigt Hill
#
# Bulk Modulus (GPa) = 61.22896 67.80095 64.51495
# Shear Modulus (GPa) = -10.93045 6.88538 -2.02254
#
# Velocity S-wave (km/s) = -2.69850 2.14174 -1.16078
# Velocity P-wave (km/s) = 5.57510 7.16137 6.41743
#
# Compressibility (1/GPa) = 0.01633214
#
# Stress axis : x y z
#
# Youngs Moduli (GPa) = 35.76764 35.76764 39.00197
#
# Poissons Ratio (x) = 0.64570 0.28392
# Poissons Ratio (y) = 0.64570 0.28392
# Poissons Ratio (z) = 0.26038 0.26038
#
# Static dielectric constant tensor:
#      x y z
#    x 1.475600 0.000000 0.000000 
#    y 0.000000 1.475600 0.000000 
#    z 0.000000 0.000000 1.547190 
# 
# From -- ./inp_files/3557.got.cif
#   From: 2010.05.17/outbox.cif.g08.bks.cpg/sg192_2_cif.got.tgz:3557.got - 2010.05.20 12:28:01.
