data_PCOD9588499
_publ_section_title
;
Structure prediction by ZEFSAII (Michael W. Deem and Ramdas Pophale) SiO2 
 PCOD9588499
Probable space group: P 6/M C C
;
_chemical_formula_sum "Si O2"
_cell_formula_units_Z 144
_cell_length_a 32.812008
_cell_length_b 32.812008
_cell_length_c 8.952810
_cell_angle_alpha 90.000000
_cell_angle_beta 90.000000
_cell_angle_gamma 120.000000
_cell_volume 8347.484418
_symmetry_space_group_name_H-M "P 6/M C C"
_symmetry_group_IT_number 192
_symmetry_cell_setting 'hexagonal'
loop_
_space_group_symop_operation_xyz
x,y,z
x-y,x,z
-y,x-y,z
-x,-y,z
-x+y,-x,z
y,-x+y,z
x-y,-y,1/2-z
-x,-x+y,1/2-z
y,x,1/2-z
-y,-x,1/2-z
-x+y,y,1/2-z
x,x-y,1/2-z
-x,-y,-z
-x+y,-x,-z
y,-x+y,-z
x,y,-z
x-y,x,-z
-y,x-y,-z
-x+y,y,1/2+z
x,x-y,1/2+z
-y,-x,1/2+z
y,x,1/2+z
x-y,-y,1/2+z
-x,-x+y,1/2+z
loop_
_atom_site_type_symbol
_atom_site_label
_atom_site_fract_x
_atom_site_fract_y
_atom_site_fract_z
Si Si1 0.440806 0.050471 0.821870
Si Si2 0.472345 0.860017 0.677710
Si Si3 0.189333 0.138399 0.821869
Si Si4 0.383227 0.280378 0.677940
Si Si5 0.893864 0.193927 0.677821
Si Si6 0.278047 0.470448 0.677872
O O1 0.489094 0.090589 0.750081
O O2 0.402262 0.066817 0.792290
O O3 0.423264 0.000000 0.750000
O O4 0.446121 0.049243 0.000000
O O5 0.422386 0.844771 0.750000
O O6 0.470906 0.865599 0.500000
O O7 0.491418 0.823995 0.706302
O O8 0.158877 0.158877 0.750000
O O9 0.178100 0.089050 0.750000
O O10 0.244898 0.174123 0.792650
O O11 0.182773 0.133637 0.000000
O O12 0.381357 0.273590 0.500000
O O13 0.333592 0.244512 0.750700
O O14 0.422034 0.269697 0.748889
O O15 0.844067 0.155934 0.750000
O O16 0.888326 0.195533 0.500000
O O17 0.241854 0.483708 0.750000
O O18 0.270946 0.464177 0.500000
#
# Coordination Sequence:
#
# PCOD9588499 Si02
#       6
#    24  24  24  24  24  24
#     4  10  21  36  53  74 102 137 177 220 263 307
#     4  10  21  37  57  80 105 134 170 213 260 311
#     4  10  21  37  57  80 106 137 173 213 257 305
#     4  10  20  33  50  73 104 141 178 217 259 303
#     4  10  20  33  50  73 103 138 175 214 254 300
#     4  10  20  34  54  79 106 136 170 210 257 309
#
# _framework density 17.250706000000001
#
# number of rings (size 3 to 8) (size 9 to 14) (size 15 to 20)
#    0.000    2.000    0.000    3.500    0.000    7.000 
#    0.000    5.000    0.000    0.500    0.000    1.167 
#    0.000    0.000    0.000    0.000    0.000    0.000 
#
# Total GULP energy -804358.270692 kJ/mol
# GULP energy per Si atom -5585.821324 kJ/mol
# Density = 1.721144 g / cm^3
# Si number density = 17.250706 Si / 1000 Ang^3
#
#
#
# Elastic Constant Matrix: (Units=GPa)
#
#
# Indices 1 2 3 4 5 6 
#
# 1 72.3564 51.8577 51.1060 0.0000 0.0000 0.0000
# 2 51.8577 72.3564 51.1060 0.0000 0.0000 0.0000
# 3 51.1060 51.1060 79.0461 0.0000 0.0000 0.0000
# 4 0.0000 0.0000 0.0000 30.9705 0.0000 0.0000
# 5 0.0000 0.0000 0.0000 0.0000 30.9705 0.0000
# 6 0.0000 0.0000 0.0000 0.0000 0.0000 10.2493
#
#
#
# Elastic Compliance Matrix: (Units=1/GPa)
#
#
# Indices 1 2 3 4 5 6 
#
# 1 0.032993 -0.015790 -0.011122 0.000000 0.000000 0.000000
# 2 -0.015790 0.032993 -0.011122 0.000000 0.000000 0.000000
# 3 -0.011122 -0.011122 0.027032 0.000000 0.000000 0.000000
# 4 0.000000 0.000000 0.000000 0.032289 0.000000 0.000000
# 5 0.000000 0.000000 0.000000 0.000000 0.032289 0.000000
# 6 0.000000 0.000000 0.000000 0.000000 0.000000 0.097567
#
#
# Mechanical properties :
#
#
# Convention : Reuss Voigt Hill
#
# Bulk Modulus (GPa) = 58.99922 59.09983 59.04952
# Shear Modulus (GPa) = 14.84197 19.08403 16.96300
#
# Velocity S-wave (km/s) = 2.93639 3.32968 3.13920
# Velocity P-wave (km/s) = 6.76549 7.00829 6.88796
#
# Compressibility (1/GPa) = 0.01694938
#
# Stress axis : x y z
#
# Youngs Moduli (GPa) = 30.30936 30.30936 36.99259
#
# Poissons Ratio (x) = 0.47860 0.41143
# Poissons Ratio (y) = 0.47860 0.41143
# Poissons Ratio (z) = 0.33710 0.33710
#
# Static dielectric constant tensor:
#      x y z
#    x 1.567370 0.000000 0.000000 
#    y 0.000000 1.567370 0.000000 
#    z 0.000000 0.000000 1.569500 
# 
# From -- ./inp_files/1165.got.cif
#   From: 2010.05.17/outbox.cif.g08.bks.cpg/sg192_1_cif.got.tgz:1165.got - 2010.05.20 12:28:01.
