data_PCOD9588197
_publ_section_title
;
Structure prediction by ZEFSAII (Michael W. Deem and Ramdas Pophale) SiO2 
 PCOD9588197
Probable space group: P 6/M M M
;
_chemical_formula_sum "Si O2"
_cell_formula_units_Z 111
_cell_length_a 31.983717
_cell_length_b 31.983717
_cell_length_c 7.828456
_cell_angle_alpha 90.000000
_cell_angle_beta 90.000000
_cell_angle_gamma 120.000000
_cell_volume 6935.289822
_symmetry_space_group_name_H-M "P 6/M M M"
_symmetry_group_IT_number 191
_symmetry_cell_setting 'hexagonal'
loop_
_space_group_symop_operation_xyz
x,y,z
x-y,x,z
-y,x-y,z
-x,-y,z
-x+y,-x,z
y,-x+y,z
x-y,-y,-z
-x,-x+y,-z
y,x,-z
-y,-x,-z
-x+y,y,-z
x,x-y,-z
-x,-y,-z
-x+y,-x,-z
y,-x+y,-z
x,y,-z
x-y,x,-z
-y,x-y,-z
-x+y,y,z
x,x-y,z
-y,-x,z
y,x,z
x-y,-y,z
-x,-x+y,z
loop_
_atom_site_type_symbol
_atom_site_label
_atom_site_fract_x
_atom_site_fract_y
_atom_site_fract_z
Si Si1 0.898401 0.361496 0.797040
Si Si2 0.500000 0.000000 0.000000
Si Si3 0.369692 0.000000 0.293824
Si Si4 0.461182 0.538819 0.310825
Si Si5 0.726675 0.726675 0.298642
Si Si6 0.160246 0.413527 0.208521
Si Si7 0.802541 0.697667 0.205235
O O1 0.893562 0.403624 0.708691
O O2 0.861821 0.307741 0.732698
O O3 0.952344 0.370075 0.767904
O O4 0.891926 0.363427 0.000000
O O5 0.520612 0.041223 0.848348
O O6 0.369944 0.000000 0.500000
O O7 0.321359 0.000000 0.228933
O O8 0.472415 0.527586 0.500000
O O9 0.721647 0.721647 0.500000
O O10 0.775236 0.726335 0.251449
O O11 0.214464 0.428928 0.259993
O O12 0.126494 0.357856 0.263950
O O13 0.158853 0.413015 0.000000
O O14 0.856929 0.713858 0.265598
O O15 0.803714 0.696584 0.000000
#
# Coordination Sequence:
#
# PCOD9588197 Si02
#       7
#    24   3  12  12  12  24  24
#     4  11  20  34  52  71  96 125 168 206 242 297
#     4  12  22  44  52  74  92 128 186 200 256 298
#     4  11  22  31  41  64  95 130 167 199 240 285
#     4  12  25  39  53  68  99 133 166 215 251 294
#     4  11  21  30  43  67  98 129 161 196 240 291
#     4   8  15  28  49  73  95 122 156 198 242 283
#     4   9  17  31  49  67  88 119 161 201 236 276
#
# _framework density 16.005098
#
# number of rings (size 3 to 8) (size 9 to 14) (size 15 to 20)
#    0.000    1.946    3.243    3.405    0.000    1.297 
#    0.000    0.000    0.000    2.595    0.000    0.000 
#    1.081    0.000    1.946    0.324    0.649    6.270 
#
# Total GULP energy -618348.662173 kJ/mol
# GULP energy per Si atom -5570.708668 kJ/mol
# Density = 1.596867 g / cm^3
# Si number density = 16.005098 Si / 1000 Ang^3
#
#
#
# Elastic Constant Matrix: (Units=GPa)
#
#
# Indices 1 2 3 4 5 6 
#
# 1 89.4239 102.7241 11.4680 0.0000 0.0000 0.0000
# 2 102.7241 89.4239 11.4680 0.0000 0.0000 0.0000
# 3 11.4680 11.4680 60.8819 0.0000 0.0000 0.0000
# 4 0.0000 0.0000 0.0000 -10.5108 0.0000 0.0000
# 5 0.0000 0.0000 0.0000 0.0000 -10.5108 0.0000
# 6 0.0000 0.0000 0.0000 0.0000 0.0000 -6.6501
#
#
#
# Elastic Compliance Matrix: (Units=1/GPa)
#
#
# Indices 1 2 3 4 5 6 
#
# 1 -0.034932 0.040256 -0.001003 0.000000 0.000000 0.000000
# 2 0.040256 -0.034932 -0.001003 0.000000 0.000000 0.000000
# 3 -0.001003 -0.001003 0.016803 0.000000 0.000000 0.000000
# 4 0.000000 0.000000 0.000000 -0.095140 0.000000 0.000000
# 5 0.000000 0.000000 0.000000 0.000000 -0.095140 0.000000
# 6 0.000000 0.000000 0.000000 0.000000 0.000000 -0.150374
#
#
# Mechanical properties :
#
#
# Convention : Reuss Voigt Hill
#
# Bulk Modulus (GPa) = 42.66272 54.56112 48.61192
# Shear Modulus (GPa) = -10.81315 2.07028 -4.37143
#
# Velocity S-wave (km/s) = -2.60206 1.13856 -1.65445
# Velocity P-wave (km/s) = 4.20546 5.99102 5.17582
#
# Compressibility (1/GPa) = 0.02343967
#
# Stress axis : x y z
#
# Youngs Moduli (GPa) = -28.62745 -28.62745 59.51297
#
# Poissons Ratio (x) = 1.15241 0.05968
# Poissons Ratio (y) = 1.15241 0.05968
# Poissons Ratio (z) = -0.02871 -0.02871
#
# Static dielectric constant tensor:
#      x y z
#    x 1.559070 0.000000 0.000000 
#    y 0.000000 1.559070 0.000000 
#    z 0.000000 0.000000 1.567580 
# 
# From -- ./inp_files/1794.got.cif
#   From: 2010.05.17/outbox.cif.g08.bks.cpg/sg191_1_cif.got.tgz:1794.got - 2010.05.20 12:20:32.
