data_PCOD9588510
_publ_section_title
;
Structure prediction by ZEFSAII (Michael W. Deem and Ramdas Pophale) SiO2 
 PCOD9588510
Probable space group: P 6/M C C
;
_chemical_formula_sum "Si O2"
_cell_formula_units_Z 78
_cell_length_a 24.283877
_cell_length_b 24.283877
_cell_length_c 9.120242
_cell_angle_alpha 90.000000
_cell_angle_beta 90.000000
_cell_angle_gamma 120.000000
_cell_volume 4657.716413
_symmetry_space_group_name_H-M "P 6/M C C"
_symmetry_group_IT_number 192
_symmetry_cell_setting 'hexagonal'
loop_
_space_group_symop_operation_xyz
x,y,z
x-y,x,z
-y,x-y,z
-x,-y,z
-x+y,-x,z
y,-x+y,z
x-y,-y,1/2-z
-x,-x+y,1/2-z
y,x,1/2-z
-y,-x,1/2-z
-x+y,y,1/2-z
x,x-y,1/2-z
-x,-y,-z
-x+y,-x,-z
y,-x+y,-z
x,y,-z
x-y,x,-z
-y,x-y,-z
-x+y,y,1/2+z
x,x-y,1/2+z
-y,-x,1/2+z
y,x,1/2+z
x-y,-y,1/2+z
-x,-x+y,1/2+z
loop_
_atom_site_type_symbol
_atom_site_label
_atom_site_fract_x
_atom_site_fract_y
_atom_site_fract_z
Si Si1 0.744118 0.812128 0.324236
Si Si2 0.739095 0.596398 0.825690
Si Si3 0.500000 0.500000 0.250000
Si Si4 0.876735 0.385283 0.335237
O O1 0.788421 0.788421 0.250000
O O2 0.753338 0.876669 0.250000
O O3 0.754268 0.820487 0.500000
O O4 0.669882 0.758786 0.299732
O O5 0.794480 0.588960 0.750000
O O6 0.673408 0.544179 0.755352
O O7 0.738429 0.587230 0.000000
O O8 0.513365 0.561784 0.160058
O O9 0.848171 0.424086 0.250000
O O10 0.851941 0.367283 0.500000
#
# Coordination Sequence:
#
# PCOD9588510 Si02
#       4
#    24  24   6  24
#     4  10  21  36  55  80 109 143 179 219 264 316
#     4  10  21  36  54  78 108 143 181 221 267 318
#     4   8  22  32  50  76 110 140 178 212 268 316
#     4  10  20  33  51  75 106 140 177 219 264 315
#
# _framework density 16.746403000000001
#
# number of rings (size 3 to 8) (size 9 to 14) (size 15 to 20)
#    0.923    1.231    0.000    3.231    2.154    3.692 
#    0.000    0.000    0.000    0.923    0.000    6.462 
#    0.000    0.000    0.000    0.000    0.000    0.000 
#
# Total GULP energy -434321.155792 kJ/mol
# GULP energy per Si atom -5568.219946 kJ/mol
# Density = 1.670829 g / cm^3
# Si number density = 16.746403 Si / 1000 Ang^3
#
#
#
# Elastic Constant Matrix: (Units=GPa)
#
#
# Indices 1 2 3 4 5 6 
#
# 1 101.4638 60.6161 65.8770 0.0000 0.0000 0.0000
# 2 60.6161 101.4638 65.8770 0.0000 0.0000 0.0000
# 3 65.8770 65.8770 141.2047 0.0000 0.0000 0.0000
# 4 0.0000 0.0000 0.0000 30.1681 0.0000 0.0000
# 5 0.0000 0.0000 0.0000 0.0000 30.1681 0.0000
# 6 0.0000 0.0000 0.0000 0.0000 0.0000 20.4239
#
#
#
# Elastic Compliance Matrix: (Units=1/GPa)
#
#
# Indices 1 2 3 4 5 6 
#
# 1 0.017210 -0.007271 -0.004637 0.000000 0.000000 0.000000
# 2 -0.007271 0.017210 -0.004637 0.000000 0.000000 0.000000
# 3 -0.004637 -0.004637 0.011409 0.000000 0.000000 0.000000
# 4 0.000000 0.000000 0.000000 0.033148 0.000000 0.000000
# 5 0.000000 0.000000 0.000000 0.000000 0.033148 0.000000
# 6 0.000000 0.000000 0.000000 0.000000 0.000000 0.048962
#
#
# Mechanical properties :
#
#
# Convention : Reuss Voigt Hill
#
# Bulk Modulus (GPa) = 78.49916 80.98582 79.74249
# Shear Modulus (GPa) = 25.19873 26.26949 25.73411
#
# Velocity S-wave (km/s) = 3.88329 3.96493 3.92432
# Velocity P-wave (km/s) = 8.19046 8.33223 8.26165
#
# Compressibility (1/GPa) = 0.01273899
#
# Stress axis : x y z
#
# Youngs Moduli (GPa) = 58.10514 58.10514 87.65358
#
# Poissons Ratio (x) = 0.42248 0.40645
# Poissons Ratio (y) = 0.42248 0.40645
# Poissons Ratio (z) = 0.26943 0.26943
#
# Static dielectric constant tensor:
#      x y z
#    x 1.552950 0.000000 0.000000 
#    y 0.000000 1.552950 0.000000 
#    z 0.000000 0.000000 1.582920 
# 
# From -- ./inp_files/725.got.cif
#   From: 2010.05.17/outbox.cif.g08.bks.cpg/sg192_1_cif.got.tgz:725.got - 2010.05.20 12:28:01.
