data_PCOD9588363
_publ_section_title
;
Structure prediction by ZEFSAII (Michael W. Deem and Ramdas Pophale) SiO2 
 PCOD9588363
Probable space group: P 6/M C C
;
_chemical_formula_sum "Si O2"
_cell_formula_units_Z 132
_cell_length_a 17.811587
_cell_length_b 17.811587
_cell_length_c 23.490596
_cell_angle_alpha 90.000000
_cell_angle_beta 90.000000
_cell_angle_gamma 120.000000
_cell_volume 6454.013961
_symmetry_space_group_name_H-M "P 6/M C C"
_symmetry_group_IT_number 192
_symmetry_cell_setting 'hexagonal'
loop_
_space_group_symop_operation_xyz
x,y,z
x-y,x,z
-y,x-y,z
-x,-y,z
-x+y,-x,z
y,-x+y,z
x-y,-y,1/2-z
-x,-x+y,1/2-z
y,x,1/2-z
-y,-x,1/2-z
-x+y,y,1/2-z
x,x-y,1/2-z
-x,-y,-z
-x+y,-x,-z
y,-x+y,-z
x,y,-z
x-y,x,-z
-y,x-y,-z
-x+y,y,1/2+z
x,x-y,1/2+z
-y,-x,1/2+z
y,x,1/2+z
x-y,-y,1/2+z
-x,-x+y,1/2+z
loop_
_atom_site_type_symbol
_atom_site_label
_atom_site_fract_x
_atom_site_fract_y
_atom_site_fract_z
Si Si1 0.638414 0.163841 0.874611
Si Si2 0.408637 0.778687 0.500000
Si Si3 0.176209 0.161707 0.932640
Si Si4 0.689854 0.477500 0.195809
Si Si5 0.324573 0.213748 0.300109
Si Si6 0.328123 0.264419 0.862478
O O1 0.616460 0.171351 0.940380
O O2 0.725953 0.252268 0.856101
O O3 0.570111 0.163368 0.829225
O O4 0.659760 0.086643 0.866635
O O5 0.303554 0.728780 0.500000
O O6 0.095953 0.169622 0.909808
O O7 0.269115 0.242718 0.918100
O O8 0.167073 0.154085 0.000000
O O9 0.722170 0.444340 0.250000
O O10 0.717916 0.575177 0.213868
O O11 0.285646 0.142823 0.250000
O O12 0.331368 0.154070 0.349149
O O13 0.280917 0.269700 0.317167
#
# Coordination Sequence:
#
# PCOD9588363 Si02
#       6
#    24  12  24  24  24  24
#     4  11  21  35  59  93 123 169 219 271 324 391
#     4  10  18  36  60  83 129 173 223 268 330 391
#     4  10  20  37  61  89 120 161 214 267 318 378
#     4  10  20  37  60  87 120 160 215 274 326 374
#     4  10  22  40  61  86 118 162 203 256 323 394
#     4  11  22  37  61  89 125 163 205 258 322 394
#
# _framework density 20.452387999999999
#
# number of rings (size 3 to 8) (size 9 to 14) (size 15 to 20)
#    0.182    1.455    3.636    1.636    1.273    1.455 
#    0.000    0.000    2.000    7.636    0.000    2.545 
#    0.000    0.000    0.000    0.000    0.000    0.000 
#
# Total GULP energy -734919.373549 kJ/mol
# GULP energy per Si atom -5567.571012 kJ/mol
# Density = 2.040584 g / cm^3
# Si number density = 20.452388 Si / 1000 Ang^3
#
#
#
# Elastic Constant Matrix: (Units=GPa)
#
#
# Indices 1 2 3 4 5 6 
#
# 1 108.6241 51.0354 30.9595 0.0000 0.0000 0.0000
# 2 51.0354 108.6241 30.9595 0.0000 0.0000 0.0000
# 3 30.9595 30.9595 96.1054 0.0000 0.0000 0.0000
# 4 0.0000 0.0000 0.0000 24.5721 0.0000 0.0000
# 5 0.0000 0.0000 0.0000 0.0000 24.5721 0.0000
# 6 0.0000 0.0000 0.0000 0.0000 0.0000 28.7944
#
#
#
# Elastic Compliance Matrix: (Units=1/GPa)
#
#
# Indices 1 2 3 4 5 6 
#
# 1 0.012261 -0.005103 -0.002306 0.000000 0.000000 0.000000
# 2 -0.005103 0.012261 -0.002306 0.000000 0.000000 0.000000
# 3 -0.002306 -0.002306 0.011891 0.000000 0.000000 0.000000
# 4 0.000000 0.000000 0.000000 0.040697 0.000000 0.000000
# 5 0.000000 0.000000 0.000000 0.000000 0.040697 0.000000
# 6 0.000000 0.000000 0.000000 0.000000 0.000000 0.034729
#
#
# Mechanical properties :
#
#
# Convention : Reuss Voigt Hill
#
# Bulk Modulus (GPa) = 58.88270 59.91804 59.40037
# Shear Modulus (GPa) = 28.14907 28.94768 28.54837
#
# Velocity S-wave (km/s) = 3.71391 3.76622 3.74015
# Velocity P-wave (km/s) = 6.87339 6.94784 6.91071
#
# Compressibility (1/GPa) = 0.01698292
#
# Stress axis : x y z
#
# Youngs Moduli (GPa) = 81.55929 81.55929 84.09875
#
# Poissons Ratio (x) = 0.41624 0.19391
# Poissons Ratio (y) = 0.41624 0.19391
# Poissons Ratio (z) = 0.18805 0.18805
#
# Static dielectric constant tensor:
#      x y z
#    x 1.762530 0.000000 0.000000 
#    y 0.000000 1.762530 0.000000 
#    z 0.000000 0.000000 1.787830 
# 
# From -- ./inp_files/6505.got.cif
#   From: 2010.05.17/outbox.cif.g08.bks.cpg/sg192_4_cif.got.tgz:6505.got - 2010.05.20 12:28:01.
