data_PCOD9588402
_publ_section_title
;
Structure prediction by ZEFSAII (Michael W. Deem and Ramdas Pophale) SiO2 
 PCOD9588402
Probable space group: P 6/M C C
;
_chemical_formula_sum "Si O2"
_cell_formula_units_Z 144
_cell_length_a 32.512330
_cell_length_b 32.512330
_cell_length_c 8.467405
_cell_angle_alpha 90.000000
_cell_angle_beta 90.000000
_cell_angle_gamma 120.000000
_cell_volume 7751.346538
_symmetry_space_group_name_H-M "P 6/M C C"
_symmetry_group_IT_number 192
_symmetry_cell_setting 'hexagonal'
loop_
_space_group_symop_operation_xyz
x,y,z
x-y,x,z
-y,x-y,z
-x,-y,z
-x+y,-x,z
y,-x+y,z
x-y,-y,1/2-z
-x,-x+y,1/2-z
y,x,1/2-z
-y,-x,1/2-z
-x+y,y,1/2-z
x,x-y,1/2-z
-x,-y,-z
-x+y,-x,-z
y,-x+y,-z
x,y,-z
x-y,x,-z
-y,x-y,-z
-x+y,y,1/2+z
x,x-y,1/2+z
-y,-x,1/2+z
y,x,1/2+z
x-y,-y,1/2+z
-x,-x+y,1/2+z
loop_
_atom_site_type_symbol
_atom_site_label
_atom_site_fract_x
_atom_site_fract_y
_atom_site_fract_z
Si Si1 0.666660 0.240213 0.189709
Si Si2 0.333022 0.854508 0.192563
Si Si3 0.478928 0.427749 0.189614
Si Si4 0.761631 0.710183 0.309575
Si Si5 0.384083 0.238498 0.191167
Si Si6 0.805211 0.856699 0.811147
O O1 0.714908 0.285093 0.250000
O O2 0.621481 0.242961 0.250000
O O3 0.663388 0.191077 0.243397
O O4 0.666772 0.240911 0.000000
O O5 0.378322 0.904047 0.243044
O O6 0.283764 0.850431 0.244119
O O7 0.333204 0.854635 0.000000
O O8 0.438195 0.438195 0.250000
O O9 0.528563 0.471438 0.250000
O O10 0.479069 0.428874 0.000000
O O11 0.721786 0.721786 0.250000
O O12 0.760783 0.710128 0.500000
O O13 0.756606 0.660780 0.256065
O O14 0.812508 0.754301 0.257684
O O15 0.379792 0.189896 0.250000
O O16 0.383872 0.237909 0.000000
O O17 0.844551 0.844551 0.750000
O O18 0.811379 0.905690 0.750000
O O19 0.805556 0.856952 0.000000
#
# Coordination Sequence:
#
# PCOD9588402 Si02
#       6
#    24  24  24  24  24  24
#     4  11  22  38  58  81 106 136 171 213 261 314
#     4   9  20  36  55  77 106 139 174 214 258 305
#     4  10  19  34  54  78 105 136 172 215 261 308
#     4   9  19  33  52  76 105 137 173 214 258 303
#     4  10  20  36  54  76 105 139 174 213 257 306
#     4  10  19  32  50  75 103 135 172 214 258 305
#
# _framework density 18.577415999999999
#
# number of rings (size 3 to 8) (size 9 to 14) (size 15 to 20)
#    0.000    2.167    0.000    3.667    0.000    2.000 
#    0.000    5.000    0.000    0.167    0.000    1.167 
#    0.000    0.000    0.000    0.000    0.000    0.000 
#
# Total GULP energy -804147.252006 kJ/mol
# GULP energy per Si atom -5584.355917 kJ/mol
# Density = 1.853513 g / cm^3
# Si number density = 18.577416 Si / 1000 Ang^3
#
#
#
# Elastic Constant Matrix: (Units=GPa)
#
#
# Indices 1 2 3 4 5 6 
#
# 1 168.2684 103.2966 26.4282 0.0000 0.0000 0.0000
# 2 103.2966 168.2684 26.4282 0.0000 0.0000 0.0000
# 3 26.4282 26.4282 32.2696 0.0000 0.0000 0.0000
# 4 0.0000 0.0000 0.0000 15.6005 0.0000 0.0000
# 5 0.0000 0.0000 0.0000 0.0000 15.6005 0.0000
# 6 0.0000 0.0000 0.0000 0.0000 0.0000 32.4859
#
#
#
# Elastic Compliance Matrix: (Units=1/GPa)
#
#
# Indices 1 2 3 4 5 6 
#
# 1 0.009886 -0.005505 -0.003588 0.000000 0.000000 0.000000
# 2 -0.005505 0.009886 -0.003588 0.000000 0.000000 0.000000
# 3 -0.003588 -0.003588 0.036865 0.000000 0.000000 0.000000
# 4 0.000000 0.000000 0.000000 0.064101 0.000000 0.000000
# 5 0.000000 0.000000 0.000000 0.000000 0.064101 0.000000
# 6 0.000000 0.000000 0.000000 0.000000 0.000000 0.030783
#
#
# Mechanical properties :
#
#
# Convention : Reuss Voigt Hill
#
# Bulk Modulus (GPa) = 31.97341 75.67917 53.82629
# Shear Modulus (GPa) = 19.88801 26.91427 23.40114
#
# Velocity S-wave (km/s) = 3.27547 3.81039 3.55301
# Velocity P-wave (km/s) = 5.61723 7.75786 6.77265
#
# Compressibility (1/GPa) = 0.03127599
#
# Stress axis : x y z
#
# Youngs Moduli (GPa) = 101.15349 101.15349 27.12571
#
# Poissons Ratio (x) = 0.55688 0.09732
# Poissons Ratio (y) = 0.55688 0.09732
# Poissons Ratio (z) = 0.36291 0.36291
#
# Static dielectric constant tensor:
#      x y z
#    x 1.620660 0.000000 0.000000 
#    y 0.000000 1.620660 0.000000 
#    z 0.000000 0.000000 1.641900 
# 
# From -- ./inp_files/1212.got.cif
#   From: 2010.05.17/outbox.cif.g08.bks.cpg/sg192_1_cif.got.tgz:1212.got - 2010.05.20 12:28:01.
