data_PCOD9588068
_publ_section_title
;
Structure prediction by ZEFSAII (Michael W. Deem and Ramdas Pophale) SiO2 
 PCOD9588068
Probable space group: P 6/M M M
;
_chemical_formula_sum "Si O2"
_cell_formula_units_Z 108
_cell_length_a 29.683982
_cell_length_b 29.683982
_cell_length_c 7.825322
_cell_angle_alpha 90.000000
_cell_angle_beta 90.000000
_cell_angle_gamma 120.000000
_cell_volume 5971.413807
_symmetry_space_group_name_H-M "P 6/M M M"
_symmetry_group_IT_number 191
_symmetry_cell_setting 'hexagonal'
loop_
_space_group_symop_operation_xyz
x,y,z
x-y,x,z
-y,x-y,z
-x,-y,z
-x+y,-x,z
y,-x+y,z
x-y,-y,-z
-x,-x+y,-z
y,x,-z
-y,-x,-z
-x+y,y,-z
x,x-y,-z
-x,-y,-z
-x+y,-x,-z
y,-x+y,-z
x,y,-z
x-y,x,-z
-y,x-y,-z
-x+y,y,z
x,x-y,z
-y,-x,z
y,x,z
x-y,-y,z
-x,-x+y,z
loop_
_atom_site_type_symbol
_atom_site_label
_atom_site_fract_x
_atom_site_fract_y
_atom_site_fract_z
Si Si1 0.837040 0.774548 0.000000
Si Si2 0.671257 0.061251 0.206142
Si Si3 0.229116 0.936890 0.311329
Si Si4 0.565485 0.232837 0.293827
Si Si5 0.886049 0.493015 0.799046
O O1 0.812383 0.736828 0.163586
O O2 0.815275 0.815275 0.000000
O O3 0.898951 0.797901 0.000000
O O4 0.729175 0.081773 0.276004
O O5 0.638382 0.087227 0.272504
O O6 0.638003 0.000000 0.244025
O O7 0.676189 0.067064 0.000000
O O8 0.206313 0.920301 0.500000
O O9 0.263484 0.000000 0.308945
O O10 0.559937 0.228393 0.500000
O O11 0.625384 0.250768 0.255265
O O12 0.551742 0.275871 0.234618
O O13 0.531635 0.175751 0.218162
O O14 0.898670 0.449335 0.726727
O O15 0.899818 0.498329 0.000000
#
# Coordination Sequence:
#
# PCOD9588068 Si02
#       5
#    12  24  24  24  24
#     4  10  20  36  58  85 117 149 183 223 267 315
#     4   9  16  29  49  69  94 132 173 211 256 308
#     4   9  17  31  53  79 106 139 180 224 266 306
#     4   9  17  30  47  63  79 104 141 184 231 285
#     4   9  18  30  44  66  95 124 156 199 252 307
#
# _framework density 18.086168000000001
#
# number of rings (size 3 to 8) (size 9 to 14) (size 15 to 20)
#    0.000    2.889    1.111    0.222    0.000    3.111 
#    0.000    3.333    0.000    1.444    0.000    6.222 
#    0.000    0.000    0.000    5.556    0.000    0.000 
#
# Total GULP energy -601602.981549 kJ/mol
# GULP energy per Si atom -5570.397977 kJ/mol
# Density = 1.804500 g / cm^3
# Si number density = 18.086168 Si / 1000 Ang^3
#
#
#
# Elastic Constant Matrix: (Units=GPa)
#
#
# Indices 1 2 3 4 5 6 
#
# 1 62.8350 41.3618 27.0779 0.0000 0.0000 0.0000
# 2 41.3618 62.8350 27.0779 0.0000 0.0000 0.0000
# 3 27.0779 27.0779 61.0359 0.0000 0.0000 0.0000
# 4 0.0000 0.0000 0.0000 5.7234 0.0000 0.0000
# 5 0.0000 0.0000 0.0000 0.0000 5.7234 0.0000
# 6 0.0000 0.0000 0.0000 0.0000 0.0000 10.7366
#
#
#
# Elastic Compliance Matrix: (Units=1/GPa)
#
#
# Indices 1 2 3 4 5 6 
#
# 1 0.029521 -0.017048 -0.005534 0.000000 0.000000 0.000000
# 2 -0.017048 0.029521 -0.005534 0.000000 0.000000 0.000000
# 3 -0.005534 -0.005534 0.021294 0.000000 0.000000 0.000000
# 4 0.000000 0.000000 0.000000 0.174721 0.000000 0.000000
# 5 0.000000 0.000000 0.000000 0.000000 0.174721 0.000000
# 6 0.000000 0.000000 0.000000 0.000000 0.000000 0.093139
#
#
# Mechanical properties :
#
#
# Convention : Reuss Voigt Hill
#
# Bulk Modulus (GPa) = 41.48395 41.97125 41.72760
# Shear Modulus (GPa) = 8.51521 10.51590 9.51556
#
# Velocity S-wave (km/s) = 2.17218 2.41391 2.29623
# Velocity P-wave (km/s) = 5.41089 5.57009 5.49107
#
# Compressibility (1/GPa) = 0.02410571
#
# Stress axis : x y z
#
# Youngs Moduli (GPa) = 33.87368 33.87368 46.96221
#
# Poissons Ratio (x) = 0.57748 0.25987
# Poissons Ratio (y) = 0.57748 0.25987
# Poissons Ratio (z) = 0.18745 0.18745
#
# Static dielectric constant tensor:
#      x y z
#    x 1.614210 0.000000 0.000000 
#    y 0.000000 1.614210 0.000000 
#    z 0.000000 0.000000 1.665260 
# 
# From -- ./inp_files/1700.got.cif
#   From: 2010.05.17/outbox.cif.g08.bks.cpg/sg191_1_cif.got.tgz:1700.got - 2010.05.20 12:20:32.
