data_PCOD9588469
_publ_section_title
;
Structure prediction by ZEFSAII (Michael W. Deem and Ramdas Pophale) SiO2 
 PCOD9588469
Probable space group: P 6/M C C
;
_chemical_formula_sum "Si O2"
_cell_formula_units_Z 144
_cell_length_a 21.041848
_cell_length_b 21.041848
_cell_length_c 19.509391
_cell_angle_alpha 90.000000
_cell_angle_beta 90.000000
_cell_angle_gamma 120.000000
_cell_volume 7480.697659
_symmetry_space_group_name_H-M "P 6/M C C"
_symmetry_group_IT_number 192
_symmetry_cell_setting 'hexagonal'
loop_
_space_group_symop_operation_xyz
x,y,z
x-y,x,z
-y,x-y,z
-x,-y,z
-x+y,-x,z
y,-x+y,z
x-y,-y,1/2-z
-x,-x+y,1/2-z
y,x,1/2-z
-y,-x,1/2-z
-x+y,y,1/2-z
x,x-y,1/2-z
-x,-y,-z
-x+y,-x,-z
y,-x+y,-z
x,y,-z
x-y,x,-z
-y,x-y,-z
-x+y,y,1/2+z
x,x-y,1/2+z
-y,-x,1/2+z
y,x,1/2+z
x-y,-y,1/2+z
-x,-x+y,1/2+z
loop_
_atom_site_type_symbol
_atom_site_label
_atom_site_fract_x
_atom_site_fract_y
_atom_site_fract_z
Si Si1 0.619282 0.905344 0.500000
Si Si2 0.282983 0.436712 0.229589
Si Si3 0.946865 0.529367 0.650048
Si Si4 0.710759 0.804951 0.648262
Si Si5 0.660627 0.955602 0.349089
Si Si6 0.394668 0.439635 0.000000
Si Si7 0.088018 0.176035 0.250000
Si Si8 0.132238 0.349391 0.500000
O O1 0.658509 0.928507 0.426179
O O2 0.597836 0.819175 0.500000
O O3 0.580631 0.957149 0.500000
O O4 0.238709 0.477418 0.250000
O O5 0.363369 0.485412 0.196756
O O6 0.230801 0.372464 0.176457
O O7 0.284232 0.389451 0.294328
O O8 0.932053 0.512569 0.569161
O O9 0.000000 0.500000 0.673936
O O10 0.993415 0.617318 0.650299
O O11 0.733415 0.744558 0.668530
O O12 0.767959 0.879080 0.685443
O O13 0.701599 0.807723 0.567277
O O14 0.305696 0.394637 0.000000
O O15 0.125631 0.125631 0.250000
#
# Coordination Sequence:
#
# PCOD9588469 Si02
#       8
#    12  24  24  24  24  12  12  12
#     4  10  20  31  51  78 118 145 185 244 309 362
#     4  11  20  32  53  84 116 150 196 252 303 360
#     4  10  20  35  55  80 120 164 196 235 310 390
#     4  11  21  36  56  80 109 147 194 246 311 366
#     4  10  20  35  53  81 116 148 192 247 303 369
#     4  10  19  36  50  84 118 156 198 247 301 391
#     4  12  27  42  58  74 104 150 206 252 304 366
#     4  12  20  33  57  82 113 144 184 241 309 359
#
# _framework density 19.249542000000002
#
# number of rings (size 3 to 8) (size 9 to 14) (size 15 to 20)
#    0.000    1.333    5.833    4.333    2.333    1.333 
#    0.000    0.000    0.000    0.000    0.000    1.167 
#    6.667    0.000    0.000    0.000    0.000    0.000 
#
# Total GULP energy -802208.961073 kJ/mol
# GULP energy per Si atom -5570.895563 kJ/mol
# Density = 1.920573 g / cm^3
# Si number density = 19.249542 Si / 1000 Ang^3
#
#
#
# Elastic Constant Matrix: (Units=GPa)
#
#
# Indices 1 2 3 4 5 6 
#
# 1 80.5883 28.5767 20.8308 0.0000 0.0000 0.0000
# 2 28.5767 80.5883 20.8308 0.0000 0.0000 0.0000
# 3 20.8308 20.8308 140.4550 0.0000 0.0000 0.0000
# 4 0.0000 0.0000 0.0000 18.8046 0.0000 0.0000
# 5 0.0000 0.0000 0.0000 0.0000 18.8046 0.0000
# 6 0.0000 0.0000 0.0000 0.0000 0.0000 26.0058
#
#
#
# Elastic Compliance Matrix: (Units=1/GPa)
#
#
# Indices 1 2 3 4 5 6 
#
# 1 0.014468 -0.004758 -0.001440 0.000000 0.000000 0.000000
# 2 -0.004758 0.014468 -0.001440 0.000000 0.000000 0.000000
# 3 -0.001440 -0.001440 0.007547 0.000000 0.000000 0.000000
# 4 0.000000 0.000000 0.000000 0.053178 0.000000 0.000000
# 5 0.000000 0.000000 0.000000 0.000000 0.053178 0.000000
# 6 0.000000 0.000000 0.000000 0.000000 0.000000 0.038453
#
#
# Mechanical properties :
#
#
# Convention : Reuss Voigt Hill
#
# Bulk Modulus (GPa) = 47.15515 49.12314 48.13915
# Shear Modulus (GPa) = 24.55328 28.14924 26.35126
#
# Velocity S-wave (km/s) = 3.57532 3.82819 3.70392
# Velocity P-wave (km/s) = 6.44933 6.71674 6.58439
#
# Compressibility (1/GPa) = 0.02120659
#
# Stress axis : x y z
#
# Youngs Moduli (GPa) = 69.11684 69.11684 132.50519
#
# Poissons Ratio (x) = 0.32887 0.19082
# Poissons Ratio (y) = 0.32887 0.19082
# Poissons Ratio (z) = 0.09953 0.09953
#
# Static dielectric constant tensor:
#      x y z
#    x 1.719790 0.000000 0.000000 
#    y 0.000000 1.719790 0.000000 
#    z 0.000000 0.000000 1.763680 
# 
# From -- ./inp_files/5206.got.cif
#   From: 2010.05.17/outbox.cif.g08.bks.cpg/sg192_3_cif.got.tgz:5206.got - 2010.05.20 12:28:01.
