data_PCOD9588925
_publ_section_title
;
Structure prediction by ZEFSAII (Michael W. Deem and Ramdas Pophale) SiO2 
 PCOD9588925
Probable space group: P 63/M C M
;
_chemical_formula_sum "Si O2"
_cell_formula_units_Z 96
_cell_length_a 28.467377
_cell_length_b 28.467377
_cell_length_c 10.408963
_cell_angle_alpha 90.000000
_cell_angle_beta 90.000000
_cell_angle_gamma 120.000000
_cell_volume 7305.215000
_symmetry_space_group_name_H-M "P 63/M C M"
_symmetry_group_IT_number 193
_symmetry_cell_setting 'hexagonal'
loop_
_space_group_symop_operation_xyz
x,y,z
x-y,x,1/2+z
-y,x-y,z
-x,-y,1/2+z
-x+y,-x,z
y,-x+y,1/2+z
x-y,-y,1/2-z
-x,-x+y,1/2-z
y,x,1/2-z
-y,-x,-z
-x+y,y,-z
x,x-y,-z
-x,-y,-z
-x+y,-x,1/2-z
y,-x+y,-z
x,y,1/2-z
x-y,x,-z
-y,x-y,1/2-z
-x+y,y,1/2+z
x,x-y,1/2+z
-y,-x,1/2+z
y,x,z
x-y,-y,z
-x,-x+y,z
loop_
_atom_site_type_symbol
_atom_site_label
_atom_site_fract_x
_atom_site_fract_y
_atom_site_fract_z
Si Si1 0.571624 0.505590 0.102356
Si Si2 0.321947 0.387096 0.598683
Si Si3 0.170004 0.938270 0.250000
Si Si4 0.692666 0.901060 0.501125
Si Si5 0.172655 0.938350 0.750000
O O1 0.570519 0.487759 0.250000
O O2 0.537968 0.537968 0.102493
O O3 0.632866 0.551227 0.067321
O O4 0.542313 0.457688 0.000000
O O5 0.308251 0.385541 0.750000
O O6 0.351253 0.351253 0.584736
O O7 0.267708 0.358804 0.515996
O O8 0.197124 0.928234 0.375147
O O9 0.107138 0.891005 0.250000
O O10 0.183271 0.000000 0.250000
O O11 0.676690 0.838345 0.500000
O O12 0.728281 0.927704 0.374748
O O13 0.186091 0.000000 0.750000
#
# Coordination Sequence:
#
# PCOD9588925 Si02
#       5
#    24  24  12  24  12
#     4   8  14  24  37  54  75  99 129 161 186 209
#     4   9  15  25  43  58  72 104 142 164 184 231
#     4  10  18  30  48  59  71 105 139 161 199 261
#     4  10  19  29  42  60  81 104 132 169 208 246
#     4  10  20  30  40  61  87  99 119 171 221 251
#
# _framework density 13.141297
#
# number of rings (size 3 to 8) (size 9 to 14) (size 15 to 20)
#    0.000    2.750    1.250    3.750    0.000    0.000 
#    2.250    0.000    0.000    0.250    0.000    0.000 
#    0.000    6.000    0.000    0.750    0.000    4.500 
#
# Total GULP energy -534568.592127 kJ/mol
# GULP energy per Si atom -5568.422835 kJ/mol
# Density = 1.311139 g / cm^3
# Si number density = 13.141297 Si / 1000 Ang^3
#
#
#
# Elastic Constant Matrix: (Units=GPa)
#
#
# Indices 1 2 3 4 5 6 
#
# 1 82.8526 38.9838 40.7188 0.0000 0.0000 0.0000
# 2 38.9838 82.8526 40.7188 0.0000 0.0000 0.0000
# 3 40.7188 40.7188 87.1575 0.0000 0.0000 0.0000
# 4 0.0000 0.0000 0.0000 5.9782 0.0000 0.0000
# 5 0.0000 0.0000 0.0000 0.0000 5.9782 0.0000
# 6 0.0000 0.0000 0.0000 0.0000 0.0000 21.9344
#
#
#
# Elastic Compliance Matrix: (Units=1/GPa)
#
#
# Indices 1 2 3 4 5 6 
#
# 1 0.017365 -0.005430 -0.005576 0.000000 0.000000 0.000000
# 2 -0.005430 0.017365 -0.005576 0.000000 0.000000 0.000000
# 3 -0.005576 -0.005576 0.016683 0.000000 0.000000 0.000000
# 4 0.000000 0.000000 0.000000 0.167275 0.000000 0.000000
# 5 0.000000 0.000000 0.000000 0.000000 0.167275 0.000000
# 6 0.000000 0.000000 0.000000 0.000000 0.000000 0.045590
#
#
# Mechanical properties :
#
#
# Convention : Reuss Voigt Hill
#
# Bulk Modulus (GPa) = 54.79536 54.85619 54.82577
# Shear Modulus (GPa) = 10.62022 15.60758 13.11390
#
# Velocity S-wave (km/s) = 2.84589 3.45000 3.16241
# Velocity P-wave (km/s) = 7.25165 7.59632 7.42598
#
# Compressibility (1/GPa) = 0.01824972
#
# Stress axis : x y z
#
# Youngs Moduli (GPa) = 57.58736 57.58736 59.94034
#
# Poissons Ratio (x) = 0.31272 0.33421
# Poissons Ratio (y) = 0.31272 0.33421
# Poissons Ratio (z) = 0.32109 0.32109
#
# Static dielectric constant tensor:
#      x y z
#    x 1.421340 0.000000 0.000000 
#    y 0.000000 1.421340 0.000000 
#    z 0.000000 0.000000 1.440120 
# 
# From -- ./inp_files/1252.got.cif
#   From: 2010.05.17/outbox.cif.g08.bks.cpg/sg193_1_cif.got.tgz:1252.got - 2010.05.20 12:33:02.
