data_PCOD9588226
_publ_section_title
;
Structure prediction by ZEFSAII (Michael W. Deem and Ramdas Pophale) SiO2 
 PCOD9588226
Probable space group: P 6/M M M
;
_chemical_formula_sum "Si O2"
_cell_formula_units_Z 144
_cell_length_a 21.525950
_cell_length_b 21.525950
_cell_length_c 19.067051
_cell_angle_alpha 90.000000
_cell_angle_beta 90.000000
_cell_angle_gamma 120.000000
_cell_volume 7651.363137
_symmetry_space_group_name_H-M "P 6/M M M"
_symmetry_group_IT_number 191
_symmetry_cell_setting 'hexagonal'
loop_
_space_group_symop_operation_xyz
x,y,z
x-y,x,z
-y,x-y,z
-x,-y,z
-x+y,-x,z
y,-x+y,z
x-y,-y,-z
-x,-x+y,-z
y,x,-z
-y,-x,-z
-x+y,y,-z
x,x-y,-z
-x,-y,-z
-x+y,-x,-z
y,-x+y,-z
x,y,-z
x-y,x,-z
-y,x-y,-z
-x+y,y,z
x,x-y,z
-y,-x,z
y,x,z
x-y,-y,z
-x,-x+y,z
loop_
_atom_site_type_symbol
_atom_site_label
_atom_site_fract_x
_atom_site_fract_y
_atom_site_fract_z
Si Si1 0.555984 0.638539 0.920104
Si Si2 0.284170 0.368242 0.728486
Si Si3 0.778847 0.080672 0.876820
Si Si4 0.813910 0.478832 0.793092
Si Si5 0.717104 0.632214 0.577262
Si Si6 0.805789 0.471947 0.416407
O O1 0.581108 0.581108 0.899585
O O2 0.628814 0.715767 0.915712
O O3 0.502529 0.643935 0.866039
O O4 0.530325 0.624198 0.000000
O O5 0.346837 0.346837 0.728013
O O6 0.235544 0.325844 0.794836
O O7 0.315138 0.452488 0.743330
O O8 0.245107 0.345032 0.652997
O O9 0.856389 0.143612 0.897672
O O10 0.762201 0.000000 0.887221
O O11 0.736394 0.472788 0.800334
O O12 0.807199 0.403600 0.771677
O O13 0.752807 0.643500 0.500000
O O14 0.669783 0.669783 0.572998
O O15 0.668976 0.547090 0.587463
O O16 0.793190 0.460273 0.500000
O O17 0.738816 0.477631 0.386889
O O18 0.809112 0.404556 0.387570
#
# Coordination Sequence:
#
# PCOD9588226 Si02
#       6
#    24  24  24  24  24  24
#     4   9  18  33  55  82 106 128 159 202 247 283
#     4   9  18  33  53  73  91 118 158 202 248 294
#     4   9  17  30  50  75 102 132 165 200 238 281
#     4  11  23  37  52  70  96 131 167 202 242 290
#     4   9  18  32  49  70  94 116 143 186 242 302
#     4   9  17  28  41  57  78 106 140 176 214 258
#
# _framework density 18.820176
#
# number of rings (size 3 to 8) (size 9 to 14) (size 15 to 20)
#    0.000    2.667    0.000    3.833    0.000    6.000 
#    0.000    4.167    0.000    3.167    0.000    0.000 
#    0.000    0.000    0.000    4.167    0.000    0.000 
#
# Total GULP energy -802335.981449 kJ/mol
# GULP energy per Si atom -5571.777649 kJ/mol
# Density = 1.877734 g / cm^3
# Si number density = 18.820176 Si / 1000 Ang^3
#
#
#
# Elastic Constant Matrix: (Units=GPa)
#
#
# Indices 1 2 3 4 5 6 
#
# 1 76.3236 73.2922 7.5817 0.0000 0.0000 0.0000
# 2 73.2922 76.3236 7.5817 0.0000 0.0000 0.0000
# 3 7.5817 7.5817 102.2769 0.0000 0.0000 0.0000
# 4 0.0000 0.0000 0.0000 -33.7574 0.0000 0.0000
# 5 0.0000 0.0000 0.0000 0.0000 -33.7574 0.0000
# 6 0.0000 0.0000 0.0000 0.0000 0.0000 1.5157
#
#
#
# Elastic Compliance Matrix: (Units=1/GPa)
#
#
# Indices 1 2 3 4 5 6 
#
# 1 0.168311 -0.161576 -0.000499 0.000000 0.000000 0.000000
# 2 -0.161576 0.168311 -0.000499 0.000000 0.000000 0.000000
# 3 -0.000499 -0.000499 0.009851 0.000000 0.000000 0.000000
# 4 0.000000 0.000000 0.000000 -0.029623 0.000000 0.000000
# 5 0.000000 0.000000 0.000000 0.000000 -0.029623 0.000000
# 6 0.000000 0.000000 0.000000 0.000000 0.000000 0.659773
#
#
# Mechanical properties :
#
#
# Convention : Reuss Voigt Hill
#
# Bulk Modulus (GPa) = 46.89707 47.98171 47.43939
# Shear Modulus (GPa) = 3.90852 -2.10193 0.90329
#
# Velocity S-wave (km/s) = 1.44266 -1.05796 0.69354
# Velocity P-wave (km/s) = 5.26760 4.90488 5.08947
#
# Compressibility (1/GPa) = 0.02132329
#
# Stress axis : x y z
#
# Youngs Moduli (GPa) = 5.94140 5.94140 101.50851
#
# Poissons Ratio (x) = 0.95999 0.05067
# Poissons Ratio (y) = 0.95999 0.05067
# Poissons Ratio (z) = 0.00297 0.00297
#
# Static dielectric constant tensor:
#      x y z
#    x 1.638620 0.000000 0.000000 
#    y 0.000000 1.638620 0.000000 
#    z 0.000000 0.000000 1.751770 
# 
# From -- ./inp_files/7625.got.cif
#   From: 2010.05.17/outbox.cif.g08.bks.cpg/sg191_4_cif.got.tgz:7625.got - 2010.05.20 12:20:32.
