data_PCOD9588791
_publ_section_title
;
Structure prediction by ZEFSAII (Michael W. Deem and Ramdas Pophale) SiO2 
 PCOD9588791
Probable space group: P 6/M C C
;
_chemical_formula_sum "Si O2"
_cell_formula_units_Z 152
_cell_length_a 18.418972
_cell_length_b 18.418972
_cell_length_c 28.891595
_cell_angle_alpha 90.000000
_cell_angle_beta 90.000000
_cell_angle_gamma 120.000000
_cell_volume 8488.538552
_symmetry_space_group_name_H-M "P 6/M C C"
_symmetry_group_IT_number 192
_symmetry_cell_setting 'hexagonal'
loop_
_space_group_symop_operation_xyz
x,y,z
x-y,x,z
-y,x-y,z
-x,-y,z
-x+y,-x,z
y,-x+y,z
x-y,-y,1/2-z
-x,-x+y,1/2-z
y,x,1/2-z
-y,-x,1/2-z
-x+y,y,1/2-z
x,x-y,1/2-z
-x,-y,-z
-x+y,-x,-z
y,-x+y,-z
x,y,-z
x-y,x,-z
-y,x-y,-z
-x+y,y,1/2+z
x,x-y,1/2+z
-y,-x,1/2+z
y,x,1/2+z
x-y,-y,1/2+z
-x,-x+y,1/2+z
loop_
_atom_site_type_symbol
_atom_site_label
_atom_site_fract_x
_atom_site_fract_y
_atom_site_fract_z
Si Si1 0.375535 0.457585 0.716399
Si Si2 0.645164 0.487383 0.807395
Si Si3 0.671486 0.499019 0.945466
Si Si4 0.341178 0.500799 0.444384
Si Si5 0.358087 0.102847 0.124204
Si Si6 0.666668 0.333334 0.693766
Si Si7 0.915027 0.645919 0.870685
O O1 0.411997 0.411997 0.750000
O O2 0.332514 0.489449 0.753528
O O3 0.445443 0.543866 0.692383
O O4 0.313557 0.399845 0.677156
O O5 0.692717 0.571098 0.837028
O O6 0.667154 0.416991 0.822310
O O7 0.580029 0.428785 0.928894
O O8 0.743470 0.474741 0.937352
O O9 0.706320 0.588531 0.922300
O O10 0.664270 0.504687 0.000000
O O11 0.343637 0.486016 0.500000
O O12 0.315291 0.420092 0.412653
O O13 0.332597 0.173589 0.128654
O O14 0.284462 0.008120 0.125704
O O15 0.666668 0.333334 0.750000
#
# Coordination Sequence:
#
# PCOD9588791 Si02
#       7
#    24  24  24  24  24   8  24
#     4  11  21  35  54  78 110 148 185 225 267 315
#     4  11  22  34  51  76 111 151 186 217 259 304
#     4   9  18  33  54  81 114 155 193 230 267 309
#     4   9  18  34  55  82 118 156 197 233 266 313
#     4  11  24  39  57  78 108 140 183 234 282 347
#     4  12  21  33  48  75 109 152 187 222 246 306
#     4  11  24  39  56  81 104 142 183 231 290 339
#
# _framework density 17.906499
#
# number of rings (size 3 to 8) (size 9 to 14) (size 15 to 20)
#    0.000    1.579    3.158    3.158    0.000    5.053 
#    0.000    1.579    0.000    0.316    0.000    0.000 
#    0.000    0.000    0.947    7.895    0.000    0.000 
#
# Total GULP energy -848772.079513 kJ/mol
# GULP energy per Si atom -5584.026839 kJ/mol
# Density = 1.786574 g / cm^3
# Si number density = 17.906499 Si / 1000 Ang^3
#
#
#
# Elastic Constant Matrix: (Units=GPa)
#
#
# Indices 1 2 3 4 5 6 
#
# 1 106.4493 79.4472 32.8056 0.0000 0.0000 0.0000
# 2 79.4472 106.4497 32.8056 -0.0001 0.0000 0.0000
# 3 32.8056 32.8056 50.5303 0.0000 0.0000 0.0000
# 4 0.0000 -0.0001 0.0000 18.2473 0.0000 0.0000
# 5 0.0000 0.0000 0.0000 0.0000 18.2472 0.0000
# 6 0.0000 0.0000 0.0000 0.0000 0.0000 13.5012
#
#
#
# Elastic Compliance Matrix: (Units=1/GPa)
#
#
# Indices 1 2 3 4 5 6 
#
# 1 0.022006 -0.015028 -0.004531 0.000000 0.000000 0.000000
# 2 -0.015028 0.022006 -0.004531 0.000000 0.000000 0.000000
# 3 -0.004531 -0.004531 0.025673 0.000000 0.000000 0.000000
# 4 0.000000 0.000000 0.000000 0.054803 0.000000 0.000000
# 5 0.000000 0.000000 0.000000 0.000000 0.054803 0.000000
# 6 0.000000 0.000000 0.000000 0.000000 0.000000 0.074067
#
#
# Mechanical properties :
#
#
# Convention : Reuss Voigt Hill
#
# Bulk Modulus (GPa) = 46.49570 61.50514 54.00042
# Shear Modulus (GPa) = 16.19670 17.89052 17.04361
#
# Velocity S-wave (km/s) = 3.01078 3.16430 3.08849
# Velocity P-wave (km/s) = 6.17321 6.91179 6.55292
#
# Compressibility (1/GPa) = 0.02150737
#
# Stress axis : x y z
#
# Youngs Moduli (GPa) = 45.44184 45.44208 38.95170
#
# Poissons Ratio (x) = 0.68289 0.17647
# Poissons Ratio (y) = 0.68289 0.17647
# Poissons Ratio (z) = 0.20588 0.20588
#
# Static dielectric constant tensor:
#      x y z
#    x 1.632820 0.000000 0.000000 
#    y 0.000000 1.632820 0.000000 
#    z 0.000000 0.000000 1.659310 
# 
# From -- ./inp_files/7135.got.cif
#   From: 2010.05.17/outbox.cif.g08.bks.cpg/sg192_4_cif.got.tgz:7135.got - 2010.05.20 12:28:01.
