data_PCOD9588704
_publ_section_title
;
Structure prediction by ZEFSAII (Michael W. Deem and Ramdas Pophale) SiO2 
 PCOD9588704
Probable space group: P 6/M C C
;
_chemical_formula_sum "Si O2"
_cell_formula_units_Z 56
_cell_length_a 12.665029
_cell_length_b 12.665029
_cell_length_c 17.004395
_cell_angle_alpha 90.000000
_cell_angle_beta 90.000000
_cell_angle_gamma 120.000000
_cell_volume 2362.132166
_symmetry_space_group_name_H-M "P 6/M C C"
_symmetry_group_IT_number 192
_symmetry_cell_setting 'hexagonal'
loop_
_space_group_symop_operation_xyz
x,y,z
x-y,x,z
-y,x-y,z
-x,-y,z
-x+y,-x,z
y,-x+y,z
x-y,-y,1/2-z
-x,-x+y,1/2-z
y,x,1/2-z
-y,-x,1/2-z
-x+y,y,1/2-z
x,x-y,1/2-z
-x,-y,-z
-x+y,-x,-z
y,-x+y,-z
x,y,-z
x-y,x,-z
-y,x-y,-z
-x+y,y,1/2+z
x,x-y,1/2+z
-y,-x,1/2+z
y,x,1/2+z
x-y,-y,1/2+z
-x,-x+y,1/2+z
loop_
_atom_site_type_symbol
_atom_site_label
_atom_site_fract_x
_atom_site_fract_y
_atom_site_fract_z
Si Si1 0.327929 0.462553 0.697148
Si Si2 0.666668 0.333334 0.907879
Si Si3 0.747889 0.001130 0.909914
O O1 0.438399 0.561602 0.750000
O O2 0.207867 0.415734 0.750000
O O3 0.316576 0.541594 0.626832
O O4 0.334866 0.353358 0.654720
O O5 0.666667 0.333334 0.000000
O O6 0.880602 0.122274 0.900903
O O7 0.705577 0.999465 0.000000
#
# Coordination Sequence:
#
# PCOD9588704 Si02
#       3
#    24   8  24
#     4   9  19  36  56  85 124 165 211 265 326 391
#     4   9  16  32  58  84 115 158 208 264 325 386
#     4  10  21  39  64  94 129 171 219 268 318 378
#
# _framework density 23.707394000000001
#
# number of rings (size 3 to 8) (size 9 to 14) (size 15 to 20)
#    0.000    2.571    0.000    3.429    0.000    3.429 
#    0.000   21.429    0.000   25.714    0.000    0.000 
#    0.000    0.000    0.000    0.000    0.000    0.000 
#
# Total GULP energy -313512.781625 kJ/mol
# GULP energy per Si atom -5598.442529 kJ/mol
# Density = 2.365343 g / cm^3
# Si number density = 23.707394 Si / 1000 Ang^3
#
#
#
# Elastic Constant Matrix: (Units=GPa)
#
#
# Indices 1 2 3 4 5 6 
#
# 1 85.4071 5.7557 51.4468 0.0000 0.0000 -0.0001
# 2 5.7557 85.4077 51.4470 -0.0001 0.0000 0.0000
# 3 51.4468 51.4470 174.9906 -0.0002 -0.0001 0.0000
# 4 0.0000 -0.0001 -0.0002 38.2498 0.0001 0.0000
# 5 0.0000 0.0000 -0.0001 0.0001 38.2495 0.0000
# 6 -0.0001 0.0000 0.0000 0.0000 0.0000 39.8259
#
#
#
# Elastic Compliance Matrix: (Units=1/GPa)
#
#
# Indices 1 2 3 4 5 6 
#
# 1 0.014486 0.001931 -0.004827 0.000000 0.000000 0.000000
# 2 0.001931 0.014486 -0.004827 0.000000 0.000000 0.000000
# 3 -0.004827 -0.004827 0.008553 0.000000 0.000000 0.000000
# 4 0.000000 0.000000 0.000000 0.026144 0.000000 0.000000
# 5 0.000000 0.000000 0.000000 0.000000 0.026144 0.000000
# 6 0.000000 0.000000 0.000000 0.000000 0.000000 0.025109
#
#
# Mechanical properties :
#
#
# Convention : Reuss Voigt Hill
#
# Bulk Modulus (GPa) = 45.28922 62.56716 53.92819
# Shear Modulus (GPa) = 36.30406 39.07543 37.68974
#
# Velocity S-wave (km/s) = 3.91748 4.06425 3.99154
# Velocity P-wave (km/s) = 6.29341 6.96225 6.63626
#
# Compressibility (1/GPa) = 0.02208031
#
# Stress axis : x y z
#
# Youngs Moduli (GPa) = 69.03276 69.03326 116.92363
#
# Poissons Ratio (x) = -0.13331 0.56434
# Poissons Ratio (y) = -0.13331 0.56434
# Poissons Ratio (z) = 0.33319 0.33319
#
# Static dielectric constant tensor:
#      x y z
#    x 1.919910 0.000000 0.000000 
#    y 0.000000 1.919900 0.000000 
#    z 0.000000 0.000000 1.904800 
# 
# From -- ./inp_files/2223.got.cif
#   From: 2010.05.17/outbox.cif.g08.bks.cpg/sg192_2_cif.got.tgz:2223.got - 2010.05.20 12:28:01.
