data_PCOD9588232
_publ_section_title
;
Structure prediction by ZEFSAII (Michael W. Deem and Ramdas Pophale) SiO2 
 PCOD9588232
Probable space group: P 6/M M M
;
_chemical_formula_sum "Si O2"
_cell_formula_units_Z 111
_cell_length_a 31.682189
_cell_length_b 31.682189
_cell_length_c 8.132550
_cell_angle_alpha 90.000000
_cell_angle_beta 90.000000
_cell_angle_gamma 120.000000
_cell_volume 7069.484304
_symmetry_space_group_name_H-M "P 6/M M M"
_symmetry_group_IT_number 191
_symmetry_cell_setting 'hexagonal'
loop_
_space_group_symop_operation_xyz
x,y,z
x-y,x,z
-y,x-y,z
-x,-y,z
-x+y,-x,z
y,-x+y,z
x-y,-y,-z
-x,-x+y,-z
y,x,-z
-y,-x,-z
-x+y,y,-z
x,x-y,-z
-x,-y,-z
-x+y,-x,-z
y,-x+y,-z
x,y,-z
x-y,x,-z
-y,x-y,-z
-x+y,y,z
x,x-y,z
-y,-x,z
y,x,z
x-y,-y,z
-x,-x+y,z
loop_
_atom_site_type_symbol
_atom_site_label
_atom_site_fract_x
_atom_site_fract_y
_atom_site_fract_z
Si Si1 0.899609 0.363563 0.808740
Si Si2 0.500000 0.000000 0.000000
Si Si3 0.371025 0.000000 0.693605
Si Si4 0.462147 0.537854 0.314136
Si Si5 0.725294 0.725294 0.807778
Si Si6 0.160762 0.416088 0.301565
Si Si7 0.801190 0.697298 0.301320
O O1 0.952054 0.368315 0.769735
O O2 0.895267 0.403982 0.704950
O O3 0.859695 0.308582 0.767729
O O4 0.897936 0.372873 0.000000
O O5 0.520565 0.041129 0.848571
O O6 0.320465 0.000000 0.719018
O O7 0.379663 0.000000 0.500000
O O8 0.472931 0.527070 0.500000
O O9 0.725916 0.774994 0.763061
O O10 0.715862 0.715862 0.000000
O O11 0.158703 0.416719 0.500000
O O12 0.215300 0.430599 0.252587
O O13 0.126414 0.359444 0.251805
O O14 0.801179 0.698843 0.500000
O O15 0.856180 0.712359 0.249056
#
# Coordination Sequence:
#
# PCOD9588232 Si02
#       7
#    24   3  12  12  12  24  24
#     4  12  23  37  52  76 104 129 173 217 257 308
#     4  12  22  44  52  82 100 132 182 224 252 310
#     4  12  23  34  48  67  94 137 178 209 248 299
#     4  12  25  41  57  72 101 141 174 217 269 308
#     4  12  22  31  46  74  99 129 165 210 258 295
#     4   9  18  33  53  75  99 132 170 206 251 304
#     4   9  18  33  51  69  93 128 168 207 243 288
#
# _framework density 15.701287000000001
#
# number of rings (size 3 to 8) (size 9 to 14) (size 15 to 20)
#    0.000    1.297    3.243    6.000    0.000    0.865 
#    0.000    2.162    0.000    0.000    0.000    0.000 
#    1.081    0.000    1.946    0.324    1.946    6.270 
#
# Total GULP energy -618774.476667 kJ/mol
# GULP energy per Si atom -5574.544835 kJ/mol
# Density = 1.566555 g / cm^3
# Si number density = 15.701287 Si / 1000 Ang^3
#
#
#
# Elastic Constant Matrix: (Units=GPa)
#
#
# Indices 1 2 3 4 5 6 
#
# 1 481.5622 -324.8946 21.1158 0.0000 0.0000 0.0001
# 2 -324.8946 481.5622 21.1158 0.0000 0.0000 -0.0001
# 3 21.1158 21.1158 76.6387 0.0000 0.0000 0.0000
# 4 0.0000 0.0000 0.0000 25.1308 0.0000 0.0000
# 5 0.0000 0.0000 0.0000 0.0000 25.1308 0.0000
# 6 0.0001 -0.0001 0.0000 0.0000 0.0000 403.2283
#
#
#
# Elastic Compliance Matrix: (Units=1/GPa)
#
#
# Indices 1 2 3 4 5 6 
#
# 1 0.004068 0.002828 -0.001900 0.000000 0.000000 0.000000
# 2 0.002828 0.004068 -0.001900 0.000000 0.000000 0.000000
# 3 -0.001900 -0.001900 0.014095 0.000000 0.000000 0.000000
# 4 0.000000 0.000000 0.000000 0.039792 0.000000 0.000000
# 5 0.000000 0.000000 0.000000 0.000000 0.039792 0.000000
# 6 0.000000 0.000000 0.000000 0.000000 0.000000 0.002480
#
#
# Mechanical properties :
#
#
# Convention : Reuss Voigt Hill
#
# Bulk Modulus (GPa) = 49.29465 52.71522 51.00493
# Shear Modulus (GPa) = 44.24789 178.85973 111.55381
#
# Velocity S-wave (km/s) = 5.31434 10.68463 8.43812
# Velocity P-wave (km/s) = 8.31383 13.63312 11.29118
#
# Compressibility (1/GPa) = 0.02028618
#
# Stress axis : x y z
#
# Youngs Moduli (GPa) = 245.85022 245.85022 70.94669
#
# Poissons Ratio (x) = -0.69515 0.13478
# Poissons Ratio (y) = -0.69515 0.13478
# Poissons Ratio (z) = 0.46705 0.46705
#
# Static dielectric constant tensor:
#      x y z
#    x 1.489150 0.000000 0.000000 
#    y 0.000000 1.489150 0.000000 
#    z 0.000000 0.000000 1.549900 
# 
# From -- ./inp_files/1795.got.cif
#   From: 2010.05.17/outbox.cif.g08.bks.cpg/sg191_1_cif.got.tgz:1795.got - 2010.05.20 12:20:32.
