data_PCOD9588193
_publ_section_title
;
Structure prediction by ZEFSAII (Michael W. Deem and Ramdas Pophale) SiO2 
 PCOD9588193
Probable space group: P 6/M M M
;
_chemical_formula_sum "Si O2"
_cell_formula_units_Z 120
_cell_length_a 21.996424
_cell_length_b 21.996424
_cell_length_c 18.271880
_cell_angle_alpha 90.000000
_cell_angle_beta 90.000000
_cell_angle_gamma 120.000000
_cell_volume 7656.283936
_symmetry_space_group_name_H-M "P 6/M M M"
_symmetry_group_IT_number 191
_symmetry_cell_setting 'hexagonal'
loop_
_space_group_symop_operation_xyz
x,y,z
x-y,x,z
-y,x-y,z
-x,-y,z
-x+y,-x,z
y,-x+y,z
x-y,-y,-z
-x,-x+y,-z
y,x,-z
-y,-x,-z
-x+y,y,-z
x,x-y,-z
-x,-y,-z
-x+y,-x,-z
y,-x+y,-z
x,y,-z
x-y,x,-z
-y,x-y,-z
-x+y,y,z
x,x-y,z
-y,-x,z
y,x,z
x-y,-y,z
-x,-x+y,z
loop_
_atom_site_type_symbol
_atom_site_label
_atom_site_fract_x
_atom_site_fract_y
_atom_site_fract_z
Si Si1 0.383850 0.120969 0.311481
Si Si2 0.141015 0.000000 0.589013
Si Si3 0.443039 0.295198 0.918730
Si Si4 0.921056 0.700816 0.159329
Si Si5 0.523040 0.335117 0.227371
Si Si6 0.283991 0.000000 0.412628
O O1 0.386558 0.193279 0.330665
O O2 0.333612 0.090293 0.240136
O O3 0.461090 0.140878 0.284198
O O4 0.349515 0.067117 0.376895
O O5 0.141785 0.070893 0.613415
O O6 0.212147 0.000000 0.609244
O O7 0.139039 0.000000 0.500000
O O8 0.446903 0.223452 0.919917
O O9 0.363165 0.268863 0.895176
O O10 0.494345 0.339585 0.853060
O O11 0.459660 0.326206 0.000000
O O12 0.859819 0.719637 0.148344
O O13 0.000000 0.762978 0.151556
O O14 0.530048 0.265024 0.227689
O O15 0.596166 0.403835 0.243015
O O16 0.286866 0.000000 0.500000
#
# Coordination Sequence:
#
# PCOD9588193 Si02
#       6
#    24  12  24  24  24  12
#     4   9  18  32  48  69  96 124 157 196 237 279
#     4   9  17  28  43  67 100 132 155 177 214 270
#     4   8  15  27  43  67  98 127 154 189 231 272
#     4   9  16  28  47  66  88 124 165 200 235 277
#     4   9  17  30  50  73  97 127 160 193 231 280
#     4  11  20  31  51  73  92 120 159 201 245 289
#
# _framework density 15.673400000000001
#
# number of rings (size 3 to 8) (size 9 to 14) (size 15 to 20)
#    0.000    3.000    1.000    3.300    0.000    2.400 
#    0.000    0.500    0.000    2.600    0.000    2.800 
#    0.000    1.600    0.000    5.000    0.000    0.000 
#
# Total GULP energy -668220.445033 kJ/mol
# GULP energy per Si atom -5568.503709 kJ/mol
# Density = 1.563773 g / cm^3
# Si number density = 15.673400 Si / 1000 Ang^3
#
#
#
# Elastic Constant Matrix: (Units=GPa)
#
#
# Indices 1 2 3 4 5 6 
#
# 1 96.7848 54.3231 38.8335 0.0000 0.0000 0.0000
# 2 54.3231 96.7848 38.8335 0.0000 0.0000 0.0000
# 3 38.8335 38.8335 77.4138 0.0000 0.0000 0.0000
# 4 0.0000 0.0000 0.0000 12.7461 0.0000 0.0000
# 5 0.0000 0.0000 0.0000 0.0000 12.7461 0.0000
# 6 0.0000 0.0000 0.0000 0.0000 0.0000 21.2309
#
#
#
# Elastic Compliance Matrix: (Units=1/GPa)
#
#
# Indices 1 2 3 4 5 6 
#
# 1 0.016234 -0.007317 -0.004473 0.000000 0.000000 0.000000
# 2 -0.007317 0.016234 -0.004473 0.000000 0.000000 0.000000
# 3 -0.004473 -0.004473 0.017405 0.000000 0.000000 0.000000
# 4 0.000000 0.000000 0.000000 0.078455 0.000000 0.000000
# 5 0.000000 0.000000 0.000000 0.000000 0.078455 0.000000
# 6 0.000000 0.000000 0.000000 0.000000 0.000000 0.047101
#
#
# Mechanical properties :
#
#
# Convention : Reuss Voigt Hill
#
# Bulk Modulus (GPa) = 57.64719 59.44038 58.54378
# Shear Modulus (GPa) = 17.11199 18.61084 17.86142
#
# Velocity S-wave (km/s) = 3.30780 3.44963 3.37946
# Velocity P-wave (km/s) = 7.17279 7.33984 7.25679
#
# Compressibility (1/GPa) = 0.01734690
#
# Stress axis : x y z
#
# Youngs Moduli (GPa) = 61.60019 61.60019 57.45409
#
# Poissons Ratio (x) = 0.45072 0.25699
# Poissons Ratio (y) = 0.45072 0.25699
# Poissons Ratio (z) = 0.27554 0.27554
#
# Static dielectric constant tensor:
#      x y z
#    x 1.518670 0.000000 0.000000 
#    y 0.000000 1.518670 0.000000 
#    z 0.000000 0.000000 1.535120 
# 
# From -- ./inp_files/6300.got.cif
#   From: 2010.05.17/outbox.cif.g08.bks.cpg/sg191_4_cif.got.tgz:6300.got - 2010.05.20 12:20:32.
