data_PCOD9588155
_publ_section_title
;
Structure prediction by ZEFSAII (Michael W. Deem and Ramdas Pophale) SiO2 
 PCOD9588155
Probable space group: P 6/M M M
;
_chemical_formula_sum "Si O2"
_cell_formula_units_Z 144
_cell_length_a 30.934685
_cell_length_b 30.934685
_cell_length_c 9.049362
_cell_angle_alpha 90.000000
_cell_angle_beta 90.000000
_cell_angle_gamma 120.000000
_cell_volume 7499.632620
_symmetry_space_group_name_H-M "P 6/M M M"
_symmetry_group_IT_number 191
_symmetry_cell_setting 'hexagonal'
loop_
_space_group_symop_operation_xyz
x,y,z
x-y,x,z
-y,x-y,z
-x,-y,z
-x+y,-x,z
y,-x+y,z
x-y,-y,-z
-x,-x+y,-z
y,x,-z
-y,-x,-z
-x+y,y,-z
x,x-y,-z
-x,-y,-z
-x+y,-x,-z
y,-x+y,-z
x,y,-z
x-y,x,-z
-y,x-y,-z
-x+y,y,z
x,x-y,z
-y,-x,z
y,x,z
x-y,-y,z
-x,-x+y,z
loop_
_atom_site_type_symbol
_atom_site_label
_atom_site_fract_x
_atom_site_fract_y
_atom_site_fract_z
Si Si1 0.090195 0.407280 0.327814
Si Si2 0.058344 0.843183 0.322031
Si Si3 0.666070 0.435510 0.331474
Si Si4 0.517847 0.939804 0.826685
Si Si5 0.695188 0.754443 0.165665
Si Si6 0.182972 0.468923 0.835832
O O1 0.078589 0.401060 0.500000
O O2 0.076489 0.447278 0.259230
O O3 0.066975 0.354113 0.247900
O O4 0.148381 0.432069 0.289531
O O5 0.058722 0.839352 0.500000
O O6 0.099957 0.900044 0.281336
O O7 0.075104 0.805524 0.252947
O O8 0.000000 0.823050 0.279469
O O9 0.665908 0.453049 0.500000
O O10 0.714436 0.428872 0.319756
O O11 0.616649 0.383352 0.310173
O O12 0.671837 0.476124 0.213031
O O13 0.461202 0.922404 0.773316
O O14 0.547342 0.000000 0.819622
O O15 0.514677 0.926198 0.000000
O O16 0.729754 0.729754 0.152863
O O17 0.682620 0.763830 0.000000
O O18 0.234770 0.469540 0.838866
O O19 0.160481 0.455251 0.000000
#
# Coordination Sequence:
#
# PCOD9588155 Si02
#       6
#    24  24  24  24  24  24
#     4  12  24  36  55  80 106 139 177 220 273 332
#     4   9  18  34  57  86 121 160 201 244 289 336
#     4   9  17  31  52  76 100 125 155 195 247 308
#     4   9  19  37  59  81 107 140 177 219 268 321
#     4  10  21  37  57  81 110 144 183 228 276 326
#     4  10  22  39  55  71  95 129 168 210 255 303
#
# _framework density 19.200941
#
# number of rings (size 3 to 8) (size 9 to 14) (size 15 to 20)
#    0.000    2.167    0.000    3.667    0.000    7.333 
#    0.000    0.833    0.000    1.167    0.000    1.167 
#    0.000    0.000    0.000    4.167    0.000    4.333 
#
# Total GULP energy -802810.109235 kJ/mol
# GULP energy per Si atom -5575.070203 kJ/mol
# Density = 1.915724 g / cm^3
# Si number density = 19.200941 Si / 1000 Ang^3
#
#
#
# Elastic Constant Matrix: (Units=GPa)
#
#
# Indices 1 2 3 4 5 6 
#
# 1 82.7737 35.0208 35.3794 0.0000 0.0000 0.0000
# 2 35.0208 82.7737 35.3794 0.0000 0.0000 0.0000
# 3 35.3794 35.3794 72.3780 0.0000 0.0000 0.0000
# 4 0.0000 0.0000 0.0000 21.8492 0.0000 0.0000
# 5 0.0000 0.0000 0.0000 0.0000 21.8492 0.0000
# 6 0.0000 0.0000 0.0000 0.0000 0.0000 23.8765
#
#
#
# Elastic Compliance Matrix: (Units=1/GPa)
#
#
# Indices 1 2 3 4 5 6 
#
# 1 0.016480 -0.004461 -0.005875 0.000000 0.000000 0.000000
# 2 -0.004461 0.016480 -0.005875 0.000000 0.000000 0.000000
# 3 -0.005875 -0.005875 0.019560 0.000000 0.000000 0.000000
# 4 0.000000 0.000000 0.000000 0.045768 0.000000 0.000000
# 5 0.000000 0.000000 0.000000 0.000000 0.045768 0.000000
# 6 0.000000 0.000000 0.000000 0.000000 0.000000 0.041882
#
#
# Mechanical properties :
#
#
# Convention : Reuss Voigt Hill
#
# Bulk Modulus (GPa) = 49.75776 49.94273 49.85024
# Shear Modulus (GPa) = 22.21641 22.32467 22.27054
#
# Velocity S-wave (km/s) = 3.40523 3.41352 3.40938
# Velocity P-wave (km/s) = 6.43671 6.45005 6.44339
#
# Compressibility (1/GPa) = 0.02009737
#
# Stress axis : x y z
#
# Youngs Moduli (GPa) = 60.68070 60.68070 51.12565
#
# Poissons Ratio (x) = 0.27072 0.30035
# Poissons Ratio (y) = 0.27072 0.30035
# Poissons Ratio (z) = 0.35648 0.35648
#
# Static dielectric constant tensor:
#      x y z
#    x 1.685260 0.000000 0.000000 
#    y 0.000000 1.685260 0.000000 
#    z 0.000000 0.000000 1.692730 
# 
# From -- ./inp_files/1940.got.cif
#   From: 2010.05.17/outbox.cif.g08.bks.cpg/sg191_1_cif.got.tgz:1940.got - 2010.05.20 12:20:32.
