data_PCOD9588882
_publ_section_title
;
Structure prediction by ZEFSAII (Michael W. Deem and Ramdas Pophale) SiO2 
 PCOD9588882
Probable space group: P 63/M C M
;
_chemical_formula_sum "Si O2"
_cell_formula_units_Z 116
_cell_length_a 18.028804
_cell_length_b 18.028804
_cell_length_c 28.451672
_cell_angle_alpha 90.000000
_cell_angle_beta 90.000000
_cell_angle_gamma 120.000000
_cell_volume 8008.888726
_symmetry_space_group_name_H-M "P 63/M C M"
_symmetry_group_IT_number 193
_symmetry_cell_setting 'hexagonal'
loop_
_space_group_symop_operation_xyz
x,y,z
x-y,x,1/2+z
-y,x-y,z
-x,-y,1/2+z
-x+y,-x,z
y,-x+y,1/2+z
x-y,-y,1/2-z
-x,-x+y,1/2-z
y,x,1/2-z
-y,-x,-z
-x+y,y,-z
x,x-y,-z
-x,-y,-z
-x+y,-x,1/2-z
y,-x+y,-z
x,y,1/2-z
x-y,x,-z
-y,x-y,1/2-z
-x+y,y,1/2+z
x,x-y,1/2+z
-y,-x,1/2+z
y,x,z
x-y,-y,z
-x,-x+y,z
loop_
_atom_site_type_symbol
_atom_site_label
_atom_site_fract_x
_atom_site_fract_y
_atom_site_fract_z
Si Si1 0.333334 0.666667 0.557202
Si Si2 0.366658 0.464694 0.503134
Si Si3 0.589142 0.906208 0.104312
Si Si4 0.619682 0.220861 0.750000
Si Si5 0.276407 0.476490 0.910277
Si Si6 0.098726 0.530109 0.160022
O O1 0.333334 0.666667 0.500000
O O2 0.281621 0.711454 0.577734
O O3 0.433722 0.566279 0.500000
O O4 0.421680 0.421680 0.520419
O O5 0.335337 0.431891 0.451062
O O6 0.293272 0.445485 0.540014
O O7 0.585372 0.816461 0.111656
O O8 0.510432 0.901889 0.133111
O O9 0.670388 0.000000 0.114250
O O10 0.720090 0.294967 0.750000
O O11 0.594523 0.161181 0.704541
O O12 0.351901 0.489902 0.875631
O O13 0.000000 0.463783 0.172607
#
# Coordination Sequence:
#
# PCOD9588882 Si02
#       6
#     8  24  24  12  24  24
#     4  12  21  24  39  67  92 121 159 201 225 265
#     4  10  17  28  41  63  92 121 150 189 235 279
#     4  10  20  30  43  61  90 120 151 190 235 271
#     4  10  23  36  52  66  84 110 151 194 234 260
#     4  12  19  29  44  64  89 119 159 191 235 266
#     4  11  21  34  48  65  86 115 148 194 237 275
#
# _framework density 14.483907
#
# number of rings (size 3 to 8) (size 9 to 14) (size 15 to 20)
#    0.207    1.034    4.138    4.655    0.000    0.000 
#    0.000    0.000    0.000    0.000    0.000    0.000 
#    0.000    0.000    0.000    4.966    0.000   38.069 
#
# Total GULP energy -647058.820844 kJ/mol
# GULP energy per Si atom -5578.093283 kJ/mol
# Density = 1.445094 g / cm^3
# Si number density = 14.483907 Si / 1000 Ang^3
#
#
#
# Elastic Constant Matrix: (Units=GPa)
#
#
# Indices 1 2 3 4 5 6 
#
# 1 63.7152 22.3536 21.8697 0.0000 0.0000 0.0000
# 2 22.3536 63.7152 21.8696 0.0000 0.0001 0.0000
# 3 21.8697 21.8696 76.2177 0.0000 -0.0001 0.0000
# 4 0.0000 0.0000 0.0000 22.2816 0.0001 0.0000
# 5 0.0000 0.0001 -0.0001 0.0001 22.2820 0.0000
# 6 0.0000 0.0000 0.0000 0.0000 0.0000 20.6808
#
#
#
# Elastic Compliance Matrix: (Units=1/GPa)
#
#
# Indices 1 2 3 4 5 6 
#
# 1 0.018890 -0.005287 -0.003903 0.000000 0.000000 0.000000
# 2 -0.005287 0.018890 -0.003903 0.000000 0.000000 0.000000
# 3 -0.003903 -0.003903 0.015360 0.000000 0.000000 0.000000
# 4 0.000000 0.000000 0.000000 0.044880 0.000000 0.000000
# 5 0.000000 0.000000 0.000000 0.000000 0.044879 0.000000
# 6 0.000000 0.000000 0.000000 0.000000 0.000000 0.048354
#
#
# Mechanical properties :
#
#
# Convention : Reuss Voigt Hill
#
# Bulk Modulus (GPa) = 37.10233 37.31487 37.20860
# Shear Modulus (GPa) = 22.08252 22.21922 22.15087
#
# Velocity S-wave (km/s) = 3.90888 3.92096 3.91493
# Velocity P-wave (km/s) = 6.78560 6.80570 6.79565
#
# Compressibility (1/GPa) = 0.02695248
#
# Stress axis : x y z
#
# Youngs Moduli (GPa) = 52.93941 52.93941 65.10375
#
# Poissons Ratio (x) = 0.27992 0.25410
# Poissons Ratio (y) = 0.27992 0.25409
# Poissons Ratio (z) = 0.20662 0.20662
#
# Static dielectric constant tensor:
#      x y z
#    x 1.506530 0.000000 0.000000 
#    y 0.000000 1.506530 0.000000 
#    z 0.000000 0.000000 1.486250 
# 
# From -- ./inp_files/9111.got.cif
#   From: 2010.05.17/outbox.cif.g08.bks.cpg/sg193_5_cif.got.tgz:9111.got - 2010.05.20 12:33:02.
