data_PCOD9588051
_publ_section_title
;
Structure prediction by ZEFSAII (Michael W. Deem and Ramdas Pophale) SiO2 
 PCOD9588051
Probable space group: P 6/M M M
;
_chemical_formula_sum "Si O2"
_cell_formula_units_Z 108
_cell_length_a 24.837802
_cell_length_b 24.837802
_cell_length_c 11.596042
_cell_angle_alpha 90.000000
_cell_angle_beta 90.000000
_cell_angle_gamma 120.000000
_cell_volume 6195.362643
_symmetry_space_group_name_H-M "P 6/M M M"
_symmetry_group_IT_number 191
_symmetry_cell_setting 'hexagonal'
loop_
_space_group_symop_operation_xyz
x,y,z
x-y,x,z
-y,x-y,z
-x,-y,z
-x+y,-x,z
y,-x+y,z
x-y,-y,-z
-x,-x+y,-z
y,x,-z
-y,-x,-z
-x+y,y,-z
x,x-y,-z
-x,-y,-z
-x+y,-x,-z
y,-x+y,-z
x,y,-z
x-y,x,-z
-y,x-y,-z
-x+y,y,z
x,x-y,z
-y,-x,z
y,x,z
x-y,-y,z
-x,-x+y,z
loop_
_atom_site_type_symbol
_atom_site_label
_atom_site_fract_x
_atom_site_fract_y
_atom_site_fract_z
Si Si1 0.000000 0.881727 0.865645
Si Si2 0.874220 0.538781 0.223443
Si Si3 0.223059 0.000000 0.750232
Si Si4 0.340083 0.000000 0.138339
Si Si5 0.925454 0.462727 0.637577
Si Si6 0.792523 0.207478 0.637409
Si Si7 0.132890 0.265780 0.365890
Si Si8 0.333581 0.537681 0.000000
O O1 0.938694 0.877388 0.812554
O O2 0.000000 0.818366 0.855286
O O3 0.000000 0.894123 0.000000
O O4 0.895146 0.499624 0.303215
O O5 0.832967 0.559599 0.298411
O O6 0.937464 0.597772 0.176524
O O7 0.834413 0.498951 0.113664
O O8 0.283507 0.000000 0.794889
O O9 0.176841 0.936023 0.684726
O O10 0.333108 0.000000 0.000000
O O11 0.915606 0.457803 0.500000
O O12 0.000000 0.500000 0.658116
O O13 0.785162 0.214839 0.500000
O O14 0.829849 0.170152 0.649328
O O15 0.125438 0.250876 0.500000
O O16 0.393907 0.606093 0.000000
O O17 0.270220 0.540440 0.000000
#
# Coordination Sequence:
#
# PCOD9588051 Si02
#       8
#    12  24  12  12  12  12  12  12
#     4  10  20  35  57  81 107 148 197 246 306 370
#     4  12  23  42  66  95 131 172 211 262 327 382
#     4  12  22  41  59  84 124 160 202 261 315 379
#     4  12  25  38  61  99 131 160 208 258 318 393
#     4  11  24  41  65  97 132 171 218 267 319 385
#     4  11  24  43  65  91 127 171 220 265 317 387
#     4  11  24  40  62  87 117 163 215 263 318 374
#     4  12  25  43  71  95 131 174 217 269 315 387
#
# _framework density 17.432393999999999
#
# number of rings (size 3 to 8) (size 9 to 14) (size 15 to 20)
#    0.000    0.556    7.778    1.556    0.000    0.444 
#    0.000    2.778    0.000    0.000    0.000    4.667 
#    0.000    0.000    0.000    0.000    0.000    0.000 
#
# Total GULP energy -602877.049739 kJ/mol
# GULP energy per Si atom -5582.194905 kJ/mol
# Density = 1.739272 g / cm^3
# Si number density = 17.432394 Si / 1000 Ang^3
#
#
#
# Elastic Constant Matrix: (Units=GPa)
#
#
# Indices 1 2 3 4 5 6 
#
# 1 169.8179 88.7757 88.1718 0.0000 0.0000 0.0000
# 2 88.7757 169.8179 88.1718 0.0000 0.0000 0.0000
# 3 88.1718 88.1718 147.2820 0.0000 0.0000 0.0000
# 4 0.0000 0.0000 0.0000 31.6463 0.0000 0.0000
# 5 0.0000 0.0000 0.0000 0.0000 31.6463 0.0000
# 6 0.0000 0.0000 0.0000 0.0000 0.0000 40.5211
#
#
#
# Elastic Compliance Matrix: (Units=1/GPa)
#
#
# Indices 1 2 3 4 5 6 
#
# 1 0.009437 -0.002902 -0.003912 0.000000 0.000000 0.000000
# 2 -0.002902 0.009437 -0.003912 0.000000 0.000000 0.000000
# 3 -0.003912 -0.003912 0.011474 0.000000 0.000000 0.000000
# 4 0.000000 0.000000 0.000000 0.031599 0.000000 0.000000
# 5 0.000000 0.000000 0.000000 0.000000 0.031599 0.000000
# 6 0.000000 0.000000 0.000000 0.000000 0.000000 0.024679
#
#
# Mechanical properties :
#
#
# Convention : Reuss Voigt Hill
#
# Bulk Modulus (GPa) = 112.42382 113.01737 112.72060
# Shear Modulus (GPa) = 35.05252 35.54932 35.30092
#
# Velocity S-wave (km/s) = 4.48902 4.52072 4.50490
# Velocity P-wave (km/s) = 9.56555 9.60322 9.58440
#
# Compressibility (1/GPa) = 0.00889491
#
# Stress axis : x y z
#
# Youngs Moduli (GPa) = 105.96483 105.96483 87.15473
#
# Poissons Ratio (x) = 0.30753 0.34097
# Poissons Ratio (y) = 0.30753 0.34097
# Poissons Ratio (z) = 0.41456 0.41456
#
# Static dielectric constant tensor:
#      x y z
#    x 1.575610 0.000000 0.000000 
#    y 0.000000 1.575610 0.000000 
#    z 0.000000 0.000000 1.568990 
# 
# From -- ./inp_files/3052.got.cif
#   From: 2010.05.17/outbox.cif.g08.bks.cpg/sg191_2_cif.got.tgz:3052.got - 2010.05.20 12:20:32.
