data_PCOD9588681
_publ_section_title
;
Structure prediction by ZEFSAII (Michael W. Deem and Ramdas Pophale) SiO2 
 PCOD9588681
Probable space group: P 6/M C C
;
_chemical_formula_sum "Si O2"
_cell_formula_units_Z 144
_cell_length_a 22.472954
_cell_length_b 22.472954
_cell_length_c 17.597568
_cell_angle_alpha 90.000000
_cell_angle_beta 90.000000
_cell_angle_gamma 120.000000
_cell_volume 7696.683170
_symmetry_space_group_name_H-M "P 6/M C C"
_symmetry_group_IT_number 192
_symmetry_cell_setting 'hexagonal'
loop_
_space_group_symop_operation_xyz
x,y,z
x-y,x,z
-y,x-y,z
-x,-y,z
-x+y,-x,z
y,-x+y,z
x-y,-y,1/2-z
-x,-x+y,1/2-z
y,x,1/2-z
-y,-x,1/2-z
-x+y,y,1/2-z
x,x-y,1/2-z
-x,-y,-z
-x+y,-x,-z
y,-x+y,-z
x,y,-z
x-y,x,-z
-y,x-y,-z
-x+y,y,1/2+z
x,x-y,1/2+z
-y,-x,1/2+z
y,x,1/2+z
x-y,-y,1/2+z
-x,-x+y,1/2+z
loop_
_atom_site_type_symbol
_atom_site_label
_atom_site_fract_x
_atom_site_fract_y
_atom_site_fract_z
Si Si1 0.853743 0.980011 0.591669
Si Si2 0.745773 0.010697 0.338656
Si Si3 0.688366 0.478588 0.907481
Si Si4 0.088910 0.391677 0.910629
Si Si5 0.186331 0.543301 0.092843
Si Si6 0.632303 0.850740 0.910452
O O1 0.864257 0.917419 0.616849
O O2 0.852806 0.979168 0.500000
O O3 0.784432 0.975826 0.620027
O O4 0.667260 0.974898 0.366585
O O5 0.747444 0.000000 0.250000
O O6 0.782974 0.090166 0.362654
O O7 0.743991 0.456406 0.884163
O O8 0.612059 0.424390 0.881443
O O9 0.718755 0.557922 0.886236
O O10 0.688118 0.477767 0.000000
O O11 0.121620 0.470428 0.884099
O O12 0.151031 0.374964 0.903657
O O13 0.071832 0.387923 0.000000
O O14 0.186059 0.542909 0.000000
O O15 0.644068 0.869875 0.000000
#
# Coordination Sequence:
#
# PCOD9588681 Si02
#       6
#    24  24  24  24  24  24
#     4  10  21  38  60  83 105 128 155 191 239 296
#     4  12  24  35  50  72  98 133 173 208 243 280
#     4   8  13  23  44  75 105 128 154 196 250 300
#     4   9  18  33  52  73  98 129 164 201 242 291
#     4   8  13  23  44  75 105 128 154 196 250 300
#     4   9  18  33  52  73  98 129 164 201 242 291
#
# _framework density 18.709358000000002
#
# number of rings (size 3 to 8) (size 9 to 14) (size 15 to 20)
#    0.000    2.667    0.000    5.000    0.000    7.333 
#    0.000    0.833    0.000    7.000    0.000    0.000 
#    0.000    2.667    0.000    0.000    0.000    0.000 
#
# Total GULP energy -803257.267430 kJ/mol
# GULP energy per Si atom -5578.175468 kJ/mol
# Density = 1.866677 g / cm^3
# Si number density = 18.709358 Si / 1000 Ang^3
#
#
#
# Elastic Constant Matrix: (Units=GPa)
#
#
# Indices 1 2 3 4 5 6 
#
# 1 47.5988 -8.0664 3.8514 0.0000 0.0000 0.0000
# 2 -8.0664 47.5988 3.8514 0.0000 0.0000 0.0000
# 3 3.8514 3.8514 10.3362 0.0000 0.0000 0.0000
# 4 0.0000 0.0000 0.0000 -14.5800 0.0000 0.0000
# 5 0.0000 0.0000 0.0000 0.0000 -14.5800 0.0000
# 6 0.0000 0.0000 0.0000 0.0000 0.0000 27.8326
#
#
#
# Elastic Compliance Matrix: (Units=1/GPa)
#
#
# Indices 1 2 3 4 5 6 
#
# 1 0.022620 0.004656 -0.010163 0.000000 0.000000 0.000000
# 2 0.004656 0.022620 -0.010163 0.000000 0.000000 0.000000
# 3 -0.010163 -0.010163 0.104322 0.000000 0.000000 0.000000
# 4 0.000000 0.000000 0.000000 -0.068587 0.000000 0.000000
# 5 0.000000 0.000000 0.000000 0.000000 -0.068587 0.000000
# 6 0.000000 0.000000 0.000000 0.000000 0.000000 0.035929
#
#
# Mechanical properties :
#
#
# Convention : Reuss Voigt Hill
#
# Bulk Modulus (GPa) = 8.45880 11.64517 10.05198
# Shear Modulus (GPa) = 41.99352 6.79433 24.39392
#
# Velocity S-wave (km/s) = 4.74278 1.90772 3.61478
# Velocity P-wave (km/s) = 5.87562 3.33021 4.77562
#
# Compressibility (1/GPa) = 0.11822011
#
# Stress axis : x y z
#
# Youngs Moduli (GPa) = 44.20809 44.20809 9.58574
#
# Poissons Ratio (x) = -0.20582 0.09742
# Poissons Ratio (y) = -0.20582 0.09742
# Poissons Ratio (z) = 0.44930 0.44930
#
# Static dielectric constant tensor:
#      x y z
#    x 1.653280 0.000000 0.000000 
#    y 0.000000 1.653280 0.000000 
#    z 0.000000 0.000000 1.629550 
# 
# From -- ./inp_files/5128.got.cif
#   From: 2010.05.17/outbox.cif.g08.bks.cpg/sg192_3_cif.got.tgz:5128.got - 2010.05.20 12:28:01.
