data_PCOD9588641
_publ_section_title
;
Structure prediction by ZEFSAII (Michael W. Deem and Ramdas Pophale) SiO2 
 PCOD9588641
Probable space group: P 6/M C C
;
_chemical_formula_sum "Si O2"
_cell_formula_units_Z 156
_cell_length_a 19.996923
_cell_length_b 19.996923
_cell_length_c 21.496769
_cell_angle_alpha 90.000000
_cell_angle_beta 90.000000
_cell_angle_gamma 120.000000
_cell_volume 7444.408048
_symmetry_space_group_name_H-M "P 6/M C C"
_symmetry_group_IT_number 192
_symmetry_cell_setting 'hexagonal'
loop_
_space_group_symop_operation_xyz
x,y,z
x-y,x,z
-y,x-y,z
-x,-y,z
-x+y,-x,z
y,-x+y,z
x-y,-y,1/2-z
-x,-x+y,1/2-z
y,x,1/2-z
-y,-x,1/2-z
-x+y,y,1/2-z
x,x-y,1/2-z
-x,-y,-z
-x+y,-x,-z
y,-x+y,-z
x,y,-z
x-y,x,-z
-y,x-y,-z
-x+y,y,1/2+z
x,x-y,1/2+z
-y,-x,1/2+z
y,x,1/2+z
x-y,-y,1/2+z
-x,-x+y,1/2+z
loop_
_atom_site_type_symbol
_atom_site_label
_atom_site_fract_x
_atom_site_fract_y
_atom_site_fract_z
Si Si1 0.625809 0.391356 0.000000
Si Si2 0.957186 0.330341 0.430963
Si Si3 0.357653 0.193684 0.427296
Si Si4 0.332791 0.821846 0.768955
Si Si5 0.088835 0.423490 0.657054
Si Si6 0.066507 0.177467 0.575395
Si Si7 0.582600 0.121132 0.892940
O O1 0.582796 0.298076 0.000000
O O2 0.600186 0.415809 0.061208
O O3 0.990325 0.330623 0.500000
O O4 0.882112 0.247535 0.423526
O O5 0.933660 0.396230 0.431172
O O6 0.013061 0.351708 0.371898
O O7 0.372229 0.217979 0.500000
O O8 0.415305 0.261420 0.381479
O O9 0.268150 0.164962 0.410248
O O10 0.257732 0.742269 0.750000
O O11 0.408421 0.816842 0.750000
O O12 0.327518 0.887945 0.729224
O O13 0.350256 0.841889 0.841037
O O14 0.084011 0.499245 0.638483
O O15 0.123009 0.145222 0.596361
O O16 0.065452 0.173897 0.500000
#
# Coordination Sequence:
#
# PCOD9588641 Si02
#       7
#    12  24  24  24  24  24  24
#     4  10  26  36  63  96 130 154 194 252 308 352
#     4  11  23  38  59  87 121 162 201 256 316 365
#     4  10  21  34  57  83 120 158 211 262 315 365
#     4  10  23  40  63  88 119 161 204 251 302 362
#     4  11  24  39  60  85 118 162 208 256 303 364
#     4   9  16  28  47  77 117 162 205 247 299 365
#     4  11  24  40  61  89 123 157 203 247 307 367
#
# _framework density 20.955327
#
# number of rings (size 3 to 8) (size 9 to 14) (size 15 to 20)
#    0.154    1.538    0.769    3.077    8.615    4.308 
#    0.000    2.308    0.000    0.000    0.000    0.000 
#    0.000    0.000    0.000    0.000    0.000   29.846 
#
# Total GULP energy -870442.248223 kJ/mol
# GULP energy per Si atom -5579.758001 kJ/mol
# Density = 2.090763 g / cm^3
# Si number density = 20.955327 Si / 1000 Ang^3
#
#
#
# Elastic Constant Matrix: (Units=GPa)
#
#
# Indices 1 2 3 4 5 6 
#
# 1 77.5609 2.2368 6.5458 0.0000 0.0000 0.0000
# 2 2.2368 77.5609 6.5458 0.0000 0.0000 0.0000
# 3 6.5458 6.5458 73.1541 0.0000 0.0000 0.0000
# 4 0.0000 0.0000 0.0000 -55.3680 0.0000 0.0000
# 5 0.0000 0.0000 0.0000 0.0000 -55.3680 0.0000
# 6 0.0000 0.0000 0.0000 0.0000 0.0000 37.6621
#
#
#
# Elastic Compliance Matrix: (Units=1/GPa)
#
#
# Indices 1 2 3 4 5 6 
#
# 1 0.012997 -0.000279 -0.001138 0.000000 0.000000 0.000000
# 2 -0.000279 0.012997 -0.001138 0.000000 0.000000 0.000000
# 3 -0.001138 -0.001138 0.013873 0.000000 0.000000 0.000000
# 4 0.000000 0.000000 0.000000 -0.018061 0.000000 0.000000
# 5 0.000000 0.000000 0.000000 0.000000 -0.018061 0.000000
# 6 0.000000 0.000000 0.000000 0.000000 0.000000 0.026552
#
#
# Mechanical properties :
#
#
# Convention : Reuss Voigt Hill
#
# Bulk Modulus (GPa) = 28.77028 28.77029 28.77029
# Shear Modulus (GPa) = 106.39775 -0.41828 52.98973
#
# Velocity S-wave (km/s) = 7.13329 -0.44726 5.03407
# Velocity P-wave (km/s) = 9.03351 3.67320 6.89553
#
# Compressibility (1/GPa) = 0.03475809
#
# Stress axis : x y z
#
# Youngs Moduli (GPa) = 76.93982 76.93982 72.08021
#
# Poissons Ratio (x) = 0.02145 0.08203
# Poissons Ratio (y) = 0.02145 0.08203
# Poissons Ratio (z) = 0.08756 0.08756
#
# Static dielectric constant tensor:
#      x y z
#    x 1.784890 0.000000 0.000000 
#    y 0.000000 1.784890 0.000000 
#    z 0.000000 0.000000 1.778890 
# 
# From -- ./inp_files/5277.got.cif
#   From: 2010.05.17/outbox.cif.g08.bks.cpg/sg192_3_cif.got.tgz:5277.got - 2010.05.20 12:28:01.
