data_PCOD9588059
_publ_section_title
;
Structure prediction by ZEFSAII (Michael W. Deem and Ramdas Pophale) SiO2 
 PCOD9588059
Probable space group: P 6/M M M
;
_chemical_formula_sum "Si O2"
_cell_formula_units_Z 138
_cell_length_a 31.483239
_cell_length_b 31.483239
_cell_length_c 8.617857
_cell_angle_alpha 90.000000
_cell_angle_beta 90.000000
_cell_angle_gamma 120.000000
_cell_volume 7397.563939
_symmetry_space_group_name_H-M "P 6/M M M"
_symmetry_group_IT_number 191
_symmetry_cell_setting 'hexagonal'
loop_
_space_group_symop_operation_xyz
x,y,z
x-y,x,z
-y,x-y,z
-x,-y,z
-x+y,-x,z
y,-x+y,z
x-y,-y,-z
-x,-x+y,-z
y,x,-z
-y,-x,-z
-x+y,y,-z
x,x-y,-z
-x,-y,-z
-x+y,-x,-z
y,-x+y,-z
x,y,-z
x-y,x,-z
-y,x-y,-z
-x+y,y,z
x,x-y,z
-y,-x,z
y,x,z
x-y,-y,z
-x,-x+y,z
loop_
_atom_site_type_symbol
_atom_site_label
_atom_site_fract_x
_atom_site_fract_y
_atom_site_fract_z
Si Si1 0.513893 0.853970 0.175023
Si Si2 0.804003 0.804003 0.188329
Si Si3 0.000000 0.900459 0.687765
Si Si4 0.364985 0.729969 0.500000
Si Si5 0.792980 0.396490 0.814951
Si Si6 0.849807 0.602651 0.683469
Si Si7 0.056671 0.579180 0.324219
Si Si8 0.098064 0.803313 0.186774
O O1 0.455490 0.823909 0.205426
O O2 0.551420 0.846523 0.278707
O O3 0.528287 0.909965 0.199951
O O4 0.521463 0.843223 0.000000
O O5 0.852236 0.852236 0.249936
O O6 0.802105 0.753626 0.237665
O O7 0.806048 0.806048 0.000000
O O8 0.950535 0.901070 0.735832
O O9 0.000000 0.899008 0.500000
O O10 0.306462 0.693539 0.500000
O O11 0.378715 0.757430 0.665369
O O12 0.776058 0.388029 0.000000
O O13 0.853241 0.609665 0.500000
O O14 0.799535 0.599069 0.741136
O O15 0.893223 0.652657 0.756932
O O16 0.073956 0.597959 0.500000
O O17 0.060114 0.530057 0.307228
O O18 0.000000 0.562546 0.312600
O O19 0.145500 0.854501 0.239070
O O20 0.098028 0.802884 0.000000
#
# Coordination Sequence:
#
# PCOD9588059 Si02
#       8
#    24  12  12   6  12  24  24  24
#     4  11  22  37  59  88 119 156 197 241 296 354
#     4  10  20  35  59  89 116 151 197 244 302 369
#     4  10  21  36  54  80 118 164 213 261 312 365
#     4  10  26  46  66  96 121 166 208 244 320 368
#     4  10  24  42  65  97 129 162 204 254 304 368
#     4  10  22  39  59  84 110 145 192 243 292 348
#     4   9  18  33  55  83 114 151 190 233 285 339
#     4   9  18  35  57  80 112 148 185 235 293 352
#
# _framework density 18.654789999999998
#
# number of rings (size 3 to 8) (size 9 to 14) (size 15 to 20)
#    0.087    2.087    0.870    2.174    2.435    4.522 
#    1.565    4.348    0.000    0.522    0.000    0.000 
#    0.000    0.000    0.000    0.000    0.000    0.000 
#
# Total GULP energy -768917.905417 kJ/mol
# GULP energy per Si atom -5571.868880 kJ/mol
# Density = 1.861233 g / cm^3
# Si number density = 18.654790 Si / 1000 Ang^3
#
#
#
# Elastic Constant Matrix: (Units=GPa)
#
#
# Indices 1 2 3 4 5 6 
#
# 1 92.3340 52.1791 36.2341 0.0000 0.0000 0.0000
# 2 52.1791 92.3340 36.2341 0.0000 0.0000 0.0000
# 3 36.2341 36.2341 40.4476 0.0000 0.0000 0.0000
# 4 0.0000 0.0000 0.0000 11.7952 0.0000 0.0000
# 5 0.0000 0.0000 0.0000 0.0000 11.7952 0.0000
# 6 0.0000 0.0000 0.0000 0.0000 0.0000 20.0775
#
#
#
# Elastic Compliance Matrix: (Units=1/GPa)
#
#
# Indices 1 2 3 4 5 6 
#
# 1 0.018734 -0.006170 -0.011255 0.000000 0.000000 0.000000
# 2 -0.006170 0.018734 -0.011255 0.000000 0.000000 0.000000
# 3 -0.011255 -0.011255 0.044888 0.000000 0.000000 0.000000
# 4 0.000000 0.000000 0.000000 0.084781 0.000000 0.000000
# 5 0.000000 0.000000 0.000000 0.000000 0.084781 0.000000
# 6 0.000000 0.000000 0.000000 0.000000 0.000000 0.049807
#
#
# Mechanical properties :
#
#
# Convention : Reuss Voigt Hill
#
# Bulk Modulus (GPa) = 40.00638 52.71223 46.35931
# Shear Modulus (GPa) = 13.60857 15.43145 14.52001
#
# Velocity S-wave (km/s) = 2.70385 2.87925 2.79292
# Velocity P-wave (km/s) = 5.58927 6.27467 5.94186
#
# Compressibility (1/GPa) = 0.02499601
#
# Stress axis : x y z
#
# Youngs Moduli (GPa) = 53.37992 53.37992 22.27751
#
# Poissons Ratio (x) = 0.32935 0.25073
# Poissons Ratio (y) = 0.32935 0.25073
# Poissons Ratio (z) = 0.60079 0.60079
#
# Static dielectric constant tensor:
#      x y z
#    x 1.650520 0.000000 0.000000 
#    y 0.000000 1.650520 0.000000 
#    z 0.000000 0.000000 1.658200 
# 
# From -- ./inp_files/2079.got.cif
#   From: 2010.05.17/outbox.cif.g08.bks.cpg/sg191_2_cif.got.tgz:2079.got - 2010.05.20 12:20:32.
