data_PCOD9588677
_publ_section_title
;
Structure prediction by ZEFSAII (Michael W. Deem and Ramdas Pophale) SiO2 
 PCOD9588677
Probable space group: P 6/M C C
;
_chemical_formula_sum "Si O2"
_cell_formula_units_Z 84
_cell_length_a 17.855881
_cell_length_b 17.855881
_cell_length_c 15.937155
_cell_angle_alpha 90.000000
_cell_angle_beta 90.000000
_cell_angle_gamma 120.000000
_cell_volume 4400.519948
_symmetry_space_group_name_H-M "P 6/M C C"
_symmetry_group_IT_number 192
_symmetry_cell_setting 'hexagonal'
loop_
_space_group_symop_operation_xyz
x,y,z
x-y,x,z
-y,x-y,z
-x,-y,z
-x+y,-x,z
y,-x+y,z
x-y,-y,1/2-z
-x,-x+y,1/2-z
y,x,1/2-z
-y,-x,1/2-z
-x+y,y,1/2-z
x,x-y,1/2-z
-x,-y,-z
-x+y,-x,-z
y,-x+y,-z
x,y,-z
x-y,x,-z
-y,x-y,-z
-x+y,y,1/2+z
x,x-y,1/2+z
-y,-x,1/2+z
y,x,1/2+z
x-y,-y,1/2+z
-x,-x+y,1/2+z
loop_
_atom_site_type_symbol
_atom_site_label
_atom_site_fract_x
_atom_site_fract_y
_atom_site_fract_z
Si Si1 0.906780 0.653903 0.700932
Si Si2 0.219383 0.611744 0.500000
Si Si3 0.133495 0.187984 0.899927
Si Si4 0.900734 0.478261 0.342230
O O1 0.821275 0.642549 0.750000
O O2 0.918007 0.716318 0.624755
O O3 0.896372 0.565389 0.666340
O O4 0.000000 0.702293 0.750000
O O5 0.285319 0.573366 0.500000
O O6 0.159776 0.580220 0.417492
O O7 0.162700 0.122671 0.865642
O O8 0.127344 0.179209 0.000000
O O9 0.872870 0.436435 0.250000
O O10 0.000000 0.500000 0.355049
#
# Coordination Sequence:
#
# PCOD9588677 Si02
#       4
#    24  12  24  24
#     4  12  24  40  65  97 130 172 222 274 343 406
#     4  10  27  46  70 106 130 176 235 285 351 418
#     4  10  21  38  58  88 128 173 218 266 322 391
#     4  11  25  47  70  99 139 183 223 285 354 415
#
# _framework density 19.088653999999998
#
# number of rings (size 3 to 8) (size 9 to 14) (size 15 to 20)
#    0.286    0.857    5.714    0.714    6.000    1.143 
#    0.000    0.000    0.000    0.000    0.000    0.000 
#    0.000    0.000    0.000    0.000    0.000    0.000 
#
# Total GULP energy -468513.741614 kJ/mol
# GULP energy per Si atom -5577.544543 kJ/mol
# Density = 1.904521 g / cm^3
# Si number density = 19.088654 Si / 1000 Ang^3
#
#
#
# Elastic Constant Matrix: (Units=GPa)
#
#
# Indices 1 2 3 4 5 6 
#
# 1 109.6501 46.1471 41.2019 0.0000 0.0000 0.0000
# 2 46.1471 109.6501 41.2019 0.0000 0.0000 0.0000
# 3 41.2019 41.2019 98.7534 0.0000 0.0000 0.0000
# 4 0.0000 0.0000 0.0000 30.3617 0.0000 0.0000
# 5 0.0000 0.0000 0.0000 0.0000 30.3617 0.0000
# 6 0.0000 0.0000 0.0000 0.0000 0.0000 31.7515
#
#
#
# Elastic Compliance Matrix: (Units=1/GPa)
#
#
# Indices 1 2 3 4 5 6 
#
# 1 0.011992 -0.003756 -0.003436 0.000000 0.000000 0.000000
# 2 -0.003756 0.011992 -0.003436 0.000000 0.000000 0.000000
# 3 -0.003436 -0.003436 0.012994 0.000000 0.000000 0.000000
# 4 0.000000 0.000000 0.000000 0.032936 0.000000 0.000000
# 5 0.000000 0.000000 0.000000 0.000000 0.032936 0.000000
# 6 0.000000 0.000000 0.000000 0.000000 0.000000 0.031495
#
#
# Mechanical properties :
#
#
# Convention : Reuss Voigt Hill
#
# Bulk Modulus (GPa) = 63.61026 63.90613 63.75819
# Shear Modulus (GPa) = 31.08669 31.12849 31.10759
#
# Velocity S-wave (km/s) = 4.03990 4.04261 4.04126
# Velocity P-wave (km/s) = 7.42677 7.43919 7.43299
#
# Compressibility (1/GPa) = 0.01572073
#
# Stress axis : x y z
#
# Youngs Moduli (GPa) = 83.39106 83.39106 76.96107
#
# Poissons Ratio (x) = 0.31318 0.26446
# Poissons Ratio (y) = 0.31318 0.26446
# Poissons Ratio (z) = 0.28655 0.28655
#
# Static dielectric constant tensor:
#      x y z
#    x 1.675130 0.000000 0.000000 
#    y 0.000000 1.675130 0.000000 
#    z 0.000000 0.000000 1.655410 
# 
# From -- ./inp_files/2555.got.cif
#   From: 2010.05.17/outbox.cif.g08.bks.cpg/sg192_2_cif.got.tgz:2555.got - 2010.05.20 12:28:01.
