data_PCOD9588172
_publ_section_title
;
Structure prediction by ZEFSAII (Michael W. Deem and Ramdas Pophale) SiO2 
 PCOD9588172
Probable space group: P 6/M M M
;
_chemical_formula_sum "Si O2"
_cell_formula_units_Z 84
_cell_length_a 21.555936
_cell_length_b 21.555936
_cell_length_c 11.026685
_cell_angle_alpha 90.000000
_cell_angle_beta 90.000000
_cell_angle_gamma 120.000000
_cell_volume 4437.203746
_symmetry_space_group_name_H-M "P 6/M M M"
_symmetry_group_IT_number 191
_symmetry_cell_setting 'hexagonal'
loop_
_space_group_symop_operation_xyz
x,y,z
x-y,x,z
-y,x-y,z
-x,-y,z
-x+y,-x,z
y,-x+y,z
x-y,-y,-z
-x,-x+y,-z
y,x,-z
-y,-x,-z
-x+y,y,-z
x,x-y,-z
-x,-y,-z
-x+y,-x,-z
y,-x+y,-z
x,y,-z
x-y,x,-z
-y,x-y,-z
-x+y,y,z
x,x-y,z
-y,-x,z
y,x,z
x-y,-y,z
-x,-x+y,z
loop_
_atom_site_type_symbol
_atom_site_label
_atom_site_fract_x
_atom_site_fract_y
_atom_site_fract_z
Si Si1 0.714437 0.857219 0.352846
Si Si2 0.333063 0.526624 0.144265
Si Si3 0.086455 0.474657 0.500000
Si Si4 0.914995 0.609859 0.728018
Si Si5 0.914454 0.085547 0.136302
O O1 0.729526 0.864763 0.500000
O O2 0.667664 0.893853 0.315981
O O3 0.779657 0.889829 0.256465
O O4 0.269109 0.538217 0.193924
O O5 0.411664 0.588337 0.188947
O O6 0.311420 0.444478 0.167919
O O7 0.334255 0.535297 0.000000
O O8 0.116884 0.558442 0.500000
O O9 0.104866 0.445169 0.617366
O O10 0.000000 0.435619 0.500000
O O11 0.000000 0.649871 0.752836
O O12 0.000000 0.122815 0.140098
O O13 0.896374 0.103627 0.000000
#
# Coordination Sequence:
#
# PCOD9588172 Si02
#       5
#    12  24  12  24  12
#     4  12  24  41  65  95 134 176 216 262 325 395
#     4  10  21  38  60  86 118 158 205 258 316 376
#     4   9  18  33  54  82 113 148 192 241 294 352
#     4  11  22  37  59  86 118 159 204 251 307 373
#     4  10  23  44  70  98 130 172 222 276 334 397
#
# _framework density 18.93084
#
# number of rings (size 3 to 8) (size 9 to 14) (size 15 to 20)
#    0.000    1.571    2.857    2.143    0.000    6.857 
#    0.000    1.429    0.000    0.857    0.000    0.000 
#    0.000    0.000    0.000    0.000    0.000    0.000 
#
# Total GULP energy -468004.639950 kJ/mol
# GULP energy per Si atom -5571.483809 kJ/mol
# Density = 1.888775 g / cm^3
# Si number density = 18.930840 Si / 1000 Ang^3
#
#
#
# Elastic Constant Matrix: (Units=GPa)
#
#
# Indices 1 2 3 4 5 6 
#
# 1 110.8452 36.6983 46.7126 0.0000 0.0000 0.0000
# 2 36.6983 110.8452 46.7126 0.0000 0.0000 0.0000
# 3 46.7126 46.7126 81.3026 0.0000 0.0000 0.0000
# 4 0.0000 0.0000 0.0000 28.7895 0.0000 0.0000
# 5 0.0000 0.0000 0.0000 0.0000 28.7895 0.0000
# 6 0.0000 0.0000 0.0000 0.0000 0.0000 37.0735
#
#
#
# Elastic Compliance Matrix: (Units=1/GPa)
#
#
# Indices 1 2 3 4 5 6 
#
# 1 0.012070 -0.001417 -0.006121 0.000000 0.000000 0.000000
# 2 -0.001417 0.012070 -0.006121 0.000000 0.000000 0.000000
# 3 -0.006121 -0.006121 0.019333 0.000000 0.000000 0.000000
# 4 0.000000 0.000000 0.000000 0.034735 0.000000 0.000000
# 5 0.000000 0.000000 0.000000 0.000000 0.034735 0.000000
# 6 0.000000 0.000000 0.000000 0.000000 0.000000 0.026973
#
#
# Mechanical properties :
#
#
# Convention : Reuss Voigt Hill
#
# Bulk Modulus (GPa) = 61.89492 62.58224 62.23858
# Shear Modulus (GPa) = 28.96542 30.45512 29.71027
#
# Velocity S-wave (km/s) = 3.91585 4.01528 3.96588
# Velocity P-wave (km/s) = 7.29462 7.39099 7.34296
#
# Compressibility (1/GPa) = 0.01615641
#
# Stress axis : x y z
#
# Youngs Moduli (GPa) = 82.84921 82.84921 51.72396
#
# Poissons Ratio (x) = 0.11737 0.31660
# Poissons Ratio (y) = 0.11737 0.31660
# Poissons Ratio (z) = 0.50712 0.50712
#
# Static dielectric constant tensor:
#      x y z
#    x 1.655610 0.000000 0.000000 
#    y 0.000000 1.655610 0.000000 
#    z 0.000000 0.000000 1.706270 
# 
# From -- ./inp_files/2474.got.cif
#   From: 2010.05.17/outbox.cif.g08.bks.cpg/sg191_2_cif.got.tgz:2474.got - 2010.05.20 12:20:32.
