data_PCOD9588929
_publ_section_title
;
Structure prediction by ZEFSAII (Michael W. Deem and Ramdas Pophale) SiO2 
 PCOD9588929
Probable space group: P 63/M C M
;
_chemical_formula_sum "Si O2"
_cell_formula_units_Z 168
_cell_length_a 26.731056
_cell_length_b 26.731056
_cell_length_c 15.578365
_cell_angle_alpha 90.000000
_cell_angle_beta 90.000000
_cell_angle_gamma 120.000000
_cell_volume 9640.171015
_symmetry_space_group_name_H-M "P 63/M C M"
_symmetry_group_IT_number 193
_symmetry_cell_setting 'hexagonal'
loop_
_space_group_symop_operation_xyz
x,y,z
x-y,x,1/2+z
-y,x-y,z
-x,-y,1/2+z
-x+y,-x,z
y,-x+y,1/2+z
x-y,-y,1/2-z
-x,-x+y,1/2-z
y,x,1/2-z
-y,-x,-z
-x+y,y,-z
x,x-y,-z
-x,-y,-z
-x+y,-x,1/2-z
y,-x+y,-z
x,y,1/2-z
x-y,x,-z
-y,x-y,1/2-z
-x+y,y,1/2+z
x,x-y,1/2+z
-y,-x,1/2+z
y,x,z
x-y,-y,z
-x,-x+y,z
loop_
_atom_site_type_symbol
_atom_site_label
_atom_site_fract_x
_atom_site_fract_y
_atom_site_fract_z
Si Si1 0.347315 0.411098 0.145620
Si Si2 0.627066 0.161234 0.146529
Si Si3 0.623206 0.689292 0.145808
Si Si4 0.857013 0.493699 0.851286
Si Si5 0.247182 0.488776 0.397253
Si Si6 0.766828 0.703712 0.647306
Si Si7 0.812238 0.640882 0.100790
O O1 0.343142 0.411518 0.250000
O O2 0.398192 0.398192 0.125163
O O3 0.360134 0.472196 0.112536
O O4 0.288148 0.356121 0.114688
O O5 0.622573 0.157224 0.250000
O O6 0.565941 0.150646 0.112882
O O7 0.686808 0.219047 0.126697
O O8 0.622119 0.687728 0.250000
O O9 0.662402 0.662402 0.116330
O O10 0.556570 0.651302 0.114259
O O11 0.645242 0.755564 0.120633
O O12 0.869772 0.494930 0.750000
O O13 0.796475 0.491794 0.862248
O O14 0.243046 0.486091 0.500000
O O15 0.220921 0.422312 0.363542
O O16 0.763022 0.703921 0.750000
O O17 0.755108 0.755108 0.616664
O O18 0.820559 0.694203 0.629479
O O19 0.818828 0.637655 0.000000
#
# Coordination Sequence:
#
# PCOD9588929 Si02
#       7
#    24  24  24  24  24  24  24
#     4   8  14  24  41  67  91 109 135 175 226 280
#     4  10  18  30  50  68  86 113 146 190 242 294
#     4   9  18  33  52  72  97 130 166 201 238 288
#     4   9  19  33  49  69  88 112 149 195 243 290
#     4  10  20  33  47  64  85 116 149 187 234 291
#     4   9  16  27  45  69  95 121 151 190 234 278
#     4  10  19  30  47  71  95 128 161 194 234 280
#
# _framework density 17.427077000000001
#
# number of rings (size 3 to 8) (size 9 to 14) (size 15 to 20)
#    0.000    2.714    1.429    1.714    0.000    2.857 
#    0.857    2.857    0.000    0.000    0.000    4.000 
#    0.000    0.000    0.000    0.429    0.000    8.286 
#
# Total GULP energy -935396.583676 kJ/mol
# GULP energy per Si atom -5567.836808 kJ/mol
# Density = 1.738741 g / cm^3
# Si number density = 17.427077 Si / 1000 Ang^3
#
#
#
# Elastic Constant Matrix: (Units=GPa)
#
#
# Indices 1 2 3 4 5 6 
#
# 1 97.4681 62.3037 7.4894 0.0000 0.0000 0.0000
# 2 62.3037 97.4681 7.4894 0.0000 0.0000 0.0000
# 3 7.4894 7.4894 21.3355 0.0000 0.0000 0.0000
# 4 0.0000 0.0000 0.0000 0.9641 0.0000 0.0000
# 5 0.0000 0.0000 0.0000 0.0000 0.9641 0.0000
# 6 0.0000 0.0000 0.0000 0.0000 0.0000 17.5822
#
#
#
# Elastic Compliance Matrix: (Units=1/GPa)
#
#
# Indices 1 2 3 4 5 6 
#
# 1 0.017455 -0.010983 -0.002272 0.000000 0.000000 0.000000
# 2 -0.010983 0.017455 -0.002272 0.000000 0.000000 0.000000
# 3 -0.002272 -0.002272 0.048465 0.000000 0.000000 0.000000
# 4 0.000000 0.000000 0.000000 1.037274 0.000000 0.000000
# 5 0.000000 0.000000 0.000000 0.000000 1.037274 0.000000
# 6 0.000000 0.000000 0.000000 0.000000 0.000000 0.056876
#
#
# Mechanical properties :
#
#
# Convention : Reuss Voigt Hill
#
# Bulk Modulus (GPa) = 19.11255 41.20410 30.15832
# Shear Modulus (GPa) = 2.20917 13.16800 7.68859
#
# Velocity S-wave (km/s) = 1.12713 2.75181 2.10272
# Velocity P-wave (km/s) = 3.56158 5.81306 4.82061
#
# Compressibility (1/GPa) = 0.05232164
#
# Stress axis : x y z
#
# Youngs Moduli (GPa) = 57.29053 57.29053 20.63336
#
# Poissons Ratio (x) = 0.62922 0.04688
# Poissons Ratio (y) = 0.62922 0.04688
# Poissons Ratio (z) = 0.13016 0.13016
#
# Static dielectric constant tensor:
#      x y z
#    x 1.623590 0.000000 0.000000 
#    y 0.000000 1.623590 0.000000 
#    z 0.000000 0.000000 1.722580 
# 
# From -- ./inp_files/6856.got.cif
#   From: 2010.05.17/outbox.cif.g08.bks.cpg/sg193_4_cif.got.tgz:6856.got - 2010.05.20 12:33:02.
