data_PCOD9588512
_publ_section_title
;
Structure prediction by ZEFSAII (Michael W. Deem and Ramdas Pophale) SiO2 
 PCOD9588512
Probable space group: P 6/M C C
;
_chemical_formula_sum "Si O2"
_cell_formula_units_Z 152
_cell_length_a 18.755757
_cell_length_b 18.755757
_cell_length_c 26.160628
_cell_angle_alpha 90.000000
_cell_angle_beta 90.000000
_cell_angle_gamma 120.000000
_cell_volume 7969.810436
_symmetry_space_group_name_H-M "P 6/M C C"
_symmetry_group_IT_number 192
_symmetry_cell_setting 'hexagonal'
loop_
_space_group_symop_operation_xyz
x,y,z
x-y,x,z
-y,x-y,z
-x,-y,z
-x+y,-x,z
y,-x+y,z
x-y,-y,1/2-z
-x,-x+y,1/2-z
y,x,1/2-z
-y,-x,1/2-z
-x+y,y,1/2-z
x,x-y,1/2-z
-x,-y,-z
-x+y,-x,-z
y,-x+y,-z
x,y,-z
x-y,x,-z
-y,x-y,-z
-x+y,y,1/2+z
x,x-y,1/2+z
-y,-x,1/2+z
y,x,1/2+z
x-y,-y,1/2+z
-x,-x+y,1/2+z
loop_
_atom_site_type_symbol
_atom_site_label
_atom_site_fract_x
_atom_site_fract_y
_atom_site_fract_z
Si Si1 0.762201 0.011545 0.307849
Si Si2 0.978172 0.313332 0.057961
Si Si3 0.744977 0.594653 0.147140
Si Si4 0.093508 0.416562 0.856065
Si Si5 0.144824 0.560376 0.689267
Si Si6 0.333334 0.666667 0.688186
Si Si7 0.830067 0.838509 0.088364
O O1 0.782657 0.104434 0.319559
O O2 0.808448 0.989528 0.351256
O O3 0.779632 0.000000 0.250000
O O4 0.664216 0.956996 0.320282
O O5 0.048734 0.389632 0.089334
O O6 0.895668 0.276900 0.092385
O O7 0.006311 0.244908 0.060581
O O8 0.967043 0.330782 0.000000
O O9 0.813559 0.567839 0.142907
O O10 0.659634 0.527854 0.173251
O O11 0.091256 0.495790 0.836090
O O12 0.138554 0.569277 0.750000
O O13 0.239017 0.622060 0.672510
O O14 0.333334 0.666667 0.750000
O O15 0.837484 0.924719 0.076114
#
# Coordination Sequence:
#
# PCOD9588512 Si02
#       7
#    24  24  24  24  24   8  24
#     4  10  20  33  51  76 110 152 190 223 261 319
#     4  10  22  41  62  80 103 141 188 233 282 332
#     4  10  21  36  55  82 112 144 184 231 278 324
#     4  10  21  36  55  82 112 144 184 231 278 324
#     4  11  20  33  56  87 120 152 182 216 267 327
#     4   9  18  30  51  84 115 152 184 207 255 324
#     4  10  21  36  56  83 111 139 176 224 278 332
#
# _framework density 19.071971000000001
#
# number of rings (size 3 to 8) (size 9 to 14) (size 15 to 20)
#    0.000    2.211    1.579    4.895    0.000    8.842 
#    0.000    5.526    0.000    1.895    0.000    0.000 
#    0.000    0.000    0.000    0.000    0.000    0.000 
#
# Total GULP energy -848637.202811 kJ/mol
# GULP energy per Si atom -5583.139492 kJ/mol
# Density = 1.902856 g / cm^3
# Si number density = 19.071971 Si / 1000 Ang^3
#
#
#
# Elastic Constant Matrix: (Units=GPa)
#
#
# Indices 1 2 3 4 5 6 
#
# 1 64.4127 11.6624 6.5806 0.0000 0.0000 -0.0002
# 2 11.6624 64.4127 6.5802 0.0000 0.0000 0.0002
# 3 6.5806 6.5802 95.9473 -0.0001 0.0000 0.0000
# 4 0.0000 0.0000 -0.0001 1.3563 0.0001 0.0000
# 5 0.0000 0.0000 0.0000 0.0001 1.3561 0.0000
# 6 -0.0002 0.0002 0.0000 0.0000 0.0000 26.3748
#
#
#
# Elastic Compliance Matrix: (Units=1/GPa)
#
#
# Indices 1 2 3 4 5 6 
#
# 1 0.016130 -0.002827 -0.000912 0.000000 0.000001 0.000000
# 2 -0.002827 0.016130 -0.000912 0.000000 0.000000 0.000000
# 3 -0.000912 -0.000912 0.010548 0.000000 0.000000 0.000000
# 4 0.000000 0.000000 0.000000 0.737320 -0.000038 0.000001
# 5 0.000001 0.000000 0.000000 -0.000038 0.737388 0.000000
# 6 0.000000 0.000000 0.000000 0.000001 0.000000 0.037915
#
#
# Mechanical properties :
#
#
# Convention : Reuss Voigt Hill
#
# Bulk Modulus (GPa) = 29.84749 30.49098 30.16924
# Shear Modulus (GPa) = 3.17278 19.14740 11.16009
#
# Velocity S-wave (km/s) = 1.29120 3.17196 2.42163
# Velocity P-wave (km/s) = 4.23165 5.42560 4.86539
#
# Compressibility (1/GPa) = 0.03350365
#
# Stress axis : x y z
#
# Youngs Moduli (GPa) = 61.99628 61.99632 94.80892
#
# Poissons Ratio (x) = 0.17528 0.08650
# Poissons Ratio (y) = 0.17528 0.08650
# Poissons Ratio (z) = 0.05656 0.05656
#
# Static dielectric constant tensor:
#      x y z
#    x 1.678690 0.000000 0.000000 
#    y 0.000000 1.678690 0.000000 
#    z 0.000000 0.000000 1.662410 
# 
# From -- ./inp_files/7140.got.cif
#   From: 2010.05.17/outbox.cif.g08.bks.cpg/sg192_4_cif.got.tgz:7140.got - 2010.05.20 12:28:01.
