data_PCOD9588851
_publ_section_title
;
Structure prediction by ZEFSAII (Michael W. Deem and Ramdas Pophale) SiO2 
 PCOD9588851
Probable space group: P 6/M C C
;
_chemical_formula_sum "Si O2"
_cell_formula_units_Z 192
_cell_length_a 24.599781
_cell_length_b 24.599781
_cell_length_c 14.474920
_cell_angle_alpha 90.000000
_cell_angle_beta 90.000000
_cell_angle_gamma 120.000000
_cell_volume 7585.937940
_symmetry_space_group_name_H-M "P 6/M C C"
_symmetry_group_IT_number 192
_symmetry_cell_setting 'hexagonal'
loop_
_space_group_symop_operation_xyz
x,y,z
x-y,x,z
-y,x-y,z
-x,-y,z
-x+y,-x,z
y,-x+y,z
x-y,-y,1/2-z
-x,-x+y,1/2-z
y,x,1/2-z
-y,-x,1/2-z
-x+y,y,1/2-z
x,x-y,1/2-z
-x,-y,-z
-x+y,-x,-z
y,-x+y,-z
x,y,-z
x-y,x,-z
-y,x-y,-z
-x+y,y,1/2+z
x,x-y,1/2+z
-y,-x,1/2+z
y,x,1/2+z
x-y,-y,1/2+z
-x,-x+y,1/2+z
loop_
_atom_site_type_symbol
_atom_site_label
_atom_site_fract_x
_atom_site_fract_y
_atom_site_fract_z
Si Si1 0.927552 0.394108 0.349653
Si Si2 0.311854 0.036232 0.106906
Si Si3 0.906618 0.858506 0.613173
Si Si4 0.538900 0.211972 0.861926
Si Si5 0.132461 0.857198 0.113304
Si Si6 0.552223 0.619837 0.644336
Si Si7 0.259022 0.365654 0.605509
Si Si8 0.449184 0.790023 0.361662
O O1 0.932325 0.410111 0.242203
O O2 0.904532 0.320245 0.345636
O O3 0.863469 0.385001 0.392627
O O4 0.997660 0.431553 0.394452
O O5 0.275778 0.070438 0.141707
O O6 0.377272 0.055495 0.154787
O O7 0.267100 0.962327 0.105746
O O8 0.330177 0.055333 0.000000
O O9 0.883154 0.905303 0.642156
O O10 0.904707 0.858216 0.500000
O O11 0.868117 0.786858 0.644385
O O12 0.490544 0.139285 0.893113
O O13 0.539313 0.207623 0.749424
O O14 0.611555 0.234927 0.884751
O O15 0.526192 0.268512 0.891649
O O16 0.190702 0.849656 0.143950
O O17 0.135144 0.860100 0.000000
O O18 0.263051 0.387293 0.500000
#
# Coordination Sequence:
#
# PCOD9588851 Si02
#       8
#    24  24  24  24  24  24  24  24
#     4   9  18  31  47  70  98 125 154 191 236 280
#     4   9  17  29  44  63  89 121 156 192 230 277
#     4   9  15  22  33  51  77 109 146 190 240 290
#     4   9  17  29  47  71  98 127 159 195 235 279
#     4   9  16  25  39  58  81 113 154 194 232 278
#     4   9  18  31  47  70  98 125 154 191 236 280
#     4   9  17  29  44  63  89 121 156 192 230 277
#     4   9  17  29  47  71  98 127 159 195 235 279
#
# _framework density 25.309987
#
# number of rings (size 3 to 8) (size 9 to 14) (size 15 to 20)
#    0.000    3.000    0.000    1.125    1.750    5.000 
#    0.000    2.500    0.000    0.750    0.000    3.500 
#    0.000    2.000    0.000    0.750    0.000   23.125 
#
# Total GULP energy -1069818.617043 kJ/mol
# GULP energy per Si atom -5571.971964 kJ/mol
# Density = 2.525238 g / cm^3
# Si number density = 25.309987 Si / 1000 Ang^3
#
#
#
# Elastic Constant Matrix: (Units=GPa)
#
#
# Indices 1 2 3 4 5 6 
#
# 1 98.1518 17.8368 -0.6489 0.0000 0.0000 0.0000
# 2 17.8368 98.1518 -0.6489 0.0000 0.0000 0.0000
# 3 -0.6489 -0.6489 83.0565 0.0000 0.0000 0.0000
# 4 0.0000 0.0000 0.0000 -19.7369 0.0000 0.0000
# 5 0.0000 0.0000 0.0000 0.0000 -19.7369 0.0000
# 6 0.0000 0.0000 0.0000 0.0000 0.0000 40.1575
#
#
#
# Elastic Compliance Matrix: (Units=1/GPa)
#
#
# Indices 1 2 3 4 5 6 
#
# 1 0.010537 -0.001914 0.000067 0.000000 0.000000 0.000000
# 2 -0.001914 0.010537 0.000067 0.000000 0.000000 0.000000
# 3 0.000067 0.000067 0.012041 0.000000 0.000000 0.000000
# 4 0.000000 0.000000 0.000000 -0.050666 0.000000 0.000000
# 5 0.000000 0.000000 0.000000 0.000000 -0.050666 0.000000
# 6 0.000000 0.000000 0.000000 0.000000 0.000000 0.024902
#
#
# Mechanical properties :
#
#
# Convention : Reuss Voigt Hill
#
# Bulk Modulus (GPa) = 33.83510 34.71532 34.27521
# Shear Modulus (GPa) = -167.19178 17.65815 -74.76682
#
# Velocity S-wave (km/s) = -8.13640 2.64422 -5.44101
# Velocity P-wave (km/s) = 8.65279 4.80295 5.08932
#
# Compressibility (1/GPa) = 0.02955511
#
# Stress axis : x y z
#
# Youngs Moduli (GPa) = 94.90699 94.90699 83.04923
#
# Poissons Ratio (x) = 0.18168 -0.00559
# Poissons Ratio (y) = 0.18168 -0.00559
# Poissons Ratio (z) = -0.00639 -0.00639
#
# Static dielectric constant tensor:
#      x y z
#    x 2.003920 0.000000 0.000000 
#    y 0.000000 2.003920 0.000000 
#    z 0.000000 0.000000 2.004550 
# 
# From -- ./inp_files/6163.got.cif
#   From: 2010.05.17/outbox.cif.g08.bks.cpg/sg192_4_cif.got.tgz:6163.got - 2010.05.20 12:28:01.
