data_PCOD9588714
_publ_section_title
;
Structure prediction by ZEFSAII (Michael W. Deem and Ramdas Pophale) SiO2 
 PCOD9588714
Probable space group: P 6/M C C
;
_chemical_formula_sum "Si O2"
_cell_formula_units_Z 168
_cell_length_a 18.397338
_cell_length_b 18.397338
_cell_length_c 29.264761
_cell_angle_alpha 90.000000
_cell_angle_beta 90.000000
_cell_angle_gamma 120.000000
_cell_volume 8577.991037
_symmetry_space_group_name_H-M "P 6/M C C"
_symmetry_group_IT_number 192
_symmetry_cell_setting 'hexagonal'
loop_
_space_group_symop_operation_xyz
x,y,z
x-y,x,z
-y,x-y,z
-x,-y,z
-x+y,-x,z
y,-x+y,z
x-y,-y,1/2-z
-x,-x+y,1/2-z
y,x,1/2-z
-y,-x,1/2-z
-x+y,y,1/2-z
x,x-y,1/2-z
-x,-y,-z
-x+y,-x,-z
y,-x+y,-z
x,y,-z
x-y,x,-z
-y,x-y,-z
-x+y,y,1/2+z
x,x-y,1/2+z
-y,-x,1/2+z
y,x,1/2+z
x-y,-y,1/2+z
-x,-x+y,1/2+z
loop_
_atom_site_type_symbol
_atom_site_label
_atom_site_fract_x
_atom_site_fract_y
_atom_site_fract_z
Si Si1 0.902775 0.430282 0.318067
Si Si2 0.686144 0.534161 0.759788
Si Si3 0.325214 0.259885 0.115803
Si Si4 0.912371 0.499254 0.081020
Si Si5 0.858595 0.819458 0.554722
Si Si6 0.776682 0.366134 0.500000
Si Si7 0.683833 0.792670 0.328252
Si Si8 0.902035 0.097966 0.250000
O O1 0.892149 0.350702 0.289188
O O2 0.854020 0.465771 0.289884
O O3 0.877274 0.423204 0.370378
O O4 0.000000 0.500000 0.315807
O O5 0.753513 0.507025 0.750000
O O6 0.731067 0.615993 0.791242
O O7 0.406985 0.341460 0.096120
O O8 0.269158 0.210646 0.072512
O O9 0.345789 0.191889 0.139962
O O10 0.265138 0.285172 0.145356
O O11 0.840006 0.454373 0.042897
O O12 0.000000 0.500000 0.069754
O O13 0.839349 0.890407 0.571799
O O14 0.860658 0.822274 0.500000
O O15 0.728288 0.421223 0.500000
O O16 0.750870 0.866421 0.296046
O O17 0.000000 0.140560 0.250000
#
# Coordination Sequence:
#
# PCOD9588714 Si02
#       8
#    24  24  24  24  24  12  24  12
#     4  10  23  43  67  92 130 176 221 276 346 418
#     4  11  22  37  62  98 129 172 223 281 344 399
#     4  12  25  41  68 100 140 186 234 296 350 415
#     4  11  25  47  74 108 138 179 235 291 362 436
#     4  10  21  41  66  99 135 175 223 283 351 412
#     4  10  27  54  78 104 138 188 229 281 371 464
#     4  12  24  40  62  98 139 187 238 287 348 409
#     4  12  25  40  60  86 138 192 244 284 332 404
#
# _framework density 19.585004999999999
#
# number of rings (size 3 to 8) (size 9 to 14) (size 15 to 20)
#    0.143    0.857    3.571    3.857    1.000    6.286 
#    3.429    0.000    0.000    0.000    0.000    0.000 
#    0.000    0.000    0.000    0.000    0.000    0.000 
#
# Total GULP energy -936481.052818 kJ/mol
# GULP energy per Si atom -5574.291981 kJ/mol
# Density = 1.954043 g / cm^3
# Si number density = 19.585005 Si / 1000 Ang^3
#
#
#
# Elastic Constant Matrix: (Units=GPa)
#
#
# Indices 1 2 3 4 5 6 
#
# 1 83.1213 41.8523 59.5754 0.0000 0.0000 0.0000
# 2 41.8523 83.1213 59.5754 0.0000 0.0000 0.0000
# 3 59.5754 59.5754 112.8317 0.0000 0.0000 0.0000
# 4 0.0000 0.0000 0.0000 58.5200 0.0000 0.0000
# 5 0.0000 0.0000 0.0000 0.0000 58.5200 0.0000
# 6 0.0000 0.0000 0.0000 0.0000 0.0000 20.6345
#
#
#
# Elastic Compliance Matrix: (Units=1/GPa)
#
#
# Indices 1 2 3 4 5 6 
#
# 1 0.020172 -0.004059 -0.008508 0.000000 0.000000 0.000000
# 2 -0.004059 0.020172 -0.008508 0.000000 0.000000 0.000000
# 3 -0.008508 -0.008508 0.017847 0.000000 0.000000 0.000000
# 4 0.000000 0.000000 0.000000 0.017088 0.000000 0.000000
# 5 0.000000 0.000000 0.000000 0.000000 0.017088 0.000000
# 6 0.000000 0.000000 0.000000 0.000000 0.000000 0.048463
#
#
# Mechanical properties :
#
#
# Convention : Reuss Voigt Hill
#
# Bulk Modulus (GPa) = 62.33591 66.78674 64.56132
# Shear Modulus (GPa) = 26.54963 35.40630 30.97796
#
# Velocity S-wave (km/s) = 3.68586 4.25647 3.98140
# Velocity P-wave (km/s) = 7.07188 7.63752 7.36014
#
# Compressibility (1/GPa) = 0.01604212
#
# Stress axis : x y z
#
# Youngs Moduli (GPa) = 49.57335 49.57335 56.03201
#
# Poissons Ratio (x) = 0.20122 0.47670
# Poissons Ratio (y) = 0.20122 0.47670
# Poissons Ratio (z) = 0.42176 0.42176
#
# Static dielectric constant tensor:
#      x y z
#    x 1.691880 0.000000 0.000000 
#    y 0.000000 1.691880 0.000000 
#    z 0.000000 0.000000 1.715460 
# 
# From -- ./inp_files/7226.got.cif
#   From: 2010.05.17/outbox.cif.g08.bks.cpg/sg192_4_cif.got.tgz:7226.got - 2010.05.20 12:28:01.
