data_PCOD9588583
_publ_section_title
;
Structure prediction by ZEFSAII (Michael W. Deem and Ramdas Pophale) SiO2 
 PCOD9588583
Probable space group: P 6/M C C
;
_chemical_formula_sum "Si O2"
_cell_formula_units_Z 152
_cell_length_a 17.855307
_cell_length_b 17.855307
_cell_length_c 32.524722
_cell_angle_alpha 90.000000
_cell_angle_beta 90.000000
_cell_angle_gamma 120.000000
_cell_volume 8980.052349
_symmetry_space_group_name_H-M "P 6/M C C"
_symmetry_group_IT_number 192
_symmetry_cell_setting 'hexagonal'
loop_
_space_group_symop_operation_xyz
x,y,z
x-y,x,z
-y,x-y,z
-x,-y,z
-x+y,-x,z
y,-x+y,z
x-y,-y,1/2-z
-x,-x+y,1/2-z
y,x,1/2-z
-y,-x,1/2-z
-x+y,y,1/2-z
x,x-y,1/2-z
-x,-y,-z
-x+y,-x,-z
y,-x+y,-z
x,y,-z
x-y,x,-z
-y,x-y,-z
-x+y,y,1/2+z
x,x-y,1/2+z
-y,-x,1/2+z
y,x,1/2+z
x-y,-y,1/2+z
-x,-x+y,1/2+z
loop_
_atom_site_type_symbol
_atom_site_label
_atom_site_fract_x
_atom_site_fract_y
_atom_site_fract_z
Si Si1 0.333979 0.281816 0.414977
Si Si2 0.168754 0.537237 0.589803
Si Si3 0.199514 0.876413 0.871563
Si Si4 0.794502 0.895324 0.795118
Si Si5 0.864292 0.432427 0.500000
Si Si6 0.364183 0.991448 0.000000
Si Si7 0.311007 0.522444 0.640420
Si Si8 0.333334 0.666667 0.200970
O O1 0.437067 0.342749 0.406480
O O2 0.266493 0.293667 0.386961
O O3 0.319332 0.185633 0.407221
O O4 0.324296 0.313060 0.460137
O O5 0.181081 0.571557 0.543144
O O6 0.255888 0.545575 0.608447
O O7 0.149194 0.598215 0.618600
O O8 0.141488 0.873503 0.833644
O O9 0.256105 0.835477 0.855369
O O10 0.854647 0.852638 0.797152
O O11 0.750471 0.875236 0.750000
O O12 0.901247 0.365683 0.500000
O O13 0.940959 0.532820 0.500000
O O14 0.323390 0.578892 0.680951
O O15 0.333334 0.666667 0.250000
#
# Coordination Sequence:
#
# PCOD9588583 Si02
#       8
#    24  24  24  24  12  12  24   8
#     4  10  21  34  53  75 107 142 184 221 269 321
#     4   9  18  33  48  76 107 141 182 223 264 316
#     4  11  20  34  54  79 104 140 172 217 271 325
#     4  10  20  36  58  83 108 130 162 210 270 334
#     4   9  16  28  50  72 103 137 175 216 268 305
#     4   9  18  32  48  74 101 140 179 218 252 301
#     4   9  19  32  51  75 104 137 179 222 264 308
#     4   9  18  36  54  70  98 139 180 216 252 318
#
# _framework density 16.926404000000002
#
# number of rings (size 3 to 8) (size 9 to 14) (size 15 to 20)
#    0.000    2.368    1.579    1.421    0.000    4.421 
#    0.000    3.158    0.000    0.000    0.000    1.105 
#    0.000    2.526    0.000    0.000    0.000    0.000 
#
# Total GULP energy -846413.613815 kJ/mol
# GULP energy per Si atom -5568.510617 kJ/mol
# Density = 1.688788 g / cm^3
# Si number density = 16.926404 Si / 1000 Ang^3
#
#
#
# Elastic Constant Matrix: (Units=GPa)
#
#
# Indices 1 2 3 4 5 6 
#
# 1 69.7628 32.8173 40.6749 0.0000 0.0000 0.0000
# 2 32.8173 69.7627 40.6747 0.0000 0.0000 0.0000
# 3 40.6749 40.6747 120.3107 -0.0001 0.0000 -0.0001
# 4 0.0000 0.0000 -0.0001 22.5610 0.0000 0.0000
# 5 0.0000 0.0000 0.0000 0.0000 22.5611 0.0000
# 6 0.0000 0.0000 -0.0001 0.0000 0.0000 18.4727
#
#
#
# Elastic Compliance Matrix: (Units=1/GPa)
#
#
# Indices 1 2 3 4 5 6 
#
# 1 0.020193 -0.006874 -0.004503 0.000000 0.000000 0.000000
# 2 -0.006874 0.020193 -0.004503 0.000000 0.000000 0.000000
# 3 -0.004503 -0.004503 0.011357 0.000000 0.000000 0.000000
# 4 0.000000 0.000000 0.000000 0.044324 0.000000 0.000000
# 5 0.000000 0.000000 0.000000 0.000000 0.044324 0.000000
# 6 0.000000 0.000000 0.000000 0.000000 0.000000 0.054134
#
#
# Mechanical properties :
#
#
# Convention : Reuss Voigt Hill
#
# Bulk Modulus (GPa) = 50.04147 54.24111 52.14129
# Shear Modulus (GPa) = 21.46416 22.43024 21.94720
#
# Velocity S-wave (km/s) = 3.56489 3.64423 3.60477
# Velocity P-wave (km/s) = 6.82443 7.05847 6.94244
#
# Compressibility (1/GPa) = 0.01998342
#
# Stress axis : x y z
#
# Youngs Moduli (GPa) = 49.52141 49.52142 88.05414
#
# Poissons Ratio (x) = 0.34039 0.39652
# Poissons Ratio (y) = 0.34039 0.39652
# Poissons Ratio (z) = 0.22300 0.22300
#
# Static dielectric constant tensor:
#      x y z
#    x 1.583450 0.000000 0.000000 
#    y 0.000000 1.583450 0.000000 
#    z 0.000000 0.000000 1.573430 
# 
# From -- ./inp_files/7157.got.cif
#   From: 2010.05.17/outbox.cif.g08.bks.cpg/sg192_4_cif.got.tgz:7157.got - 2010.05.20 12:28:01.
