data_PCOD9588992
_publ_section_title
;
Structure prediction by ZEFSAII (Michael W. Deem and Ramdas Pophale) SiO2 
 PCOD9588992
Probable space group: P 63/M C M
;
_chemical_formula_sum "Si O2"
_cell_formula_units_Z 120
_cell_length_a 25.144831
_cell_length_b 25.144831
_cell_length_c 14.604346
_cell_angle_alpha 90.000000
_cell_angle_beta 90.000000
_cell_angle_gamma 120.000000
_cell_volume 7996.688653
_symmetry_space_group_name_H-M "P 63/M C M"
_symmetry_group_IT_number 193
_symmetry_cell_setting 'hexagonal'
loop_
_space_group_symop_operation_xyz
x,y,z
x-y,x,1/2+z
-y,x-y,z
-x,-y,1/2+z
-x+y,-x,z
y,-x+y,1/2+z
x-y,-y,1/2-z
-x,-x+y,1/2-z
y,x,1/2-z
-y,-x,-z
-x+y,y,-z
x,x-y,-z
-x,-y,-z
-x+y,-x,1/2-z
y,-x+y,-z
x,y,1/2-z
x-y,x,-z
-y,x-y,1/2-z
-x+y,y,1/2+z
x,x-y,1/2+z
-y,-x,1/2+z
y,x,z
x-y,-y,z
-x,-x+y,z
loop_
_atom_site_type_symbol
_atom_site_label
_atom_site_fract_x
_atom_site_fract_y
_atom_site_fract_z
Si Si1 0.068199 0.308454 0.141487
Si Si2 0.202819 0.355242 0.143289
Si Si3 0.476058 0.648569 0.990097
Si Si4 0.500866 0.754368 0.857200
Si Si5 0.683462 0.069764 0.479964
O O1 0.071942 0.320822 0.250000
O O2 0.131520 0.309491 0.118270
O O3 0.070270 0.363204 0.082636
O O4 0.000000 0.250245 0.123352
O O5 0.211786 0.346061 0.250000
O O6 0.215610 0.425122 0.133560
O O7 0.254541 0.354734 0.080840
O O8 0.482108 0.686840 0.082087
O O9 0.540816 0.651790 0.974513
O O10 0.418605 0.581395 0.000000
O O11 0.470889 0.688067 0.906377
O O12 0.486264 0.750990 0.750000
O O13 0.638980 0.000000 0.451745
#
# Coordination Sequence:
#
# PCOD9588992 Si02
#       5
#    24  24  24  24  24
#     4   9  16  26  44  70  92 113 148 188 224 266
#     4   9  16  29  49  67  87 119 153 186 224 270
#     4  10  20  33  49  68  91 115 150 194 237 290
#     4   9  18  34  52  66  83 113 149 188 236 288
#     4  10  19  30  46  68  94 124 155 188 229 280
#
# _framework density 15.006212
#
# number of rings (size 3 to 8) (size 9 to 14) (size 15 to 20)
#    0.000    2.600    2.000    0.600    0.000    1.600 
#    4.800    0.000    0.000    0.000    0.000    5.600 
#    0.000    0.000    0.000    0.600    0.000   16.800 
#
# Total GULP energy -668007.100859 kJ/mol
# GULP energy per Si atom -5566.725840 kJ/mol
# Density = 1.497206 g / cm^3
# Si number density = 15.006212 Si / 1000 Ang^3
#
#
#
# Elastic Constant Matrix: (Units=GPa)
#
#
# Indices 1 2 3 4 5 6 
#
# 1 93.6023 65.4903 37.2226 0.0000 0.0000 0.0000
# 2 65.4903 93.6023 37.2226 0.0000 0.0000 0.0000
# 3 37.2226 37.2226 75.5691 0.0000 0.0000 0.0000
# 4 0.0000 0.0000 0.0000 15.1084 0.0000 0.0000
# 5 0.0000 0.0000 0.0000 0.0000 15.1084 0.0000
# 6 0.0000 0.0000 0.0000 0.0000 0.0000 14.0560
#
#
#
# Elastic Compliance Matrix: (Units=1/GPa)
#
#
# Indices 1 2 3 4 5 6 
#
# 1 0.021870 -0.013702 -0.004023 0.000000 0.000000 0.000000
# 2 -0.013702 0.021870 -0.004023 0.000000 0.000000 0.000000
# 3 -0.004023 -0.004023 0.017197 0.000000 0.000000 0.000000
# 4 0.000000 0.000000 0.000000 0.066188 0.000000 0.000000
# 5 0.000000 0.000000 0.000000 0.000000 0.066188 0.000000
# 6 0.000000 0.000000 0.000000 0.000000 0.000000 0.071144
#
#
# Mechanical properties :
#
#
# Convention : Reuss Voigt Hill
#
# Bulk Modulus (GPa) = 57.34115 60.29388 58.81752
# Shear Modulus (GPa) = 15.93535 17.04379 16.48957
#
# Velocity S-wave (km/s) = 3.26224 3.37379 3.31849
# Velocity P-wave (km/s) = 7.24460 7.44602 7.34600
#
# Compressibility (1/GPa) = 0.01743948
#
# Stress axis : x y z
#
# Youngs Moduli (GPa) = 45.72440 45.72440 58.15126
#
# Poissons Ratio (x) = 0.62651 0.23397
# Poissons Ratio (y) = 0.62651 0.23397
# Poissons Ratio (z) = 0.18397 0.18397
#
# Static dielectric constant tensor:
#      x y z
#    x 1.498100 0.000000 0.000000 
#    y 0.000000 1.498100 0.000000 
#    z 0.000000 0.000000 1.517940 
# 
# From -- ./inp_files/3992.got.cif
#   From: 2010.05.17/outbox.cif.g08.bks.cpg/sg193_2_cif.got.tgz:3992.got - 2010.05.20 12:33:02.
