data_PCOD9588544
_publ_section_title
;
Structure prediction by ZEFSAII (Michael W. Deem and Ramdas Pophale) SiO2 
 PCOD9588544
Probable space group: P 6/M C C
;
_chemical_formula_sum "Si O2"
_cell_formula_units_Z 144
_cell_length_a 31.994464
_cell_length_b 31.994464
_cell_length_c 8.849015
_cell_angle_alpha 90.000000
_cell_angle_beta 90.000000
_cell_angle_gamma 120.000000
_cell_volume 7844.680148
_symmetry_space_group_name_H-M "P 6/M C C"
_symmetry_group_IT_number 192
_symmetry_cell_setting 'hexagonal'
loop_
_space_group_symop_operation_xyz
x,y,z
x-y,x,z
-y,x-y,z
-x,-y,z
-x+y,-x,z
y,-x+y,z
x-y,-y,1/2-z
-x,-x+y,1/2-z
y,x,1/2-z
-y,-x,1/2-z
-x+y,y,1/2-z
x,x-y,1/2-z
-x,-y,-z
-x+y,-x,-z
y,-x+y,-z
x,y,-z
x-y,x,-z
-y,x-y,-z
-x+y,y,1/2+z
x,x-y,1/2+z
-y,-x,1/2+z
y,x,1/2+z
x-y,-y,1/2+z
-x,-x+y,1/2+z
loop_
_atom_site_type_symbol
_atom_site_label
_atom_site_fract_x
_atom_site_fract_y
_atom_site_fract_z
Si Si1 0.854259 0.526339 0.319458
Si Si2 0.948283 0.143056 0.820084
Si Si3 0.706305 0.948189 0.819587
Si Si4 0.571515 0.520581 0.181341
Si Si5 0.758691 0.333247 0.819448
Si Si6 0.237333 0.382704 0.320111
O O1 0.854010 0.535013 0.500000
O O2 0.904541 0.528561 0.282598
O O3 0.809587 0.473351 0.287152
O O4 0.848436 0.566354 0.230483
O O5 0.904942 0.095059 0.750000
O O6 0.940443 0.188551 0.788682
O O7 0.000000 0.157465 0.750000
O O8 0.949574 0.138320 0.000000
O O9 0.659196 0.905094 0.745180
O O10 0.720721 0.000000 0.750000
O O11 0.700464 0.948647 0.000000
O O12 0.560862 0.560862 0.250000
O O13 0.529951 0.470050 0.250000
O O14 0.566125 0.519209 0.000000
O O15 0.715336 0.284665 0.750000
O O16 0.757827 0.378914 0.750000
O O17 0.752838 0.332844 0.000000
O O18 0.188629 0.377257 0.250000
O O19 0.233118 0.379303 0.500000
#
# Coordination Sequence:
#
# PCOD9588544 Si02
#       6
#    24  24  24  24  24  24
#     4  10  23  41  60  84 115 151 192 237 283 337
#     4  10  20  34  55  82 112 147 187 233 283 335
#     4  10  21  38  60  86 117 151 191 238 287 340
#     4  10  20  36  59  86 116 149 188 234 284 338
#     4  11  23  40  62  87 115 147 184 230 283 340
#     4  12  25  40  60  84 115 155 195 237 286 341
#
# _framework density 18.356387999999999
#
# number of rings (size 3 to 8) (size 9 to 14) (size 15 to 20)
#    0.000    1.500    0.000    5.667    0.000    8.000 
#    0.000    1.667    0.000    0.167    0.000    1.167 
#    0.000    0.000    0.000    0.000    0.000    0.000 
#
# Total GULP energy -805262.221547 kJ/mol
# GULP energy per Si atom -5592.098761 kJ/mol
# Density = 1.831461 g / cm^3
# Si number density = 18.356388 Si / 1000 Ang^3
#
#
#
# Elastic Constant Matrix: (Units=GPa)
#
#
# Indices 1 2 3 4 5 6 
#
# 1 123.1667 68.0131 65.0072 0.0000 0.0000 0.0000
# 2 68.0131 123.1667 65.0072 0.0000 0.0000 0.0000
# 3 65.0072 65.0072 84.6828 0.0000 0.0000 0.0000
# 4 0.0000 0.0000 0.0000 29.2691 0.0000 0.0000
# 5 0.0000 0.0000 0.0000 0.0000 29.2691 0.0000
# 6 0.0000 0.0000 0.0000 0.0000 0.0000 27.5768
#
#
#
# Elastic Compliance Matrix: (Units=1/GPa)
#
#
# Indices 1 2 3 4 5 6 
#
# 1 0.014538 -0.003594 -0.008401 0.000000 0.000000 0.000000
# 2 -0.003594 0.014538 -0.008401 0.000000 0.000000 0.000000
# 3 -0.008401 -0.008401 0.024707 0.000000 0.000000 0.000000
# 4 0.000000 0.000000 0.000000 0.034166 0.000000 0.000000
# 5 0.000000 0.000000 0.000000 0.000000 0.034166 0.000000
# 6 0.000000 0.000000 0.000000 0.000000 0.000000 0.036262
#
#
# Mechanical properties :
#
#
# Convention : Reuss Voigt Hill
#
# Bulk Modulus (GPa) = 76.98000 80.78568 78.88284
# Shear Modulus (GPa) = 24.57019 26.08894 25.32956
#
# Velocity S-wave (km/s) = 3.66253 3.77403 3.71870
# Velocity P-wave (km/s) = 7.74034 7.94331 7.84248
#
# Compressibility (1/GPa) = 0.01299039
#
# Stress axis : x y z
#
# Youngs Moduli (GPa) = 68.78703 68.78703 40.47376
#
# Poissons Ratio (x) = 0.24719 0.34003
# Poissons Ratio (y) = 0.24719 0.34003
# Poissons Ratio (z) = 0.57790 0.57790
#
# Static dielectric constant tensor:
#      x y z
#    x 1.604230 0.000000 0.000000 
#    y 0.000000 1.604230 0.000000 
#    z 0.000000 0.000000 1.613210 
# 
# From -- ./inp_files/1161.got.cif
#   From: 2010.05.17/outbox.cif.g08.bks.cpg/sg192_1_cif.got.tgz:1161.got - 2010.05.20 12:28:01.
