data_PCOD9588219
_publ_section_title
;
Structure prediction by ZEFSAII (Michael W. Deem and Ramdas Pophale) SiO2 
 PCOD9588219
Probable space group: P 6/M M M
;
_chemical_formula_sum "Si O2"
_cell_formula_units_Z 96
_cell_length_a 20.669316
_cell_length_b 20.669316
_cell_length_c 17.030271
_cell_angle_alpha 90.000000
_cell_angle_beta 90.000000
_cell_angle_gamma 120.000000
_cell_volume 6300.926310
_symmetry_space_group_name_H-M "P 6/M M M"
_symmetry_group_IT_number 191
_symmetry_cell_setting 'hexagonal'
loop_
_space_group_symop_operation_xyz
x,y,z
x-y,x,z
-y,x-y,z
-x,-y,z
-x+y,-x,z
y,-x+y,z
x-y,-y,-z
-x,-x+y,-z
y,x,-z
-y,-x,-z
-x+y,y,-z
x,x-y,-z
-x,-y,-z
-x+y,-x,-z
y,-x+y,-z
x,y,-z
x-y,x,-z
-y,x-y,-z
-x+y,y,z
x,x-y,z
-y,-x,z
y,x,z
x-y,-y,z
-x,-x+y,z
loop_
_atom_site_type_symbol
_atom_site_label
_atom_site_fract_x
_atom_site_fract_y
_atom_site_fract_z
Si Si1 0.296840 0.296840 0.094243
Si Si2 0.913195 0.378153 0.500000
Si Si3 0.531901 0.622458 0.672863
Si Si4 0.854300 0.854300 0.095058
Si Si5 0.296706 0.439556 0.166293
Si Si6 0.543968 0.087936 0.093843
O O1 0.221027 0.221027 0.110998
O O2 0.289267 0.363784 0.131456
O O3 0.308261 0.308261 0.000000
O O4 0.912994 0.456497 0.500000
O O5 0.882732 0.344179 0.414615
O O6 0.000000 0.401430 0.500000
O O7 0.447557 0.552444 0.683403
O O8 0.584527 0.584527 0.676944
O O9 0.553203 0.681445 0.741977
O O10 0.852317 0.926159 0.124875
O O11 0.860172 0.860172 0.000000
O O12 0.222205 0.444409 0.153237
O O13 0.371601 0.502652 0.124197
O O14 0.500000 0.000000 0.121904
O O15 0.542598 0.085196 0.000000
#
# Coordination Sequence:
#
# PCOD9588219 Si02
#       6
#    12  12  24  12  24  12
#     4  11  22  36  52  71  98 133 177 219 253 297
#     4   7  12  22  47  80 100 123 164 210 252 299
#     4   9  15  30  53  76 102 132 169 211 255 311
#     4   9  17  30  48  70  96 125 157 198 250 302
#     4  12  23  35  54  79 104 134 173 217 264 309
#     4  11  22  40  60  75  97 137 185 224 266 316
#
# _framework density 15.235856
#
# number of rings (size 3 to 8) (size 9 to 14) (size 15 to 20)
#    0.000    2.000    3.750    3.125    0.000    3.500 
#    0.750    0.625    0.000    0.000    0.000    0.000 
#    0.000    0.000    0.000    0.000    0.000    0.375 
#
# Total GULP energy -534874.739434 kJ/mol
# GULP energy per Si atom -5571.611869 kJ/mol
# Density = 1.520118 g / cm^3
# Si number density = 15.235856 Si / 1000 Ang^3
#
#
#
# Elastic Constant Matrix: (Units=GPa)
#
#
# Indices 1 2 3 4 5 6 
#
# 1 107.1959 73.4093 49.5140 0.0000 0.0000 0.0000
# 2 73.4093 107.1959 49.5140 0.0000 0.0000 0.0000
# 3 49.5140 49.5140 113.6682 0.0000 0.0000 0.0000
# 4 0.0000 0.0000 0.0000 10.1337 0.0000 0.0000
# 5 0.0000 0.0000 0.0000 0.0000 10.1337 0.0000
# 6 0.0000 0.0000 0.0000 0.0000 0.0000 16.8933
#
#
#
# Elastic Compliance Matrix: (Units=1/GPa)
#
#
# Indices 1 2 3 4 5 6 
#
# 1 0.018436 -0.011162 -0.003169 0.000000 0.000000 0.000000
# 2 -0.011162 0.018436 -0.003169 0.000000 0.000000 0.000000
# 3 -0.003169 -0.003169 0.011558 0.000000 0.000000 0.000000
# 4 0.000000 0.000000 0.000000 0.098681 0.000000 0.000000
# 5 0.000000 0.000000 0.000000 0.000000 0.098681 0.000000
# 6 0.000000 0.000000 0.000000 0.000000 0.000000 0.059195
#
#
# Mechanical properties :
#
#
# Convention : Reuss Voigt Hill
#
# Bulk Modulus (GPa) = 74.44913 74.77053 74.60983
# Shear Modulus (GPa) = 14.51537 17.80697 16.16117
#
# Velocity S-wave (km/s) = 3.08995 3.42241 3.26042
# Velocity P-wave (km/s) = 7.85499 8.04979 7.95299
#
# Compressibility (1/GPa) = 0.01343199
#
# Stress axis : x y z
#
# Youngs Moduli (GPa) = 54.24177 54.24177 86.51911
#
# Poissons Ratio (x) = 0.60542 0.27416
# Poissons Ratio (y) = 0.60542 0.27416
# Poissons Ratio (z) = 0.17188 0.17188
#
# Static dielectric constant tensor:
#      x y z
#    x 1.497910 0.000000 0.000000 
#    y 0.000000 1.497910 0.000000 
#    z 0.000000 0.000000 1.542860 
# 
# From -- ./inp_files/6019.got.cif
#   From: 2010.05.17/outbox.cif.g08.bks.cpg/sg191_4_cif.got.tgz:6019.got - 2010.05.20 12:20:32.
