data_PCOD9588199
_publ_section_title
;
Structure prediction by ZEFSAII (Michael W. Deem and Ramdas Pophale) SiO2 
 PCOD9588199
Probable space group: P 6/M M M
;
_chemical_formula_sum "Si O2"
_cell_formula_units_Z 60
_cell_length_a 21.803411
_cell_length_b 21.803411
_cell_length_c 7.806706
_cell_angle_alpha 90.000000
_cell_angle_beta 90.000000
_cell_angle_gamma 120.000000
_cell_volume 3214.010851
_symmetry_space_group_name_H-M "P 6/M M M"
_symmetry_group_IT_number 191
_symmetry_cell_setting 'hexagonal'
loop_
_space_group_symop_operation_xyz
x,y,z
x-y,x,z
-y,x-y,z
-x,-y,z
-x+y,-x,z
y,-x+y,z
x-y,-y,-z
-x,-x+y,-z
y,x,-z
-y,-x,-z
-x+y,y,-z
x,x-y,-z
-x,-y,-z
-x+y,-x,-z
y,-x+y,-z
x,y,-z
x-y,x,-z
-y,x-y,-z
-x+y,y,z
x,x-y,z
-y,-x,z
y,x,z
x-y,-y,z
-x,-x+y,z
loop_
_atom_site_type_symbol
_atom_site_label
_atom_site_fract_x
_atom_site_fract_y
_atom_site_fract_z
Si Si1 0.919490 0.327280 0.206384
Si Si2 0.082287 0.917714 0.709700
Si Si3 0.163472 0.836528 0.296854
Si Si4 0.543194 0.456806 0.800603
O O1 0.874279 0.245325 0.246661
O O2 0.892457 0.380023 0.273225
O O3 0.000000 0.358412 0.268767
O O4 0.922520 0.334419 0.000000
O O5 0.082465 0.917536 0.500000
O O6 0.123067 0.876933 0.770983
O O7 0.000000 0.876665 0.762904
O O8 0.160072 0.839929 0.500000
O O9 0.500000 0.500000 0.798346
O O10 0.554392 0.445609 0.000000
#
# Coordination Sequence:
#
# PCOD9588199 Si02
#       4
#    24  12  12  12
#     4   9  17  31  51  72  93 120 157 199 241 286
#     4   9  17  29  44  61  85 123 170 213 248 284
#     4  11  21  30  43  69 105 134 156 193 247 303
#     4   7  12  26  49  72  89 108 141 187 231 270
#
# _framework density 18.668264000000001
#
# number of rings (size 3 to 8) (size 9 to 14) (size 15 to 20)
#    0.000    3.000    0.000    4.400    0.000    3.200 
#    0.000    1.000    0.000    4.400    0.000    2.800 
#    0.000    9.600    0.000    0.000    0.000    0.000 
#
# Total GULP energy -334239.042587 kJ/mol
# GULP energy per Si atom -5570.650710 kJ/mol
# Density = 1.862577 g / cm^3
# Si number density = 18.668264 Si / 1000 Ang^3
#
#
#
# Elastic Constant Matrix: (Units=GPa)
#
#
# Indices 1 2 3 4 5 6 
#
# 1 159.1323 137.2349 8.0520 0.0000 0.0000 0.0000
# 2 137.2349 159.1323 8.0520 0.0000 0.0000 0.0000
# 3 8.0520 8.0520 23.5206 0.0000 0.0000 0.0000
# 4 0.0000 0.0000 0.0000 -22.7124 0.0000 0.0000
# 5 0.0000 0.0000 0.0000 0.0000 -22.7124 0.0000
# 6 0.0000 0.0000 0.0000 0.0000 0.0000 10.9487
#
#
#
# Elastic Compliance Matrix: (Units=1/GPa)
#
#
# Indices 1 2 3 4 5 6 
#
# 1 0.024553 -0.021115 -0.001177 0.000000 0.000000 0.000000
# 2 -0.021115 0.024553 -0.001177 0.000000 0.000000 0.000000
# 3 -0.001177 -0.001177 0.043322 0.000000 0.000000 0.000000
# 4 0.000000 0.000000 0.000000 -0.044029 0.000000 0.000000
# 5 0.000000 0.000000 0.000000 0.000000 -0.044029 0.000000
# 6 0.000000 0.000000 0.000000 0.000000 0.000000 0.091335
#
#
# Mechanical properties :
#
#
# Convention : Reuss Voigt Hill
#
# Bulk Modulus (GPa) = 21.98287 72.05148 47.01717
# Shear Modulus (GPa) = 31.68449 5.66786 18.67618
#
# Velocity S-wave (km/s) = 4.12422 1.74433 3.16638
# Velocity P-wave (km/s) = 5.87197 6.53731 6.21355
#
# Compressibility (1/GPa) = 0.04548997
#
# Stress axis : x y z
#
# Youngs Moduli (GPa) = 40.72840 40.72840 23.08311
#
# Poissons Ratio (x) = 0.85997 0.02717
# Poissons Ratio (y) = 0.85997 0.02717
# Poissons Ratio (z) = 0.04794 0.04794
#
# Static dielectric constant tensor:
#      x y z
#    x 1.718230 0.000000 0.000000 
#    y 0.000000 1.718230 0.000000 
#    z 0.000000 0.000000 1.699250 
# 
# From -- ./inp_files/605.got.cif
#   From: 2010.05.17/outbox.cif.g08.bks.cpg/sg191_1_cif.got.tgz:605.got - 2010.05.20 12:20:32.
