data_PCOD9588323
_publ_section_title
;
Structure prediction by ZEFSAII (Michael W. Deem and Ramdas Pophale) SiO2 
 PCOD9588323
Probable space group: P 6/M C C
;
_chemical_formula_sum "Si O2"
_cell_formula_units_Z 164
_cell_length_a 21.328370
_cell_length_b 21.328370
_cell_length_c 25.283712
_cell_angle_alpha 90.000000
_cell_angle_beta 90.000000
_cell_angle_gamma 120.000000
_cell_volume 9960.629790
_symmetry_space_group_name_H-M "P 6/M C C"
_symmetry_group_IT_number 192
_symmetry_cell_setting 'hexagonal'
loop_
_space_group_symop_operation_xyz
x,y,z
x-y,x,z
-y,x-y,z
-x,-y,z
-x+y,-x,z
y,-x+y,z
x-y,-y,1/2-z
-x,-x+y,1/2-z
y,x,1/2-z
-y,-x,1/2-z
-x+y,y,1/2-z
x,x-y,1/2-z
-x,-y,-z
-x+y,-x,-z
y,-x+y,-z
x,y,-z
x-y,x,-z
-y,x-y,-z
-x+y,y,1/2+z
x,x-y,1/2+z
-y,-x,1/2+z
y,x,1/2+z
x-y,-y,1/2+z
-x,-x+y,1/2+z
loop_
_atom_site_type_symbol
_atom_site_label
_atom_site_fract_x
_atom_site_fract_y
_atom_site_fract_z
Si Si1 0.379733 0.384740 0.438270
Si Si2 0.074444 0.772293 0.936876
Si Si3 0.738943 0.267113 0.367186
Si Si4 0.159731 0.765156 0.561186
Si Si5 0.146050 0.141035 0.435419
Si Si6 0.500000 0.500000 0.361650
Si Si7 0.575267 0.162465 0.186992
Si Si8 0.333334 0.666667 0.062205
O O1 0.403521 0.397343 0.500000
O O2 0.363934 0.306124 0.419253
O O3 0.303281 0.383026 0.435639
O O4 0.436499 0.444567 0.399970
O O5 0.157175 0.833711 0.929701
O O6 0.018848 0.795714 0.915827
O O7 0.062030 0.763394 0.000000
O O8 0.788921 0.241447 0.395989
O O9 0.791342 0.342614 0.336572
O O10 0.671425 0.206867 0.332805
O O11 0.701391 0.288194 0.413847
O O12 0.184621 0.766981 0.500000
O O13 0.075378 0.142407 0.418938
O O14 0.146496 0.143264 0.500000
O O15 0.466911 0.544457 0.330971
O O16 0.582519 0.165038 0.250000
O O17 0.333334 0.666668 0.000000
#
# Coordination Sequence:
#
# PCOD9588323 Si02
#       8
#    24  24  24  24  24  12  24   8
#     4  10  20  33  50  74 105 139 169 208 258 316
#     4   9  17  28  43  64  93 133 172 201 239 291
#     4  10  20  36  54  76 101 130 169 208 259 320
#     4  10  18  31  49  73 104 136 170 208 249 306
#     4   9  15  23  36  57  86 122 165 209 241 268
#     4  12  22  38  54  80 106 130 172 214 270 322
#     4  11  23  39  59  78 101 132 172 223 272 317
#     4   9  18  30  49  77 103 129 156 201 256 311
#
# _framework density 16.464822999999999
#
# number of rings (size 3 to 8) (size 9 to 14) (size 15 to 20)
#    0.000    2.049    1.463    3.512    0.000    4.098 
#    0.000    1.463    0.000    0.000    0.000    0.000 
#    0.000    0.000    0.000    0.000    0.000    0.000 
#
# Total GULP energy -913539.644794 kJ/mol
# GULP energy per Si atom -5570.363688 kJ/mol
# Density = 1.642735 g / cm^3
# Si number density = 16.464823 Si / 1000 Ang^3
#
#
#
# Elastic Constant Matrix: (Units=GPa)
#
#
# Indices 1 2 3 4 5 6 
#
# 1 77.7099 24.0069 32.6080 0.0000 0.0000 0.0000
# 2 24.0069 77.7098 32.6078 0.0000 0.0000 0.0000
# 3 32.6080 32.6078 81.4843 0.0001 0.0000 0.0001
# 4 0.0000 0.0000 0.0001 15.3229 0.0000 0.0000
# 5 0.0000 0.0000 0.0000 0.0000 15.3229 0.0000
# 6 0.0000 0.0000 0.0001 0.0000 0.0000 26.8512
#
#
#
# Elastic Compliance Matrix: (Units=1/GPa)
#
#
# Indices 1 2 3 4 5 6 
#
# 1 0.015923 -0.002698 -0.005292 0.000000 0.000000 0.000000
# 2 -0.002698 0.015923 -0.005292 0.000000 0.000000 0.000000
# 3 -0.005292 -0.005292 0.016508 0.000000 0.000000 0.000000
# 4 0.000000 0.000000 0.000000 0.065262 0.000000 0.000000
# 5 0.000000 0.000000 0.000000 0.000000 0.065262 0.000000
# 6 0.000000 0.000000 0.000000 0.000000 0.000000 0.037242
#
#
# Mechanical properties :
#
#
# Convention : Reuss Voigt Hill
#
# Bulk Modulus (GPa) = 45.89642 46.14992 46.02317
# Shear Modulus (GPa) = 20.00429 21.34480 20.67455
#
# Velocity S-wave (km/s) = 3.48943 3.60444 3.54740
# Velocity P-wave (km/s) = 6.64611 6.73891 6.69267
#
# Compressibility (1/GPa) = 0.02178819
#
# Stress axis : x y z
#
# Youngs Moduli (GPa) = 62.80390 62.80396 60.57772
#
# Poissons Ratio (x) = 0.16947 0.32058
# Poissons Ratio (y) = 0.16947 0.32057
# Poissons Ratio (z) = 0.33236 0.33236
#
# Static dielectric constant tensor:
#      x y z
#    x 1.587360 0.000000 0.000000 
#    y 0.000000 1.587360 0.000000 
#    z 0.000000 0.000000 1.507710 
# 
# From -- ./inp_files/6074.got.cif
#   From: 2010.05.17/outbox.cif.g08.bks.cpg/sg192_4_cif.got.tgz:6074.got - 2010.05.20 12:28:01.
