data_PCOD9588833
_publ_section_title
;
Structure prediction by ZEFSAII (Michael W. Deem and Ramdas Pophale) SiO2 
 PCOD9588833
Probable space group: P 6/M C C
;
_chemical_formula_sum "Si O2"
_cell_formula_units_Z 72
_cell_length_a 21.328606
_cell_length_b 21.328606
_cell_length_c 9.581144
_cell_angle_alpha 90.000000
_cell_angle_beta 90.000000
_cell_angle_gamma 120.000000
_cell_volume 3774.617443
_symmetry_space_group_name_H-M "P 6/M C C"
_symmetry_group_IT_number 192
_symmetry_cell_setting 'hexagonal'
loop_
_space_group_symop_operation_xyz
x,y,z
x-y,x,z
-y,x-y,z
-x,-y,z
-x+y,-x,z
y,-x+y,z
x-y,-y,1/2-z
-x,-x+y,1/2-z
y,x,1/2-z
-y,-x,1/2-z
-x+y,y,1/2-z
x,x-y,1/2-z
-x,-y,-z
-x+y,-x,-z
y,-x+y,-z
x,y,-z
x-y,x,-z
-y,x-y,-z
-x+y,y,1/2+z
x,x-y,1/2+z
-y,-x,1/2+z
y,x,1/2+z
x-y,-y,1/2+z
-x,-x+y,1/2+z
loop_
_atom_site_type_symbol
_atom_site_label
_atom_site_fract_x
_atom_site_fract_y
_atom_site_fract_z
Si Si1 0.169919 0.111242 0.000000
Si Si2 0.071650 0.698432 0.839522
Si Si3 0.136469 0.863532 0.250000
Si Si4 0.798226 0.463928 0.668715
O O1 0.109437 0.134107 0.000000
O O2 0.221396 0.140861 0.866251
O O3 0.107059 0.783884 0.811040
O O4 0.132855 0.676790 0.814737
O O5 0.000000 0.653689 0.750000
O O6 0.049892 0.684802 0.000000
O O7 0.730921 0.461842 0.750000
O O8 0.811740 0.405870 0.750000
O O9 0.784997 0.449657 0.500000
#
# Coordination Sequence:
#
# PCOD9588833 Si02
#       4
#    12  24  12  24
#     4  12  25  42  64  92 132 176 226 284 340 404
#     4  11  25  43  68  98 131 170 219 274 331 396
#     4  12  24  42  63  96 126 170 226 272 337 396
#     4  11  24  44  68 100 135 177 220 269 328 395
#
# _framework density 19.074781999999999
#
# number of rings (size 3 to 8) (size 9 to 14) (size 15 to 20)
#    0.000    0.667    3.333    4.500    2.333    3.333 
#    0.000    5.000    0.000    0.000    0.000    0.000 
#    0.000    0.000    0.000    0.000    0.000    0.000 
#
# Total GULP energy -402769.826026 kJ/mol
# GULP energy per Si atom -5594.025361 kJ/mol
# Density = 1.903137 g / cm^3
# Si number density = 19.074782 Si / 1000 Ang^3
#
#
#
# Elastic Constant Matrix: (Units=GPa)
#
#
# Indices 1 2 3 4 5 6 
#
# 1 84.5314 96.3337 64.8063 0.0000 0.0000 0.0000
# 2 96.3337 84.5314 64.8063 0.0000 0.0000 0.0000
# 3 64.8063 64.8063 112.0222 0.0000 0.0000 0.0000
# 4 0.0000 0.0000 0.0000 34.7886 0.0000 0.0000
# 5 0.0000 0.0000 0.0000 0.0000 34.7886 0.0000
# 6 0.0000 0.0000 0.0000 0.0000 0.0000 -5.9012
#
#
#
# Elastic Compliance Matrix: (Units=1/GPa)
#
#
# Indices 1 2 3 4 5 6 
#
# 1 -0.037642 0.047087 -0.005464 0.000000 0.000000 0.000000
# 2 0.047087 -0.037642 -0.005464 0.000000 0.000000 0.000000
# 3 -0.005464 -0.005464 0.015248 0.000000 0.000000 0.000000
# 4 0.000000 0.000000 0.000000 0.028745 0.000000 0.000000
# 5 0.000000 0.000000 0.000000 0.000000 0.028745 0.000000
# 6 0.000000 0.000000 0.000000 0.000000 0.000000 -0.169458
#
#
# Mechanical properties :
#
#
# Convention : Reuss Voigt Hill
#
# Bulk Modulus (GPa) = 81.41707 81.44192 81.42949
# Shear Modulus (GPa) = -20.81344 16.41114 -2.20115
#
# Velocity S-wave (km/s) = -3.30684 2.93637 -1.07539
# Velocity P-wave (km/s) = 5.30994 7.36785 6.42186
#
# Compressibility (1/GPa) = 0.01228244
#
# Stress axis : x y z
#
# Youngs Moduli (GPa) = -26.56578 -26.56578 65.58037
#
# Poissons Ratio (x) = 1.25090 0.35831
# Poissons Ratio (y) = 1.25090 0.35831
# Poissons Ratio (z) = -0.14515 -0.14515
#
# Static dielectric constant tensor:
#      x y z
#    x 1.634050 0.000000 0.000000 
#    y 0.000000 1.634050 0.000000 
#    z 0.000000 0.000000 1.651910 
# 
# From -- ./inp_files/534.got.cif
#   From: 2010.05.17/outbox.cif.g08.bks.cpg/sg192_1_cif.got.tgz:534.got - 2010.05.20 12:28:01.
