data_PCOD9588371
_publ_section_title
;
Structure prediction by ZEFSAII (Michael W. Deem and Ramdas Pophale) SiO2 
 PCOD9588371
Probable space group: P 6/M C C
;
_chemical_formula_sum "Si O2"
_cell_formula_units_Z 108
_cell_length_a 22.634619
_cell_length_b 22.634619
_cell_length_c 16.775931
_cell_angle_alpha 90.000000
_cell_angle_beta 90.000000
_cell_angle_gamma 120.000000
_cell_volume 7443.267721
_symmetry_space_group_name_H-M "P 6/M C C"
_symmetry_group_IT_number 192
_symmetry_cell_setting 'hexagonal'
loop_
_space_group_symop_operation_xyz
x,y,z
x-y,x,z
-y,x-y,z
-x,-y,z
-x+y,-x,z
y,-x+y,z
x-y,-y,1/2-z
-x,-x+y,1/2-z
y,x,1/2-z
-y,-x,1/2-z
-x+y,y,1/2-z
x,x-y,1/2-z
-x,-y,-z
-x+y,-x,-z
y,-x+y,-z
x,y,-z
x-y,x,-z
-y,x-y,-z
-x+y,y,1/2+z
x,x-y,1/2+z
-y,-x,1/2+z
y,x,1/2+z
x-y,-y,1/2+z
-x,-x+y,1/2+z
loop_
_atom_site_type_symbol
_atom_site_label
_atom_site_fract_x
_atom_site_fract_y
_atom_site_fract_z
Si Si1 0.000000 0.366958 0.750000
Si Si2 0.279687 0.428702 0.226096
Si Si3 0.351617 0.537820 0.363691
Si Si4 0.789814 0.317831 0.907696
Si Si5 0.549308 0.968274 0.586751
O O1 0.072279 0.371099 0.743060
O O2 0.006410 0.407406 0.832050
O O3 0.203252 0.406503 0.250000
O O4 0.326108 0.495899 0.280869
O O5 0.297157 0.457583 0.136875
O O6 0.410956 0.616283 0.364470
O O7 0.285272 0.536749 0.399882
O O8 0.381577 0.495595 0.408670
O O9 0.806668 0.335252 0.000000
O O10 0.585440 0.986732 0.500000
O O11 0.500000 0.000000 0.588252
#
# Coordination Sequence:
#
# PCOD9588371 Si02
#       5
#    12  24  24  24  24
#     4  10  19  32  48  62  80 106 131 162 204 242
#     4   9  20  34  46  61  82 106 133 165 202 245
#     4  10  20  32  42  58  82 109 139 172 214 256
#     4  11  19  28  43  60  80 106 138 176 213 250
#     4  10  19  30  44  61  80 103 136 175 210 248
#
# _framework density 14.509755999999999
#
# number of rings (size 3 to 8) (size 9 to 14) (size 15 to 20)
#    0.000    2.000    0.000    4.778    0.000    6.222 
#    0.000    2.222    0.000    0.000    0.000    0.000 
#    0.000    0.000    0.000    0.333    0.000    0.000 
#
# Total GULP energy -601707.194095 kJ/mol
# GULP energy per Si atom -5571.362908 kJ/mol
# Density = 1.447673 g / cm^3
# Si number density = 14.509756 Si / 1000 Ang^3
#
#
#
# Elastic Constant Matrix: (Units=GPa)
#
#
# Indices 1 2 3 4 5 6 
#
# 1 65.3772 43.0570 24.2390 0.0000 0.0000 0.0000
# 2 43.0570 65.3772 24.2390 0.0000 0.0000 0.0000
# 3 24.2390 24.2390 73.9835 0.0000 0.0000 0.0000
# 4 0.0000 0.0000 0.0000 1.9103 0.0000 0.0000
# 5 0.0000 0.0000 0.0000 0.0000 1.9103 0.0000
# 6 0.0000 0.0000 0.0000 0.0000 0.0000 11.1601
#
#
#
# Elastic Compliance Matrix: (Units=1/GPa)
#
#
# Indices 1 2 3 4 5 6 
#
# 1 0.027804 -0.016999 -0.003540 0.000000 0.000000 0.000000
# 2 -0.016999 0.027804 -0.003540 0.000000 0.000000 0.000000
# 3 -0.003540 -0.003540 0.015836 0.000000 0.000000 0.000000
# 4 0.000000 0.000000 0.000000 0.523483 0.000000 0.000000
# 5 0.000000 0.000000 0.000000 0.000000 0.523483 0.000000
# 6 0.000000 0.000000 0.000000 0.000000 0.000000 0.089605
#
#
# Mechanical properties :
#
#
# Convention : Reuss Voigt Hill
#
# Bulk Modulus (GPa) = 42.94442 43.08976 43.01709
# Shear Modulus (GPa) = 3.95591 10.54299 7.24945
#
# Velocity S-wave (km/s) = 1.65297 2.69850 2.23766
# Velocity P-wave (km/s) = 5.77098 6.28258 6.03221
#
# Compressibility (1/GPa) = 0.02328591
#
# Stress axis : x y z
#
# Youngs Moduli (GPa) = 35.96650 35.96650 63.14695
#
# Poissons Ratio (x) = 0.61139 0.22354
# Poissons Ratio (y) = 0.61139 0.22354
# Poissons Ratio (z) = 0.12732 0.12732
#
# Static dielectric constant tensor:
#      x y z
#    x 1.470800 0.000000 0.000000 
#    y 0.000000 1.470800 0.000000 
#    z 0.000000 0.000000 1.543020 
# 
# From -- ./inp_files/4148.got.cif
#   From: 2010.05.17/outbox.cif.g08.bks.cpg/sg192_3_cif.got.tgz:4148.got - 2010.05.20 12:28:01.
