data_PCOD9588286
_publ_section_title
;
Structure prediction by ZEFSAII (Michael W. Deem and Ramdas Pophale) SiO2 
 PCOD9588286
Probable space group: P 6/M C C
;
_chemical_formula_sum "Si O2"
_cell_formula_units_Z 144
_cell_length_a 20.088801
_cell_length_b 20.088801
_cell_length_c 19.785798
_cell_angle_alpha 90.000000
_cell_angle_beta 90.000000
_cell_angle_gamma 120.000000
_cell_volume 6915.000819
_symmetry_space_group_name_H-M "P 6/M C C"
_symmetry_group_IT_number 192
_symmetry_cell_setting 'hexagonal'
loop_
_space_group_symop_operation_xyz
x,y,z
x-y,x,z
-y,x-y,z
-x,-y,z
-x+y,-x,z
y,-x+y,z
x-y,-y,1/2-z
-x,-x+y,1/2-z
y,x,1/2-z
-y,-x,1/2-z
-x+y,y,1/2-z
x,x-y,1/2-z
-x,-y,-z
-x+y,-x,-z
y,-x+y,-z
x,y,-z
x-y,x,-z
-y,x-y,-z
-x+y,y,1/2+z
x,x-y,1/2+z
-y,-x,1/2+z
y,x,1/2+z
x-y,-y,1/2+z
-x,-x+y,1/2+z
loop_
_atom_site_type_symbol
_atom_site_label
_atom_site_fract_x
_atom_site_fract_y
_atom_site_fract_z
Si Si1 0.677441 0.831399 0.000000
Si Si2 0.348428 0.169936 0.651164
Si Si3 0.828203 0.948728 0.349816
Si Si4 0.660725 0.072745 0.331032
Si Si5 0.451561 0.104265 0.315374
Si Si6 0.536996 0.443987 0.576876
Si Si7 0.809568 0.816645 0.000000
O O1 0.637291 0.817821 0.070810
O O2 0.717686 0.779204 0.000000
O O3 0.747679 0.920146 0.000000
O O4 0.263646 0.096280 0.663338
O O5 0.354780 0.248765 0.675484
O O6 0.415776 0.159214 0.680677
O O7 0.853179 0.887759 0.325476
O O8 0.835333 0.968521 0.431326
O O9 0.630614 0.094839 0.263464
O O10 0.636250 0.105465 0.394293
O O11 0.616562 0.981026 0.335845
O O12 0.518964 0.124449 0.368524
O O13 0.500000 0.500000 0.577433
O O14 0.559706 0.440136 0.500000
#
# Coordination Sequence:
#
# PCOD9588286 Si02
#       7
#    12  24  24  24  24  24  12
#     4  10  22  30  48  75 116 153 207 273 331 371
#     4  11  22  34  54  82 118 158 200 258 310 366
#     4  11  19  31  45  71 110 164 222 279 332 381
#     4  10  21  38  59  85 119 156 191 238 292 350
#     4  10  21  37  60  87 117 154 194 239 287 352
#     4   9  19  37  60  89 114 141 176 219 277 345
#     4  10  16  30  43  64 102 156 207 267 338 385
#
# _framework density 20.824293000000001
#
# number of rings (size 3 to 8) (size 9 to 14) (size 15 to 20)
#    0.000    1.833    3.333    2.167    4.667    2.000 
#    0.000    0.833    0.000    0.667    0.000    2.333 
#    0.000    8.000    0.000    0.000    0.000    0.000 
#
# Total GULP energy -802766.325946 kJ/mol
# GULP energy per Si atom -5574.766152 kJ/mol
# Density = 2.077690 g / cm^3
# Si number density = 20.824293 Si / 1000 Ang^3
#
#
#
# Elastic Constant Matrix: (Units=GPa)
#
#
# Indices 1 2 3 4 5 6 
#
# 1 44.0781 3.9067 -9.7790 0.0000 0.0000 0.0000
# 2 3.9067 44.0781 -9.7790 0.0000 0.0000 0.0000
# 3 -9.7790 -9.7790 58.5905 0.0000 0.0000 0.0000
# 4 0.0000 0.0000 0.0000 19.0620 0.0000 0.0000
# 5 0.0000 0.0000 0.0000 0.0000 19.0620 0.0000
# 6 0.0000 0.0000 0.0000 0.0000 0.0000 20.0857
#
#
#
# Elastic Compliance Matrix: (Units=1/GPa)
#
#
# Indices 1 2 3 4 5 6 
#
# 1 0.023627 -0.001266 0.003732 0.000000 0.000000 0.000000
# 2 -0.001266 0.023627 0.003732 0.000000 0.000000 0.000000
# 3 0.003732 0.003732 0.018313 0.000000 0.000000 0.000000
# 4 0.000000 0.000000 0.000000 0.052460 0.000000 0.000000
# 5 0.000000 0.000000 0.000000 0.000000 0.052460 0.000000
# 6 0.000000 0.000000 0.000000 0.000000 0.000000 0.049787
#
#
# Mechanical properties :
#
#
# Convention : Reuss Voigt Hill
#
# Bulk Modulus (GPa) = 12.82638 12.82713 12.82676
# Shear Modulus (GPa) = 21.37967 22.46847 21.92407
#
# Velocity S-wave (km/s) = 3.20764 3.28831 3.24823
# Velocity P-wave (km/s) = 4.45997 4.53766 4.49898
#
# Compressibility (1/GPa) = 0.07796429
#
# Stress axis : x y z
#
# Youngs Moduli (GPa) = 42.32405 42.32405 54.60470
#
# Poissons Ratio (x) = 0.05359 -0.20379
# Poissons Ratio (y) = 0.05359 -0.20379
# Poissons Ratio (z) = -0.15796 -0.15796
#
# Static dielectric constant tensor:
#      x y z
#    x 1.757280 0.000000 0.000000 
#    y 0.000000 1.757280 0.000000 
#    z 0.000000 0.000000 1.851250 
# 
# From -- ./inp_files/5193.got.cif
#   From: 2010.05.17/outbox.cif.g08.bks.cpg/sg192_3_cif.got.tgz:5193.got - 2010.05.20 12:28:01.
