data_PCOD9588671
_publ_section_title
;
Structure prediction by ZEFSAII (Michael W. Deem and Ramdas Pophale) SiO2 
 PCOD9588671
Probable space group: P 6/M C C
;
_chemical_formula_sum "Si O2"
_cell_formula_units_Z 152
_cell_length_a 26.312209
_cell_length_b 26.312209
_cell_length_c 14.928040
_cell_angle_alpha 90.000000
_cell_angle_beta 90.000000
_cell_angle_gamma 120.000000
_cell_volume 8950.515357
_symmetry_space_group_name_H-M "P 6/M C C"
_symmetry_group_IT_number 192
_symmetry_cell_setting 'hexagonal'
loop_
_space_group_symop_operation_xyz
x,y,z
x-y,x,z
-y,x-y,z
-x,-y,z
-x+y,-x,z
y,-x+y,z
x-y,-y,1/2-z
-x,-x+y,1/2-z
y,x,1/2-z
-y,-x,1/2-z
-x+y,y,1/2-z
x,x-y,1/2-z
-x,-y,-z
-x+y,-x,-z
y,-x+y,-z
x,y,-z
x-y,x,-z
-y,x-y,-z
-x+y,y,1/2+z
x,x-y,1/2+z
-y,-x,1/2+z
y,x,1/2+z
x-y,-y,1/2+z
-x,-x+y,1/2+z
loop_
_atom_site_type_symbol
_atom_site_label
_atom_site_fract_x
_atom_site_fract_y
_atom_site_fract_z
Si Si1 0.666668 0.333334 0.610170
Si Si2 0.606598 0.429276 0.350933
Si Si3 0.396103 0.064828 0.223082
Si Si4 0.856972 0.301028 0.401157
Si Si5 0.582084 0.763882 0.341113
Si Si6 0.453324 0.699506 0.601039
Si Si7 0.562934 0.057340 0.604776
O O1 0.666667 0.333334 0.500000
O O2 0.694293 0.400168 0.641423
O O3 0.594983 0.405018 0.250000
O O4 0.667907 0.486675 0.376297
O O5 0.582070 0.370762 0.408451
O O6 0.558027 0.448131 0.369371
O O7 0.418335 0.098380 0.318307
O O8 0.387199 0.111183 0.160518
O O9 0.445746 0.057298 0.170463
O O10 0.343932 0.000000 0.250000
O O11 0.883343 0.321727 0.500000
O O12 0.814898 0.230174 0.404275
O O13 0.599534 0.799767 0.250000
O O14 0.511883 0.717926 0.343792
O O15 0.469290 0.723681 0.500000
O O16 0.582036 0.063331 0.500000
O O17 0.500000 0.000000 0.613893
#
# Coordination Sequence:
#
# PCOD9588671 Si02
#       7
#     8  24  24  24  24  24  24
#     4   9  21  33  43  62  88 114 151 197 241 292
#     4  12  21  34  49  70  98 129 163 210 258 311
#     4  11  23  39  58  77 106 133 168 214 262 317
#     4  11  22  37  56  78 104 136 170 210 262 322
#     4  10  21  38  53  74  96 125 160 199 255 311
#     4  11  20  33  49  66  87 118 156 196 243 303
#     4  11  23  36  53  75 100 133 172 214 267 320
#
# _framework density 16.982261999999999
#
# number of rings (size 3 to 8) (size 9 to 14) (size 15 to 20)
#    0.000    1.105    3.158    4.737    0.000    3.789 
#    0.000    0.789    0.000    0.474    0.000    0.000 
#    0.000    0.000    0.000    0.000    0.000    0.000 
#
# Total GULP energy -847399.713147 kJ/mol
# GULP energy per Si atom -5574.998113 kJ/mol
# Density = 1.694361 g / cm^3
# Si number density = 16.982262 Si / 1000 Ang^3
#
#
#
# Elastic Constant Matrix: (Units=GPa)
#
#
# Indices 1 2 3 4 5 6 
#
# 1 56.5458 25.1072 16.8662 -0.0001 0.0003 -0.0001
# 2 25.1072 56.5456 16.8661 -0.0001 0.0001 -0.0001
# 3 16.8662 16.8661 114.5239 0.0001 0.0001 0.0000
# 4 -0.0001 -0.0001 0.0001 14.2420 -0.0004 0.0001
# 5 0.0003 0.0001 0.0001 -0.0004 14.2429 0.0000
# 6 -0.0001 -0.0001 0.0000 0.0001 0.0000 15.7193
#
#
#
# Elastic Compliance Matrix: (Units=1/GPa)
#
#
# Indices 1 2 3 4 5 6 
#
# 1 0.022424 -0.009384 -0.001920 0.000000 0.000000 0.000000
# 2 -0.009384 0.022424 -0.001920 0.000000 0.000000 0.000000
# 3 -0.001920 -0.001920 0.009297 0.000000 0.000000 0.000000
# 4 0.000000 0.000000 0.000000 0.070215 0.000002 0.000000
# 5 0.000000 0.000000 0.000000 0.000002 0.070210 0.000000
# 6 0.000000 0.000000 0.000000 0.000000 0.000000 0.063616
#
#
# Mechanical properties :
#
#
# Convention : Reuss Voigt Hill
#
# Bulk Modulus (GPa) = 36.10597 38.36603 37.23600
# Shear Modulus (GPa) = 17.01441 20.09259 18.55350
#
# Velocity S-wave (km/s) = 3.16870 3.44343 3.30892
# Velocity P-wave (km/s) = 5.89022 6.20084 6.04753
#
# Compressibility (1/GPa) = 0.02769625
#
# Stress axis : x y z
#
# Youngs Moduli (GPa) = 44.59473 44.59458 107.55623
#
# Poissons Ratio (x) = 0.41847 0.20656
# Poissons Ratio (y) = 0.41847 0.20656
# Poissons Ratio (z) = 0.08564 0.08564
#
# Static dielectric constant tensor:
#      x y z
#    x 1.678660 0.000000 0.000000 
#    y 0.000000 1.678660 0.000000 
#    z 0.000000 0.000000 1.639050 
# 
# From -- ./inp_files/3417.got.cif
#   From: 2010.05.17/outbox.cif.g08.bks.cpg/sg192_2_cif.got.tgz:3417.got - 2010.05.20 12:28:01.
