data_PCOD9588464
_publ_section_title
;
Structure prediction by ZEFSAII (Michael W. Deem and Ramdas Pophale) SiO2 
 PCOD9588464
Probable space group: P 6/M C C
;
_chemical_formula_sum "Si O2"
_cell_formula_units_Z 144
_cell_length_a 23.013009
_cell_length_b 23.013009
_cell_length_c 17.938143
_cell_angle_alpha 90.000000
_cell_angle_beta 90.000000
_cell_angle_gamma 120.000000
_cell_volume 8227.254429
_symmetry_space_group_name_H-M "P 6/M C C"
_symmetry_group_IT_number 192
_symmetry_cell_setting 'hexagonal'
loop_
_space_group_symop_operation_xyz
x,y,z
x-y,x,z
-y,x-y,z
-x,-y,z
-x+y,-x,z
y,-x+y,z
x-y,-y,1/2-z
-x,-x+y,1/2-z
y,x,1/2-z
-y,-x,1/2-z
-x+y,y,1/2-z
x,x-y,1/2-z
-x,-y,-z
-x+y,-x,-z
y,-x+y,-z
x,y,-z
x-y,x,-z
-y,x-y,-z
-x+y,y,1/2+z
x,x-y,1/2+z
-y,-x,1/2+z
y,x,1/2+z
x-y,-y,1/2+z
-x,-x+y,1/2+z
loop_
_atom_site_type_symbol
_atom_site_label
_atom_site_fract_x
_atom_site_fract_y
_atom_site_fract_z
Si Si1 0.669019 0.529269 0.416118
Si Si2 0.659269 0.844867 0.416560
Si Si3 0.887725 0.288942 0.817793
Si Si4 0.667679 0.206577 0.229720
Si Si5 0.275106 0.202745 0.219698
Si Si6 0.431841 0.432535 0.340176
O O1 0.645779 0.503375 0.500000
O O2 0.742896 0.592254 0.421050
O O3 0.670202 0.477416 0.357483
O O4 0.624356 0.556238 0.377447
O O5 0.683453 0.844147 0.500000
O O6 0.633336 0.774505 0.373295
O O7 0.711820 0.908662 0.367514
O O8 0.833438 0.303271 0.777210
O O9 0.918813 0.263592 0.753064
O O10 0.939485 0.358437 0.857955
O O11 0.716246 0.283755 0.250000
O O12 0.591092 0.182183 0.250000
O O13 0.219326 0.219326 0.250000
O O14 0.264668 0.132334 0.250000
O O15 0.500000 0.500000 0.361965
O O16 0.431012 0.431012 0.250000
#
# Coordination Sequence:
#
# PCOD9588464 Si02
#       6
#    24  24  24  24  24  24
#     4  11  22  37  55  80 112 140 180 243 308 353
#     4  10  20  35  57  85 115 152 192 243 301 358
#     4  11  19  35  58  82 113 149 203 244 305 369
#     4  12  22  39  59  81 104 152 208 249 296 368
#     4  10  19  35  59  86 118 157 199 241 292 367
#     4  11  21  34  56  84 110 149 196 248 306 380
#
# _framework density 17.502801000000002
#
# number of rings (size 3 to 8) (size 9 to 14) (size 15 to 20)
#    0.000    1.167    5.000    3.167    0.000    1.000 
#    0.000    8.333    0.000    0.167    0.000    0.000 
#    0.000    0.000    0.000    6.000    0.000    0.000 
#
# Total GULP energy -802663.116508 kJ/mol
# GULP energy per Si atom -5574.049420 kJ/mol
# Density = 1.746296 g / cm^3
# Si number density = 17.502801 Si / 1000 Ang^3
#
#
#
# Elastic Constant Matrix: (Units=GPa)
#
#
# Indices 1 2 3 4 5 6 
#
# 1 76.8011 34.3372 30.7205 0.0000 0.0000 0.0000
# 2 34.3372 76.8011 30.7205 0.0000 0.0000 0.0000
# 3 30.7205 30.7205 136.4229 0.0000 0.0000 0.0000
# 4 0.0000 0.0000 0.0000 17.6162 0.0000 0.0000
# 5 0.0000 0.0000 0.0000 0.0000 17.6162 0.0000
# 6 0.0000 0.0000 0.0000 0.0000 0.0000 21.2320
#
#
#
# Elastic Compliance Matrix: (Units=1/GPa)
#
#
# Indices 1 2 3 4 5 6 
#
# 1 0.016913 -0.006636 -0.002314 0.000000 0.000000 0.000000
# 2 -0.006636 0.016913 -0.002314 0.000000 0.000000 0.000000
# 3 -0.002314 -0.002314 0.008372 0.000000 0.000000 0.000000
# 4 0.000000 0.000000 0.000000 0.056766 0.000000 0.000000
# 5 0.000000 0.000000 0.000000 0.000000 0.056766 0.000000
# 6 0.000000 0.000000 0.000000 0.000000 0.000000 0.047099
#
#
# Mechanical properties :
#
#
# Convention : Reuss Voigt Hill
#
# Bulk Modulus (GPa) = 50.83953 53.50904 52.17429
# Shear Modulus (GPa) = 21.55958 24.24268 22.90113
#
# Velocity S-wave (km/s) = 3.51348 3.72570 3.62114
# Velocity P-wave (km/s) = 6.75048 7.01041 6.88167
#
# Compressibility (1/GPa) = 0.01966973
#
# Stress axis : x y z
#
# Youngs Moduli (GPa) = 59.12509 59.12509 119.43958
#
# Poissons Ratio (x) = 0.39236 0.27642
# Poissons Ratio (y) = 0.39236 0.27642
# Poissons Ratio (z) = 0.13683 0.13683
#
# Static dielectric constant tensor:
#      x y z
#    x 1.619830 0.000000 0.000000 
#    y 0.000000 1.619830 0.000000 
#    z 0.000000 0.000000 1.543030 
# 
# From -- ./inp_files/4339.got.cif
#   From: 2010.05.17/outbox.cif.g08.bks.cpg/sg192_3_cif.got.tgz:4339.got - 2010.05.20 12:28:01.
