data_PCOD9588360
_publ_section_title
;
Structure prediction by ZEFSAII (Michael W. Deem and Ramdas Pophale) SiO2 
 PCOD9588360
Probable space group: P 6/M C C
;
_chemical_formula_sum "Si O2"
_cell_formula_units_Z 108
_cell_length_a 22.210434
_cell_length_b 22.210434
_cell_length_c 13.922529
_cell_angle_alpha 90.000000
_cell_angle_beta 90.000000
_cell_angle_gamma 120.000000
_cell_volume 5947.888967
_symmetry_space_group_name_H-M "P 6/M C C"
_symmetry_group_IT_number 192
_symmetry_cell_setting 'hexagonal'
loop_
_space_group_symop_operation_xyz
x,y,z
x-y,x,z
-y,x-y,z
-x,-y,z
-x+y,-x,z
y,-x+y,z
x-y,-y,1/2-z
-x,-x+y,1/2-z
y,x,1/2-z
-y,-x,1/2-z
-x+y,y,1/2-z
x,x-y,1/2-z
-x,-y,-z
-x+y,-x,-z
y,-x+y,-z
x,y,-z
x-y,x,-z
-y,x-y,-z
-x+y,y,1/2+z
x,x-y,1/2+z
-y,-x,1/2+z
y,x,1/2+z
x-y,-y,1/2+z
-x,-x+y,1/2+z
loop_
_atom_site_type_symbol
_atom_site_label
_atom_site_fract_x
_atom_site_fract_y
_atom_site_fract_z
Si Si1 0.461025 0.794418 0.291066
Si Si2 0.125713 0.331409 0.000000
Si Si3 0.284759 0.793492 0.000000
Si Si4 0.124839 0.410709 0.500000
Si Si5 0.204942 0.922786 0.790251
Si Si6 0.077106 0.664953 0.790245
O O1 0.385335 0.770669 0.250000
O O2 0.485835 0.742918 0.250000
O O3 0.468726 0.793607 0.405163
O O4 0.512572 0.870558 0.250423
O O5 0.205645 0.346161 0.000000
O O6 0.085448 0.291699 0.095293
O O7 0.141363 0.411476 0.000000
O O8 0.204665 0.728961 0.000000
O O9 0.084838 0.410751 0.595237
O O10 0.129320 0.870681 0.750000
O O11 0.258016 0.899022 0.749721
O O12 0.234299 0.000000 0.750000
O O13 0.000000 0.616875 0.750000
#
# Coordination Sequence:
#
# PCOD9588360 Si02
#       6
#    24  12  12  12  24  24
#     4  12  24  42  63  91 125 164 217 269 307 375
#     4  10  18  35  64  85 121 168 203 248 327 380
#     4  10  20  38  71  83 123 170 209 256 328 375
#     4  10  18  37  69  86 132 163 209 250 322 390
#     4  11  21  35  58  91 124 160 208 260 309 377
#     4  11  22  37  64  93 126 165 205 258 326 381
#
# _framework density 18.157702
#
# number of rings (size 3 to 8) (size 9 to 14) (size 15 to 20)
#    0.667    0.444    6.667    0.889    0.000    7.556 
#    0.000    0.000    0.000    2.889    0.000    0.000 
#    0.000    1.778    0.000    0.000    0.000    0.000 
#
# Total GULP energy -602716.091373 kJ/mol
# GULP energy per Si atom -5580.704550 kJ/mol
# Density = 1.811637 g / cm^3
# Si number density = 18.157702 Si / 1000 Ang^3
#
#
#
# Elastic Constant Matrix: (Units=GPa)
#
#
# Indices 1 2 3 4 5 6 
#
# 1 68.3559 30.2031 44.0225 0.0000 0.0000 0.0000
# 2 30.2031 68.3559 44.0225 0.0000 0.0000 0.0000
# 3 44.0225 44.0225 227.8155 0.0000 0.0000 0.0000
# 4 0.0000 0.0000 0.0000 17.5849 0.0000 0.0000
# 5 0.0000 0.0000 0.0000 0.0000 17.5849 0.0000
# 6 0.0000 0.0000 0.0000 0.0000 0.0000 19.0764
#
#
#
# Elastic Compliance Matrix: (Units=1/GPa)
#
#
# Indices 1 2 3 4 5 6 
#
# 1 0.019237 -0.006974 -0.002370 0.000000 0.000000 0.000000
# 2 -0.006974 0.019237 -0.002370 0.000000 0.000000 0.000000
# 3 -0.002370 -0.002370 0.005305 0.000000 0.000000 0.000000
# 4 0.000000 0.000000 0.000000 0.056867 0.000000 0.000000
# 5 0.000000 0.000000 0.000000 0.000000 0.056867 0.000000
# 6 0.000000 0.000000 0.000000 0.000000 0.000000 0.052421
#
#
# Mechanical properties :
#
#
# Convention : Reuss Voigt Hill
#
# Bulk Modulus (GPa) = 49.13330 66.78039 57.95685
# Shear Modulus (GPa) = 20.82085 27.26785 24.04435
#
# Velocity S-wave (km/s) = 3.38992 3.87941 3.64290
# Velocity P-wave (km/s) = 6.51460 7.54482 7.04856
#
# Compressibility (1/GPa) = 0.02035279
#
# Stress axis : x y z
#
# Youngs Moduli (GPa) = 51.98385 51.98385 188.48913
#
# Poissons Ratio (x) = 0.36252 0.44666
# Poissons Ratio (y) = 0.36252 0.44666
# Poissons Ratio (z) = 0.12319 0.12319
#
# Static dielectric constant tensor:
#      x y z
#    x 1.622690 0.000000 0.000000 
#    y 0.000000 1.622690 0.000000 
#    z 0.000000 0.000000 1.626070 
# 
# From -- ./inp_files/1780.got.cif
#   From: 2010.05.17/outbox.cif.g08.bks.cpg/sg192_1_cif.got.tgz:1780.got - 2010.05.20 12:28:01.
