data_PCOD9588611
_publ_section_title
;
Structure prediction by ZEFSAII (Michael W. Deem and Ramdas Pophale) SiO2 
 PCOD9588611
Probable space group: P 6/M C C
;
_chemical_formula_sum "Si O2"
_cell_formula_units_Z 152
_cell_length_a 17.406262
_cell_length_b 17.406262
_cell_length_c 28.213664
_cell_angle_alpha 90.000000
_cell_angle_beta 90.000000
_cell_angle_gamma 120.000000
_cell_volume 7402.887579
_symmetry_space_group_name_H-M "P 6/M C C"
_symmetry_group_IT_number 192
_symmetry_cell_setting 'hexagonal'
loop_
_space_group_symop_operation_xyz
x,y,z
x-y,x,z
-y,x-y,z
-x,-y,z
-x+y,-x,z
y,-x+y,z
x-y,-y,1/2-z
-x,-x+y,1/2-z
y,x,1/2-z
-y,-x,1/2-z
-x+y,y,1/2-z
x,x-y,1/2-z
-x,-y,-z
-x+y,-x,-z
y,-x+y,-z
x,y,-z
x-y,x,-z
-y,x-y,-z
-x+y,y,1/2+z
x,x-y,1/2+z
-y,-x,1/2+z
y,x,1/2+z
x-y,-y,1/2+z
-x,-x+y,1/2+z
loop_
_atom_site_type_symbol
_atom_site_label
_atom_site_fract_x
_atom_site_fract_y
_atom_site_fract_z
Si Si1 0.103507 0.524424 0.699714
Si Si2 0.781101 0.249501 0.056931
Si Si3 0.978283 0.808392 0.945787
Si Si4 0.213791 0.837290 0.302727
Si Si5 0.337523 0.880823 0.867322
Si Si6 0.953626 0.285221 0.883944
Si Si7 0.666668 0.333334 0.556770
O O1 0.142717 0.571358 0.750000
O O2 0.130199 0.448856 0.698788
O O3 0.139489 0.589990 0.654993
O O4 0.000000 0.500000 0.701831
O O5 0.702770 0.162180 0.082068
O O6 0.872827 0.270407 0.081930
O O7 0.749098 0.319917 0.069410
O O8 0.786084 0.242306 0.000000
O O9 0.980136 0.738649 0.910678
O O10 0.897980 0.826404 0.939228
O O11 0.973931 0.778076 0.000000
O O12 0.174693 0.825308 0.250000
O O13 0.160516 0.743943 0.329874
O O14 0.219808 0.911723 0.338923
O O15 0.373307 0.985648 0.870063
O O16 0.666667 0.333334 0.500000
#
# Coordination Sequence:
#
# PCOD9588611 Si02
#       7
#    24  24  24  24  24  24   8
#     4  11  22  41  64  90 131 173 212 277 342 400
#     4  10  23  41  63  91 127 173 224 279 341 408
#     4  10  20  37  63  95 131 170 215 273 338 402
#     4  11  23  41  61  92 124 169 218 266 333 409
#     4  11  24  39  65  96 127 171 221 275 339 397
#     4  11  23  39  60  94 132 169 219 275 333 409
#     4   9  21  42  60  81 118 164 217 279 324 384
#
# _framework density 20.532527999999999
#
# number of rings (size 3 to 8) (size 9 to 14) (size 15 to 20)
#    0.000    1.421    3.158    2.526    4.421    3.789 
#    0.947    0.789    0.000    3.316    0.000    0.000 
#    0.000    1.263    0.000    0.000    0.000    0.000 
#
# Total GULP energy -848009.983056 kJ/mol
# GULP energy per Si atom -5579.013046 kJ/mol
# Density = 2.048580 g / cm^3
# Si number density = 20.532528 Si / 1000 Ang^3
#
#
#
# Elastic Constant Matrix: (Units=GPa)
#
#
# Indices 1 2 3 4 5 6 
#
# 1 55.1534 0.8158 36.1038 0.0000 0.0000 0.0001
# 2 0.8158 55.1539 36.1039 0.0000 0.0000 0.0001
# 3 36.1038 36.1039 131.4363 0.0000 0.0000 0.0001
# 4 0.0000 0.0000 0.0000 23.1284 0.0000 0.0000
# 5 0.0000 0.0000 0.0000 0.0000 23.1282 0.0000
# 6 0.0001 0.0001 0.0001 0.0000 0.0000 27.1688
#
#
#
# Elastic Compliance Matrix: (Units=1/GPa)
#
#
# Indices 1 2 3 4 5 6 
#
# 1 0.023039 0.004635 -0.007602 0.000000 0.000000 0.000000
# 2 0.004635 0.023039 -0.007602 0.000000 0.000000 0.000000
# 3 -0.007602 -0.007602 0.011784 0.000000 0.000000 0.000000
# 4 0.000000 0.000000 0.000000 0.043237 0.000000 0.000000
# 5 0.000000 0.000000 0.000000 0.000000 0.043237 0.000000
# 6 0.000000 0.000000 0.000000 0.000000 0.000000 0.036807
#
#
# Mechanical properties :
#
#
# Convention : Reuss Voigt Hill
#
# Bulk Modulus (GPa) = 27.22891 43.08785 35.15838
# Shear Modulus (GPa) = 23.30775 25.93308 24.62042
#
# Velocity S-wave (km/s) = 3.37287 3.55776 3.46655
# Velocity P-wave (km/s) = 5.33465 6.15692 5.76047
#
# Compressibility (1/GPa) = 0.03672567
#
# Stress axis : x y z
#
# Youngs Moduli (GPa) = 43.40503 43.40545 84.85783
#
# Poissons Ratio (x) = -0.20120 0.64506
# Poissons Ratio (y) = -0.20120 0.64506
# Poissons Ratio (z) = 0.32995 0.32995
#
# Static dielectric constant tensor:
#      x y z
#    x 1.755610 0.000000 0.000000 
#    y 0.000000 1.755610 0.000000 
#    z 0.000000 0.000000 1.764000 
# 
# From -- ./inp_files/7152.got.cif
#   From: 2010.05.17/outbox.cif.g08.bks.cpg/sg192_4_cif.got.tgz:7152.got - 2010.05.20 12:28:01.
