data_PCOD9588212
_publ_section_title
;
Structure prediction by ZEFSAII (Michael W. Deem and Ramdas Pophale) SiO2 
 PCOD9588212
Probable space group: P 6/M M M
;
_chemical_formula_sum "Si O2"
_cell_formula_units_Z 96
_cell_length_a 18.639595
_cell_length_b 18.639595
_cell_length_c 19.740350
_cell_angle_alpha 90.000000
_cell_angle_beta 90.000000
_cell_angle_gamma 120.000000
_cell_volume 5939.616757
_symmetry_space_group_name_H-M "P 6/M M M"
_symmetry_group_IT_number 191
_symmetry_cell_setting 'hexagonal'
loop_
_space_group_symop_operation_xyz
x,y,z
x-y,x,z
-y,x-y,z
-x,-y,z
-x+y,-x,z
y,-x+y,z
x-y,-y,-z
-x,-x+y,-z
y,x,-z
-y,-x,-z
-x+y,y,-z
x,x-y,-z
-x,-y,-z
-x+y,-x,-z
y,-x+y,-z
x,y,-z
x-y,x,-z
-y,x-y,-z
-x+y,y,z
x,x-y,z
-y,-x,z
y,x,z
x-y,-y,z
-x,-x+y,z
loop_
_atom_site_type_symbol
_atom_site_label
_atom_site_fract_x
_atom_site_fract_y
_atom_site_fract_z
Si Si1 0.192710 0.096355 0.417586
Si Si2 0.904141 0.649977 0.078099
Si Si3 0.900408 0.366091 0.343262
Si Si4 0.806742 0.193259 0.581229
Si Si5 0.530198 0.899477 0.187412
O O1 0.144784 0.144784 0.395753
O O2 0.191571 0.095786 0.500000
O O3 0.289337 0.144669 0.397259
O O4 0.843280 0.686560 0.085143
O O5 0.875907 0.575438 0.130887
O O6 0.000000 0.715202 0.091063
O O7 0.897972 0.621272 0.000000
O O8 0.881909 0.440955 0.357511
O O9 0.854260 0.286410 0.390207
O O10 0.876473 0.339863 0.264704
O O11 0.000000 0.407434 0.349360
O O12 0.805726 0.194275 0.500000
O O13 0.434876 0.869752 0.172052
O O14 0.578235 0.000000 0.186918
#
# Coordination Sequence:
#
# PCOD9588212 Si02
#       5
#    12  24  24  12  24
#     4   9  17  30  49  74 104 133 159 192 242 306
#     4   9  17  28  45  72 103 133 165 202 241 280
#     4   9  19  36  54  71  95 129 164 201 249 300
#     4  11  22  33  50  77  99 123 164 215 256 300
#     4   8  15  29  49  71  94 121 156 196 237 288
#
# _framework density 16.162659000000001
#
# number of rings (size 3 to 8) (size 9 to 14) (size 15 to 20)
#    0.000    3.000    0.000    2.375    1.750    3.000 
#    0.750    3.750    0.000    0.750    0.000    1.750 
#    0.000    0.000    0.000    0.000    0.000    0.000 
#
# Total GULP energy -534441.711338 kJ/mol
# GULP energy per Si atom -5567.101160 kJ/mol
# Density = 1.612587 g / cm^3
# Si number density = 16.162659 Si / 1000 Ang^3
#
#
#
# Elastic Constant Matrix: (Units=GPa)
#
#
# Indices 1 2 3 4 5 6 
#
# 1 98.4651 66.1585 59.7109 0.0000 0.0000 0.0000
# 2 66.1585 98.4651 59.7109 0.0000 0.0000 0.0000
# 3 59.7109 59.7109 70.0239 0.0000 0.0000 0.0000
# 4 0.0000 0.0000 0.0000 23.2400 0.0000 0.0000
# 5 0.0000 0.0000 0.0000 0.0000 23.2400 0.0000
# 6 0.0000 0.0000 0.0000 0.0000 0.0000 16.1533
#
#
#
# Elastic Compliance Matrix: (Units=1/GPa)
#
#
# Indices 1 2 3 4 5 6 
#
# 1 0.023440 -0.007514 -0.013580 0.000000 0.000000 0.000000
# 2 -0.007514 0.023440 -0.013580 0.000000 0.000000 0.000000
# 3 -0.013580 -0.013580 0.037442 0.000000 0.000000 0.000000
# 4 0.000000 0.000000 0.000000 0.043029 0.000000 0.000000
# 5 0.000000 0.000000 0.000000 0.000000 0.043029 0.000000
# 6 0.000000 0.000000 0.000000 0.000000 0.000000 0.061907
#
#
# Mechanical properties :
#
#
# Convention : Reuss Voigt Hill
#
# Bulk Modulus (GPa) = 66.79250 70.90160 68.84705
# Shear Modulus (GPa) = 16.30649 17.95159 17.12904
#
# Velocity S-wave (km/s) = 3.17976 3.33631 3.25897
# Velocity P-wave (km/s) = 7.40919 7.66838 7.53990
#
# Compressibility (1/GPa) = 0.01497174
#
# Stress axis : x y z
#
# Youngs Moduli (GPa) = 42.66256 42.66256 26.70830
#
# Poissons Ratio (x) = 0.32055 0.36271
# Poissons Ratio (y) = 0.32055 0.36271
# Poissons Ratio (z) = 0.57938 0.57938
#
# Static dielectric constant tensor:
#      x y z
#    x 1.537480 0.000000 0.000000 
#    y 0.000000 1.537480 0.000000 
#    z 0.000000 0.000000 1.545570 
# 
# From -- ./inp_files/7190.got.cif
#   From: 2010.05.17/outbox.cif.g08.bks.cpg/sg191_4_cif.got.tgz:7190.got - 2010.05.20 12:20:32.
