data_PCOD9588002
_publ_section_title
;
Structure prediction by ZEFSAII (Michael W. Deem and Ramdas Pophale) SiO2 
 PCOD9588002
Probable space group: P 6/M M M
;
_chemical_formula_sum "Si O2"
_cell_formula_units_Z 60
_cell_length_a 22.845516
_cell_length_b 22.845516
_cell_length_c 7.944527
_cell_angle_alpha 90.000000
_cell_angle_beta 90.000000
_cell_angle_gamma 120.000000
_cell_volume 3590.877754
_symmetry_space_group_name_H-M "P 6/M M M"
_symmetry_group_IT_number 191
_symmetry_cell_setting 'hexagonal'
loop_
_space_group_symop_operation_xyz
x,y,z
x-y,x,z
-y,x-y,z
-x,-y,z
-x+y,-x,z
y,-x+y,z
x-y,-y,-z
-x,-x+y,-z
y,x,-z
-y,-x,-z
-x+y,y,-z
x,x-y,-z
-x,-y,-z
-x+y,-x,-z
y,-x+y,-z
x,y,-z
x-y,x,-z
-y,x-y,-z
-x+y,y,z
x,x-y,z
-y,-x,z
y,x,z
x-y,-y,z
-x,-x+y,z
loop_
_atom_site_type_symbol
_atom_site_label
_atom_site_fract_x
_atom_site_fract_y
_atom_site_fract_z
Si Si1 0.689273 0.081055 0.809602
Si Si2 0.921830 0.078170 0.795867
Si Si3 0.608088 0.525873 0.500000
Si Si4 0.312886 0.156443 0.699521
O O1 0.654077 0.102549 0.666492
O O2 0.768842 0.116202 0.776726
O O3 0.656534 0.000000 0.794722
O O4 0.676488 0.095492 0.000000
O O5 0.883492 0.116509 0.733616
O O6 0.000000 0.116801 0.741622
O O7 0.921118 0.078883 0.000000
O O8 0.565554 0.565554 0.500000
O O9 0.552943 0.447058 0.500000
O O10 0.324599 0.162300 0.500000
#
# Coordination Sequence:
#
# PCOD9588002 Si02
#       4
#    24  12  12  12
#     4  10  20  34  52  75 106 142 177 215 262 315
#     4  10  21  36  52  70  96 137 193 254 310 358
#     4   9  18  33  52  76 105 132 161 198 242 304
#     4  12  22  33  51  74 105 142 181 233 285 328
#
# _framework density 16.709007
#
# number of rings (size 3 to 8) (size 9 to 14) (size 15 to 20)
#    0.000    1.800    2.000    3.200    0.000    7.200 
#    0.000    4.000    0.000    1.200    0.000    0.000 
#    8.000    0.000    2.400    0.000    0.000    0.000 
#
# Total GULP energy -334942.673279 kJ/mol
# GULP energy per Si atom -5582.377888 kJ/mol
# Density = 1.667098 g / cm^3
# Si number density = 16.709007 Si / 1000 Ang^3
#
#
#
# Elastic Constant Matrix: (Units=GPa)
#
#
# Indices 1 2 3 4 5 6 
#
# 1 93.5550 52.0756 55.0953 0.0000 0.0000 0.0000
# 2 52.0756 93.5550 55.0953 0.0000 0.0000 0.0000
# 3 55.0953 55.0953 139.4443 0.0000 0.0000 0.0000
# 4 0.0000 0.0000 0.0000 17.0614 0.0000 0.0000
# 5 0.0000 0.0000 0.0000 0.0000 17.0614 0.0000
# 6 0.0000 0.0000 0.0000 0.0000 0.0000 20.7397
#
#
#
# Elastic Compliance Matrix: (Units=1/GPa)
#
#
# Indices 1 2 3 4 5 6 
#
# 1 0.016952 -0.007157 -0.003870 0.000000 0.000000 0.000000
# 2 -0.007157 0.016952 -0.003870 0.000000 0.000000 0.000000
# 3 -0.003870 -0.003870 0.010229 0.000000 0.000000 0.000000
# 4 0.000000 0.000000 0.000000 0.058612 0.000000 0.000000
# 5 0.000000 0.000000 0.000000 0.000000 0.058612 0.000000
# 6 0.000000 0.000000 0.000000 0.000000 0.000000 0.048217
#
#
# Mechanical properties :
#
#
# Convention : Reuss Voigt Hill
#
# Bulk Modulus (GPa) = 69.73893 72.34293 71.04093
# Shear Modulus (GPa) = 20.47952 21.92505 21.20228
#
# Velocity S-wave (km/s) = 3.50474 3.62632 3.56605
# Velocity P-wave (km/s) = 7.62925 7.80534 7.71780
#
# Compressibility (1/GPa) = 0.01433919
#
# Stress axis : x y z
#
# Youngs Moduli (GPa) = 58.99132 58.99132 97.75677
#
# Poissons Ratio (x) = 0.42218 0.37832
# Poissons Ratio (y) = 0.42218 0.37832
# Poissons Ratio (z) = 0.22830 0.22830
#
# Static dielectric constant tensor:
#      x y z
#    x 1.530440 0.000000 0.000000 
#    y 0.000000 1.530440 0.000000 
#    z 0.000000 0.000000 1.592730 
# 
# From -- ./inp_files/614.got.cif
#   From: 2010.05.17/outbox.cif.g08.bks.cpg/sg191_1_cif.got.tgz:614.got - 2010.05.20 12:20:32.
