data_PCOD9588302
_publ_section_title
;
Structure prediction by ZEFSAII (Michael W. Deem and Ramdas Pophale) SiO2 
 PCOD9588302
Probable space group: P 6/M C C
;
_chemical_formula_sum "Si O2"
_cell_formula_units_Z 192
_cell_length_a 29.765400
_cell_length_b 29.765400
_cell_length_c 17.418286
_cell_angle_alpha 90.000000
_cell_angle_beta 90.000000
_cell_angle_gamma 120.000000
_cell_volume 13364.708638
_symmetry_space_group_name_H-M "P 6/M C C"
_symmetry_group_IT_number 192
_symmetry_cell_setting 'hexagonal'
loop_
_space_group_symop_operation_xyz
x,y,z
x-y,x,z
-y,x-y,z
-x,-y,z
-x+y,-x,z
y,-x+y,z
x-y,-y,1/2-z
-x,-x+y,1/2-z
y,x,1/2-z
-y,-x,1/2-z
-x+y,y,1/2-z
x,x-y,1/2-z
-x,-y,-z
-x+y,-x,-z
y,-x+y,-z
x,y,-z
x-y,x,-z
-y,x-y,-z
-x+y,y,1/2+z
x,x-y,1/2+z
-y,-x,1/2+z
y,x,1/2+z
x-y,-y,1/2+z
-x,-x+y,1/2+z
loop_
_atom_site_type_symbol
_atom_site_label
_atom_site_fract_x
_atom_site_fract_y
_atom_site_fract_z
Si Si1 0.695302 0.575721 0.158885
Si Si2 0.880419 0.304698 0.341115
Si Si3 0.417661 0.938840 0.091907
Si Si4 0.846718 0.693436 0.341703
Si Si5 0.691950 0.939224 0.408008
Si Si6 0.417661 0.478821 0.091907
Si Si7 0.211857 0.788143 0.408348
Si Si8 0.691950 0.752726 0.591992
O O1 0.702367 0.579700 0.250000
O O2 0.635664 0.541122 0.135796
O O3 0.730116 0.553471 0.122368
O O4 0.717380 0.633835 0.125165
O O5 0.905458 0.364336 0.364204
O O6 0.916455 0.282620 0.374835
O O7 0.823355 0.269884 0.377632
O O8 0.463028 0.926056 0.110739
O O9 0.441523 1.000000 0.108282
O O10 0.408520 0.932184 0.000000
O O11 0.846736 0.693471 0.250000
O O12 0.810408 0.714918 0.373601
O O13 0.817225 0.634450 0.373501
O O14 0.904510 0.714918 0.373602
O O15 0.687865 0.932805 0.500000
O O16 0.726278 1.000000 0.389950
O O17 0.408520 0.476335 0.000000
O O18 0.210724 0.789276 0.500000
O O19 0.687865 0.755060 0.500000
#
# Coordination Sequence:
#
# PCOD9588302 Si02
#       8
#    24  24  24  24  24  24  24  24
#     4  11  20  29  43  64  89 111 138 178 219 255
#     4  11  20  29  43  64  89 111 138 178 219 255
#     4   9  18  32  47  62  84 116 150 179 208 249
#     4  10  18  28  42  60  84 108 135 177 218 248
#     4  10  19  30  44  60  81 113 149 178 207 249
#     4   9  18  32  47  62  84 116 150 179 208 249
#     4  10  18  30  46  60  80 110 142 173 207 250
#     4  10  19  30  44  60  81 113 149 178 207 249
#
# _framework density 14.366194
#
# number of rings (size 3 to 8) (size 9 to 14) (size 15 to 20)
#    0.000    2.000    0.000    9.750    0.000    6.000 
#    0.000    1.250    0.000    0.000    0.000    0.000 
#    1.250    0.000    2.250    0.375    2.250    7.250 
#
# Total GULP energy -1070781.970997 kJ/mol
# GULP energy per Si atom -5576.989432 kJ/mol
# Density = 1.433350 g / cm^3
# Si number density = 14.366194 Si / 1000 Ang^3
#
#
#
# Elastic Constant Matrix: (Units=GPa)
#
#
# Indices 1 2 3 4 5 6 
#
# 1 88.8188 43.5955 49.1302 0.0000 0.0000 0.0000
# 2 43.5955 88.8188 49.1302 0.0000 0.0000 0.0000
# 3 49.1302 49.1302 99.7506 0.0000 0.0000 0.0000
# 4 0.0000 0.0000 0.0000 87.1166 0.0000 0.0000
# 5 0.0000 0.0000 0.0000 0.0000 87.1166 0.0000
# 6 0.0000 0.0000 0.0000 0.0000 0.0000 22.6116
#
#
#
# Elastic Compliance Matrix: (Units=1/GPa)
#
#
# Indices 1 2 3 4 5 6 
#
# 1 0.017007 -0.005105 -0.005862 0.000000 0.000000 0.000000
# 2 -0.005105 0.017007 -0.005862 0.000000 0.000000 0.000000
# 3 -0.005862 -0.005862 0.015800 0.000000 0.000000 0.000000
# 4 0.000000 0.000000 0.000000 0.011479 0.000000 0.000000
# 5 0.000000 0.000000 0.000000 0.000000 0.011479 0.000000
# 6 0.000000 0.000000 0.000000 0.000000 0.000000 0.044225
#
#
# Mechanical properties :
#
#
# Convention : Reuss Voigt Hill
#
# Bulk Modulus (GPa) = 61.89939 62.34441 62.12190
# Shear Modulus (GPa) = 32.04281 48.40445 40.22363
#
# Velocity S-wave (km/s) = 4.72787 5.81089 5.29713
# Velocity P-wave (km/s) = 8.54307 9.40812 8.98601
#
# Compressibility (1/GPa) = 0.01615525
#
# Stress axis : x y z
#
# Youngs Moduli (GPa) = 58.79810 58.79810 63.29268
#
# Poissons Ratio (x) = 0.30017 0.37103
# Poissons Ratio (y) = 0.30017 0.37103
# Poissons Ratio (z) = 0.34469 0.34469
#
# Static dielectric constant tensor:
#      x y z
#    x 1.482230 0.000000 0.000000 
#    y 0.000000 1.482230 0.000000 
#    z 0.000000 0.000000 1.479010 
# 
# From -- ./inp_files/3586.got.cif
#   From: 2010.05.17/outbox.cif.g08.bks.cpg/sg192_2_cif.got.tgz:3586.got - 2010.05.20 12:28:01.
