data_PCOD9588395
_publ_section_title
;
Structure prediction by ZEFSAII (Michael W. Deem and Ramdas Pophale) SiO2 
 PCOD9588395
Probable space group: P 6/M C C
;
_chemical_formula_sum "Si O2"
_cell_formula_units_Z 120
_cell_length_a 28.569014
_cell_length_b 28.569014
_cell_length_c 10.626148
_cell_angle_alpha 90.000000
_cell_angle_beta 90.000000
_cell_angle_gamma 120.000000
_cell_volume 7510.986750
_symmetry_space_group_name_H-M "P 6/M C C"
_symmetry_group_IT_number 192
_symmetry_cell_setting 'hexagonal'
loop_
_space_group_symop_operation_xyz
x,y,z
x-y,x,z
-y,x-y,z
-x,-y,z
-x+y,-x,z
y,-x+y,z
x-y,-y,1/2-z
-x,-x+y,1/2-z
y,x,1/2-z
-y,-x,1/2-z
-x+y,y,1/2-z
x,x-y,1/2-z
-x,-y,-z
-x+y,-x,-z
y,-x+y,-z
x,y,-z
x-y,x,-z
-y,x-y,-z
-x+y,y,1/2+z
x,x-y,1/2+z
-y,-x,1/2+z
y,x,1/2+z
x-y,-y,1/2+z
-x,-x+y,1/2+z
loop_
_atom_site_type_symbol
_atom_site_label
_atom_site_fract_x
_atom_site_fract_y
_atom_site_fract_z
Si Si1 0.367979 0.735959 0.750000
Si Si2 0.513331 0.701099 0.500000
Si Si3 0.513331 0.701098 0.000000
Si Si4 0.936050 0.170125 0.000000
Si Si5 0.195308 0.597655 0.500000
Si Si6 0.295370 0.063524 0.750000
Si Si7 0.846669 0.584558 0.750000
Si Si8 0.170125 0.234075 0.500000
O O1 0.303833 0.696168 0.750000
O O2 0.384828 0.769655 0.625575
O O3 0.494065 0.747033 0.500000
O O4 0.466728 0.638196 0.500000
O O5 0.548930 0.712706 0.625310
O O6 0.548931 0.712706 0.874690
O O7 0.466729 0.638195 0.000000
O O8 0.925251 0.195855 0.124569
O O9 0.893732 0.106268 0.000000
O O10 0.000000 0.189350 0.000000
O O11 0.359824 0.097525 0.750001
O O12 0.270604 0.074749 0.624569
O O13 0.274153 0.000000 0.750000
O O14 0.800646 0.601292 0.750000
#
# Coordination Sequence:
#
# PCOD9588395 Si02
#       8
#    12  12  12  12  12  24  24  12
#     4  10  20  28  44  64  84 120 153 192 238 260
#     4  10  21  32  48  68  94 127 163 195 240 291
#     4  10  21  32  48  68  94 127 163 195 240 291
#     4  10  19  31  49  76 107 140 173 209 248 293
#     4  12  20  34  46  64  95 122 164 202 228 286
#     4  10  20  33  53  78 102 130 168 208 255 304
#     4  10  19  33  49  71  98 127 156 196 247 303
#     4  10  19  31  49  76 107 140 173 209 248 293
#
# _framework density 15.976595
#
# number of rings (size 3 to 8) (size 9 to 14) (size 15 to 20)
#    0.200    1.600    0.000    6.000    0.000    3.200 
#    0.600    0.000    0.000    0.200    0.000    4.200 
#    0.000    4.800    0.000    0.000    0.000    0.800 
#
# Total GULP energy -668877.508564 kJ/mol
# GULP energy per Si atom -5573.979238 kJ/mol
# Density = 1.594023 g / cm^3
# Si number density = 15.976595 Si / 1000 Ang^3
#
#
#
# Elastic Constant Matrix: (Units=GPa)
#
#
# Indices 1 2 3 4 5 6 
#
# 1 87.0164 44.7315 35.3016 0.0000 0.0000 0.0000
# 2 44.7315 87.0164 35.3016 0.0000 0.0000 0.0000
# 3 35.3016 35.3016 145.4413 0.0000 0.0000 0.0000
# 4 0.0000 0.0000 0.0000 10.1001 0.0000 0.0000
# 5 0.0000 0.0000 0.0000 0.0000 10.1001 0.0000
# 6 0.0000 0.0000 0.0000 0.0000 0.0000 21.1425
#
#
#
# Elastic Compliance Matrix: (Units=1/GPa)
#
#
# Indices 1 2 3 4 5 6 
#
# 1 0.016187 -0.007462 -0.002118 0.000000 0.000000 0.000000
# 2 -0.007462 0.016187 -0.002118 0.000000 0.000000 0.000000
# 3 -0.002118 -0.002118 0.007904 0.000000 0.000000 0.000000
# 4 0.000000 0.000000 0.000000 0.099009 0.000000 0.000000
# 5 0.000000 0.000000 0.000000 0.000000 0.099009 0.000000
# 6 0.000000 0.000000 0.000000 0.000000 0.000000 0.047298
#
#
# Mechanical properties :
#
#
# Convention : Reuss Voigt Hill
#
# Bulk Modulus (GPa) = 59.23153 61.12705 60.17929
# Shear Modulus (GPa) = 15.89232 21.87782 18.88507
#
# Velocity S-wave (km/s) = 3.15735 3.70451 3.44182
# Velocity P-wave (km/s) = 7.10255 7.52604 7.31736
#
# Compressibility (1/GPa) = 0.01688290
#
# Stress axis : x y z
#
# Youngs Moduli (GPa) = 61.77756 61.77756 126.52327
#
# Poissons Ratio (x) = 0.46098 0.26795
# Poissons Ratio (y) = 0.46098 0.26795
# Poissons Ratio (z) = 0.13083 0.13083
#
# Static dielectric constant tensor:
#      x y z
#    x 1.543330 0.000000 0.000000 
#    y 0.000000 1.543330 0.000000 
#    z 0.000000 0.000000 1.527280 
# 
# From -- ./inp_files/1887.got.cif
#   From: 2010.05.17/outbox.cif.g08.bks.cpg/sg192_1_cif.got.tgz:1887.got - 2010.05.20 12:28:01.
