data_PCOD9588154
_publ_section_title
;
Structure prediction by ZEFSAII (Michael W. Deem and Ramdas Pophale) SiO2 
 PCOD9588154
Probable space group: P 6/M M M
;
_chemical_formula_sum "Si O2"
_cell_formula_units_Z 144
_cell_length_a 31.183826
_cell_length_b 31.183826
_cell_length_c 8.915324
_cell_angle_alpha 90.000000
_cell_angle_beta 90.000000
_cell_angle_gamma 120.000000
_cell_volume 7508.039687
_symmetry_space_group_name_H-M "P 6/M M M"
_symmetry_group_IT_number 191
_symmetry_cell_setting 'hexagonal'
loop_
_space_group_symop_operation_xyz
x,y,z
x-y,x,z
-y,x-y,z
-x,-y,z
-x+y,-x,z
y,-x+y,z
x-y,-y,-z
-x,-x+y,-z
y,x,-z
-y,-x,-z
-x+y,y,-z
x,x-y,-z
-x,-y,-z
-x+y,-x,-z
y,-x+y,-z
x,y,-z
x-y,x,-z
-y,x-y,-z
-x+y,y,z
x,x-y,z
-y,-x,z
y,x,z
x-y,-y,z
-x,-x+y,z
loop_
_atom_site_type_symbol
_atom_site_label
_atom_site_fract_x
_atom_site_fract_y
_atom_site_fract_z
Si Si1 0.059800 0.577784 0.325483
Si Si2 0.941795 0.244267 0.666546
Si Si3 0.763638 0.429330 0.682083
Si Si4 0.318512 0.403171 0.826645
Si Si5 0.155642 0.213592 0.180733
Si Si6 0.820819 0.281568 0.328470
O O1 0.075554 0.588839 0.500000
O O2 0.076307 0.538154 0.270594
O O3 0.074081 0.628972 0.242307
O O4 0.000000 0.547001 0.323008
O O5 0.918816 0.234583 0.500000
O O6 0.938184 0.288810 0.744444
O O7 0.924942 0.193731 0.757154
O O8 0.000000 0.265813 0.651216
O O9 0.760506 0.426365 0.500000
O O10 0.711790 0.423580 0.734900
O O11 0.771146 0.385573 0.739402
O O12 0.807614 0.483883 0.712984
O O13 0.282228 0.424678 0.793756
O O14 0.325331 0.396483 0.000000
O O15 0.099646 0.199291 0.225765
O O16 0.176027 0.176027 0.225734
O O17 0.157884 0.215737 0.000000
O O18 0.840771 0.289717 0.500000
O O19 0.769228 0.230773 0.330687
#
# Coordination Sequence:
#
# PCOD9588154 Si02
#       6
#    24  24  24  24  24  24
#     4   9  19  37  59  80 103 134 173 217 265 319
#     4  10  21  37  57  80 106 138 179 226 273 322
#     4   8  13  23  43  70  94 114 142 187 242 295
#     4  12  24  35  52  77 105 138 174 216 271 333
#     4   9  18  34  57  86 121 159 197 237 282 331
#     4   9  19  35  51  68  94 129 168 207 247 297
#
# _framework density 19.179441000000001
#
# number of rings (size 3 to 8) (size 9 to 14) (size 15 to 20)
#    0.000    2.500    0.000    4.167    0.000    6.333 
#    0.000    2.500    0.000    0.167    0.000    1.167 
#    0.000    1.333    0.000    4.167    0.000    4.333 
#
# Total GULP energy -801863.542307 kJ/mol
# GULP energy per Si atom -5568.496822 kJ/mol
# Density = 1.913579 g / cm^3
# Si number density = 19.179441 Si / 1000 Ang^3
#
#
#
# Elastic Constant Matrix: (Units=GPa)
#
#
# Indices 1 2 3 4 5 6 
#
# 1 81.3758 39.0811 28.8815 0.0000 0.0000 0.0000
# 2 39.0811 81.3758 28.8815 0.0000 0.0000 0.0000
# 3 28.8815 28.8815 53.7834 0.0000 0.0000 0.0000
# 4 0.0000 0.0000 0.0000 16.6562 0.0000 0.0000
# 5 0.0000 0.0000 0.0000 0.0000 16.6562 0.0000
# 6 0.0000 0.0000 0.0000 0.0000 0.0000 21.1473
#
#
#
# Elastic Compliance Matrix: (Units=1/GPa)
#
#
# Indices 1 2 3 4 5 6 
#
# 1 0.017412 -0.006231 -0.006004 0.000000 0.000000 0.000000
# 2 -0.006231 0.017412 -0.006004 0.000000 0.000000 0.000000
# 3 -0.006004 -0.006004 0.025041 0.000000 0.000000 0.000000
# 4 0.000000 0.000000 0.000000 0.060038 0.000000 0.000000
# 5 0.000000 0.000000 0.000000 0.000000 0.060038 0.000000
# 6 0.000000 0.000000 0.000000 0.000000 0.000000 0.047287
#
#
# Mechanical properties :
#
#
# Convention : Reuss Voigt Hill
#
# Bulk Modulus (GPa) = 42.75908 45.58034 44.16971
# Shear Modulus (GPa) = 18.41599 18.87135 18.64367
#
# Velocity S-wave (km/s) = 3.10206 3.14018 3.12118
# Velocity P-wave (km/s) = 5.93068 6.07984 6.00572
#
# Compressibility (1/GPa) = 0.02338685
#
# Stress axis : x y z
#
# Youngs Moduli (GPa) = 57.43079 57.43079 39.93386
#
# Poissons Ratio (x) = 0.35787 0.23977
# Poissons Ratio (y) = 0.35787 0.23977
# Poissons Ratio (z) = 0.34482 0.34482
#
# Static dielectric constant tensor:
#      x y z
#    x 1.701050 0.000000 0.000000 
#    y 0.000000 1.701050 0.000000 
#    z 0.000000 0.000000 1.690940 
# 
# From -- ./inp_files/1965.got.cif
#   From: 2010.05.17/outbox.cif.g08.bks.cpg/sg191_1_cif.got.tgz:1965.got - 2010.05.20 12:20:32.
