data_PCOD9588834
_publ_section_title
;
Structure prediction by ZEFSAII (Michael W. Deem and Ramdas Pophale) SiO2 
 PCOD9588834
Probable space group: P 6/M C C
;
_chemical_formula_sum "Si O2"
_cell_formula_units_Z 162
_cell_length_a 21.297840
_cell_length_b 21.297840
_cell_length_c 19.295902
_cell_angle_alpha 90.000000
_cell_angle_beta 90.000000
_cell_angle_gamma 120.000000
_cell_volume 7579.958652
_symmetry_space_group_name_H-M "P 6/M C C"
_symmetry_group_IT_number 192
_symmetry_cell_setting 'hexagonal'
loop_
_space_group_symop_operation_xyz
x,y,z
x-y,x,z
-y,x-y,z
-x,-y,z
-x+y,-x,z
y,-x+y,z
x-y,-y,1/2-z
-x,-x+y,1/2-z
y,x,1/2-z
-y,-x,1/2-z
-x+y,y,1/2-z
x,x-y,1/2-z
-x,-y,-z
-x+y,-x,-z
y,-x+y,-z
x,y,-z
x-y,x,-z
-y,x-y,-z
-x+y,y,1/2+z
x,x-y,1/2+z
-y,-x,1/2+z
y,x,1/2+z
x-y,-y,1/2+z
-x,-x+y,1/2+z
loop_
_atom_site_type_symbol
_atom_site_label
_atom_site_fract_x
_atom_site_fract_y
_atom_site_fract_z
Si Si1 0.003067 0.280503 0.674475
Si Si2 0.598760 0.025906 0.121986
Si Si3 0.500000 0.500000 0.250000
Si Si4 0.557414 0.773368 0.332755
Si Si5 0.086126 0.175968 0.000000
Si Si6 0.491244 0.131448 0.077973
Si Si7 0.716163 0.852223 0.130211
Si Si8 0.469646 0.653212 0.923994
O O1 0.938583 0.197718 0.669960
O O2 0.000000 0.307934 0.750000
O O3 0.990530 0.334578 0.626504
O O4 0.077647 0.281250 0.663420
O O5 0.534466 0.952662 0.089066
O O6 0.567828 0.038135 0.195686
O O7 0.627662 0.098650 0.079161
O O8 0.567219 0.783610 0.250000
O O9 0.543844 0.696654 0.359744
O O10 0.629430 0.831512 0.373833
O O11 0.490998 0.780922 0.362218
O O12 0.125582 0.127386 0.000000
O O13 0.113051 0.231338 0.935522
O O14 0.577614 0.182112 0.083395
O O15 0.468370 0.139223 0.000000
O O16 0.471293 0.684998 0.000000
#
# Coordination Sequence:
#
# PCOD9588834 Si02
#       8
#    24  24   6  24  12  24  24  24
#     4  12  24  42  65 100 141 182 222 285 358 426
#     4  12  23  37  70 100 143 182 226 283 349 417
#     4  12  24  36  62 112 144 188 234 286 348 420
#     4  12  27  43  69 104 140 180 230 296 360 429
#     4  12  27  52  76 104 138 192 242 300 364 446
#     4  11  25  45  67  95 134 181 232 283 341 415
#     4  12  26  43  71 101 141 179 229 285 356 433
#     4  11  25  45  67  95 134 181 232 283 341 415
#
# _framework density 21.372147999999999
#
# number of rings (size 3 to 8) (size 9 to 14) (size 15 to 20)
#    0.000    0.296    6.667    2.296    4.148    1.778 
#    3.556    0.000    0.000    0.000    0.000    2.074 
#    0.000    0.000    0.000    0.000    0.000    0.000 
#
# Total GULP energy -903900.035455 kJ/mol
# GULP energy per Si atom -5579.629848 kJ/mol
# Density = 2.132350 g / cm^3
# Si number density = 21.372148 Si / 1000 Ang^3
#
#
#
# Elastic Constant Matrix: (Units=GPa)
#
#
# Indices 1 2 3 4 5 6 
#
# 1 83.3373 18.8482 28.1645 0.0000 0.0000 0.0000
# 2 18.8482 83.3373 28.1645 0.0000 0.0000 0.0000
# 3 28.1645 28.1645 97.5039 0.0000 0.0000 0.0000
# 4 0.0000 0.0000 0.0000 15.6425 0.0000 0.0000
# 5 0.0000 0.0000 0.0000 0.0000 15.6425 0.0000
# 6 0.0000 0.0000 0.0000 0.0000 0.0000 32.2446
#
#
#
# Elastic Compliance Matrix: (Units=1/GPa)
#
#
# Indices 1 2 3 4 5 6 
#
# 1 0.013573 -0.001934 -0.003362 0.000000 0.000000 0.000000
# 2 -0.001934 0.013573 -0.003362 0.000000 0.000000 0.000000
# 3 -0.003362 -0.003362 0.012198 0.000000 0.000000 0.000000
# 4 0.000000 0.000000 0.000000 0.063928 0.000000 0.000000
# 5 0.000000 0.000000 0.000000 0.000000 0.063928 0.000000
# 6 0.000000 0.000000 0.000000 0.000000 0.000000 0.031013
#
#
# Mechanical properties :
#
#
# Convention : Reuss Voigt Hill
#
# Bulk Modulus (GPa) = 45.39514 46.05920 45.72717
# Shear Modulus (GPa) = 22.43439 25.30602 23.87021
#
# Velocity S-wave (km/s) = 3.24343 3.44476 3.34561
# Velocity P-wave (km/s) = 5.94246 6.11716 6.03044
#
# Compressibility (1/GPa) = 0.02202879
#
# Stress axis : x y z
#
# Youngs Moduli (GPa) = 73.67580 73.67580 81.97850
#
# Poissons Ratio (x) = 0.14245 0.27562
# Poissons Ratio (y) = 0.14245 0.27562
# Poissons Ratio (z) = 0.24771 0.24771
#
# Static dielectric constant tensor:
#      x y z
#    x 1.799760 0.000000 0.000000 
#    y 0.000000 1.799760 0.000000 
#    z 0.000000 0.000000 1.803020 
# 
# From -- ./inp_files/5290.got.cif
#   From: 2010.05.17/outbox.cif.g08.bks.cpg/sg192_3_cif.got.tgz:5290.got - 2010.05.20 12:28:01.
