data_PCOD9588985
_publ_section_title
;
Structure prediction by ZEFSAII (Michael W. Deem and Ramdas Pophale) SiO2 
 PCOD9588985
Probable space group: P 63/M C M
;
_chemical_formula_sum "Si O2"
_cell_formula_units_Z 144
_cell_length_a 30.413609
_cell_length_b 30.413609
_cell_length_c 9.329606
_cell_angle_alpha 90.000000
_cell_angle_beta 90.000000
_cell_angle_gamma 120.000000
_cell_volume 7473.600030
_symmetry_space_group_name_H-M "P 63/M C M"
_symmetry_group_IT_number 193
_symmetry_cell_setting 'hexagonal'
loop_
_space_group_symop_operation_xyz
x,y,z
x-y,x,1/2+z
-y,x-y,z
-x,-y,1/2+z
-x+y,-x,z
y,-x+y,1/2+z
x-y,-y,1/2-z
-x,-x+y,1/2-z
y,x,1/2-z
-y,-x,-z
-x+y,y,-z
x,x-y,-z
-x,-y,-z
-x+y,-x,1/2-z
y,-x+y,-z
x,y,1/2-z
x-y,x,-z
-y,x-y,1/2-z
-x+y,y,1/2+z
x,x-y,1/2+z
-y,-x,1/2+z
y,x,z
x-y,-y,z
-x,-x+y,z
loop_
_atom_site_type_symbol
_atom_site_label
_atom_site_fract_x
_atom_site_fract_y
_atom_site_fract_z
Si Si1 0.358299 0.802277 0.414296
Si Si2 0.760810 0.700774 0.587366
Si Si3 0.272044 0.469724 0.412030
Si Si4 0.580993 0.074099 0.584859
Si Si5 0.406799 0.330358 0.414619
Si Si6 0.849223 0.060996 0.921299
O O1 0.392673 0.785346 0.500000
O O2 0.349900 0.785399 0.250000
O O3 0.307570 0.787039 0.500348
O O4 0.389307 0.864107 0.413606
O O5 0.773852 0.691520 0.750000
O O6 0.737301 0.737301 0.601483
O O7 0.713559 0.647976 0.531573
O O8 0.809275 0.732664 0.486955
O O9 0.220227 0.440454 0.500000
O O10 0.262747 0.479359 0.250000
O O11 0.302267 0.439551 0.409054
O O12 0.529081 0.058161 0.500000
O O13 0.571836 0.057819 0.750000
O O14 0.619111 0.059237 0.506946
O O15 0.400814 0.342992 0.250000
O O16 0.853996 0.068959 0.750000
O O17 0.825361 0.000000 0.946325
O O18 0.902649 0.097352 0.000000
#
# Coordination Sequence:
#
# PCOD9588985 Si02
#       6
#    24  24  24  24  24  24
#     4   9  16  27  43  62  82 107 141 179 223 275
#     4   9  18  34  55  78 107 145 186 227 273 325
#     4  10  19  30  43  62  90 120 151 190 237 290
#     4   9  16  26  43  66  91 120 157 205 258 312
#     4   9  18  31  47  69  97 130 169 214 266 323
#     4  10  21  37  59  88 120 155 196 240 284 333
#
# _framework density 19.267823
#
# number of rings (size 3 to 8) (size 9 to 14) (size 15 to 20)
#    0.000    2.667    0.000    2.000    0.000    7.000 
#    0.000    1.667    0.000    1.000    0.000    2.333 
#    0.000    0.000    0.000    0.000    0.000    0.000 
#
# Total GULP energy -802610.349053 kJ/mol
# GULP energy per Si atom -5573.682980 kJ/mol
# Density = 1.922397 g / cm^3
# Si number density = 19.267823 Si / 1000 Ang^3
#
#
#
# Elastic Constant Matrix: (Units=GPa)
#
#
# Indices 1 2 3 4 5 6 
#
# 1 38.8298 84.9328 57.3075 0.0000 0.0000 0.0000
# 2 84.9328 38.8298 57.3075 0.0000 0.0000 0.0000
# 3 57.3075 57.3075 146.0749 0.0000 0.0000 0.0000
# 4 0.0000 0.0000 0.0000 0.7086 0.0000 0.0000
# 5 0.0000 0.0000 0.0000 0.0000 0.7086 0.0000
# 6 0.0000 0.0000 0.0000 0.0000 0.0000 -23.0515
#
#
#
# Elastic Compliance Matrix: (Units=1/GPa)
#
#
# Indices 1 2 3 4 5 6 
#
# 1 -0.004500 0.017191 -0.004979 0.000000 0.000000 0.000000
# 2 0.017191 -0.004500 -0.004979 0.000000 0.000000 0.000000
# 3 -0.004979 -0.004979 0.010752 0.000000 0.000000 0.000000
# 4 0.000000 0.000000 0.000000 1.411270 0.000000 0.000000
# 5 0.000000 0.000000 0.000000 0.000000 1.411270 0.000000
# 6 0.000000 0.000000 0.000000 0.000000 0.000000 -0.043381
#
#
# Mechanical properties :
#
#
# Convention : Reuss Voigt Hill
#
# Bulk Modulus (GPa) = 61.65718 69.20333 65.43026
# Shear Modulus (GPa) = 1.80385 -2.71440 -0.45528
#
# Velocity S-wave (km/s) = 0.96862 -1.18821 -0.48662
# Velocity P-wave (km/s) = 5.77239 5.84055 5.80657
#
# Compressibility (1/GPa) = 0.01621871
#
# Stress axis : x y z
#
# Youngs Moduli (GPa) = -222.22669 -222.22669 93.00316
#
# Poissons Ratio (x) = 3.82023 0.46304
# Poissons Ratio (y) = 3.82023 0.46304
# Poissons Ratio (z) = -1.10642 -1.10642
#
# Static dielectric constant tensor:
#      x y z
#    x 1.703270 0.000000 0.000000 
#    y 0.000000 1.703270 0.000000 
#    z 0.000000 0.000000 1.693250 
# 
# From -- ./inp_files/1585.got.cif
#   From: 2010.05.17/outbox.cif.g08.bks.cpg/sg193_1_cif.got.tgz:1585.got - 2010.05.20 12:33:02.
