data_PCOD9588325
_publ_section_title
;
Structure prediction by ZEFSAII (Michael W. Deem and Ramdas Pophale) SiO2 
 PCOD9588325
Probable space group: P 6/M C C
;
_chemical_formula_sum "Si O2"
_cell_formula_units_Z 104
_cell_length_a 19.520214
_cell_length_b 19.520214
_cell_length_c 13.974014
_cell_angle_alpha 90.000000
_cell_angle_beta 90.000000
_cell_angle_gamma 120.000000
_cell_volume 4611.274278
_symmetry_space_group_name_H-M "P 6/M C C"
_symmetry_group_IT_number 192
_symmetry_cell_setting 'hexagonal'
loop_
_space_group_symop_operation_xyz
x,y,z
x-y,x,z
-y,x-y,z
-x,-y,z
-x+y,-x,z
y,-x+y,z
x-y,-y,1/2-z
-x,-x+y,1/2-z
y,x,1/2-z
-y,-x,1/2-z
-x+y,y,1/2-z
x,x-y,1/2-z
-x,-y,-z
-x+y,-x,-z
y,-x+y,-z
x,y,-z
x-y,x,-z
-y,x-y,-z
-x+y,y,1/2+z
x,x-y,1/2+z
-y,-x,1/2+z
y,x,1/2+z
x-y,-y,1/2+z
-x,-x+y,1/2+z
loop_
_atom_site_type_symbol
_atom_site_label
_atom_site_fract_x
_atom_site_fract_y
_atom_site_fract_z
Si Si1 0.583946 0.505571 0.885576
Si Si2 0.815358 0.332041 0.608591
Si Si3 0.128252 0.341706 0.117263
Si Si4 0.949089 0.674827 0.617182
Si Si5 0.333334 0.666667 0.362596
O O1 0.500000 0.500000 0.869437
O O2 0.566955 0.420254 0.850627
O O3 0.655817 0.588213 0.849347
O O4 0.598059 0.508730 0.000000
O O5 0.846907 0.344274 0.500000
O O6 0.837954 0.270394 0.650432
O O7 0.722430 0.299461 0.605025
O O8 0.189871 0.313876 0.146944
O O9 0.036495 0.293233 0.145924
O O10 0.130001 0.341648 0.000000
O O11 0.949989 0.673646 0.500000
O O12 0.333334 0.666667 0.250000
#
# Coordination Sequence:
#
# PCOD9588325 Si02
#       5
#    24  24  24  24   8
#     4   9  14  23  42  68  94 110 137 192 243 275
#     4  10  18  31  50  70  89 120 161 199 234 274
#     4   9  16  25  41  65  90 114 148 193 238 276
#     4   9  15  23  35  59  92 119 142 185 240 280
#     4  12  25  35  43  63 100 134 157 189 229 275
#
# _framework density 22.553419000000002
#
# number of rings (size 3 to 8) (size 9 to 14) (size 15 to 20)
#    0.000    2.538    2.308    2.077    0.000    3.692 
#    0.000    0.000    0.000    1.154    0.000    3.231 
#    0.000    0.000    0.000    0.000    0.000    0.000 
#
# Total GULP energy -581154.343293 kJ/mol
# GULP energy per Si atom -5588.022532 kJ/mol
# Density = 2.250209 g / cm^3
# Si number density = 22.553419 Si / 1000 Ang^3
#
#
#
# Elastic Constant Matrix: (Units=GPa)
#
#
# Indices 1 2 3 4 5 6 
#
# 1 191.5168 105.7771 12.6422 -0.0004 0.0000 -0.0004
# 2 105.7771 191.5154 12.6426 0.0000 0.0003 -0.0001
# 3 12.6422 12.6426 77.6110 0.0002 -0.0004 0.0001
# 4 -0.0004 0.0000 0.0002 -15.1778 0.0006 -0.0001
# 5 0.0000 0.0003 -0.0004 0.0006 -15.1774 0.0002
# 6 -0.0004 -0.0001 0.0001 -0.0001 0.0002 42.8703
#
#
#
# Elastic Compliance Matrix: (Units=1/GPa)
#
#
# Indices 1 2 3 4 5 6 
#
# 1 0.007537 -0.004126 -0.000556 0.000000 0.000000 0.000000
# 2 -0.004126 0.007537 -0.000556 0.000000 0.000000 0.000000
# 3 -0.000556 -0.000556 0.013066 0.000000 0.000000 0.000000
# 4 0.000000 0.000000 0.000000 -0.065886 -0.000002 0.000000
# 5 0.000000 0.000000 0.000000 -0.000002 -0.065888 0.000000
# 6 0.000000 0.000000 0.000000 0.000000 0.000000 0.023326
#
#
# Mechanical properties :
#
#
# Convention : Reuss Voigt Hill
#
# Bulk Modulus (GPa) = 56.60854 80.30744 68.45799
# Shear Modulus (GPa) = -78.19342 24.47513 -26.85915
#
# Velocity S-wave (km/s) = -5.89454 3.29782 -3.45470
# Velocity P-wave (km/s) = 4.60143 7.08419 3.80871
#
# Compressibility (1/GPa) = 0.01766518
#
# Stress axis : x y z
#
# Youngs Moduli (GPa) = 132.67720 132.67614 76.53573
#
# Poissons Ratio (x) = 0.54745 0.04252
# Poissons Ratio (y) = 0.54745 0.04253
# Poissons Ratio (z) = 0.07371 0.07372
#
# Static dielectric constant tensor:
#      x y z
#    x 1.843260 0.000000 0.000000 
#    y 0.000000 1.843260 0.000000 
#    z 0.000000 0.000000 1.931510 
# 
# From -- ./inp_files/2883.got.cif
#   From: 2010.05.17/outbox.cif.g08.bks.cpg/sg192_2_cif.got.tgz:2883.got - 2010.05.20 12:28:01.
