data_PCOD9588550
_publ_section_title
;
Structure prediction by ZEFSAII (Michael W. Deem and Ramdas Pophale) SiO2 
 PCOD9588550
Probable space group: P 6/M C C
;
_chemical_formula_sum "Si O2"
_cell_formula_units_Z 144
_cell_length_a 19.804862
_cell_length_b 19.804862
_cell_length_c 23.954645
_cell_angle_alpha 90.000000
_cell_angle_beta 90.000000
_cell_angle_gamma 120.000000
_cell_volume 8136.994305
_symmetry_space_group_name_H-M "P 6/M C C"
_symmetry_group_IT_number 192
_symmetry_cell_setting 'hexagonal'
loop_
_space_group_symop_operation_xyz
x,y,z
x-y,x,z
-y,x-y,z
-x,-y,z
-x+y,-x,z
y,-x+y,z
x-y,-y,1/2-z
-x,-x+y,1/2-z
y,x,1/2-z
-y,-x,1/2-z
-x+y,y,1/2-z
x,x-y,1/2-z
-x,-y,-z
-x+y,-x,-z
y,-x+y,-z
x,y,-z
x-y,x,-z
-y,x-y,-z
-x+y,y,1/2+z
x,x-y,1/2+z
-y,-x,1/2+z
y,x,1/2+z
x-y,-y,1/2+z
-x,-x+y,1/2+z
loop_
_atom_site_type_symbol
_atom_site_label
_atom_site_fract_x
_atom_site_fract_y
_atom_site_fract_z
Si Si1 0.751113 0.316157 0.500000
Si Si2 0.002794 0.703066 0.565006
Si Si3 0.269034 0.761074 0.874062
Si Si4 0.166967 0.595503 0.184423
Si Si5 0.460476 0.049128 0.102053
Si Si6 0.171712 0.347679 0.566001
Si Si7 0.850173 0.458933 0.500000
O O1 0.750417 0.293995 0.564842
O O2 0.853109 0.380277 0.500000
O O3 0.649680 0.246696 0.500000
O O4 0.002702 0.681704 0.500000
O O5 0.082937 0.782842 0.573703
O O6 0.997378 0.632021 0.600840
O O7 0.921305 0.701364 0.573699
O O8 0.349311 0.820356 0.843835
O O9 0.231705 0.680920 0.838539
O O10 0.208511 0.790451 0.889152
O O11 0.169911 0.584956 0.250000
O O12 0.087893 0.588607 0.160465
O O13 0.500000 0.000000 0.082790
O O14 0.490015 0.117143 0.054675
O O15 0.185283 0.376423 0.500000
#
# Coordination Sequence:
#
# PCOD9588550 Si02
#       7
#    12  24  24  24  24  24  12
#     4  12  19  32  56  81  99 133 179 257 311 348
#     4  10  20  34  58  87 123 151 186 243 311 379
#     4  12  21  38  56  82 115 145 205 254 307 353
#     4  12  26  40  55  75 113 166 207 248 289 344
#     4  12  23  37  55  82 114 151 196 250 304 353
#     4  10  20  36  59  91 119 151 189 246 318 376
#     4  12  22  34  52  85 115 133 186 247 323 348
#
# _framework density 17.696953000000001
#
# number of rings (size 3 to 8) (size 9 to 14) (size 15 to 20)
#    0.000    0.667    6.667    2.250    0.000    0.333 
#    0.000    0.000    0.000    0.333    0.000    2.333 
#    0.000    0.000    0.000    0.000    0.000    0.000 
#
# Total GULP energy -802346.935964 kJ/mol
# GULP energy per Si atom -5571.853722 kJ/mol
# Density = 1.765667 g / cm^3
# Si number density = 17.696953 Si / 1000 Ang^3
#
#
#
# Elastic Constant Matrix: (Units=GPa)
#
#
# Indices 1 2 3 4 5 6 
#
# 1 92.7174 37.3873 33.6660 0.0000 0.0000 0.0000
# 2 37.3873 92.7174 33.6660 0.0000 0.0000 0.0000
# 3 33.6660 33.6660 108.9109 0.0000 0.0000 0.0000
# 4 0.0000 0.0000 0.0000 7.7638 0.0000 0.0000
# 5 0.0000 0.0000 0.0000 0.0000 7.7638 0.0000
# 6 0.0000 0.0000 0.0000 0.0000 0.0000 27.6650
#
#
#
# Elastic Compliance Matrix: (Units=1/GPa)
#
#
# Indices 1 2 3 4 5 6 
#
# 1 0.013612 -0.004462 -0.002828 0.000000 0.000000 0.000000
# 2 -0.004462 0.013612 -0.002828 0.000000 0.000000 0.000000
# 3 -0.002828 -0.002828 0.010930 0.000000 0.000000 0.000000
# 4 0.000000 0.000000 0.000000 0.128802 0.000000 0.000000
# 5 0.000000 0.000000 0.000000 0.000000 0.128802 0.000000
# 6 0.000000 0.000000 0.000000 0.000000 0.000000 0.036147
#
#
# Mechanical properties :
#
#
# Convention : Reuss Voigt Hill
#
# Bulk Modulus (GPa) = 55.81398 55.97607 55.89502
# Shear Modulus (GPa) = 13.96204 21.28031 17.62117
#
# Velocity S-wave (km/s) = 2.81188 3.47145 3.15892
# Velocity P-wave (km/s) = 6.49226 6.91136 6.70509
#
# Compressibility (1/GPa) = 0.01791666
#
# Stress axis : x y z
#
# Youngs Moduli (GPa) = 73.46676 73.46676 91.48804
#
# Poissons Ratio (x) = 0.32779 0.25876
# Poissons Ratio (y) = 0.32779 0.25876
# Poissons Ratio (z) = 0.20779 0.20779
#
# Static dielectric constant tensor:
#      x y z
#    x 1.713830 0.000000 0.000000 
#    y 0.000000 1.713830 0.000000 
#    z 0.000000 0.000000 1.569250 
# 
# From -- ./inp_files/5986.got.cif
#   From: 2010.05.17/outbox.cif.g08.bks.cpg/sg192_3_cif.got.tgz:5986.got - 2010.05.20 12:28:01.
