data_PCOD9588885
_publ_section_title
;
Structure prediction by ZEFSAII (Michael W. Deem and Ramdas Pophale) SiO2 
 PCOD9588885
Probable space group: P 63/M C M
;
_chemical_formula_sum "Si O2"
_cell_formula_units_Z 168
_cell_length_a 25.358788
_cell_length_b 25.358788
_cell_length_c 19.862091
_cell_angle_alpha 90.000000
_cell_angle_beta 90.000000
_cell_angle_gamma 120.000000
_cell_volume 11061.463357
_symmetry_space_group_name_H-M "P 63/M C M"
_symmetry_group_IT_number 193
_symmetry_cell_setting 'hexagonal'
loop_
_space_group_symop_operation_xyz
x,y,z
x-y,x,1/2+z
-y,x-y,z
-x,-y,1/2+z
-x+y,-x,z
y,-x+y,1/2+z
x-y,-y,1/2-z
-x,-x+y,1/2-z
y,x,1/2-z
-y,-x,-z
-x+y,y,-z
x,x-y,-z
-x,-y,-z
-x+y,-x,1/2-z
y,-x+y,-z
x,y,1/2-z
x-y,x,-z
-y,x-y,1/2-z
-x+y,y,1/2+z
x,x-y,1/2+z
-y,-x,1/2+z
y,x,z
x-y,-y,z
-x,-x+y,z
loop_
_atom_site_type_symbol
_atom_site_label
_atom_site_fract_x
_atom_site_fract_y
_atom_site_fract_z
Si Si1 0.884766 0.072429 0.577319
Si Si2 0.073121 0.679370 0.960593
Si Si3 0.859402 0.859402 0.830018
Si Si4 0.000000 0.732379 0.329108
Si Si5 0.612505 0.887595 0.388195
Si Si6 0.670134 0.814003 0.077238
Si Si7 0.071224 0.471419 0.671553
Si Si8 0.510770 0.073795 0.429588
O O1 0.908566 0.091435 0.500000
O O2 0.940626 0.092031 0.628817
O O3 0.850601 0.109676 0.597879
O O4 0.839447 0.000000 0.578570
O O5 0.098169 0.742347 0.921425
O O6 0.092886 0.633463 0.928949
O O7 0.000000 0.644009 0.964724
O O8 0.099068 0.698078 0.036200
O O9 0.872761 0.872761 0.750000
O O10 0.795402 0.795402 0.835138
O O11 0.942376 0.677729 0.364890
O O12 0.000000 0.718360 0.250000
O O13 0.624093 0.831015 0.386025
O O14 0.561263 0.889987 0.343838
O O15 0.670659 0.835330 0.000000
O O16 0.071841 0.483569 0.750000
O O17 0.092145 0.532427 0.629254
O O18 0.000000 0.423794 0.652172
O O19 0.546317 0.092633 0.500000
O O20 0.472953 0.000000 0.428655
#
# Coordination Sequence:
#
# PCOD9588885 Si02
#       8
#    24  24  12  12  24  24  24  24
#     4  11  21  37  59  76  97 129 174 220 264 326
#     4  10  17  28  47  69 100 134 161 199 240 285
#     4  11  24  40  55  77 103 131 166 219 288 333
#     4  11  20  30  48  70 102 137 159 202 270 319
#     4  11  17  28  45  71 103 126 162 205 248 299
#     4   9  20  29  46  74 101 130 165 207 250 299
#     4  10  18  27  44  70  98 128 159 192 235 290
#     4   9  16  27  43  66  97 130 158 187 226 271
#
# _framework density 15.187865
#
# number of rings (size 3 to 8) (size 9 to 14) (size 15 to 20)
#    0.000    1.857    5.000    0.857    0.000    0.286 
#    0.429    0.357    0.000    2.571    0.000    2.000 
#    1.429    1.429    0.000    0.000    0.000    0.000 
#
# Total GULP energy -935995.518606 kJ/mol
# GULP energy per Si atom -5571.401896 kJ/mol
# Density = 1.515330 g / cm^3
# Si number density = 15.187865 Si / 1000 Ang^3
#
#
#
# Elastic Constant Matrix: (Units=GPa)
#
#
# Indices 1 2 3 4 5 6 
#
# 1 -47.3365 150.3036 22.7074 0.0000 0.0000 0.0000
# 2 150.3036 -47.3365 22.7074 0.0000 0.0000 0.0000
# 3 22.7074 22.7074 58.7644 0.0000 0.0000 0.0000
# 4 0.0000 0.0000 0.0000 14.2258 0.0000 0.0000
# 5 0.0000 0.0000 0.0000 0.0000 14.2258 0.0000
# 6 0.0000 0.0000 0.0000 0.0000 0.0000 -98.8200
#
#
#
# Elastic Compliance Matrix: (Units=1/GPa)
#
#
# Indices 1 2 3 4 5 6 
#
# 1 0.003324 0.008383 -0.004524 0.000000 0.000000 0.000000
# 2 0.008383 0.003324 -0.004524 0.000000 0.000000 0.000000
# 3 -0.004524 -0.004524 0.020513 0.000000 0.000000 0.000000
# 4 0.000000 0.000000 0.000000 0.070295 0.000000 0.000000
# 5 0.000000 0.000000 0.000000 0.000000 0.070295 0.000000
# 6 0.000000 0.000000 0.000000 0.000000 0.000000 -0.010119
#
#
# Mechanical properties :
#
#
# Convention : Reuss Voigt Hill
#
# Bulk Modulus (GPa) = 38.71125 39.50311 39.10718
# Shear Modulus (GPa) = 29.83824 -29.51549 0.16138
#
# Velocity S-wave (km/s) = 4.43720 -4.41314 0.32632
# Velocity P-wave (km/s) = 7.19689 0.31369 5.09380
#
# Compressibility (1/GPa) = 0.02583229
#
# Stress axis : x y z
#
# Youngs Moduli (GPa) = 300.86955 300.86956 48.74906
#
# Poissons Ratio (x) = -2.52231 0.22053
# Poissons Ratio (y) = -2.52231 0.22053
# Poissons Ratio (z) = 1.36107 1.36107
#
# Static dielectric constant tensor:
#      x y z
#    x 1.504790 0.000000 0.000000 
#    y 0.000000 1.504790 0.000000 
#    z 0.000000 0.000000 1.514570 
# 
# From -- ./inp_files/6874.got.cif
#   From: 2010.05.17/outbox.cif.g08.bks.cpg/sg193_4_cif.got.tgz:6874.got - 2010.05.20 12:33:02.
