data_PCOD9588758
_publ_section_title
;
Structure prediction by ZEFSAII (Michael W. Deem and Ramdas Pophale) SiO2 
 PCOD9588758
Probable space group: P 6/M C C
;
_chemical_formula_sum "Si O2"
_cell_formula_units_Z 156
_cell_length_a 20.975198
_cell_length_b 20.975198
_cell_length_c 19.872972
_cell_angle_alpha 90.000000
_cell_angle_beta 90.000000
_cell_angle_gamma 120.000000
_cell_volume 7571.912569
_symmetry_space_group_name_H-M "P 6/M C C"
_symmetry_group_IT_number 192
_symmetry_cell_setting 'hexagonal'
loop_
_space_group_symop_operation_xyz
x,y,z
x-y,x,z
-y,x-y,z
-x,-y,z
-x+y,-x,z
y,-x+y,z
x-y,-y,1/2-z
-x,-x+y,1/2-z
y,x,1/2-z
-y,-x,1/2-z
-x+y,y,1/2-z
x,x-y,1/2-z
-x,-y,-z
-x+y,-x,-z
y,-x+y,-z
x,y,-z
x-y,x,-z
-y,x-y,-z
-x+y,y,1/2+z
x,x-y,1/2+z
-y,-x,1/2+z
y,x,1/2+z
x-y,-y,1/2+z
-x,-x+y,1/2+z
loop_
_atom_site_type_symbol
_atom_site_label
_atom_site_fract_x
_atom_site_fract_y
_atom_site_fract_z
Si Si1 0.058472 0.481636 0.879902
Si Si2 0.813135 0.538176 0.926530
Si Si3 0.274513 0.814107 0.306616
Si Si4 0.913919 0.089765 0.326534
Si Si5 0.685366 0.021564 0.672307
Si Si6 0.714151 0.793324 0.921308
Si Si7 0.430297 0.860593 0.750000
O O1 0.128569 0.490305 0.920135
O O2 0.089504 0.532633 0.814740
O O3 0.000000 0.500000 0.913905
O O4 0.018921 0.399119 0.851595
O O5 0.754441 0.510952 0.867252
O O6 0.861286 0.627132 0.919512
O O7 0.778398 0.520126 0.000000
O O8 0.212332 0.787669 0.250000
O O9 0.289348 0.892912 0.331368
O O10 0.344579 0.818157 0.269150
O O11 0.896613 0.103388 0.250000
O O12 0.891620 0.130169 0.382306
O O13 0.002123 0.126592 0.333438
O O14 0.688710 0.000000 0.750000
O O15 0.723455 0.990280 0.622378
O O16 0.734631 0.796344 0.000000
#
# Coordination Sequence:
#
# PCOD9588758 Si02
#       7
#    24  24  24  24  24  24  12
#     4  11  19  39  69  96 125 166 222 283 334 384
#     4  10  24  44  62  93 136 172 214 271 332 404
#     4  12  23  39  65  96 133 177 216 271 338 390
#     4  10  23  43  65  89 121 165 224 277 326 387
#     4  11  21  36  64  97 131 164 216 274 330 392
#     4  10  24  42  63  95 134 171 213 267 334 404
#     4  12  21  38  64 100 128 166 222 276 328 394
#
# _framework density 20.602456
#
# number of rings (size 3 to 8) (size 9 to 14) (size 15 to 20)
#    0.000    1.231    4.615    1.308    4.308    2.769 
#    0.462    0.769    0.000    0.923    0.000    0.000 
#    0.000    0.000    0.000    0.000    0.000    0.000 
#
# Total GULP energy -871641.259814 kJ/mol
# GULP energy per Si atom -5587.443973 kJ/mol
# Density = 2.055556 g / cm^3
# Si number density = 20.602456 Si / 1000 Ang^3
#
#
#
# Elastic Constant Matrix: (Units=GPa)
#
#
# Indices 1 2 3 4 5 6 
#
# 1 68.5289 12.4935 28.7639 0.0000 0.0000 0.0000
# 2 12.4935 68.5289 28.7639 0.0000 0.0000 0.0000
# 3 28.7639 28.7639 109.1812 0.0000 0.0000 0.0000
# 4 0.0000 0.0000 0.0000 -91.8056 0.0000 0.0000
# 5 0.0000 0.0000 0.0000 0.0000 -91.8056 0.0000
# 6 0.0000 0.0000 0.0000 0.0000 0.0000 28.0177
#
#
#
# Elastic Compliance Matrix: (Units=1/GPa)
#
#
# Indices 1 2 3 4 5 6 
#
# 1 0.016514 -0.001332 -0.004000 0.000000 0.000000 0.000000
# 2 -0.001332 0.016514 -0.004000 0.000000 0.000000 0.000000
# 3 -0.004000 -0.004000 0.011267 0.000000 0.000000 0.000000
# 4 0.000000 0.000000 0.000000 -0.010893 0.000000 0.000000
# 5 0.000000 0.000000 0.000000 0.000000 -0.010893 0.000000
# 6 0.000000 0.000000 0.000000 0.000000 0.000000 0.035692
#
#
# Mechanical properties :
#
#
# Convention : Reuss Voigt Hill
#
# Bulk Modulus (GPa) = 39.01390 42.92019 40.96704
# Shear Modulus (GPa) = 58.54257 -19.37086 19.58586
#
# Velocity S-wave (km/s) = 5.33639 -3.06963 3.08662
# Velocity P-wave (km/s) = 7.54632 2.88345 5.71232
#
# Compressibility (1/GPa) = 0.02563189
#
# Stress axis : x y z
#
# Youngs Moduli (GPa) = 60.55456 60.55456 88.75812
#
# Poissons Ratio (x) = 0.08065 0.35501
# Poissons Ratio (y) = 0.08065 0.35501
# Poissons Ratio (z) = 0.24220 0.24220
#
# Static dielectric constant tensor:
#      x y z
#    x 3.431220 0.000000 0.000000 
#    y 0.000000 3.431220 0.000000 
#    z 0.000000 0.000000 1.723840 
# 
# From -- ./inp_files/5245.got.cif
#   From: 2010.05.17/outbox.cif.g08.bks.cpg/sg192_3_cif.got.tgz:5245.got - 2010.05.20 12:28:01.
