data_PCOD9588685
_publ_section_title
;
Structure prediction by ZEFSAII (Michael W. Deem and Ramdas Pophale) SiO2 
 PCOD9588685
Probable space group: P 6/M C C
;
_chemical_formula_sum "Si O2"
_cell_formula_units_Z 102
_cell_length_a 25.042520
_cell_length_b 25.042520
_cell_length_c 9.463379
_cell_angle_alpha 90.000000
_cell_angle_beta 90.000000
_cell_angle_gamma 120.000000
_cell_volume 5139.642644
_symmetry_space_group_name_H-M "P 6/M C C"
_symmetry_group_IT_number 192
_symmetry_cell_setting 'hexagonal'
loop_
_space_group_symop_operation_xyz
x,y,z
x-y,x,z
-y,x-y,z
-x,-y,z
-x+y,-x,z
y,-x+y,z
x-y,-y,1/2-z
-x,-x+y,1/2-z
y,x,1/2-z
-y,-x,1/2-z
-x+y,y,1/2-z
x,x-y,1/2-z
-x,-y,-z
-x+y,-x,-z
y,-x+y,-z
x,y,-z
x-y,x,-z
-y,x-y,-z
-x+y,y,1/2+z
x,x-y,1/2+z
-y,-x,1/2+z
y,x,1/2+z
x-y,-y,1/2+z
-x,-x+y,1/2+z
loop_
_atom_site_type_symbol
_atom_site_label
_atom_site_fract_x
_atom_site_fract_y
_atom_site_fract_z
Si Si1 0.862494 0.615893 0.336898
Si Si2 0.670349 0.235602 0.161252
Si Si3 0.500000 0.000000 0.250000
Si Si4 0.236398 0.063698 0.165682
Si Si5 0.460185 0.364223 0.154470
O O1 0.801588 0.603176 0.250000
O O2 0.845745 0.596557 0.500000
O O3 0.907057 0.689561 0.331794
O O4 0.898343 0.583368 0.270357
O O5 0.732961 0.267040 0.250000
O O6 0.625332 0.250664 0.250000
O O7 0.641061 0.162555 0.158146
O O8 0.679825 0.257909 0.000000
O O9 0.435713 0.954781 0.171760
O O10 0.223056 0.111528 0.250000
O O11 0.204331 0.000000 0.250000
O O12 0.218131 0.057078 0.000000
O O13 0.430443 0.342651 0.000000
#
# Coordination Sequence:
#
# PCOD9588685 Si02
#       5
#    24  24   6  24  24
#     4  10  22  40  65  96 129 166 212 266 324 384
#     4  11  23  41  63  90 118 152 194 247 308 371
#     4  12  26  48  64  94 126 172 220 266 312 392
#     4  10  21  38  61  93 130 171 215 264 317 376
#     4  11  25  43  65  90 122 164 209 258 315 380
#
# _framework density 19.845737
#
# number of rings (size 3 to 8) (size 9 to 14) (size 15 to 20)
#    0.000    1.412    1.176    3.412    1.647    8.471 
#    0.000    0.000    0.000    0.235    0.000    1.647 
#    0.000    0.000    0.000    0.000    0.000    0.000 
#
# Total GULP energy -569645.268842 kJ/mol
# GULP energy per Si atom -5584.757538 kJ/mol
# Density = 1.980057 g / cm^3
# Si number density = 19.845737 Si / 1000 Ang^3
#
#
#
# Elastic Constant Matrix: (Units=GPa)
#
#
# Indices 1 2 3 4 5 6 
#
# 1 107.4974 35.0582 70.1164 0.0000 0.0000 0.0000
# 2 35.0582 107.4974 70.1164 0.0000 0.0000 0.0000
# 3 70.1164 70.1164 211.9444 0.0000 0.0000 0.0000
# 4 0.0000 0.0000 0.0000 20.9485 0.0000 0.0000
# 5 0.0000 0.0000 0.0000 0.0000 20.9485 0.0000
# 6 0.0000 0.0000 0.0000 0.0000 0.0000 36.2196
#
#
#
# Elastic Compliance Matrix: (Units=1/GPa)
#
#
# Indices 1 2 3 4 5 6 
#
# 1 0.012102 -0.001703 -0.003440 0.000000 0.000000 0.000000
# 2 -0.001703 0.012102 -0.003440 0.000000 0.000000 0.000000
# 3 -0.003440 -0.003440 0.006994 0.000000 0.000000 0.000000
# 4 0.000000 0.000000 0.000000 0.047736 0.000000 0.000000
# 5 0.000000 0.000000 0.000000 0.000000 0.047736 0.000000
# 6 0.000000 0.000000 0.000000 0.000000 0.000000 0.027609
#
#
# Mechanical properties :
#
#
# Convention : Reuss Voigt Hill
#
# Bulk Modulus (GPa) = 71.26839 86.39127 78.82983
# Shear Modulus (GPa) = 28.38915 32.39985 30.39450
#
# Velocity S-wave (km/s) = 3.78629 4.04491 3.91773
# Velocity P-wave (km/s) = 7.42319 8.08956 7.76353
#
# Compressibility (1/GPa) = 0.01403147
#
# Stress axis : x y z
#
# Youngs Moduli (GPa) = 82.63208 82.63208 142.97039
#
# Poissons Ratio (x) = 0.14071 0.49185
# Poissons Ratio (y) = 0.14071 0.49185
# Poissons Ratio (z) = 0.28427 0.28427
#
# Static dielectric constant tensor:
#      x y z
#    x 1.707190 0.000000 0.000000 
#    y 0.000000 1.707190 0.000000 
#    z 0.000000 0.000000 1.705650 
# 
# From -- ./inp_files/891.got.cif
#   From: 2010.05.17/outbox.cif.g08.bks.cpg/sg192_1_cif.got.tgz:891.got - 2010.05.20 12:28:01.
