data_PCOD9588440
_publ_section_title
;
Structure prediction by ZEFSAII (Michael W. Deem and Ramdas Pophale) SiO2 
 PCOD9588440
Probable space group: P 6/M C C
;
_chemical_formula_sum "Si O2"
_cell_formula_units_Z 72
_cell_length_a 16.647153
_cell_length_b 16.647153
_cell_length_c 14.584942
_cell_angle_alpha 90.000000
_cell_angle_beta 90.000000
_cell_angle_gamma 120.000000
_cell_volume 3500.380697
_symmetry_space_group_name_H-M "P 6/M C C"
_symmetry_group_IT_number 192
_symmetry_cell_setting 'hexagonal'
loop_
_space_group_symop_operation_xyz
x,y,z
x-y,x,z
-y,x-y,z
-x,-y,z
-x+y,-x,z
y,-x+y,z
x-y,-y,1/2-z
-x,-x+y,1/2-z
y,x,1/2-z
-y,-x,1/2-z
-x+y,y,1/2-z
x,x-y,1/2-z
-x,-y,-z
-x+y,-x,-z
y,-x+y,-z
x,y,-z
x-y,x,-z
-y,x-y,-z
-x+y,y,1/2+z
x,x-y,1/2+z
-y,-x,1/2+z
y,x,1/2+z
x-y,-y,1/2+z
-x,-x+y,1/2+z
loop_
_atom_site_type_symbol
_atom_site_label
_atom_site_fract_x
_atom_site_fract_y
_atom_site_fract_z
Si Si1 0.033947 0.200798 0.388635
Si Si2 0.003906 0.636774 0.853847
Si Si3 0.861416 0.499179 0.500000
Si Si4 0.462035 0.306055 0.000000
O O1 0.035354 0.205679 0.500000
O O2 0.116112 0.182282 0.360883
O O3 0.043018 0.295706 0.353757
O O4 0.000000 0.606810 0.750000
O O5 0.907678 0.590627 0.911402
O O6 0.072732 0.616667 0.912601
O O7 0.787040 0.533278 0.500000
O O8 0.823335 0.390557 0.500000
#
# Coordination Sequence:
#
# PCOD9588440 Si02
#       4
#    24  24  12  12
#     4  10  19  33  54  83 119 158 201 248 298 352
#     4  11  23  40  64  91 122 163 206 250 304 369
#     4  11  24  43  66  92 122 157 202 255 310 366
#     4  11  24  43  66  92 122 157 202 255 310 366
#
# _framework density 20.569189999999999
#
# number of rings (size 3 to 8) (size 9 to 14) (size 15 to 20)
#    0.000    1.333    3.333    4.667    0.000    9.333 
#    0.000    0.000    0.000    6.000    0.000    0.000 
#    0.000    0.000    0.000    0.000    0.000    0.000 
#
# Total GULP energy -402942.662666 kJ/mol
# GULP energy per Si atom -5596.425870 kJ/mol
# Density = 2.052237 g / cm^3
# Si number density = 20.569190 Si / 1000 Ang^3
#
#
#
# Elastic Constant Matrix: (Units=GPa)
#
#
# Indices 1 2 3 4 5 6 
#
# 1 81.3474 -0.9829 22.6232 0.0000 0.0000 0.0000
# 2 -0.9829 81.3474 22.6232 0.0000 0.0000 0.0000
# 3 22.6232 22.6232 152.9849 0.0000 0.0000 0.0000
# 4 0.0000 0.0000 0.0000 -5.7864 0.0000 0.0000
# 5 0.0000 0.0000 0.0000 0.0000 -5.7864 0.0000
# 6 0.0000 0.0000 0.0000 0.0000 0.0000 41.1652
#
#
#
# Elastic Compliance Matrix: (Units=1/GPa)
#
#
# Indices 1 2 3 4 5 6 
#
# 1 0.012860 0.000714 -0.002007 0.000000 0.000000 0.000000
# 2 0.000714 0.012860 -0.002007 0.000000 0.000000 0.000000
# 3 -0.002007 -0.002007 0.007130 0.000000 0.000000 0.000000
# 4 0.000000 0.000000 0.000000 -0.172819 0.000000 0.000000
# 5 0.000000 0.000000 0.000000 0.000000 -0.172819 0.000000
# 6 0.000000 0.000000 0.000000 0.000000 0.000000 0.024292
#
#
# Mechanical properties :
#
#
# Convention : Reuss Voigt Hill
#
# Bulk Modulus (GPa) = 38.09791 44.91188 41.50490
# Shear Modulus (GPa) = -18.30537 24.01288 2.85376
#
# Velocity S-wave (km/s) = -2.98642 3.42046 1.17915
# Velocity P-wave (km/s) = 2.58271 6.12220 4.69850
#
# Compressibility (1/GPa) = 0.02624816
#
# Stress axis : x y z
#
# Youngs Moduli (GPa) = 77.76177 77.76177 140.24769
#
# Poissons Ratio (x) = -0.05549 0.28151
# Poissons Ratio (y) = -0.05549 0.28151
# Poissons Ratio (z) = 0.15608 0.15608
#
# Static dielectric constant tensor:
#      x y z
#    x 1.711890 0.000000 0.000000 
#    y 0.000000 1.711890 0.000000 
#    z 0.000000 0.000000 1.767720 
# 
# From -- ./inp_files/2378.got.cif
#   From: 2010.05.17/outbox.cif.g08.bks.cpg/sg192_2_cif.got.tgz:2378.got - 2010.05.20 12:28:01.
