data_PCOD9588034
_publ_section_title
;
Structure prediction by ZEFSAII (Michael W. Deem and Ramdas Pophale) SiO2 
 PCOD9588034
Probable space group: P 6/M M M
;
_chemical_formula_sum "Si O2"
_cell_formula_units_Z 78
_cell_length_a 17.768836
_cell_length_b 17.768836
_cell_length_c 17.188503
_cell_angle_alpha 90.000000
_cell_angle_beta 90.000000
_cell_angle_gamma 120.000000
_cell_volume 4699.878642
_symmetry_space_group_name_H-M "P 6/M M M"
_symmetry_group_IT_number 191
_symmetry_cell_setting 'hexagonal'
loop_
_space_group_symop_operation_xyz
x,y,z
x-y,x,z
-y,x-y,z
-x,-y,z
-x+y,-x,z
y,-x+y,z
x-y,-y,-z
-x,-x+y,-z
y,x,-z
-y,-x,-z
-x+y,y,-z
x,x-y,-z
-x,-y,-z
-x+y,-x,-z
y,-x+y,-z
x,y,-z
x-y,x,-z
-y,x-y,-z
-x+y,y,z
x,x-y,z
-y,-x,z
y,x,z
x-y,-y,z
-x,-x+y,z
loop_
_atom_site_type_symbol
_atom_site_label
_atom_site_fract_x
_atom_site_fract_y
_atom_site_fract_z
Si Si1 0.845227 0.333083 0.180896
Si Si2 0.842499 0.333950 0.636658
Si Si3 0.358350 0.266022 0.500000
Si Si4 0.182286 0.000000 0.000000
Si Si5 0.666970 0.666970 0.087901
O O1 0.848193 0.424097 0.163527
O O2 0.748716 0.251285 0.168093
O O3 0.865911 0.334510 0.272905
O O4 0.915384 0.321466 0.132000
O O5 0.851323 0.425662 0.617949
O O6 0.742512 0.257488 0.628201
O O7 0.896148 0.311864 0.576046
O O8 0.274443 0.274443 0.500000
O O9 0.338123 0.169062 0.500000
O O10 0.175906 0.087953 0.000000
O O11 0.242519 0.000000 0.927723
O O12 0.635215 0.635215 0.000000
#
# Coordination Sequence:
#
# PCOD9588034 Si02
#       5
#    24  24  12   6  12
#     4  10  20  35  54  78 109 146 186 222 262 313
#     4   9  18  31  50  76 109 146 180 213 250 298
#     4  10  21  35  51  74 103 137 174 220 267 315
#     4  10  21  40  65  88 108 132 166 212 269 332
#     4  10  23  37  56  77 107 139 173 223 275 322
#
# _framework density 16.596174000000001
#
# number of rings (size 3 to 8) (size 9 to 14) (size 15 to 20)
#    0.462    1.846    0.000    2.538    2.154    4.923 
#    0.000    1.538    0.000    2.000    0.000    0.000 
#    0.000    0.000    0.000    0.000    0.000    0.000 
#
# Total GULP energy -434775.479363 kJ/mol
# GULP energy per Si atom -5574.044607 kJ/mol
# Density = 1.655840 g / cm^3
# Si number density = 16.596174 Si / 1000 Ang^3
#
#
#
# Elastic Constant Matrix: (Units=GPa)
#
#
# Indices 1 2 3 4 5 6 
#
# 1 107.4101 81.2284 54.6723 0.0000 0.0000 0.0000
# 2 81.2284 107.4101 54.6723 0.0000 0.0000 0.0000
# 3 54.6723 54.6723 57.3438 0.0000 0.0000 0.0000
# 4 0.0000 0.0000 0.0000 2.9378 0.0000 0.0000
# 5 0.0000 0.0000 0.0000 0.0000 2.9378 0.0000
# 6 0.0000 0.0000 0.0000 0.0000 0.0000 13.0908
#
#
#
# Elastic Compliance Matrix: (Units=1/GPa)
#
#
# Indices 1 2 3 4 5 6 
#
# 1 0.025022 -0.013172 -0.011298 0.000000 0.000000 0.000000
# 2 -0.013172 0.025022 -0.011298 0.000000 0.000000 0.000000
# 3 -0.011298 -0.011298 0.038982 0.000000 0.000000 0.000000
# 4 0.000000 0.000000 0.000000 0.340392 0.000000 0.000000
# 5 0.000000 0.000000 0.000000 0.000000 0.340392 0.000000
# 6 0.000000 0.000000 0.000000 0.000000 0.000000 0.076389
#
#
# Mechanical properties :
#
#
# Convention : Reuss Voigt Hill
#
# Bulk Modulus (GPa) = 57.17517 72.59003 64.88260
# Shear Modulus (GPa) = 5.41380 9.23268 7.32324
#
# Velocity S-wave (km/s) = 1.80808 2.36119 2.10290
# Velocity P-wave (km/s) = 6.23574 7.16014 6.71387
#
# Compressibility (1/GPa) = 0.01749011
#
# Stress axis : x y z
#
# Youngs Moduli (GPa) = 39.96427 39.96427 25.65289
#
# Poissons Ratio (x) = 0.52642 0.28983
# Poissons Ratio (y) = 0.52642 0.28983
# Poissons Ratio (z) = 0.45152 0.45152
#
# Static dielectric constant tensor:
#      x y z
#    x 1.542650 0.000000 0.000000 
#    y 0.000000 1.542650 0.000000 
#    z 0.000000 0.000000 1.565690 
# 
# From -- ./inp_files/5793.got.cif
#   From: 2010.05.17/outbox.cif.g08.bks.cpg/sg191_3_cif.got.tgz:5793.got - 2010.05.20 12:20:32.
