data_PCOD9588745
_publ_section_title
;
Structure prediction by ZEFSAII (Michael W. Deem and Ramdas Pophale) SiO2 
 PCOD9588745
Probable space group: P 6/M C C
;
_chemical_formula_sum "Si O2"
_cell_formula_units_Z 132
_cell_length_a 17.927258
_cell_length_b 17.927258
_cell_length_c 22.551028
_cell_angle_alpha 90.000000
_cell_angle_beta 90.000000
_cell_angle_gamma 120.000000
_cell_volume 6276.603769
_symmetry_space_group_name_H-M "P 6/M C C"
_symmetry_group_IT_number 192
_symmetry_cell_setting 'hexagonal'
loop_
_space_group_symop_operation_xyz
x,y,z
x-y,x,z
-y,x-y,z
-x,-y,z
-x+y,-x,z
y,-x+y,z
x-y,-y,1/2-z
-x,-x+y,1/2-z
y,x,1/2-z
-y,-x,1/2-z
-x+y,y,1/2-z
x,x-y,1/2-z
-x,-y,-z
-x+y,-x,-z
y,-x+y,-z
x,y,-z
x-y,x,-z
-y,x-y,-z
-x+y,y,1/2+z
x,x-y,1/2+z
-y,-x,1/2+z
y,x,1/2+z
x-y,-y,1/2+z
-x,-x+y,1/2+z
loop_
_atom_site_type_symbol
_atom_site_label
_atom_site_fract_x
_atom_site_fract_y
_atom_site_fract_z
Si Si1 0.005712 0.832033 0.321507
Si Si2 0.717437 0.271565 0.500000
Si Si3 0.096837 0.729299 0.336557
Si Si4 0.837856 0.563435 0.394528
Si Si5 0.420283 0.403510 0.064939
Si Si6 0.832920 0.499549 0.733279
O O1 0.022682 0.754128 0.335583
O O2 0.919173 0.828910 0.342618
O O3 0.000000 0.833174 0.250000
O O4 0.759905 0.374739 0.500000
O O5 0.737000 0.234851 0.441170
O O6 0.182321 0.809334 0.364756
O O7 0.073589 0.650981 0.380445
O O8 0.116705 0.703647 0.272326
O O9 0.843549 0.514293 0.336595
O O10 0.927557 0.597470 0.428175
O O11 0.500000 0.500000 0.067631
O O12 0.422069 0.367340 0.000000
O O13 0.733335 0.466670 0.750000
O O14 0.858862 0.429431 0.750000
#
# Coordination Sequence:
#
# PCOD9588745 Si02
#       6
#    24  12  24  24  24  24
#     4  10  22  40  69  97 130 165 213 270 337 412
#     4  10  26  38  69  91 127 170 229 286 329 370
#     4  11  25  40  64  93 135 176 209 274 336 406
#     4  11  24  42  62  92 128 164 224 266 332 388
#     4  11  25  40  63  89 126 172 224 276 321 390
#     4  10  23  37  61  89 129 174 218 267 322 389
#
# _framework density 21.030481000000002
#
# number of rings (size 3 to 8) (size 9 to 14) (size 15 to 20)
#    0.182    1.273    0.909    2.545   19.091    0.727 
#    0.000    1.818    0.000    0.000    0.000    0.000 
#    0.000    2.909    0.000    0.000    0.000    0.000 
#
# Total GULP energy -737443.010023 kJ/mol
# GULP energy per Si atom -5586.689470 kJ/mol
# Density = 2.098261 g / cm^3
# Si number density = 21.030481 Si / 1000 Ang^3
#
#
#
# Elastic Constant Matrix: (Units=GPa)
#
#
# Indices 1 2 3 4 5 6 
#
# 1 81.6887 13.7781 24.6117 0.0000 0.0000 0.0000
# 2 13.7781 81.6887 24.6117 0.0000 0.0000 0.0000
# 3 24.6117 24.6117 128.6238 0.0000 0.0000 0.0000
# 4 0.0000 0.0000 0.0000 20.4348 0.0000 0.0000
# 5 0.0000 0.0000 0.0000 0.0000 20.4348 0.0000
# 6 0.0000 0.0000 0.0000 0.0000 0.0000 33.9553
#
#
#
# Elastic Compliance Matrix: (Units=1/GPa)
#
#
# Indices 1 2 3 4 5 6 
#
# 1 0.013173 -0.001552 -0.002224 0.000000 0.000000 0.000000
# 2 -0.001552 0.013173 -0.002224 0.000000 0.000000 0.000000
# 3 -0.002224 -0.002224 0.008626 0.000000 0.000000 0.000000
# 4 0.000000 0.000000 0.000000 0.048936 0.000000 0.000000
# 5 0.000000 0.000000 0.000000 0.000000 0.048936 0.000000
# 6 0.000000 0.000000 0.000000 0.000000 0.000000 0.029450
#
#
# Mechanical properties :
#
#
# Convention : Reuss Voigt Hill
#
# Bulk Modulus (GPa) = 43.52829 46.44493 44.98661
# Shear Modulus (GPa) = 27.47985 30.23163 28.85574
#
# Velocity S-wave (km/s) = 3.61871 3.79557 3.70819
# Velocity P-wave (km/s) = 6.18083 6.42970 6.30649
#
# Compressibility (1/GPa) = 0.02297356
#
# Stress axis : x y z
#
# Youngs Moduli (GPa) = 75.91098 75.91098 115.93374
#
# Poissons Ratio (x) = 0.11781 0.25780
# Poissons Ratio (y) = 0.11781 0.25780
# Poissons Ratio (z) = 0.16880 0.16880
#
# Static dielectric constant tensor:
#      x y z
#    x 1.788280 0.000000 0.000000 
#    y 0.000000 1.788280 0.000000 
#    z 0.000000 0.000000 1.732900 
# 
# From -- ./inp_files/5845.got.cif
#   From: 2010.05.17/outbox.cif.g08.bks.cpg/sg192_3_cif.got.tgz:5845.got - 2010.05.20 12:28:01.
