data_PCOD9588737
_publ_section_title
;
Structure prediction by ZEFSAII (Michael W. Deem and Ramdas Pophale) SiO2 
 PCOD9588737
Probable space group: P 6/M C C
;
_chemical_formula_sum "Si O2"
_cell_formula_units_Z 104
_cell_length_a 18.812932
_cell_length_b 18.812932
_cell_length_c 15.978682
_cell_angle_alpha 90.000000
_cell_angle_beta 90.000000
_cell_angle_gamma 120.000000
_cell_volume 4897.614036
_symmetry_space_group_name_H-M "P 6/M C C"
_symmetry_group_IT_number 192
_symmetry_cell_setting 'hexagonal'
loop_
_space_group_symop_operation_xyz
x,y,z
x-y,x,z
-y,x-y,z
-x,-y,z
-x+y,-x,z
y,-x+y,z
x-y,-y,1/2-z
-x,-x+y,1/2-z
y,x,1/2-z
-y,-x,1/2-z
-x+y,y,1/2-z
x,x-y,1/2-z
-x,-y,-z
-x+y,-x,-z
y,-x+y,-z
x,y,-z
x-y,x,-z
-y,x-y,-z
-x+y,y,1/2+z
x,x-y,1/2+z
-y,-x,1/2+z
y,x,1/2+z
x-y,-y,1/2+z
-x,-x+y,1/2+z
loop_
_atom_site_type_symbol
_atom_site_label
_atom_site_fract_x
_atom_site_fract_y
_atom_site_fract_z
Si Si1 0.333334 0.666668 0.648903
Si Si2 0.485834 0.294979 0.408813
Si Si3 0.369655 0.263723 0.906606
Si Si4 0.958316 0.140507 0.602008
Si Si5 0.529526 0.625521 0.247039
O O1 0.333334 0.666667 0.750000
O O2 0.426317 0.697179 0.615882
O O3 0.498262 0.336470 0.500000
O O4 0.411366 0.203018 0.417554
O O5 0.454648 0.326793 0.332879
O O6 0.275296 0.210463 0.876700
O O7 0.430309 0.324225 0.836360
O O8 0.370918 0.298926 0.000000
O O9 0.958127 0.138429 0.500000
O O10 0.049479 0.161973 0.629764
O O11 0.569332 0.569332 0.250000
O O12 0.431503 0.568498 0.250000
#
# Coordination Sequence:
#
# PCOD9588737 Si02
#       5
#     8  24  24  24  24
#     4  12  22  38  70 102 136 170 209 278 346 414
#     4  11  23  40  64  94 127 168 219 273 335 408
#     4  10  22  39  64  96 134 174 220 276 341 412
#     4   9  18  34  61  98 138 180 226 279 345 423
#     4  11  25  42  61  89 127 173 223 275 335 403
#
# _framework density 21.234831
#
# number of rings (size 3 to 8) (size 9 to 14) (size 15 to 20)
#    0.000    1.615    0.000    5.077    3.231    4.615 
#    0.000    2.308    0.000    0.000    0.000    0.000 
#    0.000    0.000    0.000    0.000    0.000    0.000 
#
# Total GULP energy -579522.022660 kJ/mol
# GULP energy per Si atom -5572.327141 kJ/mol
# Density = 2.118650 g / cm^3
# Si number density = 21.234831 Si / 1000 Ang^3
#
#
#
# Elastic Constant Matrix: (Units=GPa)
#
#
# Indices 1 2 3 4 5 6 
#
# 1 86.8237 27.9032 49.6833 -0.0003 -0.0001 -0.0001
# 2 27.9032 86.8242 49.6837 -0.0003 -0.0003 0.0002
# 3 49.6833 49.6837 142.0063 -0.0015 0.0002 0.0002
# 4 -0.0003 -0.0003 -0.0015 -42.5576 0.0005 0.0001
# 5 -0.0001 -0.0003 0.0002 0.0005 -42.5654 0.0000
# 6 -0.0001 0.0002 0.0002 0.0001 0.0000 29.4604
#
#
#
# Elastic Compliance Matrix: (Units=1/GPa)
#
#
# Indices 1 2 3 4 5 6 
#
# 1 0.014739 -0.002233 -0.004375 0.000000 0.000000 0.000000
# 2 -0.002233 0.014739 -0.004375 0.000000 0.000000 0.000000
# 3 -0.004375 -0.004375 0.010104 0.000000 0.000000 0.000000
# 4 0.000000 0.000000 0.000000 -0.023498 0.000000 0.000000
# 5 0.000000 0.000000 0.000000 0.000000 -0.023493 0.000000
# 6 0.000000 0.000000 0.000000 0.000000 0.000000 0.033944
#
#
# Mechanical properties :
#
#
# Convention : Reuss Voigt Hill
#
# Bulk Modulus (GPa) = 56.77379 63.35497 60.06438
# Shear Modulus (GPa) = 91.95656 1.42643 46.69150
#
# Velocity S-wave (km/s) = 6.58776 0.82049 4.69424
# Velocity P-wave (km/s) = 9.20103 5.54957 7.59792
#
# Compressibility (1/GPa) = 0.01761376
#
# Stress axis : x y z
#
# Youngs Moduli (GPa) = 67.84731 67.84753 98.97472
#
# Poissons Ratio (x) = 0.15150 0.43306
# Poissons Ratio (y) = 0.15150 0.43306
# Poissons Ratio (z) = 0.29686 0.29686
#
# Static dielectric constant tensor:
#      x y z
#    x 1.865280 0.000000 0.000000 
#    y 0.000000 1.865280 0.000000 
#    z 0.000000 0.000000 1.809940 
# 
# From -- ./inp_files/2896.got.cif
#   From: 2010.05.17/outbox.cif.g08.bks.cpg/sg192_2_cif.got.tgz:2896.got - 2010.05.20 12:28:01.
