data_PCOD9588007
_publ_section_title
;
Structure prediction by ZEFSAII (Michael W. Deem and Ramdas Pophale) SiO2 
 PCOD9588007
Probable space group: P 6/M M M
;
_chemical_formula_sum "Si O2"
_cell_formula_units_Z 108
_cell_length_a 28.608785
_cell_length_b 28.608785
_cell_length_c 9.130361
_cell_angle_alpha 90.000000
_cell_angle_beta 90.000000
_cell_angle_gamma 120.000000
_cell_volume 6471.685571
_symmetry_space_group_name_H-M "P 6/M M M"
_symmetry_group_IT_number 191
_symmetry_cell_setting 'hexagonal'
loop_
_space_group_symop_operation_xyz
x,y,z
x-y,x,z
-y,x-y,z
-x,-y,z
-x+y,-x,z
y,-x+y,z
x-y,-y,-z
-x,-x+y,-z
y,x,-z
-y,-x,-z
-x+y,y,-z
x,x-y,-z
-x,-y,-z
-x+y,-x,-z
y,-x+y,-z
x,y,-z
x-y,x,-z
-y,x-y,-z
-x+y,y,z
x,x-y,z
-y,-x,z
y,x,z
x-y,-y,z
-x,-x+y,z
loop_
_atom_site_type_symbol
_atom_site_label
_atom_site_fract_x
_atom_site_fract_y
_atom_site_fract_z
Si Si1 0.550119 0.830231 0.174402
Si Si2 0.112720 0.773893 0.333030
Si Si3 0.611214 0.499909 0.673722
Si Si4 0.443255 0.443255 0.832090
Si Si5 0.167985 0.939690 0.175407
O O1 0.541671 0.770836 0.204981
O O2 0.608354 0.873349 0.240596
O O3 0.507137 0.842234 0.251464
O O4 0.549842 0.836479 0.000000
O O5 0.097241 0.755072 0.500000
O O6 0.169179 0.830822 0.337270
O O7 0.071773 0.788733 0.255232
O O8 0.618529 0.509084 0.500000
O O9 0.559208 0.440793 0.697723
O O10 0.597224 0.542788 0.747409
O O11 0.500000 0.500000 0.835595
O O12 0.426517 0.426517 0.000000
O O13 0.108251 0.891750 0.216412
O O14 0.181342 0.000000 0.209644
O O15 0.173357 0.935981 0.000000
#
# Coordination Sequence:
#
# PCOD9588007 Si02
#       5
#    24  24  24  12  24
#     4  10  20  34  53  76 102 133 169 208 250 298
#     4   9  17  30  48  69  94 123 156 198 246 294
#     4  10  20  34  53  77 105 136 170 209 252 298
#     4   9  17  31  51  73  99 131 165 203 247 295
#     4   9  17  30  48  69  95 128 165 204 247 297
#
# _framework density 16.688078999999998
#
# number of rings (size 3 to 8) (size 9 to 14) (size 15 to 20)
#    0.000    2.556    0.000    2.333    0.000    7.111 
#    2.000    0.000    0.000    0.667    0.000    1.556 
#    0.000    0.000    0.000    5.556    0.000    5.778 
#
# Total GULP energy -602061.675248 kJ/mol
# GULP energy per Si atom -5574.645141 kJ/mol
# Density = 1.665010 g / cm^3
# Si number density = 16.688079 Si / 1000 Ang^3
#
#
#
# Elastic Constant Matrix: (Units=GPa)
#
#
# Indices 1 2 3 4 5 6 
#
# 1 84.1863 45.8235 59.7323 0.0000 0.0000 0.0000
# 2 45.8235 84.1863 59.7323 0.0000 0.0000 0.0000
# 3 59.7323 59.7323 98.0546 0.0000 0.0000 0.0000
# 4 0.0000 0.0000 0.0000 23.6787 0.0000 0.0000
# 5 0.0000 0.0000 0.0000 0.0000 23.6787 0.0000
# 6 0.0000 0.0000 0.0000 0.0000 0.0000 19.1814
#
#
#
# Elastic Compliance Matrix: (Units=1/GPa)
#
#
# Indices 1 2 3 4 5 6 
#
# 1 0.021769 -0.004298 -0.010643 0.000000 0.000000 0.000000
# 2 -0.004298 0.021769 -0.010643 0.000000 0.000000 0.000000
# 3 -0.010643 -0.010643 0.023166 0.000000 0.000000 0.000000
# 4 0.000000 0.000000 0.000000 0.042232 0.000000 0.000000
# 5 0.000000 0.000000 0.000000 0.000000 0.042232 0.000000
# 6 0.000000 0.000000 0.000000 0.000000 0.000000 0.052134
#
#
# Mechanical properties :
#
#
# Convention : Reuss Voigt Hill
#
# Bulk Modulus (GPa) = 64.36723 66.33375 65.35049
# Shear Modulus (GPa) = 19.25671 20.05035 19.65353
#
# Velocity S-wave (km/s) = 3.40063 3.46999 3.43548
# Velocity P-wave (km/s) = 7.35347 7.47596 7.41497
#
# Compressibility (1/GPa) = 0.01553585
#
# Stress axis : x y z
#
# Youngs Moduli (GPa) = 45.93613 45.93613 43.16718
#
# Poissons Ratio (x) = 0.19741 0.45944
# Poissons Ratio (y) = 0.19741 0.45944
# Poissons Ratio (z) = 0.48892 0.48892
#
# Static dielectric constant tensor:
#      x y z
#    x 1.561950 0.000000 0.000000 
#    y 0.000000 1.561950 0.000000 
#    z 0.000000 0.000000 1.560750 
# 
# From -- ./inp_files/1666.got.cif
#   From: 2010.05.17/outbox.cif.g08.bks.cpg/sg191_1_cif.got.tgz:1666.got - 2010.05.20 12:20:32.
