data_PCOD9588631
_publ_section_title
;
Structure prediction by ZEFSAII (Michael W. Deem and Ramdas Pophale) SiO2 
 PCOD9588631
Probable space group: P 6/M C C
;
_chemical_formula_sum "Si O2"
_cell_formula_units_Z 108
_cell_length_a 17.230442
_cell_length_b 17.230442
_cell_length_c 21.673345
_cell_angle_alpha 90.000000
_cell_angle_beta 90.000000
_cell_angle_gamma 120.000000
_cell_volume 5572.491470
_symmetry_space_group_name_H-M "P 6/M C C"
_symmetry_group_IT_number 192
_symmetry_cell_setting 'hexagonal'
loop_
_space_group_symop_operation_xyz
x,y,z
x-y,x,z
-y,x-y,z
-x,-y,z
-x+y,-x,z
y,-x+y,z
x-y,-y,1/2-z
-x,-x+y,1/2-z
y,x,1/2-z
-y,-x,1/2-z
-x+y,y,1/2-z
x,x-y,1/2-z
-x,-y,-z
-x+y,-x,-z
y,-x+y,-z
x,y,-z
x-y,x,-z
-y,x-y,-z
-x+y,y,1/2+z
x,x-y,1/2+z
-y,-x,1/2+z
y,x,1/2+z
x-y,-y,1/2+z
-x,-x+y,1/2+z
loop_
_atom_site_type_symbol
_atom_site_label
_atom_site_fract_x
_atom_site_fract_y
_atom_site_fract_z
Si Si1 0.185466 0.018173 0.324452
Si Si2 0.798518 0.516487 0.317071
Si Si3 0.214722 0.606626 0.000000
Si Si4 0.467208 0.613841 0.870316
Si Si5 0.352155 0.348561 0.676440
O O1 0.176689 0.101822 0.346580
O O2 0.174365 0.000000 0.250000
O O3 0.284406 0.036332 0.338445
O O4 0.763543 0.527086 0.250000
O O5 0.717132 0.494761 0.361934
O O6 0.824857 0.439041 0.322082
O O7 0.891146 0.601924 0.336754
O O8 0.286521 0.570761 0.000000
O O9 0.156448 0.573025 0.061709
O O10 0.555330 0.607793 0.855620
O O11 0.364781 0.364781 0.750000
#
# Coordination Sequence:
#
# PCOD9588631 Si02
#       5
#    24  24  12  24  24
#     4   9  17  30  51  77 114 158 197 234 287 364
#     4  12  23  37  60  86 121 159 201 256 309 381
#     4  10  20  44  65  87 113 160 219 271 302 366
#     4  12  23  41  62  88 118 162 215 259 310 379
#     4  11  23  36  53  88 128 157 193 257 325 371
#
# _framework density 19.380918000000001
#
# number of rings (size 3 to 8) (size 9 to 14) (size 15 to 20)
#    0.222    0.889    4.444    3.333    3.111    1.778 
#    0.000    3.333    0.000    0.000    0.000    0.000 
#    0.000    0.000    0.000    4.889    0.000    1.111 
#
# Total GULP energy -602586.801609 kJ/mol
# GULP energy per Si atom -5579.507422 kJ/mol
# Density = 1.933681 g / cm^3
# Si number density = 19.380918 Si / 1000 Ang^3
#
#
#
# Elastic Constant Matrix: (Units=GPa)
#
#
# Indices 1 2 3 4 5 6 
#
# 1 96.9789 18.5452 16.9954 0.0000 0.0000 0.0000
# 2 18.5452 96.9789 16.9954 0.0000 0.0000 0.0000
# 3 16.9954 16.9954 58.4800 0.0000 0.0000 0.0000
# 4 0.0000 0.0000 0.0000 13.0038 0.0000 0.0000
# 5 0.0000 0.0000 0.0000 0.0000 13.0038 0.0000
# 6 0.0000 0.0000 0.0000 0.0000 0.0000 39.2168
#
#
#
# Elastic Compliance Matrix: (Units=1/GPa)
#
#
# Indices 1 2 3 4 5 6 
#
# 1 0.011108 -0.001642 -0.002751 0.000000 0.000000 0.000000
# 2 -0.001642 0.011108 -0.002751 0.000000 0.000000 0.000000
# 3 -0.002751 -0.002751 0.018699 0.000000 0.000000 0.000000
# 4 0.000000 0.000000 0.000000 0.076901 0.000000 0.000000
# 5 0.000000 0.000000 0.000000 0.000000 0.076901 0.000000
# 6 0.000000 0.000000 0.000000 0.000000 0.000000 0.025499
#
#
# Mechanical properties :
#
#
# Convention : Reuss Voigt Hill
#
# Bulk Modulus (GPa) = 37.55666 39.72332 38.63999
# Shear Modulus (GPa) = 20.54423 26.37168 23.45795
#
# Velocity S-wave (km/s) = 3.25933 3.69277 3.48280
# Velocity P-wave (km/s) = 5.79522 6.22276 6.01279
#
# Compressibility (1/GPa) = 0.02662644
#
# Stress axis : x y z
#
# Youngs Moduli (GPa) = 90.02834 90.02834 53.47947
#
# Poissons Ratio (x) = 0.14783 0.14712
# Poissons Ratio (y) = 0.14783 0.14712
# Poissons Ratio (z) = 0.24766 0.24766
#
# Static dielectric constant tensor:
#      x y z
#    x 1.724810 0.000000 0.000000 
#    y 0.000000 1.724810 0.000000 
#    z 0.000000 0.000000 1.671990 
# 
# From -- ./inp_files/5686.got.cif
#   From: 2010.05.17/outbox.cif.g08.bks.cpg/sg192_3_cif.got.tgz:5686.got - 2010.05.20 12:28:01.
