data_PCOD9588441
_publ_section_title
;
Structure prediction by ZEFSAII (Michael W. Deem and Ramdas Pophale) SiO2 
 PCOD9588441
Probable space group: P 6/M C C
;
_chemical_formula_sum "Si O2"
_cell_formula_units_Z 96
_cell_length_a 13.775668
_cell_length_b 13.775668
_cell_length_c 30.825063
_cell_angle_alpha 90.000000
_cell_angle_beta 90.000000
_cell_angle_gamma 120.000000
_cell_volume 5065.938809
_symmetry_space_group_name_H-M "P 6/M C C"
_symmetry_group_IT_number 192
_symmetry_cell_setting 'hexagonal'
loop_
_space_group_symop_operation_xyz
x,y,z
x-y,x,z
-y,x-y,z
-x,-y,z
-x+y,-x,z
y,-x+y,z
x-y,-y,1/2-z
-x,-x+y,1/2-z
y,x,1/2-z
-y,-x,1/2-z
-x+y,y,1/2-z
x,x-y,1/2-z
-x,-y,-z
-x+y,-x,-z
y,-x+y,-z
x,y,-z
x-y,x,-z
-y,x-y,-z
-x+y,y,1/2+z
x,x-y,1/2+z
-y,-x,1/2+z
y,x,1/2+z
x-y,-y,1/2+z
-x,-x+y,1/2+z
loop_
_atom_site_type_symbol
_atom_site_label
_atom_site_fract_x
_atom_site_fract_y
_atom_site_fract_z
Si Si1 0.000000 0.769706 0.250000
Si Si2 0.746591 0.582658 0.918851
Si Si3 0.187478 0.257867 0.000000
Si Si4 0.252129 0.041011 0.844263
Si Si5 0.396755 0.873757 0.050529
O O1 0.892215 0.784430 0.250000
O O2 0.980019 0.710299 0.296536
O O3 0.733633 0.642792 0.876778
O O4 0.853305 0.564047 0.922114
O O5 0.645969 0.458428 0.928878
O O6 0.759698 0.664009 0.958447
O O7 0.212262 0.156832 0.000000
O O8 0.217704 0.138308 0.850048
O O9 0.500000 0.000000 0.050427
O O10 0.362119 0.841838 0.000000
#
# Coordination Sequence:
#
# PCOD9588441 Si02
#       5
#    12  24  12  24  24
#     4   8  15  28  50  80 115 148 180 220 273 348
#     4  12  23  36  56  78 109 153 202 252 297 345
#     4  12  23  36  52  78 116 158 193 230 290 368
#     4  10  19  33  54  86 121 152 187 231 293 370
#     4  11  21  36  53  72 102 148 201 251 292 333
#
# _framework density 18.950091
#
# number of rings (size 3 to 8) (size 9 to 14) (size 15 to 20)
#    0.000    1.250    2.500    5.500    0.000    2.000 
#    0.000    2.500    0.000    0.000    0.000   37.625 
#    0.000    0.000    0.000    0.000    0.000    0.000 
#
# Total GULP energy -534635.349380 kJ/mol
# GULP energy per Si atom -5569.118223 kJ/mol
# Density = 1.890696 g / cm^3
# Si number density = 18.950091 Si / 1000 Ang^3
#
#
#
# Elastic Constant Matrix: (Units=GPa)
#
#
# Indices 1 2 3 4 5 6 
#
# 1 83.3325 15.0783 40.6008 0.0000 0.0000 0.0000
# 2 15.0783 83.3325 40.6008 0.0000 0.0000 0.0000
# 3 40.6008 40.6008 142.6753 0.0000 0.0000 0.0000
# 4 0.0000 0.0000 0.0000 17.2723 0.0000 0.0000
# 5 0.0000 0.0000 0.0000 0.0000 17.2723 0.0000
# 6 0.0000 0.0000 0.0000 0.0000 0.0000 34.1271
#
#
#
# Elastic Compliance Matrix: (Units=1/GPa)
#
#
# Indices 1 2 3 4 5 6 
#
# 1 0.013965 -0.000686 -0.003779 0.000000 0.000000 0.000000
# 2 -0.000686 0.013965 -0.003779 0.000000 0.000000 0.000000
# 3 -0.003779 -0.003779 0.009160 0.000000 0.000000 0.000000
# 4 0.000000 0.000000 0.000000 0.057896 0.000000 0.000000
# 5 0.000000 0.000000 0.000000 0.000000 0.057896 0.000000
# 6 0.000000 0.000000 0.000000 0.000000 0.000000 0.029302
#
#
# Mechanical properties :
#
#
# Convention : Reuss Voigt Hill
#
# Bulk Modulus (GPa) = 48.53644 55.76668 52.15156
# Shear Modulus (GPa) = 24.32619 27.93837 26.13228
#
# Velocity S-wave (km/s) = 3.58676 3.84384 3.71753
# Velocity P-wave (km/s) = 6.54381 7.01372 6.78284
#
# Compressibility (1/GPa) = 0.02060308
#
# Stress axis : x y z
#
# Youngs Moduli (GPa) = 71.60573 71.60573 109.17431
#
# Poissons Ratio (x) = 0.04910 0.41256
# Poissons Ratio (y) = 0.04910 0.41256
# Poissons Ratio (z) = 0.27059 0.27059
#
# Static dielectric constant tensor:
#      x y z
#    x 1.735680 0.000000 0.000000 
#    y 0.000000 1.735680 0.000000 
#    z 0.000000 0.000000 1.734200 
# 
# From -- ./inp_files/6831.got.cif
#   From: 2010.05.17/outbox.cif.g08.bks.cpg/sg192_4_cif.got.tgz:6831.got - 2010.05.20 12:28:01.
