data_PCOD9588076
_publ_section_title
;
Structure prediction by ZEFSAII (Michael W. Deem and Ramdas Pophale) SiO2 
 PCOD9588076
Probable space group: P 6/M M M
;
_chemical_formula_sum "Si O2"
_cell_formula_units_Z 66
_cell_length_a 23.539543
_cell_length_b 23.539543
_cell_length_c 7.223744
_cell_angle_alpha 90.000000
_cell_angle_beta 90.000000
_cell_angle_gamma 120.000000
_cell_volume 3466.482665
_symmetry_space_group_name_H-M "P 6/M M M"
_symmetry_group_IT_number 191
_symmetry_cell_setting 'hexagonal'
loop_
_space_group_symop_operation_xyz
x,y,z
x-y,x,z
-y,x-y,z
-x,-y,z
-x+y,-x,z
y,-x+y,z
x-y,-y,-z
-x,-x+y,-z
y,x,-z
-y,-x,-z
-x+y,y,-z
x,x-y,-z
-x,-y,-z
-x+y,-x,-z
y,-x+y,-z
x,y,-z
x-y,x,-z
-y,x-y,-z
-x+y,y,z
x,x-y,z
-y,-x,z
y,x,z
x-y,-y,z
-x,-x+y,z
loop_
_atom_site_type_symbol
_atom_site_label
_atom_site_fract_x
_atom_site_fract_y
_atom_site_fract_z
Si Si1 0.863770 0.000000 0.000000
Si Si2 0.760685 0.760685 0.277244
Si Si3 0.254151 0.875158 0.725007
Si Si4 0.076620 0.475844 0.724776
O O1 0.869231 0.934616 0.000000
O O2 0.820715 0.000000 0.174576
O O3 0.767913 0.767913 0.500000
O O4 0.755648 0.691800 0.224886
O O5 0.254997 0.874859 0.500000
O O6 0.192689 0.807312 0.786178
O O7 0.324365 0.886418 0.786926
O O8 0.078301 0.476565 0.500000
O O9 0.100249 0.550125 0.784200
O O10 0.000000 0.432336 0.776065
#
# Coordination Sequence:
#
# PCOD9588076 Si02
#       4
#     6  12  24  24
#     4  12  27  44  60  78 103 138 176 210 252 312
#     4  10  20  37  58  81 106 132 167 217 271 313
#     4   9  15  24  42  68  96 125 162 210 258 306
#     4   8  12  19  33  56  87 120 157 199 239 288
#
# _framework density 19.039472
#
# number of rings (size 3 to 8) (size 9 to 14) (size 15 to 20)
#    0.000    2.909    1.818    2.273    0.000    2.182 
#    0.000    0.000    0.000    1.818    0.000    7.636 
#    0.000    0.000    0.000    0.000    0.000    0.364 
#
# Total GULP energy -368390.281204 kJ/mol
# GULP energy per Si atom -5581.670927 kJ/mol
# Density = 1.899614 g / cm^3
# Si number density = 19.039472 Si / 1000 Ang^3
#
#
#
# Elastic Constant Matrix: (Units=GPa)
#
#
# Indices 1 2 3 4 5 6 
#
# 1 194.1779 128.5532 23.8349 0.0000 0.0000 0.0000
# 2 128.5532 194.1779 23.8349 0.0000 0.0000 0.0000
# 3 23.8349 23.8349 96.0350 0.0000 0.0000 0.0000
# 4 0.0000 0.0000 0.0000 -107.3940 0.0000 0.0000
# 5 0.0000 0.0000 0.0000 0.0000 -107.3940 0.0000
# 6 0.0000 0.0000 0.0000 0.0000 0.0000 32.8124
#
#
#
# Elastic Compliance Matrix: (Units=1/GPa)
#
#
# Indices 1 2 3 4 5 6 
#
# 1 0.009227 -0.006011 -0.000798 0.000000 0.000000 0.000000
# 2 -0.006011 0.009227 -0.000798 0.000000 0.000000 0.000000
# 3 -0.000798 -0.000798 0.010809 0.000000 0.000000 0.000000
# 4 0.000000 0.000000 0.000000 -0.009312 0.000000 0.000000
# 5 0.000000 0.000000 0.000000 0.000000 -0.009312 0.000000
# 6 0.000000 0.000000 0.000000 0.000000 0.000000 0.030476
#
#
# Mechanical properties :
#
#
# Convention : Reuss Voigt Hill
#
# Bulk Modulus (GPa) = 71.18000 92.98187 82.08093
# Shear Modulus (GPa) = 81.94726 -15.85060 33.04833
#
# Velocity S-wave (km/s) = 6.56766 -2.88846 4.17079
# Velocity P-wave (km/s) = 9.74571 6.14964 8.14853
#
# Compressibility (1/GPa) = 0.01404889
#
# Stress axis : x y z
#
# Youngs Moduli (GPa) = 108.37396 108.37396 92.51436
#
# Poissons Ratio (x) = 0.65142 0.07385
# Poissons Ratio (y) = 0.65142 0.07385
# Poissons Ratio (z) = 0.08651 0.08651
#
# Static dielectric constant tensor:
#      x y z
#    x 1.631450 0.000000 0.000000 
#    y 0.000000 1.631450 0.000000 
#    z 0.000000 0.000000 1.735890 
# 
# From -- ./inp_files/700.got.cif
#   From: 2010.05.17/outbox.cif.g08.bks.cpg/sg191_1_cif.got.tgz:700.got - 2010.05.20 12:20:32.
