data_PCOD9588133
_publ_section_title
;
Structure prediction by ZEFSAII (Michael W. Deem and Ramdas Pophale) SiO2 
 PCOD9588133
Probable space group: P 6/M M M
;
_chemical_formula_sum "Si O2"
_cell_formula_units_Z 144
_cell_length_a 33.157655
_cell_length_b 33.157655
_cell_length_c 8.995078
_cell_angle_alpha 90.000000
_cell_angle_beta 90.000000
_cell_angle_gamma 120.000000
_cell_volume 8564.523045
_symmetry_space_group_name_H-M "P 6/M M M"
_symmetry_group_IT_number 191
_symmetry_cell_setting 'hexagonal'
loop_
_space_group_symop_operation_xyz
x,y,z
x-y,x,z
-y,x-y,z
-x,-y,z
-x+y,-x,z
y,-x+y,z
x-y,-y,-z
-x,-x+y,-z
y,x,-z
-y,-x,-z
-x+y,y,-z
x,x-y,-z
-x,-y,-z
-x+y,-x,-z
y,-x+y,-z
x,y,-z
x-y,x,-z
-y,x-y,-z
-x+y,y,z
x,x-y,z
-y,-x,z
y,x,z
x-y,-y,z
-x,-x+y,z
loop_
_atom_site_type_symbol
_atom_site_label
_atom_site_fract_x
_atom_site_fract_y
_atom_site_fract_z
Si Si1 0.143426 0.195849 0.820714
Si Si2 0.857959 0.380462 0.671103
Si Si3 0.897813 0.194125 0.321395
Si Si4 0.946343 0.299166 0.674894
Si Si5 0.386080 0.947228 0.177579
Si Si6 0.332916 0.760653 0.179068
O O1 0.091253 0.182506 0.776193
O O2 0.160085 0.160085 0.773533
O O3 0.177309 0.246651 0.753731
O O4 0.145985 0.199173 0.000000
O O5 0.857994 0.366909 0.500000
O O6 0.858298 0.429149 0.674327
O O7 0.904634 0.388759 0.750737
O O8 0.809570 0.343865 0.749742
O O9 0.903535 0.194312 0.500000
O O10 0.844978 0.155023 0.285248
O O11 0.912683 0.246332 0.277256
O O12 0.938187 0.304416 0.500000
O O13 0.941816 0.337214 0.769715
O O14 0.000000 0.311712 0.687107
O O15 0.425327 0.000000 0.223694
O O16 0.387812 0.944823 0.000000
O O17 0.376454 0.752907 0.217159
O O18 0.284116 0.715885 0.224593
O O19 0.332686 0.764532 0.000000
#
# Coordination Sequence:
#
# PCOD9588133 Si02
#       6
#    24  24  24  24  24  24
#     4   9  17  28  42  61  86 116 149 187 232 280
#     4  10  21  36  54  77 105 136 169 206 249 296
#     4   9  17  29  46  69  95 121 151 187 227 274
#     4   9  17  30  48  68  92 123 156 191 234 284
#     4  10  21  36  54  75  97 125 165 210 253 297
#     4   9  17  31  53  80 109 140 173 208 246 289
#
# _framework density 16.813545000000001
#
# number of rings (size 3 to 8) (size 9 to 14) (size 15 to 20)
#    0.000    2.667    0.000    1.667    0.000    5.000 
#    0.000    4.167    0.000    4.167    0.000    1.167 
#    0.000    0.000    0.000    4.167    0.000    4.333 
#
# Total GULP energy -802598.504489 kJ/mol
# GULP energy per Si atom -5573.600726 kJ/mol
# Density = 1.677528 g / cm^3
# Si number density = 16.813545 Si / 1000 Ang^3
#
#
#
# Elastic Constant Matrix: (Units=GPa)
#
#
# Indices 1 2 3 4 5 6 
#
# 1 92.2764 49.6191 37.3490 0.0000 0.0000 0.0000
# 2 49.6191 92.2764 37.3490 0.0000 0.0000 0.0000
# 3 37.3490 37.3490 38.8266 0.0000 0.0000 0.0000
# 4 0.0000 0.0000 0.0000 23.3584 0.0000 0.0000
# 5 0.0000 0.0000 0.0000 0.0000 23.3584 0.0000
# 6 0.0000 0.0000 0.0000 0.0000 0.0000 21.3286
#
#
#
# Elastic Compliance Matrix: (Units=1/GPa)
#
#
# Indices 1 2 3 4 5 6 
#
# 1 0.018860 -0.004583 -0.013734 0.000000 0.000000 0.000000
# 2 -0.004583 0.018860 -0.013734 0.000000 0.000000 0.000000
# 3 -0.013734 -0.013734 0.052179 0.000000 0.000000 0.000000
# 4 0.000000 0.000000 0.000000 0.042811 0.000000 0.000000
# 5 0.000000 0.000000 0.000000 0.000000 0.042811 0.000000
# 6 0.000000 0.000000 0.000000 0.000000 0.000000 0.046885
#
#
# Mechanical properties :
#
#
# Convention : Reuss Voigt Hill
#
# Bulk Modulus (GPa) = 38.76433 52.44595 45.60514
# Shear Modulus (GPa) = 16.94300 20.21325 18.57813
#
# Velocity S-wave (km/s) = 3.17787 3.47104 3.32768
# Velocity P-wave (km/s) = 6.04737 6.87928 6.47670
#
# Compressibility (1/GPa) = 0.02579691
#
# Stress axis : x y z
#
# Youngs Moduli (GPa) = 53.02203 53.02203 19.16496
#
# Poissons Ratio (x) = 0.24298 0.26321
# Poissons Ratio (y) = 0.24298 0.26321
# Poissons Ratio (z) = 0.72821 0.72821
#
# Static dielectric constant tensor:
#      x y z
#    x 1.559520 0.000000 0.000000 
#    y 0.000000 1.559520 0.000000 
#    z 0.000000 0.000000 1.568120 
# 
# From -- ./inp_files/1957.got.cif
#   From: 2010.05.17/outbox.cif.g08.bks.cpg/sg191_1_cif.got.tgz:1957.got - 2010.05.20 12:20:32.
