data_PCOD9588974
_publ_section_title
;
Structure prediction by ZEFSAII (Michael W. Deem and Ramdas Pophale) SiO2 
 PCOD9588974
Probable space group: P 63/M C M
;
_chemical_formula_sum "Si O2"
_cell_formula_units_Z 136
_cell_length_a 19.208804
_cell_length_b 19.208804
_cell_length_c 23.400557
_cell_angle_alpha 90.000000
_cell_angle_beta 90.000000
_cell_angle_gamma 120.000000
_cell_volume 7477.518170
_symmetry_space_group_name_H-M "P 63/M C M"
_symmetry_group_IT_number 193
_symmetry_cell_setting 'hexagonal'
loop_
_space_group_symop_operation_xyz
x,y,z
x-y,x,1/2+z
-y,x-y,z
-x,-y,1/2+z
-x+y,-x,z
y,-x+y,1/2+z
x-y,-y,1/2-z
-x,-x+y,1/2-z
y,x,1/2-z
-y,-x,-z
-x+y,y,-z
x,x-y,-z
-x,-y,-z
-x+y,-x,1/2-z
y,-x+y,-z
x,y,1/2-z
x-y,x,-z
-y,x-y,1/2-z
-x+y,y,1/2+z
x,x-y,1/2+z
-y,-x,1/2+z
y,x,z
x-y,-y,z
-x,-x+y,z
loop_
_atom_site_type_symbol
_atom_site_label
_atom_site_fract_x
_atom_site_fract_y
_atom_site_fract_z
Si Si1 0.161222 0.161222 0.319510
Si Si2 0.166003 0.499695 0.495152
Si Si3 0.173860 0.264371 0.819346
Si Si4 0.092536 0.611198 0.872626
Si Si5 0.000000 0.000000 0.680996
Si Si6 0.235478 0.442873 0.682640
Si Si7 0.090585 0.444053 0.615112
O O1 0.165208 0.165208 0.250000
O O2 0.233441 0.149789 0.339813
O O3 0.079986 0.079986 0.335756
O O4 0.249863 0.499725 0.500000
O O5 0.182253 0.591127 0.500000
O O6 0.118722 0.467681 0.435561
O O7 0.110853 0.448425 0.547993
O O8 0.170854 0.257448 0.750000
O O9 0.209997 0.209997 0.840443
O O10 0.226079 0.356687 0.832905
O O11 0.168820 0.671448 0.833720
O O12 0.090246 0.526438 0.873045
O O13 0.000000 0.587174 0.857865
O O14 0.000000 0.000000 0.750000
O O15 0.222984 0.446391 0.750000
O O16 0.165114 0.447727 0.649370
O O17 0.000000 0.372030 0.628514
#
# Coordination Sequence:
#
# PCOD9588974 Si02
#       7
#    12  24  24  24   4  24  24
#     4   9  14  22  38  62  90 125 167 219 267 299
#     4  10  18  34  61  91 114 138 178 237 301 352
#     4   9  17  28  43  65  95 134 180 223 257 299
#     4  10  21  39  62  84 111 148 189 236 290 346
#     4   9  12  18  36  60  90 117 162 217 272 307
#     4  11  23  37  54  79 111 153 194 229 271 327
#     4  10  22  39  59  85 115 146 185 235 294 351
#
# _framework density 18.187853
#
# number of rings (size 3 to 8) (size 9 to 14) (size 15 to 20)
#    0.000    2.118    2.647    1.235    1.235    4.235 
#    1.059    1.765    0.000    0.000    0.000    0.000 
#    0.000    0.000    0.000    0.000    0.000   12.706 
#
# Total GULP energy -757131.220278 kJ/mol
# GULP energy per Si atom -5567.141326 kJ/mol
# Density = 1.814646 g / cm^3
# Si number density = 18.187853 Si / 1000 Ang^3
#
#
#
# Elastic Constant Matrix: (Units=GPa)
#
#
# Indices 1 2 3 4 5 6 
#
# 1 60.5425 21.3177 18.3169 0.0000 0.0000 0.0000
# 2 21.3177 60.5425 18.3169 0.0000 0.0000 0.0000
# 3 18.3169 18.3169 54.2907 0.0000 0.0000 0.0000
# 4 0.0000 0.0000 0.0000 15.4736 0.0000 0.0000
# 5 0.0000 0.0000 0.0000 0.0000 15.4736 0.0000
# 6 0.0000 0.0000 0.0000 0.0000 0.0000 19.6124
#
#
#
# Elastic Compliance Matrix: (Units=1/GPa)
#
#
# Indices 1 2 3 4 5 6 
#
# 1 0.019941 -0.005553 -0.004854 0.000000 0.000000 0.000000
# 2 -0.005553 0.019941 -0.004854 0.000000 0.000000 0.000000
# 3 -0.004854 -0.004854 0.021695 0.000000 0.000000 0.000000
# 4 0.000000 0.000000 0.000000 0.064626 0.000000 0.000000
# 5 0.000000 0.000000 0.000000 0.000000 0.064626 0.000000
# 6 0.000000 0.000000 0.000000 0.000000 0.000000 0.050988
#
#
# Mechanical properties :
#
#
# Convention : Reuss Voigt Hill
#
# Bulk Modulus (GPa) = 32.20197 32.36433 32.28315
# Shear Modulus (GPa) = 17.68703 17.94019 17.81361
#
# Velocity S-wave (km/s) = 3.12182 3.14408 3.13297
# Velocity P-wave (km/s) = 5.54418 5.56897 5.55659
#
# Compressibility (1/GPa) = 0.03105400
#
# Stress axis : x y z
#
# Youngs Moduli (GPa) = 50.14738 50.14738 46.09356
#
# Poissons Ratio (x) = 0.27846 0.22376
# Poissons Ratio (y) = 0.27846 0.22376
# Poissons Ratio (z) = 0.24344 0.24344
#
# Static dielectric constant tensor:
#      x y z
#    x 1.659040 0.000000 0.000000 
#    y 0.000000 1.659040 0.000000 
#    z 0.000000 0.000000 1.613040 
# 
# From -- ./inp_files/8362.got.cif
#   From: 2010.05.17/outbox.cif.g08.bks.cpg/sg193_5_cif.got.tgz:8362.got - 2010.05.20 12:33:02.
