data_PCOD9588448
_publ_section_title
;
Structure prediction by ZEFSAII (Michael W. Deem and Ramdas Pophale) SiO2 
 PCOD9588448
Probable space group: P 6/M C C
;
_chemical_formula_sum "Si O2"
_cell_formula_units_Z 126
_cell_length_a 32.648222
_cell_length_b 32.648222
_cell_length_c 9.403945
_cell_angle_alpha 90.000000
_cell_angle_beta 90.000000
_cell_angle_gamma 120.000000
_cell_volume 8680.800628
_symmetry_space_group_name_H-M "P 6/M C C"
_symmetry_group_IT_number 192
_symmetry_cell_setting 'hexagonal'
loop_
_space_group_symop_operation_xyz
x,y,z
x-y,x,z
-y,x-y,z
-x,-y,z
-x+y,-x,z
y,-x+y,z
x-y,-y,1/2-z
-x,-x+y,1/2-z
y,x,1/2-z
-y,-x,1/2-z
-x+y,y,1/2-z
x,x-y,1/2-z
-x,-y,-z
-x+y,-x,-z
y,-x+y,-z
x,y,-z
x-y,x,-z
-y,x-y,-z
-x+y,y,1/2+z
x,x-y,1/2+z
-y,-x,1/2+z
y,x,1/2+z
x-y,-y,1/2+z
-x,-x+y,1/2+z
loop_
_atom_site_type_symbol
_atom_site_label
_atom_site_fract_x
_atom_site_fract_y
_atom_site_fract_z
Si Si1 0.608873 0.761615 0.668141
Si Si2 0.500000 0.000000 0.250000
Si Si3 0.789458 0.293464 0.832951
Si Si4 0.363779 0.047059 0.170879
Si Si5 0.615929 0.461185 0.339362
Si Si6 0.393196 0.943832 0.846004
O O1 0.620232 0.810116 0.750000
O O2 0.618359 0.772534 0.500000
O O3 0.552306 0.726055 0.683113
O O4 0.632833 0.730070 0.711904
O O5 0.549813 0.032100 0.169175
O O6 0.743742 0.256259 0.750000
O O7 0.806772 0.342618 0.755568
O O8 0.782018 0.295733 0.000000
O O9 0.412438 0.048873 0.222596
O O10 0.323509 0.000000 0.250000
O O11 0.359729 0.043518 0.000000
O O12 0.568862 0.431139 0.250000
O O13 0.612754 0.443345 0.500000
O O14 0.625412 0.514004 0.349076
O O15 0.383174 0.958546 0.000000
#
# Coordination Sequence:
#
# PCOD9588448 Si02
#       6
#    24   6  24  24  24  24
#     4   9  19  33  51  73  96 122 154 194 234 275
#     4  12  22  36  48  66  90 128 166 192 226 264
#     4  10  19  34  53  74  94 116 143 182 224 270
#     4  11  22  35  50  71  98 127 159 195 236 281
#     4  11  22  35  50  71  94 120 150 185 224 270
#     4  11  23  34  47  66  91 123 159 193 227 269
#
# _framework density 14.51479
#
# number of rings (size 3 to 8) (size 9 to 14) (size 15 to 20)
#    0.000    1.524    3.810    2.000    0.000    3.810 
#    0.000    0.000    0.000    0.381    0.000    2.667 
#    0.000    0.000    0.000    0.000    0.000    0.000 
#
# Total GULP energy -701525.592692 kJ/mol
# GULP energy per Si atom -5567.663434 kJ/mol
# Density = 1.448175 g / cm^3
# Si number density = 14.514790 Si / 1000 Ang^3
#
#
#
# Elastic Constant Matrix: (Units=GPa)
#
#
# Indices 1 2 3 4 5 6 
#
# 1 57.9550 9.1001 32.8001 0.0000 0.0000 0.0000
# 2 9.1001 57.9550 32.8001 0.0000 0.0000 0.0000
# 3 32.8001 32.8001 103.9703 0.0000 0.0000 0.0000
# 4 0.0000 0.0000 0.0000 14.1048 0.0000 0.0000
# 5 0.0000 0.0000 0.0000 0.0000 14.1048 0.0000
# 6 0.0000 0.0000 0.0000 0.0000 0.0000 24.4275
#
#
#
# Elastic Compliance Matrix: (Units=1/GPa)
#
#
# Indices 1 2 3 4 5 6 
#
# 1 0.021020 0.000551 -0.006805 0.000000 0.000000 0.000000
# 2 0.000551 0.021020 -0.006805 0.000000 0.000000 0.000000
# 3 -0.006805 -0.006805 0.013912 0.000000 0.000000 0.000000
# 4 0.000000 0.000000 0.000000 0.070898 0.000000 0.000000
# 5 0.000000 0.000000 0.000000 0.000000 0.070898 0.000000
# 6 0.000000 0.000000 0.000000 0.000000 0.000000 0.040938
#
#
# Mechanical properties :
#
#
# Convention : Reuss Voigt Hill
#
# Bulk Modulus (GPa) = 33.52017 41.03121 37.27569
# Shear Modulus (GPa) = 18.19861 20.20609 19.20235
#
# Velocity S-wave (km/s) = 3.54474 3.73514 3.64118
# Velocity P-wave (km/s) = 6.31645 6.85066 6.58897
#
# Compressibility (1/GPa) = 0.02983278
#
# Stress axis : x y z
#
# Youngs Moduli (GPa) = 47.57468 47.57468 71.88187
#
# Poissons Ratio (x) = -0.02621 0.48915
# Poissons Ratio (y) = -0.02621 0.48915
# Poissons Ratio (z) = 0.32374 0.32374
#
# Static dielectric constant tensor:
#      x y z
#    x 1.387260 0.000000 0.000000 
#    y 0.000000 1.387260 0.000000 
#    z 0.000000 0.000000 1.515740 
# 
# From -- ./inp_files/1101.got.cif
#   From: 2010.05.17/outbox.cif.g08.bks.cpg/sg192_1_cif.got.tgz:1101.got - 2010.05.20 12:28:01.
