data_PCOD9588337
_publ_section_title
;
Structure prediction by ZEFSAII (Michael W. Deem and Ramdas Pophale) SiO2 
 PCOD9588337
Probable space group: P 6/M C C
;
_chemical_formula_sum "Si O2"
_cell_formula_units_Z 168
_cell_length_a 19.493078
_cell_length_b 19.493078
_cell_length_c 28.684794
_cell_angle_alpha 90.000000
_cell_angle_beta 90.000000
_cell_angle_gamma 120.000000
_cell_volume 9439.374315
_symmetry_space_group_name_H-M "P 6/M C C"
_symmetry_group_IT_number 192
_symmetry_cell_setting 'hexagonal'
loop_
_space_group_symop_operation_xyz
x,y,z
x-y,x,z
-y,x-y,z
-x,-y,z
-x+y,-x,z
y,-x+y,z
x-y,-y,1/2-z
-x,-x+y,1/2-z
y,x,1/2-z
-y,-x,1/2-z
-x+y,y,1/2-z
x,x-y,1/2-z
-x,-y,-z
-x+y,-x,-z
y,-x+y,-z
x,y,-z
x-y,x,-z
-y,x-y,-z
-x+y,y,1/2+z
x,x-y,1/2+z
-y,-x,1/2+z
y,x,1/2+z
x-y,-y,1/2+z
-x,-x+y,1/2+z
loop_
_atom_site_type_symbol
_atom_site_label
_atom_site_fract_x
_atom_site_fract_y
_atom_site_fract_z
Si Si1 0.908957 0.251002 0.947388
Si Si2 0.707979 0.586800 0.151269
Si Si3 0.733860 0.706189 0.297864
Si Si4 0.949877 0.825874 0.150264
Si Si5 0.093545 0.547509 0.806249
Si Si6 0.064294 0.826400 0.552312
Si Si7 0.454752 0.180027 0.704875
O O1 0.891477 0.291090 0.904025
O O2 0.849521 0.155869 0.944113
O O3 0.997499 0.263132 0.942269
O O4 0.902357 0.276078 0.000000
O O5 0.709262 0.662778 0.175588
O O6 0.632077 0.508879 0.170761
O O7 0.781266 0.576772 0.167409
O O8 0.754460 0.754460 0.250000
O O9 0.809681 0.741811 0.330785
O O10 0.712154 0.618620 0.282035
O O11 0.887472 0.849923 0.166294
O O12 0.948690 0.820650 0.094354
O O13 0.093903 0.546952 0.750000
O O14 0.154476 0.515429 0.816210
O O15 0.000000 0.500000 0.820012
O O16 0.053695 0.849445 0.500000
O O17 0.478314 0.239157 0.750000
#
# Coordination Sequence:
#
# PCOD9588337 Si02
#       7
#    24  24  24  24  24  24  24
#     4  10  21  36  58  89 117 152 204 254 305 356
#     4  12  23  39  64  88 123 166 194 250 308 355
#     4  12  22  37  59  85 112 151 209 256 300 358
#     4  12  24  36  49  74 115 163 210 256 308 360
#     4  11  22  40  59  89 130 163 193 241 301 365
#     4  10  18  32  54  81 115 147 191 260 312 352
#     4  12  23  37  60  95 123 155 202 244 298 367
#
# _framework density 17.797789999999999
#
# number of rings (size 3 to 8) (size 9 to 14) (size 15 to 20)
#    0.000    0.714    7.143    1.857    0.000    0.000 
#    0.857    0.714    0.000    3.000    0.000    0.000 
#    0.000    0.000    0.000    0.000    0.000    0.000 
#
# Total GULP energy -936834.832758 kJ/mol
# GULP energy per Si atom -5576.397814 kJ/mol
# Density = 1.775728 g / cm^3
# Si number density = 17.797790 Si / 1000 Ang^3
#
#
#
# Elastic Constant Matrix: (Units=GPa)
#
#
# Indices 1 2 3 4 5 6 
#
# 1 94.2610 33.1249 33.3155 0.0000 0.0000 0.0000
# 2 33.1249 94.2610 33.3155 0.0000 0.0000 0.0000
# 3 33.3155 33.3155 101.0116 0.0000 0.0000 0.0000
# 4 0.0000 0.0000 0.0000 21.0110 0.0000 0.0000
# 5 0.0000 0.0000 0.0000 0.0000 21.0110 0.0000
# 6 0.0000 0.0000 0.0000 0.0000 0.0000 30.5681
#
#
#
# Elastic Compliance Matrix: (Units=1/GPa)
#
#
# Indices 1 2 3 4 5 6 
#
# 1 0.012922 -0.003435 -0.003129 0.000000 0.000000 0.000000
# 2 -0.003435 0.012922 -0.003129 0.000000 0.000000 0.000000
# 3 -0.003129 -0.003129 0.011964 0.000000 0.000000 0.000000
# 4 0.000000 0.000000 0.000000 0.047594 0.000000 0.000000
# 5 0.000000 0.000000 0.000000 0.000000 0.047594 0.000000
# 6 0.000000 0.000000 0.000000 0.000000 0.000000 0.032714
#
#
# Mechanical properties :
#
#
# Convention : Reuss Voigt Hill
#
# Bulk Modulus (GPa) = 54.28377 54.33835 54.31106
# Shear Modulus (GPa) = 26.14569 27.16986 26.65777
#
# Velocity S-wave (km/s) = 3.83697 3.91139 3.87436
# Velocity P-wave (km/s) = 7.08493 7.14114 7.11309
#
# Compressibility (1/GPa) = 0.01842171
#
# Stress axis : x y z
#
# Youngs Moduli (GPa) = 77.38824 77.38824 83.58545
#
# Poissons Ratio (x) = 0.26583 0.26153
# Poissons Ratio (y) = 0.26583 0.26153
# Poissons Ratio (z) = 0.24214 0.24214
#
# Static dielectric constant tensor:
#      x y z
#    x 1.638390 0.000000 0.000000 
#    y 0.000000 1.638390 0.000000 
#    z 0.000000 0.000000 1.627070 
# 
# From -- ./inp_files/7185.got.cif
#   From: 2010.05.17/outbox.cif.g08.bks.cpg/sg192_4_cif.got.tgz:7185.got - 2010.05.20 12:28:01.
