data_PCOD9588606
_publ_section_title
;
Structure prediction by ZEFSAII (Michael W. Deem and Ramdas Pophale) SiO2 
 PCOD9588606
Probable space group: P 6/M C C
;
_chemical_formula_sum "Si O2"
_cell_formula_units_Z 168
_cell_length_a 18.333812
_cell_length_b 18.333812
_cell_length_c 27.830804
_cell_angle_alpha 90.000000
_cell_angle_beta 90.000000
_cell_angle_gamma 120.000000
_cell_volume 8101.434625
_symmetry_space_group_name_H-M "P 6/M C C"
_symmetry_group_IT_number 192
_symmetry_cell_setting 'hexagonal'
loop_
_space_group_symop_operation_xyz
x,y,z
x-y,x,z
-y,x-y,z
-x,-y,z
-x+y,-x,z
y,-x+y,z
x-y,-y,1/2-z
-x,-x+y,1/2-z
y,x,1/2-z
-y,-x,1/2-z
-x+y,y,1/2-z
x,x-y,1/2-z
-x,-y,-z
-x+y,-x,-z
y,-x+y,-z
x,y,-z
x-y,x,-z
-y,x-y,-z
-x+y,y,1/2+z
x,x-y,1/2+z
-y,-x,1/2+z
y,x,1/2+z
x-y,-y,1/2+z
-x,-x+y,1/2+z
loop_
_atom_site_type_symbol
_atom_site_label
_atom_site_fract_x
_atom_site_fract_y
_atom_site_fract_z
Si Si1 0.819324 0.987099 0.394445
Si Si2 0.742704 0.100127 0.873839
Si Si3 0.323721 0.831077 0.206189
Si Si4 0.986384 0.579435 0.053659
Si Si5 0.659189 0.486376 0.812669
Si Si6 0.166862 0.177748 0.500000
Si Si7 0.434952 0.161068 0.083594
Si Si8 0.286358 0.729863 0.500000
O O1 0.834115 0.907350 0.388748
O O2 0.738823 0.968833 0.363294
O O3 0.783767 0.986151 0.448468
O O4 0.722937 0.133118 0.825578
O O5 0.816967 0.179825 0.902598
O O6 0.660290 0.068112 0.906442
O O7 0.415349 0.853329 0.188354
O O8 0.270497 0.729861 0.196699
O O9 0.327873 0.860446 0.261207
O O10 0.075906 0.665262 0.056042
O O11 0.000000 0.500000 0.062435
O O12 0.950130 0.569481 0.000000
O O13 0.682229 0.529240 0.864627
O O14 0.162258 0.088872 0.500000
O O15 0.501711 0.234302 0.048308
O O16 0.242465 0.628396 0.500000
#
# Coordination Sequence:
#
# PCOD9588606 Si02
#       8
#    24  24  24  24  24  12  24  12
#     4  10  20  37  60  90 123 164 213 268 331 396
#     4  11  24  37  59  83 125 164 209 258 320 375
#     4   9  18  34  55  90 116 155 204 260 317 368
#     4  11  25  39  57  80 118 164 210 251 300 366
#     4   9  18  32  59  83 118 154 204 261 310 357
#     4   8  15  27  48  78 112 150 195 251 309 374
#     4  11  23  40  58  85 121 159 211 250 303 366
#     4  10  26  35  57  87 126 164 214 249 304 350
#
# _framework density 20.737068000000001
#
# number of rings (size 3 to 8) (size 9 to 14) (size 15 to 20)
#    0.143    1.857    0.714    2.214    8.000    2.286 
#    2.571    0.714    0.000    4.286    0.000    0.000 
#    0.000    0.000    0.000   22.857    0.000    0.000 
#
# Total GULP energy -936373.311276 kJ/mol
# GULP energy per Si atom -5573.650662 kJ/mol
# Density = 2.068987 g / cm^3
# Si number density = 20.737068 Si / 1000 Ang^3
#
#
#
# Elastic Constant Matrix: (Units=GPa)
#
#
# Indices 1 2 3 4 5 6 
#
# 1 63.3580 6.4046 23.1715 0.0000 0.0000 0.0000
# 2 6.4046 63.3580 23.1715 0.0000 0.0000 0.0000
# 3 23.1715 23.1715 86.9290 0.0000 0.0000 0.0000
# 4 0.0000 0.0000 0.0000 10.7007 0.0000 0.0000
# 5 0.0000 0.0000 0.0000 0.0000 10.7007 0.0000
# 6 0.0000 0.0000 0.0000 0.0000 0.0000 28.4767
#
#
#
# Elastic Compliance Matrix: (Units=1/GPa)
#
#
# Indices 1 2 3 4 5 6 
#
# 1 0.017488 -0.000070 -0.004643 0.000000 0.000000 0.000000
# 2 -0.000070 0.017488 -0.004643 0.000000 0.000000 0.000000
# 3 -0.004643 -0.004643 0.013979 0.000000 0.000000 0.000000
# 4 0.000000 0.000000 0.000000 0.093452 0.000000 0.000000
# 5 0.000000 0.000000 0.000000 0.000000 0.093452 0.000000
# 6 0.000000 0.000000 0.000000 0.000000 0.000000 0.035116
#
#
# Mechanical properties :
#
#
# Convention : Reuss Voigt Hill
#
# Bulk Modulus (GPa) = 33.06436 35.46002 34.26219
# Shear Modulus (GPa) = 16.67950 20.70212 18.69081
#
# Velocity S-wave (km/s) = 2.83915 3.16304 3.00546
# Velocity P-wave (km/s) = 5.16981 5.52057 5.34807
#
# Compressibility (1/GPa) = 0.03024405
#
# Stress axis : x y z
#
# Youngs Moduli (GPa) = 57.18058 57.18058 71.53630
#
# Poissons Ratio (x) = 0.00399 0.33215
# Poissons Ratio (y) = 0.00399 0.33215
# Poissons Ratio (z) = 0.26549 0.26549
#
# Static dielectric constant tensor:
#      x y z
#    x 1.774160 0.000000 0.000000 
#    y 0.000000 1.774160 0.000000 
#    z 0.000000 0.000000 1.751480 
# 
# From -- ./inp_files/7234.got.cif
#   From: 2010.05.17/outbox.cif.g08.bks.cpg/sg192_4_cif.got.tgz:7234.got - 2010.05.20 12:28:01.
