data_PCOD9588644
_publ_section_title
;
Structure prediction by ZEFSAII (Michael W. Deem and Ramdas Pophale) SiO2 
 PCOD9588644
Probable space group: P 6/M C C
;
_chemical_formula_sum "Si O2"
_cell_formula_units_Z 80
_cell_length_a 18.898501
_cell_length_b 18.898501
_cell_length_c 15.540602
_cell_angle_alpha 90.000000
_cell_angle_beta 90.000000
_cell_angle_gamma 120.000000
_cell_volume 4806.768271
_symmetry_space_group_name_H-M "P 6/M C C"
_symmetry_group_IT_number 192
_symmetry_cell_setting 'hexagonal'
loop_
_space_group_symop_operation_xyz
x,y,z
x-y,x,z
-y,x-y,z
-x,-y,z
-x+y,-x,z
y,-x+y,z
x-y,-y,1/2-z
-x,-x+y,1/2-z
y,x,1/2-z
-y,-x,1/2-z
-x+y,y,1/2-z
x,x-y,1/2-z
-x,-y,-z
-x+y,-x,-z
y,-x+y,-z
x,y,-z
x-y,x,-z
-y,x-y,-z
-x+y,y,1/2+z
x,x-y,1/2+z
-y,-x,1/2+z
y,x,1/2+z
x-y,-y,1/2+z
-x,-x+y,1/2+z
loop_
_atom_site_type_symbol
_atom_site_label
_atom_site_fract_x
_atom_site_fract_y
_atom_site_fract_z
Si Si1 0.783953 0.266681 0.597476
Si Si2 0.031074 0.594078 0.599887
Si Si3 0.333334 0.666667 0.646990
Si Si4 0.686865 0.686865 0.750000
Si Si5 0.819846 0.180155 0.750000
O O1 0.778672 0.236970 0.500000
O O2 0.870489 0.351198 0.606463
O O3 0.711542 0.285345 0.614685
O O4 0.786451 0.206233 0.667365
O O5 0.009125 0.597833 0.500000
O O6 0.000000 0.500000 0.621015
O O7 0.996752 0.633871 0.666799
O O8 0.333334 0.666667 0.750000
O O9 0.690244 0.772965 0.755551
#
# Coordination Sequence:
#
# PCOD9588644 Si02
#       5
#    24  24   8  12  12
#     4  10  21  35  50  73 104 140 179 217 256 297
#     4   9  19  33  52  75 100 137 177 212 253 298
#     4  12  22  32  49  73 107 145 190 221 256 286
#     4  10  21  36  56  75 104 130 170 216 268 317
#     4  10  22  38  56  79 100 134 169 218 266 328
#
# _framework density 16.643198000000002
#
# number of rings (size 3 to 8) (size 9 to 14) (size 15 to 20)
#    0.000    2.100    1.500    1.350    4.200    1.200 
#    0.000    0.000    0.000    0.300    0.000    0.000 
#    0.000    0.000    0.000   15.000    0.000    0.000 
#
# Total GULP energy -446634.233705 kJ/mol
# GULP energy per Si atom -5582.927921 kJ/mol
# Density = 1.660532 g / cm^3
# Si number density = 16.643198 Si / 1000 Ang^3
#
#
#
# Elastic Constant Matrix: (Units=GPa)
#
#
# Indices 1 2 3 4 5 6 
#
# 1 76.1545 52.3858 35.6629 0.0002 -0.0001 -0.0001
# 2 52.3858 76.1540 35.6630 0.0000 0.0000 -0.0001
# 3 35.6629 35.6630 101.4172 0.0000 0.0002 0.0000
# 4 0.0002 0.0000 0.0000 14.6407 0.0000 0.0000
# 5 -0.0001 0.0000 0.0002 0.0000 14.6418 -0.0001
# 6 -0.0001 -0.0001 0.0000 0.0000 -0.0001 11.8843
#
#
#
# Elastic Compliance Matrix: (Units=1/GPa)
#
#
# Indices 1 2 3 4 5 6 
#
# 1 0.025869 -0.016203 -0.003399 0.000000 0.000000 0.000000
# 2 -0.016203 0.025869 -0.003399 0.000000 0.000000 0.000000
# 3 -0.003399 -0.003399 0.012251 0.000000 0.000000 0.000000
# 4 0.000000 0.000000 0.000000 0.068303 0.000000 0.000000
# 5 0.000000 0.000000 0.000000 0.000000 0.068298 0.000000
# 6 0.000000 0.000000 0.000000 0.000000 0.000000 0.084144
#
#
# Mechanical properties :
#
#
# Convention : Reuss Voigt Hill
#
# Bulk Modulus (GPa) = 55.59735 55.68323 55.64029
# Shear Modulus (GPa) = 14.84858 16.90094 15.87476
#
# Velocity S-wave (km/s) = 2.99016 3.19013 3.09176
# Velocity P-wave (km/s) = 6.73791 6.86286 6.80067
#
# Compressibility (1/GPa) = 0.01798647
#
# Stress axis : x y z
#
# Youngs Moduli (GPa) = 38.65617 38.65584 81.62806
#
# Poissons Ratio (x) = 0.62636 0.27744
# Poissons Ratio (y) = 0.62637 0.27745
# Poissons Ratio (z) = 0.13139 0.13139
#
# Static dielectric constant tensor:
#      x y z
#    x 1.544740 0.000000 0.000000 
#    y 0.000000 1.544740 0.000000 
#    z 0.000000 0.000000 1.577390 
# 
# From -- ./inp_files/2687.got.cif
#   From: 2010.05.17/outbox.cif.g08.bks.cpg/sg192_2_cif.got.tgz:2687.got - 2010.05.20 12:28:01.
