data_PCOD9588895
_publ_section_title
;
Structure prediction by ZEFSAII (Michael W. Deem and Ramdas Pophale) SiO2 
 PCOD9588895
Probable space group: P 63/M C M
;
_chemical_formula_sum "Si O2"
_cell_formula_units_Z 192
_cell_length_a 29.862227
_cell_length_b 29.862227
_cell_length_c 15.611374
_cell_angle_alpha 90.000000
_cell_angle_beta 90.000000
_cell_angle_gamma 120.000000
_cell_volume 12056.358262
_symmetry_space_group_name_H-M "P 63/M C M"
_symmetry_group_IT_number 193
_symmetry_cell_setting 'hexagonal'
loop_
_space_group_symop_operation_xyz
x,y,z
x-y,x,1/2+z
-y,x-y,z
-x,-y,1/2+z
-x+y,-x,z
y,-x+y,1/2+z
x-y,-y,1/2-z
-x,-x+y,1/2-z
y,x,1/2-z
-y,-x,-z
-x+y,y,-z
x,x-y,-z
-x,-y,-z
-x+y,-x,1/2-z
y,-x+y,-z
x,y,1/2-z
x-y,x,-z
-y,x-y,1/2-z
-x+y,y,1/2+z
x,x-y,1/2+z
-y,-x,1/2+z
y,x,z
x-y,-y,z
-x,-x+y,z
loop_
_atom_site_type_symbol
_atom_site_label
_atom_site_fract_x
_atom_site_fract_y
_atom_site_fract_z
Si Si1 0.561230 0.226598 0.500000
Si Si2 0.462748 0.062586 1.000000
Si Si3 0.061582 0.705016 0.000000
Si Si4 0.807195 0.506363 0.342585
Si Si5 0.493637 0.192805 0.342585
Si Si6 0.762095 0.132834 0.650736
Si Si7 0.237905 0.867166 0.650736
Si Si8 0.468474 0.531526 0.148994
O O1 0.618192 0.236384 0.500000
O O2 0.562199 0.281100 0.500000
O O3 0.529516 0.194635 0.581981
O O4 0.529516 0.194634 0.418019
O O5 0.416844 0.075759 1.000000
O O6 0.496758 0.078115 0.087633
O O7 0.433664 0.000000 1.000000
O O8 0.496759 0.078115 0.912367
O O9 0.087016 0.740492 0.916817
O O10 0.000000 0.677533 0.000000
O O11 0.087017 0.740492 0.083183
O O12 0.818607 0.491886 0.250000
O O13 0.749857 0.499713 0.339918
O O14 0.843637 0.567324 0.355926
O O15 0.508114 0.181393 0.250000
O O16 0.432676 0.156363 0.355926
O O17 0.761527 0.117933 0.750000
O O18 0.819336 0.180664 0.630921
O O19 0.238473 0.882067 0.750000
O O20 0.460079 0.539922 0.250000
O O21 0.500000 0.500000 0.152668
#
# Coordination Sequence:
#
# PCOD9588895 Si02
#       8
#    24  24  24  24  24  24  24  24
#     4  10  18  26  39  61  88 114 134 161 209 269
#     4   8  16  27  38  60  86 109 143 179 214 265
#     4  11  21  30  46  75 105 122 138 183 244 284
#     4   8  15  29  48  65  77  98 139 182 212 246
#     4   8  15  29  48  65  77  98 139 182 212 246
#     4   9  18  34  55  72  87 117 159 191 219 266
#     4   9  18  34  55  72  87 117 159 191 219 266
#     4   8  13  25  44  57  71 106 151 183 208 255
#
# _framework density 15.925207
#
# number of rings (size 3 to 8) (size 9 to 14) (size 15 to 20)
#    0.000    3.125    0.000    3.500    0.000    4.000 
#    0.000    2.500   11.000    1.500    0.000    0.000 
#    0.000    0.000    0.000    0.000    0.000    0.000 
#
# Total GULP energy -1070200.904433 kJ/mol
# GULP energy per Si atom -5573.963044 kJ/mol
# Density = 1.588896 g / cm^3
# Si number density = 15.925207 Si / 1000 Ang^3
#
#
#
# Elastic Constant Matrix: (Units=GPa)
#
#
# Indices 1 2 3 4 5 6 
#
# 1 58.4842 27.5185 54.4331 0.0000 0.0000 0.0000
# 2 27.5185 58.4842 54.4331 0.0000 0.0000 0.0000
# 3 54.4331 54.4331 145.4690 0.0000 0.0000 0.0000
# 4 0.0000 0.0000 0.0000 10.1182 0.0000 0.0000
# 5 0.0000 0.0000 0.0000 0.0000 10.1182 0.0000
# 6 0.0000 0.0000 0.0000 0.0000 0.0000 15.4829
#
#
#
# Elastic Compliance Matrix: (Units=1/GPa)
#
#
# Indices 1 2 3 4 5 6 
#
# 1 0.027193 -0.005101 -0.008266 0.000000 0.000000 0.000000
# 2 -0.005101 0.027193 -0.008266 0.000000 0.000000 0.000000
# 3 -0.008266 -0.008266 0.013061 0.000000 0.000000 0.000000
# 4 0.000000 0.000000 0.000000 0.098831 0.000000 0.000000
# 5 0.000000 0.000000 0.000000 0.000000 0.098831 0.000000
# 6 0.000000 0.000000 0.000000 0.000000 0.000000 0.064587
#
#
# Mechanical properties :
#
#
# Convention : Reuss Voigt Hill
#
# Bulk Modulus (GPa) = 41.35969 59.46740 50.41355
# Shear Modulus (GPa) = 13.12254 15.54739 14.33496
#
# Velocity S-wave (km/s) = 2.87367 3.12793 3.00349
# Velocity P-wave (km/s) = 6.08591 7.10408 6.61462
#
# Compressibility (1/GPa) = 0.02417813
#
# Stress axis : x y z
#
# Youngs Moduli (GPa) = 36.77462 36.77462 76.56515
#
# Poissons Ratio (x) = 0.18759 0.63292
# Poissons Ratio (y) = 0.18759 0.63292
# Poissons Ratio (z) = 0.30400 0.30400
#
# Static dielectric constant tensor:
#      x y z
#    x 1.526700 0.000000 0.000000 
#    y 0.000000 1.526700 0.000000 
#    z 0.000000 0.000000 1.573680 
# 
# From -- ./inp_files/4481.got.cif
#   From: 2010.05.17/outbox.cif.g08.bks.cpg/sg193_3_cif.got.tgz:4481.got - 2010.05.20 12:33:02.
