data_PCOD9588732
_publ_section_title
;
Structure prediction by ZEFSAII (Michael W. Deem and Ramdas Pophale) SiO2 
 PCOD9588732
Probable space group: P 6/M C C
;
_chemical_formula_sum "Si O2"
_cell_formula_units_Z 136
_cell_length_a 16.561175
_cell_length_b 16.561175
_cell_length_c 31.810597
_cell_angle_alpha 90.000000
_cell_angle_beta 90.000000
_cell_angle_gamma 120.000000
_cell_volume 7555.874643
_symmetry_space_group_name_H-M "P 6/M C C"
_symmetry_group_IT_number 192
_symmetry_cell_setting 'hexagonal'
loop_
_space_group_symop_operation_xyz
x,y,z
x-y,x,z
-y,x-y,z
-x,-y,z
-x+y,-x,z
y,-x+y,z
x-y,-y,1/2-z
-x,-x+y,1/2-z
y,x,1/2-z
-y,-x,1/2-z
-x+y,y,1/2-z
x,x-y,1/2-z
-x,-y,-z
-x+y,-x,-z
y,-x+y,-z
x,y,-z
x-y,x,-z
-y,x-y,-z
-x+y,y,1/2+z
x,x-y,1/2+z
-y,-x,1/2+z
y,x,1/2+z
x-y,-y,1/2+z
-x,-x+y,1/2+z
loop_
_atom_site_type_symbol
_atom_site_label
_atom_site_fract_x
_atom_site_fract_y
_atom_site_fract_z
Si Si1 0.333334 0.666667 0.058460
Si Si2 0.645961 0.536940 0.743845
Si Si3 0.782197 0.549046 0.320437
Si Si4 0.333334 0.666667 0.657767
Si Si5 0.134746 0.748375 0.088754
Si Si6 0.557219 0.127635 0.047136
Si Si7 0.362464 0.061746 0.449406
O O1 0.333334 0.666667 0.108007
O O2 0.411676 0.644127 0.044235
O O3 0.587664 0.587664 0.750000
O O4 0.573571 0.426430 0.750000
O O5 0.697982 0.559912 0.699011
O O6 0.719267 0.570403 0.781638
O O7 0.734329 0.438689 0.328530
O O8 0.834556 0.603345 0.362421
O O9 0.138443 0.655272 0.075412
O O10 0.210641 0.841246 0.064428
O O11 0.028832 0.717121 0.074989
O O12 0.605987 0.068756 0.060884
O O13 0.517921 0.099951 0.000000
O O14 0.350304 0.051447 0.500000
#
# Coordination Sequence:
#
# PCOD9588732 Si02
#       7
#     8  24  24   8  24  24  24
#     4  12  19  31  52  85 115 167 196 244 277 337
#     4  10  22  39  59  83 114 155 199 246 300 361
#     4  11  23  37  59  81 115 155 199 247 295 358
#     4  12  18  35  53  81 112 155 205 237 287 350
#     4  12  25  39  60  88 119 156 203 259 306 358
#     4  11  20  35  56  81 120 166 205 237 285 350
#     4  11  24  41  61  86 123 164 206 250 307 365
#
# _framework density 17.999238999999999
#
# number of rings (size 3 to 8) (size 9 to 14) (size 15 to 20)
#    0.000    0.882    5.294    2.647    2.471    1.412 
#    3.176    0.000    0.000    0.353    0.000    1.235 
#    0.000    0.000    0.000    7.235    0.000    0.000 
#
# Total GULP energy -758721.221097 kJ/mol
# GULP energy per Si atom -5578.832508 kJ/mol
# Density = 1.795827 g / cm^3
# Si number density = 17.999239 Si / 1000 Ang^3
#
#
#
# Elastic Constant Matrix: (Units=GPa)
#
#
# Indices 1 2 3 4 5 6 
#
# 1 91.5102 38.2222 45.3241 0.0000 0.0000 0.0000
# 2 38.2222 91.5100 45.3240 -0.0001 0.0000 -0.0001
# 3 45.3241 45.3240 124.6369 0.0000 0.0000 0.0000
# 4 0.0000 -0.0001 0.0000 24.4031 0.0001 0.0000
# 5 0.0000 0.0000 0.0000 0.0001 24.4025 0.0000
# 6 0.0000 -0.0001 0.0000 0.0000 0.0000 26.6437
#
#
#
# Elastic Compliance Matrix: (Units=1/GPa)
#
#
# Indices 1 2 3 4 5 6 
#
# 1 0.014550 -0.004216 -0.003758 0.000000 0.000000 0.000000
# 2 -0.004216 0.014550 -0.003758 0.000000 0.000000 0.000000
# 3 -0.003758 -0.003758 0.010756 0.000000 0.000000 0.000000
# 4 0.000000 0.000000 0.000000 0.040978 0.000000 0.000000
# 5 0.000000 0.000000 0.000000 0.000000 0.040979 0.000000
# 6 0.000000 0.000000 0.000000 0.000000 0.000000 0.037532
#
#
# Mechanical properties :
#
#
# Convention : Reuss Voigt Hill
#
# Bulk Modulus (GPa) = 61.00296 62.82195 61.91245
# Shear Modulus (GPa) = 26.55698 27.00899 26.78298
#
# Velocity S-wave (km/s) = 3.84533 3.87791 3.86165
# Velocity P-wave (km/s) = 7.32673 7.41817 7.37259
#
# Compressibility (1/GPa) = 0.01639265
#
# Stress axis : x y z
#
# Youngs Moduli (GPa) = 68.72869 68.72854 92.96763
#
# Poissons Ratio (x) = 0.28976 0.34937
# Poissons Ratio (y) = 0.28976 0.34937
# Poissons Ratio (z) = 0.25828 0.25828
#
# Static dielectric constant tensor:
#      x y z
#    x 1.648610 0.000000 0.000000 
#    y 0.000000 1.648610 0.000000 
#    z 0.000000 0.000000 1.631310 
# 
# From -- ./inp_files/6543.got.cif
#   From: 2010.05.17/outbox.cif.g08.bks.cpg/sg192_4_cif.got.tgz:6543.got - 2010.05.20 12:28:01.
