data_PCOD9588050
_publ_section_title
;
Structure prediction by ZEFSAII (Michael W. Deem and Ramdas Pophale) SiO2 
 PCOD9588050
Probable space group: P 6/M M M
;
_chemical_formula_sum "Si O2"
_cell_formula_units_Z 144
_cell_length_a 21.178467
_cell_length_b 21.178467
_cell_length_c 21.946234
_cell_angle_alpha 90.000000
_cell_angle_beta 90.000000
_cell_angle_gamma 120.000000
_cell_volume 8524.711268
_symmetry_space_group_name_H-M "P 6/M M M"
_symmetry_group_IT_number 191
_symmetry_cell_setting 'hexagonal'
loop_
_space_group_symop_operation_xyz
x,y,z
x-y,x,z
-y,x-y,z
-x,-y,z
-x+y,-x,z
y,-x+y,z
x-y,-y,-z
-x,-x+y,-z
y,x,-z
-y,-x,-z
-x+y,y,-z
x,x-y,-z
-x,-y,-z
-x+y,-x,-z
y,-x+y,-z
x,y,-z
x-y,x,-z
-y,x-y,-z
-x+y,y,z
x,x-y,z
-y,-x,z
y,x,z
x-y,-y,z
-x,-x+y,z
loop_
_atom_site_type_symbol
_atom_site_label
_atom_site_fract_x
_atom_site_fract_y
_atom_site_fract_z
Si Si1 0.774619 0.693509 0.645936
Si Si2 0.290352 0.434650 0.892180
Si Si3 0.083610 0.434147 0.428476
Si Si4 0.597431 0.682399 0.240682
Si Si5 0.525228 0.336078 0.324892
Si Si6 0.456937 0.543063 0.073556
Si Si7 0.085120 0.767371 0.000000
O O1 0.856252 0.712504 0.639313
O O2 0.760607 0.760607 0.643791
O O3 0.724010 0.636413 0.594073
O O4 0.741282 0.651314 0.709826
O O5 0.229839 0.459677 0.897976
O O6 0.285887 0.402562 0.825029
O O7 0.373614 0.497897 0.903321
O O8 0.268399 0.370901 0.941850
O O9 0.097205 0.447390 0.500000
O O10 0.141882 0.497836 0.386491
O O11 0.000000 0.413212 0.415834
O O12 0.622361 0.622361 0.235964
O O13 0.518412 0.652042 0.270551
O O14 0.505349 0.252675 0.326077
O O15 0.610396 0.389605 0.317718
O O16 0.500000 0.500000 0.090966
O O17 0.455274 0.544727 0.000000
O O18 0.146426 0.853575 0.000000
O O19 0.000000 0.743890 0.000000
#
# Coordination Sequence:
#
# PCOD9588050 Si02
#       7
#    24  24  24  24  24  12  12
#     4   9  17  30  49  74 102 130 161 200 247 298
#     4  11  22  37  56  80 107 139 177 221 272 317
#     4   9  18  33  54  77  97 120 157 211 264 300
#     4  10  20  35  57  79  99 125 165 216 266 308
#     4  11  23  37  51  70 100 136 171 204 245 302
#     4  11  22  36  56  78 108 144 185 225 269 319
#     4  10  20  35  57  82 111 139 173 217 263 315
#
# _framework density 16.892067000000001
#
# number of rings (size 3 to 8) (size 9 to 14) (size 15 to 20)
#    0.000    1.917    0.833    6.167    1.167    3.000 
#    0.500    0.833    0.000    1.250    0.000    0.000 
#    0.000    0.000    0.000    9.500    0.000    0.000 
#
# Total GULP energy -803520.790577 kJ/mol
# GULP energy per Si atom -5580.005490 kJ/mol
# Density = 1.685362 g / cm^3
# Si number density = 16.892067 Si / 1000 Ang^3
#
#
#
# Elastic Constant Matrix: (Units=GPa)
#
#
# Indices 1 2 3 4 5 6 
#
# 1 95.1908 52.5077 15.5989 0.0000 0.0000 0.0000
# 2 52.5077 95.1908 15.5989 0.0000 0.0000 0.0000
# 3 15.5989 15.5989 82.3501 0.0000 0.0000 0.0000
# 4 0.0000 0.0000 0.0000 -21.2037 0.0000 0.0000
# 5 0.0000 0.0000 0.0000 0.0000 -21.2037 0.0000
# 6 0.0000 0.0000 0.0000 0.0000 0.0000 21.3415
#
#
#
# Elastic Compliance Matrix: (Units=1/GPa)
#
#
# Indices 1 2 3 4 5 6 
#
# 1 0.015241 -0.008188 -0.001336 0.000000 0.000000 0.000000
# 2 -0.008188 0.015241 -0.001336 0.000000 0.000000 0.000000
# 3 -0.001336 -0.001336 0.012649 0.000000 0.000000 0.000000
# 4 0.000000 0.000000 0.000000 -0.047162 0.000000 0.000000
# 5 0.000000 0.000000 0.000000 0.000000 -0.047162 0.000000
# 6 0.000000 0.000000 0.000000 0.000000 0.000000 0.046857
#
#
# Mechanical properties :
#
#
# Convention : Reuss Voigt Hill
#
# Bulk Modulus (GPa) = 46.70472 48.90471 47.80472
# Shear Modulus (GPa) = 203.90846 8.38859 106.14852
#
# Velocity S-wave (km/s) = 10.99885 2.23087 7.93572
# Velocity P-wave (km/s) = 13.74803 5.97075 10.59854
#
# Compressibility (1/GPa) = 0.02141111
#
# Stress axis : x y z
#
# Youngs Moduli (GPa) = 65.61417 65.61417 79.05517
#
# Poissons Ratio (x) = 0.53724 0.10561
# Poissons Ratio (y) = 0.53724 0.10561
# Poissons Ratio (z) = 0.08766 0.08766
#
# Static dielectric constant tensor:
#      x y z
#    x 1.565190 0.000000 0.000000 
#    y 0.000000 1.565190 0.000000 
#    z 0.000000 0.000000 1.567390 
# 
# From -- ./inp_files/7675.got.cif
#   From: 2010.05.17/outbox.cif.g08.bks.cpg/sg191_4_cif.got.tgz:7675.got - 2010.05.20 12:20:32.
