data_PCOD9588066
_publ_section_title
;
Structure prediction by ZEFSAII (Michael W. Deem and Ramdas Pophale) SiO2 
 PCOD9588066
Probable space group: P 6/M M M
;
_chemical_formula_sum "Si O2"
_cell_formula_units_Z 66
_cell_length_a 22.227529
_cell_length_b 22.227529
_cell_length_c 8.043879
_cell_angle_alpha 90.000000
_cell_angle_beta 90.000000
_cell_angle_gamma 120.000000
_cell_volume 3441.743746
_symmetry_space_group_name_H-M "P 6/M M M"
_symmetry_group_IT_number 191
_symmetry_cell_setting 'hexagonal'
loop_
_space_group_symop_operation_xyz
x,y,z
x-y,x,z
-y,x-y,z
-x,-y,z
-x+y,-x,z
y,-x+y,z
x-y,-y,-z
-x,-x+y,-z
y,x,-z
-y,-x,-z
-x+y,y,-z
x,x-y,-z
-x,-y,-z
-x+y,-x,-z
y,-x+y,-z
x,y,-z
x-y,x,-z
-y,x-y,-z
-x+y,y,z
x,x-y,z
-y,-x,z
y,x,z
x-y,-y,z
-x,-x+y,z
loop_
_atom_site_type_symbol
_atom_site_label
_atom_site_fract_x
_atom_site_fract_y
_atom_site_fract_z
Si Si1 0.116475 0.739206 0.188634
Si Si2 0.234805 0.234805 0.316886
Si Si3 0.194782 0.528943 0.299218
Si Si4 0.000000 0.145117 0.000000
O O1 0.190224 0.809777 0.191355
O O2 0.133889 0.680354 0.243964
O O3 0.065319 0.753324 0.297643
O O4 0.089754 0.726142 0.000000
O O5 0.206127 0.206127 0.500000
O O6 0.187497 0.187497 0.164720
O O7 0.195810 0.529788 0.500000
O O8 0.268703 0.537407 0.244055
O O9 0.187262 0.593631 0.240831
O O10 0.069968 0.139936 0.000000
#
# Coordination Sequence:
#
# PCOD9588066 Si02
#       4
#    24  12  24   6
#     4  10  20  36  57  83 116 153 199 254 303 355
#     4  12  24  41  68  96 125 163 204 245 294 355
#     4   9  17  30  50  78 114 157 205 257 312 366
#     4  12  27  48  72 102 135 164 196 236 286 348
#
# _framework density 19.176326
#
# number of rings (size 3 to 8) (size 9 to 14) (size 15 to 20)
#    0.000    1.818    1.818    2.636    0.000    6.545 
#    0.000    0.909    0.000    8.727    0.000    0.000 
#    0.000    0.000    0.000    0.000    0.000    0.000 
#
# Total GULP energy -368374.312231 kJ/mol
# GULP energy per Si atom -5581.428973 kJ/mol
# Density = 1.913268 g / cm^3
# Si number density = 19.176326 Si / 1000 Ang^3
#
#
#
# Elastic Constant Matrix: (Units=GPa)
#
#
# Indices 1 2 3 4 5 6 
#
# 1 107.9942 49.4221 38.4585 0.0000 0.0000 0.0000
# 2 49.4221 107.9942 38.4585 0.0000 0.0000 0.0000
# 3 38.4585 38.4585 99.5389 0.0000 0.0000 0.0000
# 4 0.0000 0.0000 0.0000 22.8227 0.0000 0.0000
# 5 0.0000 0.0000 0.0000 0.0000 22.8227 0.0000
# 6 0.0000 0.0000 0.0000 0.0000 0.0000 29.2861
#
#
#
# Elastic Compliance Matrix: (Units=1/GPa)
#
#
# Indices 1 2 3 4 5 6 
#
# 1 0.012452 -0.004621 -0.003026 0.000000 0.000000 0.000000
# 2 -0.004621 0.012452 -0.003026 0.000000 0.000000 0.000000
# 3 -0.003026 -0.003026 0.012384 0.000000 0.000000 0.000000
# 4 0.000000 0.000000 0.000000 0.043816 0.000000 0.000000
# 5 0.000000 0.000000 0.000000 0.000000 0.043816 0.000000
# 6 0.000000 0.000000 0.000000 0.000000 0.000000 0.034146
#
#
# Mechanical properties :
#
#
# Convention : Reuss Voigt Hill
#
# Bulk Modulus (GPa) = 62.72041 63.13391 62.92716
# Shear Modulus (GPa) = 26.92145 27.59883 27.26014
#
# Velocity S-wave (km/s) = 3.75092 3.79781 3.77444
# Velocity P-wave (km/s) = 7.17895 7.22672 7.20288
#
# Compressibility (1/GPa) = 0.01594377
#
# Stress axis : x y z
#
# Youngs Moduli (GPa) = 80.30859 80.30859 80.74728
#
# Poissons Ratio (x) = 0.37111 0.24431
# Poissons Ratio (y) = 0.37111 0.24431
# Poissons Ratio (z) = 0.24298 0.24298
#
# Static dielectric constant tensor:
#      x y z
#    x 1.663610 0.000000 0.000000 
#    y 0.000000 1.663610 0.000000 
#    z 0.000000 0.000000 1.702650 
# 
# From -- ./inp_files/672.got.cif
#   From: 2010.05.17/outbox.cif.g08.bks.cpg/sg191_1_cif.got.tgz:672.got - 2010.05.20 12:20:32.
