data_PCOD9588367
_publ_section_title
;
Structure prediction by ZEFSAII (Michael W. Deem and Ramdas Pophale) SiO2 
 PCOD9588367
Probable space group: P 6/M C C
;
_chemical_formula_sum "Si O2"
_cell_formula_units_Z 128
_cell_length_a 29.089689
_cell_length_b 29.089689
_cell_length_c 17.880478
_cell_angle_alpha 90.000000
_cell_angle_beta 90.000000
_cell_angle_gamma 120.000000
_cell_volume 13103.518094
_symmetry_space_group_name_H-M "P 6/M C C"
_symmetry_group_IT_number 192
_symmetry_cell_setting 'hexagonal'
loop_
_space_group_symop_operation_xyz
x,y,z
x-y,x,z
-y,x-y,z
-x,-y,z
-x+y,-x,z
y,-x+y,z
x-y,-y,1/2-z
-x,-x+y,1/2-z
y,x,1/2-z
-y,-x,1/2-z
-x+y,y,1/2-z
x,x-y,1/2-z
-x,-y,-z
-x+y,-x,-z
y,-x+y,-z
x,y,-z
x-y,x,-z
-y,x-y,-z
-x+y,y,1/2+z
x,x-y,1/2+z
-y,-x,1/2+z
y,x,1/2+z
x-y,-y,1/2+z
-x,-x+y,1/2+z
loop_
_atom_site_type_symbol
_atom_site_label
_atom_site_fract_x
_atom_site_fract_y
_atom_site_fract_z
Si Si1 0.638562 0.168560 0.339199
Si Si2 0.058688 0.473653 0.412804
Si Si3 0.455841 0.727920 0.910084
Si Si4 0.585035 0.526348 0.412804
Si Si5 0.666668 0.333334 0.590459
Si Si6 0.638562 0.470003 0.339199
O O1 0.623990 0.109817 0.365201
O O2 0.691800 0.213354 0.377930
O O3 0.587878 0.175757 0.361323
O O4 0.643269 0.173279 0.250000
O O5 0.065688 0.464398 0.500000
O O6 0.057398 0.528699 0.410321
O O7 0.000000 0.428392 0.387850
O O8 0.394021 0.697009 0.885392
O O9 0.478448 0.691800 0.877931
O O10 0.458512 0.729256 0.000000
O O11 0.601290 0.535602 0.500000
O O12 0.623989 0.514174 0.365201
O O13 0.666667 0.333334 0.500000
#
# Coordination Sequence:
#
# PCOD9588367 Si02
#       6
#    24  24  24  24   8  24
#     4  10  19  27  35  49  65  79  94 116 146 172
#     4   8  14  25  39  51  61  75  95 116 137 164
#     4  11  19  29  39  47  59  78 104 123 139 167
#     4   8  14  25  39  51  61  75  95 116 137 164
#     4   9  18  27  37  47  52  72 103 125 139 162
#     4  10  19  27  35  49  65  79  94 116 146 172
#
# _framework density 9.7683689999999999
#
# number of rings (size 3 to 8) (size 9 to 14) (size 15 to 20)
#    0.000    2.625    1.875    2.812    0.000    2.250 
#    0.000    3.750    0.000    0.000    0.000    0.000 
#    0.000    0.000    0.000    0.000    0.000    0.000 
#
# Total GULP energy -712553.102813 kJ/mol
# GULP energy per Si atom -5566.821116 kJ/mol
# Density = 0.974614 g / cm^3
# Si number density = 9.768369 Si / 1000 Ang^3
#
#
#
# Elastic Constant Matrix: (Units=GPa)
#
#
# Indices 1 2 3 4 5 6 
#
# 1 50.2675 29.7779 25.7223 0.0000 0.0000 0.0000
# 2 29.7779 50.2676 25.7222 0.0000 0.0000 0.0000
# 3 25.7223 25.7222 36.7744 0.0000 0.0000 0.0000
# 4 0.0000 0.0000 0.0000 12.0808 0.0000 0.0000
# 5 0.0000 0.0000 0.0000 0.0000 12.0808 0.0000
# 6 0.0000 0.0000 0.0000 0.0000 0.0000 10.2448
#
#
#
# Elastic Compliance Matrix: (Units=1/GPa)
#
#
# Indices 1 2 3 4 5 6 
#
# 1 0.035750 -0.013055 -0.015874 0.000000 0.000000 0.000000
# 2 -0.013055 0.035750 -0.015874 0.000000 0.000000 0.000000
# 3 -0.015874 -0.015874 0.049400 0.000000 0.000000 0.000000
# 4 0.000000 0.000000 0.000000 0.082776 0.000000 0.000000
# 5 0.000000 0.000000 0.000000 0.000000 0.082776 0.000000
# 6 0.000000 0.000000 0.000000 0.000000 0.000000 0.097610
#
#
# Mechanical properties :
#
#
# Convention : Reuss Voigt Hill
#
# Bulk Modulus (GPa) = 31.95636 33.30602 32.63119
# Shear Modulus (GPa) = 10.32842 10.62043 10.47443
#
# Velocity S-wave (km/s) = 3.25519 3.30089 3.27812
# Velocity P-wave (km/s) = 6.84934 6.97837 6.91416
#
# Compressibility (1/GPa) = 0.03129268
#
# Stress axis : x y z
#
# Youngs Moduli (GPa) = 27.97178 27.97195 20.24301
#
# Poissons Ratio (x) = 0.36517 0.32135
# Poissons Ratio (y) = 0.36517 0.32134
# Poissons Ratio (z) = 0.44404 0.44403
#
# Static dielectric constant tensor:
#      x y z
#    x 1.307870 0.000000 0.000000 
#    y 0.000000 1.307870 0.000000 
#    z 0.000000 0.000000 1.322210 
# 
# From -- ./inp_files/5299.got.cif
#   From: 2010.05.17/outbox.cif.g08.bks.cpg/sg192_3_cif.got.tgz:5299.got - 2010.05.20 12:28:01.
