data_PCOD9588949
_publ_section_title
;
Structure prediction by ZEFSAII (Michael W. Deem and Ramdas Pophale) SiO2 
 PCOD9588949
Probable space group: P 63/M C M
;
_chemical_formula_sum "Si O2"
_cell_formula_units_Z 152
_cell_length_a 18.315924
_cell_length_b 18.315924
_cell_length_c 26.823450
_cell_angle_alpha 90.000000
_cell_angle_beta 90.000000
_cell_angle_gamma 120.000000
_cell_volume 7792.968716
_symmetry_space_group_name_H-M "P 63/M C M"
_symmetry_group_IT_number 193
_symmetry_cell_setting 'hexagonal'
loop_
_space_group_symop_operation_xyz
x,y,z
x-y,x,1/2+z
-y,x-y,z
-x,-y,1/2+z
-x+y,-x,z
y,-x+y,1/2+z
x-y,-y,1/2-z
-x,-x+y,1/2-z
y,x,1/2-z
-y,-x,-z
-x+y,y,-z
x,x-y,-z
-x,-y,-z
-x+y,-x,1/2-z
y,-x+y,-z
x,y,1/2-z
x-y,x,-z
-y,x-y,1/2-z
-x+y,y,1/2+z
x,x-y,1/2+z
-y,-x,1/2+z
y,x,z
x-y,-y,z
-x,-x+y,z
loop_
_atom_site_type_symbol
_atom_site_label
_atom_site_fract_x
_atom_site_fract_y
_atom_site_fract_z
Si Si1 0.903550 0.215860 0.147248
Si Si2 0.363343 0.263482 0.193448
Si Si3 0.098028 0.585935 0.554046
Si Si4 0.757687 0.658560 0.465342
Si Si5 0.100134 0.636261 0.804171
Si Si6 0.537352 0.174735 0.644751
Si Si7 0.333334 0.666667 0.810456
O O1 0.833606 0.139322 0.178435
O O2 0.897943 0.201524 0.088367
O O3 0.883561 0.291523 0.157054
O O4 0.000000 0.251926 0.163637
O O5 0.397216 0.271583 0.250000
O O6 0.310770 0.310770 0.192263
O O7 0.438260 0.307747 0.153245
O O8 0.100875 0.550438 0.500000
O O9 0.118797 0.681639 0.545043
O O10 0.155313 0.567364 0.592144
O O11 0.000000 0.534111 0.572734
O O12 0.830031 0.660061 0.500000
O O13 0.711041 0.711041 0.482824
O O14 0.130255 0.676248 0.750000
O O15 0.136932 0.576613 0.816419
O O16 0.000000 0.577603 0.802873
O O17 0.577357 0.270273 0.663870
O O18 0.333334 0.666668 0.750000
#
# Coordination Sequence:
#
# PCOD9588949 Si02
#       7
#    24  24  24  24  24  24   8
#     4  10  21  39  61  88 120 156 203 253 304 371
#     4  11  24  39  60  92 124 159 206 257 314 378
#     4  10  22  39  61  89 121 161 211 263 315 372
#     4  10  22  40  64  93 125 162 209 264 320 384
#     4  10  18  31  56  83 111 155 202 244 295 351
#     4  12  23  39  57  83 123 167 208 258 308 357
#     4  12  27  39  55  83 118 171 219 258 307 359
#
# _framework density 19.504761999999999
#
# number of rings (size 3 to 8) (size 9 to 14) (size 15 to 20)
#    0.000    1.421    1.579    4.263    2.211    2.842 
#    0.000    0.000    0.000    0.789    0.000    0.000 
#    0.000    0.000    0.000    0.000    0.000    0.000 
#
# Total GULP energy -848333.705934 kJ/mol
# GULP energy per Si atom -5581.142802 kJ/mol
# Density = 1.946037 g / cm^3
# Si number density = 19.504762 Si / 1000 Ang^3
#
#
#
# Elastic Constant Matrix: (Units=GPa)
#
#
# Indices 1 2 3 4 5 6 
#
# 1 80.0755 31.2502 34.9959 0.0000 0.0000 0.0000
# 2 31.2502 80.0748 34.9958 0.0000 0.0000 0.0000
# 3 34.9959 34.9958 95.4825 0.0001 0.0000 0.0000
# 4 0.0000 0.0000 0.0001 28.2793 0.0000 0.0000
# 5 0.0000 0.0000 0.0000 0.0000 28.2794 0.0000
# 6 0.0000 0.0000 0.0000 0.0000 0.0000 24.4123
#
#
#
# Elastic Compliance Matrix: (Units=1/GPa)
#
#
# Indices 1 2 3 4 5 6 
#
# 1 0.016077 -0.004404 -0.004278 0.000000 0.000000 0.000000
# 2 -0.004404 0.016077 -0.004278 0.000000 0.000000 0.000000
# 3 -0.004278 -0.004278 0.013609 0.000000 0.000000 0.000000
# 4 0.000000 0.000000 0.000000 0.035362 0.000000 0.000000
# 5 0.000000 0.000000 0.000000 0.000000 0.035361 0.000000
# 6 0.000000 0.000000 0.000000 0.000000 0.000000 0.040963
#
#
# Mechanical properties :
#
#
# Convention : Reuss Voigt Hill
#
# Bulk Modulus (GPa) = 50.39957 50.90183 50.65070
# Shear Modulus (GPa) = 26.31801 26.48693 26.40247
#
# Velocity S-wave (km/s) = 3.67728 3.68907 3.68318
# Velocity P-wave (km/s) = 6.62764 6.65578 6.64172
#
# Compressibility (1/GPa) = 0.01984144
#
# Stress axis : x y z
#
# Youngs Moduli (GPa) = 62.20150 62.20097 73.48012
#
# Poissons Ratio (x) = 0.27396 0.31436
# Poissons Ratio (y) = 0.27396 0.31436
# Poissons Ratio (z) = 0.26610 0.26610
#
# Static dielectric constant tensor:
#      x y z
#    x 1.724630 0.000000 0.000000 
#    y 0.000000 1.724640 0.000000 
#    z 0.000000 0.000000 1.702000 
# 
# From -- ./inp_files/9237.got.cif
#   From: 2010.05.17/outbox.cif.g08.bks.cpg/sg193_5_cif.got.tgz:9237.got - 2010.05.20 12:33:02.
