data_PCOD9588784
_publ_section_title
;
Structure prediction by ZEFSAII (Michael W. Deem and Ramdas Pophale) SiO2 
 PCOD9588784
Probable space group: P 6/M C C
;
_chemical_formula_sum "Si O2"
_cell_formula_units_Z 120
_cell_length_a 14.901911
_cell_length_b 14.901911
_cell_length_c 31.436539
_cell_angle_alpha 90.000000
_cell_angle_beta 90.000000
_cell_angle_gamma 120.000000
_cell_volume 6045.737529
_symmetry_space_group_name_H-M "P 6/M C C"
_symmetry_group_IT_number 192
_symmetry_cell_setting 'hexagonal'
loop_
_space_group_symop_operation_xyz
x,y,z
x-y,x,z
-y,x-y,z
-x,-y,z
-x+y,-x,z
y,-x+y,z
x-y,-y,1/2-z
-x,-x+y,1/2-z
y,x,1/2-z
-y,-x,1/2-z
-x+y,y,1/2-z
x,x-y,1/2-z
-x,-y,-z
-x+y,-x,-z
y,-x+y,-z
x,y,-z
x-y,x,-z
-y,x-y,-z
-x+y,y,1/2+z
x,x-y,1/2+z
-y,-x,1/2+z
y,x,1/2+z
x-y,-y,1/2+z
-x,-x+y,1/2+z
loop_
_atom_site_type_symbol
_atom_site_label
_atom_site_fract_x
_atom_site_fract_y
_atom_site_fract_z
Si Si1 0.440737 0.786341 0.821323
Si Si2 0.262552 0.799367 0.588005
Si Si3 0.080541 0.836223 0.869426
Si Si4 0.641298 0.737785 0.280328
Si Si5 0.113309 0.529425 0.951061
O O1 0.324428 0.758846 0.811449
O O2 0.471368 0.798446 0.870714
O O3 0.530549 0.881314 0.797151
O O4 0.222271 0.879089 0.598762
O O5 0.345917 0.825422 0.551066
O O6 0.166808 0.686935 0.577147
O O7 0.091976 0.799241 0.821966
O O8 0.959970 0.802920 0.874572
O O9 0.698350 0.698350 0.250000
O O10 0.620845 0.810423 0.250000
O O11 0.000000 0.500000 0.934722
O O12 0.105155 0.494646 0.000000
#
# Coordination Sequence:
#
# PCOD9588784 Si02
#       5
#    24  24  24  24  24
#     4   9  19  39  60  80 115 164 202 244 306 378
#     4  11  20  39  60  91 128 162 202 251 306 376
#     4  11  23  40  65  88 119 164 214 273 324 369
#     4  11  22  38  58  84 119 152 206 268 320 376
#     4  11  22  36  60  93 127 163 200 240 300 373
#
# _framework density 19.848693999999998
#
# number of rings (size 3 to 8) (size 9 to 14) (size 15 to 20)
#    0.400    1.000    4.000    2.400    0.000    0.800 
#    0.000    2.000    0.000    0.000    0.000    0.000 
#    0.000    9.600    0.000    0.000    0.000    0.000 
#
# Total GULP energy -669121.745678 kJ/mol
# GULP energy per Si atom -5576.014547 kJ/mol
# Density = 1.980352 g / cm^3
# Si number density = 19.848694 Si / 1000 Ang^3
#
#
#
# Elastic Constant Matrix: (Units=GPa)
#
#
# Indices 1 2 3 4 5 6 
#
# 1 73.8556 20.0830 13.5729 0.0000 0.0000 0.0000
# 2 20.0830 73.8556 13.5729 0.0000 0.0000 0.0000
# 3 13.5729 13.5729 55.7486 0.0000 0.0000 0.0000
# 4 0.0000 0.0000 0.0000 23.9716 0.0000 0.0000
# 5 0.0000 0.0000 0.0000 0.0000 23.9716 0.0000
# 6 0.0000 0.0000 0.0000 0.0000 0.0000 26.8863
#
#
#
# Elastic Compliance Matrix: (Units=1/GPa)
#
#
# Indices 1 2 3 4 5 6 
#
# 1 0.015024 -0.003573 -0.002788 0.000000 0.000000 0.000000
# 2 -0.003573 0.015024 -0.002788 0.000000 0.000000 0.000000
# 3 -0.002788 -0.002788 0.019295 0.000000 0.000000 0.000000
# 4 0.000000 0.000000 0.000000 0.041716 0.000000 0.000000
# 5 0.000000 0.000000 0.000000 0.000000 0.041716 0.000000
# 6 0.000000 0.000000 0.000000 0.000000 0.000000 0.037194
#
#
# Mechanical properties :
#
#
# Convention : Reuss Voigt Hill
#
# Bulk Modulus (GPa) = 32.21097 33.10196 32.65647
# Shear Modulus (GPa) = 25.17440 25.38132 25.27786
#
# Velocity S-wave (km/s) = 3.56520 3.57983 3.57252
# Velocity P-wave (km/s) = 5.76290 5.81380 5.78841
#
# Compressibility (1/GPa) = 0.03104532
#
# Stress axis : x y z
#
# Youngs Moduli (GPa) = 66.56085 66.56085 51.82638
#
# Poissons Ratio (x) = 0.23782 0.14449
# Poissons Ratio (y) = 0.23782 0.14449
# Poissons Ratio (z) = 0.18557 0.18557
#
# Static dielectric constant tensor:
#      x y z
#    x 1.613000 0.000000 0.000000 
#    y 0.000000 1.613000 0.000000 
#    z 0.000000 0.000000 1.715380 
# 
# From -- ./inp_files/6950.got.cif
#   From: 2010.05.17/outbox.cif.g08.bks.cpg/sg192_4_cif.got.tgz:6950.got - 2010.05.20 12:28:01.
