data_PCOD9588727
_publ_section_title
;
Structure prediction by ZEFSAII (Michael W. Deem and Ramdas Pophale) SiO2 
 PCOD9588727
Probable space group: P 6/M C C
;
_chemical_formula_sum "Si O2"
_cell_formula_units_Z 104
_cell_length_a 17.952572
_cell_length_b 17.952572
_cell_length_c 17.410927
_cell_angle_alpha 90.000000
_cell_angle_beta 90.000000
_cell_angle_gamma 120.000000
_cell_volume 4859.659946
_symmetry_space_group_name_H-M "P 6/M C C"
_symmetry_group_IT_number 192
_symmetry_cell_setting 'hexagonal'
loop_
_space_group_symop_operation_xyz
x,y,z
x-y,x,z
-y,x-y,z
-x,-y,z
-x+y,-x,z
y,-x+y,z
x-y,-y,1/2-z
-x,-x+y,1/2-z
y,x,1/2-z
-y,-x,1/2-z
-x+y,y,1/2-z
x,x-y,1/2-z
-x,-y,-z
-x+y,-x,-z
y,-x+y,-z
x,y,-z
x-y,x,-z
-y,x-y,-z
-x+y,y,1/2+z
x,x-y,1/2+z
-y,-x,1/2+z
y,x,1/2+z
x-y,-y,1/2+z
-x,-x+y,1/2+z
loop_
_atom_site_type_symbol
_atom_site_label
_atom_site_fract_x
_atom_site_fract_y
_atom_site_fract_z
Si Si1 0.333334 0.666667 0.657523
Si Si2 0.479431 0.280523 0.409267
Si Si3 0.339147 0.214917 0.818804
Si Si4 0.831130 0.016130 0.909470
Si Si5 0.527448 0.624923 0.275919
O O1 0.333334 0.666667 0.750000
O O2 0.431903 0.710356 0.625061
O O3 0.486617 0.288942 0.500000
O O4 0.391027 0.194273 0.384961
O O5 0.470925 0.354907 0.365098
O O6 0.293390 0.146695 0.750000
O O7 0.267717 0.231100 0.858185
O O8 0.417425 0.289169 0.771305
O O9 0.926468 0.098087 0.894854
O O10 0.812278 0.016684 0.000000
O O11 0.572244 0.572244 0.250000
O O12 0.429385 0.570616 0.250000
#
# Coordination Sequence:
#
# PCOD9588727 Si02
#       5
#     8  24  24  24  24
#     4  12  22  38  67  96 130 170 208 264 331 401
#     4  11  22  38  61  93 125 159 212 270 322 387
#     4  10  22  37  61  89 123 166 212 269 329 401
#     4  10  22  40  63  92 128 172 222 280 345 409
#     4  10  22  41  62  86 123 172 213 257 324 397
#
# _framework density 21.400673999999999
#
# number of rings (size 3 to 8) (size 9 to 14) (size 15 to 20)
#    0.000    1.615    0.000    5.769    6.462    0.923 
#    0.000    4.615    0.000    1.385    0.000    0.000 
#    0.000    0.000    0.000    0.000    0.000    0.000 
#
# Total GULP energy -580155.863781 kJ/mol
# GULP energy per Si atom -5578.421767 kJ/mol
# Density = 2.135197 g / cm^3
# Si number density = 21.400674 Si / 1000 Ang^3
#
#
#
# Elastic Constant Matrix: (Units=GPa)
#
#
# Indices 1 2 3 4 5 6 
#
# 1 62.7392 -5.3923 32.8826 0.0000 0.0000 0.0000
# 2 -5.3923 62.7394 32.8827 -0.0001 0.0000 0.0000
# 3 32.8826 32.8827 176.7641 0.0001 -0.0001 0.0001
# 4 0.0000 -0.0001 0.0001 28.4954 0.0001 0.0000
# 5 0.0000 0.0000 -0.0001 0.0001 28.4954 0.0000
# 6 0.0000 0.0000 0.0001 0.0000 0.0000 34.0657
#
#
#
# Elastic Compliance Matrix: (Units=1/GPa)
#
#
# Indices 1 2 3 4 5 6 
#
# 1 0.018422 0.003745 -0.004124 0.000000 0.000000 0.000000
# 2 0.003745 0.018422 -0.004124 0.000000 0.000000 0.000000
# 3 -0.004124 -0.004124 0.007191 0.000000 0.000000 0.000000
# 4 0.000000 0.000000 0.000000 0.035093 0.000000 0.000000
# 5 0.000000 0.000000 0.000000 0.000000 0.035093 0.000000
# 6 0.000000 0.000000 0.000000 0.000000 0.000000 0.029355
#
#
# Mechanical properties :
#
#
# Convention : Reuss Voigt Hill
#
# Bulk Modulus (GPa) = 28.54666 46.99873 37.77269
# Shear Modulus (GPa) = 30.43970 34.33594 32.38782
#
# Velocity S-wave (km/s) = 3.77552 4.00988 3.89447
# Velocity P-wave (km/s) = 5.68983 6.59150 6.15719
#
# Compressibility (1/GPa) = 0.03503037
#
# Stress axis : x y z
#
# Youngs Moduli (GPa) = 54.28279 54.28293 139.05449
#
# Poissons Ratio (x) = -0.20326 0.57340
# Poissons Ratio (y) = -0.20326 0.57340
# Poissons Ratio (z) = 0.22384 0.22384
#
# Static dielectric constant tensor:
#      x y z
#    x 1.721670 0.000000 0.000000 
#    y 0.000000 1.721670 0.000000 
#    z 0.000000 0.000000 1.755080 
# 
# From -- ./inp_files/2895.got.cif
#   From: 2010.05.17/outbox.cif.g08.bks.cpg/sg192_2_cif.got.tgz:2895.got - 2010.05.20 12:28:01.
