data_PCOD9588566
_publ_section_title
;
Structure prediction by ZEFSAII (Michael W. Deem and Ramdas Pophale) SiO2 
 PCOD9588566
Probable space group: P 6/M C C
;
_chemical_formula_sum "Si O2"
_cell_formula_units_Z 128
_cell_length_a 19.884938
_cell_length_b 19.884938
_cell_length_c 14.698931
_cell_angle_alpha 90.000000
_cell_angle_beta 90.000000
_cell_angle_gamma 120.000000
_cell_volume 5033.439644
_symmetry_space_group_name_H-M "P 6/M C C"
_symmetry_group_IT_number 192
_symmetry_cell_setting 'hexagonal'
loop_
_space_group_symop_operation_xyz
x,y,z
x-y,x,z
-y,x-y,z
-x,-y,z
-x+y,-x,z
y,-x+y,z
x-y,-y,1/2-z
-x,-x+y,1/2-z
y,x,1/2-z
-y,-x,1/2-z
-x+y,y,1/2-z
x,x-y,1/2-z
-x,-y,-z
-x+y,-x,-z
y,-x+y,-z
x,y,-z
x-y,x,-z
-y,x-y,-z
-x+y,y,1/2+z
x,x-y,1/2+z
-y,-x,1/2+z
y,x,1/2+z
x-y,-y,1/2+z
-x,-x+y,1/2+z
loop_
_atom_site_type_symbol
_atom_site_label
_atom_site_fract_x
_atom_site_fract_y
_atom_site_fract_z
Si Si1 0.689934 0.719114 0.351779
Si Si2 0.835860 0.447693 0.610509
Si Si3 0.333334 0.666668 0.890452
Si Si4 0.008173 0.158322 0.138727
Si Si5 0.554970 0.636486 0.106677
Si Si6 0.802422 0.582889 0.610492
O O1 0.700489 0.700489 0.250000
O O2 0.775383 0.762719 0.394316
O O3 0.631595 0.633099 0.388912
O O4 0.659492 0.779501 0.359219
O O5 0.840708 0.456408 0.500000
O O6 0.755762 0.369307 0.635386
O O7 0.903776 0.431461 0.642677
O O8 0.820235 0.515541 0.642443
O O9 0.333334 0.666668 0.000000
O O10 0.082407 0.153148 0.110464
O O11 0.000000 0.156383 0.250000
O O12 0.574128 0.721356 0.142880
O O13 0.540416 0.638981 0.000000
O O14 0.800778 0.581974 0.500000
#
# Coordination Sequence:
#
# PCOD9588566 Si02
#       6
#    24  24   8  24  24  24
#     4  11  23  37  52  74 113 156 183 208 256 329
#     4   9  16  29  54  85 110 132 170 230 287 327
#     4   9  12  24  51  84 109 128 166 225 289 332
#     4   9  17  31  53  78 100 126 167 218 264 304
#     4  10  20  35  57  83 108 137 178 228 278 326
#     4  10  20  35  57  83 108 137 178 228 278 326
#
# _framework density 25.429925000000001
#
# number of rings (size 3 to 8) (size 9 to 14) (size 15 to 20)
#    0.000    2.250    1.875    1.875    0.000    3.750 
#    0.000    4.688    0.000    0.000    0.000    0.000 
#    0.000    9.000    0.000    0.000    0.000    0.000 
#
# Total GULP energy -715243.463748 kJ/mol
# GULP energy per Si atom -5587.839561 kJ/mol
# Density = 2.537205 g / cm^3
# Si number density = 25.429925 Si / 1000 Ang^3
#
#
#
# Elastic Constant Matrix: (Units=GPa)
#
#
# Indices 1 2 3 4 5 6 
#
# 1 61.7777 -17.9969 -0.1159 0.0000 0.0000 0.0001
# 2 -17.9969 61.7782 -0.1161 0.0000 0.0000 -0.0001
# 3 -0.1159 -0.1161 78.3350 0.0001 0.0000 0.0000
# 4 0.0000 0.0000 0.0001 3.6751 0.0001 0.0000
# 5 0.0000 0.0000 0.0000 0.0001 3.6755 0.0000
# 6 0.0001 -0.0001 0.0000 0.0000 0.0000 39.8871
#
#
#
# Elastic Compliance Matrix: (Units=1/GPa)
#
#
# Indices 1 2 3 4 5 6 
#
# 1 0.017688 0.005153 0.000034 0.000000 0.000000 0.000000
# 2 0.005153 0.017688 0.000034 0.000000 0.000000 0.000000
# 3 0.000034 0.000034 0.012766 0.000000 0.000000 0.000000
# 4 0.000000 0.000000 0.000000 0.272104 -0.000008 0.000000
# 5 0.000000 0.000000 0.000000 -0.000008 0.272074 0.000000
# 6 0.000000 0.000000 0.000000 0.000000 0.000000 0.025071
#
#
# Mechanical properties :
#
#
# Convention : Reuss Voigt Hill
#
# Bulk Modulus (GPa) = 17.06972 18.38146 17.72559
# Shear Modulus (GPa) = 7.98114 24.12217 16.05166
#
# Velocity S-wave (km/s) = 1.77350 3.08323 2.51512
# Velocity P-wave (km/s) = 3.30466 4.46308 3.92682
#
# Compressibility (1/GPa) = 0.05858326
#
# Stress axis : x y z
#
# Youngs Moduli (GPa) = 56.53469 56.53516 78.33438
#
# Poissons Ratio (x) = -0.29132 -0.00265
# Poissons Ratio (y) = -0.29132 -0.00265
# Poissons Ratio (z) = -0.00191 -0.00191
#
# Static dielectric constant tensor:
#      x y z
#    x 2.000430 0.000000 0.000000 
#    y 0.000000 2.000430 0.000000 
#    z 0.000000 0.000000 2.185010 
# 
# From -- ./inp_files/5038.got.cif
#   From: 2010.05.17/outbox.cif.g08.bks.cpg/sg192_3_cif.got.tgz:5038.got - 2010.05.20 12:28:01.
