data_PCOD9588750
_publ_section_title
;
Structure prediction by ZEFSAII (Michael W. Deem and Ramdas Pophale) SiO2 
 PCOD9588750
Probable space group: P 6/M C C
;
_chemical_formula_sum "Si O2"
_cell_formula_units_Z 36
_cell_length_a 13.306933
_cell_length_b 13.306933
_cell_length_c 9.662377
_cell_angle_alpha 90.000000
_cell_angle_beta 90.000000
_cell_angle_gamma 120.000000
_cell_volume 1481.735038
_symmetry_space_group_name_H-M "P 6/M C C"
_symmetry_group_IT_number 192
_symmetry_cell_setting 'hexagonal'
loop_
_space_group_symop_operation_xyz
x,y,z
x-y,x,z
-y,x-y,z
-x,-y,z
-x+y,-x,z
y,-x+y,z
x-y,-y,1/2-z
-x,-x+y,1/2-z
y,x,1/2-z
-y,-x,1/2-z
-x+y,y,1/2-z
x,x-y,1/2-z
-x,-y,-z
-x+y,-x,-z
y,-x+y,-z
x,y,-z
x-y,x,-z
-y,x-y,-z
-x+y,y,1/2+z
x,x-y,1/2+z
-y,-x,1/2+z
y,x,1/2+z
x-y,-y,1/2+z
-x,-x+y,1/2+z
loop_
_atom_site_type_symbol
_atom_site_label
_atom_site_fract_x
_atom_site_fract_y
_atom_site_fract_z
Si Si1 0.016628 0.249347 0.000000
Si Si2 0.665567 0.531284 0.340320
O O1 0.128405 0.230917 0.000000
O O2 0.034388 0.337846 0.877057
O O3 0.555738 0.444263 0.250000
O O4 0.769520 0.539040 0.250000
O O5 0.656352 0.484378 0.500000
#
# Coordination Sequence:
#
# PCOD9588750 Si02
#       2
#    12  24
#     4  10  25  48  82 118 164 216 275 334 396 480
#     4  10  22  43  77 110 156 211 267 334 412 488
#
# _framework density 24.295843999999999
#
# number of rings (size 3 to 8) (size 9 to 14) (size 15 to 20)
#    2.000    0.000    0.000    3.000    0.000    2.667 
#    0.000   13.333    0.000    4.000    0.000    0.000 
#    0.000    0.000    0.000    0.000    0.000    0.000 
#
# Total GULP energy -200513.390182 kJ/mol
# GULP energy per Si atom -5569.816394 kJ/mol
# Density = 2.424055 g / cm^3
# Si number density = 24.295844 Si / 1000 Ang^3
#
#
#
# Elastic Constant Matrix: (Units=GPa)
#
#
# Indices 1 2 3 4 5 6 
#
# 1 77.3882 16.2002 48.7158 0.0000 0.0000 0.0000
# 2 16.2002 77.3882 48.7158 0.0000 0.0000 0.0000
# 3 48.7158 48.7158 278.5737 0.0000 0.0000 0.0000
# 4 0.0000 0.0000 0.0000 -182.1153 0.0000 0.0000
# 5 0.0000 0.0000 0.0000 0.0000 -182.1153 0.0000
# 6 0.0000 0.0000 0.0000 0.0000 0.0000 30.5940
#
#
#
# Elastic Compliance Matrix: (Units=1/GPa)
#
#
# Indices 1 2 3 4 5 6 
#
# 1 0.014703 -0.001640 -0.002284 0.000000 0.000000 0.000000
# 2 -0.001640 0.014703 -0.002284 0.000000 0.000000 0.000000
# 3 -0.002284 -0.002284 0.004389 0.000000 0.000000 0.000000
# 4 0.000000 0.000000 0.000000 -0.005491 0.000000 0.000000
# 5 0.000000 0.000000 0.000000 0.000000 -0.005491 0.000000
# 6 0.000000 0.000000 0.000000 0.000000 0.000000 0.032686
#
#
# Mechanical properties :
#
#
# Convention : Reuss Voigt Hill
#
# Bulk Modulus (GPa) = 46.77797 73.40153 60.08975
# Shear Modulus (GPa) = 66.62870 -45.41280 10.60795
#
# Velocity S-wave (km/s) = 5.24247 -4.32807 2.09180
# Velocity P-wave (km/s) = 7.47930 2.30237 5.53357
#
# Compressibility (1/GPa) = 0.02137758
#
# Stress axis : x y z
#
# Youngs Moduli (GPa) = 68.01227 68.01227 227.85727
#
# Poissons Ratio (x) = 0.11153 0.52053
# Poissons Ratio (y) = 0.11153 0.52053
# Poissons Ratio (z) = 0.15537 0.15537
#
# Static dielectric constant tensor:
#      x y z
#    x 1.962960 0.000000 0.000000 
#    y 0.000000 1.962960 0.000000 
#    z 0.000000 0.000000 2.001620 
# 
# From -- ./inp_files/115.got.cif
#   From: 2010.05.17/outbox.cif.g08.bks.cpg/sg192_1_cif.got.tgz:115.got - 2010.05.20 12:28:01.
