data_PCOD9588194
_publ_section_title
;
Structure prediction by ZEFSAII (Michael W. Deem and Ramdas Pophale) SiO2 
 PCOD9588194
Probable space group: P 6/M M M
;
_chemical_formula_sum "Si O2"
_cell_formula_units_Z 132
_cell_length_a 25.551693
_cell_length_b 25.551693
_cell_length_c 13.694852
_cell_angle_alpha 90.000000
_cell_angle_beta 90.000000
_cell_angle_gamma 120.000000
_cell_volume 7743.322306
_symmetry_space_group_name_H-M "P 6/M M M"
_symmetry_group_IT_number 191
_symmetry_cell_setting 'hexagonal'
loop_
_space_group_symop_operation_xyz
x,y,z
x-y,x,z
-y,x-y,z
-x,-y,z
-x+y,-x,z
y,-x+y,z
x-y,-y,-z
-x,-x+y,-z
y,x,-z
-y,-x,-z
-x+y,y,-z
x,x-y,-z
-x,-y,-z
-x+y,-x,-z
y,-x+y,-z
x,y,-z
x-y,x,-z
-y,x-y,-z
-x+y,y,z
x,x-y,z
-y,-x,z
y,x,z
x-y,-y,z
-x,-x+y,z
loop_
_atom_site_type_symbol
_atom_site_label
_atom_site_fract_x
_atom_site_fract_y
_atom_site_fract_z
Si Si1 0.793668 0.587335 0.383685
Si Si2 0.729290 0.864645 0.379862
Si Si3 0.784738 0.000000 0.611378
Si Si4 0.188637 0.931200 0.118930
Si Si5 0.261237 0.863557 0.114737
Si Si6 0.000000 0.660093 0.389123
Si Si7 0.667296 0.550747 0.297305
Si Si8 0.463437 0.536564 0.382224
O O1 0.794787 0.589575 0.500000
O O2 0.829175 0.658350 0.350150
O O3 0.725200 0.553054 0.347234
O O4 0.727813 0.863907 0.500000
O O5 0.765265 0.934245 0.347138
O O6 0.722134 0.000000 0.605739
O O7 0.805987 0.000000 0.500000
O O8 0.121595 0.878406 0.147748
O O9 0.235282 0.907815 0.144102
O O10 0.213883 0.000000 0.151987
O O11 0.187853 0.932090 0.000000
O O12 0.204261 0.795740 0.128045
O O13 0.316854 0.875544 0.182748
O O14 0.275788 0.872088 0.000000
O O15 0.058453 0.669742 0.334532
O O16 0.000000 0.638784 0.500000
O O17 0.602682 0.498722 0.333579
O O18 0.500000 0.500000 0.364720
O O19 0.459349 0.540652 0.500000
#
# Coordination Sequence:
#
# PCOD9588194 Si02
#       8
#    12  12  12  24  24  12  24  12
#     4  11  20  32  55  84 110 137 184 241 287 332
#     4   9  16  26  42  66  98 136 173 223 282 328
#     4   9  16  26  41  66 100 135 172 224 281 328
#     4   8  14  25  43  66  97 137 180 228 285 340
#     4   9  19  36  55  81 112 141 181 237 293 344
#     4  11  20  31  51  78 113 148 188 234 274 336
#     4  12  22  36  57  85 113 153 194 227 281 341
#     4  11  24  40  57  80 120 165 197 224 266 339
#
# _framework density 17.046945999999998
#
# number of rings (size 3 to 8) (size 9 to 14) (size 15 to 20)
#    0.000    2.091    3.636    2.727    1.273    0.000 
#    0.000    0.455    0.000    1.273    0.000    3.818 
#    0.000    0.000    0.000    0.000    2.727    0.000 
#
# Total GULP energy -736695.127530 kJ/mol
# GULP energy per Si atom -5581.023693 kJ/mol
# Density = 1.700815 g / cm^3
# Si number density = 17.046946 Si / 1000 Ang^3
#
#
#
# Elastic Constant Matrix: (Units=GPa)
#
#
# Indices 1 2 3 4 5 6 
#
# 1 126.6283 67.6247 48.5438 0.0000 0.0000 0.0000
# 2 67.6247 126.6283 48.5438 0.0000 0.0000 0.0000
# 3 48.5438 48.5438 102.3694 0.0000 0.0000 0.0000
# 4 0.0000 0.0000 0.0000 26.5239 0.0000 0.0000
# 5 0.0000 0.0000 0.0000 0.0000 26.5239 0.0000
# 6 0.0000 0.0000 0.0000 0.0000 0.0000 29.5018
#
#
#
# Elastic Compliance Matrix: (Units=1/GPa)
#
#
# Indices 1 2 3 4 5 6 
#
# 1 0.011848 -0.005101 -0.003199 0.000000 0.000000 0.000000
# 2 -0.005101 0.011848 -0.003199 0.000000 0.000000 0.000000
# 3 -0.003199 -0.003199 0.012803 0.000000 0.000000 0.000000
# 4 0.000000 0.000000 0.000000 0.037702 0.000000 0.000000
# 5 0.000000 0.000000 0.000000 0.000000 0.037702 0.000000
# 6 0.000000 0.000000 0.000000 0.000000 0.000000 0.033896
#
#
# Mechanical properties :
#
#
# Convention : Reuss Voigt Hill
#
# Bulk Modulus (GPa) = 74.07875 76.11673 75.09774
# Shear Modulus (GPa) = 28.85229 29.23752 29.04490
#
# Velocity S-wave (km/s) = 4.11849 4.14589 4.13221
# Velocity P-wave (km/s) = 8.13425 8.22594 8.18022
#
# Compressibility (1/GPa) = 0.01349915
#
# Stress axis : x y z
#
# Youngs Moduli (GPa) = 84.40557 84.40557 78.10722
#
# Poissons Ratio (x) = 0.43052 0.24990
# Poissons Ratio (y) = 0.43052 0.24990
# Poissons Ratio (z) = 0.27005 0.27005
#
# Static dielectric constant tensor:
#      x y z
#    x 1.564820 0.000000 0.000000 
#    y 0.000000 1.564820 0.000000 
#    z 0.000000 0.000000 1.660520 
# 
# From -- ./inp_files/5044.got.cif
#   From: 2010.05.17/outbox.cif.g08.bks.cpg/sg191_3_cif.got.tgz:5044.got - 2010.05.20 12:20:32.
