data_PCOD9588456
_publ_section_title
;
Structure prediction by ZEFSAII (Michael W. Deem and Ramdas Pophale) SiO2 
 PCOD9588456
Probable space group: P 6/M C C
;
_chemical_formula_sum "Si O2"
_cell_formula_units_Z 92
_cell_length_a 18.056291
_cell_length_b 18.056291
_cell_length_c 17.811378
_cell_angle_alpha 90.000000
_cell_angle_beta 90.000000
_cell_angle_gamma 120.000000
_cell_volume 5029.041771
_symmetry_space_group_name_H-M "P 6/M C C"
_symmetry_group_IT_number 192
_symmetry_cell_setting 'hexagonal'
loop_
_space_group_symop_operation_xyz
x,y,z
x-y,x,z
-y,x-y,z
-x,-y,z
-x+y,-x,z
y,-x+y,z
x-y,-y,1/2-z
-x,-x+y,1/2-z
y,x,1/2-z
-y,-x,1/2-z
-x+y,y,1/2-z
x,x-y,1/2-z
-x,-y,-z
-x+y,-x,-z
y,-x+y,-z
x,y,-z
x-y,x,-z
-y,x-y,-z
-x+y,y,1/2+z
x,x-y,1/2+z
-y,-x,1/2+z
y,x,1/2+z
x-y,-y,1/2+z
-x,-x+y,1/2+z
loop_
_atom_site_type_symbol
_atom_site_label
_atom_site_fract_x
_atom_site_fract_y
_atom_site_fract_z
Si Si1 0.737248 0.509914 0.162981
Si Si2 0.449617 0.397909 0.410197
Si Si3 0.805367 0.948654 0.500000
Si Si4 0.643946 0.739401 0.084669
Si Si5 0.333334 0.666668 0.588450
O O1 0.748250 0.496499 0.250000
O O2 0.655720 0.518977 0.138958
O O3 0.823111 0.593754 0.136332
O O4 0.727591 0.428074 0.119154
O O5 0.500000 0.500000 0.397482
O O6 0.456865 0.383160 0.500000
O O7 0.350344 0.364928 0.392887
O O8 0.837223 0.881515 0.500000
O O9 0.742081 0.931987 0.429721
O O10 0.604698 0.725064 0.000000
O O11 0.333334 0.666668 0.500000
#
# Coordination Sequence:
#
# PCOD9588456 Si02
#       5
#    24  24  12  24   8
#     4  12  24  39  59  89 128 159 205 259 318 373
#     4  10  20  37  62  88 117 161 213 256 305 368
#     4  10  19  34  59  88 116 146 192 248 298 354
#     4   9  20  36  60  85 114 159 201 249 300 366
#     4  12  25  41  61  81 115 170 217 252 298 353
#
# _framework density 18.293744
#
# number of rings (size 3 to 8) (size 9 to 14) (size 15 to 20)
#    0.783    0.783    0.000    6.391    0.000    3.130 
#    0.000    1.304    0.000    0.000    0.000    0.000 
#    0.000    2.087    0.000    0.000    0.000    0.000 
#
# Total GULP energy -513416.499346 kJ/mol
# GULP energy per Si atom -5580.614123 kJ/mol
# Density = 1.825211 g / cm^3
# Si number density = 18.293744 Si / 1000 Ang^3
#
#
#
# Elastic Constant Matrix: (Units=GPa)
#
#
# Indices 1 2 3 4 5 6 
#
# 1 122.9487 62.1187 50.1303 -0.0008 0.0023 0.0003
# 2 62.1187 122.9471 50.1308 0.0012 -0.0046 -0.0003
# 3 50.1303 50.1308 99.2375 -0.0031 -0.0009 0.0004
# 4 -0.0008 0.0012 -0.0031 -27.1385 -0.0041 0.0035
# 5 0.0023 -0.0046 -0.0009 -0.0041 -27.1852 0.0010
# 6 0.0003 -0.0003 0.0004 0.0035 0.0010 30.4154
#
#
#
# Elastic Compliance Matrix: (Units=1/GPa)
#
#
# Indices 1 2 3 4 5 6 
#
# 1 0.011939 -0.004500 -0.003758 0.000000 0.000002 0.000000
# 2 -0.004500 0.011940 -0.003758 0.000001 -0.000002 0.000000
# 3 -0.003758 -0.003758 0.013874 -0.000002 0.000000 0.000000
# 4 0.000000 0.000001 -0.000002 -0.036848 0.000006 0.000004
# 5 0.000002 -0.000002 0.000000 0.000006 -0.036785 0.000001
# 6 0.000000 0.000000 0.000000 0.000004 0.000001 0.032878
#
#
# Mechanical properties :
#
#
# Convention : Reuss Voigt Hill
#
# Bulk Modulus (GPa) = 72.88518 74.43255 73.65886
# Shear Modulus (GPa) = 195.28368 7.40189 101.34279
#
# Velocity S-wave (km/s) = 10.34314 2.01368 7.45102
# Velocity P-wave (km/s) = 13.51181 6.79576 10.69465
#
# Compressibility (1/GPa) = 0.01372021
#
# Stress axis : x y z
#
# Youngs Moduli (GPa) = 83.75684 83.75501 72.07895
#
# Poissons Ratio (x) = 0.37690 0.27087
# Poissons Ratio (y) = 0.37691 0.27089
# Poissons Ratio (z) = 0.31476 0.31477
#
# Static dielectric constant tensor:
#      x y z
#    x 1.625260 0.000000 0.000000 
#    y 0.000000 1.625260 0.000000 
#    z 0.000000 0.000000 1.624770 
# 
# From -- ./inp_files/4023.got.cif
#   From: 2010.05.17/outbox.cif.g08.bks.cpg/sg192_3_cif.got.tgz:4023.got - 2010.05.20 12:28:01.
