data_PCOD9588044
_publ_section_title
;
Structure prediction by ZEFSAII (Michael W. Deem and Ramdas Pophale) SiO2 
 PCOD9588044
Probable space group: P 6/M M M
;
_chemical_formula_sum "Si O2"
_cell_formula_units_Z 108
_cell_length_a 20.664124
_cell_length_b 20.664124
_cell_length_c 18.166505
_cell_angle_alpha 90.000000
_cell_angle_beta 90.000000
_cell_angle_gamma 120.000000
_cell_volume 6717.938333
_symmetry_space_group_name_H-M "P 6/M M M"
_symmetry_group_IT_number 191
_symmetry_cell_setting 'hexagonal'
loop_
_space_group_symop_operation_xyz
x,y,z
x-y,x,z
-y,x-y,z
-x,-y,z
-x+y,-x,z
y,-x+y,z
x-y,-y,-z
-x,-x+y,-z
y,x,-z
-y,-x,-z
-x+y,y,-z
x,x-y,-z
-x,-y,-z
-x+y,-x,-z
y,-x+y,-z
x,y,-z
x-y,x,-z
-y,x-y,-z
-x+y,y,z
x,x-y,z
-y,-x,z
y,x,z
x-y,-y,z
-x,-x+y,z
loop_
_atom_site_type_symbol
_atom_site_label
_atom_site_fract_x
_atom_site_fract_y
_atom_site_fract_z
Si Si1 0.442398 0.145138 0.154073
Si Si2 0.914278 0.457139 0.394542
Si Si3 0.467894 0.378328 0.000000
Si Si4 0.574470 0.711618 0.581463
Si Si5 0.913875 0.456938 0.219724
Si Si6 0.680639 0.915623 0.278274
O O1 0.460488 0.230244 0.154093
O O2 0.502387 0.130196 0.194233
O O3 0.367825 0.099978 0.203548
O O4 0.443548 0.117720 0.071724
O O5 0.874400 0.370894 0.416484
O O6 0.918158 0.459079 0.306712
O O7 0.000000 0.500000 0.420955
O O8 0.423717 0.423717 0.000000
O O9 0.556662 0.443339 0.000000
O O10 0.610178 0.721422 0.500000
O O11 0.553213 0.776607 0.588688
O O12 0.627880 0.723609 0.650809
O O13 0.000000 0.500000 0.189934
O O14 0.702226 0.851113 0.283594
O O15 0.747282 0.000000 0.278186
#
# Coordination Sequence:
#
# PCOD9588044 Si02
#       6
#    24  12  12  24  12  24
#     4  11  22  36  53  77 105 135 174 217 261 303
#     4  11  21  32  54  78  98 131 179 226 262 306
#     4  11  21  34  56  78  99 134 177 217 258 305
#     4  10  21  35  50  73 104 136 173 216 263 308
#     4  11  20  34  56  76  99 135 183 219 258 316
#     4  10  20  35  56  78 104 133 164 207 254 306
#
# _framework density 16.076360000000001
#
# number of rings (size 3 to 8) (size 9 to 14) (size 15 to 20)
#    0.000    1.444    3.333    3.333    0.000    2.222 
#    1.333    0.000    0.000    0.222    0.000    0.000 
#    0.000    0.000    0.000    5.556    0.000   23.111 
#
# Total GULP energy -602369.970949 kJ/mol
# GULP energy per Si atom -5577.499731 kJ/mol
# Density = 1.603977 g / cm^3
# Si number density = 16.076360 Si / 1000 Ang^3
#
#
#
# Elastic Constant Matrix: (Units=GPa)
#
#
# Indices 1 2 3 4 5 6 
#
# 1 95.6694 63.6734 38.5429 0.0000 0.0000 0.0000
# 2 63.6734 95.6694 38.5429 0.0000 0.0000 0.0000
# 3 38.5429 38.5429 133.5561 0.0000 0.0000 0.0000
# 4 0.0000 0.0000 0.0000 50.0295 0.0000 0.0000
# 5 0.0000 0.0000 0.0000 0.0000 50.0295 0.0000
# 6 0.0000 0.0000 0.0000 0.0000 0.0000 15.9980
#
#
#
# Elastic Compliance Matrix: (Units=1/GPa)
#
#
# Indices 1 2 3 4 5 6 
#
# 1 0.019274 -0.011980 -0.002105 0.000000 0.000000 0.000000
# 2 -0.011980 0.019274 -0.002105 0.000000 0.000000 0.000000
# 3 -0.002105 -0.002105 0.008702 0.000000 0.000000 0.000000
# 4 0.000000 0.000000 0.000000 0.019988 0.000000 0.000000
# 5 0.000000 0.000000 0.000000 0.000000 0.019988 0.000000
# 6 0.000000 0.000000 0.000000 0.000000 0.000000 0.062508
#
#
# Mechanical properties :
#
#
# Convention : Reuss Voigt Hill
#
# Bulk Modulus (GPa) = 67.24647 67.37928 67.31288
# Shear Modulus (GPa) = 26.72771 35.48708 31.10739
#
# Velocity S-wave (km/s) = 4.08186 4.70340 4.40361
# Velocity P-wave (km/s) = 8.00847 8.45571 8.23513
#
# Compressibility (1/GPa) = 0.01487067
#
# Stress axis : x y z
#
# Youngs Moduli (GPa) = 51.88321 51.88321 114.91003
#
# Poissons Ratio (x) = 0.62156 0.24189
# Poissons Ratio (y) = 0.62156 0.24189
# Poissons Ratio (z) = 0.10921 0.10921
#
# Static dielectric constant tensor:
#      x y z
#    x 1.523100 0.000000 0.000000 
#    y 0.000000 1.523100 0.000000 
#    z 0.000000 0.000000 1.589240 
# 
# From -- ./inp_files/6201.got.cif
#   From: 2010.05.17/outbox.cif.g08.bks.cpg/sg191_4_cif.got.tgz:6201.got - 2010.05.20 12:20:32.
