data_PCOD9588650
_publ_section_title
;
Structure prediction by ZEFSAII (Michael W. Deem and Ramdas Pophale) SiO2 
 PCOD9588650
Probable space group: P 6/M C C
;
_chemical_formula_sum "Si O2"
_cell_formula_units_Z 104
_cell_length_a 20.040489
_cell_length_b 20.040489
_cell_length_c 17.139780
_cell_angle_alpha 90.000000
_cell_angle_beta 90.000000
_cell_angle_gamma 120.000000
_cell_volume 5961.458206
_symmetry_space_group_name_H-M "P 6/M C C"
_symmetry_group_IT_number 192
_symmetry_cell_setting 'hexagonal'
loop_
_space_group_symop_operation_xyz
x,y,z
x-y,x,z
-y,x-y,z
-x,-y,z
-x+y,-x,z
y,-x+y,z
x-y,-y,1/2-z
-x,-x+y,1/2-z
y,x,1/2-z
-y,-x,1/2-z
-x+y,y,1/2-z
x,x-y,1/2-z
-x,-y,-z
-x+y,-x,-z
y,-x+y,-z
x,y,-z
x-y,x,-z
-y,x-y,-z
-x+y,y,1/2+z
x,x-y,1/2+z
-y,-x,1/2+z
y,x,1/2+z
x-y,-y,1/2+z
-x,-x+y,1/2+z
loop_
_atom_site_type_symbol
_atom_site_label
_atom_site_fract_x
_atom_site_fract_y
_atom_site_fract_z
Si Si1 0.666667 0.333334 0.157355
Si Si2 0.289988 0.289497 0.844089
Si Si3 0.287488 0.785846 0.406597
Si Si4 0.588264 0.546931 0.094078
Si Si5 0.831954 0.168582 0.344437
O O1 0.666668 0.333334 0.250000
O O2 0.579599 0.283652 0.126597
O O3 0.288811 0.288811 0.750000
O O4 0.365071 0.367529 0.871538
O O5 0.295598 0.215964 0.870698
O O6 0.216431 0.296019 0.870881
O O7 0.282409 0.780164 0.500000
O O8 0.362669 0.868037 0.385581
O O9 0.214712 0.790325 0.374184
O O10 0.500000 0.500000 0.120594
O O11 0.588705 0.552767 0.000000
O O12 0.830918 0.169083 0.250000
#
# Coordination Sequence:
#
# PCOD9588650 Si02
#       5
#     8  24  24  24  24
#     4  12  25  38  52  72 103 137 172 213 253 299
#     4   9  18  32  52  75 102 133 170 211 255 308
#     4  10  21  36  52  74 101 133 174 212 256 305
#     4   9  19  34  50  71  97 129 168 210 256 302
#     4   9  18  34  53  77 104 136 172 211 258 307
#
# _framework density 17.445395999999999
#
# number of rings (size 3 to 8) (size 9 to 14) (size 15 to 20)
#    0.000    2.538    0.000    1.385    3.231    1.385 
#    0.000    0.000    0.000    0.462    0.000    3.231 
#    0.000    0.000    0.000   11.538    0.000   12.000 
#
# Total GULP energy -580146.425380 kJ/mol
# GULP energy per Si atom -5578.331013 kJ/mol
# Density = 1.740569 g / cm^3
# Si number density = 17.445396 Si / 1000 Ang^3
#
#
#
# Elastic Constant Matrix: (Units=GPa)
#
#
# Indices 1 2 3 4 5 6 
#
# 1 125.1821 94.0441 19.4010 0.0017 -0.0006 0.0003
# 2 94.0441 125.1832 19.4008 0.0000 -0.0002 0.0003
# 3 19.4010 19.4008 14.3150 -0.0001 0.0011 -0.0001
# 4 0.0017 0.0000 -0.0001 -6.2677 0.0005 -0.0002
# 5 -0.0006 -0.0002 0.0011 0.0005 -6.2897 -0.0008
# 6 0.0003 0.0003 -0.0001 -0.0002 -0.0008 15.5687
#
#
#
# Elastic Compliance Matrix: (Units=1/GPa)
#
#
# Indices 1 2 3 4 5 6 
#
# 1 0.019058 -0.013057 -0.008133 0.000005 -0.000003 0.000000
# 2 -0.013057 0.019058 -0.008133 -0.000003 -0.000001 0.000000
# 3 -0.008133 -0.008133 0.091902 -0.000004 0.000017 0.000001
# 4 0.000005 -0.000003 -0.000004 -0.159547 -0.000013 -0.000002
# 5 -0.000003 -0.000001 0.000017 -0.000013 -0.158990 -0.000008
# 6 0.000000 0.000000 0.000001 -0.000002 -0.000008 0.064231
#
#
# Mechanical properties :
#
#
# Convention : Reuss Voigt Hill
#
# Bulk Modulus (GPa) = 14.01116 58.93025 36.47070
# Shear Modulus (GPa) = -119.46880 9.39121 -55.03879
#
# Velocity S-wave (km/s) = -8.28434 2.32269 -5.62296
# Velocity P-wave (km/s) = 9.13554 6.40674 4.60498
#
# Compressibility (1/GPa) = 0.07137168
#
# Stress axis : x y z
#
# Youngs Moduli (GPa) = 52.47155 52.47243 10.88117
#
# Poissons Ratio (x) = 0.68512 0.08850
# Poissons Ratio (y) = 0.68511 0.08849
# Poissons Ratio (z) = 0.42678 0.42674
#
# Static dielectric constant tensor:
#      x y z
#    x 1.588740 0.000000 0.000000 
#    y 0.000000 1.588740 0.000000 
#    z 0.000000 0.000000 1.586530 
# 
# From -- ./inp_files/2862.got.cif
#   From: 2010.05.17/outbox.cif.g08.bks.cpg/sg192_2_cif.got.tgz:2862.got - 2010.05.20 12:28:01.
