data_PCOD9588622
_publ_section_title
;
Structure prediction by ZEFSAII (Michael W. Deem and Ramdas Pophale) SiO2 
 PCOD9588622
Probable space group: P 6/M C C
;
_chemical_formula_sum "Si O2"
_cell_formula_units_Z 44
_cell_length_a 10.044304
_cell_length_b 10.044304
_cell_length_c 23.086455
_cell_angle_alpha 90.000000
_cell_angle_beta 90.000000
_cell_angle_gamma 120.000000
_cell_volume 2017.100697
_symmetry_space_group_name_H-M "P 6/M C C"
_symmetry_group_IT_number 192
_symmetry_cell_setting 'hexagonal'
loop_
_space_group_symop_operation_xyz
x,y,z
x-y,x,z
-y,x-y,z
-x,-y,z
-x+y,-x,z
y,-x+y,z
x-y,-y,1/2-z
-x,-x+y,1/2-z
y,x,1/2-z
-y,-x,1/2-z
-x+y,y,1/2-z
x,x-y,1/2-z
-x,-y,-z
-x+y,-x,-z
y,-x+y,-z
x,y,-z
x-y,x,-z
-y,x-y,-z
-x+y,y,1/2+z
x,x-y,1/2+z
-y,-x,1/2+z
y,x,1/2+z
x-y,-y,1/2+z
-x,-x+y,1/2+z
loop_
_atom_site_type_symbol
_atom_site_label
_atom_site_fract_x
_atom_site_fract_y
_atom_site_fract_z
Si Si1 0.284329 0.471296 0.000000
Si Si2 0.649889 0.763593 0.627781
Si Si3 0.333335 0.666668 0.318616
O O1 0.451666 0.626292 0.000000
O O2 0.256019 0.378221 0.058621
O O3 0.771481 0.712039 0.643851
O O4 0.482936 0.666678 0.656632
O O5 0.333334 0.666667 0.250000
#
# Coordination Sequence:
#
# PCOD9588622 Si02
#       3
#    12  24   8
#     4  10  20  38  66 102 132 168 216 262 314 386
#     4  12  25  43  68 100 136 171 211 266 328 391
#     4  12  27  46  71  94 123 171 232 278 313 375
#
# _framework density 21.813489000000001
#
# number of rings (size 3 to 8) (size 9 to 14) (size 15 to 20)
#    0.545    0.000    5.455    3.818    0.000    6.545 
#    0.000    2.727    0.000    3.273    0.000    0.000 
#    0.000    0.000    0.000    0.000    0.000    0.000 
#
# Total GULP energy -246463.009816 kJ/mol
# GULP energy per Si atom -5601.432041 kJ/mol
# Density = 2.176384 g / cm^3
# Si number density = 21.813489 Si / 1000 Ang^3
#
#
#
# Elastic Constant Matrix: (Units=GPa)
#
#
# Indices 1 2 3 4 5 6 
#
# 1 96.1012 12.7131 3.8488 -0.0001 -0.0002 -0.0003
# 2 12.7131 96.1005 3.8483 -0.0004 -0.0001 -0.0004
# 3 3.8488 3.8483 99.5905 0.0004 -0.0004 -0.0002
# 4 -0.0001 -0.0004 0.0004 -11.1021 0.0002 0.0000
# 5 -0.0002 -0.0001 -0.0004 0.0002 -11.1022 -0.0001
# 6 -0.0003 -0.0004 -0.0002 0.0000 -0.0001 41.6939
#
#
#
# Elastic Compliance Matrix: (Units=1/GPa)
#
#
# Indices 1 2 3 4 5 6 
#
# 1 0.010604 -0.001388 -0.000356 0.000000 0.000000 0.000000
# 2 -0.001388 0.010604 -0.000356 0.000000 0.000000 0.000000
# 3 -0.000356 -0.000356 0.010069 0.000000 0.000000 0.000000
# 4 0.000000 0.000000 0.000000 -0.090073 -0.000002 0.000000
# 5 0.000000 0.000000 0.000000 -0.000002 -0.090072 0.000000
# 6 0.000000 0.000000 0.000000 0.000000 0.000000 0.023984
#
#
# Mechanical properties :
#
#
# Convention : Reuss Voigt Hill
#
# Bulk Modulus (GPa) = 36.93502 36.95697 36.94599
# Shear Modulus (GPa) = -44.77919 21.99006 -11.39457
#
# Velocity S-wave (km/s) = -4.53572 3.17849 -2.28801
# Velocity P-wave (km/s) = 3.23441 5.51810 3.16133
#
# Compressibility (1/GPa) = 0.02707457
#
# Stress axis : x y z
#
# Youngs Moduli (GPa) = 94.30722 94.30658 99.31827
#
# Poissons Ratio (x) = 0.13094 0.03537
# Poissons Ratio (y) = 0.13094 0.03537
# Poissons Ratio (z) = 0.03359 0.03358
#
# Static dielectric constant tensor:
#      x y z
#    x 1.808850 0.000000 0.000000 
#    y 0.000000 1.808850 0.000000 
#    z 0.000000 0.000000 1.730620 
# 
# From -- ./inp_files/4454.got.cif
#   From: 2010.05.17/outbox.cif.g08.bks.cpg/sg192_3_cif.got.tgz:4454.got - 2010.05.20 12:28:01.
