data_PCOD9588273
_publ_section_title
;
Structure prediction by ZEFSAII (Michael W. Deem and Ramdas Pophale) SiO2 
 PCOD9588273
Probable space group: P 6/M M M
;
_chemical_formula_sum "Si O2"
_cell_formula_units_Z 120
_cell_length_a 18.000000
_cell_length_b 18.000000
_cell_length_c 24.000000
_cell_angle_alpha 90.000000
_cell_angle_beta 90.000000
_cell_angle_gamma 120.000000
_cell_volume 6734.213540
_symmetry_space_group_name_H-M "P 6/M M M"
_symmetry_group_IT_number 191
_symmetry_cell_setting 'hexagonal'
loop_
_space_group_symop_operation_xyz
x,y,z
x-y,x,z
-y,x-y,z
-x,-y,z
-x+y,-x,z
y,-x+y,z
x-y,-y,-z
-x,-x+y,-z
y,x,-z
-y,-x,-z
-x+y,y,-z
x,x-y,-z
-x,-y,-z
-x+y,-x,-z
y,-x+y,-z
x,y,-z
x-y,x,-z
-y,x-y,-z
-x+y,y,z
x,x-y,z
-y,-x,z
y,x,z
x-y,-y,z
-x,-x+y,z
loop_
_atom_site_type_symbol
_atom_site_label
_atom_site_fract_x
_atom_site_fract_y
_atom_site_fract_z
Si Si1 0.158405 0.493244 0.558537
Si Si2 0.658648 0.658648 0.935407
Si Si3 0.842972 0.508567 0.320500
Si Si4 0.363155 0.098360 0.221765
Si Si5 0.172120 0.172120 0.068171
Si Si6 0.492664 0.331561 0.119394
O O1 0.110394 0.458643 0.500000
O O2 0.241312 0.482623 0.557373
O O3 0.187994 0.593997 0.559747
O O4 0.116657 0.461467 0.618174
O O5 0.742622 0.742622 0.911509
O O6 0.655082 0.570911 0.920044
O O7 0.670738 0.670738 0.000000
O O8 0.743128 0.486256 0.321836
O O9 0.846813 0.423407 0.304975
O O10 0.890413 0.586750 0.278914
O O11 0.326633 0.163317 0.220506
O O12 0.439583 0.133558 0.176729
O O13 0.295732 0.000000 0.211862
O O14 0.172766 0.086383 0.085674
O O15 0.171329 0.171329 0.000000
O O16 0.503083 0.251542 0.101494
O O17 0.583428 0.416573 0.124904
#
# Coordination Sequence:
#
# PCOD9588273 Si02
#       6
#    24  12  24  24  12  24
#     4   8  12  18  30  52  86 129 174 215 252 290
#     4  11  23  39  59  81 109 145 182 219 263 317
#     4   9  16  25  41  67 100 137 176 216 254 293
#     4  10  21  37  57  79 102 130 166 209 258 309
#     4   9  17  31  53  81 111 141 175 216 261 309
#     4  11  23  39  59  83 111 143 179 220 263 309
#
# _framework density 17.819452999999999
#
# number of rings (size 3 to 8) (size 9 to 14) (size 15 to 20)
#    0.000    2.400    1.000    2.200    0.000    6.000 
#    0.000    2.000    0.000    2.000    0.000    2.800 
#    0.000    0.000    0.000    0.000    0.000    0.000 
#
# Total GULP energy -668240.189104 kJ/mol
# GULP energy per Si atom -5568.668243 kJ/mol
# Density = 1.777889 g / cm^3
# Si number density = 17.819453 Si / 1000 Ang^3
#
#
#
# Elastic Constant Matrix: (Units=GPa)
#
#
# Indices 1 2 3 4 5 6 
#
# 1 133.5413 46.9752 28.3374 0.0000 0.0000 0.0000
# 2 46.9752 133.5413 28.3374 0.0000 0.0000 0.0000
# 3 28.3374 28.3374 73.8790 0.0000 0.0000 0.0000
# 4 0.0000 0.0000 0.0000 -697.0060 -0.0001 0.0000
# 5 0.0000 0.0000 0.0000 -0.0001 -697.0059 0.0000
# 6 0.0000 0.0000 0.0000 0.0000 0.0000 43.2830
#
#
#
# Elastic Compliance Matrix: (Units=1/GPa)
#
#
# Indices 1 2 3 4 5 6 
#
# 1 0.008925 -0.002627 -0.002416 0.000000 0.000000 0.000000
# 2 -0.002627 0.008925 -0.002416 0.000000 0.000000 0.000000
# 3 -0.002416 -0.002416 0.015389 0.000000 0.000000 0.000000
# 4 0.000000 0.000000 0.000000 -0.001435 0.000000 0.000000
# 5 0.000000 0.000000 0.000000 0.000000 -0.001435 0.000000
# 6 0.000000 0.000000 0.000000 0.000000 0.000000 0.023104
#
#
# Mechanical properties :
#
#
# Convention : Reuss Voigt Hill
#
# Bulk Modulus (GPa) = 54.57890 60.91797 57.74843
# Shear Modulus (GPa) = 67.11663 -254.32501 -93.60419
#
# Velocity S-wave (km/s) = 6.14382 -11.95964 -7.25557
# Velocity P-wave (km/s) = 9.00134 12.50801 6.14110
#
# Compressibility (1/GPa) = 0.01832210
#
# Stress axis : x y z
#
# Youngs Moduli (GPa) = 112.04501 112.04501 64.98222
#
# Poissons Ratio (x) = 0.29433 0.15698
# Poissons Ratio (y) = 0.29433 0.15698
# Poissons Ratio (z) = 0.27067 0.27067
#
# Static dielectric constant tensor:
#      x y z
#    x 1.586700 0.000000 0.000000 
#    y 0.000000 1.586700 0.000000 
#    z 0.000000 0.000000 1.721810 
# 
# From -- ./inp_files/8540.got.cif
#   From: 2010.05.17/outbox.ucp.g08.bks.cvg/sg191_5_cif.got.tgz:8540.got - 2010.06.11 15:22:43.
