data_PCOD9588792
_publ_section_title
;
Structure prediction by ZEFSAII (Michael W. Deem and Ramdas Pophale) SiO2 
 PCOD9588792
Probable space group: P 6/M C C
;
_chemical_formula_sum "Si O2"
_cell_formula_units_Z 72
_cell_length_a 22.882362
_cell_length_b 22.882362
_cell_length_c 8.566858
_cell_angle_alpha 90.000000
_cell_angle_beta 90.000000
_cell_angle_gamma 120.000000
_cell_volume 3884.667961
_symmetry_space_group_name_H-M "P 6/M C C"
_symmetry_group_IT_number 192
_symmetry_cell_setting 'hexagonal'
loop_
_space_group_symop_operation_xyz
x,y,z
x-y,x,z
-y,x-y,z
-x,-y,z
-x+y,-x,z
y,-x+y,z
x-y,-y,1/2-z
-x,-x+y,1/2-z
y,x,1/2-z
-y,-x,1/2-z
-x+y,y,1/2-z
x,x-y,1/2-z
-x,-y,-z
-x+y,-x,-z
y,-x+y,-z
x,y,-z
x-y,x,-z
-y,x-y,-z
-x+y,y,1/2+z
x,x-y,1/2+z
-y,-x,1/2+z
y,x,1/2+z
x-y,-y,1/2+z
-x,-x+y,1/2+z
loop_
_atom_site_type_symbol
_atom_site_label
_atom_site_fract_x
_atom_site_fract_y
_atom_site_fract_z
Si Si1 0.665131 0.591397 0.312985
Si Si2 0.073915 0.796494 0.187175
Si Si3 0.796130 0.462786 0.313347
O O1 0.611006 0.611006 0.250000
O O2 0.665592 0.592164 0.500000
O O3 0.737384 0.650550 0.250705
O O4 0.652553 0.520603 0.249428
O O5 0.132417 0.867583 0.250000
O O6 0.000000 0.776677 0.250000
O O7 0.073627 0.795109 0.000000
O O8 0.738512 0.477023 0.250000
O O9 0.782030 0.391015 0.250000
O O10 0.795726 0.462670 0.500000
#
# Coordination Sequence:
#
# PCOD9588792 Si02
#       3
#    24  24  24
#     4  11  22  39  61  89 119 152 190 237 290 345
#     4  11  21  36  57  85 117 153 192 237 286 341
#     4  12  25  43  63  87 116 153 195 240 287 341
#
# _framework density 18.534402
#
# number of rings (size 3 to 8) (size 9 to 14) (size 15 to 20)
#    0.000    0.667    0.000   12.333    0.000    0.667 
#    0.000    3.333    0.000    0.333    0.000    2.333 
#    0.000    0.000    0.000    0.000    0.000    0.000 
#
# Total GULP energy -403056.083671 kJ/mol
# GULP energy per Si atom -5598.001162 kJ/mol
# Density = 1.849222 g / cm^3
# Si number density = 18.534402 Si / 1000 Ang^3
#
#
#
# Elastic Constant Matrix: (Units=GPa)
#
#
# Indices 1 2 3 4 5 6 
#
# 1 70.9287 37.3692 42.1011 0.0000 0.0000 0.0000
# 2 37.3692 70.9287 42.1011 0.0000 0.0000 0.0000
# 3 42.1011 42.1011 234.8450 0.0000 0.0000 0.0000
# 4 0.0000 0.0000 0.0000 39.2501 0.0000 0.0000
# 5 0.0000 0.0000 0.0000 0.0000 39.2501 0.0000
# 6 0.0000 0.0000 0.0000 0.0000 0.0000 16.7797
#
#
#
# Elastic Compliance Matrix: (Units=1/GPa)
#
#
# Indices 1 2 3 4 5 6 
#
# 1 0.020264 -0.009534 -0.001923 0.000000 0.000000 0.000000
# 2 -0.009534 0.020264 -0.001923 0.000000 0.000000 0.000000
# 3 -0.001923 -0.001923 0.004948 0.000000 0.000000 0.000000
# 4 0.000000 0.000000 0.000000 0.025478 0.000000 0.000000
# 5 0.000000 0.000000 0.000000 0.000000 0.025478 0.000000
# 6 0.000000 0.000000 0.000000 0.000000 0.000000 0.059596
#
#
# Mechanical properties :
#
#
# Convention : Reuss Voigt Hill
#
# Bulk Modulus (GPa) = 53.44015 68.87169 61.15592
# Shear Modulus (GPa) = 26.45141 36.06470 31.25805
#
# Velocity S-wave (km/s) = 3.78187 4.41594 4.11114
# Velocity P-wave (km/s) = 6.92572 7.95237 7.45673
#
# Compressibility (1/GPa) = 0.01871252
#
# Stress axis : x y z
#
# Youngs Moduli (GPa) = 49.34965 49.34965 202.11109
#
# Poissons Ratio (x) = 0.47051 0.38875
# Poissons Ratio (y) = 0.47051 0.38875
# Poissons Ratio (z) = 0.09492 0.09492
#
# Static dielectric constant tensor:
#      x y z
#    x 1.623280 0.000000 0.000000 
#    y 0.000000 1.623280 0.000000 
#    z 0.000000 0.000000 1.611710 
# 
# From -- ./inp_files/521.got.cif
#   From: 2010.05.17/outbox.cif.g08.bks.cpg/sg192_1_cif.got.tgz:521.got - 2010.05.20 12:28:01.
