data_PCOD9588841
_publ_section_title
;
Structure prediction by ZEFSAII (Michael W. Deem and Ramdas Pophale) SiO2 
 PCOD9588841
Probable space group: P 6/M C C
;
_chemical_formula_sum "Si O2"
_cell_formula_units_Z 50
_cell_length_a 13.815407
_cell_length_b 13.815407
_cell_length_c 15.369571
_cell_angle_alpha 90.000000
_cell_angle_beta 90.000000
_cell_angle_gamma 120.000000
_cell_volume 2540.503190
_symmetry_space_group_name_H-M "P 6/M C C"
_symmetry_group_IT_number 192
_symmetry_cell_setting 'hexagonal'
loop_
_space_group_symop_operation_xyz
x,y,z
x-y,x,z
-y,x-y,z
-x,-y,z
-x+y,-x,z
y,-x+y,z
x-y,-y,1/2-z
-x,-x+y,1/2-z
y,x,1/2-z
-y,-x,1/2-z
-x+y,y,1/2-z
x,x-y,1/2-z
-x,-y,-z
-x+y,-x,-z
y,-x+y,-z
x,y,-z
x-y,x,-z
-y,x-y,-z
-x+y,y,1/2+z
x,x-y,1/2+z
-y,-x,1/2+z
y,x,1/2+z
x-y,-y,1/2+z
-x,-x+y,1/2+z
loop_
_atom_site_type_symbol
_atom_site_label
_atom_site_fract_x
_atom_site_fract_y
_atom_site_fract_z
Si Si1 0.000000 0.500000 0.750000
Si Si2 0.160871 0.734590 0.664218
Si Si3 0.333334 0.666668 0.896164
Si Si4 0.737277 0.910346 0.500000
O O1 0.926164 0.392150 0.690742
O O2 0.189344 0.810657 0.750000
O O3 0.273457 0.733547 0.637644
O O4 0.117601 0.776796 0.584942
O O5 0.333334 0.666668 0.000000
O O6 0.791093 0.830958 0.500000
#
# Coordination Sequence:
#
# PCOD9588841 Si02
#       4
#     6  24   8  12
#     4  12  24  38  72 100 146 186 224 270 354 416
#     4  12  24  44  70 106 142 182 221 284 351 428
#     4  12  22  41  70 106 149 175 214 269 361 430
#     4  12  29  49  71  97 137 186 249 295 339 395
#
# _framework density 19.681141
#
# number of rings (size 3 to 8) (size 9 to 14) (size 15 to 20)
#    0.000    0.000    7.200    3.120    0.000    0.960 
#    0.000    0.000    0.000    2.880    0.000    0.000 
#    0.000    0.000    0.000    0.000    0.000    0.000 
#
# Total GULP energy -279931.543416 kJ/mol
# GULP energy per Si atom -5598.630868 kJ/mol
# Density = 1.963635 g / cm^3
# Si number density = 19.681141 Si / 1000 Ang^3
#
#
#
# Elastic Constant Matrix: (Units=GPa)
#
#
# Indices 1 2 3 4 5 6 
#
# 1 142.6664 67.5639 80.6184 0.0000 -0.0001 0.0002
# 2 67.5639 142.6669 80.6182 0.0000 0.0000 0.0002
# 3 80.6184 80.6182 194.0378 -0.0001 -0.0001 0.0000
# 4 0.0000 0.0000 -0.0001 19.0197 0.0000 0.0000
# 5 -0.0001 0.0000 -0.0001 0.0000 19.0200 0.0000
# 6 0.0002 0.0002 0.0000 0.0000 0.0000 37.5514
#
#
#
# Elastic Compliance Matrix: (Units=1/GPa)
#
#
# Indices 1 2 3 4 5 6 
#
# 1 0.010148 -0.003167 -0.002901 0.000000 0.000000 0.000000
# 2 -0.003167 0.010148 -0.002901 0.000000 0.000000 0.000000
# 3 -0.002901 -0.002901 0.007564 0.000000 0.000000 0.000000
# 4 0.000000 0.000000 0.000000 0.052577 0.000000 0.000000
# 5 0.000000 0.000000 0.000000 0.000000 0.052576 0.000000
# 6 0.000000 0.000000 0.000000 0.000000 0.000000 0.026630
#
#
# Mechanical properties :
#
#
# Convention : Reuss Voigt Hill
#
# Bulk Modulus (GPa) = 100.76410 104.10803 102.43607
# Shear Modulus (GPa) = 27.64147 31.82294 29.73220
#
# Velocity S-wave (km/s) = 3.75168 4.02546 3.89098
# Velocity P-wave (km/s) = 8.37116 8.63817 8.50571
#
# Compressibility (1/GPa) = 0.00992417
#
# Stress axis : x y z
#
# Youngs Moduli (GPa) = 98.53955 98.54009 132.20749
#
# Poissons Ratio (x) = 0.31207 0.38348
# Poissons Ratio (y) = 0.31207 0.38347
# Poissons Ratio (z) = 0.28582 0.28582
#
# Static dielectric constant tensor:
#      x y z
#    x 1.678540 0.000000 0.000000 
#    y 0.000000 1.678540 0.000000 
#    z 0.000000 0.000000 1.674470 
# 
# From -- ./inp_files/2173.got.cif
#   From: 2010.05.17/outbox.cif.g08.bks.cpg/sg192_2_cif.got.tgz:2173.got - 2010.05.20 12:28:01.
