data_PCOD9588956
_publ_section_title
;
Structure prediction by ZEFSAII (Michael W. Deem and Ramdas Pophale) SiO2 
 PCOD9588956
Probable space group: P 63/M C M
;
_chemical_formula_sum "Si O2"
_cell_formula_units_Z 120
_cell_length_a 20.787866
_cell_length_b 20.787866
_cell_length_c 15.297850
_cell_angle_alpha 90.000000
_cell_angle_beta 90.000000
_cell_angle_gamma 120.000000
_cell_volume 5725.070608
_symmetry_space_group_name_H-M "P 63/M C M"
_symmetry_group_IT_number 193
_symmetry_cell_setting 'hexagonal'
loop_
_space_group_symop_operation_xyz
x,y,z
x-y,x,1/2+z
-y,x-y,z
-x,-y,1/2+z
-x+y,-x,z
y,-x+y,1/2+z
x-y,-y,1/2-z
-x,-x+y,1/2-z
y,x,1/2-z
-y,-x,-z
-x+y,y,-z
x,x-y,-z
-x,-y,-z
-x+y,-x,1/2-z
y,-x+y,-z
x,y,1/2-z
x-y,x,-z
-y,x-y,1/2-z
-x+y,y,1/2+z
x,x-y,1/2+z
-y,-x,1/2+z
y,x,z
x-y,-y,z
-x,-x+y,z
loop_
_atom_site_type_symbol
_atom_site_label
_atom_site_fract_x
_atom_site_fract_y
_atom_site_fract_z
Si Si1 0.084567 0.914134 0.356951
Si Si2 0.249511 0.499467 0.104526
Si Si3 0.482878 0.482878 0.853882
Si Si4 0.812346 0.665915 0.355108
Si Si5 0.418224 0.583820 0.604435
Si Si6 0.000000 0.663178 0.856921
O O1 0.084110 0.914219 0.250000
O O2 0.119502 0.863629 0.385634
O O3 0.000000 0.880427 0.386106
O O4 0.136196 0.000000 0.383233
O O5 0.216585 0.412455 0.121249
O O6 0.194660 0.528785 0.137526
O O7 0.332925 0.548701 0.139595
O O8 0.254281 0.508561 0.000000
O O9 0.479111 0.479111 0.750000
O O10 0.552241 0.473608 0.879391
O O11 0.409765 0.409765 0.889229
O O12 0.813067 0.669180 0.250000
O O13 0.736967 0.663312 0.385449
O O14 0.412598 0.587403 0.500000
O O15 0.000000 0.662813 0.750000
#
# Coordination Sequence:
#
# PCOD9588956 Si02
#       6
#    24  24  12  24  24  12
#     4   9  16  27  47  75 106 139 176 216 258 306
#     4  10  21  37  57  79 104 138 178 220 266 318
#     4  11  21  35  57  83 109 140 179 221 268 325
#     4  10  18  32  54  78 105 137 175 220 265 311
#     4  10  21  38  58  80 108 142 181 225 271 321
#     4   9  16  29  53  79  99 130 176 220 260 308
#
# _framework density 20.960439999999998
#
# number of rings (size 3 to 8) (size 9 to 14) (size 15 to 20)
#    0.000    2.200    3.000    0.900    0.000    3.200 
#    1.800    0.000    0.000    2.400    0.000    0.000 
#    0.000    1.600    0.000    0.000    0.000    0.000 
#
# Total GULP energy -669655.545929 kJ/mol
# GULP energy per Si atom -5580.462883 kJ/mol
# Density = 2.091273 g / cm^3
# Si number density = 20.960440 Si / 1000 Ang^3
#
#
#
# Elastic Constant Matrix: (Units=GPa)
#
#
# Indices 1 2 3 4 5 6 
#
# 1 128.7378 51.3362 2.1778 0.0000 0.0000 0.0000
# 2 51.3362 128.7378 2.1778 0.0000 0.0000 0.0000
# 3 2.1778 2.1778 27.4411 0.0000 0.0000 0.0000
# 4 0.0000 0.0000 0.0000 9.8851 0.0000 0.0000
# 5 0.0000 0.0000 0.0000 0.0000 9.8851 0.0000
# 6 0.0000 0.0000 0.0000 0.0000 0.0000 38.7008
#
#
#
# Elastic Compliance Matrix: (Units=1/GPa)
#
#
# Indices 1 2 3 4 5 6 
#
# 1 0.009242 -0.003678 -0.000442 0.000000 0.000000 0.000000
# 2 -0.003678 0.009242 -0.000442 0.000000 0.000000 0.000000
# 3 -0.000442 -0.000442 0.036512 0.000000 0.000000 0.000000
# 4 0.000000 0.000000 0.000000 0.101162 0.000000 0.000000
# 5 0.000000 0.000000 0.000000 0.000000 0.101162 0.000000
# 6 0.000000 0.000000 0.000000 0.000000 0.000000 0.025839
#
#
# Mechanical properties :
#
#
# Convention : Reuss Voigt Hill
#
# Bulk Modulus (GPa) = 21.79914 44.03339 32.91626
# Shear Modulus (GPa) = 16.25637 26.97587 21.61612
#
# Velocity S-wave (km/s) = 2.78793 3.59136 3.21484
# Velocity P-wave (km/s) = 4.55918 6.18471 5.43308
#
# Compressibility (1/GPa) = 0.04587337
#
# Stress axis : x y z
#
# Youngs Moduli (GPa) = 108.20412 108.20412 27.38843
#
# Poissons Ratio (x) = 0.39796 0.01209
# Poissons Ratio (y) = 0.39796 0.01209
# Poissons Ratio (z) = 0.04778 0.04778
#
# Static dielectric constant tensor:
#      x y z
#    x 1.753000 0.000000 0.000000 
#    y 0.000000 1.753000 0.000000 
#    z 0.000000 0.000000 1.776340 
# 
# From -- ./inp_files/5393.got.cif
#   From: 2010.05.17/outbox.cif.g08.bks.cpg/sg193_3_cif.got.tgz:5393.got - 2010.05.20 12:33:02.
