data_PCOD9588095
_publ_section_title
;
Structure prediction by ZEFSAII (Michael W. Deem and Ramdas Pophale) SiO2 
 PCOD9588095
Probable space group: P 6/M M M
;
_chemical_formula_sum "Si O2"
_cell_formula_units_Z 132
_cell_length_a 18.174442
_cell_length_b 18.174442
_cell_length_c 31.139176
_cell_angle_alpha 90.000000
_cell_angle_beta 90.000000
_cell_angle_gamma 120.000000
_cell_volume 8907.583856
_symmetry_space_group_name_H-M "P 6/M M M"
_symmetry_group_IT_number 191
_symmetry_cell_setting 'hexagonal'
loop_
_space_group_symop_operation_xyz
x,y,z
x-y,x,z
-y,x-y,z
-x,-y,z
-x+y,-x,z
y,-x+y,z
x-y,-y,-z
-x,-x+y,-z
y,x,-z
-y,-x,-z
-x+y,y,-z
x,x-y,-z
-x,-y,-z
-x+y,-x,-z
y,-x+y,-z
x,y,-z
x-y,x,-z
-y,x-y,-z
-x+y,y,z
x,x-y,z
-y,-x,z
y,x,z
x-y,-y,z
-x,-x+y,z
loop_
_atom_site_type_symbol
_atom_site_label
_atom_site_fract_x
_atom_site_fract_y
_atom_site_fract_z
Si Si1 0.491061 0.157481 0.140440
Si Si2 0.160825 0.666278 0.293624
Si Si3 0.491080 0.333758 0.953924
Si Si4 0.507766 0.840646 0.606695
Si Si5 0.266632 0.361765 0.781845
Si Si6 0.000000 0.410543 0.549249
O O1 0.577714 0.155428 0.147589
O O2 0.510410 0.255205 0.140565
O O3 0.455428 0.119353 0.092932
O O4 0.423528 0.110673 0.177755
O O5 0.151566 0.575783 0.282988
O O6 0.259651 0.740350 0.290585
O O7 0.134747 0.664485 0.343195
O O8 0.110646 0.692048 0.260609
O O9 0.493630 0.246815 0.954858
O O10 0.586520 0.413481 0.953163
O O11 0.452924 0.339333 0.000000
O O12 0.412531 0.825061 0.600859
O O13 0.509053 0.754527 0.598766
O O14 0.569302 0.916085 0.575377
O O15 0.168735 0.337469 0.783119
O O16 0.284847 0.284847 0.782564
O O17 0.000000 0.500000 0.548978
O O18 0.000000 0.385493 0.500000
#
# Coordination Sequence:
#
# PCOD9588095 Si02
#       6
#    24  24  24  24  24  12
#     4   9  16  25  38  59  88 121 153 182 210 242
#     4   9  17  28  44  66  92 121 151 179 205 238
#     4   8  12  18  30  49  75 109 149 187 215 237
#     4   9  17  29  45  64  87 118 154 189 221 257
#     4  10  21  34  47  64  85 110 139 173 216 263
#     4   9  18  30  42  60  86 114 147 189 232 264
#
# _framework density 14.818834000000001
#
# number of rings (size 3 to 8) (size 9 to 14) (size 15 to 20)
#    0.000    3.000    0.000    1.273    1.273    5.455 
#    0.000    1.818    0.000    1.818    0.000    2.545 
#    0.000    0.000    0.000    0.273    0.000    1.182 
#
# Total GULP energy -734906.769599 kJ/mol
# GULP energy per Si atom -5567.475527 kJ/mol
# Density = 1.478511 g / cm^3
# Si number density = 14.818834 Si / 1000 Ang^3
#
#
#
# Elastic Constant Matrix: (Units=GPa)
#
#
# Indices 1 2 3 4 5 6 
#
# 1 54.7673 42.3011 50.0104 0.0000 0.0000 0.0000
# 2 42.3011 54.7673 50.0104 0.0000 0.0000 0.0000
# 3 50.0104 50.0104 107.9827 0.0000 0.0000 0.0000
# 4 0.0000 0.0000 0.0000 8.8031 0.0000 0.0000
# 5 0.0000 0.0000 0.0000 0.0000 8.8031 0.0000
# 6 0.0000 0.0000 0.0000 0.0000 0.0000 6.2331
#
#
#
# Elastic Compliance Matrix: (Units=1/GPa)
#
#
# Indices 1 2 3 4 5 6 
#
# 1 0.049961 -0.030255 -0.009127 0.000000 0.000000 0.000000
# 2 -0.030255 0.049961 -0.009127 0.000000 0.000000 0.000000
# 3 -0.009127 -0.009127 0.017714 0.000000 0.000000 0.000000
# 4 0.000000 0.000000 0.000000 0.113597 0.000000 0.000000
# 5 0.000000 0.000000 0.000000 0.000000 0.113597 0.000000
# 6 0.000000 0.000000 0.000000 0.000000 0.000000 0.160433
#
#
# Mechanical properties :
#
#
# Convention : Reuss Voigt Hill
#
# Bulk Modulus (GPa) = 48.49562 55.79570 52.14566
# Shear Modulus (GPa) = 8.20811 9.78088 8.99449
#
# Velocity S-wave (km/s) = 2.35605 2.57189 2.46634
# Velocity P-wave (km/s) = 6.34019 6.82299 6.58601
#
# Compressibility (1/GPa) = 0.02062042
#
# Stress axis : x y z
#
# Youngs Moduli (GPa) = 20.01547 20.01547 56.45114
#
# Poissons Ratio (x) = 0.60557 0.51521
# Poissons Ratio (y) = 0.60557 0.51521
# Poissons Ratio (z) = 0.18267 0.18267
#
# Static dielectric constant tensor:
#      x y z
#    x 1.471150 0.000000 0.000000 
#    y 0.000000 1.471150 0.000000 
#    z 0.000000 0.000000 1.539790 
# 
# From -- ./inp_files/10489.got.cif
#   From: 2010.05.17/outbox.cif.g08.bks.cpg/sg191_6_cif.got.tgz:10489.got - 2010.05.20 12:20:32.
