data_PCOD9588466
_publ_section_title
;
Structure prediction by ZEFSAII (Michael W. Deem and Ramdas Pophale) SiO2 
 PCOD9588466
Probable space group: P 6/M C C
;
_chemical_formula_sum "Si O2"
_cell_formula_units_Z 116
_cell_length_a 20.108494
_cell_length_b 20.108494
_cell_length_c 14.844746
_cell_angle_alpha 90.000000
_cell_angle_beta 90.000000
_cell_angle_gamma 120.000000
_cell_volume 5198.313824
_symmetry_space_group_name_H-M "P 6/M C C"
_symmetry_group_IT_number 192
_symmetry_cell_setting 'hexagonal'
loop_
_space_group_symop_operation_xyz
x,y,z
x-y,x,z
-y,x-y,z
-x,-y,z
-x+y,-x,z
y,-x+y,z
x-y,-y,1/2-z
-x,-x+y,1/2-z
y,x,1/2-z
-y,-x,1/2-z
-x+y,y,1/2-z
x,x-y,1/2-z
-x,-y,-z
-x+y,-x,-z
y,-x+y,-z
x,y,-z
x-y,x,-z
-y,x-y,-z
-x+y,y,1/2+z
x,x-y,1/2+z
-y,-x,1/2+z
y,x,1/2+z
x-y,-y,1/2+z
-x,-x+y,1/2+z
loop_
_atom_site_type_symbol
_atom_site_label
_atom_site_fract_x
_atom_site_fract_y
_atom_site_fract_z
Si Si1 0.666667 0.333334 0.390280
Si Si2 0.110230 0.925936 0.500000
Si Si3 0.851800 0.160886 0.649489
Si Si4 0.388597 0.052542 0.608515
Si Si5 0.438246 0.121611 0.109493
Si Si6 0.559278 0.389769 0.889793
O O1 0.666667 0.333334 0.500000
O O2 0.743030 0.333188 0.362118
O O3 0.142340 0.898586 0.583342
O O4 0.016991 0.875718 0.500000
O O5 0.859780 0.140221 0.750000
O O6 0.916539 0.247652 0.628947
O O7 0.771212 0.160475 0.640092
O O8 0.393943 0.050506 0.500000
O O9 0.474474 0.109865 0.642713
O O10 0.355740 0.966391 0.640366
O O11 0.525524 0.151401 0.137243
O O12 0.439106 0.125664 0.000000
O O13 0.556239 0.389416 0.000000
#
# Coordination Sequence:
#
# PCOD9588466 Si02
#       6
#     8  12  24  24  24  24
#     4   9  15  24  42  72 115 158 202 250 299 355
#     4  12  27  50  76 102 130 162 206 266 340 418
#     4  12  25  42  68  99 134 174 217 266 323 394
#     4  10  19  35  59  89 125 166 214 266 317 370
#     4  10  19  35  59  89 125 166 214 266 317 370
#     4   9  17  29  53  88 125 169 217 265 314 362
#
# _framework density 22.314927999999998
#
# number of rings (size 3 to 8) (size 9 to 14) (size 15 to 20)
#    0.000    1.655    2.069    3.207    0.000    9.103 
#    0.000    1.034    0.000    3.724    0.000    0.000 
#    0.000    0.000    0.000    0.000    0.000    0.000 
#
# Total GULP energy -648984.850773 kJ/mol
# GULP energy per Si atom -5594.696989 kJ/mol
# Density = 2.226414 g / cm^3
# Si number density = 22.314928 Si / 1000 Ang^3
#
#
#
# Elastic Constant Matrix: (Units=GPa)
#
#
# Indices 1 2 3 4 5 6 
#
# 1 85.5501 0.4574 -4.1401 0.0000 -0.0001 0.0000
# 2 0.4574 85.5512 -4.1398 0.0000 0.0000 -0.0003
# 3 -4.1401 -4.1398 62.3391 0.0000 0.0000 0.0000
# 4 0.0000 0.0000 0.0000 -7.0750 -0.0001 0.0000
# 5 -0.0001 0.0000 0.0000 -0.0001 -7.0749 0.0000
# 6 0.0000 -0.0003 0.0000 0.0000 0.0000 42.5467
#
#
#
# Elastic Compliance Matrix: (Units=1/GPa)
#
#
# Indices 1 2 3 4 5 6 
#
# 1 0.011727 -0.000025 0.000777 0.000000 0.000000 0.000000
# 2 -0.000025 0.011727 0.000777 0.000000 0.000000 0.000000
# 3 0.000777 0.000777 0.016145 0.000000 0.000000 0.000000
# 4 0.000000 0.000000 0.000000 -0.141343 0.000001 0.000000
# 5 0.000000 0.000000 0.000000 0.000001 -0.141345 0.000000
# 6 0.000000 0.000000 0.000000 0.000000 0.000000 0.023504
#
#
# Mechanical properties :
#
#
# Convention : Reuss Voigt Hill
#
# Bulk Modulus (GPa) = 23.44326 24.19950 23.82138
# Shear Modulus (GPa) = -23.98937 21.76357 -1.11290
#
# Velocity S-wave (km/s) = -3.28233 3.12635 -0.70697
# Velocity P-wave (km/s) = 1.95870 4.88878 3.16731
#
# Compressibility (1/GPa) = 0.04265619
#
# Stress axis : x y z
#
# Youngs Moduli (GPa) = 85.27480 85.27591 61.94055
#
# Poissons Ratio (x) = 0.00214 -0.04814
# Poissons Ratio (y) = 0.00214 -0.04813
# Poissons Ratio (z) = -0.06627 -0.06627
#
# Static dielectric constant tensor:
#      x y z
#    x 1.769150 0.000000 0.000000 
#    y 0.000000 1.769150 0.000000 
#    z 0.000000 0.000000 1.855030 
# 
# From -- ./inp_files/3008.got.cif
#   From: 2010.05.17/outbox.cif.g08.bks.cpg/sg192_2_cif.got.tgz:3008.got - 2010.05.20 12:28:01.
