data_PCOD9588370
_publ_section_title
;
Structure prediction by ZEFSAII (Michael W. Deem and Ramdas Pophale) SiO2 
 PCOD9588370
Probable space group: P 6/M C C
;
_chemical_formula_sum "Si O2"
_cell_formula_units_Z 72
_cell_length_a 23.827446
_cell_length_b 23.827446
_cell_length_c 8.682382
_cell_angle_alpha 90.000000
_cell_angle_beta 90.000000
_cell_angle_gamma 120.000000
_cell_volume 4268.983825
_symmetry_space_group_name_H-M "P 6/M C C"
_symmetry_group_IT_number 192
_symmetry_cell_setting 'hexagonal'
loop_
_space_group_symop_operation_xyz
x,y,z
x-y,x,z
-y,x-y,z
-x,-y,z
-x+y,-x,z
y,-x+y,z
x-y,-y,1/2-z
-x,-x+y,1/2-z
y,x,1/2-z
-y,-x,1/2-z
-x+y,y,1/2-z
x,x-y,1/2-z
-x,-y,-z
-x+y,-x,-z
y,-x+y,-z
x,y,-z
x-y,x,-z
-y,x-y,-z
-x+y,y,1/2+z
x,x-y,1/2+z
-y,-x,1/2+z
y,x,1/2+z
x-y,-y,1/2+z
-x,-x+y,1/2+z
loop_
_atom_site_type_symbol
_atom_site_label
_atom_site_fract_x
_atom_site_fract_y
_atom_site_fract_z
Si Si1 0.863948 0.262448 0.184695
Si Si2 0.207765 0.665701 0.184298
Si Si3 0.068635 0.263397 0.183694
O O1 0.799204 0.200797 0.250000
O O2 0.851610 0.321534 0.221512
O O3 0.919754 0.253307 0.260988
O O4 0.867086 0.257535 0.000000
O O5 0.274039 0.725962 0.250000
O O6 0.198696 0.599348 0.250000
O O7 0.213789 0.666688 0.000000
O O8 0.128454 0.256908 0.250000
O O9 0.000000 0.209544 0.250000
O O10 0.069706 0.261525 0.000000
#
# Coordination Sequence:
#
# PCOD9588370 Si02
#       3
#    24  24  24
#     4   9  17  30  47  69  95 127 165 207 251 296
#     4  10  19  29  43  63  92 127 167 212 261 311
#     4  11  21  35  56  82 109 136 165 200 239 283
#
# _framework density 16.865841
#
# number of rings (size 3 to 8) (size 9 to 14) (size 15 to 20)
#    0.000    2.000    0.000    7.333    0.000    4.000 
#    0.000    0.000    0.000    1.333    0.000    9.333 
#    0.000    0.000    0.000    0.000    0.000    0.000 
#
# Total GULP energy -401311.118907 kJ/mol
# GULP energy per Si atom -5573.765540 kJ/mol
# Density = 1.682745 g / cm^3
# Si number density = 16.865841 Si / 1000 Ang^3
#
#
#
# Elastic Constant Matrix: (Units=GPa)
#
#
# Indices 1 2 3 4 5 6 
#
# 1 100.1308 52.0217 49.8314 0.0000 0.0000 0.0000
# 2 52.0217 100.1308 49.8314 0.0000 0.0000 0.0000
# 3 49.8314 49.8314 122.7036 0.0000 0.0000 0.0000
# 4 0.0000 0.0000 0.0000 -17.4921 0.0000 0.0000
# 5 0.0000 0.0000 0.0000 0.0000 -17.4921 0.0000
# 6 0.0000 0.0000 0.0000 0.0000 0.0000 24.0545
#
#
#
# Elastic Compliance Matrix: (Units=1/GPa)
#
#
# Indices 1 2 3 4 5 6 
#
# 1 0.014870 -0.005916 -0.003636 0.000000 0.000000 0.000000
# 2 -0.005916 0.014870 -0.003636 0.000000 0.000000 0.000000
# 3 -0.003636 -0.003636 0.011103 0.000000 0.000000 0.000000
# 4 0.000000 0.000000 0.000000 -0.057169 0.000000 0.000000
# 5 0.000000 0.000000 0.000000 0.000000 -0.057169 0.000000
# 6 0.000000 0.000000 0.000000 0.000000 0.000000 0.041572
#
#
# Mechanical properties :
#
#
# Convention : Reuss Voigt Hill
#
# Bulk Modulus (GPa) = 69.12696 69.59268 69.35982
# Shear Modulus (GPa) = -6928.29777 9.23277 -3459.53250
#
# Velocity S-wave (km/s) = -64.16234 2.34225 -45.33938
# Velocity P-wave (km/s) = 73.81056 6.97617 51.95831
#
# Compressibility (1/GPa) = 0.01446614
#
# Stress axis : x y z
#
# Youngs Moduli (GPa) = 67.24859 67.24859 90.06301
#
# Poissons Ratio (x) = 0.39784 0.32751
# Poissons Ratio (y) = 0.39784 0.32751
# Poissons Ratio (z) = 0.24455 0.24455
#
# Static dielectric constant tensor:
#      x y z
#    x 1.575040 0.000000 0.000000 
#    y 0.000000 1.575040 0.000000 
#    z 0.000000 0.000000 1.540800 
# 
# From -- ./inp_files/529.got.cif
#   From: 2010.05.17/outbox.cif.g08.bks.cpg/sg192_1_cif.got.tgz:529.got - 2010.05.20 12:28:01.
