data_PCOD9588679
_publ_section_title
;
Structure prediction by ZEFSAII (Michael W. Deem and Ramdas Pophale) SiO2 
 PCOD9588679
Probable space group: P 6/M C C
;
_chemical_formula_sum "Si O2"
_cell_formula_units_Z 104
_cell_length_a 14.425842
_cell_length_b 14.425842
_cell_length_c 30.816870
_cell_angle_alpha 90.000000
_cell_angle_beta 90.000000
_cell_angle_gamma 120.000000
_cell_volume 5553.944051
_symmetry_space_group_name_H-M "P 6/M C C"
_symmetry_group_IT_number 192
_symmetry_cell_setting 'hexagonal'
loop_
_space_group_symop_operation_xyz
x,y,z
x-y,x,z
-y,x-y,z
-x,-y,z
-x+y,-x,z
y,-x+y,z
x-y,-y,1/2-z
-x,-x+y,1/2-z
y,x,1/2-z
-y,-x,1/2-z
-x+y,y,1/2-z
x,x-y,1/2-z
-x,-y,-z
-x+y,-x,-z
y,-x+y,-z
x,y,-z
x-y,x,-z
-y,x-y,-z
-x+y,y,1/2+z
x,x-y,1/2+z
-y,-x,1/2+z
y,x,1/2+z
x-y,-y,1/2+z
-x,-x+y,1/2+z
loop_
_atom_site_type_symbol
_atom_site_label
_atom_site_fract_x
_atom_site_fract_y
_atom_site_fract_z
Si Si1 0.666667 0.333334 0.698498
Si Si2 0.062012 0.318426 0.500000
Si Si3 0.467265 0.291439 0.000000
Si Si4 0.754313 0.829439 0.401528
Si Si5 0.462276 0.875988 0.414003
Si Si6 0.534094 0.781450 0.138017
O O1 0.666668 0.333334 0.750000
O O2 0.740297 0.455136 0.679731
O O3 0.167649 0.435145 0.500000
O O4 0.077119 0.275206 0.453181
O O5 0.943220 0.301703 0.500000
O O6 0.528199 0.352916 0.042187
O O7 0.844537 0.798683 0.394267
O O8 0.652699 0.770892 0.368964
O O9 0.344700 0.811393 0.394857
O O10 0.537806 0.859211 0.380082
O O11 0.500000 0.000000 0.420003
#
# Coordination Sequence:
#
# PCOD9588679 Si02
#       6
#     8  12  12  24  24  24
#     4   9  21  42  69  97 122 145 180 225 291 378
#     4  12  20  34  52  76 114 167 212 262 294 324
#     4  12  23  34  51  74 114 158 211 255 305 334
#     4  12  22  37  58  83 119 162 212 255 294 333
#     4  11  22  35  54  77 112 154 199 243 294 343
#     4  10  21  38  59  87 116 150 189 239 296 354
#
# _framework density 18.725432000000001
#
# number of rings (size 3 to 8) (size 9 to 14) (size 15 to 20)
#    0.000    0.923    4.615    3.808    0.000    1.846 
#    0.000    1.154    0.000   24.923    0.000    0.000 
#    0.000    1.846    0.000    0.000    0.000    0.000 
#
# Total GULP energy -580112.968269 kJ/mol
# GULP energy per Si atom -5578.009310 kJ/mol
# Density = 1.868281 g / cm^3
# Si number density = 18.725432 Si / 1000 Ang^3
#
#
#
# Elastic Constant Matrix: (Units=GPa)
#
#
# Indices 1 2 3 4 5 6 
#
# 1 81.8439 21.8274 31.8788 0.0000 0.0000 0.0001
# 2 21.8274 81.8438 31.8786 0.0000 0.0000 0.0000
# 3 31.8788 31.8786 108.1395 0.0000 0.0000 0.0001
# 4 0.0000 0.0000 0.0000 2.6289 0.0000 0.0000
# 5 0.0000 0.0000 0.0000 0.0000 2.6289 0.0000
# 6 0.0001 0.0000 0.0001 0.0000 0.0000 30.0083
#
#
#
# Elastic Compliance Matrix: (Units=1/GPa)
#
#
# Indices 1 2 3 4 5 6 
#
# 1 0.014222 -0.002440 -0.003473 0.000000 0.000000 0.000000
# 2 -0.002440 0.014222 -0.003473 0.000000 0.000000 0.000000
# 3 -0.003473 -0.003473 0.011295 0.000000 0.000000 0.000000
# 4 0.000000 0.000000 0.000000 0.380390 -0.000003 0.000000
# 5 0.000000 0.000000 0.000000 -0.000003 0.380386 0.000000
# 6 0.000000 0.000000 0.000000 0.000000 0.000000 0.033324
#
#
# Mechanical properties :
#
#
# Convention : Reuss Voigt Hill
#
# Bulk Modulus (GPa) = 47.69626 49.22186 48.45906
# Shear Modulus (GPa) = 5.81665 19.46938 12.64301
#
# Velocity S-wave (km/s) = 1.76438 3.22798 2.60124
# Velocity P-wave (km/s) = 5.44770 6.34321 5.91243
#
# Compressibility (1/GPa) = 0.02096600
#
# Stress axis : x y z
#
# Youngs Moduli (GPa) = 70.31362 70.31361 88.53425
#
# Poissons Ratio (x) = 0.17157 0.30750
# Poissons Ratio (y) = 0.17157 0.30750
# Poissons Ratio (z) = 0.24421 0.24421
#
# Static dielectric constant tensor:
#      x y z
#    x 1.712220 0.000000 0.000000 
#    y 0.000000 1.712220 0.000000 
#    z 0.000000 0.000000 1.620950 
# 
# From -- ./inp_files/6903.got.cif
#   From: 2010.05.17/outbox.cif.g08.bks.cpg/sg192_4_cif.got.tgz:6903.got - 2010.05.20 12:28:01.
