data_PCOD9588785
_publ_section_title
;
Structure prediction by ZEFSAII (Michael W. Deem and Ramdas Pophale) SiO2 
 PCOD9588785
Probable space group: P 6/M C C
;
_chemical_formula_sum "Si O2"
_cell_formula_units_Z 168
_cell_length_a 28.872613
_cell_length_b 28.872613
_cell_length_c 15.629476
_cell_angle_alpha 90.000000
_cell_angle_beta 90.000000
_cell_angle_gamma 120.000000
_cell_volume 11283.588229
_symmetry_space_group_name_H-M "P 6/M C C"
_symmetry_group_IT_number 192
_symmetry_cell_setting 'hexagonal'
loop_
_space_group_symop_operation_xyz
x,y,z
x-y,x,z
-y,x-y,z
-x,-y,z
-x+y,-x,z
y,-x+y,z
x-y,-y,1/2-z
-x,-x+y,1/2-z
y,x,1/2-z
-y,-x,1/2-z
-x+y,y,1/2-z
x,x-y,1/2-z
-x,-y,-z
-x+y,-x,-z
y,-x+y,-z
x,y,-z
x-y,x,-z
-y,x-y,-z
-x+y,y,1/2+z
x,x-y,1/2+z
-y,-x,1/2+z
y,x,1/2+z
x-y,-y,1/2+z
-x,-x+y,1/2+z
loop_
_atom_site_type_symbol
_atom_site_label
_atom_site_fract_x
_atom_site_fract_y
_atom_site_fract_z
Si Si1 0.065192 0.653341 0.401333
Si Si2 0.752974 0.692622 0.102657
Si Si3 0.062121 0.124242 0.354746
Si Si4 0.520627 0.934812 0.750000
Si Si5 0.653341 0.588150 0.901333
Si Si6 0.246791 0.123396 0.148575
Si Si7 0.692622 0.752974 0.102657
O O1 0.082073 0.653977 0.500000
O O2 0.081838 0.622438 0.334574
O O3 0.081470 0.712987 0.370297
O O4 0.000000 0.621864 0.402193
O O5 0.712987 0.631517 0.129703
O O6 0.814768 0.720029 0.123615
O O7 0.729139 0.729139 0.136539
O O8 0.747907 0.690809 0.000000
O O9 0.093112 0.093111 0.381335
O O10 0.062254 0.124508 0.250000
O O11 0.092900 0.185800 0.385457
O O12 0.458540 0.917080 0.750000
O O13 0.540600 0.918162 0.834574
O O14 0.552957 0.000000 0.750000
O O15 0.653977 0.571904 0.000000
O O16 0.241572 0.120786 0.250000
O O17 0.279972 0.185232 0.123614
O O18 0.690808 0.747907 0.000000
#
# Coordination Sequence:
#
# PCOD9588785 Si02
#       7
#    24  24  24  24  24  24  24
#     4   8  15  27  41  57  79 109 141 172 208 246
#     4   9  18  32  46  58  77 108 141 175 221 271
#     4   9  17  29  42  57  78 102 128 164 224 302
#     4   9  16  24  38  61  84 108 137 168 201 231
#     4   8  15  27  41  57  79 109 141 172 208 246
#     4  11  21  28  41  66  86 100 130 182 232 280
#     4   9  18  32  46  58  77 108 141 175 221 271
#
# _framework density 14.888881
#
# number of rings (size 3 to 8) (size 9 to 14) (size 15 to 20)
#    0.000    3.000    0.000    3.143    2.000    2.857 
#    0.000    2.857    0.000    0.000    0.000    0.000 
#    0.000    6.857    0.000    0.000    0.000    0.000 
#
# Total GULP energy -935655.108554 kJ/mol
# GULP energy per Si atom -5569.375646 kJ/mol
# Density = 1.485499 g / cm^3
# Si number density = 14.888881 Si / 1000 Ang^3
#
#
#
# Elastic Constant Matrix: (Units=GPa)
#
#
# Indices 1 2 3 4 5 6 
#
# 1 -181.3254 345.8568 36.5397 0.0000 0.0000 0.0000
# 2 345.8568 -181.3254 36.5397 0.0000 0.0000 0.0000
# 3 36.5397 36.5397 51.4825 0.0000 0.0000 0.0000
# 4 0.0000 0.0000 0.0000 10.5769 0.0000 0.0000
# 5 0.0000 0.0000 0.0000 0.0000 10.5769 0.0000
# 6 0.0000 0.0000 0.0000 0.0000 0.0000 -263.5911
#
#
#
# Elastic Compliance Matrix: (Units=1/GPa)
#
#
# Indices 1 2 3 4 5 6 
#
# 1 0.003490 0.005386 -0.006300 0.000000 0.000000 0.000000
# 2 0.005386 0.003490 -0.006300 0.000000 0.000000 0.000000
# 3 -0.006300 -0.006300 0.028367 0.000000 0.000000 0.000000
# 4 0.000000 0.000000 0.000000 0.094545 0.000000 0.000000
# 5 0.000000 0.000000 0.000000 0.000000 0.094545 0.000000
# 6 0.000000 0.000000 0.000000 0.000000 0.000000 -0.003794
#
#
# Mechanical properties :
#
#
# Convention : Reuss Voigt Hill
#
# Bulk Modulus (GPa) = 47.80209 58.52270 53.16239
# Shear Modulus (GPa) = 20.65756 -97.16109 -38.25176
#
# Velocity S-wave (km/s) = 3.72889 -8.08697 -5.07418
# Velocity P-wave (km/s) = 7.12145 6.91428 1.20579
#
# Compressibility (1/GPa) = 0.02091959
#
# Stress axis : x y z
#
# Youngs Moduli (GPa) = 286.56880 286.56880 35.25279
#
# Poissons Ratio (x) = -1.54359 0.22208
# Poissons Ratio (y) = -1.54359 0.22208
# Poissons Ratio (z) = 1.80531 1.80531
#
# Static dielectric constant tensor:
#      x y z
#    x 1.473070 0.000000 0.000000 
#    y 0.000000 1.473070 0.000000 
#    z 0.000000 0.000000 1.536470 
# 
# From -- ./inp_files/3526.got.cif
#   From: 2010.05.17/outbox.cif.g08.bks.cpg/sg192_2_cif.got.tgz:3526.got - 2010.05.20 12:28:01.
