data_PCOD9588012
_publ_section_title
;
Structure prediction by ZEFSAII (Michael W. Deem and Ramdas Pophale) SiO2 
 PCOD9588012
Probable space group: P 6/M M M
;
_chemical_formula_sum "Si O2"
_cell_formula_units_Z 108
_cell_length_a 22.251323
_cell_length_b 22.251323
_cell_length_c 13.772895
_cell_angle_alpha 90.000000
_cell_angle_beta 90.000000
_cell_angle_gamma 120.000000
_cell_volume 5905.647817
_symmetry_space_group_name_H-M "P 6/M M M"
_symmetry_group_IT_number 191
_symmetry_cell_setting 'hexagonal'
loop_
_space_group_symop_operation_xyz
x,y,z
x-y,x,z
-y,x-y,z
-x,-y,z
-x+y,-x,z
y,-x+y,z
x-y,-y,-z
-x,-x+y,-z
y,x,-z
-y,-x,-z
-x+y,y,-z
x,x-y,-z
-x,-y,-z
-x+y,-x,-z
y,-x+y,-z
x,y,-z
x-y,x,-z
-y,x-y,-z
-x+y,y,z
x,x-y,z
-y,-x,z
y,x,z
x-y,-y,z
-x,-x+y,z
loop_
_atom_site_type_symbol
_atom_site_label
_atom_site_fract_x
_atom_site_fract_y
_atom_site_fract_z
Si Si1 0.297445 0.077955 0.785262
Si Si2 0.476390 0.666399 0.727890
Si Si3 0.920912 0.704217 0.000000
Si Si4 0.077377 0.465507 0.888046
Si Si5 0.125531 0.729129 0.393128
O O1 0.280476 0.140238 0.774232
O O2 0.330614 0.087972 0.893922
O O3 0.347078 0.084500 0.696617
O O4 0.232906 0.000000 0.782839
O O5 0.471344 0.735672 0.736019
O O6 0.401260 0.598741 0.722030
O O7 0.517392 0.658970 0.819470
O O8 0.524919 0.674564 0.636378
O O9 0.864246 0.728492 0.000000
O O10 0.000000 0.765294 0.000000
O O11 0.075488 0.537744 0.887783
O O12 0.000000 0.407036 0.855071
O O13 0.086368 0.451612 0.000000
O O14 0.093087 0.715625 0.500000
O O15 0.196679 0.803322 0.396381
#
# Coordination Sequence:
#
# PCOD9588012 Si02
#       5
#    24  24  12  24  24
#     4   9  17  31  52  78 107 140 178 223 273 324
#     4  10  20  34  53  78 106 136 170 214 271 333
#     4   8  14  26  46  73 103 133 169 213 263 317
#     4   8  15  30  50  70  95 131 174 213 249 299
#     4   9  19  35  51  69  97 134 176 219 260 305
#
# _framework density 18.287579000000001
#
# number of rings (size 3 to 8) (size 9 to 14) (size 15 to 20)
#    0.000    3.111    0.000    0.889    0.000    2.222 
#    2.000    0.000    0.000    3.000    0.000    7.778 
#    0.000    0.000    0.000    5.556    0.000    5.778 
#
# Total GULP energy -601376.240380 kJ/mol
# GULP energy per Si atom -5568.298522 kJ/mol
# Density = 1.824596 g / cm^3
# Si number density = 18.287579 Si / 1000 Ang^3
#
#
#
# Elastic Constant Matrix: (Units=GPa)
#
#
# Indices 1 2 3 4 5 6 
#
# 1 78.8565 46.0346 51.4212 0.0000 0.0000 0.0000
# 2 46.0346 78.8565 51.4212 0.0000 0.0000 0.0000
# 3 51.4212 51.4212 149.2801 0.0000 0.0000 0.0000
# 4 0.0000 0.0000 0.0000 16.9991 0.0000 0.0000
# 5 0.0000 0.0000 0.0000 0.0000 16.9991 0.0000
# 6 0.0000 0.0000 0.0000 0.0000 0.0000 16.4110
#
#
#
# Elastic Compliance Matrix: (Units=1/GPa)
#
#
# Indices 1 2 3 4 5 6 
#
# 1 0.020822 -0.009645 -0.003850 0.000000 0.000000 0.000000
# 2 -0.009645 0.020822 -0.003850 0.000000 0.000000 0.000000
# 3 -0.003850 -0.003850 0.009351 0.000000 0.000000 0.000000
# 4 0.000000 0.000000 0.000000 0.058827 0.000000 0.000000
# 5 0.000000 0.000000 0.000000 0.000000 0.058827 0.000000
# 6 0.000000 0.000000 0.000000 0.000000 0.000000 0.060935
#
#
# Mechanical properties :
#
#
# Convention : Reuss Voigt Hill
#
# Bulk Modulus (GPa) = 61.32934 67.19411 64.26172
# Shear Modulus (GPa) = 18.53843 20.62293 19.58068
#
# Velocity S-wave (km/s) = 3.18735 3.36177 3.27572
# Velocity P-wave (km/s) = 6.86691 7.20357 7.03725
#
# Compressibility (1/GPa) = 0.01630541
#
# Stress axis : x y z
#
# Youngs Moduli (GPa) = 48.02512 48.02512 106.93708
#
# Poissons Ratio (x) = 0.46320 0.41173
# Poissons Ratio (y) = 0.46320 0.41173
# Poissons Ratio (z) = 0.18491 0.18491
#
# Static dielectric constant tensor:
#      x y z
#    x 1.631330 0.000000 0.000000 
#    y 0.000000 1.631330 0.000000 
#    z 0.000000 0.000000 1.668540 
# 
# From -- ./inp_files/2913.got.cif
#   From: 2010.05.17/outbox.cif.g08.bks.cpg/sg191_2_cif.got.tgz:2913.got - 2010.05.20 12:20:32.
