data_PCOD9588987
_publ_section_title
;
Structure prediction by ZEFSAII (Michael W. Deem and Ramdas Pophale) SiO2 
 PCOD9588987
Probable space group: P 63/M C M
;
_chemical_formula_sum "Si O2"
_cell_formula_units_Z 180
_cell_length_a 26.292335
_cell_length_b 26.292335
_cell_length_c 19.903998
_cell_angle_alpha 90.000000
_cell_angle_beta 90.000000
_cell_angle_gamma 120.000000
_cell_volume 11915.966274
_symmetry_space_group_name_H-M "P 63/M C M"
_symmetry_group_IT_number 193
_symmetry_cell_setting 'hexagonal'
loop_
_space_group_symop_operation_xyz
x,y,z
x-y,x,1/2+z
-y,x-y,z
-x,-y,1/2+z
-x+y,-x,z
y,-x+y,1/2+z
x-y,-y,1/2-z
-x,-x+y,1/2-z
y,x,1/2-z
-y,-x,-z
-x+y,y,-z
x,x-y,-z
-x,-y,-z
-x+y,-x,1/2-z
y,-x+y,-z
x,y,1/2-z
x-y,x,-z
-y,x-y,1/2-z
-x+y,y,1/2+z
x,x-y,1/2+z
-y,-x,1/2+z
y,x,z
x-y,-y,z
-x,-x+y,z
loop_
_atom_site_type_symbol
_atom_site_label
_atom_site_fract_x
_atom_site_fract_y
_atom_site_fract_z
Si Si1 0.367764 0.438361 0.081701
Si Si2 0.462093 0.533413 0.172219
Si Si3 0.238028 0.361162 0.917326
Si Si4 0.930393 0.069608 0.000000
Si Si5 0.814013 0.748315 0.323754
Si Si6 0.648265 0.766693 0.922310
Si Si7 0.066074 0.218834 0.878315
Si Si8 0.929153 0.372296 0.076158
O O1 0.399812 0.399812 0.085273
O O2 0.401544 0.491977 0.133075
O O3 0.299669 0.395749 0.099309
O O4 0.374348 0.458584 0.003319
O O5 0.455472 0.546662 0.250000
O O6 0.496583 0.496583 0.173949
O O7 0.502396 0.588909 0.124830
O O8 0.219622 0.301068 0.879014
O O9 0.185933 0.374887 0.901577
O O10 0.304492 0.409434 0.901807
O O11 0.235160 0.350404 0.996925
O O12 0.927985 0.110423 0.940729
O O13 0.000000 0.098452 0.017494
O O14 0.791932 0.722536 0.250000
O O15 0.800410 0.800410 0.334273
O O16 0.882469 0.771341 0.328724
O O17 0.715738 0.796420 0.899042
O O18 0.000000 0.182387 0.852635
O O19 0.000000 0.399483 0.080394
#
# Coordination Sequence:
#
# PCOD9588987 Si02
#       8
#    24  24  24  12  24  24  24  24
#     4   9  16  27  43  63  89 120 150 178 212 256
#     4   9  17  28  42  62  88 116 146 178 209 245
#     4   9  17  29  45  66  90 114 142 177 216 260
#     4  10  19  30  46  66  86 106 136 188 250 300
#     4  10  20  32  44  58  80 111 145 182 226 274
#     4   9  17  29  46  67  90 114 143 179 220 266
#     4  10  19  30  45  63  82 108 143 183 226 275
#     4   9  16  26  43  65  89 117 146 176 212 256
#
# _framework density 15.105783000000001
#
# number of rings (size 3 to 8) (size 9 to 14) (size 15 to 20)
#    0.000    2.667    0.000    3.267    0.000    5.067 
#    0.000    4.000    0.000    3.467    0.000    0.000 
#    1.333    0.000    2.400    0.000    0.800    0.000 
#
# Total GULP energy -1002209.582898 kJ/mol
# GULP energy per Si atom -5567.831016 kJ/mol
# Density = 1.507140 g / cm^3
# Si number density = 15.105783 Si / 1000 Ang^3
#
#
#
# Elastic Constant Matrix: (Units=GPa)
#
#
# Indices 1 2 3 4 5 6 
#
# 1 91.9046 42.4185 39.3347 0.0000 0.0000 0.0000
# 2 42.4185 91.9046 39.3347 0.0000 0.0000 0.0000
# 3 39.3347 39.3347 49.4088 0.0000 0.0000 0.0000
# 4 0.0000 0.0000 0.0000 8.7791 0.0000 0.0000
# 5 0.0000 0.0000 0.0000 0.0000 8.7791 0.0000
# 6 0.0000 0.0000 0.0000 0.0000 0.0000 24.7431
#
#
#
# Elastic Compliance Matrix: (Units=1/GPa)
#
#
# Indices 1 2 3 4 5 6 
#
# 1 0.017078 -0.003130 -0.011104 0.000000 0.000000 0.000000
# 2 -0.003130 0.017078 -0.011104 0.000000 0.000000 0.000000
# 3 -0.011104 -0.011104 0.037920 0.000000 0.000000 0.000000
# 4 0.000000 0.000000 0.000000 0.113907 0.000000 0.000000
# 5 0.000000 0.000000 0.000000 0.000000 0.113907 0.000000
# 6 0.000000 0.000000 0.000000 0.000000 0.000000 0.040415
#
#
# Mechanical properties :
#
#
# Convention : Reuss Voigt Hill
#
# Bulk Modulus (GPa) = 46.73106 52.82151 49.77629
# Shear Modulus (GPa) = 12.55924 15.93562 14.24743
#
# Velocity S-wave (km/s) = 2.88656 3.25150 3.07445
# Velocity P-wave (km/s) = 6.48943 7.00999 6.75473
#
# Compressibility (1/GPa) = 0.02139904
#
# Stress axis : x y z
#
# Youngs Moduli (GPa) = 58.55512 58.55512 26.37154
#
# Poissons Ratio (x) = 0.18326 0.29284
# Poissons Ratio (y) = 0.18326 0.29284
# Poissons Ratio (z) = 0.65021 0.65021
#
# Static dielectric constant tensor:
#      x y z
#    x 1.495900 0.000000 0.000000 
#    y 0.000000 1.495900 0.000000 
#    z 0.000000 0.000000 1.510310 
# 
# From -- ./inp_files/5689.got.cif
#   From: 2010.05.17/outbox.cif.g08.bks.cpg/sg193_3_cif.got.tgz:5689.got - 2010.05.20 12:33:02.
