data_PCOD9588781
_publ_section_title
;
Structure prediction by ZEFSAII (Michael W. Deem and Ramdas Pophale) SiO2 
 PCOD9588781
Probable space group: P 6/M C C
;
_chemical_formula_sum "Si O2"
_cell_formula_units_Z 104
_cell_length_a 19.956342
_cell_length_b 19.956342
_cell_length_c 15.067070
_cell_angle_alpha 90.000000
_cell_angle_beta 90.000000
_cell_angle_gamma 120.000000
_cell_volume 5196.624227
_symmetry_space_group_name_H-M "P 6/M C C"
_symmetry_group_IT_number 192
_symmetry_cell_setting 'hexagonal'
loop_
_space_group_symop_operation_xyz
x,y,z
x-y,x,z
-y,x-y,z
-x,-y,z
-x+y,-x,z
y,-x+y,z
x-y,-y,1/2-z
-x,-x+y,1/2-z
y,x,1/2-z
-y,-x,1/2-z
-x+y,y,1/2-z
x,x-y,1/2-z
-x,-y,-z
-x+y,-x,-z
y,-x+y,-z
x,y,-z
x-y,x,-z
-y,x-y,-z
-x+y,y,1/2+z
x,x-y,1/2+z
-y,-x,1/2+z
y,x,1/2+z
x-y,-y,1/2+z
-x,-x+y,1/2+z
loop_
_atom_site_type_symbol
_atom_site_label
_atom_site_fract_x
_atom_site_fract_y
_atom_site_fract_z
Si Si1 0.619348 0.593351 0.152762
Si Si2 0.333334 0.666668 0.142369
Si Si3 0.299130 0.278026 0.500000
Si Si4 0.504145 0.764133 0.647035
Si Si5 0.166520 0.358906 0.000000
Si Si6 0.114650 0.568494 0.603254
O O1 0.626288 0.626288 0.250000
O O2 0.684289 0.650093 0.087470
O O3 0.538676 0.577111 0.111112
O O4 0.608285 0.507934 0.154582
O O5 0.333334 0.666667 0.250000
O O6 0.268504 0.689977 0.115548
O O7 0.295240 0.194716 0.500000
O O8 0.237701 0.309647 0.500000
O O9 0.523827 0.761913 0.750000
O O10 0.579322 0.797159 0.582825
O O11 0.473183 0.824220 0.643043
O O12 0.127053 0.559941 0.500000
#
# Coordination Sequence:
#
# PCOD9588781 Si02
#       6
#    24   8  12  24  12  24
#     4  11  22  36  64  97 130 174 223 278 332 395
#     4   9  24  37  53  85 130 185 238 271 314 352
#     4  12  26  48  67 103 125 170 213 283 351 430
#     4  11  24  42  61  91 134 183 237 280 321 377
#     4  12  28  47  72  92 130 163 216 275 351 418
#     4  11  19  38  59  87 134 172 237 279 321 378
#
# _framework density 20.012992000000001
#
# number of rings (size 3 to 8) (size 9 to 14) (size 15 to 20)
#    0.000    0.923    5.769    2.077    6.462    4.615 
#    0.000    0.000    0.000    0.231    0.000    0.000 
#    0.000    0.000    0.000    4.154    0.000    0.000 
#
# Total GULP energy -580405.643643 kJ/mol
# GULP energy per Si atom -5580.823497 kJ/mol
# Density = 1.996744 g / cm^3
# Si number density = 20.012992 Si / 1000 Ang^3
#
#
#
# Elastic Constant Matrix: (Units=GPa)
#
#
# Indices 1 2 3 4 5 6 
#
# 1 93.6851 57.6340 24.3180 -0.0001 0.0000 0.0001
# 2 57.6340 93.6851 24.3182 -0.0001 -0.0001 0.0001
# 3 24.3180 24.3182 128.6857 0.0000 -0.0001 0.0000
# 4 -0.0001 -0.0001 0.0000 33.2202 0.0001 0.0001
# 5 0.0000 -0.0001 -0.0001 0.0001 33.2207 0.0000
# 6 0.0001 0.0001 0.0000 0.0001 0.0000 18.0256
#
#
#
# Elastic Compliance Matrix: (Units=1/GPa)
#
#
# Indices 1 2 3 4 5 6 
#
# 1 0.017387 -0.010351 -0.001330 0.000000 0.000000 0.000000
# 2 -0.010351 0.017387 -0.001330 0.000000 0.000000 0.000000
# 3 -0.001330 -0.001330 0.008273 0.000000 0.000000 0.000000
# 4 0.000000 0.000000 0.000000 0.030102 0.000000 0.000000
# 5 0.000000 0.000000 0.000000 0.000000 0.030102 0.000000
# 6 0.000000 0.000000 0.000000 0.000000 0.000000 0.055477
#
#
# Mechanical properties :
#
#
# Convention : Reuss Voigt Hill
#
# Bulk Modulus (GPa) = 58.73091 58.73294 58.73193
# Shear Modulus (GPa) = 26.25710 30.87902 28.56806
#
# Velocity S-wave (km/s) = 3.62609 3.93230 3.78229
# Velocity P-wave (km/s) = 6.85138 7.07308 6.96311
#
# Compressibility (1/GPa) = 0.01702681
#
# Stress axis : x y z
#
# Youngs Moduli (GPa) = 57.51378 57.51373 120.86953
#
# Poissons Ratio (x) = 0.59534 0.16070
# Poissons Ratio (y) = 0.59534 0.16071
# Poissons Ratio (z) = 0.07647 0.07647
#
# Static dielectric constant tensor:
#      x y z
#    x 2.267930 0.000140 0.000000 
#    y 0.000140 2.267540 0.000010 
#    z 0.000000 0.000010 1.696670 
# 
# From -- ./inp_files/2952.got.cif
#   From: 2010.05.17/outbox.cif.g08.bks.cpg/sg192_2_cif.got.tgz:2952.got - 2010.05.20 12:28:01.
