data_PCOD9588920
_publ_section_title
;
Structure prediction by ZEFSAII (Michael W. Deem and Ramdas Pophale) SiO2 
 PCOD9588920
Probable space group: P 63/M C M
;
_chemical_formula_sum "Si O2"
_cell_formula_units_Z 88
_cell_length_a 16.881446
_cell_length_b 16.881446
_cell_length_c 13.384700
_cell_angle_alpha 90.000000
_cell_angle_beta 90.000000
_cell_angle_gamma 120.000000
_cell_volume 3303.380197
_symmetry_space_group_name_H-M "P 63/M C M"
_symmetry_group_IT_number 193
_symmetry_cell_setting 'hexagonal'
loop_
_space_group_symop_operation_xyz
x,y,z
x-y,x,1/2+z
-y,x-y,z
-x,-y,1/2+z
-x+y,-x,z
y,-x+y,1/2+z
x-y,-y,1/2-z
-x,-x+y,1/2-z
y,x,1/2-z
-y,-x,-z
-x+y,y,-z
x,x-y,-z
-x,-y,-z
-x+y,-x,1/2-z
y,-x+y,-z
x,y,1/2-z
x-y,x,-z
-y,x-y,1/2-z
-x+y,y,1/2+z
x,x-y,1/2+z
-y,-x,1/2+z
y,x,z
x-y,-y,z
-x,-x+y,z
loop_
_atom_site_type_symbol
_atom_site_label
_atom_site_fract_x
_atom_site_fract_y
_atom_site_fract_z
Si Si1 0.902672 0.713302 0.128062
Si Si2 0.000000 0.190480 0.362403
Si Si3 0.386884 0.496379 0.871765
Si Si4 0.805705 0.515779 0.370354
Si Si5 0.000000 0.000000 0.616999
O O1 0.900270 0.716830 0.250000
O O2 0.825132 0.732899 0.090826
O O3 0.887395 0.615965 0.104853
O O4 0.000000 0.794880 0.098313
O O5 0.000000 0.222198 0.250000
O O6 0.000000 0.093846 0.355334
O O7 0.382627 0.487926 0.750000
O O8 0.433263 0.433263 0.902656
O O9 0.286412 0.482177 0.903535
O O10 0.449357 0.604607 0.897575
O O11 0.793342 0.504169 0.250000
O O12 0.000000 0.000000 0.500000
#
# Coordination Sequence:
#
# PCOD9588920 Si02
#       5
#    24  12  24  24   4
#     4   9  16  24  38  56  76 104 145 188 217 252
#     4  10  18  30  46  64  87 118 155 188 221 258
#     4   9  16  24  33  45  68  99 137 183 226 270
#     4   9  16  24  34  49  71 104 144 182 226 270
#     4  12  22  32  46  66  91 122 154 186 223 272
#
# _framework density 26.639382000000001
#
# number of rings (size 3 to 8) (size 9 to 14) (size 15 to 20)
#    0.000    2.727    1.364    1.773    1.909    5.455 
#    0.000    0.000    0.000    0.000    0.000    0.000 
#    0.000    0.000    0.000    4.909    0.000    5.455 
#
# Total GULP energy -490895.199100 kJ/mol
# GULP energy per Si atom -5578.354535 kJ/mol
# Density = 2.657875 g / cm^3
# Si number density = 26.639382 Si / 1000 Ang^3
#
#
#
# Elastic Constant Matrix: (Units=GPa)
#
#
# Indices 1 2 3 4 5 6 
#
# 1 151.8831 75.0377 9.6822 0.0000 0.0000 0.0000
# 2 75.0377 151.8831 9.6822 0.0000 0.0000 0.0000
# 3 9.6822 9.6822 99.3210 0.0000 0.0000 0.0000
# 4 0.0000 0.0000 0.0000 28.4780 0.0000 0.0000
# 5 0.0000 0.0000 0.0000 0.0000 28.4780 0.0000
# 6 0.0000 0.0000 0.0000 0.0000 0.0000 38.4227
#
#
#
# Elastic Compliance Matrix: (Units=1/GPa)
#
#
# Indices 1 2 3 4 5 6 
#
# 1 0.008728 -0.004285 -0.000433 0.000000 0.000000 0.000000
# 2 -0.004285 0.008728 -0.000433 0.000000 0.000000 0.000000
# 3 -0.000433 -0.000433 0.010153 0.000000 0.000000 0.000000
# 4 0.000000 0.000000 0.000000 0.035115 0.000000 0.000000
# 5 0.000000 0.000000 0.000000 0.000000 0.035115 0.000000
# 6 0.000000 0.000000 0.000000 0.000000 0.000000 0.026026
#
#
# Mechanical properties :
#
#
# Convention : Reuss Voigt Hill
#
# Bulk Modulus (GPa) = 57.77803 65.76570 61.77187
# Shear Modulus (GPa) = 35.73036 39.65474 37.69255
#
# Velocity S-wave (km/s) = 3.66630 3.86239 3.76562
# Velocity P-wave (km/s) = 6.29749 6.68070 6.49192
#
# Compressibility (1/GPa) = 0.01730762
#
# Stress axis : x y z
#
# Youngs Moduli (GPa) = 114.56762 114.56762 98.49476
#
# Poissons Ratio (x) = 0.49089 0.04267
# Poissons Ratio (y) = 0.49089 0.04267
# Poissons Ratio (z) = 0.04963 0.04963
#
# Static dielectric constant tensor:
#      x y z
#    x 2.009950 0.000000 0.000000 
#    y 0.000000 2.009950 0.000000 
#    z 0.000000 0.000000 2.191400 
# 
# From -- ./inp_files/5106.got.cif
#   From: 2010.05.17/outbox.cif.g08.bks.cpg/sg193_3_cif.got.tgz:5106.got - 2010.05.20 12:33:02.
