data_PCOD9588169
_publ_section_title
;
Structure prediction by ZEFSAII (Michael W. Deem and Ramdas Pophale) SiO2 
 PCOD9588169
Probable space group: P 6/M M M
;
_chemical_formula_sum "Si O2"
_cell_formula_units_Z 138
_cell_length_a 31.651965
_cell_length_b 31.651965
_cell_length_c 8.013543
_cell_angle_alpha 90.000000
_cell_angle_beta 90.000000
_cell_angle_gamma 120.000000
_cell_volume 6952.749092
_symmetry_space_group_name_H-M "P 6/M M M"
_symmetry_group_IT_number 191
_symmetry_cell_setting 'hexagonal'
loop_
_space_group_symop_operation_xyz
x,y,z
x-y,x,z
-y,x-y,z
-x,-y,z
-x+y,-x,z
y,-x+y,z
x-y,-y,-z
-x,-x+y,-z
y,x,-z
-y,-x,-z
-x+y,y,-z
x,x-y,-z
-x,-y,-z
-x+y,-x,-z
y,-x+y,-z
x,y,-z
x-y,x,-z
-y,x-y,-z
-x+y,y,z
x,x-y,z
-y,-x,z
y,x,z
x-y,-y,z
-x,-x+y,z
loop_
_atom_site_type_symbol
_atom_site_label
_atom_site_fract_x
_atom_site_fract_y
_atom_site_fract_z
Si Si1 0.762608 0.429221 0.800139
Si Si2 0.134939 0.766912 0.701867
Si Si3 0.205437 0.944146 0.197261
Si Si4 0.146073 0.677065 0.695892
Si Si5 0.882099 0.941049 0.000000
Si Si6 0.192688 0.096344 0.312341
Si Si7 0.944784 0.423400 0.798234
O O1 0.713153 0.426306 0.734638
O O2 0.769305 0.384653 0.735772
O O3 0.808937 0.482024 0.767811
O O4 0.757691 0.423757 0.000000
O O5 0.132060 0.764739 0.500000
O O6 0.183829 0.816172 0.749692
O O7 0.089614 0.771427 0.765148
O O8 0.139101 0.720946 0.763851
O O9 0.154354 0.926231 0.289505
O O10 0.242300 0.000000 0.241483
O O11 0.194640 0.941243 0.000000
O O12 0.155960 0.686052 0.500000
O O13 0.096562 0.626577 0.724391
O O14 0.914789 0.914789 0.000000
O O15 0.847426 0.923713 0.164917
O O16 0.171781 0.085891 0.500000
O O17 0.936753 0.468377 0.751343
O O18 0.000000 0.439315 0.748868
O O19 0.942124 0.419964 0.000000
#
# Coordination Sequence:
#
# PCOD9588169 Si02
#       7
#    24  24  24  24   6  12  24
#     4  10  21  38  60  85 113 149 197 252 309 371
#     4  10  22  40  58  80 115 159 201 241 295 363
#     4  11  23  40  64  96 129 160 206 266 317 371
#     4  11  23  37  56  84 120 157 195 242 301 370
#     4  12  27  48  72 104 144 184 232 284 334 394
#     4  12  24  43  71 101 136 178 222 274 334 392
#     4   9  19  37  59  81 108 146 194 246 296 350
#
# _framework density 19.848264
#
# number of rings (size 3 to 8) (size 9 to 14) (size 15 to 20)
#    0.000    1.565    1.739    3.348    0.000    9.391 
#    0.000    4.348    0.000    1.565    0.000    0.000 
#    0.000    0.000    0.000    0.000    0.000    0.000 
#
# Total GULP energy -771246.959407 kJ/mol
# GULP energy per Si atom -5588.746083 kJ/mol
# Density = 1.980309 g / cm^3
# Si number density = 19.848264 Si / 1000 Ang^3
#
#
#
# Elastic Constant Matrix: (Units=GPa)
#
#
# Indices 1 2 3 4 5 6 
#
# 1 147.5801 101.2232 31.8593 0.0000 0.0000 0.0000
# 2 101.2232 147.5801 31.8593 0.0000 0.0000 0.0000
# 3 31.8593 31.8593 48.5621 0.0000 0.0000 0.0000
# 4 0.0000 0.0000 0.0000 23.3656 0.0000 0.0000
# 5 0.0000 0.0000 0.0000 0.0000 23.3656 0.0000
# 6 0.0000 0.0000 0.0000 0.0000 0.0000 23.1785
#
#
#
# Elastic Compliance Matrix: (Units=1/GPa)
#
#
# Indices 1 2 3 4 5 6 
#
# 1 0.013201 -0.008370 -0.003169 0.000000 0.000000 0.000000
# 2 -0.008370 0.013201 -0.003169 0.000000 0.000000 0.000000
# 3 -0.003169 -0.003169 0.024751 0.000000 0.000000 0.000000
# 4 0.000000 0.000000 0.000000 0.042798 0.000000 0.000000
# 5 0.000000 0.000000 0.000000 0.000000 0.042798 0.000000
# 6 0.000000 0.000000 0.000000 0.000000 0.000000 0.043143
#
#
# Mechanical properties :
#
#
# Convention : Reuss Voigt Hill
#
# Bulk Modulus (GPa) = 46.00834 74.84510 60.42672
# Shear Modulus (GPa) = 23.08872 25.90064 24.49468
#
# Velocity S-wave (km/s) = 3.41436 3.61630 3.51678
# Velocity P-wave (km/s) = 6.22689 7.43151 6.85571
#
# Compressibility (1/GPa) = 0.02173519
#
# Stress axis : x y z
#
# Youngs Moduli (GPa) = 75.74997 75.74997 40.40290
#
# Poissons Ratio (x) = 0.63406 0.12805
# Poissons Ratio (y) = 0.63406 0.12805
# Poissons Ratio (z) = 0.24008 0.24008
#
# Static dielectric constant tensor:
#      x y z
#    x 1.674980 0.000000 0.000000 
#    y 0.000000 1.674980 0.000000 
#    z 0.000000 0.000000 1.720960 
# 
# From -- ./inp_files/2050.got.cif
#   From: 2010.05.17/outbox.cif.g08.bks.cpg/sg191_2_cif.got.tgz:2050.got - 2010.05.20 12:20:32.
