data_PCOD9588711
_publ_section_title
;
Structure prediction by ZEFSAII (Michael W. Deem and Ramdas Pophale) SiO2 
 PCOD9588711
Probable space group: P 6/M C C
;
_chemical_formula_sum "Si O2"
_cell_formula_units_Z 60
_cell_length_a 10.980452
_cell_length_b 10.980452
_cell_length_c 24.849006
_cell_angle_alpha 90.000000
_cell_angle_beta 90.000000
_cell_angle_gamma 120.000000
_cell_volume 2594.657799
_symmetry_space_group_name_H-M "P 6/M C C"
_symmetry_group_IT_number 192
_symmetry_cell_setting 'hexagonal'
loop_
_space_group_symop_operation_xyz
x,y,z
x-y,x,z
-y,x-y,z
-x,-y,z
-x+y,-x,z
y,-x+y,z
x-y,-y,1/2-z
-x,-x+y,1/2-z
y,x,1/2-z
-y,-x,1/2-z
-x+y,y,1/2-z
x,x-y,1/2-z
-x,-y,-z
-x+y,-x,-z
y,-x+y,-z
x,y,-z
x-y,x,-z
-y,x-y,-z
-x+y,y,1/2+z
x,x-y,1/2+z
-y,-x,1/2+z
y,x,1/2+z
x-y,-y,1/2+z
-x,-x+y,1/2+z
loop_
_atom_site_type_symbol
_atom_site_label
_atom_site_fract_x
_atom_site_fract_y
_atom_site_fract_z
Si Si1 0.679880 0.925014 0.562932
Si Si2 0.651019 0.166692 0.839580
Si Si3 0.000000 0.709789 0.750000
O O1 0.728619 0.809976 0.573147
O O2 0.641944 0.916396 0.500000
O O3 0.550015 0.887962 0.601890
O O4 0.789538 0.321722 0.833180
O O5 0.651555 0.059849 0.796860
O O6 0.866670 0.733339 0.750000
#
# Coordination Sequence:
#
# PCOD9588711 Si02
#       3
#    24  24  12
#     4  10  21  40  71 109 149 194 246 311 382 450
#     4  10  26  48  69 104 147 196 248 306 382 459
#     4  12  27  47  74 102 139 187 248 310 374 445
#
# _framework density 23.124435999999999
#
# number of rings (size 3 to 8) (size 9 to 14) (size 15 to 20)
#    0.800    0.800    0.000    3.000    0.000   12.800 
#    0.000    8.000    0.000    0.000    0.000    0.000 
#    0.000    0.000    0.000    0.000    0.000    0.000 
#
# Total GULP energy -334951.568664 kJ/mol
# GULP energy per Si atom -5582.526144 kJ/mol
# Density = 2.307180 g / cm^3
# Si number density = 23.124436 Si / 1000 Ang^3
#
#
#
# Elastic Constant Matrix: (Units=GPa)
#
#
# Indices 1 2 3 4 5 6 
#
# 1 184.7536 67.1960 83.5621 0.0000 0.0000 0.0000
# 2 67.1960 184.7536 83.5621 0.0000 0.0000 0.0000
# 3 83.5621 83.5621 116.3924 0.0000 0.0000 0.0000
# 4 0.0000 0.0000 0.0000 50.0082 0.0000 0.0000
# 5 0.0000 0.0000 0.0000 0.0000 50.0082 0.0000
# 6 0.0000 0.0000 0.0000 0.0000 0.0000 58.7788
#
#
#
# Elastic Compliance Matrix: (Units=1/GPa)
#
#
# Indices 1 2 3 4 5 6 
#
# 1 0.008042 -0.000464 -0.005440 0.000000 0.000000 0.000000
# 2 -0.000464 0.008042 -0.005440 0.000000 0.000000 0.000000
# 3 -0.005440 -0.005440 0.016403 0.000000 0.000000 0.000000
# 4 0.000000 0.000000 0.000000 0.019997 0.000000 0.000000
# 5 0.000000 0.000000 0.000000 0.000000 0.019997 0.000000
# 6 0.000000 0.000000 0.000000 0.000000 0.000000 0.017013
#
#
# Mechanical properties :
#
#
# Convention : Reuss Voigt Hill
#
# Bulk Modulus (GPa) = 102.06777 106.06001 104.06389
# Shear Modulus (GPa) = 43.30892 48.53100 45.91996
#
# Velocity S-wave (km/s) = 4.33235 4.58611 4.46104
# Velocity P-wave (km/s) = 8.32226 8.60278 8.46368
#
# Compressibility (1/GPa) = 0.00979741
#
# Stress axis : x y z
#
# Youngs Moduli (GPa) = 124.34549 124.34549 60.96360
#
# Poissons Ratio (x) = 0.05774 0.33166
# Poissons Ratio (y) = 0.05774 0.33166
# Poissons Ratio (z) = 0.67648 0.67648
#
# Static dielectric constant tensor:
#      x y z
#    x 1.945550 0.000000 0.000000 
#    y 0.000000 1.945550 0.000000 
#    z 0.000000 0.000000 1.861480 
# 
# From -- ./inp_files/6231.got.cif
#   From: 2010.05.17/outbox.cif.g08.bks.cpg/sg192_4_cif.got.tgz:6231.got - 2010.05.20 12:28:01.
