data_PCOD9588770
_publ_section_title
;
Structure prediction by ZEFSAII (Michael W. Deem and Ramdas Pophale) SiO2 
 PCOD9588770
Probable space group: P 6/M C C
;
_chemical_formula_sum "Si O2"
_cell_formula_units_Z 116
_cell_length_a 14.434177
_cell_length_b 14.434177
_cell_length_c 30.066009
_cell_angle_alpha 90.000000
_cell_angle_beta 90.000000
_cell_angle_gamma 120.000000
_cell_volume 5424.884148
_symmetry_space_group_name_H-M "P 6/M C C"
_symmetry_group_IT_number 192
_symmetry_cell_setting 'hexagonal'
loop_
_space_group_symop_operation_xyz
x,y,z
x-y,x,z
-y,x-y,z
-x,-y,z
-x+y,-x,z
y,-x+y,z
x-y,-y,1/2-z
-x,-x+y,1/2-z
y,x,1/2-z
-y,-x,1/2-z
-x+y,y,1/2-z
x,x-y,1/2-z
-x,-y,-z
-x+y,-x,-z
y,-x+y,-z
x,y,-z
x-y,x,-z
-y,x-y,-z
-x+y,y,1/2+z
x,x-y,1/2+z
-y,-x,1/2+z
y,x,1/2+z
x-y,-y,1/2+z
-x,-x+y,1/2+z
loop_
_atom_site_type_symbol
_atom_site_label
_atom_site_fract_x
_atom_site_fract_y
_atom_site_fract_z
Si Si1 0.500000 0.500000 0.333200
Si Si2 0.666668 0.333334 0.053748
Si Si3 0.748389 0.568017 0.947649
Si Si4 0.027600 0.687562 0.399061
Si Si5 0.232921 0.174072 0.325523
Si Si6 0.681788 0.120564 0.727120
O O1 0.397336 0.425394 0.363757
O O2 0.523416 0.422739 0.300935
O O3 0.765056 0.319765 0.067777
O O4 0.666667 0.333334 0.000000
O O5 0.678673 0.622895 0.937640
O O6 0.856865 0.619908 0.919397
O O7 0.772468 0.572462 0.000000
O O8 0.978850 0.754627 0.375135
O O9 0.141947 0.197916 0.309842
O O10 0.352272 0.239199 0.307945
O O11 0.763762 0.236239 0.750000
O O12 0.631574 0.000000 0.750000
#
# Coordination Sequence:
#
# PCOD9588770 Si02
#       6
#    12   8  24  24  24  24
#     4  10  25  38  65  98 124 186 220 278 355 408
#     4   9  21  36  57  87 114 153 217 290 343 390
#     4  11  22  40  65  95 132 175 228 291 346 405
#     4  11  22  40  62  94 133 176 228 271 337 425
#     4  11  21  37  61  95 128 171 216 268 332 399
#     4  11  22  41  67  97 133 170 226 286 341 418
#
# _framework density 21.382944999999999
#
# number of rings (size 3 to 8) (size 9 to 14) (size 15 to 20)
#    0.000    1.241    4.138    2.379    0.000    0.000 
#    0.000    6.207    0.000    5.793    0.000    2.897 
#    0.000    0.000    0.000    0.000    0.000    0.000 
#
# Total GULP energy -645740.989561 kJ/mol
# GULP energy per Si atom -5566.732669 kJ/mol
# Density = 2.133428 g / cm^3
# Si number density = 21.382945 Si / 1000 Ang^3
#
#
#
# Elastic Constant Matrix: (Units=GPa)
#
#
# Indices 1 2 3 4 5 6 
#
# 1 23.7655 75.6596 12.2320 0.0000 0.0001 -0.0005
# 2 75.6596 23.7623 12.2309 0.0000 0.0000 -0.0003
# 3 12.2320 12.2309 56.6429 0.0000 0.0000 -0.0002
# 4 0.0000 0.0000 0.0000 21.9186 0.0000 0.0001
# 5 0.0001 0.0000 0.0000 0.0000 21.9187 0.0000
# 6 -0.0005 -0.0003 -0.0002 0.0001 0.0000 -25.9480
#
#
#
# Elastic Compliance Matrix: (Units=1/GPa)
#
#
# Indices 1 2 3 4 5 6 
#
# 1 -0.004323 0.014946 -0.002294 0.000000 0.000000 0.000000
# 2 0.014946 -0.004324 -0.002294 0.000000 0.000000 0.000000
# 3 -0.002294 -0.002294 0.018645 0.000000 0.000000 0.000000
# 4 0.000000 0.000000 0.000000 0.045623 0.000000 0.000000
# 5 0.000000 0.000000 0.000000 0.000000 0.045623 0.000000
# 6 0.000000 0.000000 0.000000 0.000000 0.000000 -0.038539
#
#
# Mechanical properties :
#
#
# Convention : Reuss Voigt Hill
#
# Bulk Modulus (GPa) = 32.55773 33.82397 33.19085
# Shear Modulus (GPa) = 95.73495 3.84774 49.79134
#
# Velocity S-wave (km/s) = 6.69842 1.34289 4.83074
# Velocity P-wave (km/s) = 8.66511 4.27282 6.83159
#
# Compressibility (1/GPa) = 0.03071467
#
# Stress axis : x y z
#
# Youngs Moduli (GPa) = -231.30749 -231.27846 53.63344
#
# Poissons Ratio (x) = 3.45666 0.12302
# Poissons Ratio (y) = 3.45709 0.12303
# Poissons Ratio (z) = -0.53054 -0.53053
#
# Static dielectric constant tensor:
#      x y z
#    x 1.904650 0.000000 0.000000 
#    y 0.000000 1.904650 0.000000 
#    z 0.000000 0.000000 1.852070 
# 
# From -- ./inp_files/6973.got.cif
#   From: 2010.05.17/outbox.cif.g08.bks.cpg/sg192_4_cif.got.tgz:6973.got - 2010.05.20 12:28:01.
