data_PCOD9588751
_publ_section_title
;
Structure prediction by ZEFSAII (Michael W. Deem and Ramdas Pophale) SiO2 
 PCOD9588751
Probable space group: P 6/M C C
;
_chemical_formula_sum "Si O2"
_cell_formula_units_Z 60
_cell_length_a 21.669108
_cell_length_b 21.669108
_cell_length_c 9.800883
_cell_angle_alpha 90.000000
_cell_angle_beta 90.000000
_cell_angle_gamma 120.000000
_cell_volume 3985.454953
_symmetry_space_group_name_H-M "P 6/M C C"
_symmetry_group_IT_number 192
_symmetry_cell_setting 'hexagonal'
loop_
_space_group_symop_operation_xyz
x,y,z
x-y,x,z
-y,x-y,z
-x,-y,z
-x+y,-x,z
y,-x+y,z
x-y,-y,1/2-z
-x,-x+y,1/2-z
y,x,1/2-z
-y,-x,1/2-z
-x+y,y,1/2-z
x,x-y,1/2-z
-x,-y,-z
-x+y,-x,-z
y,-x+y,-z
x,y,-z
x-y,x,-z
-y,x-y,-z
-x+y,y,1/2+z
x,x-y,1/2+z
-y,-x,1/2+z
y,x,1/2+z
x-y,-y,1/2+z
-x,-x+y,1/2+z
loop_
_atom_site_type_symbol
_atom_site_label
_atom_site_fract_x
_atom_site_fract_y
_atom_site_fract_z
Si Si1 0.325953 0.583161 0.500000
Si Si2 0.556351 0.619801 0.000000
Si Si3 0.167366 0.697607 0.273318
Si Si4 0.101566 0.492434 0.500000
O O1 0.395761 0.660308 0.500000
O O2 0.320127 0.538780 0.366044
O O3 0.571487 0.669585 0.868584
O O4 0.595846 0.574666 0.000000
O O5 0.470722 0.561323 0.000000
O O6 0.217682 0.782319 0.250000
O O7 0.140894 0.653141 0.134959
#
# Coordination Sequence:
#
# PCOD9588751 Si02
#       4
#    12  12  24  12
#     4   9  23  35  43  64  93 127 140 176 251 312
#     4  10  23  36  53  67  92 128 158 195 238 297
#     4  11  23  34  51  70  92 120 150 202 245 295
#     4  11  22  37  52  70  90 122 166 195 235 301
#
# _framework density 15.054741999999999
#
# number of rings (size 3 to 8) (size 9 to 14) (size 15 to 20)
#    0.400    1.200    0.000    4.800   16.800    3.200 
#    0.000    0.000    0.000    0.000    0.000    0.000 
#    0.000    0.000    0.000    0.000    0.000    0.000 
#
# Total GULP energy -334945.578500 kJ/mol
# GULP energy per Si atom -5582.426308 kJ/mol
# Density = 1.502048 g / cm^3
# Si number density = 15.054742 Si / 1000 Ang^3
#
#
#
# Elastic Constant Matrix: (Units=GPa)
#
#
# Indices 1 2 3 4 5 6 
#
# 1 65.3741 12.4745 28.7773 0.0000 0.0000 0.0000
# 2 12.4745 65.3741 28.7773 0.0000 0.0000 0.0000
# 3 28.7773 28.7773 129.8073 0.0000 0.0000 0.0000
# 4 0.0000 0.0000 0.0000 15.1114 0.0000 0.0000
# 5 0.0000 0.0000 0.0000 0.0000 15.1114 0.0000
# 6 0.0000 0.0000 0.0000 0.0000 0.0000 26.4498
#
#
#
# Elastic Compliance Matrix: (Units=1/GPa)
#
#
# Indices 1 2 3 4 5 6 
#
# 1 0.017134 -0.001770 -0.003406 0.000000 0.000000 0.000000
# 2 -0.001770 0.017134 -0.003406 0.000000 0.000000 0.000000
# 3 -0.003406 -0.003406 0.009214 0.000000 0.000000 0.000000
# 4 0.000000 0.000000 0.000000 0.066175 0.000000 0.000000
# 5 0.000000 0.000000 0.000000 0.000000 0.066175 0.000000
# 6 0.000000 0.000000 0.000000 0.000000 0.000000 0.037807
#
#
# Mechanical properties :
#
#
# Convention : Reuss Voigt Hill
#
# Bulk Modulus (GPa) = 37.99819 44.51263 41.25541
# Shear Modulus (GPa) = 20.87021 24.03626 22.45323
#
# Velocity S-wave (km/s) = 3.72733 4.00007 3.86611
# Velocity P-wave (km/s) = 6.61958 7.13901 6.88419
#
# Compressibility (1/GPa) = 0.02631704
#
# Stress axis : x y z
#
# Youngs Moduli (GPa) = 58.36472 58.36472 108.53182
#
# Poissons Ratio (x) = 0.10331 0.36966
# Poissons Ratio (y) = 0.10331 0.36966
# Poissons Ratio (z) = 0.19879 0.19879
#
# Static dielectric constant tensor:
#      x y z
#    x 1.529150 0.000000 0.000000 
#    y 0.000000 1.529150 0.000000 
#    z 0.000000 0.000000 1.531350 
# 
# From -- ./inp_files/620.got.cif
#   From: 2010.05.17/outbox.cif.g08.bks.cpg/sg192_1_cif.got.tgz:620.got - 2010.05.20 12:28:01.
