data_PCOD9588083
_publ_section_title
;
Structure prediction by ZEFSAII (Michael W. Deem and Ramdas Pophale) SiO2 
 PCOD9588083
Probable space group: P 6/M M M
;
_chemical_formula_sum "Si O2"
_cell_formula_units_Z 54
_cell_length_a 20.627360
_cell_length_b 20.627360
_cell_length_c 7.238557
_cell_angle_alpha 90.000000
_cell_angle_beta 90.000000
_cell_angle_gamma 120.000000
_cell_volume 2667.288096
_symmetry_space_group_name_H-M "P 6/M M M"
_symmetry_group_IT_number 191
_symmetry_cell_setting 'hexagonal'
loop_
_space_group_symop_operation_xyz
x,y,z
x-y,x,z
-y,x-y,z
-x,-y,z
-x+y,-x,z
y,-x+y,z
x-y,-y,-z
-x,-x+y,-z
y,x,-z
-y,-x,-z
-x+y,y,-z
x,x-y,-z
-x,-y,-z
-x+y,-x,-z
y,-x+y,-z
x,y,-z
x-y,x,-z
-y,x-y,-z
-x+y,y,z
x,x-y,z
-y,-x,z
y,x,z
x-y,-y,z
-x,-x+y,z
loop_
_atom_site_type_symbol
_atom_site_label
_atom_site_fract_x
_atom_site_fract_y
_atom_site_fract_z
Si Si1 0.154682 0.154682 0.500000
Si Si2 0.141740 0.710669 0.224441
Si Si3 0.728616 0.728616 0.222105
Si Si4 0.456517 0.913034 0.774971
O O1 0.148387 0.074194 0.500000
O O2 0.203214 0.203214 0.325081
O O3 0.220192 0.779809 0.285783
O O4 0.073102 0.723374 0.274520
O O5 0.125646 0.629374 0.284950
O O6 0.142533 0.709986 0.000000
O O7 0.736692 0.736692 0.000000
O O8 0.500000 0.000000 0.720057
O O9 0.456215 0.912430 0.000000
#
# Coordination Sequence:
#
# PCOD9588083 Si02
#       4
#     6  24  12  12
#     4  12  27  44  62  87 118 148 178 220 280 345
#     4   9  16  27  47  75 106 145 191 235 282 334
#     4  10  20  38  63  87 112 145 191 239 279 324
#     4   9  14  24  42  68 104 146 186 228 284 336
#
# _framework density 20.245280999999999
#
# number of rings (size 3 to 8) (size 9 to 14) (size 15 to 20)
#    0.000    2.444    2.222    1.444    0.000    2.667 
#    1.333    0.000    0.000    4.000    0.000    0.000 
#    0.000    0.000    0.000    0.000    0.444    0.000 
#
# Total GULP energy -301834.147804 kJ/mol
# GULP energy per Si atom -5589.521256 kJ/mol
# Density = 2.019920 g / cm^3
# Si number density = 20.245281 Si / 1000 Ang^3
#
#
#
# Elastic Constant Matrix: (Units=GPa)
#
#
# Indices 1 2 3 4 5 6 
#
# 1 232.5952 149.9900 30.9726 0.0000 0.0000 0.0000
# 2 149.9900 232.5952 30.9726 0.0000 0.0000 0.0000
# 3 30.9726 30.9726 100.6845 0.0000 0.0000 0.0000
# 4 0.0000 0.0000 0.0000 6.0182 0.0000 0.0000
# 5 0.0000 0.0000 0.0000 0.0000 6.0182 0.0000
# 6 0.0000 0.0000 0.0000 0.0000 0.0000 41.3026
#
#
#
# Elastic Compliance Matrix: (Units=1/GPa)
#
#
# Indices 1 2 3 4 5 6 
#
# 1 0.007428 -0.004677 -0.000846 0.000000 0.000000 0.000000
# 2 -0.004677 0.007428 -0.000846 0.000000 0.000000 0.000000
# 3 -0.000846 -0.000846 0.010453 0.000000 0.000000 0.000000
# 4 0.000000 0.000000 0.000000 0.166161 0.000000 0.000000
# 5 0.000000 0.000000 0.000000 0.000000 0.166161 0.000000
# 6 0.000000 0.000000 0.000000 0.000000 0.000000 0.024212
#
#
# Mechanical properties :
#
#
# Convention : Reuss Voigt Hill
#
# Bulk Modulus (GPa) = 79.55805 109.97168 94.76486
# Shear Modulus (GPa) = 12.53846 34.26380 23.40113
#
# Velocity S-wave (km/s) = 2.49133 4.11838 3.40351
# Velocity P-wave (km/s) = 6.90348 8.77795 7.89653
#
# Compressibility (1/GPa) = 0.01256944
#
# Stress axis : x y z
#
# Youngs Moduli (GPa) = 134.62044 134.62044 95.66963
#
# Poissons Ratio (x) = 0.62969 0.08096
# Poissons Ratio (y) = 0.62969 0.08096
# Poissons Ratio (z) = 0.11392 0.11392
#
# Static dielectric constant tensor:
#      x y z
#    x 1.667180 0.000000 0.000000 
#    y 0.000000 1.667180 0.000000 
#    z 0.000000 0.000000 1.764250 
# 
# From -- ./inp_files/503.got.cif
#   From: 2010.05.17/outbox.cif.g08.bks.cpg/sg191_1_cif.got.tgz:503.got - 2010.05.20 12:20:32.
