data_PCOD9588165
_publ_section_title
;
Structure prediction by ZEFSAII (Michael W. Deem and Ramdas Pophale) SiO2 
 PCOD9588165
Probable space group: P 6/M M M
;
_chemical_formula_sum "Si O2"
_cell_formula_units_Z 60
_cell_length_a 20.598413
_cell_length_b 20.598413
_cell_length_c 8.752768
_cell_angle_alpha 90.000000
_cell_angle_beta 90.000000
_cell_angle_gamma 120.000000
_cell_volume 3216.203884
_symmetry_space_group_name_H-M "P 6/M M M"
_symmetry_group_IT_number 191
_symmetry_cell_setting 'hexagonal'
loop_
_space_group_symop_operation_xyz
x,y,z
x-y,x,z
-y,x-y,z
-x,-y,z
-x+y,-x,z
y,-x+y,z
x-y,-y,-z
-x,-x+y,-z
y,x,-z
-y,-x,-z
-x+y,y,-z
x,x-y,-z
-x,-y,-z
-x+y,-x,-z
y,-x+y,-z
x,y,-z
x-y,x,-z
-y,x-y,-z
-x+y,y,z
x,x-y,z
-y,-x,z
y,x,z
x-y,-y,z
-x,-x+y,z
loop_
_atom_site_type_symbol
_atom_site_label
_atom_site_fract_x
_atom_site_fract_y
_atom_site_fract_z
Si Si1 0.846404 0.846404 0.322795
Si Si2 0.564110 0.857808 0.683499
Si Si3 0.455633 0.544368 0.183443
Si Si4 0.000000 0.709126 0.820621
O O1 0.852581 0.926291 0.301670
O O2 0.822775 0.822775 0.500000
O O3 0.785405 0.785405 0.212084
O O4 0.563139 0.861331 0.500000
O O5 0.556496 0.778248 0.726892
O O6 0.499929 0.871790 0.751465
O O7 0.641832 0.925985 0.745101
O O8 0.500000 0.500000 0.226969
O O9 0.453989 0.546012 0.000000
O O10 0.000000 0.694099 0.000000
#
# Coordination Sequence:
#
# PCOD9588165 Si02
#       4
#    12  24  12  12
#     4  10  21  38  59  83 114 155 202 249 299 359
#     4  11  24  42  66  94 124 164 210 257 307 365
#     4  11  23  41  67  99 130 166 208 256 318 382
#     4  12  24  38  60  91 124 159 201 253 310 366
#
# _framework density 18.655533999999999
#
# number of rings (size 3 to 8) (size 9 to 14) (size 15 to 20)
#    0.000    1.000    2.000    5.000    0.000   10.400 
#    1.200    0.000    0.000    1.200    0.000    0.000 
#    0.000    0.000    0.000    0.000    0.000    0.000 
#
# Total GULP energy -335633.083458 kJ/mol
# GULP energy per Si atom -5593.884724 kJ/mol
# Density = 1.861307 g / cm^3
# Si number density = 18.655534 Si / 1000 Ang^3
#
#
#
# Elastic Constant Matrix: (Units=GPa)
#
#
# Indices 1 2 3 4 5 6 
#
# 1 150.0600 82.1775 59.8278 0.0000 0.0000 0.0000
# 2 82.1775 150.0600 59.8278 0.0000 0.0000 0.0000
# 3 59.8278 59.8278 77.1759 0.0000 0.0000 0.0000
# 4 0.0000 0.0000 0.0000 -69.2175 0.0000 0.0000
# 5 0.0000 0.0000 0.0000 0.0000 -69.2175 0.0000
# 6 0.0000 0.0000 0.0000 0.0000 0.0000 33.9413
#
#
#
# Elastic Compliance Matrix: (Units=1/GPa)
#
#
# Indices 1 2 3 4 5 6 
#
# 1 0.010950 -0.003781 -0.005558 0.000000 0.000000 0.000000
# 2 -0.003781 0.010950 -0.005558 0.000000 0.000000 0.000000
# 3 -0.005558 -0.005558 0.021575 0.000000 0.000000 0.000000
# 4 0.000000 0.000000 0.000000 -0.014447 0.000000 0.000000
# 5 0.000000 0.000000 0.000000 0.000000 -0.014447 0.000000
# 6 0.000000 0.000000 0.000000 0.000000 0.000000 0.029463
#
#
# Mechanical properties :
#
#
# Convention : Reuss Voigt Hill
#
# Bulk Modulus (GPa) = 73.08900 86.77357 79.93129
# Shear Modulus (GPa) = 63.77734 -9.20121 27.28806
#
# Velocity S-wave (km/s) = 5.85329 -2.22326 3.82872
# Velocity P-wave (km/s) = 9.21654 6.32646 7.90470
#
# Compressibility (1/GPa) = 0.01368195
#
# Stress axis : x y z
#
# Youngs Moduli (GPa) = 91.32058 91.32058 46.35092
#
# Poissons Ratio (x) = 0.34527 0.25761
# Poissons Ratio (y) = 0.34527 0.25761
# Poissons Ratio (z) = 0.50755 0.50755
#
# Static dielectric constant tensor:
#      x y z
#    x 1.618150 0.000000 0.000000 
#    y 0.000000 1.618150 0.000000 
#    z 0.000000 0.000000 1.635600 
# 
# From -- ./inp_files/589.got.cif
#   From: 2010.05.17/outbox.cif.g08.bks.cpg/sg191_1_cif.got.tgz:589.got - 2010.05.20 12:20:32.
