data_PCOD9588963
_publ_section_title
;
Structure prediction by ZEFSAII (Michael W. Deem and Ramdas Pophale) SiO2 
 PCOD9588963
Probable space group: P 63/M C M
;
_chemical_formula_sum "Si O2"
_cell_formula_units_Z 168
_cell_length_a 17.791262
_cell_length_b 17.791262
_cell_length_c 33.718363
_cell_angle_alpha 90.000000
_cell_angle_beta 90.000000
_cell_angle_gamma 120.000000
_cell_volume 9242.950434
_symmetry_space_group_name_H-M "P 63/M C M"
_symmetry_group_IT_number 193
_symmetry_cell_setting 'hexagonal'
loop_
_space_group_symop_operation_xyz
x,y,z
x-y,x,1/2+z
-y,x-y,z
-x,-y,1/2+z
-x+y,-x,z
y,-x+y,1/2+z
x-y,-y,1/2-z
-x,-x+y,1/2-z
y,x,1/2-z
-y,-x,-z
-x+y,y,-z
x,x-y,-z
-x,-y,-z
-x+y,-x,1/2-z
y,-x+y,-z
x,y,1/2-z
x-y,x,-z
-y,x-y,1/2-z
-x+y,y,1/2+z
x,x-y,1/2+z
-y,-x,1/2+z
y,x,z
x-y,-y,z
-x,-x+y,z
loop_
_atom_site_type_symbol
_atom_site_label
_atom_site_fract_x
_atom_site_fract_y
_atom_site_fract_z
Si Si1 0.525423 0.816662 0.921261
Si Si2 0.515048 0.145572 0.584390
Si Si3 0.101853 0.900303 0.296269
Si Si4 0.220261 0.374382 0.657778
Si Si5 0.103663 0.608968 0.793872
Si Si6 0.647012 0.549230 0.670481
Si Si7 0.536045 0.636917 0.000743
O O1 0.460416 0.854848 0.915351
O O2 0.470021 0.712930 0.915382
O O3 0.602837 0.846792 0.889003
O O4 0.554923 0.844953 0.966818
O O5 0.466786 0.096607 0.623734
O O6 0.452737 0.106281 0.546091
O O7 0.118478 0.885159 0.250000
O O8 0.167737 0.891701 0.326426
O O9 0.000000 0.835389 0.304900
O O10 0.124516 0.000000 0.298067
O O11 0.312458 0.432797 0.678356
O O12 0.160006 0.411562 0.673708
O O13 0.137611 0.641285 0.750000
O O14 0.135734 0.544819 0.809621
O O15 0.000000 0.548362 0.792177
O O16 0.613324 0.613324 0.685003
O O17 0.586499 0.586499 0.013228
O O18 0.432642 0.567358 0.000000
#
# Coordination Sequence:
#
# PCOD9588963 Si02
#       7
#    24  24  24  24  24  24  24
#     4  10  20  31  50  75 103 141 181 230 277 330
#     4  10  18  33  50  72 103 138 181 228 280 332
#     4  10  21  38  61  87 114 143 180 233 298 363
#     4  11  21  35  54  82 108 143 184 230 277 334
#     4  10  21  37  54  73 101 139 182 225 271 324
#     4  10  21  36  54  74 104 144 183 225 277 329
#     4   9  18  30  46  70  98 133 178 226 279 334
#
# _framework density 18.176015
#
# number of rings (size 3 to 8) (size 9 to 14) (size 15 to 20)
#    0.000    2.000    1.429    2.571    0.000    4.571 
#    0.857    2.857    0.000    0.000    0.000    0.000 
#    0.000    0.000    0.000    0.857    0.000   45.143 
#
# Total GULP energy -935234.420433 kJ/mol
# GULP energy per Si atom -5566.871550 kJ/mol
# Density = 1.813465 g / cm^3
# Si number density = 18.176015 Si / 1000 Ang^3
#
#
#
# Elastic Constant Matrix: (Units=GPa)
#
#
# Indices 1 2 3 4 5 6 
#
# 1 53.5459 20.6273 11.9123 0.0000 0.0000 0.0000
# 2 20.6273 53.5459 11.9123 0.0000 0.0000 0.0000
# 3 11.9123 11.9123 69.1615 0.0000 0.0000 0.0000
# 4 0.0000 0.0000 0.0000 -217.3715 -0.0001 0.0000
# 5 0.0000 0.0000 0.0000 -0.0001 -217.3714 0.0000
# 6 0.0000 0.0000 0.0000 0.0000 0.0000 16.4593
#
#
#
# Elastic Compliance Matrix: (Units=1/GPa)
#
#
# Indices 1 2 3 4 5 6 
#
# 1 0.022325 -0.008053 -0.002458 0.000000 0.000000 0.000000
# 2 -0.008053 0.022325 -0.002458 0.000000 0.000000 0.000000
# 3 -0.002458 -0.002458 0.015306 0.000000 0.000000 0.000000
# 4 0.000000 0.000000 0.000000 -0.004600 0.000000 0.000000
# 5 0.000000 0.000000 0.000000 0.000000 -0.004600 0.000000
# 6 0.000000 0.000000 0.000000 0.000000 0.000000 0.060756
#
#
# Mechanical properties :
#
#
# Convention : Reuss Voigt Hill
#
# Bulk Modulus (GPa) = 29.39771 29.46190 29.42980
# Shear Modulus (GPa) = 33.60488 -74.86995 -20.63253
#
# Velocity S-wave (km/s) = 4.30450 -6.42503 -3.37286
# Velocity P-wave (km/s) = 6.39640 6.22872 1.02883
#
# Compressibility (1/GPa) = 0.03401626
#
# Stress axis : x y z
#
# Youngs Moduli (GPa) = 44.79336 44.79336 65.33525
#
# Poissons Ratio (x) = 0.36073 0.16060
# Poissons Ratio (y) = 0.36073 0.16060
# Poissons Ratio (z) = 0.11011 0.11011
#
# Static dielectric constant tensor:
#      x y z
#    x 1.660070 0.000000 0.000000 
#    y 0.000000 1.660070 0.000000 
#    z 0.000000 0.000000 1.700790 
# 
# From -- ./inp_files/9287.got.cif
#   From: 2010.05.17/outbox.cif.g08.bks.cpg/sg193_5_cif.got.tgz:9287.got - 2010.05.20 12:33:02.
