data_PCOD9588262
_publ_section_title
;
Structure prediction by ZEFSAII (Michael W. Deem and Ramdas Pophale) SiO2 
 PCOD9588262
Probable space group: P 6/M M M
;
_chemical_formula_sum "Si O2"
_cell_formula_units_Z 120
_cell_length_a 18.000000
_cell_length_b 18.000000
_cell_length_c 27.000000
_cell_angle_alpha 90.000000
_cell_angle_beta 90.000000
_cell_angle_gamma 120.000000
_cell_volume 7575.990232
_symmetry_space_group_name_H-M "P 6/M M M"
_symmetry_group_IT_number 191
_symmetry_cell_setting 'hexagonal'
loop_
_space_group_symop_operation_xyz
x,y,z
x-y,x,z
-y,x-y,z
-x,-y,z
-x+y,-x,z
y,-x+y,z
x-y,-y,-z
-x,-x+y,-z
y,x,-z
-y,-x,-z
-x+y,y,-z
x,x-y,-z
-x,-y,-z
-x+y,-x,-z
y,-x+y,-z
x,y,-z
x-y,x,-z
-y,x-y,-z
-x+y,y,z
x,x-y,z
-y,-x,z
y,x,z
x-y,-y,z
-x,-x+y,z
loop_
_atom_site_type_symbol
_atom_site_label
_atom_site_fract_x
_atom_site_fract_y
_atom_site_fract_z
Si Si1 0.363515 0.466559 0.403696
Si Si2 0.155561 0.666496 0.890756
Si Si3 0.734913 0.101934 0.500000
Si Si4 0.668503 0.506318 0.706183
Si Si5 0.333471 0.843942 0.000000
Si Si6 0.903846 0.269686 0.797373
O O1 0.433652 0.566349 0.412525
O O2 0.416477 0.416477 0.399738
O O3 0.302712 0.425579 0.450853
O O4 0.321893 0.459812 0.350121
O O5 0.154379 0.577190 0.883623
O O6 0.253688 0.746313 0.890672
O O7 0.109636 0.684919 0.845571
O O8 0.117100 0.664176 0.945762
O O9 0.836752 0.163249 0.500000
O O10 0.699158 0.000000 0.500000
O O11 0.737921 0.475841 0.713718
O O12 0.572587 0.427414 0.711470
O O13 0.689366 0.577239 0.747986
O O14 0.246874 0.753126 0.000000
O O15 0.415085 0.830170 0.000000
O O16 0.829152 0.170849 0.798761
O O17 0.000000 0.287867 0.797148
#
# Coordination Sequence:
#
# PCOD9588262 Si02
#       6
#    24  24  12  24  12  24
#     4   9  17  29  46  67  90 118 152 189 226 262
#     4   9  16  26  42  65  94 127 160 189 215 246
#     4  10  19  31  47  66  89 117 152 192 233 277
#     4  10  19  30  45  67  97 130 160 185 209 242
#     4   8  13  22  37  59  88 123 160 192 217 242
#     4  10  21  35  50  67  87 113 145 184 229 274
#
# _framework density 15.839513999999999
#
# number of rings (size 3 to 8) (size 9 to 14) (size 15 to 20)
#    0.000    2.600    0.000    2.600    0.000    5.200 
#    0.000    2.500    0.000    4.900    0.000    0.000 
#    0.000    0.000    0.000    6.400    0.000   11.800 
#
# Total GULP energy -668526.960205 kJ/mol
# GULP energy per Si atom -5571.058002 kJ/mol
# Density = 1.580346 g / cm^3
# Si number density = 15.839514 Si / 1000 Ang^3
#
#
#
# Elastic Constant Matrix: (Units=GPa)
#
#
# Indices 1 2 3 4 5 6 
#
# 1 55.4718 47.3740 43.9800 0.0000 0.0000 0.0000
# 2 47.3740 55.4718 43.9800 0.0000 0.0000 0.0000
# 3 43.9800 43.9800 124.1535 0.0000 0.0000 0.0000
# 4 0.0000 0.0000 0.0000 16.3857 0.0000 0.0000
# 5 0.0000 0.0000 0.0000 0.0000 16.3857 0.0000
# 6 0.0000 0.0000 0.0000 0.0000 0.0000 4.0489
#
#
#
# Elastic Compliance Matrix: (Units=1/GPa)
#
#
# Indices 1 2 3 4 5 6 
#
# 1 0.068720 -0.054771 -0.004941 0.000000 0.000000 0.000000
# 2 -0.054771 0.068720 -0.004941 0.000000 0.000000 0.000000
# 3 -0.004941 -0.004941 0.011555 0.000000 0.000000 0.000000
# 4 0.000000 0.000000 0.000000 0.061029 0.000000 0.000000
# 5 0.000000 0.000000 0.000000 0.000000 0.061029 0.000000
# 6 0.000000 0.000000 0.000000 0.000000 0.000000 0.246982
#
#
# Mechanical properties :
#
#
# Convention : Reuss Voigt Hill
#
# Bulk Modulus (GPa) = 50.79067 56.19615 53.49341
# Shear Modulus (GPa) = 7.64637 14.01492 10.83064
#
# Velocity S-wave (km/s) = 2.19952 2.97780 2.61774
# Velocity P-wave (km/s) = 6.21176 6.88321 6.55608
#
# Compressibility (1/GPa) = 0.01968866
#
# Stress axis : x y z
#
# Youngs Moduli (GPa) = 14.55177 14.55177 86.53907
#
# Poissons Ratio (x) = 0.79701 0.42763
# Poissons Ratio (y) = 0.79701 0.42763
# Poissons Ratio (z) = 0.07191 0.07191
#
# Static dielectric constant tensor:
#      x y z
#    x 1.520520 0.000000 0.000000 
#    y 0.000000 1.520520 0.000000 
#    z 0.000000 0.000000 1.557150 
# 
# From -- ./inp_files/8568.got.cif
#   From: 2010.05.17/outbox.ucp.g08.bks.cvg/sg191_5_cif.got.tgz:8568.got - 2010.06.11 15:22:43.
