data_PCOD9588705
_publ_section_title
;
Structure prediction by ZEFSAII (Michael W. Deem and Ramdas Pophale) SiO2 
 PCOD9588705
Probable space group: P 6/M C C
;
_chemical_formula_sum "Si O2"
_cell_formula_units_Z 104
_cell_length_a 19.662146
_cell_length_b 19.662146
_cell_length_c 17.817244
_cell_angle_alpha 90.000000
_cell_angle_beta 90.000000
_cell_angle_gamma 120.000000
_cell_volume 5965.309654
_symmetry_space_group_name_H-M "P 6/M C C"
_symmetry_group_IT_number 192
_symmetry_cell_setting 'hexagonal'
loop_
_space_group_symop_operation_xyz
x,y,z
x-y,x,z
-y,x-y,z
-x,-y,z
-x+y,-x,z
y,-x+y,z
x-y,-y,1/2-z
-x,-x+y,1/2-z
y,x,1/2-z
-y,-x,1/2-z
-x+y,y,1/2-z
x,x-y,1/2-z
-x,-y,-z
-x+y,-x,-z
y,-x+y,-z
x,y,-z
x-y,x,-z
-y,x-y,-z
-x+y,y,1/2+z
x,x-y,1/2+z
-y,-x,1/2+z
y,x,1/2+z
x-y,-y,1/2+z
-x,-x+y,1/2+z
loop_
_atom_site_type_symbol
_atom_site_label
_atom_site_fract_x
_atom_site_fract_y
_atom_site_fract_z
Si Si1 0.218811 0.714002 0.411162
Si Si2 0.714147 0.713606 0.339697
Si Si3 0.039631 0.591567 0.589774
Si Si4 0.835067 0.162060 0.590173
Si Si5 0.666668 0.333334 0.338420
O O1 0.233591 0.714916 0.500000
O O2 0.133077 0.638691 0.395485
O O3 0.210133 0.789441 0.393491
O O4 0.286330 0.708396 0.368394
O O5 0.718216 0.718216 0.250000
O O6 0.636694 0.633540 0.366183
O O7 0.709736 0.786210 0.374706
O O8 0.786813 0.707709 0.373914
O O9 0.029750 0.599016 0.500000
O O10 0.000000 0.500000 0.608051
O O11 0.841288 0.159348 0.500000
O O12 0.666668 0.333334 0.250000
#
# Coordination Sequence:
#
# PCOD9588705 Si02
#       5
#    24  24  24  24   8
#     4   9  20  37  55  76 103 143 195 234 271 328
#     4  11  22  36  58  89 121 147 180 238 297 339
#     4   9  19  36  56  78 104 146 197 235 275 338
#     4  10  21  40  63  85 111 152 197 232 273 344
#     4  12  25  35  49  75 112 146 181 234 292 338
#
# _framework density 17.434132000000002
#
# number of rings (size 3 to 8) (size 9 to 14) (size 15 to 20)
#    0.000    2.077    0.000    4.846    3.231    4.154 
#    0.000    0.000    0.000    0.462    0.000    3.231 
#    0.000    0.000    0.000    0.000    0.000    0.000 
#
# Total GULP energy -580869.488843 kJ/mol
# GULP energy per Si atom -5585.283547 kJ/mol
# Density = 1.739445 g / cm^3
# Si number density = 17.434132 Si / 1000 Ang^3
#
#
#
# Elastic Constant Matrix: (Units=GPa)
#
#
# Indices 1 2 3 4 5 6 
#
# 1 108.8316 79.1016 71.9166 -0.0002 -0.0001 0.0002
# 2 79.1016 108.8325 71.9166 -0.0001 0.0001 0.0002
# 3 71.9166 71.9166 95.9978 0.0001 -0.0001 0.0000
# 4 -0.0002 -0.0001 0.0001 14.6754 -0.0001 -0.0001
# 5 -0.0001 0.0001 -0.0001 -0.0001 14.6761 0.0000
# 6 0.0002 0.0002 0.0000 -0.0001 0.0000 14.8651
#
#
#
# Elastic Compliance Matrix: (Units=1/GPa)
#
#
# Indices 1 2 3 4 5 6 
#
# 1 0.023054 -0.010582 -0.009343 0.000000 0.000000 0.000000
# 2 -0.010582 0.023053 -0.009343 0.000000 0.000000 0.000000
# 3 -0.009343 -0.009343 0.024416 0.000000 0.000000 0.000000
# 4 0.000000 0.000000 0.000000 0.068141 0.000001 0.000001
# 5 0.000000 0.000000 0.000000 0.000001 0.068138 0.000000
# 6 0.000000 0.000000 0.000000 0.000001 0.000000 0.067272
#
#
# Mechanical properties :
#
#
# Convention : Reuss Voigt Hill
#
# Bulk Modulus (GPa) = 83.42710 84.39239 83.90974
# Shear Modulus (GPa) = 14.85417 14.89180 14.87299
#
# Velocity S-wave (km/s) = 2.92210 2.92580 2.92395
# Velocity P-wave (km/s) = 7.70334 7.74114 7.72226
#
# Compressibility (1/GPa) = 0.01198651
#
# Stress axis : x y z
#
# Youngs Moduli (GPa) = 43.37664 43.37750 40.95707
#
# Poissons Ratio (x) = 0.45902 0.38268
# Poissons Ratio (y) = 0.45901 0.38266
# Poissons Ratio (z) = 0.40528 0.40528
#
# Static dielectric constant tensor:
#      x y z
#    x 1.580000 0.000000 0.000000 
#    y 0.000000 1.580000 0.000000 
#    z 0.000000 0.000000 1.574710 
# 
# From -- ./inp_files/2851.got.cif
#   From: 2010.05.17/outbox.cif.g08.bks.cpg/sg192_2_cif.got.tgz:2851.got - 2010.05.20 12:28:01.
