data_PCOD9588353
_publ_section_title
;
Structure prediction by ZEFSAII (Michael W. Deem and Ramdas Pophale) SiO2 
 PCOD9588353
Probable space group: P 6/M C C
;
_chemical_formula_sum "Si O2"
_cell_formula_units_Z 72
_cell_length_a 22.335659
_cell_length_b 22.335659
_cell_length_c 9.212223
_cell_angle_alpha 90.000000
_cell_angle_beta 90.000000
_cell_angle_gamma 120.000000
_cell_volume 3980.087457
_symmetry_space_group_name_H-M "P 6/M C C"
_symmetry_group_IT_number 192
_symmetry_cell_setting 'hexagonal'
loop_
_space_group_symop_operation_xyz
x,y,z
x-y,x,z
-y,x-y,z
-x,-y,z
-x+y,-x,z
y,-x+y,z
x-y,-y,1/2-z
-x,-x+y,1/2-z
y,x,1/2-z
-y,-x,1/2-z
-x+y,y,1/2-z
x,x-y,1/2-z
-x,-y,-z
-x+y,-x,-z
y,-x+y,-z
x,y,-z
x-y,x,-z
-y,x-y,-z
-x+y,y,1/2+z
x,x-y,1/2+z
-y,-x,1/2+z
y,x,1/2+z
x-y,-y,1/2+z
-x,-x+y,1/2+z
loop_
_atom_site_type_symbol
_atom_site_label
_atom_site_fract_x
_atom_site_fract_y
_atom_site_fract_z
Si Si1 0.609100 0.609100 0.250000
Si Si2 0.088733 0.471495 0.000000
Si Si3 0.731276 0.268725 0.750000
Si Si4 0.432211 0.245626 0.000000
Si Si5 0.698746 0.097881 0.500000
Si Si6 0.803816 0.368368 0.000000
O O1 0.589540 0.544823 0.355408
O O2 0.622091 0.672425 0.356541
O O3 0.151187 0.549775 0.000000
O O4 0.106719 0.408460 0.000000
O O5 0.787989 0.270897 0.639002
O O6 0.756449 0.333690 0.857955
O O7 0.385330 0.162938 0.000000
O O8 0.658295 0.141263 0.500000
#
# Coordination Sequence:
#
# PCOD9588353 Si02
#       6
#    12  12  12  12  12  12
#     4  10  22  35  50  80 106 124 162 212 264 317
#     4  11  22  35  55  75 104 137 166 215 267 324
#     4   8  18  34  52  70  86 112 162 209 238 308
#     4  10  18  34  56  70  89 128 163 187 241 309
#     4   9  20  35  52  75  99 125 160 204 258 315
#     4  10  20  35  53  72  94 123 163 204 258 313
#
# _framework density 18.090055
#
# number of rings (size 3 to 8) (size 9 to 14) (size 15 to 20)
#    0.000    2.667    0.000    4.000    0.000    9.333 
#    0.000    5.000    0.000   54.000    0.000    0.000 
#    0.000    0.000    0.000    0.000    0.000    0.000 
#
# Total GULP energy -401103.576987 kJ/mol
# GULP energy per Si atom -5570.883014 kJ/mol
# Density = 1.804888 g / cm^3
# Si number density = 18.090055 Si / 1000 Ang^3
#
#
#
# Elastic Constant Matrix: (Units=GPa)
#
#
# Indices 1 2 3 4 5 6 
#
# 1 79.1496 30.2604 43.7511 0.0000 0.0000 0.0000
# 2 30.2604 79.1496 43.7511 0.0000 0.0000 0.0000
# 3 43.7511 43.7511 164.1741 0.0000 0.0000 0.0000
# 4 0.0000 0.0000 0.0000-1137.2141 0.0000 0.0000
# 5 0.0000 0.0000 0.0000 0.0000-1137.2142 0.0000
# 6 0.0000 0.0000 0.0000 0.0000 0.0000 24.4446
#
#
#
# Elastic Compliance Matrix: (Units=1/GPa)
#
#
# Indices 1 2 3 4 5 6 
#
# 1 0.016035 -0.004419 -0.003095 0.000000 0.000000 0.000000
# 2 -0.004419 0.016035 -0.003095 0.000000 0.000000 0.000000
# 3 -0.003095 -0.003095 0.007741 0.000000 0.000000 0.000000
# 4 0.000000 0.000000 0.000000 -0.000879 0.000000 0.000000
# 5 0.000000 0.000000 0.000000 0.000000 -0.000879 0.000000
# 6 0.000000 0.000000 0.000000 0.000000 0.000000 0.040909
#
#
# Mechanical properties :
#
#
# Convention : Reuss Voigt Hill
#
# Bulk Modulus (GPa) = 53.79168 61.99983 57.89575
# Shear Modulus (GPa) = 47.00203 -436.34936 -194.67367
#
# Velocity S-wave (km/s) = 5.10281 -15.54777 -10.38495
# Velocity P-wave (km/s) = 8.03233 16.96949 10.56989
#
# Compressibility (1/GPa) = 0.01859024
#
# Stress axis : x y z
#
# Youngs Moduli (GPa) = 62.36364 62.36364 129.18351
#
# Poissons Ratio (x) = 0.27561 0.39988
# Poissons Ratio (y) = 0.27561 0.39988
# Poissons Ratio (z) = 0.19304 0.19304
#
# Static dielectric constant tensor:
#      x y z
#    x 1.688360 0.000000 0.000000 
#    y 0.000000 1.688360 0.000000 
#    z 0.000000 0.000000 1.729410 
# 
# From -- ./inp_files/717.got.cif
#   From: 2010.05.17/outbox.cif.g08.bks.cpg/sg192_1_cif.got.tgz:717.got - 2010.05.20 12:28:01.
