data_PCOD9588778
_publ_section_title
;
Structure prediction by ZEFSAII (Michael W. Deem and Ramdas Pophale) SiO2 
 PCOD9588778
Probable space group: P 6/M C C
;
_chemical_formula_sum "Si O2"
_cell_formula_units_Z 56
_cell_length_a 16.178103
_cell_length_b 16.178103
_cell_length_c 14.470410
_cell_angle_alpha 90.000000
_cell_angle_beta 90.000000
_cell_angle_gamma 120.000000
_cell_volume 3279.945748
_symmetry_space_group_name_H-M "P 6/M C C"
_symmetry_group_IT_number 192
_symmetry_cell_setting 'hexagonal'
loop_
_space_group_symop_operation_xyz
x,y,z
x-y,x,z
-y,x-y,z
-x,-y,z
-x+y,-x,z
y,-x+y,z
x-y,-y,1/2-z
-x,-x+y,1/2-z
y,x,1/2-z
-y,-x,1/2-z
-x+y,y,1/2-z
x,x-y,1/2-z
-x,-y,-z
-x+y,-x,-z
y,-x+y,-z
x,y,-z
x-y,x,-z
-y,x-y,-z
-x+y,y,1/2+z
x,x-y,1/2+z
-y,-x,1/2+z
y,x,1/2+z
x-y,-y,1/2+z
-x,-x+y,1/2+z
loop_
_atom_site_type_symbol
_atom_site_label
_atom_site_fract_x
_atom_site_fract_y
_atom_site_fract_z
Si Si1 0.333334 0.666668 0.111222
Si Si2 0.866557 0.287834 0.000000
Si Si3 0.559053 0.127918 0.355082
Si Si4 0.323091 0.923561 0.000000
O O1 0.344580 0.763920 0.146220
O O2 0.333334 0.666668 0.000000
O O3 0.863700 0.350988 0.913042
O O4 0.778174 0.177755 0.000000
O O5 0.973731 0.302581 0.000000
O O6 0.548484 0.096968 0.250000
O O7 0.462483 0.074491 0.413737
#
# Coordination Sequence:
#
# PCOD9588778 Si02
#       4
#     8  12  24  12
#     4  12  16  29  52  79 116 148 169 194 241 295
#     4  11  23  37  51  74 104 134 173 215 257 301
#     4  11  19  33  55  78 107 141 170 199 242 299
#     4  11  23  37  51  74 104 134 173 215 257 301
#
# _framework density 17.073454000000002
#
# number of rings (size 3 to 8) (size 9 to 14) (size 15 to 20)
#    0.000    0.857    8.571    3.857    0.000    3.429 
#    0.000    0.000    0.000    0.429    0.000    0.000 
#    0.000    0.000    0.000    7.714    0.000    0.000 
#
# Total GULP energy -311862.870222 kJ/mol
# GULP energy per Si atom -5568.979825 kJ/mol
# Density = 1.703459 g / cm^3
# Si number density = 17.073454 Si / 1000 Ang^3
#
#
#
# Elastic Constant Matrix: (Units=GPa)
#
#
# Indices 1 2 3 4 5 6 
#
# 1 102.3994 55.5021 30.7874 0.0001 0.0001 -0.0001
# 2 55.5021 102.3983 30.7871 0.0002 0.0001 -0.0004
# 3 30.7874 30.7871 159.5465 -0.0002 -0.0001 -0.0001
# 4 0.0001 0.0002 -0.0002 -6.8412 0.0001 0.0000
# 5 0.0001 0.0001 -0.0001 0.0001 -6.8416 0.0000
# 6 -0.0001 -0.0004 -0.0001 0.0000 0.0000 23.4480
#
#
#
# Elastic Compliance Matrix: (Units=1/GPa)
#
#
# Indices 1 2 3 4 5 6 
#
# 1 0.014086 -0.007238 -0.001322 0.000000 0.000000 0.000000
# 2 -0.007238 0.014086 -0.001322 0.000000 0.000000 0.000000
# 3 -0.001322 -0.001322 0.006778 0.000000 0.000000 0.000000
# 4 0.000000 0.000000 0.000000 -0.146172 -0.000001 0.000000
# 5 0.000000 0.000000 0.000000 -0.000001 -0.146165 0.000000
# 6 0.000000 0.000000 0.000000 0.000000 0.000000 0.042648
#
#
# Mechanical properties :
#
#
# Convention : Reuss Voigt Hill
#
# Bulk Modulus (GPa) = 65.83909 66.49970 66.16939
# Shear Modulus (GPa) = -26.32745 18.43754 -3.94496
#
# Velocity S-wave (km/s) = -3.93110 3.28974 -1.52171
# Velocity P-wave (km/s) = 4.24749 7.31188 5.97933
#
# Compressibility (1/GPa) = 0.01518855
#
# Stress axis : x y z
#
# Youngs Moduli (GPa) = 70.99323 70.99251 147.54085
#
# Poissons Ratio (x) = 0.51381 0.19498
# Poissons Ratio (y) = 0.51381 0.19498
# Poissons Ratio (z) = 0.09382 0.09382
#
# Static dielectric constant tensor:
#      x y z
#    x 1.636680 0.000000 0.000000 
#    y 0.000000 1.636690 0.000000 
#    z 0.000000 0.000000 1.661770 
# 
# From -- ./inp_files/2328.got.cif
#   From: 2010.05.17/outbox.cif.g08.bks.cpg/sg192_2_cif.got.tgz:2328.got - 2010.05.20 12:28:01.
