data_PCOD9588861
_publ_section_title
;
Structure prediction by ZEFSAII (Michael W. Deem and Ramdas Pophale) SiO2 
 PCOD9588861
Probable space group: P 6/M C C
;
_chemical_formula_sum "Si O2"
_cell_formula_units_Z 168
_cell_length_a 18.000000
_cell_length_b 18.000000
_cell_length_c 30.000000
_cell_angle_alpha 90.000000
_cell_angle_beta 90.000000
_cell_angle_gamma 120.000000
_cell_volume 8417.766925
_symmetry_space_group_name_H-M "P 6/M C C"
_symmetry_group_IT_number 192
_symmetry_cell_setting 'hexagonal'
loop_
_space_group_symop_operation_xyz
x,y,z
x-y,x,z
-y,x-y,z
-x,-y,z
-x+y,-x,z
y,-x+y,z
x-y,-y,1/2-z
-x,-x+y,1/2-z
y,x,1/2-z
-y,-x,1/2-z
-x+y,y,1/2-z
x,x-y,1/2-z
-x,-y,-z
-x+y,-x,-z
y,-x+y,-z
x,y,-z
x-y,x,-z
-y,x-y,-z
-x+y,y,1/2+z
x,x-y,1/2+z
-y,-x,1/2+z
y,x,1/2+z
x-y,-y,1/2+z
-x,-x+y,1/2+z
loop_
_atom_site_type_symbol
_atom_site_label
_atom_site_fract_x
_atom_site_fract_y
_atom_site_fract_z
Si Si1 0.902734 0.363283 0.259935
Si Si2 0.737249 0.494817 0.050579
Si Si3 0.156421 0.807433 0.604139
Si Si4 0.583680 0.412813 0.896961
Si Si5 0.539389 0.689006 0.668908
Si Si6 0.926525 0.799465 0.450822
Si Si7 0.048975 0.410879 0.143381
O O1 0.900226 0.450113 0.250000
O O2 0.844039 0.299735 0.221595
O O3 0.893750 0.342248 0.311740
O O4 0.000000 0.385968 0.250000
O O5 0.811758 0.590536 0.060589
O O6 0.759923 0.437461 0.082569
O O7 0.647016 0.482379 0.067353
O O8 0.733905 0.469649 0.000000
O O9 0.225390 0.821954 0.641729
O O10 0.158414 0.892759 0.589940
O O11 0.068496 0.727168 0.621173
O O12 0.637528 0.444013 0.851226
O O13 0.492438 0.405452 0.889020
O O14 0.577558 0.626558 0.656500
O O15 0.869099 0.844040 0.448604
O O16 0.912440 0.757495 0.500000
#
# Coordination Sequence:
#
# PCOD9588861 Si02
#       7
#    24  24  24  24  24  24  24
#     4   9  16  29  52  76 103 142 178 214 255 294
#     4  10  20  33  48  68  98 137 175 212 264 316
#     4  10  21  33  51  77 109 139 166 217 277 314
#     4  10  19  31  51  72  93 131 178 218 250 297
#     4  10  19  33  53  78 105 139 181 215 256 312
#     4  10  20  36  58  81 105 136 174 216 268 334
#     4  10  19  33  53  78 105 139 181 215 256 312
#
# _framework density 19.957787
#
# number of rings (size 3 to 8) (size 9 to 14) (size 15 to 20)
#    0.000    2.143    1.429    2.571    0.000    1.143 
#    0.000    0.000    0.000   33.429    0.000    0.000 
#    0.000    0.000    0.000   10.857    0.000    0.000 
#
# Total GULP energy -935356.007022 kJ/mol
# GULP energy per Si atom -5567.595280 kJ/mol
# Density = 1.991236 g / cm^3
# Si number density = 19.957787 Si / 1000 Ang^3
#
#
#
# Elastic Constant Matrix: (Units=GPa)
#
#
# Indices 1 2 3 4 5 6 
#
# 1 64.8728 -7.2394 39.8182 0.0000 0.0000 0.0000
# 2 -7.2394 64.8728 39.8182 0.0000 0.0000 0.0000
# 3 39.8182 39.8182 92.7469 0.0000 0.0000 0.0000
# 4 0.0000 0.0000 0.0000 17.6908 0.0000 0.0000
# 5 0.0000 0.0000 0.0000 0.0000 17.6908 0.0000
# 6 0.0000 0.0000 0.0000 0.0000 0.0000 36.0561
#
#
#
# Elastic Compliance Matrix: (Units=1/GPa)
#
#
# Indices 1 2 3 4 5 6 
#
# 1 0.028261 0.014394 -0.018313 0.000000 0.000000 0.000000
# 2 0.014394 0.028261 -0.018313 0.000000 0.000000 0.000000
# 3 -0.018313 -0.018313 0.026506 0.000000 0.000000 0.000000
# 4 0.000000 0.000000 0.000000 0.056527 0.000000 0.000000
# 5 0.000000 0.000000 0.000000 0.000000 0.056527 0.000000
# 6 0.000000 0.000000 0.000000 0.000000 0.000000 0.027735
#
#
# Mechanical properties :
#
#
# Convention : Reuss Voigt Hill
#
# Bulk Modulus (GPa) = 25.92995 40.80963 33.36979
# Shear Modulus (GPa) = 17.78505 24.29389 21.03947
#
# Velocity S-wave (km/s) = 2.98842 3.49272 3.25036
# Velocity P-wave (km/s) = 4.99281 6.06282 5.55365
#
# Compressibility (1/GPa) = 0.03856544
#
# Stress axis : x y z
#
# Youngs Moduli (GPa) = 35.38414 35.38414 37.72707
#
# Poissons Ratio (x) = -0.50932 0.69089
# Poissons Ratio (y) = -0.50932 0.69089
# Poissons Ratio (z) = 0.64798 0.64798
#
# Static dielectric constant tensor:
#      x y z
#    x 1.737160 0.000000 0.000000 
#    y 0.000000 1.737160 0.000000 
#    z 0.000000 0.000000 1.738800 
# 
# From -- ./inp_files/7183.got.cif
#   From: 2010.05.17/outbox.ucp.g08.bks.cvg/sg192_4_cif.got.tgz:7183.got - 2010.06.11 15:23:19.
