data_PCOD9588444
_publ_section_title
;
Structure prediction by ZEFSAII (Michael W. Deem and Ramdas Pophale) SiO2 
 PCOD9588444
Probable space group: P 6/M C C
;
_chemical_formula_sum "Si O2"
_cell_formula_units_Z 144
_cell_length_a 22.228376
_cell_length_b 22.228376
_cell_length_c 15.240768
_cell_angle_alpha 90.000000
_cell_angle_beta 90.000000
_cell_angle_gamma 120.000000
_cell_volume 6521.581900
_symmetry_space_group_name_H-M "P 6/M C C"
_symmetry_group_IT_number 192
_symmetry_cell_setting 'hexagonal'
loop_
_space_group_symop_operation_xyz
x,y,z
x-y,x,z
-y,x-y,z
-x,-y,z
-x+y,-x,z
y,-x+y,z
x-y,-y,1/2-z
-x,-x+y,1/2-z
y,x,1/2-z
-y,-x,1/2-z
-x+y,y,1/2-z
x,x-y,1/2-z
-x,-y,-z
-x+y,-x,-z
y,-x+y,-z
x,y,-z
x-y,x,-z
-y,x-y,-z
-x+y,y,1/2+z
x,x-y,1/2+z
-y,-x,1/2+z
y,x,1/2+z
x-y,-y,1/2+z
-x,-x+y,1/2+z
loop_
_atom_site_type_symbol
_atom_site_label
_atom_site_fract_x
_atom_site_fract_y
_atom_site_fract_z
Si Si1 0.992391 0.592355 0.351423
Si Si2 0.157931 0.527603 0.602932
Si Si3 0.648689 0.143599 0.100784
Si Si4 0.858761 0.865564 0.355051
Si Si5 0.298433 0.053015 0.105100
Si Si6 0.217979 0.800015 0.392386
O O1 0.923491 0.528023 0.389070
O O2 0.984770 0.660726 0.360245
O O3 0.000000 0.580150 0.250000
O O4 0.061028 0.604553 0.398561
O O5 0.176141 0.539626 0.500000
O O6 0.171645 0.600638 0.641587
O O7 0.191853 0.483337 0.636994
O O8 0.723334 0.162928 0.139290
O O9 0.662186 0.168385 0.000000
O O10 0.924677 0.859952 0.388336
O O11 0.868379 0.868379 0.250000
O O12 0.782490 0.800495 0.372856
O O13 0.345444 0.133619 0.136104
O O14 0.303530 0.052519 0.000000
O O15 0.216797 0.802706 0.500000
#
# Coordination Sequence:
#
# PCOD9588444 Si02
#       6
#    24  24  24  24  24  24
#     4  11  22  35  54  82 111 144 187 236 289 342
#     4   9  18  35  54  78 112 146 181 228 281 332
#     4  10  19  33  57  82 109 148 188 225 281 346
#     4  10  22  40  61  87 119 158 196 235 282 342
#     4  10  21  38  59  83 116 150 190 244 294 338
#     4   8  17  34  53  79 112 145 184 233 279 334
#
# _framework density 22.080532000000002
#
# number of rings (size 3 to 8) (size 9 to 14) (size 15 to 20)
#    0.000    2.333    0.000    3.667    2.333    4.000 
#    1.000    2.500    0.000    1.000    0.000    0.000 
#    0.000    0.000    0.000    0.000    0.000    0.000 
#
# Total GULP energy -803284.478838 kJ/mol
# GULP energy per Si atom -5578.364436 kJ/mol
# Density = 2.203028 g / cm^3
# Si number density = 22.080532 Si / 1000 Ang^3
#
#
#
# Elastic Constant Matrix: (Units=GPa)
#
#
# Indices 1 2 3 4 5 6 
#
# 1 74.1289 26.2704 -4.5651 0.0000 0.0000 0.0000
# 2 26.2704 74.1289 -4.5651 0.0000 0.0000 0.0000
# 3 -4.5651 -4.5651 44.5965 0.0000 0.0000 0.0000
# 4 0.0000 0.0000 0.0000 -8.0534 0.0000 0.0000
# 5 0.0000 0.0000 0.0000 0.0000 -8.0534 0.0000
# 6 0.0000 0.0000 0.0000 0.0000 0.0000 23.9292
#
#
#
# Elastic Compliance Matrix: (Units=1/GPa)
#
#
# Indices 1 2 3 4 5 6 
#
# 1 0.015474 -0.005421 0.001029 0.000000 0.000000 0.000000
# 2 -0.005421 0.015474 0.001029 0.000000 0.000000 0.000000
# 3 0.001029 0.001029 0.022634 0.000000 0.000000 0.000000
# 4 0.000000 0.000000 0.000000 -0.124172 0.000000 0.000000
# 5 0.000000 0.000000 0.000000 0.000000 -0.124172 0.000000
# 6 0.000000 0.000000 0.000000 0.000000 0.000000 0.041790
#
#
# Mechanical properties :
#
#
# Convention : Reuss Voigt Hill
#
# Bulk Modulus (GPa) = 21.34096 25.23718 23.28907
# Shear Modulus (GPa) = -38.27704 13.27876 -12.49914
#
# Velocity S-wave (km/s) = -4.16807 2.45496 -2.38180
# Velocity P-wave (km/s) = 3.67120 4.41477 1.73385
#
# Compressibility (1/GPa) = 0.04685826
#
# Stress axis : x y z
#
# Youngs Moduli (GPa) = 64.62292 64.62292 44.18132
#
# Poissons Ratio (x) = 0.35029 -0.04547
# Poissons Ratio (y) = 0.35029 -0.04547
# Poissons Ratio (z) = -0.06651 -0.06651
#
# Static dielectric constant tensor:
#      x y z
#    x 1.817340 0.000000 0.000000 
#    y 0.000000 1.817340 0.000000 
#    z 0.000000 0.000000 1.883450 
# 
# From -- ./inp_files/4355.got.cif
#   From: 2010.05.17/outbox.cif.g08.bks.cpg/sg192_3_cif.got.tgz:4355.got - 2010.05.20 12:28:01.
