data_PCOD9588632
_publ_section_title
;
Structure prediction by ZEFSAII (Michael W. Deem and Ramdas Pophale) SiO2 
 PCOD9588632
Probable space group: P 6/M C C
;
_chemical_formula_sum "Si O2"
_cell_formula_units_Z 84
_cell_length_a 24.010915
_cell_length_b 24.010915
_cell_length_c 9.186348
_cell_angle_alpha 90.000000
_cell_angle_beta 90.000000
_cell_angle_gamma 120.000000
_cell_volume 4586.600835
_symmetry_space_group_name_H-M "P 6/M C C"
_symmetry_group_IT_number 192
_symmetry_cell_setting 'hexagonal'
loop_
_space_group_symop_operation_xyz
x,y,z
x-y,x,z
-y,x-y,z
-x,-y,z
-x+y,-x,z
y,-x+y,z
x-y,-y,1/2-z
-x,-x+y,1/2-z
y,x,1/2-z
-y,-x,1/2-z
-x+y,y,1/2-z
x,x-y,1/2-z
-x,-y,-z
-x+y,-x,-z
y,-x+y,-z
x,y,-z
x-y,x,-z
-y,x-y,-z
-x+y,y,1/2+z
x,x-y,1/2+z
-y,-x,1/2+z
y,x,1/2+z
x-y,-y,1/2+z
-x,-x+y,1/2+z
loop_
_atom_site_type_symbol
_atom_site_label
_atom_site_fract_x
_atom_site_fract_y
_atom_site_fract_z
Si Si1 0.814243 0.746473 0.828313
Si Si2 0.486837 0.623392 0.835438
Si Si3 0.143604 0.738513 0.170630
Si Si4 0.335091 0.594737 0.500000
O O1 0.787121 0.787121 0.750000
O O2 0.878537 0.757073 0.750000
O O3 0.762797 0.670390 0.814311
O O4 0.825168 0.761085 0.000000
O O5 0.441509 0.558491 0.750000
O O6 0.549453 0.671058 0.746718
O O7 0.444211 0.658354 0.865294
O O8 0.501783 0.611531 0.000000
O O9 0.207779 0.792222 0.250000
O O10 0.156648 0.736204 0.000000
O O11 0.394332 0.668706 0.500000
#
# Coordination Sequence:
#
# PCOD9588632 Si02
#       4
#    24  24  24  12
#     4  10  21  39  64  95 126 158 191 229 274 322
#     4  10  21  30  46  67  97 141 186 243 300 361
#     4  10  21  34  52  75 107 145 188 238 286 338
#     4   8  20  32  38  62  94 135 189 233 304 357
#
# _framework density 18.314216999999999
#
# number of rings (size 3 to 8) (size 9 to 14) (size 15 to 20)
#    1.143    1.143    0.000    2.571    4.000    3.429 
#    0.000    0.000    0.000    1.143    0.000    8.000 
#    0.000    0.000    0.000    0.000    0.000    0.000 
#
# Total GULP energy -468475.522447 kJ/mol
# GULP energy per Si atom -5577.089553 kJ/mol
# Density = 1.827253 g / cm^3
# Si number density = 18.314217 Si / 1000 Ang^3
#
#
#
# Elastic Constant Matrix: (Units=GPa)
#
#
# Indices 1 2 3 4 5 6 
#
# 1 72.8457 53.3810 80.4999 0.0000 0.0000 0.0000
# 2 53.3810 72.8457 80.4999 0.0000 0.0000 0.0000
# 3 80.4999 80.4999 186.0441 0.0000 0.0000 0.0000
# 4 0.0000 0.0000 0.0000 27.5300 0.0000 0.0000
# 5 0.0000 0.0000 0.0000 0.0000 27.5300 0.0000
# 6 0.0000 0.0000 0.0000 0.0000 0.0000 9.7324
#
#
#
# Elastic Compliance Matrix: (Units=1/GPa)
#
#
# Indices 1 2 3 4 5 6 
#
# 1 0.034527 -0.016848 -0.007650 0.000000 0.000000 0.000000
# 2 -0.016848 0.034527 -0.007650 0.000000 0.000000 0.000000
# 3 -0.007650 -0.007650 0.011995 0.000000 0.000000 0.000000
# 4 0.000000 0.000000 0.000000 0.036324 0.000000 0.000000
# 5 0.000000 0.000000 0.000000 0.000000 0.036324 0.000000
# 6 0.000000 0.000000 0.000000 0.000000 0.000000 0.102750
#
#
# Mechanical properties :
#
#
# Convention : Reuss Voigt Hill
#
# Bulk Modulus (GPa) = 59.68428 84.49968 72.09198
# Shear Modulus (GPa) = 15.32205 20.78211 18.05208
#
# Velocity S-wave (km/s) = 2.89558 3.37226 3.14297
# Velocity P-wave (km/s) = 6.62110 7.83594 7.25399
#
# Compressibility (1/GPa) = 0.01675483
#
# Stress axis : x y z
#
# Youngs Moduli (GPa) = 28.96268 28.96268 83.36784
#
# Poissons Ratio (x) = 0.48796 0.63774
# Poissons Ratio (y) = 0.48796 0.63774
# Poissons Ratio (z) = 0.22156 0.22156
#
# Static dielectric constant tensor:
#      x y z
#    x 1.612850 0.000000 0.000000 
#    y 0.000000 1.612850 0.000000 
#    z 0.000000 0.000000 1.634100 
# 
# From -- ./inp_files/784.got.cif
#   From: 2010.05.17/outbox.cif.g08.bks.cpg/sg192_1_cif.got.tgz:784.got - 2010.05.20 12:28:01.
