data_PCOD9588459
_publ_section_title
;
Structure prediction by ZEFSAII (Michael W. Deem and Ramdas Pophale) SiO2 
 PCOD9588459
Probable space group: P 6/M C C
;
_chemical_formula_sum "Si O2"
_cell_formula_units_Z 102
_cell_length_a 26.711071
_cell_length_b 26.711071
_cell_length_c 8.529046
_cell_angle_alpha 90.000000
_cell_angle_beta 90.000000
_cell_angle_gamma 120.000000
_cell_volume 5270.037334
_symmetry_space_group_name_H-M "P 6/M C C"
_symmetry_group_IT_number 192
_symmetry_cell_setting 'hexagonal'
loop_
_space_group_symop_operation_xyz
x,y,z
x-y,x,z
-y,x-y,z
-x,-y,z
-x+y,-x,z
y,-x+y,z
x-y,-y,1/2-z
-x,-x+y,1/2-z
y,x,1/2-z
-y,-x,1/2-z
-x+y,y,1/2-z
x,x-y,1/2-z
-x,-y,-z
-x+y,-x,-z
y,-x+y,-z
x,y,-z
x-y,x,-z
-y,x-y,-z
-x+y,y,1/2+z
x,x-y,1/2+z
-y,-x,1/2+z
y,x,1/2+z
x-y,-y,1/2+z
-x,-x+y,1/2+z
loop_
_atom_site_type_symbol
_atom_site_label
_atom_site_fract_x
_atom_site_fract_y
_atom_site_fract_z
Si Si1 0.438900 0.771771 0.313904
Si Si2 0.473579 0.377056 0.809789
Si Si3 0.934548 0.173492 0.814128
Si Si4 0.500000 0.500000 0.750000
Si Si5 0.935172 0.279899 0.313477
O O1 0.375164 0.750327 0.250000
O O2 0.462059 0.731030 0.250000
O O3 0.437532 0.768755 0.500000
O O4 0.477934 0.838810 0.269661
O O5 0.482100 0.432600 0.712512
O O6 0.412514 0.319391 0.780948
O O7 0.476447 0.391219 0.000000
O O8 0.889642 0.110359 0.750000
O O9 0.912131 0.217496 0.763080
O O10 0.000000 0.200708 0.750000
O O11 0.936795 0.172234 0.000000
O O12 0.935705 0.272710 0.500000
O O13 0.000000 0.317236 0.250000
#
# Coordination Sequence:
#
# PCOD9588459 Si02
#       5
#    24  24  24   6  24
#     4  11  23  42  61  84 110 146 191 243 298 358
#     4  10  22  36  58  88 122 156 199 247 304 371
#     4  11  22  39  62  92 125 166 210 258 309 371
#     4  12  18  40  60  90 124 164 202 252 316 376
#     4  10  19  35  55  83 118 156 196 244 293 355
#
# _framework density 19.354700999999999
#
# number of rings (size 3 to 8) (size 9 to 14) (size 15 to 20)
#    0.000    1.412    2.353    5.529    0.000    0.941 
#    0.000    7.059    0.000    0.235    0.000    1.647 
#    0.000    0.000    0.000    0.000    0.000    0.000 
#
# Total GULP energy -568364.273825 kJ/mol
# GULP energy per Si atom -5572.198763 kJ/mol
# Density = 1.931065 g / cm^3
# Si number density = 19.354701 Si / 1000 Ang^3
#
#
#
# Elastic Constant Matrix: (Units=GPa)
#
#
# Indices 1 2 3 4 5 6 
#
# 1 88.2667 87.6477 39.8805 0.0000 0.0000 0.0000
# 2 87.6477 88.2667 39.8805 0.0000 0.0000 0.0000
# 3 39.8805 39.8805 79.9556 0.0000 0.0000 0.0000
# 4 0.0000 0.0000 0.0000 10.9287 0.0000 0.0000
# 5 0.0000 0.0000 0.0000 0.0000 10.9287 0.0000
# 6 0.0000 0.0000 0.0000 0.0000 0.0000 0.3095
#
#
#
# Elastic Compliance Matrix: (Units=1/GPa)
#
#
# Indices 1 2 3 4 5 6 
#
# 1 0.811470 -0.804124 -0.003664 0.000000 0.000000 0.000008
# 2 -0.804124 0.811470 -0.003664 0.000000 0.000000 -0.000008
# 3 -0.003664 -0.003664 0.016162 0.000000 0.000000 0.000000
# 4 0.000000 0.000000 0.000000 0.091502 0.000000 0.000000
# 5 0.000000 0.000000 0.000000 0.000000 0.091502 0.000000
# 6 0.000008 -0.000008 0.000000 0.000000 0.000000 3.231167
#
#
# Mechanical properties :
#
#
# Convention : Reuss Voigt Hill
#
# Bulk Modulus (GPa) = 61.73687 65.70071 63.71879
# Shear Modulus (GPa) = 0.74833 10.37205 5.56019
#
# Velocity S-wave (km/s) = 0.62248 2.31745 1.69677
# Velocity P-wave (km/s) = 5.69943 6.41717 6.06892
#
# Compressibility (1/GPa) = 0.01619778
#
# Stress axis : x y z
#
# Youngs Moduli (GPa) = 1.23233 1.23233 61.87346
#
# Poissons Ratio (x) = 0.99095 0.22670
# Poissons Ratio (y) = 0.99095 0.22670
# Poissons Ratio (z) = 0.00452 0.00452
#
# Static dielectric constant tensor:
#      x y z
#    x 1.677430 0.000000 0.000000 
#    y 0.000000 1.677430 0.000000 
#    z 0.000000 0.000000 1.689590 
# 
# From -- ./inp_files/883.got.cif
#   From: 2010.05.17/outbox.cif.g08.bks.cpg/sg192_1_cif.got.tgz:883.got - 2010.05.20 12:28:01.
