data_PCOD9588030
_publ_section_title
;
Structure prediction by ZEFSAII (Michael W. Deem and Ramdas Pophale) SiO2 
 PCOD9588030
Probable space group: P 6/M M M
;
_chemical_formula_sum "Si O2"
_cell_formula_units_Z 108
_cell_length_a 17.863847
_cell_length_b 17.863847
_cell_length_c 23.392493
_cell_angle_alpha 90.000000
_cell_angle_beta 90.000000
_cell_angle_gamma 120.000000
_cell_volume 6464.830174
_symmetry_space_group_name_H-M "P 6/M M M"
_symmetry_group_IT_number 191
_symmetry_cell_setting 'hexagonal'
loop_
_space_group_symop_operation_xyz
x,y,z
x-y,x,z
-y,x-y,z
-x,-y,z
-x+y,-x,z
y,-x+y,z
x-y,-y,-z
-x,-x+y,-z
y,x,-z
-y,-x,-z
-x+y,y,-z
x,x-y,-z
-x,-y,-z
-x+y,-x,-z
y,-x+y,-z
x,y,-z
x-y,x,-z
-y,x-y,-z
-x+y,y,z
x,x-y,z
-y,-x,z
y,x,z
x-y,-y,z
-x,-x+y,z
loop_
_atom_site_type_symbol
_atom_site_label
_atom_site_fract_x
_atom_site_fract_y
_atom_site_fract_z
Si Si1 0.846155 0.512563 0.641623
Si Si2 0.347078 0.000000 0.568462
Si Si3 0.511697 0.844897 0.232422
Si Si4 0.000000 0.172090 0.430526
Si Si5 0.730083 0.095135 0.000000
Si Si6 0.154737 0.666822 0.107548
O O1 0.755537 0.511073 0.634778
O O2 0.831800 0.415900 0.638720
O O3 0.883577 0.549152 0.705483
O O4 0.915354 0.572530 0.595099
O O5 0.352866 0.000000 0.500000
O O6 0.259241 0.000000 0.584783
O O7 0.418612 0.837224 0.230376
O O8 0.500111 0.750056 0.234219
O O9 0.551737 0.882585 0.170463
O O10 0.086507 0.173014 0.410976
O O11 0.000000 0.169198 0.500000
O O12 0.684914 0.108177 0.055785
O O13 0.828542 0.171459 0.000000
O O14 0.715670 0.000000 0.000000
O O15 0.151347 0.575674 0.100556
O O16 0.254390 0.745610 0.106474
#
# Coordination Sequence:
#
# PCOD9588030 Si02
#       6
#    24  12  24  12  12  24
#     4  10  20  35  54  74  97 129 172 216 255 297
#     4  11  23  37  51  71 103 134 159 197 257 319
#     4   8  14  26  45  69  95 127 167 209 243 275
#     4   9  17  31  53  79 103 127 156 189 229 284
#     4  10  21  35  49  68  97 131 166 206 253 299
#     4   9  16  27  45  71 104 140 172 198 228 272
#
# _framework density 16.705774000000002
#
# number of rings (size 3 to 8) (size 9 to 14) (size 15 to 20)
#    0.000    2.667    0.000    2.111    0.000    7.111 
#    2.000    1.111    0.000    1.444    0.000    0.000 
#    0.000    0.000    0.000    0.000    0.000    0.000 
#
# Total GULP energy -601505.128401 kJ/mol
# GULP energy per Si atom -5569.491930 kJ/mol
# Density = 1.666775 g / cm^3
# Si number density = 16.705774 Si / 1000 Ang^3
#
#
#
# Elastic Constant Matrix: (Units=GPa)
#
#
# Indices 1 2 3 4 5 6 
#
# 1 78.0034 39.1825 47.9587 0.0000 0.0000 0.0000
# 2 39.1825 78.0034 47.9587 0.0000 0.0000 0.0000
# 3 47.9587 47.9587 126.8392 0.0000 0.0000 0.0000
# 4 0.0000 0.0000 0.0000 11.3046 0.0000 0.0000
# 5 0.0000 0.0000 0.0000 0.0000 11.3046 0.0000
# 6 0.0000 0.0000 0.0000 0.0000 0.0000 19.4105
#
#
#
# Elastic Compliance Matrix: (Units=1/GPa)
#
#
# Indices 1 2 3 4 5 6 
#
# 1 0.019059 -0.006701 -0.004673 0.000000 0.000000 0.000000
# 2 -0.006701 0.019059 -0.004673 0.000000 0.000000 0.000000
# 3 -0.004673 -0.004673 0.011418 0.000000 0.000000 0.000000
# 4 0.000000 0.000000 0.000000 0.088460 0.000000 0.000000
# 5 0.000000 0.000000 0.000000 0.000000 0.088460 0.000000
# 6 0.000000 0.000000 0.000000 0.000000 0.000000 0.051519
#
#
# Mechanical properties :
#
#
# Convention : Reuss Voigt Hill
#
# Bulk Modulus (GPa) = 57.32961 61.44951 59.38956
# Shear Modulus (GPa) = 15.82883 18.25367 17.04125
#
# Velocity S-wave (km/s) = 3.08150 3.30912 3.19734
# Velocity P-wave (km/s) = 6.85949 7.17382 7.01841
#
# Compressibility (1/GPa) = 0.01744299
#
# Stress axis : x y z
#
# Youngs Moduli (GPa) = 52.46959 52.46959 87.58477
#
# Poissons Ratio (x) = 0.35158 0.40925
# Poissons Ratio (y) = 0.35158 0.40925
# Poissons Ratio (z) = 0.24517 0.24517
#
# Static dielectric constant tensor:
#      x y z
#    x 1.530260 0.000000 0.000000 
#    y 0.000000 1.530260 0.000000 
#    z 0.000000 0.000000 1.613930 
# 
# From -- ./inp_files/7377.got.cif
#   From: 2010.05.17/outbox.cif.g08.bks.cpg/sg191_4_cif.got.tgz:7377.got - 2010.05.20 12:20:32.
