data_PCOD9588719
_publ_section_title
;
Structure prediction by ZEFSAII (Michael W. Deem and Ramdas Pophale) SiO2 
 PCOD9588719
Probable space group: P 6/M C C
;
_chemical_formula_sum "Si O2"
_cell_formula_units_Z 68
_cell_length_a 13.522801
_cell_length_b 13.522801
_cell_length_c 22.909845
_cell_angle_alpha 90.000000
_cell_angle_beta 90.000000
_cell_angle_gamma 120.000000
_cell_volume 3628.157208
_symmetry_space_group_name_H-M "P 6/M C C"
_symmetry_group_IT_number 192
_symmetry_cell_setting 'hexagonal'
loop_
_space_group_symop_operation_xyz
x,y,z
x-y,x,z
-y,x-y,z
-x,-y,z
-x+y,-x,z
y,-x+y,z
x-y,-y,1/2-z
-x,-x+y,1/2-z
y,x,1/2-z
-y,-x,1/2-z
-x+y,y,1/2-z
x,x-y,1/2-z
-x,-y,-z
-x+y,-x,-z
y,-x+y,-z
x,y,-z
x-y,x,-z
-y,x-y,-z
-x+y,y,1/2+z
x,x-y,1/2+z
-y,-x,1/2+z
y,x,1/2+z
x-y,-y,1/2+z
-x,-x+y,1/2+z
loop_
_atom_site_type_symbol
_atom_site_label
_atom_site_fract_x
_atom_site_fract_y
_atom_site_fract_z
Si Si1 0.333334 0.666668 0.681193
Si Si2 0.890149 0.513426 0.127710
Si Si3 0.102208 0.838802 0.319216
Si Si4 0.802017 0.343741 0.500000
O O1 0.333334 0.666667 0.750000
O O2 0.397329 0.791392 0.654890
O O3 0.880028 0.615605 0.158532
O O4 0.000000 0.500000 0.136654
O O5 0.867701 0.516035 0.058882
O O6 0.137184 0.862817 0.250000
O O7 0.970762 0.792375 0.338390
O O8 0.768637 0.444142 0.500000
#
# Coordination Sequence:
#
# PCOD9588719 Si02
#       4
#     8  24  24  12
#     4  12  24  40  59  88 129 162 193 251 313 375
#     4  12  23  40  65  93 124 161 207 258 316 378
#     4  10  22  41  64  92 126 168 214 257 311 372
#     4  10  21  42  66  82 123 163 205 249 322 378
#
# _framework density 18.742298000000002
#
# number of rings (size 3 to 8) (size 9 to 14) (size 15 to 20)
#    0.353    0.706    3.529    4.059    0.000    4.941 
#    0.000    0.000    0.000    0.000    0.000    2.471 
#    0.000    0.000    0.000    0.000    0.000    0.000 
#
# Total GULP energy -378541.336540 kJ/mol
# GULP energy per Si atom -5566.784361 kJ/mol
# Density = 1.869964 g / cm^3
# Si number density = 18.742298 Si / 1000 Ang^3
#
#
#
# Elastic Constant Matrix: (Units=GPa)
#
#
# Indices 1 2 3 4 5 6 
#
# 1 113.4662 45.5202 27.5921 -0.0011 0.0012 -0.0003
# 2 45.5202 113.4666 27.5921 -0.0015 -0.0001 -0.0002
# 3 27.5921 27.5921 77.1120 0.0021 0.0004 -0.0001
# 4 -0.0011 -0.0015 0.0021 1.9255 -0.0086 0.0007
# 5 0.0012 -0.0001 0.0004 -0.0086 1.9711 -0.0002
# 6 -0.0003 -0.0002 -0.0001 0.0007 -0.0002 33.9730
#
#
#
# Elastic Compliance Matrix: (Units=1/GPa)
#
#
# Indices 1 2 3 4 5 6 
#
# 1 0.010950 -0.003768 -0.002570 0.000006 -0.000006 0.000000
# 2 -0.003768 0.010950 -0.002570 0.000009 0.000003 0.000000
# 3 -0.002570 -0.002570 0.014807 -0.000019 -0.000001 0.000000
# 4 0.000006 0.000009 -0.000019 0.519357 0.002258 -0.000010
# 5 -0.000006 0.000003 -0.000001 0.002258 0.507335 0.000003
# 6 0.000000 0.000000 0.000000 -0.000010 0.000003 0.029435
#
#
# Mechanical properties :
#
#
# Convention : Reuss Voigt Hill
#
# Bulk Modulus (GPa) = 52.93338 56.16150 54.54744
# Shear Modulus (GPa) = 4.47649 21.12995 12.80322
#
# Velocity S-wave (km/s) = 1.54714 3.36131 2.61649
# Velocity P-wave (km/s) = 5.61209 6.71526 6.18831
#
# Compressibility (1/GPa) = 0.01889167
#
# Stress axis : x y z
#
# Youngs Moduli (GPa) = 91.32683 91.32717 67.53480
#
# Poissons Ratio (x) = 0.34411 0.17355
# Poissons Ratio (y) = 0.34411 0.17355
# Poissons Ratio (z) = 0.23469 0.23469
#
# Static dielectric constant tensor:
#      x y z
#    x 1.598140 -0.000010 0.000000 
#    y -0.000010 1.598210 0.000000 
#    z 0.000000 0.000000 1.677910 
# 
# From -- ./inp_files/4556.got.cif
#   From: 2010.05.17/outbox.cif.g08.bks.cpg/sg192_3_cif.got.tgz:4556.got - 2010.05.20 12:28:01.
