data_PCOD9588354
_publ_section_title
;
Structure prediction by ZEFSAII (Michael W. Deem and Ramdas Pophale) SiO2 
 PCOD9588354
Probable space group: P 6/M C C
;
_chemical_formula_sum "Si O2"
_cell_formula_units_Z 192
_cell_length_a 25.127467
_cell_length_b 25.127467
_cell_length_c 15.612984
_cell_angle_alpha 90.000000
_cell_angle_beta 90.000000
_cell_angle_gamma 120.000000
_cell_volume 8537.170774
_symmetry_space_group_name_H-M "P 6/M C C"
_symmetry_group_IT_number 192
_symmetry_cell_setting 'hexagonal'
loop_
_space_group_symop_operation_xyz
x,y,z
x-y,x,z
-y,x-y,z
-x,-y,z
-x+y,-x,z
y,-x+y,z
x-y,-y,1/2-z
-x,-x+y,1/2-z
y,x,1/2-z
-y,-x,1/2-z
-x+y,y,1/2-z
x,x-y,1/2-z
-x,-y,-z
-x+y,-x,-z
y,-x+y,-z
x,y,-z
x-y,x,-z
-y,x-y,-z
-x+y,y,1/2+z
x,x-y,1/2+z
-y,-x,1/2+z
y,x,1/2+z
x-y,-y,1/2+z
-x,-x+y,1/2+z
loop_
_atom_site_type_symbol
_atom_site_label
_atom_site_fract_x
_atom_site_fract_y
_atom_site_fract_z
Si Si1 0.252024 0.756232 0.098280
Si Si2 0.186303 0.252350 0.901470
Si Si3 0.503470 0.867936 0.896606
Si Si4 0.931127 0.860162 0.353306
Si Si5 0.970050 0.273656 0.665078
Si Si6 0.377398 0.867604 0.896435
Si Si7 0.158669 0.808131 0.597894
Si Si8 0.397718 0.395250 0.902604
O O1 0.196354 0.692992 0.136646
O O2 0.319410 0.803566 0.136433
O O3 0.222782 0.800149 0.095382
O O4 0.262160 0.741566 0.000000
O O5 0.114773 0.208586 0.883189
O O6 0.230585 0.236573 0.849102
O O7 0.199542 0.319997 0.879844
O O8 0.198463 0.248190 0.000000
O O9 0.440138 0.867393 0.882510
O O10 0.558077 0.934757 0.865252
O O11 0.513817 0.866995 0.000000
O O12 0.895988 0.894436 0.383724
O O13 0.930539 0.861077 0.250000
O O14 0.898174 0.228110 0.660642
O O15 0.987462 0.326817 0.595939
O O16 0.000000 0.312043 0.750000
O O17 0.386201 0.933206 0.864624
O O18 0.366813 0.867103 0.000000
O O19 0.135094 0.805835 0.500000
O O20 0.418128 0.417934 0.000000
#
# Coordination Sequence:
#
# PCOD9588354 Si02
#       8
#    24  24  24  24  24  24  24  24
#     4   9  16  29  48  74 112 149 184 232 289 350
#     4  11  24  39  59  85 114 153 198 242 293 358
#     4   9  17  28  49  81 108 141 192 244 289 343
#     4  10  22  39  61  82 110 145 189 239 297 352
#     4  12  25  36  56  84 119 151 191 239 299 361
#     4   9  16  28  49  78 110 148 190 239 293 346
#     4  10  20  37  58  79 111 153 191 233 288 351
#     4  10  18  34  56  78 110 149 197 240 284 348
#
# _framework density 22.489885000000001
#
# number of rings (size 3 to 8) (size 9 to 14) (size 15 to 20)
#    0.000    2.000    1.250    3.125    3.500    5.500 
#    0.750    0.000    0.000    2.250    0.000    0.000 
#    0.000    0.000    0.000    2.750    0.000    2.750 
#
# Total GULP energy -1071106.267616 kJ/mol
# GULP energy per Si atom -5578.678477 kJ/mol
# Density = 2.243870 g / cm^3
# Si number density = 22.489885 Si / 1000 Ang^3
#
#
#
# Elastic Constant Matrix: (Units=GPa)
#
#
# Indices 1 2 3 4 5 6 
#
# 1 96.2852 27.0087 7.8005 0.0000 0.0000 0.0000
# 2 27.0087 96.2852 7.8005 0.0000 0.0000 0.0000
# 3 7.8005 7.8005 37.4848 0.0000 0.0000 0.0000
# 4 0.0000 0.0000 0.0000 -5.7395 0.0000 0.0000
# 5 0.0000 0.0000 0.0000 0.0000 -5.7395 0.0000
# 6 0.0000 0.0000 0.0000 0.0000 0.0000 34.6383
#
#
#
# Elastic Compliance Matrix: (Units=1/GPa)
#
#
# Indices 1 2 3 4 5 6 
#
# 1 0.011382 -0.003052 -0.001733 0.000000 0.000000 0.000000
# 2 -0.003052 0.011382 -0.001733 0.000000 0.000000 0.000000
# 3 -0.001733 -0.001733 0.027399 0.000000 0.000000 0.000000
# 4 0.000000 0.000000 0.000000 -0.174230 0.000000 0.000000
# 5 0.000000 0.000000 0.000000 0.000000 -0.174230 0.000000
# 6 0.000000 0.000000 0.000000 0.000000 0.000000 0.028870
#
#
# Mechanical properties :
#
#
# Convention : Reuss Voigt Hill
#
# Bulk Modulus (GPa) = 26.93591 35.03054 30.98323
# Shear Modulus (GPa) = -20.49072 17.12821 -1.68125
#
# Velocity S-wave (km/s) = -3.02173 2.76270 -0.86555
# Velocity P-wave (km/s) = 0.41422 5.07805 3.57876
#
# Compressibility (1/GPa) = 0.03712516
#
# Stress axis : x y z
#
# Youngs Moduli (GPa) = 87.85437 87.85437 36.49773
#
# Poissons Ratio (x) = 0.26817 0.06327
# Poissons Ratio (y) = 0.26817 0.06327
# Poissons Ratio (z) = 0.15229 0.15229
#
# Static dielectric constant tensor:
#      x y z
#    x 1.819840 0.000000 0.000000 
#    y 0.000000 1.819840 0.000000 
#    z 0.000000 0.000000 1.869090 
# 
# From -- ./inp_files/5440.got.cif
#   From: 2010.05.17/outbox.cif.g08.bks.cpg/sg192_3_cif.got.tgz:5440.got - 2010.05.20 12:28:01.
