data_PCOD9588242
_publ_section_title
;
Structure prediction by ZEFSAII (Michael W. Deem and Ramdas Pophale) SiO2 
 PCOD9588242
Probable space group: P 6/M M M
;
_chemical_formula_sum "Si O2"
_cell_formula_units_Z 96
_cell_length_a 27.864696
_cell_length_b 27.864696
_cell_length_c 7.423086
_cell_angle_alpha 90.000000
_cell_angle_beta 90.000000
_cell_angle_gamma 120.000000
_cell_volume 4991.415720
_symmetry_space_group_name_H-M "P 6/M M M"
_symmetry_group_IT_number 191
_symmetry_cell_setting 'hexagonal'
loop_
_space_group_symop_operation_xyz
x,y,z
x-y,x,z
-y,x-y,z
-x,-y,z
-x+y,-x,z
y,-x+y,z
x-y,-y,-z
-x,-x+y,-z
y,x,-z
-y,-x,-z
-x+y,y,-z
x,x-y,-z
-x,-y,-z
-x+y,-x,-z
y,-x+y,-z
x,y,-z
x-y,x,-z
-y,x-y,-z
-x+y,y,z
x,x-y,z
-y,-x,z
y,x,z
x-y,-y,z
-x,-x+y,z
loop_
_atom_site_type_symbol
_atom_site_label
_atom_site_fract_x
_atom_site_fract_y
_atom_site_fract_z
Si Si1 0.872623 0.936312 0.779936
Si Si2 0.441826 0.775762 0.715594
Si Si3 0.063543 0.319462 0.779827
Si Si4 0.745271 0.872636 0.780477
Si Si5 0.271583 0.838238 0.214999
O O1 0.904489 0.904489 0.722408
O O2 0.808928 0.904464 0.722610
O O3 0.872545 0.936273 0.000000
O O4 0.436276 0.770444 0.500000
O O5 0.392050 0.784100 0.783746
O O6 0.436977 0.718489 0.784582
O O7 0.504253 0.824163 0.750935
O O8 0.094265 0.285699 0.724801
O O9 0.103715 0.382828 0.720754
O O10 0.000000 0.290210 0.719075
O O11 0.061996 0.318532 0.000000
O O12 0.744545 0.872273 0.000000
O O13 0.214283 0.785718 0.285177
O O14 0.265239 0.838231 0.000000
#
# Coordination Sequence:
#
# PCOD9588242 Si02
#       5
#    12  24  24  12  24
#     4   9  15  20  25  36  60  97 139 179 218 262
#     4   9  17  29  46  67  90 115 141 169 204 249
#     4   9  15  23  37  56  79 107 138 176 221 262
#     4   9  14  21  32  49  71  97 135 181 224 262
#     4   9  16  27  42  62  88 114 142 178 217 254
#
# _framework density 19.233021000000001
#
# number of rings (size 3 to 8) (size 9 to 14) (size 15 to 20)
#    0.000    3.000    1.250    1.125    0.000    5.000 
#    0.000    0.000    0.000    3.000    0.000    5.250 
#    0.000    0.000    0.000    0.000    0.000    0.000 
#
# Total GULP energy -535557.248237 kJ/mol
# GULP energy per Si atom -5578.721336 kJ/mol
# Density = 1.918925 g / cm^3
# Si number density = 19.233021 Si / 1000 Ang^3
#
#
#
# Elastic Constant Matrix: (Units=GPa)
#
#
# Indices 1 2 3 4 5 6 
#
# 1 187.9670 124.7866 3.3420 0.0000 0.0000 0.0000
# 2 124.7866 187.9670 3.3420 0.0000 0.0000 0.0000
# 3 3.3420 3.3420 60.4479 0.0000 0.0000 0.0000
# 4 0.0000 0.0000 0.0000 107.7439 0.0000 0.0000
# 5 0.0000 0.0000 0.0000 0.0000 107.7439 0.0000
# 6 0.0000 0.0000 0.0000 0.0000 0.0000 31.5902
#
#
#
# Elastic Compliance Matrix: (Units=1/GPa)
#
#
# Indices 1 2 3 4 5 6 
#
# 1 0.009514 -0.006313 -0.000177 0.000000 0.000000 0.000000
# 2 -0.006313 0.009514 -0.000177 0.000000 0.000000 0.000000
# 3 -0.000177 -0.000177 0.016563 0.000000 0.000000 0.000000
# 4 0.000000 0.000000 0.000000 0.009281 0.000000 0.000000
# 5 0.000000 0.000000 0.000000 0.000000 0.009281 0.000000
# 6 0.000000 0.000000 0.000000 0.000000 0.000000 0.031655
#
#
# Mechanical properties :
#
#
# Convention : Reuss Voigt Hill
#
# Bulk Modulus (GPa) = 44.92933 77.70256 61.31594
# Shear Modulus (GPa) = 46.92057 69.74303 58.33180
#
# Velocity S-wave (km/s) = 4.94457 6.02834 5.51315
# Velocity P-wave (km/s) = 7.48396 9.43095 8.51330
#
# Compressibility (1/GPa) = 0.02225718
#
# Stress axis : x y z
#
# Youngs Moduli (GPa) = 105.10336 105.10336 60.37649
#
# Poissons Ratio (x) = 0.66354 0.01069
# Poissons Ratio (y) = 0.66354 0.01069
# Poissons Ratio (z) = 0.01860 0.01860
#
# Static dielectric constant tensor:
#      x y z
#    x 1.653110 0.000000 0.000000 
#    y 0.000000 1.653110 0.000000 
#    z 0.000000 0.000000 1.760560 
# 
# From -- ./inp_files/2834.got.cif
#   From: 2010.05.17/outbox.cif.g08.bks.cpg/sg191_2_cif.got.tgz:2834.got - 2010.05.20 12:20:32.
