data_PCOD9588317
_publ_section_title
;
Structure prediction by ZEFSAII (Michael W. Deem and Ramdas Pophale) SiO2 
 PCOD9588317
Probable space group: P 6/M C C
;
_chemical_formula_sum "Si O2"
_cell_formula_units_Z 120
_cell_length_a 28.353609
_cell_length_b 28.353609
_cell_length_c 10.550066
_cell_angle_alpha 90.000000
_cell_angle_beta 90.000000
_cell_angle_gamma 120.000000
_cell_volume 7345.180971
_symmetry_space_group_name_H-M "P 6/M C C"
_symmetry_group_IT_number 192
_symmetry_cell_setting 'hexagonal'
loop_
_space_group_symop_operation_xyz
x,y,z
x-y,x,z
-y,x-y,z
-x,-y,z
-x+y,-x,z
y,-x+y,z
x-y,-y,1/2-z
-x,-x+y,1/2-z
y,x,1/2-z
-y,-x,1/2-z
-x+y,y,1/2-z
x,x-y,1/2-z
-x,-y,-z
-x+y,-x,-z
y,-x+y,-z
x,y,-z
x-y,x,-z
-y,x-y,-z
-x+y,y,1/2+z
x,x-y,1/2+z
-y,-x,1/2+z
y,x,1/2+z
x-y,-y,1/2+z
-x,-x+y,1/2+z
loop_
_atom_site_type_symbol
_atom_site_label
_atom_site_fract_x
_atom_site_fract_y
_atom_site_fract_z
Si Si1 0.237683 0.361321 0.250000
Si Si2 0.897184 0.102816 0.000000
Si Si3 0.333971 0.780144 0.500000
Si Si4 0.300602 0.486932 0.250000
Si Si5 0.935651 0.230067 0.500000
Si Si6 0.333972 0.780145 0.000000
Si Si7 0.230067 0.935651 0.500000
Si Si8 0.130518 0.065259 0.250000
O O1 0.180060 0.360120 0.250000
O O2 0.284947 0.424275 0.250000
O O3 0.239218 0.330375 0.375297
O O4 0.239218 0.330375 0.124703
O O5 0.832160 0.077118 0.000000
O O6 0.922882 0.167840 0.000000
O O7 0.915832 0.084167 0.125103
O O8 0.330776 0.811056 0.375571
O O9 0.280020 0.719980 0.500000
O O10 0.387508 0.775017 0.500000
O O11 0.242605 0.485209 0.250000
O O12 0.330777 0.519721 0.375571
O O13 1.000000 0.269407 0.500000
O O14 0.093636 0.093636 0.250000
#
# Coordination Sequence:
#
# PCOD9588317 Si02
#       8
#    24  12  12  24  12  12  12  12
#     4  11  20  38  56  76 107 140 175 212 266 315
#     4  12  24  42  57  84 108 140 168 214 276 326
#     4  10  18  30  46  75 111 150 185 218 254 294
#     4   9  19  31  50  72 101 144 184 218 256 309
#     4  12  23  37  57  82 107 134 172 210 263 330
#     4  10  18  30  46  75 111 150 185 218 254 294
#     4  12  23  37  57  82 107 134 172 210 263 330
#     4  12  25  42  60  78 104 140 182 222 258 306
#
# _framework density 16.337242
#
# number of rings (size 3 to 8) (size 9 to 14) (size 15 to 20)
#    0.000    1.200    2.000    5.700    0.000    3.200 
#    0.000    3.000    0.000    0.000    0.000    0.000 
#    0.000   56.000    0.000    0.000    0.000    0.000 
#
# Total GULP energy -670523.877191 kJ/mol
# GULP energy per Si atom -5587.698977 kJ/mol
# Density = 1.630006 g / cm^3
# Si number density = 16.337242 Si / 1000 Ang^3
#
#
#
# Elastic Constant Matrix: (Units=GPa)
#
#
# Indices 1 2 3 4 5 6 
#
# 1 114.0860 80.3358 85.7442 0.0000 0.0000 0.0000
# 2 80.3358 114.0860 85.7442 0.0000 0.0000 0.0000
# 3 85.7442 85.7442 204.4506 0.0000 0.0000 0.0000
# 4 0.0000 0.0000 0.0000 51.3381 0.0000 0.0000
# 5 0.0000 0.0000 0.0000 0.0000 51.3381 0.0000
# 6 0.0000 0.0000 0.0000 0.0000 0.0000 16.8751
#
#
#
# Elastic Compliance Matrix: (Units=1/GPa)
#
#
# Indices 1 2 3 4 5 6 
#
# 1 0.018896 -0.010733 -0.003424 0.000000 0.000000 0.000000
# 2 -0.010733 0.018896 -0.003424 0.000000 0.000000 0.000000
# 3 -0.003424 -0.003424 0.007763 0.000000 0.000000 0.000000
# 4 0.000000 0.000000 0.000000 0.019479 0.000000 0.000000
# 5 0.000000 0.000000 0.000000 0.000000 0.019479 0.000000
# 6 0.000000 0.000000 0.000000 0.000000 0.000000 0.059259
#
#
# Mechanical properties :
#
#
# Convention : Reuss Voigt Hill
#
# Bulk Modulus (GPa) = 96.20084 104.03013 100.11549
# Shear Modulus (GPa) = 27.41275 35.96350 31.68812
#
# Velocity S-wave (km/s) = 4.10070 4.69691 4.40890
# Velocity P-wave (km/s) = 9.02403 9.65555 9.34513
#
# Compressibility (1/GPa) = 0.01039492
#
# Stress axis : x y z
#
# Youngs Moduli (GPa) = 52.92045 52.92045 128.82047
#
# Poissons Ratio (x) = 0.56800 0.44102
# Poissons Ratio (y) = 0.56800 0.44102
# Poissons Ratio (z) = 0.18118 0.18118
#
# Static dielectric constant tensor:
#      x y z
#    x 1.522730 0.000000 0.000000 
#    y 0.000000 1.522730 0.000000 
#    z 0.000000 0.000000 1.539130 
# 
# From -- ./inp_files/1891.got.cif
#   From: 2010.05.17/outbox.cif.g08.bks.cpg/sg192_1_cif.got.tgz:1891.got - 2010.05.20 12:28:01.
