data_PCOD9588721
_publ_section_title
;
Structure prediction by ZEFSAII (Michael W. Deem and Ramdas Pophale) SiO2 
 PCOD9588721
Probable space group: P 6/M C C
;
_chemical_formula_sum "Si O2"
_cell_formula_units_Z 60
_cell_length_a 19.405143
_cell_length_b 19.405143
_cell_length_c 8.763065
_cell_angle_alpha 90.000000
_cell_angle_beta 90.000000
_cell_angle_gamma 120.000000
_cell_volume 2857.724510
_symmetry_space_group_name_H-M "P 6/M C C"
_symmetry_group_IT_number 192
_symmetry_cell_setting 'hexagonal'
loop_
_space_group_symop_operation_xyz
x,y,z
x-y,x,z
-y,x-y,z
-x,-y,z
-x+y,-x,z
y,-x+y,z
x-y,-y,1/2-z
-x,-x+y,1/2-z
y,x,1/2-z
-y,-x,1/2-z
-x+y,y,1/2-z
x,x-y,1/2-z
-x,-y,-z
-x+y,-x,-z
y,-x+y,-z
x,y,-z
x-y,x,-z
-y,x-y,-z
-x+y,y,1/2+z
x,x-y,1/2+z
-y,-x,1/2+z
y,x,1/2+z
x-y,-y,1/2+z
-x,-x+y,1/2+z
loop_
_atom_site_type_symbol
_atom_site_label
_atom_site_fract_x
_atom_site_fract_y
_atom_site_fract_z
Si Si1 0.237184 0.320395 0.318468
Si Si2 0.104244 0.478823 0.325727
Si Si3 0.572663 0.251284 0.000000
O O1 0.251287 0.251287 0.250000
O O2 0.160012 0.320023 0.250000
O O3 0.230798 0.314928 0.500000
O O4 0.316630 0.402281 0.270695
O O5 0.085461 0.542731 0.250000
O O6 0.070375 0.457858 0.500000
O O7 0.198981 0.524487 0.357747
O O8 0.657827 0.254737 0.000000
#
# Coordination Sequence:
#
# PCOD9588721 Si02
#       3
#    24  24  12
#     4  12  27  48  74 102 135 175 221 276 337 409
#     4  10  22  36  61  93 133 183 234 290 341 392
#     4   8  20  34  52  89 131 179 238 287 349 382
#
# _framework density 20.995725
#
# number of rings (size 3 to 8) (size 9 to 14) (size 15 to 20)
#    1.600    0.000    0.000    4.800    5.600    0.800 
#    0.000    4.000    0.000    0.400    0.000    2.800 
#    0.000    0.000    0.000    0.000    0.000    0.000 
#
# Total GULP energy -335078.202277 kJ/mol
# GULP energy per Si atom -5584.636705 kJ/mol
# Density = 2.094794 g / cm^3
# Si number density = 20.995725 Si / 1000 Ang^3
#
#
#
# Elastic Constant Matrix: (Units=GPa)
#
#
# Indices 1 2 3 4 5 6 
#
# 1 93.3635 94.4442 68.0469 0.0000 0.0000 0.0000
# 2 94.4442 93.3635 68.0469 0.0000 0.0000 0.0000
# 3 68.0469 68.0469 202.9015 0.0000 0.0000 0.0000
# 4 0.0000 0.0000 0.0000 31.1464 0.0000 0.0000
# 5 0.0000 0.0000 0.0000 0.0000 31.1464 0.0000
# 6 0.0000 0.0000 0.0000 0.0000 0.0000 -0.5403
#
#
#
# Elastic Compliance Matrix: (Units=1/GPa)
#
#
# Indices 1 2 3 4 5 6 
#
# 1 -0.459167 0.466201 -0.002359 0.000000 0.000000 0.000000
# 2 0.466201 -0.459167 -0.002359 0.000000 0.000000 0.000000
# 3 -0.002359 -0.002359 0.006511 0.000000 0.000000 0.000000
# 4 0.000000 0.000000 0.000000 0.032106 0.000000 0.000000
# 5 0.000000 0.000000 0.000000 0.000000 0.032106 0.000000
# 6 0.000000 0.000000 0.000000 0.000000 0.000000 -1.850736
#
#
# Mechanical properties :
#
#
# Convention : Reuss Voigt Hill
#
# Bulk Modulus (GPa) = 89.74371 94.52272 92.13321
# Shear Modulus (GPa) = -1.38213 22.95655 10.78721
#
# Velocity S-wave (km/s) = -0.81223 3.31023 2.26913
# Velocity P-wave (km/s) = 6.47742 7.72838 7.13039
#
# Compressibility (1/GPa) = 0.01114284
#
# Stress axis : x y z
#
# Youngs Moduli (GPa) = -2.17786 -2.17786 153.59172
#
# Poissons Ratio (x) = 1.01532 0.36232
# Poissons Ratio (y) = 1.01532 0.36232
# Poissons Ratio (z) = -0.00514 -0.00514
#
# Static dielectric constant tensor:
#      x y z
#    x 1.770430 0.000000 0.000000 
#    y 0.000000 1.770430 0.000000 
#    z 0.000000 0.000000 1.762390 
# 
# From -- ./inp_files/441.got.cif
#   From: 2010.05.17/outbox.cif.g08.bks.cpg/sg192_1_cif.got.tgz:441.got - 2010.05.20 12:28:01.
