data_PCOD9588479
_publ_section_title
;
Structure prediction by ZEFSAII (Michael W. Deem and Ramdas Pophale) SiO2 
 PCOD9588479
Probable space group: P 6/M C C
;
_chemical_formula_sum "Si O2"
_cell_formula_units_Z 168
_cell_length_a 17.985027
_cell_length_b 17.985027
_cell_length_c 29.299871
_cell_angle_alpha 90.000000
_cell_angle_beta 90.000000
_cell_angle_gamma 120.000000
_cell_volume 8207.644326
_symmetry_space_group_name_H-M "P 6/M C C"
_symmetry_group_IT_number 192
_symmetry_cell_setting 'hexagonal'
loop_
_space_group_symop_operation_xyz
x,y,z
x-y,x,z
-y,x-y,z
-x,-y,z
-x+y,-x,z
y,-x+y,z
x-y,-y,1/2-z
-x,-x+y,1/2-z
y,x,1/2-z
-y,-x,1/2-z
-x+y,y,1/2-z
x,x-y,1/2-z
-x,-y,-z
-x+y,-x,-z
y,-x+y,-z
x,y,-z
x-y,x,-z
-y,x-y,-z
-x+y,y,1/2+z
x,x-y,1/2+z
-y,-x,1/2+z
y,x,1/2+z
x-y,-y,1/2+z
-x,-x+y,1/2+z
loop_
_atom_site_type_symbol
_atom_site_label
_atom_site_fract_x
_atom_site_fract_y
_atom_site_fract_z
Si Si1 0.178536 0.017928 0.681658
Si Si2 0.995454 0.342769 0.697275
Si Si3 0.191612 0.135835 0.927722
Si Si4 0.382605 0.103571 0.449273
Si Si5 0.511844 0.678636 0.857347
Si Si6 0.541233 0.601131 0.448543
Si Si7 0.342274 0.495994 0.142762
O O1 0.169027 0.097823 0.697593
O O2 0.260691 0.009906 0.694371
O O3 0.185176 0.037022 0.626943
O O4 0.909647 0.327555 0.672967
O O5 0.000000 0.367625 0.750000
O O6 0.075597 0.418495 0.670082
O O7 0.123467 0.163487 0.943887
O O8 0.291150 0.195433 0.940319
O O9 0.414679 0.139512 0.500000
O O10 0.451278 0.149477 0.409201
O O11 0.363618 0.005928 0.449076
O O12 0.425545 0.588689 0.850817
O O13 0.501236 0.758954 0.844442
O O14 0.500000 0.500000 0.435533
O O15 0.511597 0.603501 0.500000
O O16 0.521867 0.652469 0.410948
#
# Coordination Sequence:
#
# PCOD9588479 Si02
#       7
#    24  24  24  24  24  24  24
#     4  10  20  37  64  99 138 175 217 269 330 392
#     4  12  26  46  72  98 127 174 230 279 331 401
#     4  10  21  38  60  90 131 179 226 276 328 386
#     4  11  23  38  63  98 131 170 224 274 321 386
#     4  12  26  45  70 101 135 173 218 275 342 407
#     4  10  19  38  67  96 129 173 219 267 323 390
#     4  12  25  45  70 100 136 173 218 277 341 405
#
# _framework density 20.468724000000002
#
# number of rings (size 3 to 8) (size 9 to 14) (size 15 to 20)
#    0.000    1.000    4.286    1.857    4.000    5.714 
#    0.000    0.000    0.000    5.143    0.000    0.000 
#    0.000    0.000    0.000    0.000    0.000    0.000 
#
# Total GULP energy -938608.756194 kJ/mol
# GULP energy per Si atom -5586.956882 kJ/mol
# Density = 2.042214 g / cm^3
# Si number density = 20.468724 Si / 1000 Ang^3
#
#
#
# Elastic Constant Matrix: (Units=GPa)
#
#
# Indices 1 2 3 4 5 6 
#
# 1 169.9983 45.8528 39.1613 0.0000 0.0000 0.0000
# 2 45.8528 169.9983 39.1613 0.0000 0.0000 0.0000
# 3 39.1613 39.1613 112.9037 0.0000 0.0000 0.0000
# 4 0.0000 0.0000 0.0000 -32.6829 0.0000 0.0000
# 5 0.0000 0.0000 0.0000 0.0000 -32.6829 0.0000
# 6 0.0000 0.0000 0.0000 0.0000 0.0000 62.0727
#
#
#
# Elastic Compliance Matrix: (Units=1/GPa)
#
#
# Indices 1 2 3 4 5 6 
#
# 1 0.006677 -0.001378 -0.001838 0.000000 0.000000 0.000000
# 2 -0.001378 0.006677 -0.001838 0.000000 0.000000 0.000000
# 3 -0.001838 -0.001838 0.010132 0.000000 0.000000 0.000000
# 4 0.000000 0.000000 0.000000 -0.030597 0.000000 0.000000
# 5 0.000000 0.000000 0.000000 0.000000 -0.030597 0.000000
# 6 0.000000 0.000000 0.000000 0.000000 0.000000 0.016110
#
#
# Mechanical properties :
#
#
# Convention : Reuss Voigt Hill
#
# Bulk Modulus (GPa) = 74.74448 77.91678 76.33063
# Shear Modulus (GPa) = -711.37724 21.25636 -345.06044
#
# Velocity S-wave (km/s) = -18.66274 3.22604 -12.99790
# Velocity P-wave (km/s) = 20.68337 7.21286 13.70723
#
# Compressibility (1/GPa) = 0.01337891
#
# Stress axis : x y z
#
# Youngs Moduli (GPa) = 149.75756 149.75756 98.69388
#
# Poissons Ratio (x) = 0.20631 0.18143
# Poissons Ratio (y) = 0.20631 0.18143
# Poissons Ratio (z) = 0.27530 0.27530
#
# Static dielectric constant tensor:
#      x y z
#    x 1.709060 0.000000 0.000000 
#    y 0.000000 1.709060 0.000000 
#    z 0.000000 0.000000 1.777470 
# 
# From -- ./inp_files/7196.got.cif
#   From: 2010.05.17/outbox.cif.g08.bks.cpg/sg192_4_cif.got.tgz:7196.got - 2010.05.20 12:28:01.
