data_PCOD9588260
_publ_section_title
;
Structure prediction by ZEFSAII (Michael W. Deem and Ramdas Pophale) SiO2 
 PCOD9588260
Probable space group: P 6/M M M
;
_chemical_formula_sum "Si O2"
_cell_formula_units_Z 88
_cell_length_a 27.000000
_cell_length_b 27.000000
_cell_length_c 9.000000
_cell_angle_alpha 90.000000
_cell_angle_beta 90.000000
_cell_angle_gamma 120.000000
_cell_volume 5681.992674
_symmetry_space_group_name_H-M "P 6/M M M"
_symmetry_group_IT_number 191
_symmetry_cell_setting 'hexagonal'
loop_
_space_group_symop_operation_xyz
x,y,z
x-y,x,z
-y,x-y,z
-x,-y,z
-x+y,-x,z
y,-x+y,z
x-y,-y,-z
-x,-x+y,-z
y,x,-z
-y,-x,-z
-x+y,y,-z
x,x-y,-z
-x,-y,-z
-x+y,-x,-z
y,-x+y,-z
x,y,-z
x-y,x,-z
-y,x-y,-z
-x+y,y,z
x,x-y,z
-y,-x,z
y,x,z
x-y,-y,z
-x,-x+y,z
loop_
_atom_site_type_symbol
_atom_site_label
_atom_site_fract_x
_atom_site_fract_y
_atom_site_fract_z
Si Si1 0.246729 0.181152 0.320821
Si Si2 0.124042 0.367985 0.171003
Si Si3 0.333334 0.666667 0.680196
Si Si4 0.396501 0.603500 0.820352
Si Si5 0.184522 0.696312 0.678102
O O1 0.252609 0.184574 0.500000
O O2 0.233822 0.116911 0.278554
O O3 0.199685 0.199685 0.281170
O O4 0.307786 0.226473 0.249038
O O5 0.184411 0.368822 0.168374
O O6 0.138671 0.425488 0.260040
O O7 0.107513 0.369799 0.000000
O O8 0.333334 0.666667 0.500000
O O9 0.365163 0.634838 0.745164
O O10 0.358907 0.538563 0.760449
O O11 0.394958 0.605043 0.000000
O O12 0.179313 0.687930 0.500000
O O13 0.248059 0.751942 0.706482
#
# Coordination Sequence:
#
# PCOD9588260 Si02
#       5
#    24  24   4  12  24
#     4   9  17  30  49  73 101 132 164 195 231 275
#     4   9  17  29  45  66  92 119 153 196 242 286
#     4  12  22  32  40  54  82 119 163 204 250 308
#     4  12  22  30  42  60  85 119 160 206 252 300
#     4  10  19  30  44  60  85 119 157 198 244 299
#
# _framework density 15.487524000000001
#
# number of rings (size 3 to 8) (size 9 to 14) (size 15 to 20)
#    0.000    2.182    1.364    3.273    0.000    4.909 
#    0.000    0.000    0.000    0.273    0.000    2.864 
#    0.000    7.636    0.000    6.818    0.000    7.091 
#
# Total GULP energy -490458.861256 kJ/mol
# GULP energy per Si atom -5573.396151 kJ/mol
# Density = 1.545227 g / cm^3
# Si number density = 15.487524 Si / 1000 Ang^3
#
#
#
# Elastic Constant Matrix: (Units=GPa)
#
#
# Indices 1 2 3 4 5 6 
#
# 1 96.6058 49.7728 39.7808 0.0000 0.0000 0.0000
# 2 49.7728 96.6059 39.7809 0.0000 0.0000 0.0000
# 3 39.7808 39.7809 95.6475 0.0000 0.0000 0.0000
# 4 0.0000 0.0000 0.0000 19.8645 0.0000 0.0000
# 5 0.0000 0.0000 0.0000 0.0000 19.8645 0.0000
# 6 0.0000 0.0000 0.0000 0.0000 0.0000 23.4166
#
#
#
# Elastic Compliance Matrix: (Units=1/GPa)
#
#
# Indices 1 2 3 4 5 6 
#
# 1 0.015090 -0.006263 -0.003671 0.000000 0.000000 0.000000
# 2 -0.006263 0.015090 -0.003671 0.000000 0.000000 0.000000
# 3 -0.003671 -0.003671 0.013509 0.000000 0.000000 0.000000
# 4 0.000000 0.000000 0.000000 0.050341 0.000000 0.000000
# 5 0.000000 0.000000 0.000000 0.000000 0.050341 0.000000
# 6 0.000000 0.000000 0.000000 0.000000 0.000000 0.042705
#
#
# Mechanical properties :
#
#
# Convention : Reuss Voigt Hill
#
# Bulk Modulus (GPa) = 60.68721 60.83645 60.76183
# Shear Modulus (GPa) = 22.75017 23.26409 23.00713
#
# Velocity S-wave (km/s) = 3.83683 3.87992 3.85843
# Velocity P-wave (km/s) = 7.67450 7.70960 7.69207
#
# Compressibility (1/GPa) = 0.01647794
#
# Stress axis : x y z
#
# Youngs Moduli (GPa) = 66.27019 66.27024 74.02523
#
# Poissons Ratio (x) = 0.41503 0.27177
# Poissons Ratio (y) = 0.41503 0.27177
# Poissons Ratio (z) = 0.24330 0.24330
#
# Static dielectric constant tensor:
#      x y z
#    x 1.514790 0.000000 0.000000 
#    y 0.000000 1.514790 0.000000 
#    z 0.000000 0.000000 1.521110 
# 
# From -- ./inp_files/1279.got.cif
#   From: 2010.05.17/outbox.ucp.g08.bks.cvg/sg191_1_cif.got.tgz:1279.got - 2010.06.11 15:22:43.
