data_PCOD9588676
_publ_section_title
;
Structure prediction by ZEFSAII (Michael W. Deem and Ramdas Pophale) SiO2 
 PCOD9588676
Probable space group: P 6/M C C
;
_chemical_formula_sum "Si O2"
_cell_formula_units_Z 144
_cell_length_a 20.746885
_cell_length_b 20.746885
_cell_length_c 21.141708
_cell_angle_alpha 90.000000
_cell_angle_beta 90.000000
_cell_angle_gamma 120.000000
_cell_volume 7880.912420
_symmetry_space_group_name_H-M "P 6/M C C"
_symmetry_group_IT_number 192
_symmetry_cell_setting 'hexagonal'
loop_
_space_group_symop_operation_xyz
x,y,z
x-y,x,z
-y,x-y,z
-x,-y,z
-x+y,-x,z
y,-x+y,z
x-y,-y,1/2-z
-x,-x+y,1/2-z
y,x,1/2-z
-y,-x,1/2-z
-x+y,y,1/2-z
x,x-y,1/2-z
-x,-y,-z
-x+y,-x,-z
y,-x+y,-z
x,y,-z
x-y,x,-z
-y,x-y,-z
-x+y,y,1/2+z
x,x-y,1/2+z
-y,-x,1/2+z
y,x,1/2+z
x-y,-y,1/2+z
-x,-x+y,1/2+z
loop_
_atom_site_type_symbol
_atom_site_label
_atom_site_fract_x
_atom_site_fract_y
_atom_site_fract_z
Si Si1 0.234603 0.324484 0.876414
Si Si2 0.914819 0.310180 0.250000
Si Si3 0.562031 0.437970 0.250000
Si Si4 0.590049 0.677934 0.000000
Si Si5 0.587974 0.412029 0.000000
Si Si6 0.380279 0.619714 0.138837
Si Si7 0.322071 0.409949 0.000000
Si Si8 0.910115 0.234599 0.623586
O O1 0.264911 0.378300 0.814986
O O2 0.145607 0.291210 0.878687
O O3 0.265545 0.265543 0.875214
O O4 0.271546 0.375737 0.937960
O O5 0.913728 0.387023 0.250003
O O6 0.886609 0.264907 0.314985
O O7 0.000000 0.332461 0.250000
O O8 0.585835 0.414174 0.185777
O O9 0.624262 0.728458 0.937960
O O10 0.501358 0.630621 0.000000
O O11 0.620371 0.620375 0.000000
O O12 0.610600 0.389407 0.065181
O O13 0.630614 0.501360 0.000000
O O14 0.414240 0.707117 0.153040
#
# Coordination Sequence:
#
# PCOD9588676 Si02
#       8
#    24  24  12  12  12  24  12  24
#     4  10  21  38  58  85 114 144 182 230 280 339
#     4  10  22  36  54  82 110 138 184 228 273 327
#     4  12  21  36  58  72 102 150 182 234 282 326
#     4  10  22  36  54  82 110 138 184 228 273 327
#     4  12  21  36  58  72 102 150 182 234 282 326
#     4  10  24  38  47  70 102 130 180 230 270 320
#     4  10  22  36  54  82 110 138 184 228 273 327
#     4  10  21  38  58  85 114 144 182 230 280 339
#
# _framework density 18.271996000000001
#
# number of rings (size 3 to 8) (size 9 to 14) (size 15 to 20)
#    0.333    1.333    0.000    4.500    0.000    8.000 
#    0.000    6.667    0.000    0.333    0.000    0.000 
#    0.000    8.000    0.000    0.000    0.000    1.333 
#
# Total GULP energy -802469.446803 kJ/mol
# GULP energy per Si atom -5572.704492 kJ/mol
# Density = 1.823041 g / cm^3
# Si number density = 18.271996 Si / 1000 Ang^3
#
#
#
# Elastic Constant Matrix: (Units=GPa)
#
#
# Indices 1 2 3 4 5 6 
#
# 1 80.8459 46.9884 28.8063 0.0000 0.0000 0.0000
# 2 46.9884 80.8459 28.8063 0.0000 0.0000 0.0000
# 3 28.8063 28.8063 131.6192 0.0000 0.0000 0.0000
# 4 0.0000 0.0000 0.0000 -19.0259 0.0000 0.0000
# 5 0.0000 0.0000 0.0000 0.0000 -19.0259 0.0000
# 6 0.0000 0.0000 0.0000 0.0000 0.0000 16.9287
#
#
#
# Elastic Compliance Matrix: (Units=1/GPa)
#
#
# Indices 1 2 3 4 5 6 
#
# 1 0.019107 -0.010428 -0.001899 0.000000 0.000000 0.000000
# 2 -0.010428 0.019107 -0.001899 0.000000 0.000000 0.000000
# 3 -0.001899 -0.001899 0.008429 0.000000 0.000000 0.000000
# 4 0.000000 0.000000 0.000000 -0.052560 0.000000 0.000000
# 5 0.000000 0.000000 0.000000 0.000000 -0.052560 0.000000
# 6 0.000000 0.000000 0.000000 0.000000 0.000000 0.059071
#
#
# Mechanical properties :
#
#
# Convention : Reuss Voigt Hill
#
# Bulk Modulus (GPa) = 54.97910 55.83479 55.40694
# Shear Modulus (GPa) = 142.40026 8.35604 75.37815
#
# Velocity S-wave (km/s) = 8.83758 2.14081 6.42985
# Velocity P-wave (km/s) = 11.58843 6.06091 9.24733
#
# Compressibility (1/GPa) = 0.01818873
#
# Stress axis : x y z
#
# Youngs Moduli (GPa) = 52.33654 52.33654 118.63669
#
# Poissons Ratio (x) = 0.54579 0.22534
# Poissons Ratio (y) = 0.54579 0.22534
# Poissons Ratio (z) = 0.09941 0.09941
#
# Static dielectric constant tensor:
#      x y z
#    x 1.628630 0.000000 0.000000 
#    y 0.000000 1.628630 0.000000 
#    z 0.000000 0.000000 1.648160 
# 
# From -- ./inp_files/5223.got.cif
#   From: 2010.05.17/outbox.cif.g08.bks.cpg/sg192_3_cif.got.tgz:5223.got - 2010.05.20 12:28:01.
