data_PCOD9588214
_publ_section_title
;
Structure prediction by ZEFSAII (Michael W. Deem and Ramdas Pophale) SiO2 
 PCOD9588214
Probable space group: P 6/M M M
;
_chemical_formula_sum "Si O2"
_cell_formula_units_Z 168
_cell_length_a 21.508990
_cell_length_b 21.508990
_cell_length_c 25.967669
_cell_angle_alpha 90.000000
_cell_angle_beta 90.000000
_cell_angle_gamma 120.000000
_cell_volume 10404.078821
_symmetry_space_group_name_H-M "P 6/M M M"
_symmetry_group_IT_number 191
_symmetry_cell_setting 'hexagonal'
loop_
_space_group_symop_operation_xyz
x,y,z
x-y,x,z
-y,x-y,z
-x,-y,z
-x+y,-x,z
y,-x+y,z
x-y,-y,-z
-x,-x+y,-z
y,x,-z
-y,-x,-z
-x+y,y,-z
x,x-y,-z
-x,-y,-z
-x+y,-x,-z
y,-x+y,-z
x,y,-z
x-y,x,-z
-y,x-y,-z
-x+y,y,z
x,x-y,z
-y,-x,z
y,x,z
x-y,-y,z
-x,-x+y,z
loop_
_atom_site_type_symbol
_atom_site_label
_atom_site_fract_x
_atom_site_fract_y
_atom_site_fract_z
Si Si1 0.305635 0.844766 0.555891
Si Si2 0.473242 0.809296 0.664205
Si Si3 0.079332 0.779295 0.716439
Si Si4 0.080546 0.776932 0.593306
Si Si5 0.916274 0.357161 0.245886
Si Si6 0.616125 0.081265 0.940771
Si Si7 0.480427 0.666322 0.850050
O O1 0.341271 0.856637 0.500000
O O2 0.232557 0.767444 0.554400
O O3 0.344720 0.840203 0.606624
O O4 0.278556 0.901170 0.565692
O O5 0.388651 0.777302 0.670575
O O6 0.493249 0.746625 0.672311
O O7 0.513133 0.873517 0.704467
O O8 0.142921 0.857080 0.730170
O O9 0.085721 0.767933 0.655093
O O10 0.085359 0.718215 0.747230
O O11 0.000000 0.766182 0.724404
O O12 0.142980 0.857021 0.579970
O O13 0.000000 0.757467 0.581643
O O14 0.870275 0.354198 0.196676
O O15 0.000000 0.418240 0.243622
O O16 0.540376 0.080752 0.939839
O O17 0.665885 0.142662 0.901064
O O18 0.595277 0.000000 0.925975
O O19 0.641398 0.094221 0.000000
O O20 0.484083 0.742042 0.841687
O O21 0.397971 0.602030 0.854734
#
# Coordination Sequence:
#
# PCOD9588214 Si02
#       7
#    24  24  24  24  24  24  24
#     4   9  18  32  49  68  90 117 150 188 227 270
#     4  11  22  36  53  72  97 125 154 189 236 296
#     4   9  16  28  47  69  92 118 150 187 229 276
#     4   9  16  28  47  69  92 118 150 188 231 278
#     4  11  22  35  52  71  92 122 162 207 248 287
#     4   8  15  30  51  72  95 126 164 203 240 280
#     4  11  22  34  49  70  99 131 164 203 249 300
#
# _framework density 16.147514000000001
#
# number of rings (size 3 to 8) (size 9 to 14) (size 15 to 20)
#    0.000    2.286    1.429    2.857    0.000    2.571 
#    0.000    1.429    0.000    2.000    0.000    4.000 
#    0.000    0.000    0.000    3.571    0.000    3.714 
#
# Total GULP energy -936447.929448 kJ/mol
# GULP energy per Si atom -5574.094818 kJ/mol
# Density = 1.611076 g / cm^3
# Si number density = 16.147514 Si / 1000 Ang^3
#
#
#
# Elastic Constant Matrix: (Units=GPa)
#
#
# Indices 1 2 3 4 5 6 
#
# 1 73.2723 39.7606 33.9371 0.0000 0.0000 0.0000
# 2 39.7606 73.2723 33.9371 0.0000 0.0000 0.0000
# 3 33.9371 33.9371 74.6896 0.0000 0.0000 0.0000
# 4 0.0000 0.0000 0.0000 9.1311 0.0000 0.0000
# 5 0.0000 0.0000 0.0000 0.0000 9.1311 0.0000
# 6 0.0000 0.0000 0.0000 0.0000 0.0000 16.7558
#
#
#
# Elastic Compliance Matrix: (Units=1/GPa)
#
#
# Indices 1 2 3 4 5 6 
#
# 1 0.021003 -0.008837 -0.005528 0.000000 0.000000 0.000000
# 2 -0.008837 0.021003 -0.005528 0.000000 0.000000 0.000000
# 3 -0.005528 -0.005528 0.018412 0.000000 0.000000 0.000000
# 4 0.000000 0.000000 0.000000 0.109516 0.000000 0.000000
# 5 0.000000 0.000000 0.000000 0.000000 0.109516 0.000000
# 6 0.000000 0.000000 0.000000 0.000000 0.000000 0.059681
#
#
# Mechanical properties :
#
#
# Convention : Reuss Voigt Hill
#
# Bulk Modulus (GPa) = 48.46638 48.50044 48.48341
# Shear Modulus (GPa) = 12.96023 14.57689 13.76856
#
# Velocity S-wave (km/s) = 2.83612 3.00781 2.92323
# Velocity P-wave (km/s) = 6.38785 6.49335 6.44082
#
# Compressibility (1/GPa) = 0.02063286
#
# Stress axis : x y z
#
# Youngs Moduli (GPa) = 47.61120 47.61120 54.31095
#
# Poissons Ratio (x) = 0.42074 0.30024
# Poissons Ratio (y) = 0.42074 0.30024
# Poissons Ratio (z) = 0.26320 0.26320
#
# Static dielectric constant tensor:
#      x y z
#    x 1.540430 0.000000 0.000000 
#    y 0.000000 1.540430 0.000000 
#    z 0.000000 0.000000 1.563270 
# 
# From -- ./inp_files/9028.got.cif
#   From: 2010.05.17/outbox.cif.g08.bks.cpg/sg191_5_cif.got.tgz:9028.got - 2010.05.20 12:20:32.
