data_PCOD9588404
_publ_section_title
;
Structure prediction by ZEFSAII (Michael W. Deem and Ramdas Pophale) SiO2 
 PCOD9588404
Probable space group: P 6/M C C
;
_chemical_formula_sum "Si O2"
_cell_formula_units_Z 144
_cell_length_a 33.028958
_cell_length_b 33.028958
_cell_length_c 8.716197
_cell_angle_alpha 90.000000
_cell_angle_beta 90.000000
_cell_angle_gamma 120.000000
_cell_volume 8234.693036
_symmetry_space_group_name_H-M "P 6/M C C"
_symmetry_group_IT_number 192
_symmetry_cell_setting 'hexagonal'
loop_
_space_group_symop_operation_xyz
x,y,z
x-y,x,z
-y,x-y,z
-x,-y,z
-x+y,-x,z
y,-x+y,z
x-y,-y,1/2-z
-x,-x+y,1/2-z
y,x,1/2-z
-y,-x,1/2-z
-x+y,y,1/2-z
x,x-y,1/2-z
-x,-y,-z
-x+y,-x,-z
y,-x+y,-z
x,y,-z
x-y,x,-z
-y,x-y,-z
-x+y,y,1/2+z
x,x-y,1/2+z
-y,-x,1/2+z
y,x,1/2+z
x-y,-y,1/2+z
-x,-x+y,1/2+z
loop_
_atom_site_type_symbol
_atom_site_label
_atom_site_fract_x
_atom_site_fract_y
_atom_site_fract_z
Si Si1 0.611985 0.562680 0.317297
Si Si2 0.382997 0.287436 0.683847
Si Si3 0.897577 0.706420 0.314749
Si Si4 0.383213 0.528301 0.315913
Si Si5 0.282076 0.807268 0.683399
Si Si6 0.809082 0.949061 0.315937
O O1 0.573855 0.573855 0.250000
O O2 0.610213 0.563133 0.500000
O O3 0.663414 0.602255 0.262136
O O4 0.606415 0.513149 0.267717
O O5 0.383550 0.293615 0.500000
O O6 0.333340 0.243439 0.726652
O O7 0.424011 0.275824 0.722152
O O8 0.846666 0.693331 0.250000
O O9 0.897111 0.709933 0.500000
O O10 0.932889 0.756768 0.243867
O O11 0.423013 0.576988 0.250000
O O12 0.382871 0.529673 0.500000
O O13 0.331849 0.512503 0.252653
O O14 0.239522 0.760479 0.750000
O O15 0.283275 0.804376 0.500000
O O16 0.819920 0.909960 0.250000
O O17 0.809590 0.948709 0.500000
O O18 0.843799 0.000000 0.250000
#
# Coordination Sequence:
#
# PCOD9588404 Si02
#       6
#    24  24  24  24  24  24
#     4  10  21  35  52  73 101 136 177 221 266 312
#     4   9  19  33  50  73 105 142 180 219 261 305
#     4  10  19  32  50  75 105 139 176 215 256 303
#     4  10  21  37  56  79 104 135 173 216 264 316
#     4  10  19  33  54  80 108 139 173 214 260 312
#     4  11  22  38  58  81 107 138 174 214 258 307
#
# _framework density 17.486992000000001
#
# number of rings (size 3 to 8) (size 9 to 14) (size 15 to 20)
#    0.000    2.000    0.000    5.000    0.000    5.000 
#    0.000    1.667    0.000    0.500    0.000    3.500 
#    0.000    0.000    0.000    0.000    0.000    0.000 
#
# Total GULP energy -804228.759773 kJ/mol
# GULP energy per Si atom -5584.921943 kJ/mol
# Density = 1.744719 g / cm^3
# Si number density = 17.486992 Si / 1000 Ang^3
#
#
#
# Elastic Constant Matrix: (Units=GPa)
#
#
# Indices 1 2 3 4 5 6 
#
# 1 78.4609 55.4880 36.1959 0.0000 0.0000 0.0000
# 2 55.4880 78.4609 36.1959 0.0000 0.0000 0.0000
# 3 36.1959 36.1959 74.3945 0.0000 0.0000 0.0000
# 4 0.0000 0.0000 0.0000 29.9593 0.0000 0.0000
# 5 0.0000 0.0000 0.0000 0.0000 29.9593 0.0000
# 6 0.0000 0.0000 0.0000 0.0000 0.0000 11.4864
#
#
#
# Elastic Compliance Matrix: (Units=1/GPa)
#
#
# Indices 1 2 3 4 5 6 
#
# 1 0.026829 -0.016700 -0.004928 0.000000 0.000000 0.000000
# 2 -0.016700 0.026829 -0.004928 0.000000 0.000000 0.000000
# 3 -0.004928 -0.004928 0.018237 0.000000 0.000000 0.000000
# 4 0.000000 0.000000 0.000000 0.033379 0.000000 0.000000
# 5 0.000000 0.000000 0.000000 0.000000 0.033379 0.000000
# 6 0.000000 0.000000 0.000000 0.000000 0.000000 0.087059
#
#
# Mechanical properties :
#
#
# Convention : Reuss Voigt Hill
#
# Bulk Modulus (GPa) = 53.24061 54.11952 53.68007
# Shear Modulus (GPa) = 17.53855 21.17679 19.35767
#
# Velocity S-wave (km/s) = 3.17037 3.48372 3.33073
# Velocity P-wave (km/s) = 6.62673 6.87004 6.74948
#
# Compressibility (1/GPa) = 0.01878265
#
# Stress axis : x y z
#
# Youngs Moduli (GPa) = 37.27274 37.27274 54.83269
#
# Poissons Ratio (x) = 0.62247 0.27022
# Poissons Ratio (y) = 0.62247 0.27022
# Poissons Ratio (z) = 0.18368 0.18368
#
# Static dielectric constant tensor:
#      x y z
#    x 1.577900 0.000000 0.000000 
#    y 0.000000 1.577900 0.000000 
#    z 0.000000 0.000000 1.581870 
# 
# From -- ./inp_files/1134.got.cif
#   From: 2010.05.17/outbox.cif.g08.bks.cpg/sg192_1_cif.got.tgz:1134.got - 2010.05.20 12:28:01.
