data_PCOD9588831
_publ_section_title
;
Structure prediction by ZEFSAII (Michael W. Deem and Ramdas Pophale) SiO2 
 PCOD9588831
Probable space group: P 6/M C C
;
_chemical_formula_sum "Si O2"
_cell_formula_units_Z 78
_cell_length_a 21.252595
_cell_length_b 21.252595
_cell_length_c 9.347268
_cell_angle_alpha 90.000000
_cell_angle_beta 90.000000
_cell_angle_gamma 120.000000
_cell_volume 3656.278417
_symmetry_space_group_name_H-M "P 6/M C C"
_symmetry_group_IT_number 192
_symmetry_cell_setting 'hexagonal'
loop_
_space_group_symop_operation_xyz
x,y,z
x-y,x,z
-y,x-y,z
-x,-y,z
-x+y,-x,z
y,-x+y,z
x-y,-y,1/2-z
-x,-x+y,1/2-z
y,x,1/2-z
-y,-x,1/2-z
-x+y,y,1/2-z
x,x-y,1/2-z
-x,-y,-z
-x+y,-x,-z
y,-x+y,-z
x,y,-z
x-y,x,-z
-y,x-y,-z
-x+y,y,1/2+z
x,x-y,1/2+z
-y,-x,1/2+z
y,x,1/2+z
x-y,-y,1/2+z
-x,-x+y,1/2+z
loop_
_atom_site_type_symbol
_atom_site_label
_atom_site_fract_x
_atom_site_fract_y
_atom_site_fract_z
Si Si1 0.901646 0.564846 0.654571
Si Si2 0.796574 0.724729 0.165963
Si Si3 0.209534 0.544632 0.166403
Si Si4 0.500000 0.500000 0.750000
O O1 0.861330 0.539816 0.500000
O O2 0.933446 0.650731 0.658574
O O3 0.849855 0.536477 0.792504
O O4 0.953914 0.529564 0.661681
O O5 0.782852 0.782852 0.250000
O O6 0.856157 0.712314 0.250000
O O7 0.818945 0.744641 0.000000
O O8 0.281810 0.563620 0.250000
O O9 0.180759 0.590380 0.250000
O O10 0.219654 0.559002 0.000000
#
# Coordination Sequence:
#
# PCOD9588831 Si02
#       4
#    24  24  24   6
#     4  11  24  41  64  96 132 175 225 279 340 403
#     4  11  24  44  70 104 142 185 234 291 357 429
#     4  12  25  41  61  84 116 157 208 266 327 392
#     4  12  22  40  68  98 138 176 228 280 342 400
#
# _framework density 21.333167
#
# number of rings (size 3 to 8) (size 9 to 14) (size 15 to 20)
#    0.000    0.615    3.077    5.385    0.000    6.154 
#    0.000    0.000    0.000    0.308    0.000    2.154 
#    0.000    0.000    0.000    0.000    0.000    0.000 
#
# Total GULP energy -434704.144407 kJ/mol
# GULP energy per Si atom -5573.130057 kJ/mol
# Density = 2.128461 g / cm^3
# Si number density = 21.333167 Si / 1000 Ang^3
#
#
#
# Elastic Constant Matrix: (Units=GPa)
#
#
# Indices 1 2 3 4 5 6 
#
# 1 82.5396 27.4541 48.1566 0.0000 0.0000 0.0000
# 2 27.4541 82.5396 48.1566 0.0000 0.0000 0.0000
# 3 48.1566 48.1566 222.2160 0.0000 0.0000 0.0000
# 4 0.0000 0.0000 0.0000 679.3978 0.0000 0.0000
# 5 0.0000 0.0000 0.0000 0.0000 679.3977 0.0000
# 6 0.0000 0.0000 0.0000 0.0000 0.0000 27.5428
#
#
#
# Elastic Compliance Matrix: (Units=1/GPa)
#
#
# Indices 1 2 3 4 5 6 
#
# 1 0.014687 -0.003466 -0.002432 0.000000 0.000000 0.000000
# 2 -0.003466 0.014687 -0.002432 0.000000 0.000000 0.000000
# 3 -0.002432 -0.002432 0.005554 0.000000 0.000000 0.000000
# 4 0.000000 0.000000 0.000000 0.001472 0.000000 0.000000
# 5 0.000000 0.000000 0.000000 0.000000 0.001472 0.000000
# 6 0.000000 0.000000 0.000000 0.000000 0.000000 0.036307
#
#
# Mechanical properties :
#
#
# Convention : Reuss Voigt Hill
#
# Bulk Modulus (GPa) = 54.73821 70.53663 62.63742
# Shear Modulus (GPa) = 51.58455 294.83618 173.21036
#
# Velocity S-wave (km/s) = 4.92270 11.76884 9.02049
# Velocity P-wave (km/s) = 7.61742 14.75839 11.74383
#
# Compressibility (1/GPa) = 0.01826877
#
# Stress axis : x y z
#
# Youngs Moduli (GPa) = 68.08696 68.08696 180.04894
#
# Poissons Ratio (x) = 0.23602 0.43781
# Poissons Ratio (y) = 0.23602 0.43781
# Poissons Ratio (z) = 0.16556 0.16556
#
# Static dielectric constant tensor:
#      x y z
#    x 1.892780 0.000000 0.000000 
#    y 0.000000 1.892780 0.000000 
#    z 0.000000 0.000000 1.792040 
# 
# From -- ./inp_files/748.got.cif
#   From: 2010.05.17/outbox.cif.g08.bks.cpg/sg192_1_cif.got.tgz:748.got - 2010.05.20 12:28:01.
