data_PCOD9588901
_publ_section_title
;
Structure prediction by ZEFSAII (Michael W. Deem and Ramdas Pophale) SiO2 
 PCOD9588901
Probable space group: P 63/M C M
;
_chemical_formula_sum "Si O2"
_cell_formula_units_Z 144
_cell_length_a 22.224451
_cell_length_b 22.224451
_cell_length_c 21.140036
_cell_angle_alpha 90.000000
_cell_angle_beta 90.000000
_cell_angle_gamma 120.000000
_cell_volume 9042.706548
_symmetry_space_group_name_H-M "P 63/M C M"
_symmetry_group_IT_number 193
_symmetry_cell_setting 'hexagonal'
loop_
_space_group_symop_operation_xyz
x,y,z
x-y,x,1/2+z
-y,x-y,z
-x,-y,1/2+z
-x+y,-x,z
y,-x+y,1/2+z
x-y,-y,1/2-z
-x,-x+y,1/2-z
y,x,1/2-z
-y,-x,-z
-x+y,y,-z
x,x-y,-z
-x,-y,-z
-x+y,-x,1/2-z
y,-x+y,-z
x,y,1/2-z
x-y,x,-z
-y,x-y,1/2-z
-x+y,y,1/2+z
x,x-y,1/2+z
-y,-x,1/2+z
y,x,z
x-y,-y,z
-x,-x+y,z
loop_
_atom_site_type_symbol
_atom_site_label
_atom_site_fract_x
_atom_site_fract_y
_atom_site_fract_z
Si Si1 0.079076 0.686239 0.825570
Si Si2 0.160412 0.080388 0.923879
Si Si3 0.530926 0.084641 0.177386
Si Si4 0.491942 0.084371 0.949966
Si Si5 0.728832 0.082447 0.029749
Si Si6 0.315566 0.135159 0.402281
O O1 0.075492 0.684524 0.750000
O O2 0.104281 0.631763 0.842586
O O3 0.123521 0.764109 0.849228
O O4 0.000000 0.653741 0.850801
O O5 0.103681 0.103681 0.911876
O O6 0.232976 0.134581 0.892020
O O7 0.130673 0.000000 0.906921
O O8 0.173568 0.086784 0.000000
O O9 0.554471 0.107492 0.250000
O O10 0.586693 0.106683 0.121501
O O11 0.488546 0.000000 0.179188
O O12 0.433846 0.102816 0.970799
O O13 0.451982 0.000000 0.949919
O O14 0.554166 0.108331 0.000000
O O15 0.785068 0.125975 0.082962
O O16 0.692546 0.000000 0.040134
O O17 0.771996 0.101917 0.964731
#
# Coordination Sequence:
#
# PCOD9588901 Si02
#       6
#    24  24  24  24  24  24
#     4   9  17  29  46  67  89 115 149 188 227 270
#     4  10  18  28  42  61  84 116 161 209 251 290
#     4   8  14  26  44  65  88 112 139 171 209 256
#     4   9  16  26  42  64  89 114 139 170 210 260
#     4  10  19  29  42  64  93 122 149 180 226 284
#     4  11  19  28  45  63  92 124 152 190 242 293
#
# _framework density 15.924436
#
# number of rings (size 3 to 8) (size 9 to 14) (size 15 to 20)
#    0.000    2.500    1.667    4.167    0.000    3.333 
#    0.000    0.833    0.000    3.000    0.000    0.000 
#   43.333    1.333    0.000    0.000    0.000    0.000 
#
# Total GULP energy -802037.461058 kJ/mol
# GULP energy per Si atom -5569.704591 kJ/mol
# Density = 1.588819 g / cm^3
# Si number density = 15.924436 Si / 1000 Ang^3
#
#
#
# Elastic Constant Matrix: (Units=GPa)
#
#
# Indices 1 2 3 4 5 6 
#
# 1 74.0365 31.0181 17.5286 0.0000 0.0000 0.0000
# 2 31.0181 74.0365 17.5286 0.0000 0.0000 0.0000
# 3 17.5286 17.5286 31.3781 0.0000 0.0000 0.0000
# 4 0.0000 0.0000 0.0000 13.6452 0.0000 0.0000
# 5 0.0000 0.0000 0.0000 0.0000 13.6452 0.0000
# 6 0.0000 0.0000 0.0000 0.0000 0.0000 21.5092
#
#
#
# Elastic Compliance Matrix: (Units=1/GPa)
#
#
# Indices 1 2 3 4 5 6 
#
# 1 0.017473 -0.005773 -0.006536 0.000000 0.000000 0.000000
# 2 -0.005773 0.017473 -0.006536 0.000000 0.000000 0.000000
# 3 -0.006536 -0.006536 0.039172 0.000000 0.000000 0.000000
# 4 0.000000 0.000000 0.000000 0.073286 0.000000 0.000000
# 5 0.000000 0.000000 0.000000 0.000000 0.073286 0.000000
# 6 0.000000 0.000000 0.000000 0.000000 0.000000 0.046492
#
#
# Mechanical properties :
#
#
# Convention : Reuss Voigt Hill
#
# Bulk Modulus (GPa) = 27.45144 34.62238 31.03691
# Shear Modulus (GPa) = 15.77222 17.31830 16.54526
#
# Velocity S-wave (km/s) = 3.15054 3.30135 3.22683
# Velocity P-wave (km/s) = 5.52363 6.02667 5.78063
#
# Compressibility (1/GPa) = 0.03642796
#
# Stress axis : x y z
#
# Youngs Moduli (GPa) = 57.23151 57.23151 25.52870
#
# Poissons Ratio (x) = 0.33040 0.16685
# Poissons Ratio (y) = 0.33040 0.16685
# Poissons Ratio (z) = 0.37406 0.37406
#
# Static dielectric constant tensor:
#      x y z
#    x 1.538200 0.000000 0.000000 
#    y 0.000000 1.538200 0.000000 
#    z 0.000000 0.000000 1.573530 
# 
# From -- ./inp_files/6603.got.cif
#   From: 2010.05.17/outbox.cif.g08.bks.cpg/sg193_4_cif.got.tgz:6603.got - 2010.05.20 12:33:02.
