data_PCOD9588449
_publ_section_title
;
Structure prediction by ZEFSAII (Michael W. Deem and Ramdas Pophale) SiO2 
 PCOD9588449
Probable space group: P 6/M C C
;
_chemical_formula_sum "Si O2"
_cell_formula_units_Z 114
_cell_length_a 20.834748
_cell_length_b 20.834748
_cell_length_c 15.663117
_cell_angle_alpha 90.000000
_cell_angle_beta 90.000000
_cell_angle_gamma 120.000000
_cell_volume 5888.237620
_symmetry_space_group_name_H-M "P 6/M C C"
_symmetry_group_IT_number 192
_symmetry_cell_setting 'hexagonal'
loop_
_space_group_symop_operation_xyz
x,y,z
x-y,x,z
-y,x-y,z
-x,-y,z
-x+y,-x,z
y,-x+y,z
x-y,-y,1/2-z
-x,-x+y,1/2-z
y,x,1/2-z
-y,-x,1/2-z
-x+y,y,1/2-z
x,x-y,1/2-z
-x,-y,-z
-x+y,-x,-z
y,-x+y,-z
x,y,-z
x-y,x,-z
-y,x-y,-z
-x+y,y,1/2+z
x,x-y,1/2+z
-y,-x,1/2+z
y,x,1/2+z
x-y,-y,1/2+z
-x,-x+y,1/2+z
loop_
_atom_site_type_symbol
_atom_site_label
_atom_site_fract_x
_atom_site_fract_y
_atom_site_fract_z
Si Si1 0.279600 0.932170 0.593986
Si Si2 0.762495 0.959887 0.324982
Si Si3 0.613781 0.553494 0.401597
Si Si4 0.169004 0.119166 0.000000
Si Si5 0.000000 0.500000 0.250000
Si Si6 0.599045 0.775649 0.837531
O O1 0.258653 0.945237 0.500000
O O2 0.238404 0.844705 0.608518
O O3 0.251461 0.971847 0.657686
O O4 0.368356 0.981783 0.599325
O O5 0.787627 0.939440 0.412048
O O6 0.681841 0.888444 0.312201
O O7 0.823615 0.000000 0.250000
O O8 0.591556 0.524147 0.500000
O O9 0.564624 0.513387 0.317951
O O10 0.696392 0.566521 0.384036
O O11 0.104587 0.137968 0.000000
O O12 0.560966 0.780483 0.750000
#
# Coordination Sequence:
#
# PCOD9588449 Si02
#       6
#    24  24  24  12   6  24
#     4  10  19  34  53  83 118 146 183 236 290 345
#     4  11  22  35  53  80 106 140 183 232 298 365
#     4  10  23  38  57  88 123 167 203 241 298 356
#     4  12  27  40  52  64  92 141 198 256 308 352
#     4  12  22  40  60  74 120 168 210 240 278 362
#     4  11  20  32  57  86 121 147 189 236 297 357
#
# _framework density 19.360631999999999
#
# number of rings (size 3 to 8) (size 9 to 14) (size 15 to 20)
#    0.000    1.263    3.158    3.579    5.895    0.000 
#    0.000    0.000    0.000    1.263    0.000    0.000 
#   28.421    0.000   15.158    0.000    0.000    0.000 
#
# Total GULP energy -634722.090596 kJ/mol
# GULP energy per Si atom -5567.737637 kJ/mol
# Density = 1.931657 g / cm^3
# Si number density = 19.360632 Si / 1000 Ang^3
#
#
#
# Elastic Constant Matrix: (Units=GPa)
#
#
# Indices 1 2 3 4 5 6 
#
# 1 63.2503 -1.5574 29.2374 0.0000 0.0000 0.0000
# 2 -1.5574 63.2503 29.2374 0.0000 0.0000 0.0000
# 3 29.2374 29.2374 129.5820 0.0000 0.0000 0.0000
# 4 0.0000 0.0000 0.0000 31.8637 0.0000 0.0000
# 5 0.0000 0.0000 0.0000 0.0000 31.8637 0.0000
# 6 0.0000 0.0000 0.0000 0.0000 0.0000 32.4038
#
#
#
# Elastic Compliance Matrix: (Units=1/GPa)
#
#
# Indices 1 2 3 4 5 6 
#
# 1 0.018025 0.002594 -0.004652 0.000000 0.000000 0.000000
# 2 0.002594 0.018025 -0.004652 0.000000 0.000000 0.000000
# 3 -0.004652 -0.004652 0.009816 0.000000 0.000000 0.000000
# 4 0.000000 0.000000 0.000000 0.031384 0.000000 0.000000
# 5 0.000000 0.000000 0.000000 0.000000 0.031384 0.000000
# 6 0.000000 0.000000 0.000000 0.000000 0.000000 0.030861
#
#
# Mechanical properties :
#
#
# Convention : Reuss Voigt Hill
#
# Bulk Modulus (GPa) = 30.82110 41.10197 35.96153
# Shear Modulus (GPa) = 30.53832 32.50394 31.52113
#
# Velocity S-wave (km/s) = 3.97588 4.10184 4.03936
# Velocity P-wave (km/s) = 6.08530 6.61130 6.35374
#
# Compressibility (1/GPa) = 0.03244531
#
# Stress axis : x y z
#
# Youngs Moduli (GPa) = 55.47990 55.47990 101.86964
#
# Poissons Ratio (x) = -0.14393 0.47392
# Poissons Ratio (y) = -0.14393 0.47392
# Poissons Ratio (z) = 0.25810 0.25810
#
# Static dielectric constant tensor:
#      x y z
#    x 1.690690 0.000000 0.000000 
#    y 0.000000 1.690690 0.000000 
#    z 0.000000 0.000000 2.432540 
# 
# From -- ./inp_files/3014.got.cif
#   From: 2010.05.17/outbox.cif.g08.bks.cpg/sg192_2_cif.got.tgz:3014.got - 2010.05.20 12:28:01.
