data_PCOD9588720
_publ_section_title
;
Structure prediction by ZEFSAII (Michael W. Deem and Ramdas Pophale) SiO2 
 PCOD9588720
Probable space group: P 6/M C C
;
_chemical_formula_sum "Si O2"
_cell_formula_units_Z 104
_cell_length_a 19.809432
_cell_length_b 19.809432
_cell_length_c 17.667936
_cell_angle_alpha 90.000000
_cell_angle_beta 90.000000
_cell_angle_gamma 120.000000
_cell_volume 6004.273898
_symmetry_space_group_name_H-M "P 6/M C C"
_symmetry_group_IT_number 192
_symmetry_cell_setting 'hexagonal'
loop_
_space_group_symop_operation_xyz
x,y,z
x-y,x,z
-y,x-y,z
-x,-y,z
-x+y,-x,z
y,-x+y,z
x-y,-y,1/2-z
-x,-x+y,1/2-z
y,x,1/2-z
-y,-x,1/2-z
-x+y,y,1/2-z
x,x-y,1/2-z
-x,-y,-z
-x+y,-x,-z
y,-x+y,-z
x,y,-z
x-y,x,-z
-y,x-y,-z
-x+y,y,1/2+z
x,x-y,1/2+z
-y,-x,1/2+z
y,x,1/2+z
x-y,-y,1/2+z
-x,-x+y,1/2+z
loop_
_atom_site_type_symbol
_atom_site_label
_atom_site_fract_x
_atom_site_fract_y
_atom_site_fract_z
Si Si1 0.666667 0.333334 0.090232
Si Si2 0.712024 0.216337 0.331587
Si Si3 0.036407 0.588157 0.166923
Si Si4 0.000860 0.290369 0.409343
Si Si5 0.170584 0.829635 0.591894
O O1 0.727479 0.308978 0.122009
O O2 0.666667 0.333334 0.000000
O O3 0.745295 0.254705 0.250000
O O4 0.635816 0.130140 0.326162
O O5 0.777926 0.204817 0.373434
O O6 0.000000 0.500000 0.137630
O O7 0.000000 0.579936 0.250000
O O8 0.011281 0.638669 0.116398
O O9 0.999052 0.286895 0.500000
O O10 0.918437 0.220827 0.381937
O O11 0.079735 0.292077 0.384776
O O12 0.173227 0.826276 0.500000
#
# Coordination Sequence:
#
# PCOD9588720 Si02
#       5
#     8  24  24  24  24
#     4  12  28  41  55  78 109 146 184 222 265 317
#     4  11  23  38  58  80 106 143 182 221 271 316
#     4  10  22  35  55  78 106 135 175 219 268 315
#     4   9  18  33  53  77 104 139 177 219 266 317
#     4   9  18  34  55  79 109 141 180 222 268 320
#
# _framework density 17.320996000000001
#
# number of rings (size 3 to 8) (size 9 to 14) (size 15 to 20)
#    0.000    2.077    0.000    2.769    9.692    1.385 
#    0.000    0.000    0.000    0.462    0.000    3.231 
#    0.000    0.000    0.000    7.385    0.000   10.154 
#
# Total GULP energy -580377.007853 kJ/mol
# GULP energy per Si atom -5580.548152 kJ/mol
# Density = 1.728157 g / cm^3
# Si number density = 17.320996 Si / 1000 Ang^3
#
#
#
# Elastic Constant Matrix: (Units=GPa)
#
#
# Indices 1 2 3 4 5 6 
#
# 1 152.7814 111.6069 39.7425 0.0001 0.0000 0.0002
# 2 111.6069 152.7825 39.7423 0.0000 0.0000 0.0001
# 3 39.7425 39.7423 41.5715 0.0000 0.0000 -0.0001
# 4 0.0001 0.0000 0.0000 21.0149 0.0000 0.0000
# 5 0.0000 0.0000 0.0000 0.0000 21.0149 0.0000
# 6 0.0002 0.0001 -0.0001 0.0000 0.0000 20.5870
#
#
#
# Elastic Compliance Matrix: (Units=1/GPa)
#
#
# Indices 1 2 3 4 5 6 
#
# 1 0.014797 -0.009489 -0.005074 0.000000 0.000000 0.000000
# 2 -0.009489 0.014797 -0.005074 0.000000 0.000000 0.000000
# 3 -0.005074 -0.005074 0.033757 0.000000 0.000000 0.000000
# 4 0.000000 0.000000 0.000000 0.047585 0.000000 0.000000
# 5 0.000000 0.000000 0.000000 0.000000 0.047585 0.000000
# 6 0.000000 0.000000 0.000000 0.000000 0.000000 0.048574
#
#
# Mechanical properties :
#
#
# Convention : Reuss Voigt Hill
#
# Bulk Modulus (GPa) = 41.53604 81.03544 61.28574
# Shear Modulus (GPa) = 19.65429 22.92627 21.29028
#
# Velocity S-wave (km/s) = 3.37220 3.64209 3.50974
# Velocity P-wave (km/s) = 6.26055 8.03570 7.20302
#
# Compressibility (1/GPa) = 0.02407548
#
# Stress axis : x y z
#
# Youngs Moduli (GPa) = 67.57999 67.58090 29.62353
#
# Poissons Ratio (x) = 0.64130 0.15032
# Poissons Ratio (y) = 0.64129 0.15031
# Poissons Ratio (z) = 0.34293 0.34291
#
# Static dielectric constant tensor:
#      x y z
#    x 1.587470 0.000000 0.000000 
#    y 0.000000 1.587470 0.000000 
#    z 0.000000 0.000000 1.582790 
# 
# From -- ./inp_files/2876.got.cif
#   From: 2010.05.17/outbox.cif.g08.bks.cpg/sg192_2_cif.got.tgz:2876.got - 2010.05.20 12:28:01.
