data_PCOD9588769
_publ_section_title
;
Structure prediction by ZEFSAII (Michael W. Deem and Ramdas Pophale) SiO2 
 PCOD9588769
Probable space group: P 6/M C C
;
_chemical_formula_sum "Si O2"
_cell_formula_units_Z 132
_cell_length_a 18.252924
_cell_length_b 18.252924
_cell_length_c 23.923129
_cell_angle_alpha 90.000000
_cell_angle_beta 90.000000
_cell_angle_gamma 120.000000
_cell_volume 6902.612679
_symmetry_space_group_name_H-M "P 6/M C C"
_symmetry_group_IT_number 192
_symmetry_cell_setting 'hexagonal'
loop_
_space_group_symop_operation_xyz
x,y,z
x-y,x,z
-y,x-y,z
-x,-y,z
-x+y,-x,z
y,-x+y,z
x-y,-y,1/2-z
-x,-x+y,1/2-z
y,x,1/2-z
-y,-x,1/2-z
-x+y,y,1/2-z
x,x-y,1/2-z
-x,-y,-z
-x+y,-x,-z
y,-x+y,-z
x,y,-z
x-y,x,-z
-y,x-y,-z
-x+y,y,1/2+z
x,x-y,1/2+z
-y,-x,1/2+z
y,x,1/2+z
x-y,-y,1/2+z
-x,-x+y,1/2+z
loop_
_atom_site_type_symbol
_atom_site_label
_atom_site_fract_x
_atom_site_fract_y
_atom_site_fract_z
Si Si1 0.098306 0.196611 0.250000
Si Si2 0.981284 0.818626 0.500000
Si Si3 0.920648 0.512162 0.435969
Si Si4 0.868110 0.665309 0.838122
Si Si5 0.266500 0.309511 0.903183
Si Si6 0.422832 0.768954 0.152691
Si Si7 0.237937 0.475874 0.250000
O O1 0.140426 0.140426 0.250000
O O2 0.122301 0.255756 0.196795
O O3 0.904399 0.835754 0.500000
O O4 0.974783 0.764417 0.554094
O O5 0.894330 0.481138 0.500000
O O6 0.954929 0.611682 0.433407
O O7 0.842932 0.470094 0.392157
O O8 0.000000 0.500000 0.420682
O O9 0.793687 0.654487 0.880085
O O10 0.831454 0.586615 0.795180
O O11 0.960908 0.691842 0.861969
O O12 0.323381 0.739509 0.146295
O O13 0.467568 0.791100 0.213821
#
# Coordination Sequence:
#
# PCOD9588769 Si02
#       7
#    12  12  24  24  24  24  12
#     4  11  21  36  55  90 124 174 223 278 329 395
#     4  12  25  42  69 100 136 186 238 294 346 412
#     4  11  26  46  69 105 141 173 230 289 344 423
#     4  11  24  38  65  91 135 176 227 281 337 414
#     4  12  23  43  65  94 134 181 228 283 352 403
#     4  10  24  45  72 101 139 180 228 280 348 421
#     4  11  22  42  69 100 134 178 227 280 342 415
#
# _framework density 19.123193000000001
#
# number of rings (size 3 to 8) (size 9 to 14) (size 15 to 20)
#    0.364    0.545    6.364    0.727    2.545    0.727 
#    0.000    1.818    0.000    0.000    0.000    0.000 
#    0.000    0.000    0.000    0.000    0.000    0.000 
#
# Total GULP energy -735183.832507 kJ/mol
# GULP energy per Si atom -5569.574489 kJ/mol
# Density = 1.907967 g / cm^3
# Si number density = 19.123193 Si / 1000 Ang^3
#
#
#
# Elastic Constant Matrix: (Units=GPa)
#
#
# Indices 1 2 3 4 5 6 
#
# 1 121.3167 56.0564 53.4703 0.0000 0.0000 0.0000
# 2 56.0564 121.3167 53.4703 0.0000 0.0000 0.0000
# 3 53.4703 53.4703 107.0513 0.0000 0.0000 0.0000
# 4 0.0000 0.0000 0.0000 30.2838 0.0000 0.0000
# 5 0.0000 0.0000 0.0000 0.0000 30.2838 0.0000
# 6 0.0000 0.0000 0.0000 0.0000 0.0000 32.6302
#
#
#
# Elastic Compliance Matrix: (Units=1/GPa)
#
#
# Indices 1 2 3 4 5 6 
#
# 1 0.011695 -0.003628 -0.004029 0.000000 0.000000 0.000000
# 2 -0.003628 0.011695 -0.004029 0.000000 0.000000 0.000000
# 3 -0.004029 -0.004029 0.013367 0.000000 0.000000 0.000000
# 4 0.000000 0.000000 0.000000 0.033021 0.000000 0.000000
# 5 0.000000 0.000000 0.000000 0.000000 0.033021 0.000000
# 6 0.000000 0.000000 0.000000 0.000000 0.000000 0.030646
#
#
# Mechanical properties :
#
#
# Convention : Reuss Voigt Hill
#
# Bulk Modulus (GPa) = 74.72009 75.07542 74.89775
# Shear Modulus (GPa) = 31.00191 31.08540 31.04365
#
# Velocity S-wave (km/s) = 4.03074 4.03617 4.03345
# Velocity P-wave (km/s) = 7.79874 7.81440 7.80658
#
# Compressibility (1/GPa) = 0.01338328
#
# Stress axis : x y z
#
# Youngs Moduli (GPa) = 85.50486 85.50486 74.81338
#
# Poissons Ratio (x) = 0.31021 0.30146
# Poissons Ratio (y) = 0.31021 0.30146
# Poissons Ratio (z) = 0.34454 0.34454
#
# Static dielectric constant tensor:
#      x y z
#    x 1.735450 0.000000 0.000000 
#    y 0.000000 1.735450 0.000000 
#    z 0.000000 0.000000 1.705350 
# 
# From -- ./inp_files/5847.got.cif
#   From: 2010.05.17/outbox.cif.g08.bks.cpg/sg192_3_cif.got.tgz:5847.got - 2010.05.20 12:28:01.
