data_PCOD9588878
_publ_section_title
;
Structure prediction by ZEFSAII (Michael W. Deem and Ramdas Pophale) SiO2 
 PCOD9588878
Probable space group: P 63/M C M
;
_chemical_formula_sum "Si O2"
_cell_formula_units_Z 168
_cell_length_a 21.770664
_cell_length_b 21.770664
_cell_length_c 25.913715
_cell_angle_alpha 90.000000
_cell_angle_beta 90.000000
_cell_angle_gamma 120.000000
_cell_volume 10636.620390
_symmetry_space_group_name_H-M "P 63/M C M"
_symmetry_group_IT_number 193
_symmetry_cell_setting 'hexagonal'
loop_
_space_group_symop_operation_xyz
x,y,z
x-y,x,1/2+z
-y,x-y,z
-x,-y,1/2+z
-x+y,-x,z
y,-x+y,1/2+z
x-y,-y,1/2-z
-x,-x+y,1/2-z
y,x,1/2-z
-y,-x,-z
-x+y,y,-z
x,x-y,-z
-x,-y,-z
-x+y,-x,1/2-z
y,-x+y,-z
x,y,1/2-z
x-y,x,-z
-y,x-y,1/2-z
-x+y,y,1/2+z
x,x-y,1/2+z
-y,-x,1/2+z
y,x,z
x-y,-y,z
-x,-x+y,z
loop_
_atom_site_type_symbol
_atom_site_label
_atom_site_fract_x
_atom_site_fract_y
_atom_site_fract_z
Si Si1 0.883534 0.256873 0.496947
Si Si2 0.422333 0.086340 0.808842
Si Si3 0.914394 0.408180 0.458980
Si Si4 0.558414 0.086507 0.843577
Si Si5 0.603577 0.914225 0.694079
Si Si6 0.918515 0.707046 0.891641
Si Si7 0.313476 0.081850 0.611560
O O1 0.801062 0.198938 0.500000
O O2 0.894445 0.331233 0.478414
O O3 0.915989 0.231651 0.451183
O O4 0.914015 0.256642 0.553321
O O5 0.420026 0.108160 0.750000
O O6 0.503058 0.110005 0.824635
O O7 0.379787 0.107186 0.849220
O O8 0.380310 0.000000 0.809962
O O9 0.888256 0.444128 0.500000
O O10 0.891371 0.416190 0.402089
O O11 0.000000 0.452479 0.457837
O O12 0.630716 0.109544 0.812699
O O13 0.513870 0.000000 0.841531
O O14 0.615639 0.890116 0.750000
O O15 0.639514 0.898834 0.645541
O O16 0.644302 0.000000 0.694886
O O17 0.853175 0.721083 0.884830
O O18 0.000000 0.766674 0.879455
O O19 0.258190 0.000000 0.623287
#
# Coordination Sequence:
#
# PCOD9588878 Si02
#       7
#    24  24  24  24  24  24  24
#     4  10  19  31  47  68  97 129 161 199 246 301
#     4   9  17  29  44  66  98 130 157 186 228 284
#     4  10  17  25  42  67  95 124 153 189 230 273
#     4   9  15  24  41  65  93 124 153 182 220 270
#     4   9  16  26  42  65  92 119 148 187 235 284
#     4  10  19  32  49  68  94 127 163 209 259 308
#     4  10  20  32  48  69  95 129 166 205 255 313
#
# _framework density 15.79449
#
# number of rings (size 3 to 8) (size 9 to 14) (size 15 to 20)
#    0.000    2.429    1.429    2.571    0.000    4.571 
#    0.000    0.000    0.000    0.571    0.000    0.000 
#    1.429    3.429    0.857    7.143    0.000    0.000 
#
# Total GULP energy -935239.481984 kJ/mol
# GULP energy per Si atom -5566.901678 kJ/mol
# Density = 1.575854 g / cm^3
# Si number density = 15.794490 Si / 1000 Ang^3
#
#
#
# Elastic Constant Matrix: (Units=GPa)
#
#
# Indices 1 2 3 4 5 6 
#
# 1 61.1996 27.1505 27.3986 0.0000 0.0000 0.0000
# 2 27.1505 61.1996 27.3986 0.0000 0.0000 0.0000
# 3 27.3986 27.3986 109.4909 0.0000 0.0000 0.0000
# 4 0.0000 0.0000 0.0000 -15.6369 0.0000 0.0000
# 5 0.0000 0.0000 0.0000 0.0000 -15.6369 0.0000
# 6 0.0000 0.0000 0.0000 0.0000 0.0000 17.0245
#
#
#
# Elastic Compliance Matrix: (Units=1/GPa)
#
#
# Indices 1 2 3 4 5 6 
#
# 1 0.021384 -0.007986 -0.003353 0.000000 0.000000 0.000000
# 2 -0.007986 0.021384 -0.003353 0.000000 0.000000 0.000000
# 3 -0.003353 -0.003353 0.010811 0.000000 0.000000 0.000000
# 4 0.000000 0.000000 0.000000 -0.063951 0.000000 0.000000
# 5 0.000000 0.000000 0.000000 0.000000 -0.063951 0.000000
# 6 0.000000 0.000000 0.000000 0.000000 0.000000 0.058739
#
#
# Mechanical properties :
#
#
# Convention : Reuss Voigt Hill
#
# Bulk Modulus (GPa) = 41.32833 43.97615 42.65224
# Shear Modulus (GPa) = 228.70864 7.14632 117.92748
#
# Velocity S-wave (km/s) = 12.04646 2.12941 8.65019
# Velocity P-wave (km/s) = 14.82271 5.82658 11.26192
#
# Compressibility (1/GPa) = 0.02419647
#
# Stress axis : x y z
#
# Youngs Moduli (GPa) = 46.76459 46.76459 92.49748
#
# Poissons Ratio (x) = 0.37345 0.31011
# Poissons Ratio (y) = 0.37345 0.31011
# Poissons Ratio (z) = 0.15679 0.15679
#
# Static dielectric constant tensor:
#      x y z
#    x 1.520100 0.000000 0.000000 
#    y 0.000000 1.520100 0.000000 
#    z 0.000000 0.000000 1.571110 
# 
# From -- ./inp_files/8498.got.cif
#   From: 2010.05.17/outbox.cif.g08.bks.cpg/sg193_5_cif.got.tgz:8498.got - 2010.05.20 12:33:02.
