data_PCOD9588234
_publ_section_title
;
Structure prediction by ZEFSAII (Michael W. Deem and Ramdas Pophale) SiO2 
 PCOD9588234
Probable space group: P 6/M M M
;
_chemical_formula_sum "Si O2"
_cell_formula_units_Z 60
_cell_length_a 22.092450
_cell_length_b 22.092450
_cell_length_c 7.304633
_cell_angle_alpha 90.000000
_cell_angle_beta 90.000000
_cell_angle_gamma 120.000000
_cell_volume 3087.569870
_symmetry_space_group_name_H-M "P 6/M M M"
_symmetry_group_IT_number 191
_symmetry_cell_setting 'hexagonal'
loop_
_space_group_symop_operation_xyz
x,y,z
x-y,x,z
-y,x-y,z
-x,-y,z
-x+y,-x,z
y,-x+y,z
x-y,-y,-z
-x,-x+y,-z
y,x,-z
-y,-x,-z
-x+y,y,-z
x,x-y,-z
-x,-y,-z
-x+y,-x,-z
y,-x+y,-z
x,y,-z
x-y,x,-z
-y,x-y,-z
-x+y,y,z
x,x-y,z
-y,-x,z
y,x,z
x-y,-y,z
-x,-x+y,z
loop_
_atom_site_type_symbol
_atom_site_label
_atom_site_fract_x
_atom_site_fract_y
_atom_site_fract_z
Si Si1 0.710217 0.786877 0.722102
Si Si2 0.354243 0.433626 0.281112
Si Si3 0.470632 0.806464 0.000000
O O1 0.712750 0.789762 0.500000
O O2 0.716387 0.858194 0.788526
O O3 0.769156 0.769156 0.783296
O O4 0.635600 0.719573 0.765740
O O5 0.357043 0.443946 0.500000
O O6 0.413985 0.413985 0.233728
O O7 0.354258 0.495706 0.172166
O O8 0.388159 0.776318 0.000000
O O9 0.488111 0.744056 0.000000
#
# Coordination Sequence:
#
# PCOD9588234 Si02
#       3
#    24  24  12
#     4   8  13  23  42  68  97 129 166 209 258 311
#     4   9  19  37  61  86 108 134 176 234 294 337
#     4  12  26  41  57  79 112 153 189 219 259 324
#
# _framework density 19.432759000000001
#
# number of rings (size 3 to 8) (size 9 to 14) (size 15 to 20)
#    0.000    2.800    0.000    4.400    0.000    4.800 
#    0.000    2.000    0.000    2.800    0.000    2.800 
#    0.000    0.000    0.000    0.000    0.000   41.600 
#
# Total GULP energy -334877.256052 kJ/mol
# GULP energy per Si atom -5581.287601 kJ/mol
# Density = 1.938853 g / cm^3
# Si number density = 19.432759 Si / 1000 Ang^3
#
#
#
# Elastic Constant Matrix: (Units=GPa)
#
#
# Indices 1 2 3 4 5 6 
#
# 1 91.4058 40.7789 26.5369 0.0000 0.0000 0.0000
# 2 40.7789 91.4058 26.5369 0.0000 0.0000 0.0000
# 3 26.5369 26.5369 86.6829 0.0000 0.0000 0.0000
# 4 0.0000 0.0000 0.0000 12.6086 0.0000 0.0000
# 5 0.0000 0.0000 0.0000 0.0000 12.6086 0.0000
# 6 0.0000 0.0000 0.0000 0.0000 0.0000 25.3134
#
#
#
# Elastic Compliance Matrix: (Units=1/GPa)
#
#
# Indices 1 2 3 4 5 6 
#
# 1 0.014189 -0.005563 -0.002641 0.000000 0.000000 0.000000
# 2 -0.005563 0.014189 -0.002641 0.000000 0.000000 0.000000
# 3 -0.002641 -0.002641 0.013153 0.000000 0.000000 0.000000
# 4 0.000000 0.000000 0.000000 0.079311 0.000000 0.000000
# 5 0.000000 0.000000 0.000000 0.000000 0.079311 0.000000
# 6 0.000000 0.000000 0.000000 0.000000 0.000000 0.039505
#
#
# Mechanical properties :
#
#
# Convention : Reuss Voigt Hill
#
# Bulk Modulus (GPa) = 50.39918 50.80001 50.59960
# Shear Modulus (GPa) = 18.65949 21.81559 20.23754
#
# Velocity S-wave (km/s) = 3.10208 3.35419 3.23059
# Velocity P-wave (km/s) = 6.23073 6.41864 6.32538
#
# Compressibility (1/GPa) = 0.01984159
#
# Stress axis : x y z
#
# Youngs Moduli (GPa) = 70.47778 70.47778 76.02798
#
# Poissons Ratio (x) = 0.39210 0.20076
# Poissons Ratio (y) = 0.39210 0.20076
# Poissons Ratio (z) = 0.18610 0.18610
#
# Static dielectric constant tensor:
#      x y z
#    x 1.662350 0.000000 0.000000 
#    y 0.000000 1.662350 0.000000 
#    z 0.000000 0.000000 1.729490 
# 
# From -- ./inp_files/564.got.cif
#   From: 2010.05.17/outbox.cif.g08.bks.cpg/sg191_1_cif.got.tgz:564.got - 2010.05.20 12:20:32.
