data_PCOD9588810
_publ_section_title
;
Structure prediction by ZEFSAII (Michael W. Deem and Ramdas Pophale) SiO2 
 PCOD9588810
Probable space group: P 6/M C C
;
_chemical_formula_sum "Si O2"
_cell_formula_units_Z 168
_cell_length_a 22.196474
_cell_length_b 22.196474
_cell_length_c 21.098570
_cell_angle_alpha 90.000000
_cell_angle_beta 90.000000
_cell_angle_gamma 120.000000
_cell_volume 9002.261696
_symmetry_space_group_name_H-M "P 6/M C C"
_symmetry_group_IT_number 192
_symmetry_cell_setting 'hexagonal'
loop_
_space_group_symop_operation_xyz
x,y,z
x-y,x,z
-y,x-y,z
-x,-y,z
-x+y,-x,z
y,-x+y,z
x-y,-y,1/2-z
-x,-x+y,1/2-z
y,x,1/2-z
-y,-x,1/2-z
-x+y,y,1/2-z
x,x-y,1/2-z
-x,-y,-z
-x+y,-x,-z
y,-x+y,-z
x,y,-z
x-y,x,-z
-y,x-y,-z
-x+y,y,1/2+z
x,x-y,1/2+z
-y,-x,1/2+z
y,x,1/2+z
x-y,-y,1/2+z
-x,-x+y,1/2+z
loop_
_atom_site_type_symbol
_atom_site_label
_atom_site_fract_x
_atom_site_fract_y
_atom_site_fract_z
Si Si1 0.535075 0.188306 0.885447
Si Si2 0.594082 0.921442 0.354314
Si Si3 0.856565 0.985263 0.173273
Si Si4 0.794259 0.321990 0.574154
Si Si5 0.279639 0.854627 0.278598
Si Si6 0.582056 0.550665 0.931651
Si Si7 0.716366 0.977474 0.823654
O O1 0.614682 0.205441 0.887593
O O2 0.530989 0.251686 0.917927
O O3 0.496060 0.176914 0.818247
O O4 0.491550 0.113478 0.919520
O O5 0.544400 0.856447 0.398150
O O6 0.573340 0.897736 0.281992
O O7 0.587750 0.987406 0.374817
O O8 0.677082 0.955985 0.358808
O O9 0.920934 0.056923 0.150753
O O10 0.864721 0.000000 0.250000
O O11 0.779845 0.968337 0.155540
O O12 0.806619 0.341657 0.500000
O O13 0.207368 0.792633 0.250000
O O14 0.265670 0.906842 0.322274
O O15 0.500000 0.500000 0.936140
O O16 0.605761 0.588083 0.000000
O O17 0.728795 0.000000 0.750000
#
# Coordination Sequence:
#
# PCOD9588810 Si02
#       7
#    24  24  24  24  24  24  24
#     4  12  25  44  66  93 123 163 213 265 321 387
#     4  11  22  39  60  92 122 160 203 258 313 378
#     4   9  17  27  45  74 111 157 203 248 290 343
#     4  12  25  43  66  91 121 162 211 262 322 383
#     4  11  23  41  61  88 128 164 205 256 312 383
#     4  11  22  41  66  92 120 157 209 260 313 373
#     4   9  20  33  55  80 114 156 203 243 301 367
#
# _framework density 18.661975999999999
#
# number of rings (size 3 to 8) (size 9 to 14) (size 15 to 20)
#    0.000    1.286    4.286    2.143    6.000    1.143 
#    0.000    0.714    0.000    0.000    0.000    0.000 
#    0.000    0.000    0.000    0.857    0.000   10.571 
#
# Total GULP energy -936421.441095 kJ/mol
# GULP energy per Si atom -5573.937149 kJ/mol
# Density = 1.861950 g / cm^3
# Si number density = 18.661976 Si / 1000 Ang^3
#
#
#
# Elastic Constant Matrix: (Units=GPa)
#
#
# Indices 1 2 3 4 5 6 
#
# 1 123.9739 72.1452 38.3095 0.0000 0.0000 0.0000
# 2 72.1452 123.9739 38.3095 0.0000 0.0000 0.0000
# 3 38.3095 38.3095 50.4787 0.0000 0.0000 0.0000
# 4 0.0000 0.0000 0.0000 -47.3501 0.0000 0.0000
# 5 0.0000 0.0000 0.0000 0.0000 -47.3501 0.0000
# 6 0.0000 0.0000 0.0000 0.0000 0.0000 25.9143
#
#
#
# Elastic Compliance Matrix: (Units=1/GPa)
#
#
# Indices 1 2 3 4 5 6 
#
# 1 0.013271 -0.006023 -0.005501 0.000000 0.000000 0.000000
# 2 -0.006023 0.013271 -0.005501 0.000000 0.000000 0.000000
# 3 -0.005501 -0.005501 0.028159 0.000000 0.000000 0.000000
# 4 0.000000 0.000000 0.000000 -0.021119 0.000000 0.000000
# 5 0.000000 0.000000 0.000000 0.000000 -0.021119 0.000000
# 6 0.000000 0.000000 0.000000 0.000000 0.000000 0.038589
#
#
# Mechanical properties :
#
#
# Convention : Reuss Voigt Hill
#
# Bulk Modulus (GPa) = 48.41957 66.21718 57.31838
# Shear Modulus (GPa) = 54.35676 -3.77968 25.28854
#
# Velocity S-wave (km/s) = 5.40280 -1.42469 3.68514
# Velocity P-wave (km/s) = 8.05743 5.73176 6.99197
#
# Compressibility (1/GPa) = 0.02065281
#
# Stress axis : x y z
#
# Youngs Moduli (GPa) = 75.35157 75.35157 35.51212
#
# Poissons Ratio (x) = 0.45386 0.19534
# Poissons Ratio (y) = 0.45386 0.19534
# Poissons Ratio (z) = 0.41448 0.41448
#
# Static dielectric constant tensor:
#      x y z
#    x 1.675000 0.000000 0.000000 
#    y 0.000000 1.675000 0.000000 
#    z 0.000000 0.000000 1.669580 
# 
# From -- ./inp_files/6061.got.cif
#   From: 2010.05.17/outbox.cif.g08.bks.cpg/sg192_4_cif.got.tgz:6061.got - 2010.05.20 12:28:01.
