data_PCOD9588142
_publ_section_title
;
Structure prediction by ZEFSAII (Michael W. Deem and Ramdas Pophale) SiO2 
 PCOD9588142
Probable space group: P 6/M M M
;
_chemical_formula_sum "Si O2"
_cell_formula_units_Z 120
_cell_length_a 27.267037
_cell_length_b 27.267037
_cell_length_c 12.756375
_cell_angle_alpha 90.000000
_cell_angle_beta 90.000000
_cell_angle_gamma 120.000000
_cell_volume 8213.604829
_symmetry_space_group_name_H-M "P 6/M M M"
_symmetry_group_IT_number 191
_symmetry_cell_setting 'hexagonal'
loop_
_space_group_symop_operation_xyz
x,y,z
x-y,x,z
-y,x-y,z
-x,-y,z
-x+y,-x,z
y,-x+y,z
x-y,-y,-z
-x,-x+y,-z
y,x,-z
-y,-x,-z
-x+y,y,-z
x,x-y,-z
-x,-y,-z
-x+y,-x,-z
y,-x+y,-z
x,y,-z
x-y,x,-z
-y,x-y,-z
-x+y,y,z
x,x-y,z
-y,-x,z
y,x,z
x-y,-y,z
-x,-x+y,z
loop_
_atom_site_type_symbol
_atom_site_label
_atom_site_fract_x
_atom_site_fract_y
_atom_site_fract_z
Si Si1 0.661600 0.520309 0.307380
Si Si2 0.933192 0.466596 0.374215
Si Si3 0.353514 0.287710 0.626188
Si Si4 0.551026 0.217579 0.876342
Si Si5 0.550347 0.331900 0.500000
Si Si6 0.936172 0.174673 0.372563
O O1 0.595768 0.500145 0.326078
O O2 0.697100 0.587547 0.321825
O O3 0.670237 0.497975 0.197173
O O4 0.675290 0.487743 0.398470
O O5 0.923386 0.461693 0.500000
O O6 0.000000 0.500000 0.356926
O O7 0.361269 0.289346 0.500000
O O8 0.332671 0.332671 0.650531
O O9 0.301155 0.226018 0.654024
O O10 0.609210 0.218419 0.849880
O O11 0.558501 0.279251 0.858032
O O12 0.539885 0.204882 0.000000
O O13 0.606144 0.393857 0.500000
O O14 0.567172 0.283586 0.500000
O O15 0.936594 0.173108 0.500000
O O16 0.885588 0.114413 0.335741
O O17 0.000000 0.193720 0.337768
#
# Coordination Sequence:
#
# PCOD9588142 Si02
#       6
#    24  12  24  24  12  24
#     4  12  19  33  48  70  94 114 154 191 233 283
#     4  11  20  32  51  71  97 127 154 183 227 295
#     4   9  17  29  45  67  95 123 150 181 220 276
#     4  10  21  37  55  69  86 116 156 200 240 284
#     4  12  23  34  44  64  94 124 145 184 239 297
#     4   8  14  24  38  57  84 117 152 185 222 262
#
# _framework density 14.609906000000001
#
# number of rings (size 3 to 8) (size 9 to 14) (size 15 to 20)
#    0.000    1.900    4.000    2.700    0.000    4.000 
#    0.000    2.000    0.000    3.200    0.000    1.400 
#    0.000    0.000    0.000    0.000    0.000    0.000 
#
# Total GULP energy -669270.305889 kJ/mol
# GULP energy per Si atom -5577.252549 kJ/mol
# Density = 1.457665 g / cm^3
# Si number density = 14.609906 Si / 1000 Ang^3
#
#
#
# Elastic Constant Matrix: (Units=GPa)
#
#
# Indices 1 2 3 4 5 6 
#
# 1 115.4527 63.6860 32.7081 0.0000 0.0000 0.0000
# 2 63.6860 115.4527 32.7081 0.0000 0.0000 0.0000
# 3 32.7081 32.7081 35.7964 0.0000 0.0000 0.0000
# 4 0.0000 0.0000 0.0000 12.0130 0.0000 0.0000
# 5 0.0000 0.0000 0.0000 0.0000 12.0130 0.0000
# 6 0.0000 0.0000 0.0000 0.0000 0.0000 25.8834
#
#
#
# Elastic Compliance Matrix: (Units=1/GPa)
#
#
# Indices 1 2 3 4 5 6 
#
# 1 0.013848 -0.005470 -0.007655 0.000000 0.000000 0.000000
# 2 -0.005470 0.013848 -0.007655 0.000000 0.000000 0.000000
# 3 -0.007655 -0.007655 0.041925 0.000000 0.000000 0.000000
# 4 0.000000 0.000000 0.000000 0.083243 0.000000 0.000000
# 5 0.000000 0.000000 0.000000 0.000000 0.083243 0.000000
# 6 0.000000 0.000000 0.000000 0.000000 0.000000 0.038635
#
#
# Mechanical properties :
#
#
# Convention : Reuss Voigt Hill
#
# Bulk Modulus (GPa) = 35.63732 58.32291 46.98011
# Shear Modulus (GPa) = 15.35378 19.15520 17.25449
#
# Velocity S-wave (km/s) = 3.24530 3.62485 3.44032
# Velocity P-wave (km/s) = 6.20388 7.58460 6.92872
#
# Compressibility (1/GPa) = 0.02806047
#
# Stress axis : x y z
#
# Youngs Moduli (GPa) = 72.21519 72.21519 23.85240
#
# Poissons Ratio (x) = 0.39501 0.18259
# Poissons Ratio (y) = 0.39501 0.18259
# Poissons Ratio (z) = 0.55279 0.55279
#
# Static dielectric constant tensor:
#      x y z
#    x 1.484790 0.000000 0.000000 
#    y 0.000000 1.484790 0.000000 
#    z 0.000000 0.000000 1.459440 
# 
# From -- ./inp_files/3258.got.cif
#   From: 2010.05.17/outbox.cif.g08.bks.cpg/sg191_2_cif.got.tgz:3258.got - 2010.05.20 12:20:32.
