data_PCOD9588052
_publ_section_title
;
Structure prediction by ZEFSAII (Michael W. Deem and Ramdas Pophale) SiO2 
 PCOD9588052
Probable space group: P 6/M M M
;
_chemical_formula_sum "Si O2"
_cell_formula_units_Z 144
_cell_length_a 21.915818
_cell_length_b 21.915818
_cell_length_c 19.897828
_cell_angle_alpha 90.000000
_cell_angle_beta 90.000000
_cell_angle_gamma 120.000000
_cell_volume 8276.594432
_symmetry_space_group_name_H-M "P 6/M M M"
_symmetry_group_IT_number 191
_symmetry_cell_setting 'hexagonal'
loop_
_space_group_symop_operation_xyz
x,y,z
x-y,x,z
-y,x-y,z
-x,-y,z
-x+y,-x,z
y,-x+y,z
x-y,-y,-z
-x,-x+y,-z
y,x,-z
-y,-x,-z
-x+y,y,-z
x,x-y,-z
-x,-y,-z
-x+y,-x,-z
y,-x+y,-z
x,y,-z
x-y,x,-z
-y,x-y,-z
-x+y,y,z
x,x-y,z
-y,-x,z
y,x,z
x-y,-y,z
-x,-x+y,z
loop_
_atom_site_type_symbol
_atom_site_label
_atom_site_fract_x
_atom_site_fract_y
_atom_site_fract_z
Si Si1 0.674034 0.591505 0.419089
Si Si2 0.592507 0.676160 0.923686
Si Si3 0.521851 0.187896 0.675295
Si Si4 0.837785 0.918893 0.082137
Si Si5 0.467464 0.079471 0.212451
Si Si6 0.676953 0.838477 0.418392
Si Si7 0.161155 0.322311 0.081258
Si Si8 0.838096 0.919048 0.582061
O O1 0.671244 0.586485 0.500000
O O2 0.628683 0.628683 0.399242
O O3 0.649531 0.516257 0.385785
O O4 0.756498 0.638157 0.398644
O O5 0.645973 0.645973 0.926512
O O6 0.537712 0.633079 0.865517
O O7 0.635008 0.757055 0.901368
O O8 0.564839 0.670823 0.000000
O O9 0.602080 0.204159 0.681932
O O10 0.519401 0.259701 0.667310
O O11 0.476366 0.141820 0.739412
O O12 0.878601 0.878601 0.103051
O O13 0.757462 0.878731 0.106354
O O14 0.836796 0.918398 0.000000
O O15 0.538149 0.076298 0.223534
O O16 0.403226 0.000000 0.226764
O O17 0.677422 0.838711 0.500000
O O18 0.757483 0.878742 0.395408
O O19 0.158849 0.317698 0.000000
O O20 0.878749 0.878749 0.603413
O O21 0.837517 0.918759 0.500000
#
# Coordination Sequence:
#
# PCOD9588052 Si02
#       8
#    24  24  24  12  24  12  12  12
#     4  10  20  35  57  83 110 141 177 218 265 317
#     4   9  17  29  47  73 102 132 168 209 257 312
#     4  11  23  39  58  79 106 140 178 219 264 317
#     4   9  15  22  33  51  81 125 174 216 252 294
#     4   9  19  35  54  77 104 134 169 211 258 309
#     4   9  16  29  47  72 105 139 176 216 259 307
#     4   9  16  25  39  62  95 131 164 204 254 303
#     4   9  15  22  35  59  95 139 182 220 258 303
#
# _framework density 17.398461000000001
#
# number of rings (size 3 to 8) (size 9 to 14) (size 15 to 20)
#    0.000    2.500    0.833    1.833    1.167    6.333 
#    0.000    2.500    0.000    1.000    0.000    0.000 
#    0.000    0.000    0.000    0.000    0.000   15.833 
#
# Total GULP energy -801983.674789 kJ/mol
# GULP energy per Si atom -5569.331075 kJ/mol
# Density = 1.735886 g / cm^3
# Si number density = 17.398461 Si / 1000 Ang^3
#
#
#
# Elastic Constant Matrix: (Units=GPa)
#
#
# Indices 1 2 3 4 5 6 
#
# 1 62.0032 31.9859 20.6238 0.0000 0.0000 0.0000
# 2 31.9859 62.0032 20.6238 0.0000 0.0000 0.0000
# 3 20.6238 20.6238 44.0672 0.0000 0.0000 0.0000
# 4 0.0000 0.0000 0.0000 16.5511 0.0000 0.0000
# 5 0.0000 0.0000 0.0000 0.0000 16.5511 0.0000
# 6 0.0000 0.0000 0.0000 0.0000 0.0000 15.0087
#
#
#
# Elastic Compliance Matrix: (Units=1/GPa)
#
#
# Indices 1 2 3 4 5 6 
#
# 1 0.023352 -0.009962 -0.006266 0.000000 0.000000 0.000000
# 2 -0.009962 0.023352 -0.006266 0.000000 0.000000 0.000000
# 3 -0.006266 -0.006266 0.028558 0.000000 0.000000 0.000000
# 4 0.000000 0.000000 0.000000 0.060419 0.000000 0.000000
# 5 0.000000 0.000000 0.000000 0.000000 0.060419 0.000000
# 6 0.000000 0.000000 0.000000 0.000000 0.000000 0.066628
#
#
# Mechanical properties :
#
#
# Convention : Reuss Voigt Hill
#
# Bulk Modulus (GPa) = 33.03433 34.94897 33.99165
# Shear Modulus (GPa) = 15.73274 15.94486 15.83880
#
# Velocity S-wave (km/s) = 3.01036 3.03058 3.02048
# Velocity P-wave (km/s) = 5.57774 5.69007 5.63418
#
# Compressibility (1/GPa) = 0.03027154
#
# Stress axis : x y z
#
# Youngs Moduli (GPa) = 42.82316 42.82316 35.01631
#
# Poissons Ratio (x) = 0.42662 0.21943
# Poissons Ratio (y) = 0.42662 0.21943
# Poissons Ratio (z) = 0.26835 0.26835
#
# Static dielectric constant tensor:
#      x y z
#    x 1.596640 0.000000 0.000000 
#    y 0.000000 1.596640 0.000000 
#    z 0.000000 0.000000 1.600350 
# 
# From -- ./inp_files/7699.got.cif
#   From: 2010.05.17/outbox.cif.g08.bks.cpg/sg191_4_cif.got.tgz:7699.got - 2010.05.20 12:20:32.
