data_PCOD9588399
_publ_section_title
;
Structure prediction by ZEFSAII (Michael W. Deem and Ramdas Pophale) SiO2 
 PCOD9588399
Probable space group: P 6/M C C
;
_chemical_formula_sum "Si O2"
_cell_formula_units_Z 104
_cell_length_a 18.583720
_cell_length_b 18.583720
_cell_length_c 19.492970
_cell_angle_alpha 90.000000
_cell_angle_beta 90.000000
_cell_angle_gamma 120.000000
_cell_volume 5830.072464
_symmetry_space_group_name_H-M "P 6/M C C"
_symmetry_group_IT_number 192
_symmetry_cell_setting 'hexagonal'
loop_
_space_group_symop_operation_xyz
x,y,z
x-y,x,z
-y,x-y,z
-x,-y,z
-x+y,-x,z
y,-x+y,z
x-y,-y,1/2-z
-x,-x+y,1/2-z
y,x,1/2-z
-y,-x,1/2-z
-x+y,y,1/2-z
x,x-y,1/2-z
-x,-y,-z
-x+y,-x,-z
y,-x+y,-z
x,y,-z
x-y,x,-z
-y,x-y,-z
-x+y,y,1/2+z
x,x-y,1/2+z
-y,-x,1/2+z
y,x,1/2+z
x-y,-y,1/2+z
-x,-x+y,1/2+z
loop_
_atom_site_type_symbol
_atom_site_label
_atom_site_fract_x
_atom_site_fract_y
_atom_site_fract_z
Si Si1 0.333334 0.666668 0.582906
Si Si2 0.500000 0.500000 0.645467
Si Si3 0.904038 0.808630 0.166826
Si Si4 0.850820 0.624226 0.680117
Si Si5 0.486967 0.650169 0.418344
Si Si6 0.000000 0.619839 0.250000
O O1 0.333334 0.666668 0.500000
O O2 0.239526 0.602088 0.603780
O O3 0.503891 0.428536 0.602880
O O4 0.581916 0.545613 0.694039
O O5 0.854848 0.855333 0.142676
O O6 0.907045 0.814090 0.250000
O O7 0.850833 0.710067 0.153440
O O8 0.797587 0.595174 0.750000
O O9 0.824848 0.555826 0.621754
O O10 0.939245 0.640572 0.708098
O O11 0.495943 0.661837 0.500000
#
# Coordination Sequence:
#
# PCOD9588399 Si02
#       6
#     8  12  24  24  24  12
#     4   9  21  39  55  77 112 141 175 224 271 321
#     4   9  19  34  58  74 105 137 182 228 279 331
#     4   9  16  28  48  77 110 146 181 222 269 325
#     4  10  19  31  53  79 111 143 180 225 278 325
#     4  10  21  38  57  80 107 145 187 228 275 332
#     4   9  18  32  48  76 107 138 174 228 277 328
#
# _framework density 17.838543999999999
#
# number of rings (size 3 to 8) (size 9 to 14) (size 15 to 20)
#    0.000    2.538    0.000    3.346    3.231    0.923 
#    0.000    0.000    0.000    0.000    0.000    0.000 
#    0.000    1.846    0.000    0.000    0.000    0.000 
#
# Total GULP energy -579207.589245 kJ/mol
# GULP energy per Si atom -5569.303743 kJ/mol
# Density = 1.779794 g / cm^3
# Si number density = 17.838544 Si / 1000 Ang^3
#
#
#
# Elastic Constant Matrix: (Units=GPa)
#
#
# Indices 1 2 3 4 5 6 
#
# 1 84.7936 36.6885 29.0030 0.0001 -0.0001 0.0003
# 2 36.6885 84.7954 29.0036 0.0000 0.0000 0.0000
# 3 29.0030 29.0036 56.5338 0.0001 -0.0001 0.0002
# 4 0.0001 0.0000 0.0001 20.3892 0.0000 0.0000
# 5 -0.0001 0.0000 -0.0001 0.0000 20.3890 0.0000
# 6 0.0003 0.0000 0.0002 0.0000 0.0000 24.0526
#
#
#
# Elastic Compliance Matrix: (Units=1/GPa)
#
#
# Indices 1 2 3 4 5 6 
#
# 1 0.015845 -0.004943 -0.005593 0.000000 0.000000 0.000000
# 2 -0.004943 0.015845 -0.005593 0.000000 0.000000 0.000000
# 3 -0.005593 -0.005593 0.023427 0.000000 0.000000 0.000000
# 4 0.000000 0.000000 0.000000 0.049046 0.000000 0.000000
# 5 0.000000 0.000000 0.000000 0.000000 0.049046 0.000000
# 6 0.000000 0.000000 0.000000 0.000000 0.000000 0.041575
#
#
# Mechanical properties :
#
#
# Convention : Reuss Voigt Hill
#
# Bulk Modulus (GPa) = 43.74581 46.16813 44.95697
# Shear Modulus (GPa) = 21.30724 21.72799 21.51762
#
# Velocity S-wave (km/s) = 3.45983 3.49382 3.47687
# Velocity P-wave (km/s) = 6.36687 6.49716 6.43234
#
# Compressibility (1/GPa) = 0.02285933
#
# Stress axis : x y z
#
# Youngs Moduli (GPa) = 63.11143 63.11253 42.68503
#
# Poissons Ratio (x) = 0.31194 0.23874
# Poissons Ratio (y) = 0.31193 0.23875
# Poissons Ratio (z) = 0.35299 0.35300
#
# Static dielectric constant tensor:
#      x y z
#    x 1.663130 0.000000 0.000000 
#    y 0.000000 1.663130 0.000000 
#    z 0.000000 0.000000 1.591300 
# 
# From -- ./inp_files/4901.got.cif
#   From: 2010.05.17/outbox.cif.g08.bks.cpg/sg192_3_cif.got.tgz:4901.got - 2010.05.20 12:28:01.
