data_PCOD9588748
_publ_section_title
;
Structure prediction by ZEFSAII (Michael W. Deem and Ramdas Pophale) SiO2 
 PCOD9588748
Probable space group: P 6/M C C
;
_chemical_formula_sum "Si O2"
_cell_formula_units_Z 60
_cell_length_a 17.223977
_cell_length_b 17.223977
_cell_length_c 10.219330
_cell_angle_alpha 90.000000
_cell_angle_beta 90.000000
_cell_angle_gamma 120.000000
_cell_volume 2625.547798
_symmetry_space_group_name_H-M "P 6/M C C"
_symmetry_group_IT_number 192
_symmetry_cell_setting 'hexagonal'
loop_
_space_group_symop_operation_xyz
x,y,z
x-y,x,z
-y,x-y,z
-x,-y,z
-x+y,-x,z
y,-x+y,z
x-y,-y,1/2-z
-x,-x+y,1/2-z
y,x,1/2-z
-y,-x,1/2-z
-x+y,y,1/2-z
x,x-y,1/2-z
-x,-y,-z
-x+y,-x,-z
y,-x+y,-z
x,y,-z
x-y,x,-z
-y,x-y,-z
-x+y,y,1/2+z
x,x-y,1/2+z
-y,-x,1/2+z
y,x,1/2+z
x-y,-y,1/2+z
-x,-x+y,1/2+z
loop_
_atom_site_type_symbol
_atom_site_label
_atom_site_fract_x
_atom_site_fract_y
_atom_site_fract_z
Si Si1 0.670617 0.835309 0.750000
Si Si2 0.365659 0.923463 0.646432
Si Si3 0.864126 0.075273 0.000000
Si Si4 0.594954 0.217598 0.000000
O O1 0.610418 0.737451 0.688995
O O2 0.730015 0.830334 0.868020
O O3 0.374590 0.963841 0.500000
O O4 0.393423 0.848158 0.619889
O O5 0.419309 0.000000 0.750000
O O6 0.971408 0.137498 0.000000
O O7 0.701982 0.273069 0.000000
#
# Coordination Sequence:
#
# PCOD9588748 Si02
#       4
#    12  24  12  12
#     4  12  24  40  65 106 150 196 261 336 414 474
#     4  10  22  41  76 118 153 205 269 333 397 487
#     4  12  24  40  62  93 143 202 264 330 404 492
#     4   8  19  46  82 115 156 208 265 321 409 480
#
# _framework density 22.852374000000001
#
# number of rings (size 3 to 8) (size 9 to 14) (size 15 to 20)
#    1.600    0.000    2.000    3.800    2.800    0.000 
#    0.000    4.000    0.000   19.200    0.000    0.000 
#    0.000    0.000    0.000    0.000    0.000    0.000 
#
# Total GULP energy -335542.879922 kJ/mol
# GULP energy per Si atom -5592.381332 kJ/mol
# Density = 2.280036 g / cm^3
# Si number density = 22.852374 Si / 1000 Ang^3
#
#
#
# Elastic Constant Matrix: (Units=GPa)
#
#
# Indices 1 2 3 4 5 6 
#
# 1 99.1627 28.3599 62.8155 0.0000 0.0000 0.0000
# 2 28.3599 99.1627 62.8155 0.0000 0.0000 0.0000
# 3 62.8155 62.8155 211.4232 0.0000 0.0000 0.0000
# 4 0.0000 0.0000 0.0000 25.2005 0.0000 0.0000
# 5 0.0000 0.0000 0.0000 0.0000 25.2005 0.0000
# 6 0.0000 0.0000 0.0000 0.0000 0.0000 35.4014
#
#
#
# Elastic Compliance Matrix: (Units=1/GPa)
#
#
# Indices 1 2 3 4 5 6 
#
# 1 0.012605 -0.001518 -0.003294 0.000000 0.000000 0.000000
# 2 -0.001518 0.012605 -0.003294 0.000000 0.000000 0.000000
# 3 -0.003294 -0.003294 0.006687 0.000000 0.000000 0.000000
# 4 0.000000 0.000000 0.000000 0.039682 0.000000 0.000000
# 5 0.000000 0.000000 0.000000 0.000000 0.039682 0.000000
# 6 0.000000 0.000000 0.000000 0.000000 0.000000 0.028248
#
#
# Mechanical properties :
#
#
# Convention : Reuss Voigt Hill
#
# Bulk Modulus (GPa) = 63.75532 79.74780 71.75156
# Shear Modulus (GPa) = 31.06552 34.21097 32.63824
#
# Velocity S-wave (km/s) = 3.69100 3.87336 3.78328
# Velocity P-wave (km/s) = 6.79147 7.41462 7.10987
#
# Compressibility (1/GPa) = 0.01568496
#
# Stress axis : x y z
#
# Youngs Moduli (GPa) = 79.33161 79.33161 149.53954
#
# Poissons Ratio (x) = 0.12046 0.49258
# Poissons Ratio (y) = 0.12046 0.49258
# Poissons Ratio (z) = 0.26132 0.26132
#
# Static dielectric constant tensor:
#      x y z
#    x 1.832680 0.000000 0.000000 
#    y 0.000000 1.832680 0.000000 
#    z 0.000000 0.000000 1.842890 
# 
# From -- ./inp_files/472.got.cif
#   From: 2010.05.17/outbox.cif.g08.bks.cpg/sg192_1_cif.got.tgz:472.got - 2010.05.20 12:28:01.
