data_PCOD9588634
_publ_section_title
;
Structure prediction by ZEFSAII (Michael W. Deem and Ramdas Pophale) SiO2 
 PCOD9588634
Probable space group: P 6/M C C
;
_chemical_formula_sum "Si O2"
_cell_formula_units_Z 144
_cell_length_a 18.456628
_cell_length_b 18.456628
_cell_length_c 28.488484
_cell_angle_alpha 90.000000
_cell_angle_beta 90.000000
_cell_angle_gamma 120.000000
_cell_volume 8404.360805
_symmetry_space_group_name_H-M "P 6/M C C"
_symmetry_group_IT_number 192
_symmetry_cell_setting 'hexagonal'
loop_
_space_group_symop_operation_xyz
x,y,z
x-y,x,z
-y,x-y,z
-x,-y,z
-x+y,-x,z
y,-x+y,z
x-y,-y,1/2-z
-x,-x+y,1/2-z
y,x,1/2-z
-y,-x,1/2-z
-x+y,y,1/2-z
x,x-y,1/2-z
-x,-y,-z
-x+y,-x,-z
y,-x+y,-z
x,y,-z
x-y,x,-z
-y,x-y,-z
-x+y,y,1/2+z
x,x-y,1/2+z
-y,-x,1/2+z
y,x,1/2+z
x-y,-y,1/2+z
-x,-x+y,1/2+z
loop_
_atom_site_type_symbol
_atom_site_label
_atom_site_fract_x
_atom_site_fract_y
_atom_site_fract_z
Si Si1 0.315602 0.315602 0.444008
Si Si2 0.495993 0.332810 0.805628
Si Si3 0.368017 0.184008 0.056876
Si Si4 0.332810 0.836817 0.694372
Si Si5 0.560873 0.280437 0.057001
Si Si6 1.000000 0.585979 0.638585
O O1 0.327012 0.327012 0.500000
O O2 0.233451 0.319982 0.430402
O O3 0.319982 0.233451 0.430402
O O4 0.389614 0.389614 0.415008
O O5 0.479698 0.334624 0.750000
O O6 0.588678 0.411322 0.814444
O O7 0.621210 0.378791 0.929529
O O8 0.430375 0.346565 0.835271
O O9 0.465413 0.232707 0.073436
O O10 0.372755 0.186377 0.000000
O O11 0.247148 0.752852 0.683842
O O12 0.346565 0.916190 0.664729
O O13 0.557483 0.278741 0.000000
O O14 0.000000 0.500000 0.642721
#
# Coordination Sequence:
#
# PCOD9588634 Si02
#       6
#    24  24  24  24  24  24
#     4  10  22  36  53  71  98 135 175 219 264 319
#     4   9  17  31  53  78 104 136 173 212 257 307
#     4   9  18  34  52  71  92 126 174 220 264 308
#     4   9  17  31  53  78 104 136 173 212 257 307
#     4   7  12  24  44  65  89 120 156 203 248 285
#     4  10  21  33  48  73 106 137 170 216 258 301
#
# _framework density 17.133960999999999
#
# number of rings (size 3 to 8) (size 9 to 14) (size 15 to 20)
#    0.333    2.667    0.000    0.833    2.333    5.000 
#    0.000    3.333    0.000    0.333    0.000    2.333 
#    0.000    0.000    0.000    0.000    0.000   12.500 
#
# Total GULP energy -802451.522410 kJ/mol
# GULP energy per Si atom -5572.580017 kJ/mol
# Density = 1.709496 g / cm^3
# Si number density = 17.133961 Si / 1000 Ang^3
#
#
#
# Elastic Constant Matrix: (Units=GPa)
#
#
# Indices 1 2 3 4 5 6 
#
# 1 104.4729 67.5950 26.0845 0.0000 0.0000 0.0000
# 2 67.5950 104.4729 26.0845 0.0000 0.0000 0.0000
# 3 26.0845 26.0845 62.8282 0.0000 0.0000 0.0000
# 4 0.0000 0.0000 0.0000 11.2462 0.0000 0.0000
# 5 0.0000 0.0000 0.0000 0.0000 11.2462 0.0000
# 6 0.0000 0.0000 0.0000 0.0000 0.0000 18.4390
#
#
#
# Elastic Compliance Matrix: (Units=1/GPa)
#
#
# Indices 1 2 3 4 5 6 
#
# 1 0.016883 -0.010234 -0.002760 0.000000 0.000000 0.000000
# 2 -0.010234 0.016883 -0.002760 0.000000 0.000000 0.000000
# 3 -0.002760 -0.002760 0.018208 0.000000 0.000000 0.000000
# 4 0.000000 0.000000 0.000000 0.088919 0.000000 0.000000
# 5 0.000000 0.000000 0.000000 0.000000 0.088919 0.000000
# 6 0.000000 0.000000 0.000000 0.000000 0.000000 0.054233
#
#
# Mechanical properties :
#
#
# Convention : Reuss Voigt Hill
#
# Bulk Modulus (GPa) = 48.86548 56.81134 52.83841
# Shear Modulus (GPa) = 15.50993 18.32029 16.91511
#
# Velocity S-wave (km/s) = 3.01194 3.27347 3.14543
# Velocity P-wave (km/s) = 6.37788 6.89323 6.64055
#
# Compressibility (1/GPa) = 0.02046434
#
# Stress axis : x y z
#
# Youngs Moduli (GPa) = 59.23289 59.23289 54.91964
#
# Poissons Ratio (x) = 0.60619 0.15159
# Poissons Ratio (y) = 0.60619 0.15159
# Poissons Ratio (z) = 0.16350 0.16350
#
# Static dielectric constant tensor:
#      x y z
#    x 1.579000 0.000000 0.000000 
#    y 0.000000 1.579000 0.000000 
#    z 0.000000 0.000000 1.601860 
# 
# From -- ./inp_files/5122.got.cif
#   From: 2010.05.17/outbox.cif.g08.bks.cpg/sg192_3_cif.got.tgz:5122.got - 2010.05.20 12:28:01.
