data_PCOD9588668
_publ_section_title
;
Structure prediction by ZEFSAII (Michael W. Deem and Ramdas Pophale) SiO2 
 PCOD9588668
Probable space group: P 6/M C C
;
_chemical_formula_sum "Si O2"
_cell_formula_units_Z 96
_cell_length_a 14.662511
_cell_length_b 14.662511
_cell_length_c 25.247135
_cell_angle_alpha 90.000000
_cell_angle_beta 90.000000
_cell_angle_gamma 120.000000
_cell_volume 4700.666453
_symmetry_space_group_name_H-M "P 6/M C C"
_symmetry_group_IT_number 192
_symmetry_cell_setting 'hexagonal'
loop_
_space_group_symop_operation_xyz
x,y,z
x-y,x,z
-y,x-y,z
-x,-y,z
-x+y,-x,z
y,-x+y,z
x-y,-y,1/2-z
-x,-x+y,1/2-z
y,x,1/2-z
-y,-x,1/2-z
-x+y,y,1/2-z
x,x-y,1/2-z
-x,-y,-z
-x+y,-x,-z
y,-x+y,-z
x,y,-z
x-y,x,-z
-y,x-y,-z
-x+y,y,1/2+z
x,x-y,1/2+z
-y,-x,1/2+z
y,x,1/2+z
x-y,-y,1/2+z
-x,-x+y,1/2+z
loop_
_atom_site_type_symbol
_atom_site_label
_atom_site_fract_x
_atom_site_fract_y
_atom_site_fract_z
Si Si1 0.807615 0.260414 0.888141
Si Si2 0.388030 0.470997 0.210828
Si Si3 0.765940 0.940651 0.063471
Si Si4 0.523570 0.403800 0.061519
O O1 0.840045 0.298137 0.827867
O O2 0.902712 0.248244 0.910796
O O3 0.809013 0.355938 0.919990
O O4 0.697958 0.155987 0.901322
O O5 0.500000 0.500000 0.181940
O O6 0.377132 0.377132 0.250000
O O7 0.428953 0.571048 0.250000
O O8 0.799969 0.855969 0.078468
O O9 0.754239 0.938882 0.000000
O O10 0.500000 0.500000 0.064841
O O11 0.506570 0.368725 0.000000
#
# Coordination Sequence:
#
# PCOD9588668 Si02
#       4
#    24  24  24  24
#     4  12  20  38  64  86 127 179 216 265 332 392
#     4   6  17  38  64  90 127 149 212 277 325 383
#     4  10  21  37  60  92 129 169 218 270 329 397
#     4  11  24  36  54  93 138 172 217 266 317 405
#
# _framework density 20.422636000000001
#
# number of rings (size 3 to 8) (size 9 to 14) (size 15 to 20)
#    1.500    0.750    0.000    5.250    0.000    5.000 
#    0.000    1.250    0.000    0.000    0.000    0.000 
#    0.000    2.000    0.000    0.000    0.500    0.000 
#
# Total GULP energy -534884.039530 kJ/mol
# GULP energy per Si atom -5571.708745 kJ/mol
# Density = 2.037615 g / cm^3
# Si number density = 20.422636 Si / 1000 Ang^3
#
#
#
# Elastic Constant Matrix: (Units=GPa)
#
#
# Indices 1 2 3 4 5 6 
#
# 1 84.6322 20.9140 43.8168 0.0000 0.0000 0.0000
# 2 20.9140 84.6322 43.8168 0.0000 0.0000 0.0000
# 3 43.8168 43.8168 81.6593 0.0000 0.0000 0.0000
# 4 0.0000 0.0000 0.0000 -61.4012 0.0000 0.0000
# 5 0.0000 0.0000 0.0000 0.0000 -61.4012 0.0000
# 6 0.0000 0.0000 0.0000 0.0000 0.0000 31.8591
#
#
#
# Elastic Compliance Matrix: (Units=1/GPa)
#
#
# Indices 1 2 3 4 5 6 
#
# 1 0.016391 0.000697 -0.009169 0.000000 0.000000 0.000000
# 2 0.000697 0.016391 -0.009169 0.000000 0.000000 0.000000
# 3 -0.009169 -0.009169 0.022085 0.000000 0.000000 0.000000
# 4 0.000000 0.000000 0.000000 -0.016286 0.000000 0.000000
# 5 0.000000 0.000000 0.000000 0.000000 -0.016286 0.000000
# 6 0.000000 0.000000 0.000000 0.000000 0.000000 0.031388
#
#
# Mechanical properties :
#
#
# Convention : Reuss Voigt Hill
#
# Bulk Modulus (GPa) = 51.05906 52.00212 51.53059
# Shear Modulus (GPa) = 52.36043 -8.69691 21.83176
#
# Velocity S-wave (km/s) = 5.06893 -2.06584 3.27310
# Velocity P-wave (km/s) = 7.70158 4.45286 6.29056
#
# Compressibility (1/GPa) = 0.01958516
#
# Stress axis : x y z
#
# Youngs Moduli (GPa) = 61.01057 61.01057 45.27879
#
# Poissons Ratio (x) = -0.04249 0.41514
# Poissons Ratio (y) = -0.04249 0.41514
# Poissons Ratio (z) = 0.55938 0.55938
#
# Static dielectric constant tensor:
#      x y z
#    x 1.671700 0.000000 0.000000 
#    y 0.000000 1.671700 0.000000 
#    z 0.000000 0.000000 1.743260 
# 
# From -- ./inp_files/6359.got.cif
#   From: 2010.05.17/outbox.cif.g08.bks.cpg/sg192_4_cif.got.tgz:6359.got - 2010.05.20 12:28:01.
