data_PCOD9588086
_publ_section_title
;
Structure prediction by ZEFSAII (Michael W. Deem and Ramdas Pophale) SiO2 
 PCOD9588086
Probable space group: P 6/M M M
;
_chemical_formula_sum "Si O2"
_cell_formula_units_Z 84
_cell_length_a 21.195425
_cell_length_b 21.195425
_cell_length_c 11.613625
_cell_angle_alpha 90.000000
_cell_angle_beta 90.000000
_cell_angle_gamma 120.000000
_cell_volume 4518.379336
_symmetry_space_group_name_H-M "P 6/M M M"
_symmetry_group_IT_number 191
_symmetry_cell_setting 'hexagonal'
loop_
_space_group_symop_operation_xyz
x,y,z
x-y,x,z
-y,x-y,z
-x,-y,z
-x+y,-x,z
y,-x+y,z
x-y,-y,-z
-x,-x+y,-z
y,x,-z
-y,-x,-z
-x+y,y,-z
x,x-y,-z
-x,-y,-z
-x+y,-x,-z
y,-x+y,-z
x,y,-z
x-y,x,-z
-y,x-y,-z
-x+y,y,z
x,x-y,z
-y,-x,z
y,x,z
x-y,-y,z
-x,-x+y,z
loop_
_atom_site_type_symbol
_atom_site_label
_atom_site_fract_x
_atom_site_fract_y
_atom_site_fract_z
Si Si1 0.516603 0.332470 0.786869
Si Si2 0.725177 0.862589 0.361653
Si Si3 0.825516 0.912758 0.868937
Si Si4 0.080396 0.388219 0.364461
Si Si5 0.617702 0.082511 0.000000
O O1 0.527193 0.263597 0.803892
O O2 0.594023 0.405978 0.779318
O O3 0.464836 0.320959 0.679996
O O4 0.470961 0.340658 0.890495
O O5 0.750505 0.875253 0.500000
O O6 0.779185 0.889593 0.251095
O O7 0.674408 0.775653 0.346717
O O8 0.874526 0.874526 0.865771
O O9 0.789589 0.894795 0.000000
O O10 0.075592 0.394872 0.500000
O O11 0.000000 0.361812 0.313606
O O12 0.539082 0.078164 0.000000
O O13 0.600958 0.000000 0.000000
#
# Coordination Sequence:
#
# PCOD9588086 Si02
#       5
#    24  12  12  24  12
#     4  11  22  38  59  85 118 156 198 244 298 361
#     4  10  20  39  63  87 120 160 208 262 316 375
#     4  10  21  38  60  90 128 168 208 256 316 382
#     4  10  21  38  60  85 115 153 197 249 305 359
#     4   9  19  36  58  84 114 149 192 243 292 345
#
# _framework density 18.590737000000001
#
# number of rings (size 3 to 8) (size 9 to 14) (size 15 to 20)
#    0.000    1.857    1.429    2.571    0.000    4.571 
#    2.571    2.857    0.000    2.571    0.000    0.000 
#    0.000    0.000    0.000    0.000    0.000    0.000 
#
# Total GULP energy -468015.747501 kJ/mol
# GULP energy per Si atom -5571.616042 kJ/mol
# Density = 1.854842 g / cm^3
# Si number density = 18.590737 Si / 1000 Ang^3
#
#
#
# Elastic Constant Matrix: (Units=GPa)
#
#
# Indices 1 2 3 4 5 6 
#
# 1 91.9430 66.9594 61.2419 0.0000 0.0000 0.0000
# 2 66.9594 91.9430 61.2419 0.0000 0.0000 0.0000
# 3 61.2419 61.2419 100.9751 0.0000 0.0000 0.0000
# 4 0.0000 0.0000 0.0000 35.4819 0.0000 0.0000
# 5 0.0000 0.0000 0.0000 0.0000 35.4819 0.0000
# 6 0.0000 0.0000 0.0000 0.0000 0.0000 12.4918
#
#
#
# Elastic Compliance Matrix: (Units=1/GPa)
#
#
# Indices 1 2 3 4 5 6 
#
# 1 0.025922 -0.014104 -0.007168 0.000000 0.000000 0.000000
# 2 -0.014104 0.025922 -0.007168 0.000000 0.000000 0.000000
# 3 -0.007168 -0.007168 0.018598 0.000000 0.000000 0.000000
# 4 0.000000 0.000000 0.000000 0.028183 0.000000 0.000000
# 5 0.000000 0.000000 0.000000 0.000000 0.028183 0.000000
# 6 0.000000 0.000000 0.000000 0.000000 0.000000 0.080052
#
#
# Mechanical properties :
#
#
# Convention : Reuss Voigt Hill
#
# Bulk Modulus (GPa) = 73.72866 73.74973 73.73920
# Shear Modulus (GPa) = 18.63850 23.05233 20.84541
#
# Velocity S-wave (km/s) = 3.16977 3.52517 3.35218
# Velocity P-wave (km/s) = 7.28982 7.50502 7.39821
#
# Compressibility (1/GPa) = 0.01356325
#
# Stress axis : x y z
#
# Youngs Moduli (GPa) = 38.57694 38.57694 53.76906
#
# Poissons Ratio (x) = 0.54409 0.38541
# Poissons Ratio (y) = 0.54409 0.38541
# Poissons Ratio (z) = 0.27651 0.27651
#
# Static dielectric constant tensor:
#      x y z
#    x 1.624400 0.000000 0.000000 
#    y 0.000000 1.624400 0.000000 
#    z 0.000000 0.000000 1.740390 
# 
# From -- ./inp_files/2456.got.cif
#   From: 2010.05.17/outbox.cif.g08.bks.cpg/sg191_2_cif.got.tgz:2456.got - 2010.05.20 12:20:32.
