data_PCOD9588120
_publ_section_title
;
Structure prediction by ZEFSAII (Michael W. Deem and Ramdas Pophale) SiO2 
 PCOD9588120
Probable space group: P 6/M M M
;
_chemical_formula_sum "Si O2"
_cell_formula_units_Z 60
_cell_length_a 22.096706
_cell_length_b 22.096706
_cell_length_c 8.847766
_cell_angle_alpha 90.000000
_cell_angle_beta 90.000000
_cell_angle_gamma 120.000000
_cell_volume 3741.272439
_symmetry_space_group_name_H-M "P 6/M M M"
_symmetry_group_IT_number 191
_symmetry_cell_setting 'hexagonal'
loop_
_space_group_symop_operation_xyz
x,y,z
x-y,x,z
-y,x-y,z
-x,-y,z
-x+y,-x,z
y,-x+y,z
x-y,-y,-z
-x,-x+y,-z
y,x,-z
-y,-x,-z
-x+y,y,-z
x,x-y,-z
-x,-y,-z
-x+y,-x,-z
y,-x+y,-z
x,y,-z
x-y,x,-z
-y,x-y,-z
-x+y,y,z
x,x-y,z
-y,-x,z
y,x,z
x-y,-y,z
-x,-x+y,z
loop_
_atom_site_type_symbol
_atom_site_label
_atom_site_fract_x
_atom_site_fract_y
_atom_site_fract_z
Si Si1 0.330693 0.918049 0.319800
Si Si2 0.421047 0.710524 0.182667
Si Si3 0.419273 0.209637 0.818476
Si Si4 0.915107 0.457554 0.171870
O O1 0.327060 0.910115 0.500000
O O2 0.256128 0.867916 0.245204
O O3 0.386101 0.897102 0.254168
O O4 0.362306 0.000000 0.284307
O O5 0.371103 0.742206 0.226270
O O6 0.499514 0.749757 0.237275
O O7 0.424740 0.712370 0.000000
O O8 0.417874 0.208937 0.000000
O O9 0.000000 0.500000 0.165794
O O10 0.887942 0.443971 0.000000
#
# Coordination Sequence:
#
# PCOD9588120 Si02
#       4
#    24  12  12  12
#     4  10  21  36  51  69  97 130 163 202 249 302
#     4   7  14  28  42  61  89 117 148 192 244 291
#     4  11  21  31  52  76  95 125 163 207 254 297
#     4   9  17  30  49  70  92 121 160 205 246 285
#
# _framework density 16.037326
#
# number of rings (size 3 to 8) (size 9 to 14) (size 15 to 20)
#    0.400    2.200    0.000    2.400    2.800    4.800 
#    0.000    0.000    0.000    0.000    0.000    0.000 
#    0.000    0.000    0.000    0.600    0.000   11.600 
#
# Total GULP energy -334612.154638 kJ/mol
# GULP energy per Si atom -5576.869244 kJ/mol
# Density = 1.600082 g / cm^3
# Si number density = 16.037326 Si / 1000 Ang^3
#
#
#
# Elastic Constant Matrix: (Units=GPa)
#
#
# Indices 1 2 3 4 5 6 
#
# 1 85.6512 36.3472 44.8322 0.0000 0.0000 0.0000
# 2 36.3472 85.6512 44.8322 0.0000 0.0000 0.0000
# 3 44.8322 44.8322 68.4182 0.0000 0.0000 0.0000
# 4 0.0000 0.0000 0.0000 21.2324 0.0000 0.0000
# 5 0.0000 0.0000 0.0000 0.0000 21.2324 0.0000
# 6 0.0000 0.0000 0.0000 0.0000 0.0000 24.6520
#
#
#
# Elastic Compliance Matrix: (Units=1/GPa)
#
#
# Indices 1 2 3 4 5 6 
#
# 1 0.018047 -0.002235 -0.010361 0.000000 0.000000 0.000000
# 2 -0.002235 0.018047 -0.010361 0.000000 0.000000 0.000000
# 3 -0.010361 -0.010361 0.028194 0.000000 0.000000 0.000000
# 4 0.000000 0.000000 0.000000 0.047098 0.000000 0.000000
# 5 0.000000 0.000000 0.000000 0.000000 0.047098 0.000000
# 6 0.000000 0.000000 0.000000 0.000000 0.000000 0.040565
#
#
# Mechanical properties :
#
#
# Convention : Reuss Voigt Hill
#
# Bulk Modulus (GPa) = 54.42430 54.63820 54.53125
# Shear Modulus (GPa) = 19.91336 21.00395 20.45866
#
# Velocity S-wave (km/s) = 3.52758 3.62289 3.57556
# Velocity P-wave (km/s) = 7.11347 7.18636 7.15001
#
# Compressibility (1/GPa) = 0.01837414
#
# Stress axis : x y z
#
# Youngs Moduli (GPa) = 55.41084 55.41084 35.46813
#
# Poissons Ratio (x) = 0.12386 0.36748
# Poissons Ratio (y) = 0.12386 0.36748
# Poissons Ratio (z) = 0.57411 0.57411
#
# Static dielectric constant tensor:
#      x y z
#    x 1.568180 0.000000 0.000000 
#    y 0.000000 1.568180 0.000000 
#    z 0.000000 0.000000 1.534980 
# 
# From -- ./inp_files/592.got.cif
#   From: 2010.05.17/outbox.cif.g08.bks.cpg/sg191_1_cif.got.tgz:592.got - 2010.05.20 12:20:32.
