data_PCOD9588967
_publ_section_title
;
Structure prediction by ZEFSAII (Michael W. Deem and Ramdas Pophale) SiO2 
 PCOD9588967
Probable space group: P 63/M C M
;
_chemical_formula_sum "Si O2"
_cell_formula_units_Z 144
_cell_length_a 23.221365
_cell_length_b 23.221365
_cell_length_c 18.288634
_cell_angle_alpha 90.000000
_cell_angle_beta 90.000000
_cell_angle_gamma 120.000000
_cell_volume 8540.580493
_symmetry_space_group_name_H-M "P 63/M C M"
_symmetry_group_IT_number 193
_symmetry_cell_setting 'hexagonal'
loop_
_space_group_symop_operation_xyz
x,y,z
x-y,x,1/2+z
-y,x-y,z
-x,-y,1/2+z
-x+y,-x,z
y,-x+y,1/2+z
x-y,-y,1/2-z
-x,-x+y,1/2-z
y,x,1/2-z
-y,-x,-z
-x+y,y,-z
x,x-y,-z
-x,-y,-z
-x+y,-x,1/2-z
y,-x+y,-z
x,y,1/2-z
x-y,x,-z
-y,x-y,1/2-z
-x+y,y,1/2+z
x,x-y,1/2+z
-y,-x,1/2+z
y,x,z
x-y,-y,z
-x,-x+y,z
loop_
_atom_site_type_symbol
_atom_site_label
_atom_site_fract_x
_atom_site_fract_y
_atom_site_fract_z
Si Si1 0.079402 0.735185 0.168162
Si Si2 0.540195 0.618643 0.575330
Si Si3 0.420453 0.271193 0.540035
Si Si4 0.566524 0.384622 0.163331
Si Si5 0.800426 0.721690 0.524018
Si Si6 0.718802 0.487497 0.164159
O O1 0.107832 0.754062 0.250000
O O2 0.087874 0.676294 0.133229
O O3 0.101105 0.790345 0.105208
O O4 0.000000 0.703664 0.173687
O O5 0.570845 0.570845 0.564306
O O6 0.543851 0.658793 0.502430
O O7 0.468926 0.585645 0.613258
O O8 0.433368 0.216684 0.500000
O O9 0.341870 0.242998 0.528649
O O10 0.450680 0.275250 0.619249
O O11 0.554344 0.388400 0.250000
O O12 0.645321 0.424980 0.152158
O O13 0.534904 0.306950 0.143158
O O14 0.876223 0.752446 0.500000
O O15 0.770124 0.770124 0.523278
O O16 0.727044 0.502358 0.250000
#
# Coordination Sequence:
#
# PCOD9588967 Si02
#       6
#    24  24  24  24  24  24
#     4   8  14  26  47  74  98 123 162 212 258 294
#     4  10  19  32  51  76 104 131 164 218 270 310
#     4  10  18  34  52  76 103 131 169 207 263 322
#     4  10  20  35  54  76 100 134 178 223 269 311
#     4   9  18  32  52  76 106 139 171 212 259 312
#     4  10  21  37  55  74 102 138 178 222 265 311
#
# _framework density 16.860681
#
# number of rings (size 3 to 8) (size 9 to 14) (size 15 to 20)
#    0.000    2.500    1.667    2.333    0.000    3.000 
#    0.000    2.500    0.000    5.667    0.000    0.000 
#    0.000    0.000    0.000    0.000    0.000    0.167 
#
# Total GULP energy -802623.840270 kJ/mol
# GULP energy per Si atom -5573.776669 kJ/mol
# Density = 1.682231 g / cm^3
# Si number density = 16.860681 Si / 1000 Ang^3
#
#
#
# Elastic Constant Matrix: (Units=GPa)
#
#
# Indices 1 2 3 4 5 6 
#
# 1 61.4256 23.3806 31.1075 0.0000 0.0000 0.0000
# 2 23.3806 61.4256 31.1075 0.0000 0.0000 0.0000
# 3 31.1075 31.1075 63.1881 0.0000 0.0000 0.0000
# 4 0.0000 0.0000 0.0000 22.3171 0.0000 0.0000
# 5 0.0000 0.0000 0.0000 0.0000 22.3171 0.0000
# 6 0.0000 0.0000 0.0000 0.0000 0.0000 19.0225
#
#
#
# Elastic Compliance Matrix: (Units=1/GPa)
#
#
# Indices 1 2 3 4 5 6 
#
# 1 0.022371 -0.003913 -0.009087 0.000000 0.000000 0.000000
# 2 -0.003913 0.022371 -0.009087 0.000000 0.000000 0.000000
# 3 -0.009087 -0.009087 0.024773 0.000000 0.000000 0.000000
# 4 0.000000 0.000000 0.000000 0.044809 0.000000 0.000000
# 5 0.000000 0.000000 0.000000 0.000000 0.044809 0.000000
# 6 0.000000 0.000000 0.000000 0.000000 0.000000 0.052569
#
#
# Mechanical properties :
#
#
# Convention : Reuss Voigt Hill
#
# Bulk Modulus (GPa) = 39.46160 39.69226 39.57693
# Shear Modulus (GPa) = 18.91627 19.42757 19.17192
#
# Velocity S-wave (km/s) = 3.35314 3.39815 3.37572
# Velocity P-wave (km/s) = 6.20054 6.24412 6.22237
#
# Compressibility (1/GPa) = 0.02534109
#
# Stress axis : x y z
#
# Youngs Moduli (GPa) = 44.70032 44.70032 40.36721
#
# Poissons Ratio (x) = 0.17493 0.36681
# Poissons Ratio (y) = 0.17493 0.36681
# Poissons Ratio (z) = 0.40618 0.40618
#
# Static dielectric constant tensor:
#      x y z
#    x 1.573490 0.000000 0.000000 
#    y 0.000000 1.573490 0.000000 
#    z 0.000000 0.000000 1.597560 
# 
# From -- ./inp_files/5597.got.cif
#   From: 2010.05.17/outbox.cif.g08.bks.cpg/sg193_3_cif.got.tgz:5597.got - 2010.05.20 12:33:02.
