data_PCOD9588811
_publ_section_title
;
Structure prediction by ZEFSAII (Michael W. Deem and Ramdas Pophale) SiO2 
 PCOD9588811
Probable space group: P 6/M C C
;
_chemical_formula_sum "Si O2"
_cell_formula_units_Z 72
_cell_length_a 22.680670
_cell_length_b 22.680670
_cell_length_c 8.414527
_cell_angle_alpha 90.000000
_cell_angle_beta 90.000000
_cell_angle_gamma 120.000000
_cell_volume 3748.625882
_symmetry_space_group_name_H-M "P 6/M C C"
_symmetry_group_IT_number 192
_symmetry_cell_setting 'hexagonal'
loop_
_space_group_symop_operation_xyz
x,y,z
x-y,x,z
-y,x-y,z
-x,-y,z
-x+y,-x,z
y,-x+y,z
x-y,-y,1/2-z
-x,-x+y,1/2-z
y,x,1/2-z
-y,-x,1/2-z
-x+y,y,1/2-z
x,x-y,1/2-z
-x,-y,-z
-x+y,-x,-z
y,-x+y,-z
x,y,-z
x-y,x,-z
-y,x-y,-z
-x+y,y,1/2+z
x,x-y,1/2+z
-y,-x,1/2+z
y,x,1/2+z
x-y,-y,1/2+z
-x,-x+y,1/2+z
loop_
_atom_site_type_symbol
_atom_site_label
_atom_site_fract_x
_atom_site_fract_y
_atom_site_fract_z
Si Si1 0.252219 0.371892 0.808624
Si Si2 0.966199 0.121213 0.000000
Si Si3 0.524309 0.921908 0.690622
Si Si4 0.767925 0.767925 0.250000
O O1 0.190094 0.380187 0.750000
O O2 0.323101 0.438267 0.766250
O O3 0.246828 0.307509 0.710565
O O4 0.249469 0.358432 0.000000
O O5 0.042212 0.131591 0.000000
O O6 0.961684 0.165294 0.141396
O O7 0.447756 0.895512 0.750000
O O8 0.526206 0.920343 0.500000
O O9 0.567315 0.000000 0.750000
#
# Coordination Sequence:
#
# PCOD9588811 Si02
#       4
#    24  12  24  12
#     4  12  25  41  64  93 127 168 215 263 323 388
#     4  12  25  44  62  84 111 160 214 278 338 404
#     4  11  22  39  63  93 129 165 204 251 305 366
#     4  12  26  40  60  86 124 158 212 270 338 390
#
# _framework density 19.207038000000001
#
# number of rings (size 3 to 8) (size 9 to 14) (size 15 to 20)
#    0.000    0.333    3.333    8.167    4.667    0.000 
#    0.000    1.667    0.000    0.667    0.000    4.667 
#    0.000    0.000    0.000    0.000    0.000    0.000 
#
# Total GULP energy -401680.591714 kJ/mol
# GULP energy per Si atom -5578.897107 kJ/mol
# Density = 1.916332 g / cm^3
# Si number density = 19.207038 Si / 1000 Ang^3
#
#
#
# Elastic Constant Matrix: (Units=GPa)
#
#
# Indices 1 2 3 4 5 6 
#
# 1 139.7064 77.3962 6.7362 0.0000 0.0000 0.0000
# 2 77.3962 139.7064 6.7362 0.0000 0.0000 0.0000
# 3 6.7362 6.7362 77.4670 0.0000 0.0000 0.0000
# 4 0.0000 0.0000 0.0000 337.2744 0.0000 0.0000
# 5 0.0000 0.0000 0.0000 0.0000 337.2744 0.0000
# 6 0.0000 0.0000 0.0000 0.0000 0.0000 31.1551
#
#
#
# Elastic Compliance Matrix: (Units=1/GPa)
#
#
# Indices 1 2 3 4 5 6 
#
# 1 0.010340 -0.005709 -0.000403 0.000000 0.000000 0.000000
# 2 -0.005709 0.010340 -0.000403 0.000000 0.000000 0.000000
# 3 -0.000403 -0.000403 0.012979 0.000000 0.000000 0.000000
# 4 0.000000 0.000000 0.000000 0.002965 0.000000 0.000000
# 5 0.000000 0.000000 0.000000 0.000000 0.002965 0.000000
# 6 0.000000 0.000000 0.000000 0.000000 0.000000 0.032097
#
#
# Mechanical properties :
#
#
# Convention : Reuss Voigt Hill
#
# Bulk Modulus (GPa) = 48.47268 59.84631 54.15949
# Shear Modulus (GPa) = 54.59048 158.87486 106.73267
#
# Velocity S-wave (km/s) = 5.33702 9.10476 7.46259
# Velocity P-wave (km/s) = 7.95425 11.90609 10.12485
#
# Compressibility (1/GPa) = 0.02063018
#
# Stress axis : x y z
#
# Youngs Moduli (GPa) = 96.71260 96.71260 77.04895
#
# Poissons Ratio (x) = 0.55211 0.03103
# Poissons Ratio (y) = 0.55211 0.03103
# Poissons Ratio (z) = 0.03895 0.03895
#
# Static dielectric constant tensor:
#      x y z
#    x 1.645390 0.000000 0.000000 
#    y 0.000000 1.645390 0.000000 
#    z 0.000000 0.000000 1.756490 
# 
# From -- ./inp_files/656.got.cif
#   From: 2010.05.17/outbox.cif.g08.bks.cpg/sg192_1_cif.got.tgz:656.got - 2010.05.20 12:28:01.
