data_PCOD9588580
_publ_section_title
;
Structure prediction by ZEFSAII (Michael W. Deem and Ramdas Pophale) SiO2 
 PCOD9588580
Probable space group: P 6/M C C
;
_chemical_formula_sum "Si O2"
_cell_formula_units_Z 72
_cell_length_a 22.313427
_cell_length_b 22.313427
_cell_length_c 9.587645
_cell_angle_alpha 90.000000
_cell_angle_beta 90.000000
_cell_angle_gamma 120.000000
_cell_volume 4134.044332
_symmetry_space_group_name_H-M "P 6/M C C"
_symmetry_group_IT_number 192
_symmetry_cell_setting 'hexagonal'
loop_
_space_group_symop_operation_xyz
x,y,z
x-y,x,z
-y,x-y,z
-x,-y,z
-x+y,-x,z
y,-x+y,z
x-y,-y,1/2-z
-x,-x+y,1/2-z
y,x,1/2-z
-y,-x,1/2-z
-x+y,y,1/2-z
x,x-y,1/2-z
-x,-y,-z
-x+y,-x,-z
y,-x+y,-z
x,y,-z
x-y,x,-z
-y,x-y,-z
-x+y,y,1/2+z
x,x-y,1/2+z
-y,-x,1/2+z
y,x,1/2+z
x-y,-y,1/2+z
-x,-x+y,1/2+z
loop_
_atom_site_type_symbol
_atom_site_label
_atom_site_fract_x
_atom_site_fract_y
_atom_site_fract_z
Si Si1 0.246840 0.375114 0.838850
Si Si2 0.871649 0.026941 0.000000
Si Si3 0.520255 0.926924 0.831502
Si Si4 0.771070 0.771070 0.250000
O O1 0.191090 0.382179 0.750000
O O2 0.324488 0.437144 0.813266
O O3 0.241402 0.301606 0.807779
O O4 0.230419 0.375748 0.000000
O O5 0.830286 0.031085 0.867177
O O6 0.951168 0.086797 0.000000
O O7 0.447147 0.894293 0.750000
O O8 0.564364 0.000000 0.750000
O O9 0.514318 0.935155 0.000000
#
# Coordination Sequence:
#
# PCOD9588580 Si02
#       4
#    24  12  24  12
#     4  11  24  39  60  88 119 156 199 242 294 356
#     4  12  25  42  60  78 107 150 202 258 310 368
#     4  10  20  36  57  87 119 152 187 230 281 339
#     4  12  24  40  56  84 116 150 194 250 314 360
#
# _framework density 17.416360000000001
#
# number of rings (size 3 to 8) (size 9 to 14) (size 15 to 20)
#    0.000    1.000    3.333    5.167    2.333    2.667 
#    0.000    1.667    0.000    0.667    0.000    0.000 
#    0.000    0.000    0.000    0.000    0.000    0.000 
#
# Total GULP energy -402140.124479 kJ/mol
# GULP energy per Si atom -5585.279507 kJ/mol
# Density = 1.737672 g / cm^3
# Si number density = 17.416360 Si / 1000 Ang^3
#
#
#
# Elastic Constant Matrix: (Units=GPa)
#
#
# Indices 1 2 3 4 5 6 
#
# 1 93.8513 61.5339 54.3057 0.0000 0.0000 0.0000
# 2 61.5339 93.8513 54.3057 0.0000 0.0000 0.0000
# 3 54.3057 54.3057 119.0522 0.0000 0.0000 0.0000
# 4 0.0000 0.0000 0.0000 28.0135 0.0000 0.0000
# 5 0.0000 0.0000 0.0000 0.0000 28.0135 0.0000
# 6 0.0000 0.0000 0.0000 0.0000 0.0000 16.1587
#
#
#
# Elastic Compliance Matrix: (Units=1/GPa)
#
#
# Indices 1 2 3 4 5 6 
#
# 1 0.020196 -0.010748 -0.004310 0.000000 0.000000 0.000000
# 2 -0.010748 0.020196 -0.004310 0.000000 0.000000 0.000000
# 3 -0.004310 -0.004310 0.012331 0.000000 0.000000 0.000000
# 4 0.000000 0.000000 0.000000 0.035697 0.000000 0.000000
# 5 0.000000 0.000000 0.000000 0.000000 0.035697 0.000000
# 6 0.000000 0.000000 0.000000 0.000000 0.000000 0.061886
#
#
# Mechanical properties :
#
#
# Convention : Reuss Voigt Hill
#
# Bulk Modulus (GPa) = 71.48671 71.89394 71.69033
# Shear Modulus (GPa) = 21.79601 23.54445 22.67023
#
# Velocity S-wave (km/s) = 3.54145 3.68075 3.61177
# Velocity P-wave (km/s) = 7.60640 7.70928 7.65801
#
# Compressibility (1/GPa) = 0.01398861
#
# Stress axis : x y z
#
# Youngs Moduli (GPa) = 49.51578 49.51578 81.09355
#
# Poissons Ratio (x) = 0.53217 0.34949
# Poissons Ratio (y) = 0.53217 0.34949
# Poissons Ratio (z) = 0.21340 0.21340
#
# Static dielectric constant tensor:
#      x y z
#    x 1.567710 0.000000 0.000000 
#    y 0.000000 1.567710 0.000000 
#    z 0.000000 0.000000 1.570540 
# 
# From -- ./inp_files/655.got.cif
#   From: 2010.05.17/outbox.cif.g08.bks.cpg/sg192_1_cif.got.tgz:655.got - 2010.05.20 12:28:01.
