data_PCOD9588816
_publ_section_title
;
Structure prediction by ZEFSAII (Michael W. Deem and Ramdas Pophale) SiO2 
 PCOD9588816
Probable space group: P 6/M C C
;
_chemical_formula_sum "Si O2"
_cell_formula_units_Z 120
_cell_length_a 13.797554
_cell_length_b 13.797554
_cell_length_c 30.595595
_cell_angle_alpha 90.000000
_cell_angle_beta 90.000000
_cell_angle_gamma 120.000000
_cell_volume 5044.216751
_symmetry_space_group_name_H-M "P 6/M C C"
_symmetry_group_IT_number 192
_symmetry_cell_setting 'hexagonal'
loop_
_space_group_symop_operation_xyz
x,y,z
x-y,x,z
-y,x-y,z
-x,-y,z
-x+y,-x,z
y,-x+y,z
x-y,-y,1/2-z
-x,-x+y,1/2-z
y,x,1/2-z
-y,-x,1/2-z
-x+y,y,1/2-z
x,x-y,1/2-z
-x,-y,-z
-x+y,-x,-z
y,-x+y,-z
x,y,-z
x-y,x,-z
-y,x-y,-z
-x+y,y,1/2+z
x,x-y,1/2+z
-y,-x,1/2+z
y,x,1/2+z
x-y,-y,1/2+z
-x,-x+y,1/2+z
loop_
_atom_site_type_symbol
_atom_site_label
_atom_site_fract_x
_atom_site_fract_y
_atom_site_fract_z
Si Si1 0.529664 0.704704 0.050447
Si Si2 0.514297 0.903470 0.079453
Si Si3 0.770720 0.800696 0.053130
Si Si4 0.653738 0.102972 0.678414
Si Si5 0.692635 0.545437 0.708321
O O1 0.558453 0.832414 0.054496
O O2 0.433341 0.620183 0.081661
O O3 0.645087 0.708330 0.063034
O O4 0.498564 0.673879 0.000000
O O5 0.553287 0.933531 0.128769
O O6 0.500000 0.000000 0.055914
O O7 0.870684 0.787461 0.070094
O O8 0.776562 0.805579 0.000000
O O9 0.570565 0.144872 0.699435
O O10 0.778727 0.209839 0.674043
O O11 0.631508 0.988218 0.703430
O O12 0.773254 0.546507 0.750000
#
# Coordination Sequence:
#
# PCOD9588816 Si02
#       5
#    24  24  24  24  24
#     4  11  24  39  60  87 121 175 237 297 353 415
#     4  12  24  42  63  88 133 179 235 293 365 440
#     4   9  17  32  54  82 111 143 200 277 347 402
#     4  11  24  43  68 108 143 195 232 296 376 447
#     4  11  22  42  71 105 148 181 235 289 360 447
#
# _framework density 23.789621
#
# number of rings (size 3 to 8) (size 9 to 14) (size 15 to 20)
#    0.000    1.200    2.000    5.200    0.000    5.600 
#    0.000    0.000    0.000    0.400    0.000    1.400 
#    0.000    0.000    0.000    0.000    0.000    0.000 
#
# Total GULP energy -668184.766818 kJ/mol
# GULP energy per Si atom -5568.206390 kJ/mol
# Density = 2.373547 g / cm^3
# Si number density = 23.789621 Si / 1000 Ang^3
#
#
#
# Elastic Constant Matrix: (Units=GPa)
#
#
# Indices 1 2 3 4 5 6 
#
# 1 88.1031 23.5487 5.9292 0.0000 0.0000 0.0000
# 2 23.5487 88.1031 5.9292 0.0000 0.0000 0.0000
# 3 5.9292 5.9292 115.5294 0.0000 0.0000 0.0000
# 4 0.0000 0.0000 0.0000 -44.5467 0.0000 0.0000
# 5 0.0000 0.0000 0.0000 0.0000 -44.5467 0.0000
# 6 0.0000 0.0000 0.0000 0.0000 0.0000 32.2772
#
#
#
# Elastic Compliance Matrix: (Units=1/GPa)
#
#
# Indices 1 2 3 4 5 6 
#
# 1 0.012248 -0.003243 -0.000462 0.000000 0.000000 0.000000
# 2 -0.003243 0.012248 -0.000462 0.000000 0.000000 0.000000
# 3 -0.000462 -0.000462 0.008703 0.000000 0.000000 0.000000
# 4 0.000000 0.000000 0.000000 -0.022448 0.000000 0.000000
# 5 0.000000 0.000000 0.000000 0.000000 -0.022448 0.000000
# 6 0.000000 0.000000 0.000000 0.000000 0.000000 0.030982
#
#
# Mechanical properties :
#
#
# Convention : Reuss Voigt Hill
#
# Bulk Modulus (GPa) = 40.21631 40.28331 40.24981
# Shear Modulus (GPa) = 139.24865 5.72533 72.48699
#
# Velocity S-wave (km/s) = 7.65901 1.55302 5.52595
# Velocity P-wave (km/s) = 9.75477 4.49285 7.59412
#
# Compressibility (1/GPa) = 0.02486553
#
# Stress axis : x y z
#
# Youngs Moduli (GPa) = 81.64496 81.64496 114.89971
#
# Poissons Ratio (x) = 0.26475 0.05310
# Poissons Ratio (y) = 0.26475 0.05310
# Poissons Ratio (z) = 0.03773 0.03773
#
# Static dielectric constant tensor:
#      x y z
#    x 2.174030 0.000000 0.000000 
#    y 0.000000 2.174030 0.000000 
#    z 0.000000 0.000000 2.014910 
# 
# From -- ./inp_files/6956.got.cif
#   From: 2010.05.17/outbox.cif.g08.bks.cpg/sg192_4_cif.got.tgz:6956.got - 2010.05.20 12:28:01.
