data_PCOD9588105
_publ_section_title
;
Structure prediction by ZEFSAII (Michael W. Deem and Ramdas Pophale) SiO2 
 PCOD9588105
Probable space group: P 6/M M M
;
_chemical_formula_sum "Si O2"
_cell_formula_units_Z 108
_cell_length_a 18.351533
_cell_length_b 18.351533
_cell_length_c 23.843364
_cell_angle_alpha 90.000000
_cell_angle_beta 90.000000
_cell_angle_gamma 120.000000
_cell_volume 6954.130857
_symmetry_space_group_name_H-M "P 6/M M M"
_symmetry_group_IT_number 191
_symmetry_cell_setting 'hexagonal'
loop_
_space_group_symop_operation_xyz
x,y,z
x-y,x,z
-y,x-y,z
-x,-y,z
-x+y,-x,z
y,-x+y,z
x-y,-y,-z
-x,-x+y,-z
y,x,-z
-y,-x,-z
-x+y,y,-z
x,x-y,-z
-x,-y,-z
-x+y,-x,-z
y,-x+y,-z
x,y,-z
x-y,x,-z
-y,x-y,-z
-x+y,y,z
x,x-y,z
-y,-x,z
y,x,z
x-y,-y,z
-x,-x+y,z
loop_
_atom_site_type_symbol
_atom_site_label
_atom_site_fract_x
_atom_site_fract_y
_atom_site_fract_z
Si Si1 0.836607 0.502605 0.065898
Si Si2 0.668736 0.502801 0.383082
Si Si3 0.465323 0.365443 0.500000
Si Si4 0.161143 0.667834 0.258527
Si Si5 0.094874 0.734310 0.160156
O O1 0.739168 0.478337 0.072787
O O2 0.847418 0.423709 0.082119
O O3 0.889371 0.582887 0.104707
O O4 0.857214 0.520285 0.000000
O O5 0.734994 0.469987 0.383801
O O6 0.574456 0.425545 0.383765
O O7 0.682378 0.552727 0.440889
O O8 0.677762 0.543097 0.321847
O O9 0.416873 0.416873 0.500000
O O10 0.565521 0.434480 0.500000
O O11 0.152942 0.576471 0.252760
O O12 0.258957 0.741044 0.252148
O O13 0.110934 0.687331 0.212018
O O14 0.168443 0.831558 0.162213
O O15 0.000000 0.715112 0.161372
#
# Coordination Sequence:
#
# PCOD9588105 Si02
#       5
#    24  24  12  24  24
#     4   9  17  29  46  69  98 131 162 187 210 241
#     4   9  16  26  40  57  77 103 137 174 208 242
#     4   9  17  26  34  48  72 101 134 174 218 254
#     4   9  17  28  43  64  90 119 148 177 209 249
#     4  10  21  35  49  66  88 114 145 182 225 269
#
# _framework density 15.530338
#
# number of rings (size 3 to 8) (size 9 to 14) (size 15 to 20)
#    0.000    2.778    0.000    1.667    0.000    5.778 
#    0.000    6.667    0.000    0.222    0.000    0.000 
#    0.000    0.000    0.000    5.556    0.000    0.000 
#
# Total GULP energy -601233.960611 kJ/mol
# GULP energy per Si atom -5566.981117 kJ/mol
# Density = 1.549499 g / cm^3
# Si number density = 15.530338 Si / 1000 Ang^3
#
#
#
# Elastic Constant Matrix: (Units=GPa)
#
#
# Indices 1 2 3 4 5 6 
#
# 1 48.2248 39.1055 33.4191 0.0000 0.0000 0.0000
# 2 39.1055 48.2248 33.4191 0.0000 0.0000 0.0000
# 3 33.4191 33.4191 78.6967 0.0000 0.0000 0.0000
# 4 0.0000 0.0000 0.0000 9.7751 0.0000 0.0000
# 5 0.0000 0.0000 0.0000 0.0000 9.7751 0.0000
# 6 0.0000 0.0000 0.0000 0.0000 0.0000 4.5597
#
#
#
# Elastic Compliance Matrix: (Units=1/GPa)
#
#
# Indices 1 2 3 4 5 6 
#
# 1 0.063311 -0.046347 -0.007204 0.000000 0.000000 0.000000
# 2 -0.046347 0.063311 -0.007204 0.000000 0.000000 0.000000
# 3 -0.007204 -0.007204 0.018826 0.000000 0.000000 0.000000
# 4 0.000000 0.000000 0.000000 0.102301 0.000000 0.000000
# 5 0.000000 0.000000 0.000000 0.000000 0.102301 0.000000
# 6 0.000000 0.000000 0.000000 0.000000 0.000000 0.219315
#
#
# Mechanical properties :
#
#
# Convention : Reuss Voigt Hill
#
# Bulk Modulus (GPa) = 41.77436 43.00372 42.38904
# Shear Modulus (GPa) = 7.15459 9.43548 8.29503
#
# Velocity S-wave (km/s) = 2.14869 2.46753 2.31361
# Velocity P-wave (km/s) = 5.75437 5.98903 5.87287
#
# Compressibility (1/GPa) = 0.02393813
#
# Stress axis : x y z
#
# Youngs Moduli (GPa) = 15.79506 15.79506 53.11936
#
# Poissons Ratio (x) = 0.73205 0.38268
# Poissons Ratio (y) = 0.73205 0.38268
# Poissons Ratio (z) = 0.11379 0.11379
#
# Static dielectric constant tensor:
#      x y z
#    x 1.502960 0.000000 0.000000 
#    y 0.000000 1.502960 0.000000 
#    z 0.000000 0.000000 1.580250 
# 
# From -- ./inp_files/8354.got.cif
#   From: 2010.05.17/outbox.cif.g08.bks.cpg/sg191_5_cif.got.tgz:8354.got - 2010.05.20 12:20:32.
