data_PCOD9588876
_publ_section_title
;
Structure prediction by ZEFSAII (Michael W. Deem and Ramdas Pophale) SiO2 
 PCOD9588876
Probable space group: P 63/M C M
;
_chemical_formula_sum "Si O2"
_cell_formula_units_Z 120
_cell_length_a 20.848741
_cell_length_b 20.848741
_cell_length_c 15.970995
_cell_angle_alpha 90.000000
_cell_angle_beta 90.000000
_cell_angle_gamma 120.000000
_cell_volume 6012.045709
_symmetry_space_group_name_H-M "P 63/M C M"
_symmetry_group_IT_number 193
_symmetry_cell_setting 'hexagonal'
loop_
_space_group_symop_operation_xyz
x,y,z
x-y,x,1/2+z
-y,x-y,z
-x,-y,1/2+z
-x+y,-x,z
y,-x+y,1/2+z
x-y,-y,1/2-z
-x,-x+y,1/2-z
y,x,1/2-z
-y,-x,-z
-x+y,y,-z
x,x-y,-z
-x,-y,-z
-x+y,-x,1/2-z
y,-x+y,-z
x,y,1/2-z
x-y,x,-z
-y,x-y,1/2-z
-x+y,y,1/2+z
x,x-y,1/2+z
-y,-x,1/2+z
y,x,z
x-y,-y,z
-x,-x+y,z
loop_
_atom_site_type_symbol
_atom_site_label
_atom_site_fract_x
_atom_site_fract_y
_atom_site_fract_z
Si Si1 0.000000 0.521065 0.596502
Si Si2 0.084634 0.914592 0.352580
Si Si3 0.849806 0.183065 0.351108
Si Si4 0.000000 0.663916 0.849388
Si Si5 0.749364 0.245183 0.349765
Si Si6 0.162468 0.579249 0.400172
O O1 0.000000 0.500000 0.500000
O O2 0.000000 0.597853 0.601431
O O3 0.921578 0.459566 0.634629
O O4 0.085984 0.914924 0.250000
O O5 0.117273 0.862693 0.381811
O O6 0.000000 0.881839 0.378561
O O7 0.136030 0.000000 0.378463
O O8 0.840990 0.174049 0.250000
O O9 0.926585 0.258784 0.366401
O O10 0.784276 0.195980 0.383524
O O11 0.000000 0.648491 0.750000
O O12 0.754651 0.245518 0.250000
O O13 0.664008 0.211055 0.372923
O O14 0.798164 0.330410 0.377079
O O15 0.157606 0.578803 0.500000
#
# Coordination Sequence:
#
# PCOD9588876 Si02
#       6
#    12  24  24  12  24  24
#     4  10  22  38  58  82 108 141 184 228 282 335
#     4   9  15  24  40  66 103 145 184 219 259 311
#     4   9  17  29  48  74 103 137 181 226 268 315
#     4  10  16  30  56  78 102 141 190 235 270 323
#     4  11  22  37  57  82 108 140 183 230 276 329
#     4  11  23  40  59  81 110 145 183 224 281 335
#
# _framework density 19.959928000000001
#
# number of rings (size 3 to 8) (size 9 to 14) (size 15 to 20)
#    0.000    2.000    3.000    1.800    0.000    1.600 
#    1.800    0.000    0.000    0.000    0.000    0.000 
#    0.000    0.000    0.000    0.600    0.000   20.800 
#
# Total GULP energy -669651.365605 kJ/mol
# GULP energy per Si atom -5580.428047 kJ/mol
# Density = 1.991450 g / cm^3
# Si number density = 19.959928 Si / 1000 Ang^3
#
#
#
# Elastic Constant Matrix: (Units=GPa)
#
#
# Indices 1 2 3 4 5 6 
#
# 1 131.2103 64.0412 8.4309 0.0000 0.0000 0.0000
# 2 64.0412 131.2103 8.4309 0.0000 0.0000 0.0000
# 3 8.4309 8.4309 23.4779 0.0000 0.0000 0.0000
# 4 0.0000 0.0000 0.0000 3.3099 0.0000 0.0000
# 5 0.0000 0.0000 0.0000 0.0000 3.3099 0.0000
# 6 0.0000 0.0000 0.0000 0.0000 0.0000 33.5845
#
#
#
# Elastic Compliance Matrix: (Units=1/GPa)
#
#
# Indices 1 2 3 4 5 6 
#
# 1 0.010087 -0.004801 -0.001898 0.000000 0.000000 0.000000
# 2 -0.004801 0.010087 -0.001898 0.000000 0.000000 0.000000
# 3 -0.001898 -0.001898 0.043956 0.000000 0.000000 0.000000
# 4 0.000000 0.000000 0.000000 0.302122 0.000000 0.000000
# 5 0.000000 0.000000 0.000000 0.000000 0.302122 0.000000
# 6 0.000000 0.000000 0.000000 0.000000 0.000000 0.029776
#
#
# Mechanical properties :
#
#
# Convention : Reuss Voigt Hill
#
# Bulk Modulus (GPa) = 21.30590 49.74496 35.52543
# Shear Modulus (GPa) = 6.84005 21.70723 14.27364
#
# Velocity S-wave (km/s) = 1.85320 3.30137 2.67706
# Velocity P-wave (km/s) = 3.90853 6.28558 5.23379
#
# Compressibility (1/GPa) = 0.04693536
#
# Stress axis : x y z
#
# Youngs Moduli (GPa) = 99.14084 99.14084 22.74977
#
# Poissons Ratio (x) = 0.47599 0.04318
# Poissons Ratio (y) = 0.47599 0.04318
# Poissons Ratio (z) = 0.18817 0.18817
#
# Static dielectric constant tensor:
#      x y z
#    x 1.707450 0.000000 0.000000 
#    y 0.000000 1.707450 0.000000 
#    z 0.000000 0.000000 1.700240 
# 
# From -- ./inp_files/5380.got.cif
#   From: 2010.05.17/outbox.cif.g08.bks.cpg/sg193_3_cif.got.tgz:5380.got - 2010.05.20 12:33:02.
