data_PCOD9588524
_publ_section_title
;
Structure prediction by ZEFSAII (Michael W. Deem and Ramdas Pophale) SiO2 
 PCOD9588524
Probable space group: P 6/M C C
;
_chemical_formula_sum "Si O2"
_cell_formula_units_Z 144
_cell_length_a 33.081233
_cell_length_b 33.081233
_cell_length_c 8.741679
_cell_angle_alpha 90.000000
_cell_angle_beta 90.000000
_cell_angle_gamma 120.000000
_cell_volume 8284.930372
_symmetry_space_group_name_H-M "P 6/M C C"
_symmetry_group_IT_number 192
_symmetry_cell_setting 'hexagonal'
loop_
_space_group_symop_operation_xyz
x,y,z
x-y,x,z
-y,x-y,z
-x,-y,z
-x+y,-x,z
y,-x+y,z
x-y,-y,1/2-z
-x,-x+y,1/2-z
y,x,1/2-z
-y,-x,1/2-z
-x+y,y,1/2-z
x,x-y,1/2-z
-x,-y,-z
-x+y,-x,-z
y,-x+y,-z
x,y,-z
x-y,x,-z
-y,x-y,-z
-x+y,y,1/2+z
x,x-y,1/2+z
-y,-x,1/2+z
y,x,1/2+z
x-y,-y,1/2+z
-x,-x+y,1/2+z
loop_
_atom_site_type_symbol
_atom_site_label
_atom_site_fract_x
_atom_site_fract_y
_atom_site_fract_z
Si Si1 0.806059 0.700568 0.316709
Si Si2 0.382578 0.284278 0.317010
Si Si3 0.471936 0.615112 0.183137
Si Si4 0.049525 0.435588 0.816134
Si Si5 0.948756 0.138953 0.682672
Si Si6 0.190559 0.721380 0.315770
O O1 0.844072 0.688143 0.250000
O O2 0.803756 0.694970 0.500000
O O3 0.755988 0.666968 0.243704
O O4 0.826104 0.755054 0.279797
O O5 0.383295 0.285750 0.500000
O O6 0.398392 0.335286 0.249729
O O7 0.421383 0.272240 0.254676
O O8 0.422967 0.577034 0.250000
O O9 0.513417 0.605061 0.229786
O O10 0.490719 0.668910 0.225672
O O11 0.469118 0.612386 0.000000
O O12 0.000000 0.423774 0.750000
O O13 0.048275 0.432863 0.000000
O O14 0.911023 0.088978 0.750000
O O15 0.949796 0.135816 0.500000
O O16 0.000000 0.159032 0.750000
O O17 0.239296 0.760705 0.250000
O O18 0.189205 0.724465 0.500000
#
# Coordination Sequence:
#
# PCOD9588524 Si02
#       6
#    24  24  24  24  24  24
#     4  10  20  34  51  74 105 140 177 218 258 305
#     4  11  21  33  51  75 105 143 180 219 263 308
#     4   9  20  36  55  78 105 134 170 214 261 314
#     4  10  21  37  53  74 103 137 178 222 264 310
#     4  10  21  37  58  81 107 138 174 213 257 305
#     4  10  20  35  54  79 107 137 173 215 262 315
#
# _framework density 17.380955
#
# number of rings (size 3 to 8) (size 9 to 14) (size 15 to 20)
#    0.000    2.000    0.000    5.000    0.000    7.000 
#    0.000    3.333    0.000    0.500    0.000    1.167 
#    0.000    0.000    0.000    0.000    0.000    0.000 
#
# Total GULP energy -804231.193646 kJ/mol
# GULP energy per Si atom -5584.938845 kJ/mol
# Density = 1.734139 g / cm^3
# Si number density = 17.380955 Si / 1000 Ang^3
#
#
#
# Elastic Constant Matrix: (Units=GPa)
#
#
# Indices 1 2 3 4 5 6 
#
# 1 76.4721 53.2863 32.1978 0.0000 0.0000 0.0000
# 2 53.2863 76.4721 32.1978 0.0000 0.0000 0.0000
# 3 32.1978 32.1978 71.0408 0.0000 0.0000 0.0000
# 4 0.0000 0.0000 0.0000 30.3689 0.0000 0.0000
# 5 0.0000 0.0000 0.0000 0.0000 30.3689 0.0000
# 6 0.0000 0.0000 0.0000 0.0000 0.0000 11.5929
#
#
#
# Elastic Compliance Matrix: (Units=1/GPa)
#
#
# Indices 1 2 3 4 5 6 
#
# 1 0.026537 -0.016593 -0.004507 0.000000 0.000000 0.000000
# 2 -0.016593 0.026537 -0.004507 0.000000 0.000000 0.000000
# 3 -0.004507 -0.004507 0.018161 0.000000 0.000000 0.000000
# 4 0.000000 0.000000 0.000000 0.032928 0.000000 0.000000
# 5 0.000000 0.000000 0.000000 0.000000 0.032928 0.000000
# 6 0.000000 0.000000 0.000000 0.000000 0.000000 0.086260
#
#
# Mechanical properties :
#
#
# Convention : Reuss Voigt Hill
#
# Bulk Modulus (GPa) = 49.94619 51.03875 50.49247
# Shear Modulus (GPa) = 17.77855 21.55301 19.66578
#
# Velocity S-wave (km/s) = 3.20171 3.52523 3.36736
# Velocity P-wave (km/s) = 6.51663 6.78220 6.65074
#
# Compressibility (1/GPa) = 0.02002155
#
# Stress axis : x y z
#
# Youngs Moduli (GPa) = 37.68392 37.68392 55.06188
#
# Poissons Ratio (x) = 0.62531 0.24814
# Poissons Ratio (y) = 0.62531 0.24814
# Poissons Ratio (z) = 0.16982 0.16982
#
# Static dielectric constant tensor:
#      x y z
#    x 1.576690 0.000000 0.000000 
#    y 0.000000 1.576690 0.000000 
#    z 0.000000 0.000000 1.579080 
# 
# From -- ./inp_files/1137.got.cif
#   From: 2010.05.17/outbox.cif.g08.bks.cpg/sg192_1_cif.got.tgz:1137.got - 2010.05.20 12:28:01.
