data_PCOD9588475
_publ_section_title
;
Structure prediction by ZEFSAII (Michael W. Deem and Ramdas Pophale) SiO2 
 PCOD9588475
Probable space group: P 6/M C C
;
_chemical_formula_sum "Si O2"
_cell_formula_units_Z 144
_cell_length_a 22.270411
_cell_length_b 22.270411
_cell_length_c 15.693734
_cell_angle_alpha 90.000000
_cell_angle_beta 90.000000
_cell_angle_gamma 120.000000
_cell_volume 6740.830130
_symmetry_space_group_name_H-M "P 6/M C C"
_symmetry_group_IT_number 192
_symmetry_cell_setting 'hexagonal'
loop_
_space_group_symop_operation_xyz
x,y,z
x-y,x,z
-y,x-y,z
-x,-y,z
-x+y,-x,z
y,-x+y,z
x-y,-y,1/2-z
-x,-x+y,1/2-z
y,x,1/2-z
-y,-x,1/2-z
-x+y,y,1/2-z
x,x-y,1/2-z
-x,-y,-z
-x+y,-x,-z
y,-x+y,-z
x,y,-z
x-y,x,-z
-y,x-y,-z
-x+y,y,1/2+z
x,x-y,1/2+z
-y,-x,1/2+z
y,x,1/2+z
x-y,-y,1/2+z
-x,-x+y,1/2+z
loop_
_atom_site_type_symbol
_atom_site_label
_atom_site_fract_x
_atom_site_fract_y
_atom_site_fract_z
Si Si1 0.405804 0.056704 0.175159
Si Si2 0.151324 0.042718 0.101117
Si Si3 0.466968 0.800539 0.602401
Si Si4 0.468612 0.046156 0.596653
Si Si5 0.804446 0.473667 0.396759
Si Si6 0.202137 0.276511 0.202712
O O1 0.478672 0.124943 0.154520
O O2 0.350316 0.081398 0.185588
O O3 0.392059 0.000000 0.250000
O O4 0.391382 0.004705 0.096658
O O5 0.132176 0.098650 0.136196
O O6 0.229841 0.065565 0.121200
O O7 0.142151 0.039821 0.000000
O O8 0.477001 0.801622 0.500000
O O9 0.511087 0.879488 0.635458
O O10 0.485312 0.743384 0.633174
O O11 0.387771 0.780918 0.616488
O O12 0.496825 0.062316 0.500000
O O13 0.500000 0.000000 0.634691
O O14 0.816243 0.486827 0.500000
O O15 0.232920 0.232920 0.250000
O O16 0.141597 0.283194 0.250000
#
# Coordination Sequence:
#
# PCOD9588475 Si02
#       6
#    24  24  24  24  24  24
#     4  11  25  39  60  86 124 173 216 264 309 371
#     4  10  20  36  61  93 123 151 196 263 326 382
#     4   9  18  33  61  95 125 159 202 258 320 389
#     4  10  19  38  65  91 122 162 213 260 313 387
#     4  10  19  37  63  96 132 164 205 263 332 395
#     4  11  23  41  62  84 120 172 217 253 310 385
#
# _framework density 21.362354
#
# number of rings (size 3 to 8) (size 9 to 14) (size 15 to 20)
#    0.000    1.833    3.333    1.000    0.000    6.333 
#    0.000    0.000    0.000    0.000    0.000    2.333 
#    0.000    0.000    0.000    0.000    0.000    0.000 
#
# Total GULP energy -802614.299273 kJ/mol
# GULP energy per Si atom -5573.710412 kJ/mol
# Density = 2.131373 g / cm^3
# Si number density = 21.362354 Si / 1000 Ang^3
#
#
#
# Elastic Constant Matrix: (Units=GPa)
#
#
# Indices 1 2 3 4 5 6 
#
# 1 126.5003 48.9204 23.5495 0.0000 0.0000 0.0000
# 2 48.9204 126.5003 23.5495 0.0000 0.0000 0.0000
# 3 23.5495 23.5495 40.7910 0.0000 0.0000 0.0000
# 4 0.0000 0.0000 0.0000 20.9334 0.0000 0.0000
# 5 0.0000 0.0000 0.0000 0.0000 20.9334 0.0000
# 6 0.0000 0.0000 0.0000 0.0000 0.0000 38.7899
#
#
#
# Elastic Compliance Matrix: (Units=1/GPa)
#
#
# Indices 1 2 3 4 5 6 
#
# 1 0.009818 -0.003072 -0.003895 0.000000 0.000000 0.000000
# 2 -0.003072 0.009818 -0.003895 0.000000 0.000000 0.000000
# 3 -0.003895 -0.003895 0.029012 0.000000 0.000000 0.000000
# 4 0.000000 0.000000 0.000000 0.047771 0.000000 0.000000
# 5 0.000000 0.000000 0.000000 0.000000 0.047771 0.000000
# 6 0.000000 0.000000 0.000000 0.000000 0.000000 0.025780
#
#
# Mechanical properties :
#
#
# Convention : Reuss Voigt Hill
#
# Bulk Modulus (GPa) = 37.13913 53.98116 45.56014
# Shear Modulus (GPa) = 24.91682 29.31614 27.11648
#
# Velocity S-wave (km/s) = 3.41895 3.70851 3.56667
# Velocity P-wave (km/s) = 5.74532 6.60769 6.19154
#
# Compressibility (1/GPa) = 0.02692578
#
# Stress axis : x y z
#
# Youngs Moduli (GPa) = 101.85245 101.85245 34.46810
#
# Poissons Ratio (x) = 0.31287 0.13425
# Poissons Ratio (y) = 0.31287 0.13425
# Poissons Ratio (z) = 0.39669 0.39669
#
# Static dielectric constant tensor:
#      x y z
#    x 1.775150 0.000000 0.000000 
#    y 0.000000 1.775150 0.000000 
#    z 0.000000 0.000000 1.879940 
# 
# From -- ./inp_files/5105.got.cif
#   From: 2010.05.17/outbox.cif.g08.bks.cpg/sg192_3_cif.got.tgz:5105.got - 2010.05.20 12:28:01.
