data_PCOD9588205
_publ_section_title
;
Structure prediction by ZEFSAII (Michael W. Deem and Ramdas Pophale) SiO2 
 PCOD9588205
Probable space group: P 6/M M M
;
_chemical_formula_sum "Si O2"
_cell_formula_units_Z 72
_cell_length_a 21.107728
_cell_length_b 21.107728
_cell_length_c 11.777002
_cell_angle_alpha 90.000000
_cell_angle_beta 90.000000
_cell_angle_gamma 120.000000
_cell_volume 4544.105007
_symmetry_space_group_name_H-M "P 6/M M M"
_symmetry_group_IT_number 191
_symmetry_cell_setting 'hexagonal'
loop_
_space_group_symop_operation_xyz
x,y,z
x-y,x,z
-y,x-y,z
-x,-y,z
-x+y,-x,z
y,-x+y,z
x-y,-y,-z
-x,-x+y,-z
y,x,-z
-y,-x,-z
-x+y,y,-z
x,x-y,-z
-x,-y,-z
-x+y,-x,-z
y,-x+y,-z
x,y,-z
x-y,x,-z
-y,x-y,-z
-x+y,y,z
x,x-y,z
-y,-x,z
y,x,z
x-y,-y,z
-x,-x+y,z
loop_
_atom_site_type_symbol
_atom_site_label
_atom_site_fract_x
_atom_site_fract_y
_atom_site_fract_z
Si Si1 0.693148 0.916740 0.631915
Si Si2 0.456565 0.543436 0.363728
Si Si3 0.532948 0.912934 0.000000
Si Si4 0.458072 0.155004 0.762970
O O1 0.668662 0.911485 0.500000
O O2 0.724636 0.862318 0.643898
O O3 0.623452 0.887674 0.712255
O O4 0.750254 0.000000 0.655973
O O5 0.500000 0.500000 0.328415
O O6 0.455936 0.544065 0.500000
O O7 0.496022 0.625190 0.314021
O O8 0.540393 0.873376 0.111243
O O9 0.453195 0.906389 0.000000
O O10 0.591214 0.000000 0.000000
O O11 0.482150 0.241075 0.760400
#
# Coordination Sequence:
#
# PCOD9588205 Si02
#       4
#    24  12  12  24
#     4   9  17  30  50  75 103 132 164 207 256 304
#     4  11  22  37  59  81 103 138 187 231 267 321
#     4  11  21  36  58  76  97 132 177 221 260 311
#     4  11  22  36  53  77 106 135 172 219 271 318
#
# _framework density 15.844704
#
# number of rings (size 3 to 8) (size 9 to 14) (size 15 to 20)
#    0.000    1.667    1.667    4.500    0.000    4.667 
#    1.000    0.000    0.000    0.333    0.000    2.333 
#    0.000    0.000    0.000    0.000    0.000   34.667 
#
# Total GULP energy -401596.393544 kJ/mol
# GULP energy per Si atom -5577.727688 kJ/mol
# Density = 1.580864 g / cm^3
# Si number density = 15.844704 Si / 1000 Ang^3
#
#
#
# Elastic Constant Matrix: (Units=GPa)
#
#
# Indices 1 2 3 4 5 6 
#
# 1 124.1695 77.3734 59.1488 0.0000 0.0000 0.0000
# 2 77.3734 124.1695 59.1488 0.0000 0.0000 0.0000
# 3 59.1488 59.1488 95.3668 0.0000 0.0000 0.0000
# 4 0.0000 0.0000 0.0000 14.7897 0.0000 0.0000
# 5 0.0000 0.0000 0.0000 0.0000 14.7897 0.0000
# 6 0.0000 0.0000 0.0000 0.0000 0.0000 23.3980
#
#
#
# Elastic Compliance Matrix: (Units=1/GPa)
#
#
# Indices 1 2 3 4 5 6 
#
# 1 0.014586 -0.006784 -0.004839 0.000000 0.000000 0.000000
# 2 -0.006784 0.014586 -0.004839 0.000000 0.000000 0.000000
# 3 -0.004839 -0.004839 0.016488 0.000000 0.000000 0.000000
# 4 0.000000 0.000000 0.000000 0.067614 0.000000 0.000000
# 5 0.000000 0.000000 0.000000 0.000000 0.067614 0.000000
# 6 0.000000 0.000000 0.000000 0.000000 0.000000 0.042739
#
#
# Mechanical properties :
#
#
# Convention : Reuss Voigt Hill
#
# Bulk Modulus (GPa) = 78.51516 81.67197 80.09357
# Shear Modulus (GPa) = 19.17208 20.46449 19.81828
#
# Velocity S-wave (km/s) = 3.48228 3.59774 3.54048
# Velocity P-wave (km/s) = 8.11350 8.30153 8.20805
#
# Compressibility (1/GPa) = 0.01273639
#
# Stress axis : x y z
#
# Youngs Moduli (GPa) = 68.56045 68.56045 60.64883
#
# Poissons Ratio (x) = 0.46509 0.29348
# Poissons Ratio (y) = 0.46509 0.29348
# Poissons Ratio (z) = 0.33176 0.33176
#
# Static dielectric constant tensor:
#      x y z
#    x 1.522280 0.000000 0.000000 
#    y 0.000000 1.522280 0.000000 
#    z 0.000000 0.000000 1.537280 
# 
# From -- ./inp_files/2310.got.cif
#   From: 2010.05.17/outbox.cif.g08.bks.cpg/sg191_2_cif.got.tgz:2310.got - 2010.05.20 12:20:32.
