data_PCOD9588822
_publ_section_title
;
Structure prediction by ZEFSAII (Michael W. Deem and Ramdas Pophale) SiO2 
 PCOD9588822
Probable space group: P 6/M C C
;
_chemical_formula_sum "Si O2"
_cell_formula_units_Z 84
_cell_length_a 16.798001
_cell_length_b 16.798001
_cell_length_c 14.752005
_cell_angle_alpha 90.000000
_cell_angle_beta 90.000000
_cell_angle_gamma 120.000000
_cell_volume 3604.930432
_symmetry_space_group_name_H-M "P 6/M C C"
_symmetry_group_IT_number 192
_symmetry_cell_setting 'hexagonal'
loop_
_space_group_symop_operation_xyz
x,y,z
x-y,x,z
-y,x-y,z
-x,-y,z
-x+y,-x,z
y,-x+y,z
x-y,-y,1/2-z
-x,-x+y,1/2-z
y,x,1/2-z
-y,-x,1/2-z
-x+y,y,1/2-z
x,x-y,1/2-z
-x,-y,-z
-x+y,-x,-z
y,-x+y,-z
x,y,-z
x-y,x,-z
-y,x-y,-z
-x+y,y,1/2+z
x,x-y,1/2+z
-y,-x,1/2+z
y,x,1/2+z
x-y,-y,1/2+z
-x,-x+y,1/2+z
loop_
_atom_site_type_symbol
_atom_site_label
_atom_site_fract_x
_atom_site_fract_y
_atom_site_fract_z
Si Si1 0.892816 0.452973 0.639215
Si Si2 0.483993 0.237134 0.352157
Si Si3 0.210412 0.925806 0.813019
Si Si4 0.012561 0.819968 0.500000
O O1 0.897090 0.448545 0.750000
O O2 0.836799 0.504552 0.611730
O O3 0.823101 0.348312 0.606664
O O4 0.000000 0.500000 0.609439
O O5 0.524428 0.262214 0.250000
O O6 0.377557 0.163157 0.341433
O O7 0.117331 0.882670 0.750000
O O8 0.220485 0.978723 0.905433
O O9 0.291971 0.000000 0.750000
O O10 0.920531 0.822143 0.500000
#
# Coordination Sequence:
#
# PCOD9588822 Si02
#       4
#    24  24  24  12
#     4   9  17  28  48  79 121 166 211 266 325 389
#     4   9  19  31  54  86 128 165 218 266 329 392
#     4  11  23  39  65  93 130 170 217 270 335 394
#     4  12  25  42  62  92 126 166 218 272 325 396
#
# _framework density 23.30142
#
# number of rings (size 3 to 8) (size 9 to 14) (size 15 to 20)
#    0.000    2.000    2.857    0.714   12.000    2.286 
#    0.000    0.000    0.000    1.714    0.000    4.000 
#    0.000    2.286    0.000    0.000    0.000    0.000 
#
# Total GULP energy -468285.485345 kJ/mol
# GULP energy per Si atom -5574.827206 kJ/mol
# Density = 2.324839 g / cm^3
# Si number density = 23.301420 Si / 1000 Ang^3
#
#
#
# Elastic Constant Matrix: (Units=GPa)
#
#
# Indices 1 2 3 4 5 6 
#
# 1 166.3743 69.1257 30.7533 0.0000 0.0000 0.0000
# 2 69.1257 166.3743 30.7533 0.0000 0.0000 0.0000
# 3 30.7533 30.7533 116.1203 0.0000 0.0000 0.0000
# 4 0.0000 0.0000 0.0000 -24.9278 0.0000 0.0000
# 5 0.0000 0.0000 0.0000 0.0000 -24.9278 0.0000
# 6 0.0000 0.0000 0.0000 0.0000 0.0000 48.6243
#
#
#
# Elastic Compliance Matrix: (Units=1/GPa)
#
#
# Indices 1 2 3 4 5 6 
#
# 1 0.007422 -0.002861 -0.001208 0.000000 0.000000 0.000000
# 2 -0.002861 0.007422 -0.001208 0.000000 0.000000 0.000000
# 3 -0.001208 -0.001208 0.009252 0.000000 0.000000 0.000000
# 4 0.000000 0.000000 0.000000 -0.040116 0.000000 0.000000
# 5 0.000000 0.000000 0.000000 0.000000 -0.040116 0.000000
# 6 0.000000 0.000000 0.000000 0.000000 0.000000 0.020566
#
#
# Mechanical properties :
#
#
# Convention : Reuss Voigt Hill
#
# Bulk Modulus (GPa) = 73.84038 78.90374 76.37206
# Shear Modulus (GPa) = -243.88562 20.96950 -111.45806
#
# Velocity S-wave (km/s) = -10.24172 3.00313 -6.92366
# Velocity P-wave (km/s) = 10.39707 6.77944 5.57397
#
# Compressibility (1/GPa) = 0.01354273
#
# Stress axis : x y z
#
# Youngs Moduli (GPa) = 134.72778 134.72778 108.08831
#
# Poissons Ratio (x) = 0.38540 0.13059
# Poissons Ratio (y) = 0.38540 0.13059
# Poissons Ratio (z) = 0.16277 0.16277
#
# Static dielectric constant tensor:
#      x y z
#    x 1.913670 0.000000 0.000000 
#    y 0.000000 1.913670 0.000000 
#    z 0.000000 0.000000 1.750440 
# 
# From -- ./inp_files/2564.got.cif
#   From: 2010.05.17/outbox.cif.g08.bks.cpg/sg192_2_cif.got.tgz:2564.got - 2010.05.20 12:28:01.
