data_PCOD9588940
_publ_section_title
;
Structure prediction by ZEFSAII (Michael W. Deem and Ramdas Pophale) SiO2 
 PCOD9588940
Probable space group: P 63/M C M
;
_chemical_formula_sum "Si O2"
_cell_formula_units_Z 96
_cell_length_a 28.999827
_cell_length_b 28.999827
_cell_length_c 8.664201
_cell_angle_alpha 90.000000
_cell_angle_beta 90.000000
_cell_angle_gamma 120.000000
_cell_volume 6310.299391
_symmetry_space_group_name_H-M "P 63/M C M"
_symmetry_group_IT_number 193
_symmetry_cell_setting 'hexagonal'
loop_
_space_group_symop_operation_xyz
x,y,z
x-y,x,1/2+z
-y,x-y,z
-x,-y,1/2+z
-x+y,-x,z
y,-x+y,1/2+z
x-y,-y,1/2-z
-x,-x+y,1/2-z
y,x,1/2-z
-y,-x,-z
-x+y,y,-z
x,x-y,-z
-x,-y,-z
-x+y,-x,1/2-z
y,-x+y,-z
x,y,1/2-z
x-y,x,-z
-y,x-y,1/2-z
-x+y,y,1/2+z
x,x-y,1/2+z
-y,-x,1/2+z
y,x,z
x-y,-y,z
-x,-x+y,z
loop_
_atom_site_type_symbol
_atom_site_label
_atom_site_fract_x
_atom_site_fract_y
_atom_site_fract_z
Si Si1 0.403071 0.403071 0.935520
Si Si2 0.822586 0.547968 0.434824
Si Si3 0.893418 0.396050 0.565328
Si Si4 0.784370 0.667364 0.435489
Si Si5 0.704500 0.704500 0.062415
O O1 0.404129 0.404129 0.750000
O O2 0.349343 0.349343 0.985486
O O3 0.402657 0.454717 0.997572
O O4 0.763979 0.527957 0.500000
O O5 0.822544 0.553494 0.250000
O O6 0.847340 0.510997 0.474105
O O7 0.859363 0.606707 0.506336
O O8 0.883683 0.441842 0.500000
O O9 0.898065 0.400576 0.750000
O O10 0.842990 0.685979 0.500000
O O11 0.786073 0.666790 0.250000
O O12 0.755570 0.700158 0.486192
O O13 0.704407 0.704407 0.250000
#
# Coordination Sequence:
#
# PCOD9588940 Si02
#       5
#    12  24  24  24  12
#     4  11  20  34  51  69  96 132 162 193 235 283
#     4  10  20  33  50  71  92 116 149 190 233 282
#     4  11  23  36  50  71  96 124 157 195 238 289
#     4  10  18  31  48  70  95 126 162 195 231 274
#     4   9  18  30  48  69  97 132 163 193 234 277
#
# _framework density 15.213224
#
# number of rings (size 3 to 8) (size 9 to 14) (size 15 to 20)
#    0.000    1.750    2.500    4.500    0.000    3.000 
#    0.000    2.500    0.000    0.500    0.000    0.000 
#    0.000    0.000    0.000    0.375    0.000    4.500 
#
# Total GULP energy -535803.253959 kJ/mol
# GULP energy per Si atom -5581.283895 kJ/mol
# Density = 1.517860 g / cm^3
# Si number density = 15.213224 Si / 1000 Ang^3
#
#
#
# Elastic Constant Matrix: (Units=GPa)
#
#
# Indices 1 2 3 4 5 6 
#
# 1 130.0293 81.8569 41.8306 0.0000 0.0000 0.0000
# 2 81.8569 130.0293 41.8306 0.0000 0.0000 0.0000
# 3 41.8306 41.8306 51.9702 0.0000 0.0000 0.0000
# 4 0.0000 0.0000 0.0000 17.8374 0.0000 0.0000
# 5 0.0000 0.0000 0.0000 0.0000 17.8374 0.0000
# 6 0.0000 0.0000 0.0000 0.0000 0.0000 24.0862
#
#
#
# Elastic Compliance Matrix: (Units=1/GPa)
#
#
# Indices 1 2 3 4 5 6 
#
# 1 0.013838 -0.006920 -0.005568 0.000000 0.000000 0.000000
# 2 -0.006920 0.013838 -0.005568 0.000000 0.000000 0.000000
# 3 -0.005568 -0.005568 0.028206 0.000000 0.000000 0.000000
# 4 0.000000 0.000000 0.000000 0.056062 0.000000 0.000000
# 5 0.000000 0.000000 0.000000 0.000000 0.056062 0.000000
# 6 0.000000 0.000000 0.000000 0.000000 0.000000 0.041518
#
#
# Mechanical properties :
#
#
# Convention : Reuss Voigt Hill
#
# Bulk Modulus (GPa) = 50.58560 71.45167 61.01863
# Shear Modulus (GPa) = 19.82338 21.71960 20.77149
#
# Velocity S-wave (km/s) = 3.61367 3.78256 3.69908
# Velocity P-wave (km/s) = 7.12284 8.13301 7.64463
#
# Compressibility (1/GPa) = 0.01976847
#
# Stress axis : x y z
#
# Youngs Moduli (GPa) = 72.26237 72.26237 35.45385
#
# Poissons Ratio (x) = 0.50008 0.19742
# Poissons Ratio (y) = 0.50008 0.19742
# Poissons Ratio (z) = 0.40238 0.40238
#
# Static dielectric constant tensor:
#      x y z
#    x 1.499990 0.000000 0.000000 
#    y 0.000000 1.499990 0.000000 
#    z 0.000000 0.000000 1.513990 
# 
# From -- ./inp_files/1266.got.cif
#   From: 2010.05.17/outbox.cif.g08.bks.cpg/sg193_1_cif.got.tgz:1266.got - 2010.05.20 12:33:02.
