data_PCOD9588980
_publ_section_title
;
Structure prediction by ZEFSAII (Michael W. Deem and Ramdas Pophale) SiO2 
 PCOD9588980
Probable space group: P 63/M C M
;
_chemical_formula_sum "Si O2"
_cell_formula_units_Z 144
_cell_length_a 30.025245
_cell_length_b 30.025245
_cell_length_c 9.264742
_cell_angle_alpha 90.000000
_cell_angle_beta 90.000000
_cell_angle_gamma 120.000000
_cell_volume 7233.310050
_symmetry_space_group_name_H-M "P 63/M C M"
_symmetry_group_IT_number 193
_symmetry_cell_setting 'hexagonal'
loop_
_space_group_symop_operation_xyz
x,y,z
x-y,x,1/2+z
-y,x-y,z
-x,-y,1/2+z
-x+y,-x,z
y,-x+y,1/2+z
x-y,-y,1/2-z
-x,-x+y,1/2-z
y,x,1/2-z
-y,-x,-z
-x+y,y,-z
x,x-y,-z
-x,-y,-z
-x+y,-x,1/2-z
y,-x+y,-z
x,y,1/2-z
x-y,x,-z
-y,x-y,1/2-z
-x+y,y,1/2+z
x,x-y,1/2+z
-y,-x,1/2+z
y,x,z
x-y,-y,z
-x,-x+y,z
loop_
_atom_site_type_symbol
_atom_site_label
_atom_site_fract_x
_atom_site_fract_y
_atom_site_fract_z
Si Si1 0.941542 0.151177 0.079445
Si Si2 0.443085 0.801059 0.586938
Si Si3 0.321850 0.404014 0.415185
Si Si4 0.925942 0.416763 0.081692
Si Si5 0.214504 0.883353 0.077478
Si Si6 0.474183 0.271704 0.092666
O O1 0.940086 0.140659 0.250000
O O2 0.922894 0.193002 0.063769
O O3 0.000000 0.175197 0.027371
O O4 0.900225 0.099776 0.000000
O O5 0.392044 0.784088 0.500000
O O6 0.433167 0.783552 0.750000
O O7 0.475736 0.863546 0.586614
O O8 0.476602 0.783230 0.500899
O O9 0.326861 0.388235 0.250000
O O10 0.376628 0.437229 0.499855
O O11 0.272004 0.360951 0.505052
O O12 0.303681 0.445615 0.395859
O O13 0.942448 0.424555 0.250000
O O14 0.941627 0.470814 0.000000
O O15 0.217836 0.873428 0.250000
O O16 0.168644 0.831357 0.000000
O O17 0.484157 0.258668 0.250000
O O18 0.441952 0.220976 0.000000
#
# Coordination Sequence:
#
# PCOD9588980 Si02
#       6
#    24  24  24  24  24  24
#     4   9  19  36  58  86 120 158 201 247 293 343
#     4   9  16  26  39  52  66  86 116 158 209 268
#     4  10  19  29  42  62  91 126 165 210 262 322
#     4   9  16  26  40  58  82 114 155 203 258 317
#     4  10  19  31  48  71 103 142 181 224 278 340
#     4  10  19  28  38  53  73  99 132 172 221 279
#
# _framework density 19.907899
#
# number of rings (size 3 to 8) (size 9 to 14) (size 15 to 20)
#    0.000    2.500    0.000    3.000    0.000    8.333 
#    0.000    0.000    0.000    0.500    0.000    2.333 
#    0.000    0.667    0.000    1.833    0.000    2.667 
#
# Total GULP energy -801706.814321 kJ/mol
# GULP energy per Si atom -5567.408433 kJ/mol
# Density = 1.986259 g / cm^3
# Si number density = 19.907899 Si / 1000 Ang^3
#
#
#
# Elastic Constant Matrix: (Units=GPa)
#
#
# Indices 1 2 3 4 5 6 
#
# 1 55.2366 105.1559 63.9055 0.0000 0.0000 0.0000
# 2 105.1559 55.2366 63.9055 0.0000 0.0000 0.0000
# 3 63.9055 63.9055 171.7225 0.0000 0.0000 0.0000
# 4 0.0000 0.0000 0.0000 -24.4936 0.0000 0.0000
# 5 0.0000 0.0000 0.0000 0.0000 -24.4936 0.0000
# 6 0.0000 0.0000 0.0000 0.0000 0.0000 -24.9596
#
#
#
# Elastic Compliance Matrix: (Units=1/GPa)
#
#
# Indices 1 2 3 4 5 6 
#
# 1 -0.005585 0.014448 -0.003298 0.000000 0.000000 0.000000
# 2 0.014448 -0.005585 -0.003298 0.000000 0.000000 0.000000
# 3 -0.003298 -0.003298 0.008278 0.000000 0.000000 0.000000
# 4 0.000000 0.000000 0.000000 -0.040827 0.000000 0.000000
# 5 0.000000 0.000000 0.000000 0.000000 -0.040827 0.000000
# 6 0.000000 0.000000 0.000000 0.000000 0.000000 -0.040065
#
#
# Mechanical properties :
#
#
# Convention : Reuss Voigt Hill
#
# Bulk Modulus (GPa) = 78.05789 83.12551 80.59170
# Shear Modulus (GPa) = -36.75351 -11.50745 -24.13048
#
# Velocity S-wave (km/s) = -4.30138 -2.40684 -3.48531
# Velocity P-wave (km/s) = 3.82433 5.84139 4.93697
#
# Compressibility (1/GPa) = 0.01281100
#
# Stress axis : x y z
#
# Youngs Moduli (GPa) = -179.06192 -179.06192 120.79847
#
# Poissons Ratio (x) = 2.58703 0.39843
# Poissons Ratio (y) = 2.58703 0.39843
# Poissons Ratio (z) = -0.59060 -0.59060
#
# Static dielectric constant tensor:
#      x y z
#    x 1.696900 0.000000 0.000000 
#    y 0.000000 1.696900 0.000000 
#    z 0.000000 0.000000 1.718410 
# 
# From -- ./inp_files/1567.got.cif
#   From: 2010.05.17/outbox.cif.g08.bks.cpg/sg193_1_cif.got.tgz:1567.got - 2010.05.20 12:33:02.
