data_PCOD9588099
_publ_section_title
;
Structure prediction by ZEFSAII (Michael W. Deem and Ramdas Pophale) SiO2 
 PCOD9588099
Probable space group: P 6/M M M
;
_chemical_formula_sum "Si O2"
_cell_formula_units_Z 72
_cell_length_a 17.533614
_cell_length_b 17.533614
_cell_length_c 15.673287
_cell_angle_alpha 90.000000
_cell_angle_beta 90.000000
_cell_angle_gamma 120.000000
_cell_volume 4172.857947
_symmetry_space_group_name_H-M "P 6/M M M"
_symmetry_group_IT_number 191
_symmetry_cell_setting 'hexagonal'
loop_
_space_group_symop_operation_xyz
x,y,z
x-y,x,z
-y,x-y,z
-x,-y,z
-x+y,-x,z
y,-x+y,z
x-y,-y,-z
-x,-x+y,-z
y,x,-z
-y,-x,-z
-x+y,y,-z
x,x-y,-z
-x,-y,-z
-x+y,-x,-z
y,-x+y,-z
x,y,-z
x-y,x,-z
-y,x-y,-z
-x+y,y,z
x,x-y,z
-y,-x,z
y,x,z
x-y,-y,z
-x,-x+y,z
loop_
_atom_site_type_symbol
_atom_site_label
_atom_site_fract_x
_atom_site_fract_y
_atom_site_fract_z
Si Si1 0.104170 0.895831 0.599819
Si Si2 0.893973 0.106028 0.098193
Si Si3 0.542913 0.900920 0.000000
Si Si4 0.639572 0.533373 0.813438
Si Si5 0.649001 0.824501 0.254158
O O1 0.117006 0.882995 0.500000
O O2 0.144997 0.855004 0.663379
O O3 0.000000 0.849973 0.615635
O O4 0.856791 0.143210 0.171121
O O5 0.000000 0.152613 0.107529
O O6 0.876403 0.123598 0.000000
O O7 0.539869 0.860628 0.091605
O O8 0.454212 0.908424 0.000000
O O9 0.625851 0.000000 0.000000
O O10 0.567799 0.432202 0.793911
O O11 0.584548 0.584548 0.818737
O O12 0.719834 0.585568 0.750624
#
# Coordination Sequence:
#
# PCOD9588099 Si02
#       5
#    12  12  12  24  12
#     4  10  21  38  60  86 116 148 182 225 278 333
#     4  10  21  34  48  72 110 150 182 217 268 333
#     4   7  12  25  44  62  87 129 173 207 248 306
#     4   9  18  32  48  69 100 137 174 217 271 319
#     4  12  22  32  53  82 104 136 187 238 268 322
#
# _framework density 17.254362
#
# number of rings (size 3 to 8) (size 9 to 14) (size 15 to 20)
#    0.000    2.500    0.000    5.333    2.333    1.333 
#    1.000    1.667    0.000    1.000    0.000    4.667 
#    0.000    0.000    0.000    0.000    0.000    0.000 
#
# Total GULP energy -401390.956372 kJ/mol
# GULP energy per Si atom -5574.874394 kJ/mol
# Density = 1.721509 g / cm^3
# Si number density = 17.254362 Si / 1000 Ang^3
#
#
#
# Elastic Constant Matrix: (Units=GPa)
#
#
# Indices 1 2 3 4 5 6 
#
# 1 82.6320 66.9273 58.5654 0.0000 0.0000 0.0000
# 2 66.9273 82.6320 58.5654 0.0000 0.0000 0.0000
# 3 58.5654 58.5654 81.8987 0.0000 0.0000 0.0000
# 4 0.0000 0.0000 0.0000 33.2579 0.0000 0.0000
# 5 0.0000 0.0000 0.0000 0.0000 33.2579 0.0000
# 6 0.0000 0.0000 0.0000 0.0000 0.0000 7.8524
#
#
#
# Elastic Compliance Matrix: (Units=1/GPa)
#
#
# Indices 1 2 3 4 5 6 
#
# 1 0.039436 -0.024239 -0.010868 0.000000 0.000000 0.000000
# 2 -0.024239 0.039436 -0.010868 0.000000 0.000000 0.000000
# 3 -0.010868 -0.010868 0.027753 0.000000 0.000000 0.000000
# 4 0.000000 0.000000 0.000000 0.030068 0.000000 0.000000
# 5 0.000000 0.000000 0.000000 0.000000 0.030068 0.000000
# 6 0.000000 0.000000 0.000000 0.000000 0.000000 0.127350
#
#
# Mechanical properties :
#
#
# Convention : Reuss Voigt Hill
#
# Bulk Modulus (GPa) = 68.13188 68.36430 68.24809
# Shear Modulus (GPa) = 12.78928 19.08062 15.93495
#
# Velocity S-wave (km/s) = 2.72549 3.32903 3.04226
# Velocity P-wave (km/s) = 7.03398 7.38133 7.20975
#
# Compressibility (1/GPa) = 0.01467742
#
# Stress axis : x y z
#
# Youngs Moduli (GPa) = 25.35736 25.35736 36.03188
#
# Poissons Ratio (x) = 0.61463 0.39159
# Poissons Ratio (y) = 0.61463 0.39159
# Poissons Ratio (z) = 0.27558 0.27558
#
# Static dielectric constant tensor:
#      x y z
#    x 1.601680 0.000000 0.000000 
#    y 0.000000 1.601680 0.000000 
#    z 0.000000 0.000000 1.589340 
# 
# From -- ./inp_files/3963.got.cif
#   From: 2010.05.17/outbox.cif.g08.bks.cpg/sg191_2_cif.got.tgz:3963.got - 2010.05.20 12:20:32.
