data_PCOD9588592
_publ_section_title
;
Structure prediction by ZEFSAII (Michael W. Deem and Ramdas Pophale) SiO2 
 PCOD9588592
Probable space group: P 6/M C C
;
_chemical_formula_sum "Si O2"
_cell_formula_units_Z 104
_cell_length_a 20.641342
_cell_length_b 20.641342
_cell_length_c 14.721132
_cell_angle_alpha 90.000000
_cell_angle_beta 90.000000
_cell_angle_gamma 120.000000
_cell_volume 5431.849116
_symmetry_space_group_name_H-M "P 6/M C C"
_symmetry_group_IT_number 192
_symmetry_cell_setting 'hexagonal'
loop_
_space_group_symop_operation_xyz
x,y,z
x-y,x,z
-y,x-y,z
-x,-y,z
-x+y,-x,z
y,-x+y,z
x-y,-y,1/2-z
-x,-x+y,1/2-z
y,x,1/2-z
-y,-x,1/2-z
-x+y,y,1/2-z
x,x-y,1/2-z
-x,-y,-z
-x+y,-x,-z
y,-x+y,-z
x,y,-z
x-y,x,-z
-y,x-y,-z
-x+y,y,1/2+z
x,x-y,1/2+z
-y,-x,1/2+z
y,x,1/2+z
x-y,-y,1/2+z
-x,-x+y,1/2+z
loop_
_atom_site_type_symbol
_atom_site_label
_atom_site_fract_x
_atom_site_fract_y
_atom_site_fract_z
Si Si1 0.080600 0.302155 0.701753
Si Si2 0.473333 0.159574 0.769379
Si Si3 0.833760 0.396872 0.395533
Si Si4 0.666667 0.333334 0.360331
Si Si5 0.043219 0.161936 0.393463
O O1 0.149916 0.299831 0.750000
O O2 0.108712 0.389532 0.694817
O O3 0.065691 0.247695 0.617527
O O4 0.000000 0.262560 0.750000
O O5 0.484492 0.242246 0.750000
O O6 0.492545 0.134373 0.673018
O O7 0.530758 0.158651 0.842803
O O8 0.860313 0.409496 0.500000
O O9 0.744018 0.342492 0.394729
O O10 0.666668 0.333334 0.250000
O O11 0.105877 0.144834 0.354299
O O12 0.039505 0.147227 0.500000
#
# Coordination Sequence:
#
# PCOD9588592 Si02
#       5
#    24  24  24   8  24
#     4  11  22  39  61  83 113 153 197 240 285 345
#     4  10  21  35  52  86 122 149 194 252 297 349
#     4  11  19  33  56  84 117 153 192 241 303 354
#     4  12  16  29  52  82 119 142 187 245 283 334
#     4  10  20  36  59  90 123 153 192 244 300 356
#
# _framework density 19.146336000000002
#
# number of rings (size 3 to 8) (size 9 to 14) (size 15 to 20)
#    0.000    1.385    6.923    0.923    0.000    1.846 
#    0.000    6.923    0.000    1.385    0.000    0.000 
#    0.000    0.000    0.000    0.000    0.000    0.000 
#
# Total GULP energy -579188.730103 kJ/mol
# GULP energy per Si atom -5569.122405 kJ/mol
# Density = 1.910276 g / cm^3
# Si number density = 19.146336 Si / 1000 Ang^3
#
#
#
# Elastic Constant Matrix: (Units=GPa)
#
#
# Indices 1 2 3 4 5 6 
#
# 1 98.9396 48.9826 31.2250 0.0000 0.0000 -0.0002
# 2 48.9826 98.9393 31.2249 0.0000 0.0000 -0.0001
# 3 31.2250 31.2249 110.1043 0.0000 0.0000 0.0000
# 4 0.0000 0.0000 0.0000 18.4199 0.0000 0.0000
# 5 0.0000 0.0000 0.0000 0.0000 18.4199 0.0000
# 6 -0.0002 -0.0001 0.0000 0.0000 0.0000 24.9784
#
#
#
# Elastic Compliance Matrix: (Units=1/GPa)
#
#
# Indices 1 2 3 4 5 6 
#
# 1 0.013849 -0.006169 -0.002178 0.000000 0.000000 0.000000
# 2 -0.006169 0.013849 -0.002178 0.000000 0.000000 0.000000
# 3 -0.002178 -0.002178 0.010318 0.000000 0.000000 0.000000
# 4 0.000000 0.000000 0.000000 0.054289 0.000000 0.000000
# 5 0.000000 0.000000 0.000000 0.000000 0.054289 0.000000
# 6 0.000000 0.000000 0.000000 0.000000 0.000000 0.040035
#
#
# Mechanical properties :
#
#
# Convention : Reuss Voigt Hill
#
# Bulk Modulus (GPa) = 58.94341 58.98313 58.96327
# Shear Modulus (GPa) = 23.43766 25.46703 24.45235
#
# Velocity S-wave (km/s) = 3.50256 3.65105 3.57757
# Velocity P-wave (km/s) = 6.87094 6.97473 6.92303
#
# Compressibility (1/GPa) = 0.01696542
#
# Stress axis : x y z
#
# Youngs Moduli (GPa) = 72.20987 72.20967 96.92170
#
# Poissons Ratio (x) = 0.44544 0.21109
# Poissons Ratio (y) = 0.44544 0.21109
# Poissons Ratio (z) = 0.15727 0.15727
#
# Static dielectric constant tensor:
#      x y z
#    x 1.684450 0.000000 0.000000 
#    y 0.000000 1.684460 0.000000 
#    z 0.000000 0.000000 1.691010 
# 
# From -- ./inp_files/2875.got.cif
#   From: 2010.05.17/outbox.cif.g08.bks.cpg/sg192_2_cif.got.tgz:2875.got - 2010.05.20 12:28:01.
