data_PCOD9588740
_publ_section_title
;
Structure prediction by ZEFSAII (Michael W. Deem and Ramdas Pophale) SiO2 
 PCOD9588740
Probable space group: P 6/M C C
;
_chemical_formula_sum "Si O2"
_cell_formula_units_Z 56
_cell_length_a 13.839135
_cell_length_b 13.839135
_cell_length_c 17.339630
_cell_angle_alpha 90.000000
_cell_angle_beta 90.000000
_cell_angle_gamma 120.000000
_cell_volume 2875.996476
_symmetry_space_group_name_H-M "P 6/M C C"
_symmetry_group_IT_number 192
_symmetry_cell_setting 'hexagonal'
loop_
_space_group_symop_operation_xyz
x,y,z
x-y,x,z
-y,x-y,z
-x,-y,z
-x+y,-x,z
y,-x+y,z
x-y,-y,1/2-z
-x,-x+y,1/2-z
y,x,1/2-z
-y,-x,1/2-z
-x+y,y,1/2-z
x,x-y,1/2-z
-x,-y,-z
-x+y,-x,-z
y,-x+y,-z
x,y,-z
x-y,x,-z
-y,x-y,-z
-x+y,y,1/2+z
x,x-y,1/2+z
-y,-x,1/2+z
y,x,1/2+z
x-y,-y,1/2+z
-x,-x+y,1/2+z
loop_
_atom_site_type_symbol
_atom_site_label
_atom_site_fract_x
_atom_site_fract_y
_atom_site_fract_z
Si Si1 0.472018 0.372952 0.409590
Si Si2 0.790551 0.021534 0.342509
Si Si3 0.666668 0.333334 0.657700
O O1 0.500000 0.500000 0.403221
O O2 0.464579 0.343724 0.500000
O O3 0.352429 0.301130 0.369909
O O4 0.567251 0.353171 0.372217
O O5 0.781129 0.906894 0.369773
O O6 0.778658 0.000000 0.250000
O O7 0.666668 0.333334 0.750000
#
# Coordination Sequence:
#
# PCOD9588740 Si02
#       3
#    24  24   8
#     4  11  25  44  66  94 135 178 224 277 342 409
#     4  10  22  39  65  95 131 170 217 276 336 409
#     4  12  28  41  70 102 136 179 226 291 337 413
#
# _framework density 19.471511
#
# number of rings (size 3 to 8) (size 9 to 14) (size 15 to 20)
#    0.000    1.286    0.000    4.286   12.000    6.857 
#    0.000    0.000    0.000    2.571    0.000    0.000 
#    0.000    0.000    0.000    0.000    0.000    0.000 
#
# Total GULP energy -312817.413959 kJ/mol
# GULP energy per Si atom -5586.025249 kJ/mol
# Density = 1.942719 g / cm^3
# Si number density = 19.471511 Si / 1000 Ang^3
#
#
#
# Elastic Constant Matrix: (Units=GPa)
#
#
# Indices 1 2 3 4 5 6 
#
# 1 140.6772 58.2046 47.1062 0.0001 -0.0002 0.0001
# 2 58.2046 140.6762 47.1065 0.0002 -0.0006 0.0000
# 3 47.1062 47.1065 56.2430 -0.0001 0.0007 0.0001
# 4 0.0001 0.0002 -0.0001 58.7408 0.0021 0.0002
# 5 -0.0002 -0.0006 0.0007 0.0021 58.7355 0.0000
# 6 0.0001 0.0000 0.0001 0.0002 0.0000 41.2364
#
#
#
# Elastic Compliance Matrix: (Units=1/GPa)
#
#
# Indices 1 2 3 4 5 6 
#
# 1 0.010230 -0.001895 -0.006981 0.000000 0.000000 0.000000
# 2 -0.001895 0.010230 -0.006981 0.000000 0.000000 0.000000
# 3 -0.006981 -0.006981 0.029474 0.000000 0.000000 0.000000
# 4 0.000000 0.000000 0.000000 0.017024 -0.000001 0.000000
# 5 0.000000 0.000000 0.000000 -0.000001 0.017025 0.000000
# 6 0.000000 0.000000 0.000000 0.000000 0.000000 0.024250
#
#
# Mechanical properties :
#
#
# Convention : Reuss Voigt Hill
#
# Bulk Modulus (GPa) = 54.88499 71.38123 63.13311
# Shear Modulus (GPa) = 34.24133 44.08782 39.16457
#
# Velocity S-wave (km/s) = 4.19804 4.76355 4.48970
# Velocity P-wave (km/s) = 7.19351 8.18499 7.70521
#
# Compressibility (1/GPa) = 0.01821992
#
# Stress axis : x y z
#
# Youngs Moduli (GPa) = 97.75003 97.74868 33.92810
#
# Poissons Ratio (x) = 0.18524 0.23685
# Poissons Ratio (y) = 0.18524 0.23686
# Poissons Ratio (z) = 0.68240 0.68241
#
# Static dielectric constant tensor:
#      x y z
#    x 1.654440 0.000000 0.000000 
#    y 0.000000 1.654440 0.000000 
#    z 0.000000 0.000000 1.680820 
# 
# From -- ./inp_files/2205.got.cif
#   From: 2010.05.17/outbox.cif.g08.bks.cpg/sg192_2_cif.got.tgz:2205.got - 2010.05.20 12:28:01.
