data_PCOD9588495
_publ_section_title
;
Structure prediction by ZEFSAII (Michael W. Deem and Ramdas Pophale) SiO2 
 PCOD9588495
Probable space group: P 6/M C C
;
_chemical_formula_sum "Si O2"
_cell_formula_units_Z 96
_cell_length_a 22.236484
_cell_length_b 22.236484
_cell_length_c 11.171604
_cell_angle_alpha 90.000000
_cell_angle_beta 90.000000
_cell_angle_gamma 120.000000
_cell_volume 4783.859336
_symmetry_space_group_name_H-M "P 6/M C C"
_symmetry_group_IT_number 192
_symmetry_cell_setting 'hexagonal'
loop_
_space_group_symop_operation_xyz
x,y,z
x-y,x,z
-y,x-y,z
-x,-y,z
-x+y,-x,z
y,-x+y,z
x-y,-y,1/2-z
-x,-x+y,1/2-z
y,x,1/2-z
-y,-x,1/2-z
-x+y,y,1/2-z
x,x-y,1/2-z
-x,-y,-z
-x+y,-x,-z
y,-x+y,-z
x,y,-z
x-y,x,-z
-y,x-y,-z
-x+y,y,1/2+z
x,x-y,1/2+z
-y,-x,1/2+z
y,x,1/2+z
x-y,-y,1/2+z
-x,-x+y,1/2+z
loop_
_atom_site_type_symbol
_atom_site_label
_atom_site_fract_x
_atom_site_fract_y
_atom_site_fract_z
Si Si1 0.500962 0.416453 0.365026
Si Si2 0.011560 0.344816 0.871571
Si Si3 0.228125 0.832669 0.129144
Si Si4 0.300643 0.753846 0.368807
O O1 0.535297 0.464704 0.250000
O O2 0.523947 0.447940 0.500000
O O3 0.582943 0.618406 0.363872
O O4 0.524484 0.358868 0.354959
O O5 0.094544 0.394579 0.867964
O O6 0.000000 0.302707 0.750000
O O7 0.994514 0.308371 0.000000
O O8 0.182843 0.817158 0.250000
O O9 0.246286 0.771806 0.124967
O O10 0.194002 0.830590 0.000000
O O11 0.290268 0.709732 0.250000
O O12 0.311084 0.731312 0.500000
#
# Coordination Sequence:
#
# PCOD9588495 Si02
#       4
#    24  24  24  24
#     4  10  22  38  54  77 108 135 160 200 259 322
#     4  10  20  33  50  73 100 127 154 189 239 297
#     4   9  17  30  49  70  91 120 157 191 225 274
#     4   9  17  31  52  74  95 122 156 191 230 284
#
# _framework density 20.067478999999999
#
# number of rings (size 3 to 8) (size 9 to 14) (size 15 to 20)
#    0.000    2.500    0.000    3.000    0.000    5.500 
#    0.000    2.500    0.000    0.500    0.000    0.000 
#    0.000    0.000    0.000    0.000    0.000    0.000 
#
# Total GULP energy -534959.278347 kJ/mol
# GULP energy per Si atom -5572.492483 kJ/mol
# Density = 2.002180 g / cm^3
# Si number density = 20.067479 Si / 1000 Ang^3
#
#
#
# Elastic Constant Matrix: (Units=GPa)
#
#
# Indices 1 2 3 4 5 6 
#
# 1 44.4062 60.6732 41.3813 0.0000 0.0000 0.0000
# 2 60.6732 44.4062 41.3813 0.0000 0.0000 0.0000
# 3 41.3813 41.3813 266.7142 0.0000 0.0000 0.0000
# 4 0.0000 0.0000 0.0000 -20.9413 0.0000 0.0000
# 5 0.0000 0.0000 0.0000 0.0000 -20.9413 0.0000
# 6 0.0000 0.0000 0.0000 0.0000 0.0000 -8.1335
#
#
#
# Elastic Compliance Matrix: (Units=1/GPa)
#
#
# Indices 1 2 3 4 5 6 
#
# 1 -0.025316 0.036158 -0.001682 0.000000 0.000000 0.000000
# 2 0.036158 -0.025316 -0.001682 0.000000 0.000000 0.000000
# 3 -0.001682 -0.001682 0.004271 0.000000 0.000000 0.000000
# 4 0.000000 0.000000 0.000000 -0.047753 0.000000 0.000000
# 5 0.000000 0.000000 0.000000 0.000000 -0.047753 0.000000
# 6 0.000000 0.000000 0.000000 0.000000 0.000000 -0.122948
#
#
# Mechanical properties :
#
#
# Convention : Reuss Voigt Hill
#
# Bulk Modulus (GPa) = 52.01323 71.37760 61.69542
# Shear Modulus (GPa) = -15.43240 4.13617 -5.64811
#
# Velocity S-wave (km/s) = -2.77614 1.43722 -1.67949
# Velocity P-wave (km/s) = 3.96226 6.19679 5.20094
#
# Compressibility (1/GPa) = 0.01922588
#
# Stress axis : x y z
#
# Youngs Moduli (GPa) = -39.50013 -39.50013 234.12141
#
# Poissons Ratio (x) = 1.42824 0.39381
# Poissons Ratio (y) = 1.42824 0.39381
# Poissons Ratio (z) = -0.06644 -0.06644
#
# Static dielectric constant tensor:
#      x y z
#    x 1.758360 0.000000 0.000000 
#    y 0.000000 1.758360 0.000000 
#    z 0.000000 0.000000 1.959070 
# 
# From -- ./inp_files/1698.got.cif
#   From: 2010.05.17/outbox.cif.g08.bks.cpg/sg192_1_cif.got.tgz:1698.got - 2010.05.20 12:28:01.
