data_PCOD9588970
_publ_section_title
;
Structure prediction by ZEFSAII (Michael W. Deem and Ramdas Pophale) SiO2 
 PCOD9588970
Probable space group: P 63/M C M
;
_chemical_formula_sum "Si O2"
_cell_formula_units_Z 84
_cell_length_a 18.590099
_cell_length_b 18.590099
_cell_length_c 14.758071
_cell_angle_alpha 90.000000
_cell_angle_beta 90.000000
_cell_angle_gamma 120.000000
_cell_volume 4416.961687
_symmetry_space_group_name_H-M "P 63/M C M"
_symmetry_group_IT_number 193
_symmetry_cell_setting 'hexagonal'
loop_
_space_group_symop_operation_xyz
x,y,z
x-y,x,1/2+z
-y,x-y,z
-x,-y,1/2+z
-x+y,-x,z
y,-x+y,1/2+z
x-y,-y,1/2-z
-x,-x+y,1/2-z
y,x,1/2-z
-y,-x,-z
-x+y,y,-z
x,x-y,-z
-x,-y,-z
-x+y,-x,1/2-z
y,-x+y,-z
x,y,1/2-z
x-y,x,-z
-y,x-y,1/2-z
-x+y,y,1/2+z
x,x-y,1/2+z
-y,-x,1/2+z
y,x,z
x-y,-y,z
-x,-x+y,z
loop_
_atom_site_type_symbol
_atom_site_label
_atom_site_fract_x
_atom_site_fract_y
_atom_site_fract_z
Si Si1 0.094536 0.904295 0.109403
Si Si2 0.099786 0.744875 0.647287
Si Si3 0.414406 0.646821 0.250000
Si Si4 0.521902 0.337009 0.550547
O O1 0.159231 0.875026 0.137136
O O2 0.000000 0.847056 0.139905
O O3 0.132430 0.000000 0.139892
O O4 0.094214 0.905787 0.000000
O O5 0.124055 0.733672 0.750000
O O6 0.134162 0.711140 0.567669
O O7 0.000000 0.693117 0.642717
O O8 0.419359 0.735929 0.250000
O O9 0.447482 0.640643 0.153684
O O10 0.574931 0.425070 0.500000
O O11 0.542498 0.271249 0.500000
#
# Coordination Sequence:
#
# PCOD9588970 Si02
#       4
#    24  24  12  24
#     4   9  17  32  55  83 114 153 204 254 300 353
#     4  10  22  37  53  79 118 159 197 247 305 361
#     4  10  18  34  55  88 118 128 181 250 288 350
#     4  12  21  35  60  87 111 148 193 243 301 357
#
# _framework density 19.017596999999999
#
# number of rings (size 3 to 8) (size 9 to 14) (size 15 to 20)
#    0.286    1.429    4.286    1.429    0.000    2.286 
#    0.000    0.000    0.000    1.714    0.000    0.000 
#    0.000    0.000    0.000    0.000    0.000    0.000 
#
# Total GULP energy -467661.578353 kJ/mol
# GULP energy per Si atom -5567.399742 kJ/mol
# Density = 1.897431 g / cm^3
# Si number density = 19.017597 Si / 1000 Ang^3
#
#
#
# Elastic Constant Matrix: (Units=GPa)
#
#
# Indices 1 2 3 4 5 6 
#
# 1 96.3077 51.9886 37.9673 0.0000 0.0000 0.0000
# 2 51.9886 96.3077 37.9673 0.0000 0.0000 0.0000
# 3 37.9673 37.9673 112.4051 0.0000 0.0000 0.0000
# 4 0.0000 0.0000 0.0000 -0.5852 0.0000 0.0000
# 5 0.0000 0.0000 0.0000 0.0000 -0.5852 0.0000
# 6 0.0000 0.0000 0.0000 0.0000 0.0000 22.1595
#
#
#
# Elastic Compliance Matrix: (Units=1/GPa)
#
#
# Indices 1 2 3 4 5 6 
#
# 1 0.015359 -0.007205 -0.002754 0.000000 0.000000 0.000000
# 2 -0.007205 0.015359 -0.002754 0.000000 0.000000 0.000000
# 3 -0.002754 -0.002754 0.010757 0.000000 0.000000 0.000000
# 4 0.000000 0.000000 0.000000 -1.708741 0.000000 0.000000
# 5 0.000000 0.000000 0.000000 0.000000 -1.708741 0.000000
# 6 0.000000 0.000000 0.000000 0.000000 0.000000 0.045127
#
#
# Mechanical properties :
#
#
# Convention : Reuss Voigt Hill
#
# Bulk Modulus (GPa) = 62.31422 62.31855 62.31639
# Shear Modulus (GPa) = -1.51510 16.00429 7.24459
#
# Velocity S-wave (km/s) = -0.89354 2.90410 1.95389
# Velocity P-wave (km/s) = 5.63677 6.63966 6.15866
#
# Compressibility (1/GPa) = 0.01604770
#
# Stress axis : x y z
#
# Youngs Moduli (GPa) = 65.11030 65.11030 92.96405
#
# Poissons Ratio (x) = 0.46913 0.25602
# Poissons Ratio (y) = 0.46913 0.25602
# Poissons Ratio (z) = 0.17931 0.17931
#
# Static dielectric constant tensor:
#      x y z
#    x 1.689620 0.000000 0.000000 
#    y 0.000000 1.689620 0.000000 
#    z 0.000000 0.000000 1.770500 
# 
# From -- ./inp_files/3362.got.cif
#   From: 2010.05.17/outbox.cif.g08.bks.cpg/sg193_2_cif.got.tgz:3362.got - 2010.05.20 12:33:02.
