data_PCOD9588443
_publ_section_title
;
Structure prediction by ZEFSAII (Michael W. Deem and Ramdas Pophale) SiO2 
 PCOD9588443
Probable space group: P 6/M C C
;
_chemical_formula_sum "Si O2"
_cell_formula_units_Z 72
_cell_length_a 14.850365
_cell_length_b 14.850365
_cell_length_c 14.377814
_cell_angle_alpha 90.000000
_cell_angle_beta 90.000000
_cell_angle_gamma 120.000000
_cell_volume 2745.982397
_symmetry_space_group_name_H-M "P 6/M C C"
_symmetry_group_IT_number 192
_symmetry_cell_setting 'hexagonal'
loop_
_space_group_symop_operation_xyz
x,y,z
x-y,x,z
-y,x-y,z
-x,-y,z
-x+y,-x,z
y,-x+y,z
x-y,-y,1/2-z
-x,-x+y,1/2-z
y,x,1/2-z
-y,-x,1/2-z
-x+y,y,1/2-z
x,x-y,1/2-z
-x,-y,-z
-x+y,-x,-z
y,-x+y,-z
x,y,-z
x-y,x,-z
-y,x-y,-z
-x+y,y,1/2+z
x,x-y,1/2+z
-y,-x,1/2+z
y,x,1/2+z
x-y,-y,1/2+z
-x,-x+y,1/2+z
loop_
_atom_site_type_symbol
_atom_site_label
_atom_site_fract_x
_atom_site_fract_y
_atom_site_fract_z
Si Si1 0.556779 0.741217 0.111621
Si Si2 0.889659 0.405866 0.113307
Si Si3 0.784310 0.814023 0.141883
O O1 0.553223 0.841574 0.149355
O O2 0.451671 0.637070 0.136767
O O3 0.661090 0.737715 0.133072
O O4 0.555885 0.746336 0.000000
O O5 0.000000 0.500000 0.144335
O O6 0.896473 0.401268 0.000000
O O7 0.874344 0.795242 0.102361
O O8 0.811168 0.811168 0.250000
#
# Coordination Sequence:
#
# PCOD9588443 Si02
#       3
#    24  24  24
#     4  10  19  33  56  86 118 151 188 233 289 351
#     4   9  17  29  48  78 113 146 180 222 277 339
#     4  10  21  37  57  79 108 152 201 246 294 349
#
# _framework density 26.220124999999999
#
# number of rings (size 3 to 8) (size 9 to 14) (size 15 to 20)
#    0.000    2.333    0.000    3.000    0.000    8.000 
#    0.000    0.000    0.000   25.000    0.000    0.000 
#    0.000    0.000    0.000    0.000    0.000    0.333 
#
# Total GULP energy -402055.337402 kJ/mol
# GULP energy per Si atom -5584.101908 kJ/mol
# Density = 2.616045 g / cm^3
# Si number density = 26.220125 Si / 1000 Ang^3
#
#
#
# Elastic Constant Matrix: (Units=GPa)
#
#
# Indices 1 2 3 4 5 6 
#
# 1 119.6902 42.0703 -3.1947 0.0000 0.0000 0.0000
# 2 42.0703 119.6902 -3.1947 0.0000 0.0000 0.0000
# 3 -3.1947 -3.1947 87.3363 0.0000 0.0000 0.0000
# 4 0.0000 0.0000 0.0000 16.1776 0.0000 0.0000
# 5 0.0000 0.0000 0.0000 0.0000 16.1776 0.0000
# 6 0.0000 0.0000 0.0000 0.0000 0.0000 38.8099
#
#
#
# Elastic Compliance Matrix: (Units=1/GPa)
#
#
# Indices 1 2 3 4 5 6 
#
# 1 0.009537 -0.003346 0.000226 0.000000 0.000000 0.000000
# 2 -0.003346 0.009537 0.000226 0.000000 0.000000 0.000000
# 3 0.000226 0.000226 0.011467 0.000000 0.000000 0.000000
# 4 0.000000 0.000000 0.000000 0.061814 0.000000 0.000000
# 5 0.000000 0.000000 0.000000 0.000000 0.061814 0.000000
# 6 0.000000 0.000000 0.000000 0.000000 0.000000 0.025767
#
#
# Mechanical properties :
#
#
# Convention : Reuss Voigt Hill
#
# Bulk Modulus (GPa) = 40.39711 44.23094 42.31403
# Shear Modulus (GPa) = 25.77673 33.63539 29.70606
#
# Velocity S-wave (km/s) = 3.13883 3.58552 3.36958
# Velocity P-wave (km/s) = 5.34572 5.83498 5.59570
#
# Compressibility (1/GPa) = 0.02475425
#
# Stress axis : x y z
#
# Youngs Moduli (GPa) = 104.85356 104.85356 87.21009
#
# Poissons Ratio (x) = 0.35086 -0.01975
# Poissons Ratio (y) = 0.35086 -0.01975
# Poissons Ratio (z) = -0.02374 -0.02374
#
# Static dielectric constant tensor:
#      x y z
#    x 2.084180 0.000000 0.000000 
#    y 0.000000 2.084180 0.000000 
#    z 0.000000 0.000000 2.077440 
# 
# From -- ./inp_files/3775.got.cif
#   From: 2010.05.17/outbox.cif.g08.bks.cpg/sg192_2_cif.got.tgz:3775.got - 2010.05.20 12:28:01.
