data_PCOD9588053
_publ_section_title
;
Structure prediction by ZEFSAII (Michael W. Deem and Ramdas Pophale) SiO2 
 PCOD9588053
Probable space group: P 6/M M M
;
_chemical_formula_sum "Si O2"
_cell_formula_units_Z 120
_cell_length_a 17.855578
_cell_length_b 17.855578
_cell_length_c 25.081003
_cell_angle_alpha 90.000000
_cell_angle_beta 90.000000
_cell_angle_gamma 120.000000
_cell_volume 6925.057094
_symmetry_space_group_name_H-M "P 6/M M M"
_symmetry_group_IT_number 191
_symmetry_cell_setting 'hexagonal'
loop_
_space_group_symop_operation_xyz
x,y,z
x-y,x,z
-y,x-y,z
-x,-y,z
-x+y,-x,z
y,-x+y,z
x-y,-y,-z
-x,-x+y,-z
y,x,-z
-y,-x,-z
-x+y,y,-z
x,x-y,-z
-x,-y,-z
-x+y,-x,-z
y,-x+y,-z
x,y,-z
x-y,x,-z
-y,x-y,-z
-x+y,y,z
x,x-y,z
-y,-x,z
y,x,z
x-y,-y,z
-x,-x+y,z
loop_
_atom_site_type_symbol
_atom_site_label
_atom_site_fract_x
_atom_site_fract_y
_atom_site_fract_z
Si Si1 0.000000 0.652375 0.936289
Si Si2 0.000000 0.826599 0.934998
Si Si3 0.632156 0.732508 0.438873
Si Si4 0.468378 0.104395 0.661121
Si Si5 0.511365 0.667164 0.130657
Si Si6 0.101448 0.731196 0.234738
O O1 0.085046 0.655451 0.913073
O O2 0.000000 0.739770 0.918573
O O3 0.000000 0.650297 0.000000
O O4 0.913062 0.826124 0.917775
O O5 0.000000 0.827282 0.000000
O O6 0.600957 0.708462 0.500000
O O7 0.668745 0.834373 0.433385
O O8 0.702064 0.702064 0.429626
O O9 0.557711 0.684974 0.395127
O O10 0.569920 0.139839 0.667227
O O11 0.425385 0.124694 0.710781
O O12 0.421556 0.000000 0.661182
O O13 0.503372 0.751686 0.119604
O O14 0.418487 0.581514 0.134079
O O15 0.563714 0.684530 0.186051
O O16 0.166761 0.833240 0.228834
O O17 0.000000 0.699743 0.235190
#
# Coordination Sequence:
#
# PCOD9588053 Si02
#       6
#    12  12  24  24  24  24
#     4  11  23  39  59  81 109 145 182 215 257 321
#     4   9  17  31  53  81 111 141 175 216 259 303
#     4   9  17  29  46  70 101 138 179 221 265 314
#     4   9  17  29  48  74 101 130 169 217 265 313
#     4  11  23  39  59  83 110 141 178 224 273 320
#     4  10  20  35  57  83 110 141 179 222 267 314
#
# _framework density 17.328375999999999
#
# number of rings (size 3 to 8) (size 9 to 14) (size 15 to 20)
#    0.000    2.200    1.000    2.400    0.000    3.600 
#    0.000    2.000    0.000    6.000    0.000    1.400 
#    0.000    4.800    0.000    0.200    0.000    0.000 
#
# Total GULP energy -669140.777445 kJ/mol
# GULP energy per Si atom -5576.173145 kJ/mol
# Density = 1.728894 g / cm^3
# Si number density = 17.328376 Si / 1000 Ang^3
#
#
#
# Elastic Constant Matrix: (Units=GPa)
#
#
# Indices 1 2 3 4 5 6 
#
# 1 117.5664 75.8536 42.6636 0.0000 0.0000 0.0000
# 2 75.8536 117.5664 42.6636 0.0000 0.0000 0.0000
# 3 42.6636 42.6636 87.5452 0.0000 0.0000 0.0000
# 4 0.0000 0.0000 0.0000 18.3730 0.0000 0.0000
# 5 0.0000 0.0000 0.0000 0.0000 18.3730 0.0000
# 6 0.0000 0.0000 0.0000 0.0000 0.0000 20.8564
#
#
#
# Elastic Compliance Matrix: (Units=1/GPa)
#
#
# Indices 1 2 3 4 5 6 
#
# 1 0.015280 -0.008694 -0.003210 0.000000 0.000000 0.000000
# 2 -0.008694 0.015280 -0.003210 0.000000 0.000000 0.000000
# 3 -0.003210 -0.003210 0.014551 0.000000 0.000000 0.000000
# 4 0.000000 0.000000 0.000000 0.054428 0.000000 0.000000
# 5 0.000000 0.000000 0.000000 0.000000 0.054428 0.000000
# 6 0.000000 0.000000 0.000000 0.000000 0.000000 0.047947
#
#
# Mechanical properties :
#
#
# Convention : Reuss Voigt Hill
#
# Bulk Modulus (GPa) = 67.18330 71.67103 69.42717
# Shear Modulus (GPa) = 21.08816 22.28697 21.68756
#
# Velocity S-wave (km/s) = 3.49230 3.59019 3.54158
# Velocity P-wave (km/s) = 7.42404 7.65743 7.54164
#
# Compressibility (1/GPa) = 0.01488465
#
# Stress axis : x y z
#
# Youngs Moduli (GPa) = 65.44616 65.44616 68.72416
#
# Poissons Ratio (x) = 0.56897 0.22057
# Poissons Ratio (y) = 0.56897 0.22057
# Poissons Ratio (z) = 0.21005 0.21005
#
# Static dielectric constant tensor:
#      x y z
#    x 1.578380 0.000000 0.000000 
#    y 0.000000 1.578380 0.000000 
#    z 0.000000 0.000000 1.597900 
# 
# From -- ./inp_files/8531.got.cif
#   From: 2010.05.17/outbox.cif.g08.bks.cpg/sg191_5_cif.got.tgz:8531.got - 2010.05.20 12:20:32.
