data_PCOD9588471
_publ_section_title
;
Structure prediction by ZEFSAII (Michael W. Deem and Ramdas Pophale) SiO2 
 PCOD9588471
Probable space group: P 6/M C C
;
_chemical_formula_sum "Si O2"
_cell_formula_units_Z 132
_cell_length_a 16.472175
_cell_length_b 16.472175
_cell_length_c 25.834257
_cell_angle_alpha 90.000000
_cell_angle_beta 90.000000
_cell_angle_gamma 120.000000
_cell_volume 6070.556457
_symmetry_space_group_name_H-M "P 6/M C C"
_symmetry_group_IT_number 192
_symmetry_cell_setting 'hexagonal'
loop_
_space_group_symop_operation_xyz
x,y,z
x-y,x,z
-y,x-y,z
-x,-y,z
-x+y,-x,z
y,-x+y,z
x-y,-y,1/2-z
-x,-x+y,1/2-z
y,x,1/2-z
-y,-x,1/2-z
-x+y,y,1/2-z
x,x-y,1/2-z
-x,-y,-z
-x+y,-x,-z
y,-x+y,-z
x,y,-z
x-y,x,-z
-y,x-y,-z
-x+y,y,1/2+z
x,x-y,1/2+z
-y,-x,1/2+z
y,x,1/2+z
x-y,-y,1/2+z
-x,-x+y,1/2+z
loop_
_atom_site_type_symbol
_atom_site_label
_atom_site_fract_x
_atom_site_fract_y
_atom_site_fract_z
Si Si1 0.143125 0.480464 0.943953
Si Si2 0.225335 0.099801 0.500000
Si Si3 0.228285 0.311447 0.284001
Si Si4 0.223001 0.095749 0.611590
Si Si5 0.998255 0.596512 0.854594
Si Si6 0.468038 0.143352 0.057854
O O1 0.082589 0.425285 0.895730
O O2 0.138056 0.575309 0.943952
O O3 0.246587 0.497846 0.938574
O O4 0.105508 0.435177 0.000000
O O5 0.166487 0.154266 0.500000
O O6 0.275961 0.121776 0.555778
O O7 0.228033 0.228033 0.250000
O O8 0.178414 0.356827 0.250000
O O9 0.167590 0.280012 0.336271
O O10 0.335680 0.366739 0.304631
O O11 0.167207 0.151867 0.612131
O O12 0.000000 0.500000 0.844873
O O13 0.087790 0.669561 0.889334
O O14 0.422337 0.109791 0.000000
#
# Coordination Sequence:
#
# PCOD9588471 Si02
#       6
#    24  12  24  24  24  24
#     4   9  17  32  58  93 131 167 205 255 325 402
#     4   8  15  28  52  82 121 162 206 254 302 360
#     4  12  26  43  65  88 124 169 218 270 326 388
#     4  10  19  36  59  91 126 167 211 256 308 363
#     4  10  23  41  63  89 119 163 217 275 336 398
#     4   9  17  32  58  94 133 171 210 261 326 402
#
# _framework density 21.744301
#
# number of rings (size 3 to 8) (size 9 to 14) (size 15 to 20)
#    0.000    2.182    1.818    1.182    2.545    5.455 
#    3.273    0.000    0.000    0.000    0.000    0.000 
#    0.000    0.000    0.000    0.091    0.000    0.364 
#
# Total GULP energy -736577.177670 kJ/mol
# GULP energy per Si atom -5580.130134 kJ/mol
# Density = 2.169481 g / cm^3
# Si number density = 21.744301 Si / 1000 Ang^3
#
#
#
# Elastic Constant Matrix: (Units=GPa)
#
#
# Indices 1 2 3 4 5 6 
#
# 1 57.3563 10.3153 50.4419 0.0000 0.0000 0.0000
# 2 10.3153 57.3563 50.4419 0.0000 0.0000 0.0000
# 3 50.4419 50.4419 185.8183 0.0000 0.0000 0.0000
# 4 0.0000 0.0000 0.0000 37.9204 0.0000 0.0000
# 5 0.0000 0.0000 0.0000 0.0000 37.9204 0.0000
# 6 0.0000 0.0000 0.0000 0.0000 0.0000 23.5205
#
#
#
# Elastic Compliance Matrix: (Units=1/GPa)
#
#
# Indices 1 2 3 4 5 6 
#
# 1 0.023040 0.001782 -0.006738 0.000000 0.000000 0.000000
# 2 0.001782 0.023040 -0.006738 0.000000 0.000000 0.000000
# 3 -0.006738 -0.006738 0.009040 0.000000 0.000000 0.000000
# 4 0.000000 0.000000 0.000000 0.026371 0.000000 0.000000
# 5 0.000000 0.000000 0.000000 0.000000 0.026371 0.000000
# 6 0.000000 0.000000 0.000000 0.000000 0.000000 0.042516
#
#
# Mechanical properties :
#
#
# Convention : Reuss Voigt Hill
#
# Bulk Modulus (GPa) = 31.51399 58.10322 44.80861
# Shear Modulus (GPa) = 27.12310 32.49438 29.80874
#
# Velocity S-wave (km/s) = 3.53564 3.86992 3.70655
# Velocity P-wave (km/s) = 5.58499 6.83722 6.24258
#
# Compressibility (1/GPa) = 0.03173194
#
# Stress axis : x y z
#
# Youngs Moduli (GPa) = 43.40217 43.40217 110.62038
#
# Poissons Ratio (x) = -0.07735 0.74539
# Poissons Ratio (y) = -0.07735 0.74539
# Poissons Ratio (z) = 0.29246 0.29246
#
# Static dielectric constant tensor:
#      x y z
#    x 1.807260 0.000000 0.000000 
#    y 0.000000 1.807260 0.000000 
#    z 0.000000 0.000000 1.838480 
# 
# From -- ./inp_files/5816.got.cif
#   From: 2010.05.17/outbox.cif.g08.bks.cpg/sg192_3_cif.got.tgz:5816.got - 2010.05.20 12:28:01.
