data_PCOD9588696
_publ_section_title
;
Structure prediction by ZEFSAII (Michael W. Deem and Ramdas Pophale) SiO2 
 PCOD9588696
Probable space group: P 6/M C C
;
_chemical_formula_sum "Si O2"
_cell_formula_units_Z 168
_cell_length_a 17.700778
_cell_length_b 17.700778
_cell_length_c 29.687137
_cell_angle_alpha 90.000000
_cell_angle_beta 90.000000
_cell_angle_gamma 120.000000
_cell_volume 8055.335976
_symmetry_space_group_name_H-M "P 6/M C C"
_symmetry_group_IT_number 192
_symmetry_cell_setting 'hexagonal'
loop_
_space_group_symop_operation_xyz
x,y,z
x-y,x,z
-y,x-y,z
-x,-y,z
-x+y,-x,z
y,-x+y,z
x-y,-y,1/2-z
-x,-x+y,1/2-z
y,x,1/2-z
-y,-x,1/2-z
-x+y,y,1/2-z
x,x-y,1/2-z
-x,-y,-z
-x+y,-x,-z
y,-x+y,-z
x,y,-z
x-y,x,-z
-y,x-y,-z
-x+y,y,1/2+z
x,x-y,1/2+z
-y,-x,1/2+z
y,x,1/2+z
x-y,-y,1/2+z
-x,-x+y,1/2+z
loop_
_atom_site_type_symbol
_atom_site_label
_atom_site_fract_x
_atom_site_fract_y
_atom_site_fract_z
Si Si1 0.165114 0.784295 0.700501
Si Si2 0.500099 0.662997 0.548733
Si Si3 0.280044 0.331990 0.378394
Si Si4 0.339025 0.450058 0.854480
Si Si5 0.674558 0.158564 0.950025
Si Si6 0.180527 0.181183 0.948018
Si Si7 0.478868 0.899004 0.703040
O O1 0.174406 0.825595 0.750000
O O2 0.104514 0.789098 0.661296
O O3 0.260575 0.831280 0.678718
O O4 0.128281 0.680524 0.703690
O O5 0.543829 0.673080 0.500000
O O6 0.555247 0.683697 0.593281
O O7 0.472250 0.736573 0.550170
O O8 0.423233 0.563807 0.552569
O O9 0.370066 0.357270 0.352690
O O10 0.298650 0.413484 0.410646
O O11 0.244835 0.249399 0.411273
O O12 0.415760 0.545995 0.840361
O O13 0.686822 0.129332 0.000000
O O14 0.086758 0.174002 0.942589
O O15 0.208694 0.209775 0.000000
O O16 0.429669 0.859337 0.750000
O O17 0.500000 0.000000 0.704951
#
# Coordination Sequence:
#
# PCOD9588696 Si02
#       7
#    24  24  24  24  24  24  24
#     4  12  25  44  64  95 127 171 229 279 349 413
#     4  10  22  38  59  90 127 170 222 271 326 398
#     4  12  24  42  63  98 137 173 224 277 344 415
#     4  12  25  41  66  94 128 174 217 284 338 398
#     4  10  21  39  62  90 129 175 223 278 332 396
#     4  10  22  42  70 103 139 178 221 276 343 417
#     4  11  23  44  68  93 129 171 220 284 344 398
#
# _framework density 20.855741999999999
#
# number of rings (size 3 to 8) (size 9 to 14) (size 15 to 20)
#    0.000    1.000    4.286    2.571    0.000    3.429 
#    0.857    2.143    0.000    0.000    0.000    0.000 
#    0.000    1.143    0.000    0.000    0.000    0.000 
#
# Total GULP energy -936573.599535 kJ/mol
# GULP energy per Si atom -5574.842854 kJ/mol
# Density = 2.080827 g / cm^3
# Si number density = 20.855742 Si / 1000 Ang^3
#
#
#
# Elastic Constant Matrix: (Units=GPa)
#
#
# Indices 1 2 3 4 5 6 
#
# 1 51.2993 10.6349 33.9303 0.0000 0.0000 0.0000
# 2 10.6349 51.2993 33.9303 0.0000 0.0000 0.0000
# 3 33.9303 33.9303 154.7235 0.0000 0.0000 0.0000
# 4 0.0000 0.0000 0.0000 76.3836 0.0000 0.0000
# 5 0.0000 0.0000 0.0000 0.0000 76.3836 0.0000
# 6 0.0000 0.0000 0.0000 0.0000 0.0000 20.3322
#
#
#
# Elastic Compliance Matrix: (Units=1/GPa)
#
#
# Indices 1 2 3 4 5 6 
#
# 1 0.022922 -0.001669 -0.004661 0.000000 0.000000 0.000000
# 2 -0.001669 0.022922 -0.004661 0.000000 0.000000 0.000000
# 3 -0.004661 -0.004661 0.008507 0.000000 0.000000 0.000000
# 4 0.000000 0.000000 0.000000 0.013092 0.000000 0.000000
# 5 0.000000 0.000000 0.000000 0.000000 0.013092 0.000000
# 6 0.000000 0.000000 0.000000 0.000000 0.000000 0.049183
#
#
# Mechanical properties :
#
#
# Convention : Reuss Voigt Hill
#
# Bulk Modulus (GPa) = 30.89260 46.03482 38.46371
# Shear Modulus (GPa) = 30.77117 46.54166 38.65641
#
# Velocity S-wave (km/s) = 3.84530 4.72911 4.30992
# Velocity P-wave (km/s) = 5.87876 7.20695 6.57647
#
# Compressibility (1/GPa) = 0.03237021
#
# Stress axis : x y z
#
# Youngs Moduli (GPa) = 43.62590 43.62590 117.54646
#
# Poissons Ratio (x) = 0.07283 0.54784
# Poissons Ratio (y) = 0.07283 0.54784
# Poissons Ratio (z) = 0.20333 0.20333
#
# Static dielectric constant tensor:
#      x y z
#    x 1.943550 0.000000 0.000000 
#    y 0.000000 1.943550 0.000000 
#    z 0.000000 0.000000 1.798950 
# 
# From -- ./inp_files/7189.got.cif
#   From: 2010.05.17/outbox.cif.g08.bks.cpg/sg192_4_cif.got.tgz:7189.got - 2010.05.20 12:28:01.
