data_PCOD9588266
_publ_section_title
;
Structure prediction by ZEFSAII (Michael W. Deem and Ramdas Pophale) SiO2 
 PCOD9588266
Probable space group: P 6/M M M
;
_chemical_formula_sum "Si O2"
_cell_formula_units_Z 132
_cell_length_a 18.000000
_cell_length_b 18.000000
_cell_length_c 27.000000
_cell_angle_alpha 90.000000
_cell_angle_beta 90.000000
_cell_angle_gamma 120.000000
_cell_volume 7575.990232
_symmetry_space_group_name_H-M "P 6/M M M"
_symmetry_group_IT_number 191
_symmetry_cell_setting 'hexagonal'
loop_
_space_group_symop_operation_xyz
x,y,z
x-y,x,z
-y,x-y,z
-x,-y,z
-x+y,-x,z
y,-x+y,z
x-y,-y,-z
-x,-x+y,-z
y,x,-z
-y,-x,-z
-x+y,y,-z
x,x-y,-z
-x,-y,-z
-x+y,-x,-z
y,-x+y,-z
x,y,-z
x-y,x,-z
-y,x-y,-z
-x+y,y,z
x,x-y,z
-y,-x,z
y,x,z
x-y,-y,z
-x,-x+y,z
loop_
_atom_site_type_symbol
_atom_site_label
_atom_site_fract_x
_atom_site_fract_y
_atom_site_fract_z
Si Si1 0.495322 0.334568 0.920148
Si Si2 0.095820 0.358387 0.559204
Si Si3 0.353693 0.091188 0.000000
Si Si4 0.495331 0.333598 0.363480
Si Si5 0.643432 0.906389 0.722717
Si Si6 0.665497 0.504941 0.803525
O O1 0.517980 0.258990 0.927833
O O2 0.575173 0.424828 0.935130
O O3 0.412940 0.309249 0.952769
O O4 0.480009 0.337481 0.861838
O O5 0.098197 0.365329 0.500000
O O6 0.167331 0.334661 0.575195
O O7 0.123863 0.448972 0.584447
O O8 0.000000 0.290391 0.574549
O O9 0.333451 0.166726 0.000000
O O10 0.271385 0.000000 0.000000
O O11 0.523894 0.261947 0.362078
O O12 0.573868 0.426133 0.354292
O O13 0.422449 0.306394 0.322373
O O14 0.669942 0.834971 0.724436
O O15 0.588189 0.896514 0.771504
O O16 0.721146 0.000000 0.717329
O O17 0.741040 0.482081 0.795580
O O18 0.575042 0.424959 0.788231
#
# Coordination Sequence:
#
# PCOD9588266 Si02
#       6
#    24  24  12  24  24  24
#     4   9  17  29  46  69  98 131 162 188 215 254
#     4   9  18  32  49  69  93 122 156 194 237 281
#     4  10  21  35  49  66  89 117 150 190 237 283
#     4  10  20  33  49  70  97 128 159 189 222 263
#     4  10  21  35  50  69  93 121 153 191 236 281
#     4   9  17  29  46  69  98 131 163 191 219 255
#
# _framework density 17.423465
#
# number of rings (size 3 to 8) (size 9 to 14) (size 15 to 20)
#    0.000    2.545    0.000    1.909    0.000    5.818 
#    0.000    5.455    0.000    1.545    0.000    1.273 
#    0.000    4.364    0.000    9.273    0.000    0.000 
#
# Total GULP energy -735928.348509 kJ/mol
# GULP energy per Si atom -5575.214761 kJ/mol
# Density = 1.738381 g / cm^3
# Si number density = 17.423465 Si / 1000 Ang^3
#
#
#
# Elastic Constant Matrix: (Units=GPa)
#
#
# Indices 1 2 3 4 5 6 
#
# 1 54.3752 96.9469 29.1895 0.0000 0.0000 0.0000
# 2 96.9469 54.3752 29.1895 0.0000 0.0000 0.0000
# 3 29.1895 29.1895 24.0447 0.0000 0.0000 0.0000
# 4 0.0000 0.0000 0.0000 2.7401 0.0000 0.0000
# 5 0.0000 0.0000 0.0000 0.0000 2.7401 0.0000
# 6 0.0000 0.0000 0.0000 0.0000 0.0000 -21.2858
#
#
#
# Elastic Compliance Matrix: (Units=1/GPa)
#
#
# Indices 1 2 3 4 5 6 
#
# 1 -0.005530 0.017960 -0.015089 0.000000 0.000000 0.000000
# 2 0.017960 -0.005530 -0.015089 0.000000 0.000000 0.000000
# 3 -0.015089 -0.015089 0.078225 0.000000 0.000000 0.000000
# 4 0.000000 0.000000 0.000000 0.364946 0.000000 0.000000
# 5 0.000000 0.000000 0.000000 0.000000 0.364946 0.000000
# 6 0.000000 0.000000 0.000000 0.000000 0.000000 -0.046980
#
#
# Mechanical properties :
#
#
# Convention : Reuss Voigt Hill
#
# Bulk Modulus (GPa) = 23.40426 49.27190 36.33808
# Shear Modulus (GPa) = 6.33908 -4.66316 0.83796
#
# Velocity S-wave (km/s) = 1.90949 -1.63774 0.69425
# Velocity P-wave (km/s) = 4.28057 4.97636 4.64152
#
# Compressibility (1/GPa) = 0.04272726
#
# Stress axis : x y z
#
# Youngs Moduli (GPa) = -180.83153 -180.83153 12.78363
#
# Poissons Ratio (x) = 3.24770 0.19290
# Poissons Ratio (y) = 3.24770 0.19290
# Poissons Ratio (z) = -2.72863 -2.72863
#
# Static dielectric constant tensor:
#      x y z
#    x 1.577810 0.000000 0.000000 
#    y 0.000000 1.577810 0.000000 
#    z 0.000000 0.000000 1.624000 
# 
# From -- ./inp_files/9737.got.cif
#   From: 2010.05.17/outbox.ucp.g08.bks.cvg/sg191_5_cif.got.tgz:9737.got - 2010.06.11 15:22:43.
