data_PCOD9588653
_publ_section_title
;
Structure prediction by ZEFSAII (Michael W. Deem and Ramdas Pophale) SiO2 
 PCOD9588653
Probable space group: P 6/M C C
;
_chemical_formula_sum "Si O2"
_cell_formula_units_Z 156
_cell_length_a 21.932460
_cell_length_b 21.932460
_cell_length_c 20.162171
_cell_angle_alpha 90.000000
_cell_angle_beta 90.000000
_cell_angle_gamma 120.000000
_cell_volume 8399.290795
_symmetry_space_group_name_H-M "P 6/M C C"
_symmetry_group_IT_number 192
_symmetry_cell_setting 'hexagonal'
loop_
_space_group_symop_operation_xyz
x,y,z
x-y,x,z
-y,x-y,z
-x,-y,z
-x+y,-x,z
y,-x+y,z
x-y,-y,1/2-z
-x,-x+y,1/2-z
y,x,1/2-z
-y,-x,1/2-z
-x+y,y,1/2-z
x,x-y,1/2-z
-x,-y,-z
-x+y,-x,-z
y,-x+y,-z
x,y,-z
x-y,x,-z
-y,x-y,-z
-x+y,y,1/2+z
x,x-y,1/2+z
-y,-x,1/2+z
y,x,1/2+z
x-y,-y,1/2+z
-x,-x+y,1/2+z
loop_
_atom_site_type_symbol
_atom_site_label
_atom_site_fract_x
_atom_site_fract_y
_atom_site_fract_z
Si Si1 0.871537 0.840791 0.645944
Si Si2 0.356656 0.125459 0.078005
Si Si3 0.726964 0.730047 0.323056
Si Si4 0.652325 0.192955 0.919917
Si Si5 0.319772 0.802495 0.580591
Si Si6 0.842756 0.875018 0.000000
Si Si7 0.716756 0.618610 0.424330
O O1 0.862798 0.909783 0.654661
O O2 0.811528 0.778024 0.687091
O O3 0.848225 0.809259 0.570955
O O4 0.302883 0.076165 0.135106
O O5 0.435748 0.141727 0.095682
O O6 0.365211 0.202814 0.078296
O O7 0.338038 0.100312 0.000000
O O8 0.700472 0.700472 0.250000
O O9 0.708013 0.667110 0.372764
O O10 0.578411 0.182728 0.895931
O O11 0.723475 0.262485 0.896597
O O12 0.666035 0.129036 0.907583
O O13 0.652130 0.200055 0.000000
O O14 0.318718 0.800632 0.500000
O O15 0.910805 0.867156 0.000000
O O16 0.703245 0.631396 0.500000
#
# Coordination Sequence:
#
# PCOD9588653 Si02
#       7
#    24  24  24  24  24  12  24
#     4  10  21  36  55  77 100 124 156 202 259 315
#     4   9  19  35  55  78 104 135 173 214 256 305
#     4  12  25  38  52  72 100 138 182 218 254 305
#     4   8  13  24  47  81 114 138 162 202 258 314
#     4   8  13  24  47  81 114 138 162 202 258 314
#     4   8  15  28  48  74  98 120 143 178 232 296
#     4   9  19  35  55  78 104 135 173 214 256 305
#
# _framework density 18.572996
#
# number of rings (size 3 to 8) (size 9 to 14) (size 15 to 20)
#    0.000    2.769    0.000    3.769    2.154    4.923 
#    0.000    0.769    0.000    6.462    0.000    0.000 
#    0.000    2.462    0.000    0.000    0.000    0.000 
#
# Total GULP energy -868693.622155 kJ/mol
# GULP energy per Si atom -5568.548860 kJ/mol
# Density = 1.853072 g / cm^3
# Si number density = 18.572996 Si / 1000 Ang^3
#
#
#
# Elastic Constant Matrix: (Units=GPa)
#
#
# Indices 1 2 3 4 5 6 
#
# 1 48.4249 -0.1907 6.1561 0.0000 0.0000 0.0000
# 2 -0.1907 48.4249 6.1561 0.0000 0.0000 0.0000
# 3 6.1561 6.1561 52.8153 0.0000 0.0000 0.0000
# 4 0.0000 0.0000 0.0000 -1.8889 0.0000 0.0000
# 5 0.0000 0.0000 0.0000 0.0000 -1.8889 0.0000
# 6 0.0000 0.0000 0.0000 0.0000 0.0000 24.3078
#
#
#
# Elastic Compliance Matrix: (Units=1/GPa)
#
#
# Indices 1 2 3 4 5 6 
#
# 1 0.020969 0.000399 -0.002491 0.000000 0.000000 0.000000
# 2 0.000399 0.020969 -0.002491 0.000000 0.000000 0.000000
# 3 -0.002491 -0.002491 0.019515 0.000000 0.000000 0.000000
# 4 0.000000 0.000000 0.000000 -0.529404 0.000000 0.000000
# 5 0.000000 0.000000 0.000000 0.000000 -0.529404 0.000000
# 6 0.000000 0.000000 0.000000 0.000000 0.000000 0.041139
#
#
# Mechanical properties :
#
#
# Convention : Reuss Voigt Hill
#
# Bulk Modulus (GPa) = 19.12490 19.32313 19.22401
# Shear Modulus (GPa) = -5.37852 13.27557 3.94853
#
# Velocity S-wave (km/s) = -1.70357 2.67643 1.45965
# Velocity P-wave (km/s) = 2.53968 4.46962 3.63507
#
# Compressibility (1/GPa) = 0.05228786
#
# Stress axis : x y z
#
# Youngs Moduli (GPa) = 47.69008 47.69008 51.24393
#
# Poissons Ratio (x) = -0.01904 0.12763
# Poissons Ratio (y) = -0.01904 0.12763
# Poissons Ratio (z) = 0.11878 0.11878
#
# Static dielectric constant tensor:
#      x y z
#    x 1.670840 0.000000 0.000000 
#    y 0.000000 1.670840 0.000000 
#    z 0.000000 0.000000 1.694550 
# 
# From -- ./inp_files/5235.got.cif
#   From: 2010.05.17/outbox.cif.g08.bks.cpg/sg192_3_cif.got.tgz:5235.got - 2010.05.20 12:28:01.
