data_PCOD9588017
_publ_section_title
;
Structure prediction by ZEFSAII (Michael W. Deem and Ramdas Pophale) SiO2 
 PCOD9588017
Probable space group: P 6/M M M
;
_chemical_formula_sum "Si O2"
_cell_formula_units_Z 108
_cell_length_a 30.220604
_cell_length_b 30.220604
_cell_length_c 7.335861
_cell_angle_alpha 90.000000
_cell_angle_beta 90.000000
_cell_angle_gamma 120.000000
_cell_volume 5802.137353
_symmetry_space_group_name_H-M "P 6/M M M"
_symmetry_group_IT_number 191
_symmetry_cell_setting 'hexagonal'
loop_
_space_group_symop_operation_xyz
x,y,z
x-y,x,z
-y,x-y,z
-x,-y,z
-x+y,-x,z
y,-x+y,z
x-y,-y,-z
-x,-x+y,-z
y,x,-z
-y,-x,-z
-x+y,y,-z
x,x-y,-z
-x,-y,-z
-x+y,-x,-z
y,-x+y,-z
x,y,-z
x-y,x,-z
-y,x-y,-z
-x+y,y,z
x,x-y,z
-y,-x,z
y,x,z
x-y,-y,z
-x,-x+y,z
loop_
_atom_site_type_symbol
_atom_site_label
_atom_site_fract_x
_atom_site_fract_y
_atom_site_fract_z
Si Si1 0.058880 0.392820 0.722425
Si Si2 0.938770 0.161214 0.000000
Si Si3 0.490273 0.881490 0.722246
Si Si4 0.764279 0.431640 0.278377
Si Si5 0.937993 0.235502 0.707393
O O1 0.059859 0.392473 0.500000
O O2 0.087475 0.451321 0.782573
O O3 0.079764 0.354771 0.776896
O O4 0.000000 0.366550 0.778685
O O5 0.927007 0.187709 0.829863
O O6 0.899299 0.100702 0.000000
O O7 0.000000 0.181326 0.000000
O O8 0.490907 0.883006 0.500000
O O9 0.449379 0.898758 0.778398
O O10 0.466455 0.822611 0.778675
O O11 0.764853 0.433162 0.500000
O O12 0.723444 0.446887 0.215196
O O13 0.747544 0.373772 0.226956
O O14 0.920390 0.220526 0.500000
O O15 0.000000 0.270213 0.704859
#
# Coordination Sequence:
#
# PCOD9588017 Si02
#       5
#    24  12  24  24  24
#     4   8  13  22  36  53  77 112 150 186 228 278
#     4  10  20  34  54  79 105 133 165 201 241 285
#     4   8  13  19  27  44  71 101 137 184 233 280
#     4   8  12  17  24  33  48  75 113 156 203 256
#     4   8  15  29  48  70  97 129 165 202 237 276
#
# _framework density 18.61383
#
# number of rings (size 3 to 8) (size 9 to 14) (size 15 to 20)
#    0.000    3.778    0.000    2.889    0.000    1.778 
#    0.000    3.333    0.000    4.111    0.000    0.778 
#    0.000    4.444    0.000    6.000    0.000    0.000 
#
# Total GULP energy -601370.280465 kJ/mol
# GULP energy per Si atom -5568.243338 kJ/mol
# Density = 1.857146 g / cm^3
# Si number density = 18.613830 Si / 1000 Ang^3
#
#
#
# Elastic Constant Matrix: (Units=GPa)
#
#
# Indices 1 2 3 4 5 6 
#
# 1 93.0342 55.4424 16.7715 0.0000 0.0000 0.0000
# 2 55.4424 93.0342 16.7715 0.0000 0.0000 0.0000
# 3 16.7715 16.7715 75.5332 0.0000 0.0000 0.0000
# 4 0.0000 0.0000 0.0000 18.0170 0.0000 0.0000
# 5 0.0000 0.0000 0.0000 0.0000 18.0170 0.0000
# 6 0.0000 0.0000 0.0000 0.0000 0.0000 18.7959
#
#
#
# Elastic Compliance Matrix: (Units=1/GPa)
#
#
# Indices 1 2 3 4 5 6 
#
# 1 0.016846 -0.009755 -0.001574 0.000000 0.000000 0.000000
# 2 -0.009755 0.016846 -0.001574 0.000000 0.000000 0.000000
# 3 -0.001574 -0.001574 0.013938 0.000000 0.000000 0.000000
# 4 0.000000 0.000000 0.000000 0.055503 0.000000 0.000000
# 5 0.000000 0.000000 0.000000 0.000000 0.055503 0.000000
# 6 0.000000 0.000000 0.000000 0.000000 0.000000 0.053203
#
#
# Mechanical properties :
#
#
# Convention : Reuss Voigt Hill
#
# Bulk Modulus (GPa) = 45.82502 48.84138 47.33320
# Shear Modulus (GPa) = 20.41464 22.47375 21.44419
#
# Velocity S-wave (km/s) = 3.31531 3.47849 3.39788
# Velocity P-wave (km/s) = 6.27115 6.51379 6.39362
#
# Compressibility (1/GPa) = 0.02182214
#
# Stress axis : x y z
#
# Youngs Moduli (GPa) = 59.36078 59.36078 71.74430
#
# Poissons Ratio (x) = 0.57909 0.11296
# Poissons Ratio (y) = 0.57909 0.11296
# Poissons Ratio (z) = 0.09346 0.09346
#
# Static dielectric constant tensor:
#      x y z
#    x 1.633570 0.000000 0.000000 
#    y 0.000000 1.633570 0.000000 
#    z 0.000000 0.000000 1.761400 
# 
# From -- ./inp_files/1744.got.cif
#   From: 2010.05.17/outbox.cif.g08.bks.cpg/sg191_1_cif.got.tgz:1744.got - 2010.05.20 12:20:32.
