data_PCOD9588589
_publ_section_title
;
Structure prediction by ZEFSAII (Michael W. Deem and Ramdas Pophale) SiO2 
 PCOD9588589
Probable space group: P 6/M C C
;
_chemical_formula_sum "Si O2"
_cell_formula_units_Z 144
_cell_length_a 23.102524
_cell_length_b 23.102524
_cell_length_c 18.427137
_cell_angle_alpha 90.000000
_cell_angle_beta 90.000000
_cell_angle_gamma 120.000000
_cell_volume 8517.406142
_symmetry_space_group_name_H-M "P 6/M C C"
_symmetry_group_IT_number 192
_symmetry_cell_setting 'hexagonal'
loop_
_space_group_symop_operation_xyz
x,y,z
x-y,x,z
-y,x-y,z
-x,-y,z
-x+y,-x,z
y,-x+y,z
x-y,-y,1/2-z
-x,-x+y,1/2-z
y,x,1/2-z
-y,-x,1/2-z
-x+y,y,1/2-z
x,x-y,1/2-z
-x,-y,-z
-x+y,-x,-z
y,-x+y,-z
x,y,-z
x-y,x,-z
-y,x-y,-z
-x+y,y,1/2+z
x,x-y,1/2+z
-y,-x,1/2+z
y,x,1/2+z
x-y,-y,1/2+z
-x,-x+y,1/2+z
loop_
_atom_site_type_symbol
_atom_site_label
_atom_site_fract_x
_atom_site_fract_y
_atom_site_fract_z
Si Si1 0.038395 0.888307 0.585980
Si Si2 0.923116 0.520763 0.283699
Si Si3 0.853308 0.263136 0.703141
Si Si4 0.375679 0.825979 0.412838
Si Si5 0.255644 0.068153 0.704689
Si Si6 0.224911 0.706291 0.586305
O O1 0.041401 0.879619 0.500000
O O2 0.055156 0.840413 0.631243
O O3 0.964502 0.873165 0.604352
O O4 0.895923 0.447962 0.250000
O O5 0.888308 0.558914 0.250737
O O6 0.893507 0.499739 0.366620
O O7 0.000000 0.561988 0.250000
O O8 0.793220 0.206780 0.750000
O O9 0.904828 0.237578 0.688687
O O10 0.823925 0.276904 0.631060
O O11 0.378583 0.838911 0.500000
O O12 0.425941 0.797047 0.397504
O O13 0.301202 0.763814 0.395529
O O14 0.250245 0.125123 0.750000
O O15 0.223544 0.000000 0.750000
O O16 0.217929 0.710049 0.500000
#
# Coordination Sequence:
#
# PCOD9588589 Si02
#       6
#    24  24  24  24  24  24
#     4  10  20  36  59  87 118 148 183 230 288 348
#     4  11  22  38  59  84 114 155 199 243 286 344
#     4  11  22  37  58  82 114 153 198 244 289 339
#     4  10  20  37  61  91 123 153 189 240 301 359
#     4  11  22  37  58  82 110 149 194 238 284 336
#     4  10  20  36  60  90 121 151 188 238 298 357
#
# _framework density 16.906555999999998
#
# number of rings (size 3 to 8) (size 9 to 14) (size 15 to 20)
#    0.000    1.500    5.000    1.000    0.000    2.667 
#    0.000    2.500    0.000    3.000    0.000    0.000 
#    0.000    0.000    0.000    0.000    0.000    0.000 
#
# Total GULP energy -801936.605535 kJ/mol
# GULP energy per Si atom -5569.004205 kJ/mol
# Density = 1.686808 g / cm^3
# Si number density = 16.906556 Si / 1000 Ang^3
#
#
#
# Elastic Constant Matrix: (Units=GPa)
#
#
# Indices 1 2 3 4 5 6 
#
# 1 121.1233 61.2836 51.4232 0.0000 0.0000 0.0000
# 2 61.2836 121.1233 51.4232 0.0000 0.0000 0.0000
# 3 51.4232 51.4232 59.6059 0.0000 0.0000 0.0000
# 4 0.0000 0.0000 0.0000 132.1840 0.0000 0.0000
# 5 0.0000 0.0000 0.0000 0.0000 132.1840 0.0000
# 6 0.0000 0.0000 0.0000 0.0000 0.0000 29.9198
#
#
#
# Elastic Compliance Matrix: (Units=1/GPa)
#
#
# Indices 1 2 3 4 5 6 
#
# 1 0.013693 -0.003018 -0.009209 0.000000 0.000000 0.000000
# 2 -0.003018 0.013693 -0.009209 0.000000 0.000000 0.000000
# 3 -0.009209 -0.009209 0.032667 0.000000 0.000000 0.000000
# 4 0.000000 0.000000 0.000000 0.007565 0.000000 0.000000
# 5 0.000000 0.000000 0.000000 0.000000 0.007565 0.000000
# 6 0.000000 0.000000 0.000000 0.000000 0.000000 0.033423
#
#
# Mechanical properties :
#
#
# Convention : Reuss Voigt Hill
#
# Bulk Modulus (GPa) = 58.20991 70.01251 64.11121
# Shear Modulus (GPa) = 31.80537 68.03905 49.92221
#
# Velocity S-wave (km/s) = 4.34204 6.35071 5.43989
# Velocity P-wave (km/s) = 7.72288 9.76098 8.80112
#
# Compressibility (1/GPa) = 0.01717921
#
# Stress axis : x y z
#
# Youngs Moduli (GPa) = 73.02992 73.02992 30.61203
#
# Poissons Ratio (x) = 0.22043 0.28191
# Poissons Ratio (y) = 0.22043 0.28191
# Poissons Ratio (z) = 0.67255 0.67255
#
# Static dielectric constant tensor:
#      x y z
#    x 1.572150 0.000000 0.000000 
#    y 0.000000 1.572150 0.000000 
#    z 0.000000 0.000000 1.564080 
# 
# From -- ./inp_files/4340.got.cif
#   From: 2010.05.17/outbox.cif.g08.bks.cpg/sg192_3_cif.got.tgz:4340.got - 2010.05.20 12:28:01.
