data_PCOD9588803
_publ_section_title
;
Structure prediction by ZEFSAII (Michael W. Deem and Ramdas Pophale) SiO2 
 PCOD9588803
Probable space group: P 6/M C C
;
_chemical_formula_sum "Si O2"
_cell_formula_units_Z 108
_cell_length_a 17.301888
_cell_length_b 17.301888
_cell_length_c 20.351440
_cell_angle_alpha 90.000000
_cell_angle_beta 90.000000
_cell_angle_gamma 120.000000
_cell_volume 5276.096963
_symmetry_space_group_name_H-M "P 6/M C C"
_symmetry_group_IT_number 192
_symmetry_cell_setting 'hexagonal'
loop_
_space_group_symop_operation_xyz
x,y,z
x-y,x,z
-y,x-y,z
-x,-y,z
-x+y,-x,z
y,-x+y,z
x-y,-y,1/2-z
-x,-x+y,1/2-z
y,x,1/2-z
-y,-x,1/2-z
-x+y,y,1/2-z
x,x-y,1/2-z
-x,-y,-z
-x+y,-x,-z
y,-x+y,-z
x,y,-z
x-y,x,-z
-y,x-y,-z
-x+y,y,1/2+z
x,x-y,1/2+z
-y,-x,1/2+z
y,x,1/2+z
x-y,-y,1/2+z
-x,-x+y,1/2+z
loop_
_atom_site_type_symbol
_atom_site_label
_atom_site_fract_x
_atom_site_fract_y
_atom_site_fract_z
Si Si1 0.733277 0.099646 0.285546
Si Si2 0.745836 0.868833 0.000000
Si Si3 0.075949 0.478258 0.611380
Si Si4 0.934962 0.804639 0.642382
Si Si5 0.593673 0.377148 0.500000
Si Si6 0.022465 0.683537 0.000000
O O1 0.808395 0.191606 0.250000
O O2 0.660902 0.112863 0.325480
O O3 0.796123 0.089231 0.338373
O O4 0.679999 0.000000 0.250000
O O5 0.801986 0.918231 0.935589
O O6 0.710116 0.764018 0.000000
O O7 0.662424 0.885265 0.000000
O O8 0.152917 0.551512 0.563714
O O9 0.000000 0.500000 0.632197
O O10 0.022891 0.391785 0.564034
O O11 0.868590 0.835593 0.668817
O O12 0.571500 0.273593 0.500000
#
# Coordination Sequence:
#
# PCOD9588803 Si02
#       6
#    24  12  24  24  12  12
#     4  12  26  44  67  96 133 188 243 284 329 401
#     4  12  20  35  62  98 130 171 218 270 351 412
#     4  11  25  45  70 104 134 169 223 285 348 415
#     4  12  22  39  59  94 136 179 228 275 330 391
#     4   9  22  46  74 110 138 164 206 276 369 445
#     4  11  22  37  65 101 132 171 216 279 348 423
#
# _framework density 20.469676
#
# number of rings (size 3 to 8) (size 9 to 14) (size 15 to 20)
#    0.222    0.444    6.667    1.556    0.000    5.778 
#    0.000    1.111    0.000    0.000    0.000    0.000 
#    0.000    0.000    0.000    0.000    0.000    0.000 
#
# Total GULP energy -602108.055038 kJ/mol
# GULP energy per Si atom -5575.074584 kJ/mol
# Density = 2.042309 g / cm^3
# Si number density = 20.469676 Si / 1000 Ang^3
#
#
#
# Elastic Constant Matrix: (Units=GPa)
#
#
# Indices 1 2 3 4 5 6 
#
# 1 108.1426 33.3896 26.6588 0.0000 0.0000 0.0000
# 2 33.3896 108.1426 26.6588 0.0000 0.0000 0.0000
# 3 26.6588 26.6588 73.7132 0.0000 0.0000 0.0000
# 4 0.0000 0.0000 0.0000 19.1381 0.0000 0.0000
# 5 0.0000 0.0000 0.0000 0.0000 19.1381 0.0000
# 6 0.0000 0.0000 0.0000 0.0000 0.0000 37.3765
#
#
#
# Elastic Compliance Matrix: (Units=1/GPa)
#
#
# Indices 1 2 3 4 5 6 
#
# 1 0.010779 -0.002599 -0.002958 0.000000 0.000000 0.000000
# 2 -0.002599 0.010779 -0.002958 0.000000 0.000000 0.000000
# 3 -0.002958 -0.002958 0.015706 0.000000 0.000000 0.000000
# 4 0.000000 0.000000 0.000000 0.052252 0.000000 0.000000
# 5 0.000000 0.000000 0.000000 0.000000 0.052252 0.000000
# 6 0.000000 0.000000 0.000000 0.000000 0.000000 0.026755
#
#
# Mechanical properties :
#
#
# Convention : Reuss Voigt Hill
#
# Bulk Modulus (GPa) = 49.42540 51.49030 50.45785
# Shear Modulus (GPa) = 26.00152 28.68328 27.34240
#
# Velocity S-wave (km/s) = 3.56792 3.74740 3.65876
# Velocity P-wave (km/s) = 6.41650 6.62820 6.52321
#
# Compressibility (1/GPa) = 0.02023251
#
# Stress axis : x y z
#
# Youngs Moduli (GPa) = 92.77561 92.77561 63.67037
#
# Poissons Ratio (x) = 0.24110 0.18836
# Poissons Ratio (y) = 0.24110 0.18836
# Poissons Ratio (z) = 0.27446 0.27446
#
# Static dielectric constant tensor:
#      x y z
#    x 1.741030 0.000000 0.000000 
#    y 0.000000 1.741030 0.000000 
#    z 0.000000 0.000000 1.788270 
# 
# From -- ./inp_files/4911.got.cif
#   From: 2010.05.17/outbox.cif.g08.bks.cpg/sg192_3_cif.got.tgz:4911.got - 2010.05.20 12:28:01.
