data_PCOD9588805
_publ_section_title
;
Structure prediction by ZEFSAII (Michael W. Deem and Ramdas Pophale) SiO2 
 PCOD9588805
Probable space group: P 6/M C C
;
_chemical_formula_sum "Si O2"
_cell_formula_units_Z 144
_cell_length_a 21.526619
_cell_length_b 21.526619
_cell_length_c 16.922603
_cell_angle_alpha 90.000000
_cell_angle_beta 90.000000
_cell_angle_gamma 120.000000
_cell_volume 6791.245753
_symmetry_space_group_name_H-M "P 6/M C C"
_symmetry_group_IT_number 192
_symmetry_cell_setting 'hexagonal'
loop_
_space_group_symop_operation_xyz
x,y,z
x-y,x,z
-y,x-y,z
-x,-y,z
-x+y,-x,z
y,-x+y,z
x-y,-y,1/2-z
-x,-x+y,1/2-z
y,x,1/2-z
-y,-x,1/2-z
-x+y,y,1/2-z
x,x-y,1/2-z
-x,-y,-z
-x+y,-x,-z
y,-x+y,-z
x,y,-z
x-y,x,-z
-y,x-y,-z
-x+y,y,1/2+z
x,x-y,1/2+z
-y,-x,1/2+z
y,x,1/2+z
x-y,-y,1/2+z
-x,-x+y,1/2+z
loop_
_atom_site_type_symbol
_atom_site_label
_atom_site_fract_x
_atom_site_fract_y
_atom_site_fract_z
Si Si1 0.964053 0.360307 0.324554
Si Si2 0.051977 0.889722 0.403138
Si Si3 0.824152 0.459733 0.819223
Si Si4 0.783415 0.677923 0.593488
Si Si5 0.535781 0.779561 0.093918
Si Si6 0.508895 0.597905 0.408907
O O1 0.890433 0.353982 0.293253
O O2 0.947307 0.300244 0.389198
O O3 0.000000 0.346205 0.250000
O O4 0.019097 0.439169 0.357894
O O5 0.970898 0.863955 0.378578
O O6 0.051593 0.888730 0.500000
O O7 0.078336 0.835402 0.374753
O O8 0.801806 0.400903 0.750000
O O9 0.765334 0.476500 0.856484
O O10 0.865270 0.439597 0.885151
O O11 0.795020 0.682497 0.500000
O O12 0.796215 0.614066 0.621760
O O13 0.532891 0.851610 0.101441
O O14 0.526863 0.759778 0.000000
O O15 0.516371 0.583681 0.500000
#
# Coordination Sequence:
#
# PCOD9588805 Si02
#       6
#    24  24  24  24  24  24
#     4  11  22  38  59  88 123 154 194 253 302 360
#     4   9  17  29  51  83 120 159 199 244 291 344
#     4  11  22  40  62  88 125 159 199 248 309 363
#     4   9  19  35  57  84 119 157 195 247 303 356
#     4   9  21  40  59  88 123 156 204 257 301 362
#     4  11  23  38  65  91 116 158 203 248 304 364
#
# _framework density 21.203768
#
# number of rings (size 3 to 8) (size 9 to 14) (size 15 to 20)
#    0.000    2.000    1.667    1.667    2.333    4.000 
#    1.000    0.000    0.000    0.000    0.000    0.000 
#    0.000    1.333    0.000    0.000    0.000    0.000 
#
# Total GULP energy -803688.194246 kJ/mol
# GULP energy per Si atom -5581.168016 kJ/mol
# Density = 2.115551 g / cm^3
# Si number density = 21.203768 Si / 1000 Ang^3
#
#
#
# Elastic Constant Matrix: (Units=GPa)
#
#
# Indices 1 2 3 4 5 6 
#
# 1 84.1281 36.5082 2.0320 0.0000 0.0000 0.0000
# 2 36.5082 84.1281 2.0320 0.0000 0.0000 0.0000
# 3 2.0320 2.0320 30.9965 0.0000 0.0000 0.0000
# 4 0.0000 0.0000 0.0000 15.9815 0.0000 0.0000
# 5 0.0000 0.0000 0.0000 0.0000 15.9815 0.0000
# 6 0.0000 0.0000 0.0000 0.0000 0.0000 23.8099
#
#
#
# Elastic Compliance Matrix: (Units=1/GPa)
#
#
# Indices 1 2 3 4 5 6 
#
# 1 0.014654 -0.006346 -0.000545 0.000000 0.000000 0.000000
# 2 -0.006346 0.014654 -0.000545 0.000000 0.000000 0.000000
# 3 -0.000545 -0.000545 0.032333 0.000000 0.000000 0.000000
# 4 0.000000 0.000000 0.000000 0.062572 0.000000 0.000000
# 5 0.000000 0.000000 0.000000 0.000000 0.062572 0.000000
# 6 0.000000 0.000000 0.000000 0.000000 0.000000 0.041999
#
#
# Mechanical properties :
#
#
# Convention : Reuss Voigt Hill
#
# Bulk Modulus (GPa) = 21.38119 31.15522 26.26820
# Shear Modulus (GPa) = 19.28680 21.73329 20.51005
#
# Velocity S-wave (km/s) = 3.01922 3.20499 3.11349
# Velocity P-wave (km/s) = 4.71803 5.33115 5.03393
#
# Compressibility (1/GPa) = 0.04677009
#
# Stress axis : x y z
#
# Youngs Moduli (GPa) = 68.24219 68.24219 30.92809
#
# Poissons Ratio (x) = 0.43306 0.01684
# Poissons Ratio (y) = 0.43306 0.01684
# Poissons Ratio (z) = 0.03717 0.03717
#
# Static dielectric constant tensor:
#      x y z
#    x 1.774490 0.000000 0.000000 
#    y 0.000000 1.774490 0.000000 
#    z 0.000000 0.000000 1.790620 
# 
# From -- ./inp_files/5138.got.cif
#   From: 2010.05.17/outbox.cif.g08.bks.cpg/sg192_3_cif.got.tgz:5138.got - 2010.05.20 12:28:01.
