data_PCOD9588617
_publ_section_title
;
Structure prediction by ZEFSAII (Michael W. Deem and Ramdas Pophale) SiO2 
 PCOD9588617
Probable space group: P 6/M C C
;
_chemical_formula_sum "Si O2"
_cell_formula_units_Z 162
_cell_length_a 22.157238
_cell_length_b 22.157238
_cell_length_c 21.367208
_cell_angle_alpha 90.000000
_cell_angle_beta 90.000000
_cell_angle_gamma 120.000000
_cell_volume 9084.680427
_symmetry_space_group_name_H-M "P 6/M C C"
_symmetry_group_IT_number 192
_symmetry_cell_setting 'hexagonal'
loop_
_space_group_symop_operation_xyz
x,y,z
x-y,x,z
-y,x-y,z
-x,-y,z
-x+y,-x,z
y,-x+y,z
x-y,-y,1/2-z
-x,-x+y,1/2-z
y,x,1/2-z
-y,-x,1/2-z
-x+y,y,1/2-z
x,x-y,1/2-z
-x,-y,-z
-x+y,-x,-z
y,-x+y,-z
x,y,-z
x-y,x,-z
-y,x-y,-z
-x+y,y,1/2+z
x,x-y,1/2+z
-y,-x,1/2+z
y,x,1/2+z
x-y,-y,1/2+z
-x,-x+y,1/2+z
loop_
_atom_site_type_symbol
_atom_site_label
_atom_site_fract_x
_atom_site_fract_y
_atom_site_fract_z
Si Si1 0.498069 0.648103 0.393658
Si Si2 0.500000 0.500000 0.750000
Si Si3 0.752664 0.351911 0.000000
Si Si4 0.862263 0.712825 0.821176
Si Si5 0.900013 0.400693 0.651962
Si Si6 0.377566 0.377383 0.927833
Si Si7 0.452893 0.242622 0.179770
Si Si8 0.732623 0.003141 0.672293
O O1 0.439803 0.640327 0.441764
O O2 0.455626 0.582525 0.348958
O O3 0.559288 0.638398 0.423132
O O4 0.527762 0.722924 0.362283
O O5 0.568374 0.522627 0.708457
O O6 0.722985 0.404789 0.000000
O O7 0.868781 0.737561 0.750000
O O8 0.836830 0.630709 0.820928
O O9 0.940765 0.747338 0.845354
O O10 0.798976 0.721529 0.845859
O O11 0.945053 0.402428 0.591679
O O12 0.837143 0.322527 0.660067
O O13 0.330916 0.324178 0.872143
O O14 0.364193 0.351042 0.000000
O O15 0.475084 0.237542 0.250000
O O16 0.719715 0.000000 0.750000
#
# Coordination Sequence:
#
# PCOD9588617 Si02
#       8
#    24   6  12  24  24  24  24  24
#     4  12  23  43  61  86 119 161 211 260 311 375
#     4  12  24  40  66  96 116 164 198 260 318 388
#     4  10  24  44  65  78 110 168 218 252 311 385
#     4   9  18  33  61  90 121 158 200 251 299 364
#     4  12  26  40  65  91 125 159 206 257 319 374
#     4  12  25  40  63  94 126 158 202 263 321 368
#     4  11  23  39  61  91 120 157 202 259 314 369
#     4  10  20  38  63  93 126 164 207 248 307 375
#
# _framework density 17.832218000000001
#
# number of rings (size 3 to 8) (size 9 to 14) (size 15 to 20)
#    0.148    0.889    5.185    1.778    2.074    0.593 
#    2.222    2.222    1.630    0.296    0.000    2.074 
#    0.000    0.000    0.000    1.333    0.000    1.481 
#
# Total GULP energy -902779.737872 kJ/mol
# GULP energy per Si atom -5572.714431 kJ/mol
# Density = 1.779163 g / cm^3
# Si number density = 17.832218 Si / 1000 Ang^3
#
#
#
# Elastic Constant Matrix: (Units=GPa)
#
#
# Indices 1 2 3 4 5 6 
#
# 1 66.5594 17.1488 19.1635 0.0000 0.0000 0.0000
# 2 17.1488 66.5594 19.1635 0.0000 0.0000 0.0000
# 3 19.1635 19.1635 65.3474 0.0000 0.0000 0.0000
# 4 0.0000 0.0000 0.0000 -64.6184 0.0000 0.0000
# 5 0.0000 0.0000 0.0000 0.0000 -64.6184 0.0000
# 6 0.0000 0.0000 0.0000 0.0000 0.0000 24.7053
#
#
#
# Elastic Compliance Matrix: (Units=1/GPa)
#
#
# Indices 1 2 3 4 5 6 
#
# 1 0.017019 -0.003220 -0.004047 0.000000 0.000000 0.000000
# 2 -0.003220 0.017019 -0.004047 0.000000 0.000000 0.000000
# 3 -0.004047 -0.004047 0.017676 0.000000 0.000000 0.000000
# 4 0.000000 0.000000 0.000000 -0.015475 0.000000 0.000000
# 5 0.000000 0.000000 0.000000 0.000000 -0.015475 0.000000
# 6 0.000000 0.000000 0.000000 0.000000 0.000000 0.040477
#
#
# Mechanical properties :
#
#
# Convention : Reuss Voigt Hill
#
# Bulk Modulus (GPa) = 34.37872 34.37976 34.37924
# Shear Modulus (GPa) = 53.44041 -11.37362 21.03339
#
# Velocity S-wave (km/s) = 5.48028 -2.52824 3.43813
# Velocity P-wave (km/s) = 7.70490 3.28615 5.92302
#
# Compressibility (1/GPa) = 0.02908776
#
# Stress axis : x y z
#
# Youngs Moduli (GPa) = 58.75848 58.75848 56.57312
#
# Poissons Ratio (x) = 0.18919 0.22893
# Poissons Ratio (y) = 0.18919 0.22893
# Poissons Ratio (z) = 0.23778 0.23778
#
# Static dielectric constant tensor:
#      x y z
#    x 1.658100 0.000000 0.000000 
#    y 0.000000 1.658100 0.000000 
#    z 0.000000 0.000000 1.613280 
# 
# From -- ./inp_files/6068.got.cif
#   From: 2010.05.17/outbox.cif.g08.bks.cpg/sg192_4_cif.got.tgz:6068.got - 2010.05.20 12:28:01.
