data_PCOD9588981
_publ_section_title
;
Structure prediction by ZEFSAII (Michael W. Deem and Ramdas Pophale) SiO2 
 PCOD9588981
Probable space group: P 63/M C M
;
_chemical_formula_sum "Si O2"
_cell_formula_units_Z 80
_cell_length_a 13.179453
_cell_length_b 13.179453
_cell_length_c 35.890676
_cell_angle_alpha 90.000000
_cell_angle_beta 90.000000
_cell_angle_gamma 120.000000
_cell_volume 5398.921854
_symmetry_space_group_name_H-M "P 63/M C M"
_symmetry_group_IT_number 193
_symmetry_cell_setting 'hexagonal'
loop_
_space_group_symop_operation_xyz
x,y,z
x-y,x,1/2+z
-y,x-y,z
-x,-y,1/2+z
-x+y,-x,z
y,-x+y,1/2+z
x-y,-y,1/2-z
-x,-x+y,1/2-z
y,x,1/2-z
-y,-x,-z
-x+y,y,-z
x,x-y,-z
-x,-y,-z
-x+y,-x,1/2-z
y,-x+y,-z
x,y,1/2-z
x-y,x,-z
-y,x-y,1/2-z
-x+y,y,1/2+z
x,x-y,1/2+z
-y,-x,1/2+z
y,x,z
x-y,-y,z
-x,-x+y,z
loop_
_atom_site_type_symbol
_atom_site_label
_atom_site_fract_x
_atom_site_fract_y
_atom_site_fract_z
Si Si1 0.333334 0.666667 0.294264
Si Si2 0.673391 0.139341 0.021775
Si Si3 0.864198 0.311838 0.608071
Si Si4 0.520645 0.864060 0.654531
O O1 0.333334 0.666668 0.250000
O O2 0.220943 0.550536 0.311105
O O3 0.691906 0.172706 0.065190
O O4 0.613831 0.000000 0.019888
O O5 0.794469 0.205532 0.000000
O O6 0.585165 0.170329 0.000000
O O7 0.858642 0.418521 0.628068
O O8 0.776448 0.196240 0.630899
O O9 0.000000 0.346031 0.609068
O O10 0.606878 0.000000 0.664099
#
# Coordination Sequence:
#
# PCOD9588981 Si02
#       4
#     8  24  24  24
#     4   9  18  30  45  72 100 113 133 168 201 249
#     4  10  19  28  40  60  85 113 146 187 232 271
#     4   9  17  28  42  62  85 112 151 189 218 257
#     4   9  17  30  47  64  87 119 145 171 212 255
#
# _framework density 14.817774
#
# number of rings (size 3 to 8) (size 9 to 14) (size 15 to 20)
#    0.000    2.700    0.000    2.700    0.000    4.200 
#    0.000    0.000    0.000    0.900    0.000    0.000 
#    0.000    0.000    0.000    0.900    0.000    1.200 
#
# Total GULP energy -445609.433650 kJ/mol
# GULP energy per Si atom -5570.117921 kJ/mol
# Density = 1.478405 g / cm^3
# Si number density = 14.817774 Si / 1000 Ang^3
#
#
#
# Elastic Constant Matrix: (Units=GPa)
#
#
# Indices 1 2 3 4 5 6 
#
# 1 64.5305 35.8945 44.6724 0.0001 0.0000 -0.0001
# 2 35.8945 64.5303 44.6721 0.0000 0.0000 0.0000
# 3 44.6724 44.6721 135.7119 0.0001 0.0000 0.0000
# 4 0.0001 0.0000 0.0001 12.2550 0.0000 0.0000
# 5 0.0000 0.0000 0.0000 0.0000 12.2551 0.0000
# 6 -0.0001 0.0000 0.0000 0.0000 0.0000 14.3179
#
#
#
# Elastic Compliance Matrix: (Units=1/GPa)
#
#
# Indices 1 2 3 4 5 6 
#
# 1 0.024501 -0.010420 -0.004635 0.000000 0.000000 0.000000
# 2 -0.010420 0.024501 -0.004635 0.000000 0.000000 0.000000
# 3 -0.004635 -0.004635 0.010420 0.000000 0.000000 0.000000
# 4 0.000000 0.000000 0.000000 0.081600 0.000000 0.000000
# 5 0.000000 0.000000 0.000000 0.000000 0.081599 0.000000
# 6 0.000000 0.000000 0.000000 0.000000 0.000000 0.069843
#
#
# Mechanical properties :
#
#
# Convention : Reuss Voigt Hill
#
# Bulk Modulus (GPa) = 49.89462 57.25007 53.57235
# Shear Modulus (GPa) = 14.76996 17.06784 15.91890
#
# Velocity S-wave (km/s) = 3.16060 3.39757 3.28122
# Velocity P-wave (km/s) = 6.86035 7.35604 7.11251
#
# Compressibility (1/GPa) = 0.02004224
#
# Stress axis : x y z
#
# Youngs Moduli (GPa) = 40.81415 40.81413 95.96858
#
# Poissons Ratio (x) = 0.42528 0.44484
# Poissons Ratio (y) = 0.42528 0.44483
# Poissons Ratio (z) = 0.18918 0.18918
#
# Static dielectric constant tensor:
#      x y z
#    x 1.498750 0.000000 0.000000 
#    y 0.000000 1.498750 0.000000 
#    z 0.000000 0.000000 1.480580 
# 
# From -- ./inp_files/8716.got.cif
#   From: 2010.05.17/outbox.cif.g08.bks.cpg/sg193_5_cif.got.tgz:8716.got - 2010.05.20 12:33:02.
