data_PCOD9588984
_publ_section_title
;
Structure prediction by ZEFSAII (Michael W. Deem and Ramdas Pophale) SiO2 
 PCOD9588984
Probable space group: P 63/M C M
;
_chemical_formula_sum "Si O2"
_cell_formula_units_Z 96
_cell_length_a 29.741529
_cell_length_b 29.741529
_cell_length_c 9.256678
_cell_angle_alpha 90.000000
_cell_angle_beta 90.000000
_cell_angle_gamma 120.000000
_cell_volume 7091.079784
_symmetry_space_group_name_H-M "P 63/M C M"
_symmetry_group_IT_number 193
_symmetry_cell_setting 'hexagonal'
loop_
_space_group_symop_operation_xyz
x,y,z
x-y,x,1/2+z
-y,x-y,z
-x,-y,1/2+z
-x+y,-x,z
y,-x+y,1/2+z
x-y,-y,1/2-z
-x,-x+y,1/2-z
y,x,1/2-z
-y,-x,-z
-x+y,y,-z
x,x-y,-z
-x,-y,-z
-x+y,-x,1/2-z
y,-x+y,-z
x,y,1/2-z
x-y,x,-z
-y,x-y,1/2-z
-x+y,y,1/2+z
x,x-y,1/2+z
-y,-x,1/2+z
y,x,z
x-y,-y,z
-x,-x+y,z
loop_
_atom_site_type_symbol
_atom_site_label
_atom_site_fract_x
_atom_site_fract_y
_atom_site_fract_z
Si Si1 0.665694 0.879872 0.922783
Si Si2 0.575538 0.512437 0.916449
Si Si3 0.675560 0.613856 0.575604
Si Si4 0.059538 0.211479 0.077643
O O1 0.657859 0.873353 0.750000
O O2 0.727334 0.918298 0.949404
O O3 0.652066 0.826033 0.000000
O O4 0.634784 0.905531 0.993155
O O5 0.579820 0.501019 0.750000
O O6 0.543446 0.543446 0.920054
O O7 0.632587 0.555197 0.969254
O O8 0.540853 0.459148 0.000000
O O9 0.682200 0.614140 0.750000
O O10 0.650406 0.650406 0.546352
O O11 0.061595 0.205401 0.250000
O O12 0.000000 0.178072 0.029737
O O13 0.098397 0.196793 0.000000
#
# Coordination Sequence:
#
# PCOD9588984 Si02
#       4
#    24  24  24  24
#     4  10  19  30  43  59  80 106 136 169 205 244
#     4   8  14  24  37  54  77 104 133 164 195 225
#     4   9  17  28  41  58  81 108 137 169 203 237
#     4   9  18  31  45  62  82 101 125 159 197 240
#
# _framework density 13.538136
#
# number of rings (size 3 to 8) (size 9 to 14) (size 15 to 20)
#    0.000    3.000    0.000    3.000    0.000    4.000 
#    0.000    2.500    0.000    0.250    0.000    0.000 
#    0.000    0.000    0.000    0.750    0.000   12.000 
#
# Total GULP energy -534518.226757 kJ/mol
# GULP energy per Si atom -5567.898195 kJ/mol
# Density = 1.350732 g / cm^3
# Si number density = 13.538136 Si / 1000 Ang^3
#
#
#
# Elastic Constant Matrix: (Units=GPa)
#
#
# Indices 1 2 3 4 5 6 
#
# 1 109.1561 61.1070 52.1747 0.0000 0.0000 0.0000
# 2 61.1070 109.1561 52.1747 0.0000 0.0000 0.0000
# 3 52.1747 52.1747 46.1615 0.0000 0.0000 0.0000
# 4 0.0000 0.0000 0.0000 23.8461 0.0000 0.0000
# 5 0.0000 0.0000 0.0000 0.0000 23.8461 0.0000
# 6 0.0000 0.0000 0.0000 0.0000 0.0000 24.0246
#
#
#
# Elastic Compliance Matrix: (Units=1/GPa)
#
#
# Indices 1 2 3 4 5 6 
#
# 1 0.019962 -0.000850 -0.021603 0.000000 0.000000 0.000000
# 2 -0.000850 0.019962 -0.021603 0.000000 0.000000 0.000000
# 3 -0.021603 -0.021603 0.070496 0.000000 0.000000 0.000000
# 4 0.000000 0.000000 0.000000 0.041936 0.000000 0.000000
# 5 0.000000 0.000000 0.000000 0.000000 0.041936 0.000000
# 6 0.000000 0.000000 0.000000 0.000000 0.000000 0.041624
#
#
# Mechanical properties :
#
#
# Convention : Reuss Voigt Hill
#
# Bulk Modulus (GPa) = 44.81956 66.15406 55.48681
# Shear Modulus (GPa) = 15.08465 20.94452 18.01459
#
# Velocity S-wave (km/s) = 3.34164 3.93756 3.65177
# Velocity P-wave (km/s) = 6.93302 8.34527 7.67171
#
# Compressibility (1/GPa) = 0.02231169
#
# Stress axis : x y z
#
# Youngs Moduli (GPa) = 50.09411 50.09411 14.18517
#
# Poissons Ratio (x) = 0.04256 0.30644
# Poissons Ratio (y) = 0.04256 0.30644
# Poissons Ratio (z) = 1.08216 1.08216
#
# Static dielectric constant tensor:
#      x y z
#    x 1.431950 0.000000 0.000000 
#    y 0.000000 1.431950 0.000000 
#    z 0.000000 0.000000 1.451660 
# 
# From -- ./inp_files/2253.got.cif
#   From: 2010.05.17/outbox.cif.g08.bks.cpg/sg193_2_cif.got.tgz:2253.got - 2010.05.20 12:33:02.
