data_PCOD9588596
_publ_section_title
;
Structure prediction by ZEFSAII (Michael W. Deem and Ramdas Pophale) SiO2 
 PCOD9588596
Probable space group: P 6/M C C
;
_chemical_formula_sum "Si O2"
_cell_formula_units_Z 104
_cell_length_a 19.817690
_cell_length_b 19.817690
_cell_length_c 17.205495
_cell_angle_alpha 90.000000
_cell_angle_beta 90.000000
_cell_angle_gamma 120.000000
_cell_volume 5851.993899
_symmetry_space_group_name_H-M "P 6/M C C"
_symmetry_group_IT_number 192
_symmetry_cell_setting 'hexagonal'
loop_
_space_group_symop_operation_xyz
x,y,z
x-y,x,z
-y,x-y,z
-x,-y,z
-x+y,-x,z
y,-x+y,z
x-y,-y,1/2-z
-x,-x+y,1/2-z
y,x,1/2-z
-y,-x,1/2-z
-x+y,y,1/2-z
x,x-y,1/2-z
-x,-y,-z
-x+y,-x,-z
y,-x+y,-z
x,y,-z
x-y,x,-z
-y,x-y,-z
-x+y,y,1/2+z
x,x-y,1/2+z
-y,-x,1/2+z
y,x,1/2+z
x-y,-y,1/2+z
-x,-x+y,1/2+z
loop_
_atom_site_type_symbol
_atom_site_label
_atom_site_fract_x
_atom_site_fract_y
_atom_site_fract_z
Si Si1 0.666667 0.333334 0.157553
Si Si2 0.284104 0.285251 0.906538
Si Si3 0.282903 0.782313 0.406509
Si Si4 0.588308 0.542598 0.094353
Si Si5 0.831774 0.164599 0.157315
O O1 0.666668 0.333334 0.250000
O O2 0.578618 0.289511 0.125932
O O3 0.361029 0.366813 0.883306
O O4 0.290926 0.214398 0.872484
O O5 0.211562 0.292105 0.875462
O O6 0.281215 0.281654 0.000000
O O7 0.278505 0.778443 0.500000
O O8 0.360552 0.863471 0.383569
O O9 0.210414 0.789031 0.374892
O O10 0.500000 0.500000 0.123679
O O11 0.585241 0.540639 0.000000
O O12 0.832875 0.167126 0.250000
#
# Coordination Sequence:
#
# PCOD9588596 Si02
#       5
#     8  24  24  24  24
#     4  12  25  38  52  78 115 149 190 249 301 335
#     4  10  20  36  60  86 115 152 197 238 282 349
#     4  10  21  37  56  79 108 150 200 236 283 350
#     4   8  16  31  53  80 103 136 189 242 280 323
#     4  11  22  38  59  87 121 152 188 240 298 342
#
# _framework density 17.771720999999999
#
# number of rings (size 3 to 8) (size 9 to 14) (size 15 to 20)
#    0.000    2.077    0.000    5.538    3.231    0.000 
#    0.000    0.000    0.000    0.462    0.000    3.231 
#    0.000    0.000    0.000    0.000    0.000    0.000 
#
# Total GULP energy -580747.039939 kJ/mol
# GULP energy per Si atom -5584.106153 kJ/mol
# Density = 1.773127 g / cm^3
# Si number density = 17.771721 Si / 1000 Ang^3
#
#
#
# Elastic Constant Matrix: (Units=GPa)
#
#
# Indices 1 2 3 4 5 6 
#
# 1 104.5345 81.3349 46.7658 -0.0002 0.0001 0.0005
# 2 81.3349 104.5360 46.7655 -0.0001 0.0001 0.0003
# 3 46.7658 46.7655 110.3445 -0.0001 -0.0001 -0.0002
# 4 -0.0002 -0.0001 -0.0001 21.8564 -0.0001 0.0000
# 5 0.0001 0.0001 -0.0001 -0.0001 21.8561 0.0000
# 6 0.0005 0.0003 -0.0002 0.0000 0.0000 11.5995
#
#
#
# Elastic Compliance Matrix: (Units=1/GPa)
#
#
# Indices 1 2 3 4 5 6 
#
# 1 0.024971 -0.018132 -0.002898 0.000000 0.000000 -0.000001
# 2 -0.018132 0.024970 -0.002898 0.000000 0.000000 0.000000
# 3 -0.002898 -0.002898 0.011519 0.000000 0.000000 0.000000
# 4 0.000000 0.000000 0.000000 0.045753 0.000000 0.000000
# 5 0.000000 0.000000 0.000000 0.000000 0.045754 0.000000
# 6 -0.000001 0.000000 0.000000 0.000000 0.000000 0.086211
#
#
# Mechanical properties :
#
#
# Convention : Reuss Voigt Hill
#
# Bulk Modulus (GPa) = 73.51233 74.34974 73.93103
# Shear Modulus (GPa) = 17.14852 20.69897 18.92375
#
# Velocity S-wave (km/s) = 3.10971 3.41649 3.26670
# Velocity P-wave (km/s) = 7.37213 7.58222 7.47791
#
# Compressibility (1/GPa) = 0.01360316
#
# Stress axis : x y z
#
# Youngs Moduli (GPa) = 40.04644 40.04729 86.81163
#
# Poissons Ratio (x) = 0.72615 0.25162
# Poissons Ratio (y) = 0.72613 0.25159
# Poissons Ratio (z) = 0.11607 0.11606
#
# Static dielectric constant tensor:
#      x y z
#    x 1.596270 0.000000 0.000000 
#    y 0.000000 1.596270 0.000000 
#    z 0.000000 0.000000 1.591630 
# 
# From -- ./inp_files/2861.got.cif
#   From: 2010.05.17/outbox.cif.g08.bks.cpg/sg192_2_cif.got.tgz:2861.got - 2010.05.20 12:28:01.
