data_PCOD9588175
_publ_section_title
;
Structure prediction by ZEFSAII (Michael W. Deem and Ramdas Pophale) SiO2 
 PCOD9588175
Probable space group: P 6/M M M
;
_chemical_formula_sum "Si O2"
_cell_formula_units_Z 72
_cell_length_a 17.220391
_cell_length_b 17.220391
_cell_length_c 15.055044
_cell_angle_alpha 90.000000
_cell_angle_beta 90.000000
_cell_angle_gamma 120.000000
_cell_volume 3866.327844
_symmetry_space_group_name_H-M "P 6/M M M"
_symmetry_group_IT_number 191
_symmetry_cell_setting 'hexagonal'
loop_
_space_group_symop_operation_xyz
x,y,z
x-y,x,z
-y,x-y,z
-x,-y,z
-x+y,-x,z
y,-x+y,z
x-y,-y,-z
-x,-x+y,-z
y,x,-z
-y,-x,-z
-x+y,y,-z
x,x-y,-z
-x,-y,-z
-x+y,-x,-z
y,-x+y,-z
x,y,-z
x-y,x,-z
-y,x-y,-z
-x+y,y,z
x,x-y,z
-y,-x,z
y,x,z
x-y,-y,z
-x,-x+y,z
loop_
_atom_site_type_symbol
_atom_site_label
_atom_site_fract_x
_atom_site_fract_y
_atom_site_fract_z
Si Si1 0.624674 0.812337 0.779484
Si Si2 0.358142 0.892370 0.899450
Si Si3 0.553807 0.446194 0.393401
Si Si4 0.462255 0.231127 0.605631
Si Si5 0.105792 0.894209 0.096717
O O1 0.573665 0.714393 0.823329
O O2 0.620053 0.810027 0.674021
O O3 0.721889 0.860945 0.821874
O O4 0.430779 0.861558 0.884098
O O5 0.411425 0.000000 0.899153
O O6 0.321904 0.864861 0.000000
O O7 0.500000 0.500000 0.359964
O O8 0.548999 0.451002 0.500000
O O9 0.660998 0.488518 0.373766
O O10 0.443917 0.221959 0.500000
O O11 0.000000 0.848537 0.099113
O O12 0.129957 0.870044 0.000000
#
# Coordination Sequence:
#
# PCOD9588175 Si02
#       5
#    12  24  12  12  12
#     4  12  22  32  56  86 111 147 192 235 291 344
#     4   9  19  36  54  75 109 149 184 224 277 340
#     4   9  19  39  64  83 109 155 203 256 318 366
#     4  10  23  40  58  85 118 154 207 264 309 367
#     4  10  21  38  61  89 119 150 188 237 292 351
#
# _framework density 18.622319999999998
#
# number of rings (size 3 to 8) (size 9 to 14) (size 15 to 20)
#    0.000    2.167    0.000    4.000    2.333    7.333 
#    1.000    0.000    0.000    0.000    0.000    0.000 
#    0.000    1.333    0.000    0.000    0.000    0.000 
#
# Total GULP energy -400986.257667 kJ/mol
# GULP energy per Si atom -5569.253579 kJ/mol
# Density = 1.857993 g / cm^3
# Si number density = 18.622320 Si / 1000 Ang^3
#
#
#
# Elastic Constant Matrix: (Units=GPa)
#
#
# Indices 1 2 3 4 5 6 
#
# 1 96.3360 46.0144 38.5300 0.0000 0.0000 0.0000
# 2 46.0144 96.3360 38.5300 0.0000 0.0000 0.0000
# 3 38.5300 38.5300 99.5583 0.0000 0.0000 0.0000
# 4 0.0000 0.0000 0.0000 78.0966 0.0000 0.0000
# 5 0.0000 0.0000 0.0000 0.0000 78.0966 0.0000
# 6 0.0000 0.0000 0.0000 0.0000 0.0000 25.1608
#
#
#
# Elastic Compliance Matrix: (Units=1/GPa)
#
#
# Indices 1 2 3 4 5 6 
#
# 1 0.014379 -0.005493 -0.003439 0.000000 0.000000 0.000000
# 2 -0.005493 0.014379 -0.003439 0.000000 0.000000 0.000000
# 3 -0.003439 -0.003439 0.012706 0.000000 0.000000 0.000000
# 4 0.000000 0.000000 0.000000 0.012805 0.000000 0.000000
# 5 0.000000 0.000000 0.000000 0.000000 0.012805 0.000000
# 6 0.000000 0.000000 0.000000 0.000000 0.000000 0.039744
#
#
# Mechanical properties :
#
#
# Convention : Reuss Voigt Hill
#
# Bulk Modulus (GPa) = 59.79835 59.81990 59.80913
# Shear Modulus (GPa) = 36.46027 47.54789 42.00408
#
# Velocity S-wave (km/s) = 4.42959 5.05848 4.75444
# Velocity P-wave (km/s) = 7.63823 8.14309 7.89470
#
# Compressibility (1/GPa) = 0.01672287
#
# Stress axis : x y z
#
# Youngs Moduli (GPa) = 69.54375 69.54375 78.70045
#
# Poissons Ratio (x) = 0.38198 0.27067
# Poissons Ratio (y) = 0.38198 0.27067
# Poissons Ratio (z) = 0.23918 0.23918
#
# Static dielectric constant tensor:
#      x y z
#    x 1.743920 0.000000 0.000000 
#    y 0.000000 1.743920 0.000000 
#    z 0.000000 0.000000 1.646510 
# 
# From -- ./inp_files/3965.got.cif
#   From: 2010.05.17/outbox.cif.g08.bks.cpg/sg191_2_cif.got.tgz:3965.got - 2010.05.20 12:20:32.
