data_PCOD9588134
_publ_section_title
;
Structure prediction by ZEFSAII (Michael W. Deem and Ramdas Pophale) SiO2 
 PCOD9588134
Probable space group: P 6/M M M
;
_chemical_formula_sum "Si O2"
_cell_formula_units_Z 144
_cell_length_a 31.180873
_cell_length_b 31.180873
_cell_length_c 9.028408
_cell_angle_alpha 90.000000
_cell_angle_beta 90.000000
_cell_angle_gamma 120.000000
_cell_volume 7601.833433
_symmetry_space_group_name_H-M "P 6/M M M"
_symmetry_group_IT_number 191
_symmetry_cell_setting 'hexagonal'
loop_
_space_group_symop_operation_xyz
x,y,z
x-y,x,z
-y,x-y,z
-x,-y,z
-x+y,-x,z
y,-x+y,z
x-y,-y,-z
-x,-x+y,-z
y,x,-z
-y,-x,-z
-x+y,y,-z
x,x-y,-z
-x,-y,-z
-x+y,-x,-z
y,-x+y,-z
x,y,-z
x-y,x,-z
-y,x-y,-z
-x+y,y,z
x,x-y,z
-y,-x,z
y,x,z
x-y,-y,z
-x,-x+y,z
loop_
_atom_site_type_symbol
_atom_site_label
_atom_site_fract_x
_atom_site_fract_y
_atom_site_fract_z
Si Si1 0.059599 0.576648 0.174945
Si Si2 0.940983 0.243144 0.666255
Si Si3 0.768539 0.434603 0.830264
Si Si4 0.313313 0.404605 0.825947
Si Si5 0.155072 0.212743 0.178447
Si Si6 0.816516 0.285868 0.335038
O O1 0.076915 0.538458 0.235010
O O2 0.076211 0.631547 0.233173
O O3 0.000000 0.546652 0.183923
O O4 0.073177 0.583471 0.000000
O O5 0.919590 0.233030 0.500000
O O6 0.931269 0.283263 0.747009
O O7 0.925812 0.192664 0.754038
O O8 0.000000 0.268952 0.655453
O O9 0.713792 0.427584 0.817501
O O10 0.766473 0.383237 0.805932
O O11 0.803878 0.476404 0.716796
O O12 0.785419 0.450965 0.000000
O O13 0.282444 0.431467 0.788199
O O14 0.317517 0.397326 0.000000
O O15 0.098850 0.197700 0.220258
O O16 0.175025 0.175025 0.222339
O O17 0.158501 0.216403 0.000000
O O18 0.838558 0.295168 0.500000
O O19 0.764870 0.235131 0.338474
#
# Coordination Sequence:
#
# PCOD9588134 Si02
#       6
#    24  24  24  24  24  24
#     4   8  15  29  49  74 102 128 157 198 248 303
#     4  10  21  36  54  78 109 143 179 222 271 320
#     4   9  17  31  52  75  96 119 152 197 249 306
#     4  11  21  33  54  79 101 131 173 219 268 322
#     4   9  18  34  57  85 117 153 193 235 277 323
#     4  10  22  38  51  66  94 130 165 203 250 305
#
# _framework density 18.942798
#
# number of rings (size 3 to 8) (size 9 to 14) (size 15 to 20)
#    0.000    2.500    0.000    2.667    0.000    5.333 
#    0.000    1.667    0.000    2.667    0.000    7.000 
#    0.000    0.000    0.000    4.167    0.000    4.333 
#
# Total GULP energy -802127.158193 kJ/mol
# GULP energy per Si atom -5570.327487 kJ/mol
# Density = 1.889968 g / cm^3
# Si number density = 18.942798 Si / 1000 Ang^3
#
#
#
# Elastic Constant Matrix: (Units=GPa)
#
#
# Indices 1 2 3 4 5 6 
#
# 1 81.3332 38.4332 26.7146 0.0000 0.0000 0.0000
# 2 38.4332 81.3332 26.7146 0.0000 0.0000 0.0000
# 3 26.7146 26.7146 29.2077 0.0000 0.0000 0.0000
# 4 0.0000 0.0000 0.0000 12.1897 0.0000 0.0000
# 5 0.0000 0.0000 0.0000 0.0000 12.1897 0.0000
# 6 0.0000 0.0000 0.0000 0.0000 0.0000 21.4500
#
#
#
# Elastic Compliance Matrix: (Units=1/GPa)
#
#
# Indices 1 2 3 4 5 6 
#
# 1 0.018707 -0.004603 -0.012901 0.000000 0.000000 0.000000
# 2 -0.004603 0.018707 -0.012901 0.000000 0.000000 0.000000
# 3 -0.012901 -0.012901 0.057837 0.000000 0.000000 0.000000
# 4 0.000000 0.000000 0.000000 0.082036 0.000000 0.000000
# 5 0.000000 0.000000 0.000000 0.000000 0.082036 0.000000
# 6 0.000000 0.000000 0.000000 0.000000 0.000000 0.046620
#
#
# Mechanical properties :
#
#
# Convention : Reuss Voigt Hill
#
# Bulk Modulus (GPa) = 29.03343 41.73321 35.38332
# Shear Modulus (GPa) = 13.21932 15.83333 14.52632
#
# Velocity S-wave (km/s) = 2.64456 2.89424 2.77221
# Velocity P-wave (km/s) = 4.96841 5.76610 5.38205
#
# Compressibility (1/GPa) = 0.03444306
#
# Stress axis : x y z
#
# Youngs Moduli (GPa) = 53.45473 53.45473 17.29002
#
# Poissons Ratio (x) = 0.24603 0.22306
# Poissons Ratio (y) = 0.24603 0.22306
# Poissons Ratio (z) = 0.68961 0.68961
#
# Static dielectric constant tensor:
#      x y z
#    x 1.674850 0.000000 0.000000 
#    y 0.000000 1.674850 0.000000 
#    z 0.000000 0.000000 1.689720 
# 
# From -- ./inp_files/1944.got.cif
#   From: 2010.05.17/outbox.cif.g08.bks.cpg/sg191_1_cif.got.tgz:1944.got - 2010.05.20 12:20:32.
