data_PCOD9588819
_publ_section_title
;
Structure prediction by ZEFSAII (Michael W. Deem and Ramdas Pophale) SiO2 
 PCOD9588819
Probable space group: P 6/M C C
;
_chemical_formula_sum "Si O2"
_cell_formula_units_Z 116
_cell_length_a 14.435093
_cell_length_b 14.435093
_cell_length_c 29.122696
_cell_angle_alpha 90.000000
_cell_angle_beta 90.000000
_cell_angle_gamma 120.000000
_cell_volume 5255.346807
_symmetry_space_group_name_H-M "P 6/M C C"
_symmetry_group_IT_number 192
_symmetry_cell_setting 'hexagonal'
loop_
_space_group_symop_operation_xyz
x,y,z
x-y,x,z
-y,x-y,z
-x,-y,z
-x+y,-x,z
y,-x+y,z
x-y,-y,1/2-z
-x,-x+y,1/2-z
y,x,1/2-z
-y,-x,1/2-z
-x+y,y,1/2-z
x,x-y,1/2-z
-x,-y,-z
-x+y,-x,-z
y,-x+y,-z
x,y,-z
x-y,x,-z
-y,x-y,-z
-x+y,y,1/2+z
x,x-y,1/2+z
-y,-x,1/2+z
y,x,1/2+z
x-y,-y,1/2+z
-x,-x+y,1/2+z
loop_
_atom_site_type_symbol
_atom_site_label
_atom_site_fract_x
_atom_site_fract_y
_atom_site_fract_z
Si Si1 0.132679 0.239621 0.437561
Si Si2 0.666667 0.333334 0.696072
Si Si3 0.708956 0.195066 0.051024
Si Si4 0.246928 0.131534 0.672062
Si Si5 0.828655 0.305335 0.857035
Si Si6 0.000000 0.500000 0.908595
O O1 0.188556 0.175491 0.453396
O O2 0.205762 0.361060 0.450628
O O3 0.120247 0.231572 0.382571
O O4 0.666668 0.333334 0.750000
O O5 0.641333 0.219362 0.676118
O O6 0.750589 0.265022 0.097781
O O7 0.592665 0.093930 0.061487
O O8 0.710910 0.239930 0.000000
O O9 0.185200 0.193482 0.689862
O O10 0.375813 0.212477 0.671147
O O11 0.943734 0.393021 0.877368
#
# Coordination Sequence:
#
# PCOD9588819 Si02
#       6
#    24   8  24  24  24  12
#     4   9  17  30  49  78 117 165 216 264 311 368
#     4  12  27  51  76  98 130 174 228 300 370 434
#     4  11  23  38  59  90 132 180 227 271 324 396
#     4   9  17  32  61  96 136 174 214 262 327 403
#     4  11  23  44  67  99 136 177 230 289 346 409
#     4  12  23  40  67  92 134 182 235 286 347 396
#
# _framework density 22.072758
#
# number of rings (size 3 to 8) (size 9 to 14) (size 15 to 20)
#    0.000    1.655    2.069    5.690    0.000    5.793 
#    0.000    0.517    0.000    1.241    0.000    0.000 
#    0.000    1.655    0.000    0.000    0.000    0.000 
#
# Total GULP energy -647034.322052 kJ/mol
# GULP energy per Si atom -5577.882087 kJ/mol
# Density = 2.202252 g / cm^3
# Si number density = 22.072758 Si / 1000 Ang^3
#
#
#
# Elastic Constant Matrix: (Units=GPa)
#
#
# Indices 1 2 3 4 5 6 
#
# 1 100.9751 18.9172 12.4862 0.0000 0.0000 0.0000
# 2 18.9172 100.9748 12.4861 0.0000 0.0000 0.0000
# 3 12.4862 12.4861 73.4555 -0.0001 0.0000 0.0000
# 4 0.0000 0.0000 -0.0001 -3.1614 0.0000 0.0000
# 5 0.0000 0.0000 0.0000 0.0000 -3.1614 0.0000
# 6 0.0000 0.0000 0.0000 0.0000 0.0000 41.0289
#
#
#
# Elastic Compliance Matrix: (Units=1/GPa)
#
#
# Indices 1 2 3 4 5 6 
#
# 1 0.010417 -0.001770 -0.001470 0.000000 0.000000 0.000000
# 2 -0.001770 0.010417 -0.001470 0.000000 0.000000 0.000000
# 3 -0.001470 -0.001470 0.014113 0.000000 0.000000 0.000000
# 4 0.000000 0.000000 0.000000 -0.316313 -0.000003 0.000000
# 5 0.000000 0.000000 0.000000 -0.000003 -0.316318 0.000000
# 6 0.000000 0.000000 0.000000 0.000000 0.000000 0.024373
#
#
# Mechanical properties :
#
#
# Convention : Reuss Voigt Hill
#
# Bulk Modulus (GPa) = 39.17270 40.35384 39.76327
# Shear Modulus (GPa) = -9.00279 22.37563 6.68642
#
# Velocity S-wave (km/s) = -2.02177 3.18735 1.74237
# Velocity P-wave (km/s) = 3.51220 5.64513 4.70123
#
# Compressibility (1/GPa) = 0.02552798
#
# Stress axis : x y z
#
# Youngs Moduli (GPa) = 95.99933 95.99905 70.85480
#
# Poissons Ratio (x) = 0.16990 0.10415
# Poissons Ratio (y) = 0.16990 0.10414
# Poissons Ratio (z) = 0.14110 0.14110
#
# Static dielectric constant tensor:
#      x y z
#    x 1.825170 0.000000 0.000000 
#    y 0.000000 1.825170 0.000000 
#    z 0.000000 0.000000 1.816150 
# 
# From -- ./inp_files/6995.got.cif
#   From: 2010.05.17/outbox.cif.g08.bks.cpg/sg192_4_cif.got.tgz:6995.got - 2010.05.20 12:28:01.
