data_PCOD9588075
_publ_section_title
;
Structure prediction by ZEFSAII (Michael W. Deem and Ramdas Pophale) SiO2 
 PCOD9588075
Probable space group: P 6/M M M
;
_chemical_formula_sum "Si O2"
_cell_formula_units_Z 138
_cell_length_a 31.820686
_cell_length_b 31.820686
_cell_length_c 7.907931
_cell_angle_alpha 90.000000
_cell_angle_beta 90.000000
_cell_angle_gamma 120.000000
_cell_volume 6934.458910
_symmetry_space_group_name_H-M "P 6/M M M"
_symmetry_group_IT_number 191
_symmetry_cell_setting 'hexagonal'
loop_
_space_group_symop_operation_xyz
x,y,z
x-y,x,z
-y,x-y,z
-x,-y,z
-x+y,-x,z
y,-x+y,z
x-y,-y,-z
-x,-x+y,-z
y,x,-z
-y,-x,-z
-x+y,y,-z
x,x-y,-z
-x,-y,-z
-x+y,-x,-z
y,-x+y,-z
x,y,-z
x-y,x,-z
-y,x-y,-z
-x+y,y,z
x,x-y,z
-y,-x,z
y,x,z
x-y,-y,z
-x,-x+y,z
loop_
_atom_site_type_symbol
_atom_site_label
_atom_site_fract_x
_atom_site_fract_y
_atom_site_fract_z
Si Si1 0.529831 0.675993 0.695730
Si Si2 0.521552 0.945395 0.204569
Si Si3 0.333395 0.762116 0.797804
Si Si4 0.212346 0.945401 0.794590
Si Si5 0.883056 0.941528 0.500000
Si Si6 0.098286 0.196572 0.203973
Si Si7 0.767571 0.137710 0.202058
O O1 0.529736 0.686326 0.500000
O O2 0.528493 0.625436 0.722582
O O3 0.480979 0.671922 0.769179
O O4 0.579743 0.718740 0.768956
O O5 0.469301 0.938602 0.251616
O O6 0.561499 0.000000 0.255248
O O7 0.522562 0.942998 0.000000
O O8 0.384090 0.768180 0.731715
O O9 0.286512 0.713489 0.730782
O O10 0.333820 0.756537 0.000000
O O11 0.155708 0.925590 0.760248
O O12 0.229807 0.908630 0.732006
O O13 0.244738 0.000000 0.730621
O O14 0.216179 0.947003 0.000000
O O15 0.915688 0.915688 0.500000
O O16 0.848736 0.924368 0.331977
O O17 0.092307 0.184613 0.000000
O O18 0.813300 0.186701 0.270056
O O19 0.773591 0.137471 0.000000
#
# Coordination Sequence:
#
# PCOD9588075 Si02
#       7
#    24  24  24  24   6  12  24
#     4  12  25  37  53  82 120 157 192 233 290 359
#     4   9  19  38  63  86 107 139 188 240 286 339
#     4  10  21  39  63  88 112 144 192 249 302 355
#     4   9  17  33  61  93 120 149 192 248 306 362
#     4  12  27  44  64  96 136 180 224 268 322 386
#     4  10  20  41  69  97 128 164 214 272 324 380
#     4  10  20  37  58  80 111 154 201 243 287 343
#
# _framework density 19.900614999999998
#
# number of rings (size 3 to 8) (size 9 to 14) (size 15 to 20)
#    0.000    1.913    0.870    3.870    0.000    8.348 
#    1.565    2.609    0.000    1.565    0.000    0.000 
#    0.000    0.000    0.000    0.000    0.000    0.000 
#
# Total GULP energy -770646.456067 kJ/mol
# GULP energy per Si atom -5584.394609 kJ/mol
# Density = 1.985532 g / cm^3
# Si number density = 19.900615 Si / 1000 Ang^3
#
#
#
# Elastic Constant Matrix: (Units=GPa)
#
#
# Indices 1 2 3 4 5 6 
#
# 1 166.9251 112.4245 18.8587 0.0000 0.0000 0.0000
# 2 112.4245 166.9251 18.8587 0.0000 0.0000 0.0000
# 3 18.8587 18.8587 35.6309 0.0000 0.0000 0.0000
# 4 0.0000 0.0000 0.0000 -43.9838 0.0000 0.0000
# 5 0.0000 0.0000 0.0000 0.0000 -43.9838 0.0000
# 6 0.0000 0.0000 0.0000 0.0000 0.0000 27.2503
#
#
#
# Elastic Compliance Matrix: (Units=1/GPa)
#
#
# Indices 1 2 3 4 5 6 
#
# 1 0.011102 -0.007247 -0.002041 0.000000 0.000000 0.000000
# 2 -0.007247 0.011102 -0.002041 0.000000 0.000000 0.000000
# 3 -0.002041 -0.002041 0.030226 0.000000 0.000000 0.000000
# 4 0.000000 0.000000 0.000000 -0.022736 0.000000 0.000000
# 5 0.000000 0.000000 0.000000 0.000000 -0.022736 0.000000
# 6 0.000000 0.000000 0.000000 0.000000 0.000000 0.036697
#
#
# Mechanical properties :
#
#
# Convention : Reuss Voigt Hill
#
# Bulk Modulus (GPa) = 33.58632 74.41834 54.00233
# Shear Modulus (GPa) = 65.58703 2.47916 34.03310
#
# Velocity S-wave (km/s) = 5.74707 1.11735 4.13989
# Velocity P-wave (km/s) = 7.80718 6.25626 7.07435
#
# Compressibility (1/GPa) = 0.02977402
#
# Stress axis : x y z
#
# Youngs Moduli (GPa) = 90.07528 90.07528 33.08457
#
# Poissons Ratio (x) = 0.65274 0.06751
# Poissons Ratio (y) = 0.65274 0.06751
# Poissons Ratio (z) = 0.18380 0.18380
#
# Static dielectric constant tensor:
#      x y z
#    x 1.732270 0.000000 0.000000 
#    y 0.000000 1.732270 0.000000 
#    z 0.000000 0.000000 1.710860 
# 
# From -- ./inp_files/2032.got.cif
#   From: 2010.05.17/outbox.cif.g08.bks.cpg/sg191_2_cif.got.tgz:2032.got - 2010.05.20 12:20:32.
