data_PCOD9588062
_publ_section_title
;
Structure prediction by ZEFSAII (Michael W. Deem and Ramdas Pophale) SiO2 
 PCOD9588062
Probable space group: P 6/M M M
;
_chemical_formula_sum "Si O2"
_cell_formula_units_Z 120
_cell_length_a 17.941283
_cell_length_b 17.941283
_cell_length_c 25.843843
_cell_angle_alpha 90.000000
_cell_angle_beta 90.000000
_cell_angle_gamma 120.000000
_cell_volume 7204.348601
_symmetry_space_group_name_H-M "P 6/M M M"
_symmetry_group_IT_number 191
_symmetry_cell_setting 'hexagonal'
loop_
_space_group_symop_operation_xyz
x,y,z
x-y,x,z
-y,x-y,z
-x,-y,z
-x+y,-x,z
y,-x+y,z
x-y,-y,-z
-x,-x+y,-z
y,x,-z
-y,-x,-z
-x+y,y,-z
x,x-y,-z
-x,-y,-z
-x+y,-x,-z
y,-x+y,-z
x,y,-z
x-y,x,-z
-y,x-y,-z
-x+y,y,z
x,x-y,z
-y,-x,z
y,x,z
x-y,-y,z
-x,-x+y,z
loop_
_atom_site_type_symbol
_atom_site_label
_atom_site_fract_x
_atom_site_fract_y
_atom_site_fract_z
Si Si1 0.488748 0.155337 0.169068
Si Si2 0.099476 0.900525 0.563046
Si Si3 0.333606 0.845106 0.055546
Si Si4 0.362927 0.897595 0.369309
Si Si5 0.800216 0.600431 0.438203
Si Si6 0.902028 0.268965 0.266582
O O1 0.576093 0.152185 0.177075
O O2 0.508891 0.254446 0.169027
O O3 0.451700 0.116720 0.111974
O O4 0.421805 0.109017 0.214933
O O5 0.098761 0.901240 0.500000
O O6 0.149432 0.850569 0.578478
O O7 0.000000 0.850231 0.580011
O O8 0.415594 0.831188 0.056451
O O9 0.246506 0.753495 0.054444
O O10 0.338081 0.888785 0.000000
O O11 0.435108 0.870215 0.365657
O O12 0.294387 0.849724 0.414109
O O13 0.312260 0.882320 0.315489
O O14 0.412390 0.000000 0.378751
O O15 0.798662 0.597324 0.500000
O O16 0.831079 0.168922 0.265402
O O17 0.000000 0.291545 0.271251
#
# Coordination Sequence:
#
# PCOD9588062 Si02
#       6
#    24  12  24  24  12  24
#     4   9  16  25  41  68 100 135 174 213 248 283
#     4   9  17  30  51  80 112 142 172 208 253 308
#     4   8  12  18  30  52  87 130 172 210 246 283
#     4  10  21  38  58  79 104 135 171 210 252 297
#     4  11  22  37  56  79 106 140 176 213 254 303
#     4  10  20  36  57  78  99 125 160 203 252 303
#
# _framework density 16.656606
#
# number of rings (size 3 to 8) (size 9 to 14) (size 15 to 20)
#    0.000    2.600    1.000    1.700    0.000    5.600 
#    0.600    1.000    0.000    0.800    0.000    2.800 
#    0.000    0.000    0.000    0.000    0.000    0.000 
#
# Total GULP energy -668565.716717 kJ/mol
# GULP energy per Si atom -5571.380973 kJ/mol
# Density = 1.661869 g / cm^3
# Si number density = 16.656606 Si / 1000 Ang^3
#
#
#
# Elastic Constant Matrix: (Units=GPa)
#
#
# Indices 1 2 3 4 5 6 
#
# 1 71.5434 56.1590 39.1349 0.0000 0.0000 0.0000
# 2 56.1590 71.5434 39.1349 0.0000 0.0000 0.0000
# 3 39.1349 39.1349 114.4452 0.0000 0.0000 0.0000
# 4 0.0000 0.0000 0.0000 7.4142 0.0000 0.0000
# 5 0.0000 0.0000 0.0000 0.0000 7.4142 0.0000
# 6 0.0000 0.0000 0.0000 0.0000 0.0000 7.6922
#
#
#
# Elastic Compliance Matrix: (Units=1/GPa)
#
#
# Indices 1 2 3 4 5 6 
#
# 1 0.037454 -0.027547 -0.003388 0.000000 0.000000 0.000000
# 2 -0.027547 0.037454 -0.003388 0.000000 0.000000 0.000000
# 3 -0.003388 -0.003388 0.011055 0.000000 0.000000 0.000000
# 4 0.000000 0.000000 0.000000 0.134876 0.000000 0.000000
# 5 0.000000 0.000000 0.000000 0.000000 0.134876 0.000000
# 6 0.000000 0.000000 0.000000 0.000000 0.000000 0.130002
#
#
# Mechanical properties :
#
#
# Convention : Reuss Voigt Hill
#
# Bulk Modulus (GPa) = 57.74386 58.48773 58.11580
# Shear Modulus (GPa) = 8.92642 12.71100 10.81871
#
# Velocity S-wave (km/s) = 2.31748 2.76546 2.55132
# Velocity P-wave (km/s) = 6.47329 6.73699 6.60646
#
# Compressibility (1/GPa) = 0.01731786
#
# Stress axis : x y z
#
# Youngs Moduli (GPa) = 26.69937 26.69937 90.45914
#
# Poissons Ratio (x) = 0.73549 0.30645
# Poissons Ratio (y) = 0.73549 0.30645
# Poissons Ratio (z) = 0.09045 0.09045
#
# Static dielectric constant tensor:
#      x y z
#    x 1.542500 0.000000 0.000000 
#    y 0.000000 1.542500 0.000000 
#    z 0.000000 0.000000 1.605850 
# 
# From -- ./inp_files/8572.got.cif
#   From: 2010.05.17/outbox.cif.g08.bks.cpg/sg191_5_cif.got.tgz:8572.got - 2010.05.20 12:20:32.
