data_PCOD9588700
_publ_section_title
;
Structure prediction by ZEFSAII (Michael W. Deem and Ramdas Pophale) SiO2 
 PCOD9588700
Probable space group: P 6/M C C
;
_chemical_formula_sum "Si O2"
_cell_formula_units_Z 72
_cell_length_a 14.252092
_cell_length_b 14.252092
_cell_length_c 19.331708
_cell_angle_alpha 90.000000
_cell_angle_beta 90.000000
_cell_angle_gamma 120.000000
_cell_volume 3400.619905
_symmetry_space_group_name_H-M "P 6/M C C"
_symmetry_group_IT_number 192
_symmetry_cell_setting 'hexagonal'
loop_
_space_group_symop_operation_xyz
x,y,z
x-y,x,z
-y,x-y,z
-x,-y,z
-x+y,-x,z
y,-x+y,z
x-y,-y,1/2-z
-x,-x+y,1/2-z
y,x,1/2-z
-y,-x,1/2-z
-x+y,y,1/2-z
x,x-y,1/2-z
-x,-y,-z
-x+y,-x,-z
y,-x+y,-z
x,y,-z
x-y,x,-z
-y,x-y,-z
-x+y,y,1/2+z
x,x-y,1/2+z
-y,-x,1/2+z
y,x,1/2+z
x-y,-y,1/2+z
-x,-x+y,1/2+z
loop_
_atom_site_type_symbol
_atom_site_label
_atom_site_fract_x
_atom_site_fract_y
_atom_site_fract_z
Si Si1 0.044747 0.626804 0.922975
Si Si2 0.876565 0.545007 0.724537
Si Si3 0.047358 0.815670 0.416962
O O1 0.124363 0.671294 0.858722
O O2 0.950251 0.655538 0.907866
O O3 0.000000 0.500000 0.924512
O O4 0.088495 0.672218 0.000000
O O5 0.784835 0.569670 0.750000
O O6 0.854879 0.427440 0.750000
O O7 0.000000 0.628512 0.750000
O O8 0.929186 0.787497 0.389519
O O9 0.049730 0.831279 0.500000
#
# Coordination Sequence:
#
# PCOD9588700 Si02
#       3
#    24  24  24
#     4  10  21  39  63  93 127 170 221 275 324 390
#     4  11  24  45  67  95 129 175 221 273 343 411
#     4   9  18  32  55  88 127 166 204 252 314 382
#
# _framework density 21.172608
#
# number of rings (size 3 to 8) (size 9 to 14) (size 15 to 20)
#    0.000    2.000    3.333    0.667    4.667    1.333 
#    0.000    1.667    0.000    1.667    0.000    9.333 
#    0.000    0.000    0.000    0.000    0.000    0.000 
#
# Total GULP energy -401572.858911 kJ/mol
# GULP energy per Si atom -5577.400818 kJ/mol
# Density = 2.112442 g / cm^3
# Si number density = 21.172608 Si / 1000 Ang^3
#
#
#
# Elastic Constant Matrix: (Units=GPa)
#
#
# Indices 1 2 3 4 5 6 
#
# 1 120.6368 70.3427 18.1646 0.0000 0.0000 0.0000
# 2 70.3427 120.6368 18.1646 0.0000 0.0000 0.0000
# 3 18.1646 18.1646 145.1138 0.0000 0.0000 0.0000
# 4 0.0000 0.0000 0.0000 13.3081 0.0000 0.0000
# 5 0.0000 0.0000 0.0000 0.0000 13.3081 0.0000
# 6 0.0000 0.0000 0.0000 0.0000 0.0000 25.1471
#
#
#
# Elastic Compliance Matrix: (Units=1/GPa)
#
#
# Indices 1 2 3 4 5 6 
#
# 1 0.012623 -0.007260 -0.000671 0.000000 0.000000 0.000000
# 2 -0.007260 0.012623 -0.000671 0.000000 0.000000 0.000000
# 3 -0.000671 -0.000671 0.007059 0.000000 0.000000 0.000000
# 4 0.000000 0.000000 0.000000 0.075142 0.000000 0.000000
# 5 0.000000 0.000000 0.000000 0.000000 0.075142 0.000000
# 6 0.000000 0.000000 0.000000 0.000000 0.000000 0.039766
#
#
# Mechanical properties :
#
#
# Convention : Reuss Voigt Hill
#
# Bulk Modulus (GPa) = 66.21941 66.63679 66.42810
# Shear Modulus (GPa) = 20.44189 29.00035 24.72112
#
# Velocity S-wave (km/s) = 3.11060 3.70498 3.42072
# Velocity P-wave (km/s) = 6.65169 7.06002 6.85890
#
# Compressibility (1/GPa) = 0.01510131
#
# Stress axis : x y z
#
# Youngs Moduli (GPa) = 79.21760 79.21760 141.65849
#
# Poissons Ratio (x) = 0.57509 0.09511
# Poissons Ratio (y) = 0.57509 0.09511
# Poissons Ratio (z) = 0.05319 0.05319
#
# Static dielectric constant tensor:
#      x y z
#    x 1.776700 0.000000 0.000000 
#    y 0.000000 1.776700 0.000000 
#    z 0.000000 0.000000 1.830350 
# 
# From -- ./inp_files/3777.got.cif
#   From: 2010.05.17/outbox.cif.g08.bks.cpg/sg192_2_cif.got.tgz:3777.got - 2010.05.20 12:28:01.
