data_PCOD9588633
_publ_section_title
;
Structure prediction by ZEFSAII (Michael W. Deem and Ramdas Pophale) SiO2 
 PCOD9588633
Probable space group: P 6/M C C
;
_chemical_formula_sum "Si O2"
_cell_formula_units_Z 80
_cell_length_a 19.098519
_cell_length_b 19.098519
_cell_length_c 15.017009
_cell_angle_alpha 90.000000
_cell_angle_beta 90.000000
_cell_angle_gamma 120.000000
_cell_volume 4743.658922
_symmetry_space_group_name_H-M "P 6/M C C"
_symmetry_group_IT_number 192
_symmetry_cell_setting 'hexagonal'
loop_
_space_group_symop_operation_xyz
x,y,z
x-y,x,z
-y,x-y,z
-x,-y,z
-x+y,-x,z
y,-x+y,z
x-y,-y,1/2-z
-x,-x+y,1/2-z
y,x,1/2-z
-y,-x,1/2-z
-x+y,y,1/2-z
x,x-y,1/2-z
-x,-y,-z
-x+y,-x,-z
y,-x+y,-z
x,y,-z
x-y,x,-z
-y,x-y,-z
-x+y,y,1/2+z
x,x-y,1/2+z
-y,-x,1/2+z
y,x,1/2+z
x-y,-y,1/2+z
-x,-x+y,1/2+z
loop_
_atom_site_type_symbol
_atom_site_label
_atom_site_fract_x
_atom_site_fract_y
_atom_site_fract_z
Si Si1 0.333334 0.666667 0.141505
Si Si2 0.031462 0.439284 0.850076
Si Si3 0.643441 0.821372 0.000000
Si Si4 0.688190 0.998145 0.000000
Si Si5 0.728367 0.513818 0.350095
O O1 0.333334 0.666667 0.250000
O O2 0.282607 0.573456 0.114974
O O3 0.000717 0.363338 0.915319
O O4 0.128752 0.483628 0.849739
O O5 0.000000 0.500000 0.878795
O O6 0.000000 0.412282 0.750000
O O7 0.584662 0.789611 0.085687
O O8 0.692832 0.773676 0.000000
O O9 0.693113 0.917455 0.000000
O O10 0.762240 0.524480 0.250000
#
# Coordination Sequence:
#
# PCOD9588633 Si02
#       5
#     8  24  12  12  24
#     4   9  21  31  50  67 103 137 175 211 251 283
#     4  10  21  32  54  73 101 139 172 213 256 292
#     4  10  22  36  58  73 104 128 169 210 260 310
#     4  10  21  38  52  79  98 132 166 214 256 315
#     4  10  21  35  49  76 100 139 175 213 253 293
#
# _framework density 16.864619000000001
#
# number of rings (size 3 to 8) (size 9 to 14) (size 15 to 20)
#    0.000    2.100    0.000    2.250   16.800    1.200 
#    0.000    0.000    0.000    0.300    0.000    0.000 
#    0.000    0.000    0.000    9.600    0.000    0.000 
#
# Total GULP energy -446798.656911 kJ/mol
# GULP energy per Si atom -5584.983211 kJ/mol
# Density = 1.682623 g / cm^3
# Si number density = 16.864619 Si / 1000 Ang^3
#
#
#
# Elastic Constant Matrix: (Units=GPa)
#
#
# Indices 1 2 3 4 5 6 
#
# 1 115.9296 68.1878 33.6397 0.0002 -0.0001 0.0002
# 2 68.1878 115.9300 33.6397 0.0001 0.0000 0.0002
# 3 33.6397 33.6397 71.2052 0.0000 0.0000 0.0000
# 4 0.0002 0.0001 0.0000 11.3079 -0.0001 0.0000
# 5 -0.0001 0.0000 0.0000 -0.0001 11.3078 0.0000
# 6 0.0002 0.0002 0.0000 0.0000 0.0000 23.8710
#
#
#
# Elastic Compliance Matrix: (Units=1/GPa)
#
#
# Indices 1 2 3 4 5 6 
#
# 1 0.013755 -0.007191 -0.003101 0.000000 0.000000 0.000000
# 2 -0.007191 0.013755 -0.003101 0.000000 0.000000 0.000000
# 3 -0.003101 -0.003101 0.016974 0.000000 0.000000 0.000000
# 4 0.000000 0.000000 0.000000 0.088434 0.000001 0.000000
# 5 0.000000 0.000000 0.000000 0.000001 0.088435 0.000000
# 6 0.000000 0.000000 0.000000 0.000000 0.000000 0.041892
#
#
# Mechanical properties :
#
#
# Convention : Reuss Voigt Hill
#
# Bulk Modulus (GPa) = 56.50318 63.77769 60.14044
# Shear Modulus (GPa) = 16.89583 20.47051 18.68317
#
# Velocity S-wave (km/s) = 3.16864 3.48776 3.33202
# Velocity P-wave (km/s) = 6.85301 7.35655 7.10924
#
# Compressibility (1/GPa) = 0.01769812
#
# Stress axis : x y z
#
# Youngs Moduli (GPa) = 72.69939 72.69962 58.91271
#
# Poissons Ratio (x) = 0.52276 0.18271
# Poissons Ratio (y) = 0.52276 0.18271
# Poissons Ratio (z) = 0.22547 0.22546
#
# Static dielectric constant tensor:
#      x y z
#    x 1.555990 0.000000 0.000000 
#    y 0.000000 1.555990 0.000000 
#    z 0.000000 0.000000 1.584500 
# 
# From -- ./inp_files/2683.got.cif
#   From: 2010.05.17/outbox.cif.g08.bks.cpg/sg192_2_cif.got.tgz:2683.got - 2010.05.20 12:28:01.
