data_PCOD9588389
_publ_section_title
;
Structure prediction by ZEFSAII (Michael W. Deem and Ramdas Pophale) SiO2 
 PCOD9588389
Probable space group: P 6/M C C
;
_chemical_formula_sum "Si O2"
_cell_formula_units_Z 168
_cell_length_a 28.149719
_cell_length_b 28.149719
_cell_length_c 15.446059
_cell_angle_alpha 90.000000
_cell_angle_beta 90.000000
_cell_angle_gamma 120.000000
_cell_volume 10599.770175
_symmetry_space_group_name_H-M "P 6/M C C"
_symmetry_group_IT_number 192
_symmetry_cell_setting 'hexagonal'
loop_
_space_group_symop_operation_xyz
x,y,z
x-y,x,z
-y,x-y,z
-x,-y,z
-x+y,-x,z
y,-x+y,z
x-y,-y,1/2-z
-x,-x+y,1/2-z
y,x,1/2-z
-y,-x,1/2-z
-x+y,y,1/2-z
x,x-y,1/2-z
-x,-y,-z
-x+y,-x,-z
y,-x+y,-z
x,y,-z
x-y,x,-z
-y,x-y,-z
-x+y,y,1/2+z
x,x-y,1/2+z
-y,-x,1/2+z
y,x,1/2+z
x-y,-y,1/2+z
-x,-x+y,1/2+z
loop_
_atom_site_type_symbol
_atom_site_label
_atom_site_fract_x
_atom_site_fract_y
_atom_site_fract_z
Si Si1 0.341810 0.935310 0.849655
Si Si2 0.781287 0.781287 0.603481
Si Si3 0.327293 0.108866 0.605187
Si Si4 0.406501 0.064690 0.849655
Si Si5 0.108153 1.000000 0.854476
Si Si6 0.479267 0.066469 0.500000
Si Si7 0.672707 0.891134 0.894813
Si Si8 0.520733 0.933531 0.000000
O O1 0.276906 0.900619 0.864803
O O2 0.354864 0.931386 0.750000
O O3 0.374589 0.918387 0.915697
O O4 0.362639 1.000000 0.867465
O O5 0.774666 0.774666 0.500000
O O6 0.784789 0.729024 0.636056
O O7 0.836893 0.836893 0.621784
O O8 0.729024 0.784789 0.636056
O O9 0.327162 0.108689 0.500000
O O10 0.330838 0.165419 0.633350
O O11 0.376287 0.099381 0.864803
O O12 0.456201 0.081613 0.915697
O O13 0.109245 0.054623 0.886331
O O14 0.105086 0.000000 0.750000
O O15 0.543607 0.087215 0.500000
O O16 0.448563 0.000000 0.500000
O O17 0.672838 0.891311 0.000000
#
# Coordination Sequence:
#
# PCOD9588389 Si02
#       8
#    24  24  24  24  24  12  24  12
#     4  10  19  31  50  72  97 131 170 207 246 297
#     4  10  20  33  51  69  90 117 155 208 263 318
#     4  10  19  31  49  70  94 130 170 210 264 320
#     4  10  19  31  50  72  97 131 170 207 246 297
#     4  10  21  36  50  62  80 108 145 197 266 339
#     4   9  18  32  51  72 100 131 157 194 234 270
#     4  10  19  31  49  70  94 130 170 210 264 320
#     4   9  18  32  51  72 100 131 157 194 234 270
#
# _framework density 15.849401
#
# number of rings (size 3 to 8) (size 9 to 14) (size 15 to 20)
#    0.000    2.143    2.857    1.000    0.000    4.571 
#    0.000    2.857    0.000    0.857    0.000    0.000 
#    0.000    0.000    0.000    3.429    0.000    7.429 
#
# Total GULP energy -937502.622643 kJ/mol
# GULP energy per Si atom -5580.372754 kJ/mol
# Density = 1.581333 g / cm^3
# Si number density = 15.849401 Si / 1000 Ang^3
#
#
#
# Elastic Constant Matrix: (Units=GPa)
#
#
# Indices 1 2 3 4 5 6 
#
# 1 105.8063 72.4608 39.4689 0.0000 0.0000 0.0000
# 2 72.4608 105.8063 39.4689 0.0000 0.0000 0.0000
# 3 39.4689 39.4689 62.9687 0.0000 0.0000 0.0000
# 4 0.0000 0.0000 0.0000 18.4230 0.0000 0.0000
# 5 0.0000 0.0000 0.0000 0.0000 18.4230 0.0000
# 6 0.0000 0.0000 0.0000 0.0000 0.0000 16.6728
#
#
#
# Elastic Compliance Matrix: (Units=1/GPa)
#
#
# Indices 1 2 3 4 5 6 
#
# 1 0.018877 -0.011112 -0.004867 0.000000 0.000000 0.000000
# 2 -0.011112 0.018877 -0.004867 0.000000 0.000000 0.000000
# 3 -0.004867 -0.004867 0.021982 0.000000 0.000000 0.000000
# 4 0.000000 0.000000 0.000000 0.054280 0.000000 0.000000
# 5 0.000000 0.000000 0.000000 0.000000 0.054280 0.000000
# 6 0.000000 0.000000 0.000000 0.000000 0.000000 0.059978
#
#
# Mechanical properties :
#
#
# Convention : Reuss Voigt Hill
#
# Bulk Modulus (GPa) = 55.42080 64.15320 59.78700
# Shear Modulus (GPa) = 18.11724 18.91593 18.51658
#
# Velocity S-wave (km/s) = 3.38462 3.45843 3.42172
# Velocity P-wave (km/s) = 7.09347 7.51746 7.30854
#
# Compressibility (1/GPa) = 0.01804377
#
# Stress axis : x y z
#
# Youngs Moduli (GPa) = 52.97501 52.97501 45.49161
#
# Poissons Ratio (x) = 0.58867 0.22140
# Poissons Ratio (y) = 0.58867 0.22140
# Poissons Ratio (z) = 0.25782 0.25782
#
# Static dielectric constant tensor:
#      x y z
#    x 1.509140 0.000000 0.000000 
#    y 0.000000 1.509140 0.000000 
#    z 0.000000 0.000000 1.571860 
# 
# From -- ./inp_files/3468.got.cif
#   From: 2010.05.17/outbox.cif.g08.bks.cpg/sg192_2_cif.got.tgz:3468.got - 2010.05.20 12:28:01.
