data_PCOD9588602
_publ_section_title
;
Structure prediction by ZEFSAII (Michael W. Deem and Ramdas Pophale) SiO2 
 PCOD9588602
Probable space group: P 6/M C C
;
_chemical_formula_sum "Si O2"
_cell_formula_units_Z 104
_cell_length_a 19.989631
_cell_length_b 19.989631
_cell_length_c 17.036282
_cell_angle_alpha 90.000000
_cell_angle_beta 90.000000
_cell_angle_gamma 120.000000
_cell_volume 5895.423477
_symmetry_space_group_name_H-M "P 6/M C C"
_symmetry_group_IT_number 192
_symmetry_cell_setting 'hexagonal'
loop_
_space_group_symop_operation_xyz
x,y,z
x-y,x,z
-y,x-y,z
-x,-y,z
-x+y,-x,z
y,-x+y,z
x-y,-y,1/2-z
-x,-x+y,1/2-z
y,x,1/2-z
-y,-x,1/2-z
-x+y,y,1/2-z
x,x-y,1/2-z
-x,-y,-z
-x+y,-x,-z
y,-x+y,-z
x,y,-z
x-y,x,-z
-y,x-y,-z
-x+y,y,1/2+z
x,x-y,1/2+z
-y,-x,1/2+z
y,x,1/2+z
x-y,-y,1/2+z
-x,-x+y,1/2+z
loop_
_atom_site_type_symbol
_atom_site_label
_atom_site_fract_x
_atom_site_fract_y
_atom_site_fract_z
Si Si1 0.666668 0.333334 0.903621
Si Si2 0.287459 0.285327 0.843277
Si Si3 0.287405 0.789690 0.404746
Si Si4 0.588534 0.551131 0.905051
Si Si5 0.835258 0.164093 0.405746
O O1 0.718735 0.296959 0.877501
O O2 0.666667 0.333334 0.000000
O O3 0.284674 0.284674 0.750000
O O4 0.364888 0.362432 0.871831
O O5 0.289290 0.210664 0.873730
O O6 0.215852 0.292098 0.877028
O O7 0.284906 0.786431 0.500000
O O8 0.361381 0.872071 0.383755
O O9 0.211942 0.792980 0.379229
O O10 0.500000 0.500000 0.879538
O O11 0.589388 0.557212 0.000000
O O12 0.836624 0.164273 0.500000
#
# Coordination Sequence:
#
# PCOD9588602 Si02
#       5
#     8  24  24  24  24
#     4   9  15  24  42  72 103 131 172 234 286 314
#     4  11  22  36  56  83 114 146 180 230 291 344
#     4   8  16  27  44  73 104 134 178 229 280 320
#     4   9  18  32  51  75 103 143 193 238 278 327
#     4  10  20  37  58  82 109 145 188 229 273 336
#
# _framework density 17.640802999999998
#
# number of rings (size 3 to 8) (size 9 to 14) (size 15 to 20)
#    0.000    2.538    0.000    4.154    3.231    0.462 
#    0.000    0.000    0.000    0.462    0.000    3.231 
#    0.000    0.000    0.000    0.000    0.000    0.000 
#
# Total GULP energy -580154.792921 kJ/mol
# GULP energy per Si atom -5578.411470 kJ/mol
# Density = 1.760065 g / cm^3
# Si number density = 17.640803 Si / 1000 Ang^3
#
#
#
# Elastic Constant Matrix: (Units=GPa)
#
#
# Indices 1 2 3 4 5 6 
#
# 1 120.0039 90.8065 34.2604 0.0000 0.0000 0.0001
# 2 90.8065 120.0046 34.2605 0.0000 0.0000 -0.0001
# 3 34.2604 34.2605 54.2976 0.0000 0.0000 0.0000
# 4 0.0000 0.0000 0.0000 9.0585 0.0000 0.0000
# 5 0.0000 0.0000 0.0000 0.0000 9.0587 0.0000
# 6 0.0001 -0.0001 0.0000 0.0000 0.0000 14.5987
#
#
#
# Elastic Compliance Matrix: (Units=1/GPa)
#
#
# Indices 1 2 3 4 5 6 
#
# 1 0.020108 -0.014141 -0.003765 0.000000 0.000000 0.000000
# 2 -0.014141 0.020108 -0.003765 0.000000 0.000000 0.000000
# 3 -0.003765 -0.003765 0.023169 0.000000 0.000000 0.000000
# 4 0.000000 0.000000 0.000000 0.110394 0.000000 0.000000
# 5 0.000000 0.000000 0.000000 0.000000 0.110392 0.000000
# 6 0.000000 0.000000 0.000000 0.000000 0.000000 0.068499
#
#
# Mechanical properties :
#
#
# Convention : Reuss Voigt Hill
#
# Bulk Modulus (GPa) = 49.89448 68.10678 59.00063
# Shear Modulus (GPa) = 12.41639 15.54174 13.97907
#
# Velocity S-wave (km/s) = 2.65589 2.97140 2.81806
# Velocity P-wave (km/s) = 6.14410 7.10378 6.64129
#
# Compressibility (1/GPa) = 0.02004230
#
# Stress axis : x y z
#
# Youngs Moduli (GPa) = 49.73047 49.73078 43.16175
#
# Poissons Ratio (x) = 0.70324 0.16252
# Poissons Ratio (y) = 0.70323 0.16252
# Poissons Ratio (z) = 0.18725 0.18725
#
# Static dielectric constant tensor:
#      x y z
#    x 1.590480 0.000000 0.000000 
#    y 0.000000 1.590480 0.000000 
#    z 0.000000 0.000000 1.593590 
# 
# From -- ./inp_files/2857.got.cif
#   From: 2010.05.17/outbox.cif.g08.bks.cpg/sg192_2_cif.got.tgz:2857.got - 2010.05.20 12:28:01.
