data_PCOD9588091
_publ_section_title
;
Structure prediction by ZEFSAII (Michael W. Deem and Ramdas Pophale) SiO2 
 PCOD9588091
Probable space group: P 6/M M M
;
_chemical_formula_sum "Si O2"
_cell_formula_units_Z 114
_cell_length_a 20.767917
_cell_length_b 20.767917
_cell_length_c 14.485812
_cell_angle_alpha 90.000000
_cell_angle_beta 90.000000
_cell_angle_gamma 120.000000
_cell_volume 5410.773510
_symmetry_space_group_name_H-M "P 6/M M M"
_symmetry_group_IT_number 191
_symmetry_cell_setting 'hexagonal'
loop_
_space_group_symop_operation_xyz
x,y,z
x-y,x,z
-y,x-y,z
-x,-y,z
-x+y,-x,z
y,-x+y,z
x-y,-y,-z
-x,-x+y,-z
y,x,-z
-y,-x,-z
-x+y,y,-z
x,x-y,-z
-x,-y,-z
-x+y,-x,-z
y,-x+y,-z
x,y,-z
x-y,x,-z
-y,x-y,-z
-x+y,y,z
x,x-y,z
-y,-x,z
y,x,z
x-y,-y,z
-x,-x+y,z
loop_
_atom_site_type_symbol
_atom_site_label
_atom_site_fract_x
_atom_site_fract_y
_atom_site_fract_z
Si Si1 0.666893 0.194215 0.797125
Si Si2 0.086863 0.173726 0.294181
Si Si3 0.124024 0.875977 0.106975
Si Si4 0.000000 0.500000 0.618386
Si Si5 0.137394 0.669854 0.394226
Si Si6 0.333720 0.166860 0.607969
Si Si7 0.374901 0.292682 0.109514
O O1 0.583314 0.166627 0.826849
O O2 0.722307 0.277694 0.827657
O O3 0.669865 0.189296 0.686816
O O4 0.697258 0.142926 0.837118
O O5 0.129556 0.129556 0.321341
O O6 0.092495 0.184990 0.183287
O O7 0.128958 0.257915 0.334341
O O8 0.212139 0.909491 0.121830
O O9 0.111724 0.888277 0.000000
O O10 0.064365 0.475177 0.614172
O O11 0.164075 0.677270 0.500000
O O12 0.131015 0.744001 0.376202
O O13 0.313588 0.156794 0.500000
O O14 0.354291 0.354291 0.139256
O O15 0.390642 0.300146 0.000000
#
# Coordination Sequence:
#
# PCOD9588091 Si02
#       7
#    24  12  12   6  24  12  24
#     4  12  25  41  62  88 128 175 222 264 318 385
#     4  12  27  46  68 100 139 184 230 283 348 414
#     4  10  20  41  71 100 132 169 214 273 340 412
#     4  12  25  40  68 104 141 174 213 278 346 402
#     4  11  23  41  64  97 136 175 216 274 340 398
#     4  10  24  45  71  98 133 182 239 287 334 408
#     4  10  22  41  67  97 127 163 212 273 333 389
#
# _framework density 21.069075000000002
#
# number of rings (size 3 to 8) (size 9 to 14) (size 15 to 20)
#    0.000    1.053    3.158    3.158    2.947    2.526 
#    0.000    1.053    0.000    3.789    0.000    0.000 
#    0.000    0.000    0.000    0.000    0.000    0.000 
#
# Total GULP energy -635162.889346 kJ/mol
# GULP energy per Si atom -5571.604293 kJ/mol
# Density = 2.102112 g / cm^3
# Si number density = 21.069075 Si / 1000 Ang^3
#
#
#
# Elastic Constant Matrix: (Units=GPa)
#
#
# Indices 1 2 3 4 5 6 
#
# 1 119.5123 51.3882 27.4031 0.0000 0.0000 0.0000
# 2 51.3882 119.5123 27.4031 0.0000 0.0000 0.0000
# 3 27.4031 27.4031 35.4910 0.0000 0.0000 0.0000
# 4 0.0000 0.0000 0.0000 11.0187 0.0000 0.0000
# 5 0.0000 0.0000 0.0000 0.0000 11.0187 0.0000
# 6 0.0000 0.0000 0.0000 0.0000 0.0000 34.0621
#
#
#
# Elastic Compliance Matrix: (Units=1/GPa)
#
#
# Indices 1 2 3 4 5 6 
#
# 1 0.011228 -0.003451 -0.006005 0.000000 0.000000 0.000000
# 2 -0.003451 0.011228 -0.006005 0.000000 0.000000 0.000000
# 3 -0.006005 -0.006005 0.037449 0.000000 0.000000 0.000000
# 4 0.000000 0.000000 0.000000 0.090755 0.000000 0.000000
# 5 0.000000 0.000000 0.000000 0.000000 0.090755 0.000000
# 6 0.000000 0.000000 0.000000 0.000000 0.000000 0.029358
#
#
# Mechanical properties :
#
#
# Convention : Reuss Voigt Hill
#
# Bulk Modulus (GPa) = 34.50187 54.10049 44.30118
# Shear Modulus (GPa) = 16.05881 22.44131 19.25006
#
# Velocity S-wave (km/s) = 2.76379 3.26717 3.02597
# Velocity P-wave (km/s) = 5.15712 6.32187 5.76896
#
# Compressibility (1/GPa) = 0.02898394
#
# Stress axis : x y z
#
# Youngs Moduli (GPa) = 89.06262 89.06262 26.70303
#
# Poissons Ratio (x) = 0.30736 0.16035
# Poissons Ratio (y) = 0.30736 0.16035
# Poissons Ratio (z) = 0.53480 0.53480
#
# Static dielectric constant tensor:
#      x y z
#    x 1.753120 0.000000 0.000000 
#    y 0.000000 1.753120 0.000000 
#    z 0.000000 0.000000 1.782230 
# 
# From -- ./inp_files/4441.got.cif
#   From: 2010.05.17/outbox.cif.g08.bks.cpg/sg191_3_cif.got.tgz:4441.got - 2010.05.20 12:20:32.
