data_PCOD9588796
_publ_section_title
;
Structure prediction by ZEFSAII (Michael W. Deem and Ramdas Pophale) SiO2 
 PCOD9588796
Probable space group: P 6/M C C
;
_chemical_formula_sum "Si O2"
_cell_formula_units_Z 104
_cell_length_a 18.957514
_cell_length_b 18.957514
_cell_length_c 18.080372
_cell_angle_alpha 90.000000
_cell_angle_beta 90.000000
_cell_angle_gamma 120.000000
_cell_volume 5627.309012
_symmetry_space_group_name_H-M "P 6/M C C"
_symmetry_group_IT_number 192
_symmetry_cell_setting 'hexagonal'
loop_
_space_group_symop_operation_xyz
x,y,z
x-y,x,z
-y,x-y,z
-x,-y,z
-x+y,-x,z
y,-x+y,z
x-y,-y,1/2-z
-x,-x+y,1/2-z
y,x,1/2-z
-y,-x,1/2-z
-x+y,y,1/2-z
x,x-y,1/2-z
-x,-y,-z
-x+y,-x,-z
y,-x+y,-z
x,y,-z
x-y,x,-z
-y,x-y,-z
-x+y,y,1/2+z
x,x-y,1/2+z
-y,-x,1/2+z
y,x,1/2+z
x-y,-y,1/2+z
-x,-x+y,1/2+z
loop_
_atom_site_type_symbol
_atom_site_label
_atom_site_fract_x
_atom_site_fract_y
_atom_site_fract_z
Si Si1 0.976669 0.568677 0.336053
Si Si2 0.637976 0.900205 0.588493
Si Si3 0.333334 0.666667 0.839766
Si Si4 0.482269 0.269413 0.334990
Si Si5 0.819873 0.951776 0.590216
O O1 0.881076 0.540309 0.341779
O O2 0.000000 0.500000 0.357185
O O3 0.000000 0.587846 0.250000
O O4 0.033559 0.649491 0.382027
O O5 0.635386 0.898514 0.500000
O O6 0.577864 0.810712 0.619612
O O7 0.729454 0.927237 0.613325
O O8 0.333334 0.666667 0.750000
O O9 0.304946 0.574818 0.862149
O O10 0.478453 0.239227 0.250000
O O11 0.843778 0.885658 0.614925
O O12 0.820896 0.952118 0.500000
#
# Coordination Sequence:
#
# PCOD9588796 Si02
#       5
#    24  24   8  24  24
#     4  11  23  39  64  91 123 164 210 260 313 381
#     4  11  23  39  60  91 127 163 204 259 319 375
#     4   9  21  36  64  89 115 162 208 263 310 375
#     4  11  21  39  63  91 122 160 211 260 318 381
#     4   9  17  31  53  81 114 153 197 243 296 358
#
# _framework density 18.481301999999999
#
# number of rings (size 3 to 8) (size 9 to 14) (size 15 to 20)
#    0.000    1.615    2.308    3.000    6.462    4.154 
#    0.000    3.462    0.000    0.000    0.000    0.000 
#    0.000    0.000    0.000    0.000    0.000    0.000 
#
# Total GULP energy -580814.832770 kJ/mol
# GULP energy per Si atom -5584.758007 kJ/mol
# Density = 1.843924 g / cm^3
# Si number density = 18.481302 Si / 1000 Ang^3
#
#
#
# Elastic Constant Matrix: (Units=GPa)
#
#
# Indices 1 2 3 4 5 6 
#
# 1 226.6065 139.8752 46.9586 0.0001 0.0000 0.0001
# 2 139.8752 226.6062 46.9589 0.0001 -0.0001 0.0000
# 3 46.9586 46.9589 32.5648 0.0000 0.0000 0.0000
# 4 0.0001 0.0001 0.0000 22.2772 0.0000 0.0000
# 5 0.0000 -0.0001 0.0000 0.0000 22.2772 0.0000
# 6 0.0001 0.0000 0.0000 0.0000 0.0000 43.3659
#
#
#
# Elastic Compliance Matrix: (Units=1/GPa)
#
#
# Indices 1 2 3 4 5 6 
#
# 1 0.007929 -0.003601 -0.006241 0.000000 0.000000 0.000000
# 2 -0.003601 0.007929 -0.006241 0.000000 0.000000 0.000000
# 3 -0.006241 -0.006241 0.048707 0.000000 0.000000 0.000000
# 4 0.000000 0.000000 0.000000 0.044889 0.000000 0.000000
# 5 0.000000 0.000000 0.000000 0.000000 0.044889 0.000000
# 6 0.000000 0.000000 0.000000 0.000000 0.000000 0.023060
#
#
# Mechanical properties :
#
#
# Convention : Reuss Voigt Hill
#
# Bulk Modulus (GPa) = 30.86496 105.92922 68.39709
# Shear Modulus (GPa) = 22.68924 34.38303 28.53613
#
# Velocity S-wave (km/s) = 3.50764 4.31794 3.93371
# Velocity P-wave (km/s) = 5.75687 9.07198 7.59745
#
# Compressibility (1/GPa) = 0.03239920
#
# Stress axis : x y z
#
# Youngs Moduli (GPa) = 126.12032 126.11937 20.53074
#
# Poissons Ratio (x) = 0.45415 0.12813
# Poissons Ratio (y) = 0.45415 0.12814
# Poissons Ratio (z) = 0.78712 0.78713
#
# Static dielectric constant tensor:
#      x y z
#    x 1.622410 0.000000 0.000000 
#    y 0.000000 1.622410 0.000000 
#    z 0.000000 0.000000 1.624890 
# 
# From -- ./inp_files/4846.got.cif
#   From: 2010.05.17/outbox.cif.g08.bks.cpg/sg192_3_cif.got.tgz:4846.got - 2010.05.20 12:28:01.
