data_PCOD9588645
_publ_section_title
;
Structure prediction by ZEFSAII (Michael W. Deem and Ramdas Pophale) SiO2 
 PCOD9588645
Probable space group: P 6/M C C
;
_chemical_formula_sum "Si O2"
_cell_formula_units_Z 132
_cell_length_a 25.680157
_cell_length_b 25.680157
_cell_length_c 14.248088
_cell_angle_alpha 90.000000
_cell_angle_beta 90.000000
_cell_angle_gamma 120.000000
_cell_volume 8137.342008
_symmetry_space_group_name_H-M "P 6/M C C"
_symmetry_group_IT_number 192
_symmetry_cell_setting 'hexagonal'
loop_
_space_group_symop_operation_xyz
x,y,z
x-y,x,z
-y,x-y,z
-x,-y,z
-x+y,-x,z
y,-x+y,z
x-y,-y,1/2-z
-x,-x+y,1/2-z
y,x,1/2-z
-y,-x,1/2-z
-x+y,y,1/2-z
x,x-y,1/2-z
-x,-y,-z
-x+y,-x,-z
y,-x+y,-z
x,y,-z
x-y,x,-z
-y,x-y,-z
-x+y,y,1/2+z
x,x-y,1/2+z
-y,-x,1/2+z
y,x,1/2+z
x-y,-y,1/2+z
-x,-x+y,1/2+z
loop_
_atom_site_type_symbol
_atom_site_label
_atom_site_fract_x
_atom_site_fract_y
_atom_site_fract_z
Si Si1 0.269527 0.429857 0.388679
Si Si2 0.963741 0.858524 0.500000
Si Si3 0.291203 0.847001 0.392153
Si Si4 0.219753 0.059493 0.188170
Si Si5 0.929293 0.657961 0.732254
Si Si6 0.666842 0.210034 0.244742
O O1 0.281121 0.427291 0.500000
O O2 0.204749 0.425914 0.379689
O O3 0.266378 0.375694 0.325839
O O4 0.316278 0.494435 0.340376
O O5 0.914862 0.881862 0.500000
O O6 0.952580 0.815817 0.409501
O O7 0.305571 0.854816 0.500000
O O8 0.301014 0.906949 0.344127
O O9 0.328197 0.822721 0.336833
O O10 0.209527 0.104764 0.250000
O O11 0.290924 0.082906 0.188161
O O12 0.192450 0.000000 0.250000
O O13 0.000000 0.689314 0.750000
O O14 0.721261 0.278740 0.250000
O O15 0.603510 0.207019 0.250000
#
# Coordination Sequence:
#
# PCOD9588645 Si02
#       6
#    24  12  24  24  24  24
#     4   9  18  35  54  74 104 143 183 212 261 337
#     4  12  25  42  62  80 106 152 190 223 279 347
#     4   9  18  33  52  74 103 138 178 210 257 327
#     4  11  22  39  56  79 111 132 172 230 277 329
#     4  10  21  35  52  77 102 131 167 221 283 326
#     4   9  17  30  51  80 114 145 176 216 254 302
#
# _framework density 16.221512000000001
#
# number of rings (size 3 to 8) (size 9 to 14) (size 15 to 20)
#    0.000    2.182    1.818    3.000    1.273    1.455 
#    6.545    0.000    0.000   10.909    0.000   10.182 
#    0.000    0.000    0.000    0.000    0.000    0.000 
#
# Total GULP energy -735079.474329 kJ/mol
# GULP energy per Si atom -5568.783896 kJ/mol
# Density = 1.618459 g / cm^3
# Si number density = 16.221512 Si / 1000 Ang^3
#
#
#
# Elastic Constant Matrix: (Units=GPa)
#
#
# Indices 1 2 3 4 5 6 
#
# 1 96.8476 50.7931 58.9858 0.0000 0.0000 0.0000
# 2 50.7931 96.8476 58.9858 0.0000 0.0000 0.0000
# 3 58.9858 58.9858 145.8046 0.0000 0.0000 0.0000
# 4 0.0000 0.0000 0.0000 7.3846 0.0000 0.0000
# 5 0.0000 0.0000 0.0000 0.0000 7.3846 0.0000
# 6 0.0000 0.0000 0.0000 0.0000 0.0000 23.0272
#
#
#
# Elastic Compliance Matrix: (Units=1/GPa)
#
#
# Indices 1 2 3 4 5 6 
#
# 1 0.015861 -0.005852 -0.004049 0.000000 0.000000 0.000000
# 2 -0.005852 0.015861 -0.004049 0.000000 0.000000 0.000000
# 3 -0.004049 -0.004049 0.010135 0.000000 0.000000 0.000000
# 4 0.000000 0.000000 0.000000 0.135417 0.000000 0.000000
# 5 0.000000 0.000000 0.000000 0.000000 0.135417 0.000000
# 6 0.000000 0.000000 0.000000 0.000000 0.000000 0.043427
#
#
# Mechanical properties :
#
#
# Convention : Reuss Voigt Hill
#
# Bulk Modulus (GPa) = 71.65551 75.22548 73.44049
# Shear Modulus (GPa) = 12.86441 18.94163 15.90302
#
# Velocity S-wave (km/s) = 2.81916 3.42085 3.13448
# Velocity P-wave (km/s) = 7.40715 7.87893 7.64668
#
# Compressibility (1/GPa) = 0.01395566
#
# Stress axis : x y z
#
# Youngs Moduli (GPa) = 63.04784 63.04784 98.67229
#
# Poissons Ratio (x) = 0.36898 0.39952
# Poissons Ratio (y) = 0.36898 0.39952
# Poissons Ratio (z) = 0.25528 0.25528
#
# Static dielectric constant tensor:
#      x y z
#    x 1.607220 0.000000 0.000000 
#    y 0.000000 1.607220 0.000000 
#    z 0.000000 0.000000 1.537280 
# 
# From -- ./inp_files/3226.got.cif
#   From: 2010.05.17/outbox.cif.g08.bks.cpg/sg192_2_cif.got.tgz:3226.got - 2010.05.20 12:28:01.
