data_PCOD9588330
_publ_section_title
;
Structure prediction by ZEFSAII (Michael W. Deem and Ramdas Pophale) SiO2 
 PCOD9588330
Probable space group: P 6/M C C
;
_chemical_formula_sum "Si O2"
_cell_formula_units_Z 192
_cell_length_a 28.912828
_cell_length_b 28.912828
_cell_length_c 15.775925
_cell_angle_alpha 90.000000
_cell_angle_beta 90.000000
_cell_angle_gamma 120.000000
_cell_volume 11421.065176
_symmetry_space_group_name_H-M "P 6/M C C"
_symmetry_group_IT_number 192
_symmetry_cell_setting 'hexagonal'
loop_
_space_group_symop_operation_xyz
x,y,z
x-y,x,z
-y,x-y,z
-x,-y,z
-x+y,-x,z
y,-x+y,z
x-y,-y,1/2-z
-x,-x+y,1/2-z
y,x,1/2-z
-y,-x,1/2-z
-x+y,y,1/2-z
x,x-y,1/2-z
-x,-y,-z
-x+y,-x,-z
y,-x+y,-z
x,y,-z
x-y,x,-z
-y,x-y,-z
-x+y,y,1/2+z
x,x-y,1/2+z
-y,-x,1/2+z
y,x,1/2+z
x-y,-y,1/2+z
-x,-x+y,1/2+z
loop_
_atom_site_type_symbol
_atom_site_label
_atom_site_fract_x
_atom_site_fract_y
_atom_site_fract_z
Si Si1 0.374638 0.518342 0.903458
Si Si2 0.298279 0.233539 0.594467
Si Si3 0.233539 0.935260 0.905533
Si Si4 0.333497 0.557923 0.250000
Si Si5 0.064004 0.833665 0.750000
Si Si6 0.337159 0.937590 0.352023
Si Si7 0.374638 0.856296 0.096542
Si Si8 0.600431 0.662841 0.147977
O O1 0.342884 0.531384 0.833090
O O2 0.361984 0.458429 0.888994
O O3 0.437012 0.562988 0.891189
O O4 0.360559 0.524145 0.000000
O O5 0.294432 0.211575 0.500000
O O6 0.267659 0.267659 0.593998
O O7 0.268523 0.190863 0.667990
O O8 0.359189 0.277067 0.616621
O O9 0.190863 0.922340 0.832010
O O10 0.277067 0.917878 0.883379
O O11 0.211575 0.917143 0.000000
O O12 0.380458 0.619542 0.250000
O O13 0.276362 0.552723 0.250000
O O14 0.342884 0.531384 0.333090
O O15 0.102777 0.897223 0.750000
O O16 0.000000 0.810983 0.750000
O O17 0.336085 0.934132 0.250000
O O18 0.372900 0.000000 0.375485
O O19 0.361983 0.903554 0.111006
O O20 0.360559 0.836414 0.000000
#
# Coordination Sequence:
#
# PCOD9588330 Si02
#       8
#    24  24  24  24  24  24  24  24
#     4  10  21  36  53  76 107 139 171 211 259 309
#     4   9  17  31  51  74 102 137 176 216 255 295
#     4   9  17  31  51  74 102 137 176 216 255 295
#     4  10  21  39  60  78  95 119 157 208 265 320
#     4  10  20  35  55  80 109 139 175 218 263 311
#     4  10  18  31  53  77 105 143 182 215 250 298
#     4  10  21  36  53  76 107 139 171 211 259 309
#     4  10  18  31  53  77 105 143 182 215 250 298
#
# _framework density 16.811040999999999
#
# number of rings (size 3 to 8) (size 9 to 14) (size 15 to 20)
#    0.000    2.250    2.500    0.875    0.000    3.000 
#    0.000    5.000    0.000    4.625    0.000    0.000 
#    0.000    0.000    0.000    6.250    0.000    0.000 
#
# Total GULP energy -1070541.440140 kJ/mol
# GULP energy per Si atom -5575.736667 kJ/mol
# Density = 1.677278 g / cm^3
# Si number density = 16.811041 Si / 1000 Ang^3
#
#
#
# Elastic Constant Matrix: (Units=GPa)
#
#
# Indices 1 2 3 4 5 6 
#
# 1 80.4113 55.0311 46.4541 0.0000 0.0000 0.0000
# 2 55.0311 80.4113 46.4541 0.0000 0.0000 0.0000
# 3 46.4541 46.4541 130.0147 0.0000 0.0000 0.0000
# 4 0.0000 0.0000 0.0000 3.5747 0.0000 0.0000
# 5 0.0000 0.0000 0.0000 0.0000 3.5747 0.0000
# 6 0.0000 0.0000 0.0000 0.0000 0.0000 12.6901
#
#
#
# Elastic Compliance Matrix: (Units=1/GPa)
#
#
# Indices 1 2 3 4 5 6 
#
# 1 0.024591 -0.014810 -0.003494 0.000000 0.000000 0.000000
# 2 -0.014810 0.024591 -0.003494 0.000000 0.000000 0.000000
# 3 -0.003494 -0.003494 0.010189 0.000000 0.000000 0.000000
# 4 0.000000 0.000000 0.000000 0.279747 0.000000 0.000000
# 5 0.000000 0.000000 0.000000 0.000000 0.279747 0.000000
# 6 0.000000 0.000000 0.000000 0.000000 0.000000 0.078802
#
#
# Mechanical properties :
#
#
# Convention : Reuss Voigt Hill
#
# Bulk Modulus (GPa) = 63.40662 65.19068 64.29865
# Shear Modulus (GPa) = 6.69774 13.49441 10.09607
#
# Velocity S-wave (km/s) = 1.99819 2.83629 2.45330
# Velocity P-wave (km/s) = 6.56680 7.04193 6.80851
#
# Compressibility (1/GPa) = 0.01577122
#
# Stress axis : x y z
#
# Youngs Moduli (GPa) = 40.66599 40.66599 98.14896
#
# Poissons Ratio (x) = 0.60227 0.34298
# Poissons Ratio (y) = 0.60227 0.34298
# Poissons Ratio (z) = 0.14211 0.14211
#
# Static dielectric constant tensor:
#      x y z
#    x 1.545480 0.000000 0.000000 
#    y 0.000000 1.545480 0.000000 
#    z 0.000000 0.000000 1.594250 
# 
# From -- ./inp_files/3569.got.cif
#   From: 2010.05.17/outbox.cif.g08.bks.cpg/sg192_2_cif.got.tgz:3569.got - 2010.05.20 12:28:01.
