data_PCOD9588598
_publ_section_title
;
Structure prediction by ZEFSAII (Michael W. Deem and Ramdas Pophale) SiO2 
 PCOD9588598
Probable space group: P 6/M C C
;
_chemical_formula_sum "Si O2"
_cell_formula_units_Z 132
_cell_length_a 16.956213
_cell_length_b 16.956213
_cell_length_c 25.256239
_cell_angle_alpha 90.000000
_cell_angle_beta 90.000000
_cell_angle_gamma 120.000000
_cell_volume 6288.644394
_symmetry_space_group_name_H-M "P 6/M C C"
_symmetry_group_IT_number 192
_symmetry_cell_setting 'hexagonal'
loop_
_space_group_symop_operation_xyz
x,y,z
x-y,x,z
-y,x-y,z
-x,-y,z
-x+y,-x,z
y,-x+y,z
x-y,-y,1/2-z
-x,-x+y,1/2-z
y,x,1/2-z
-y,-x,1/2-z
-x+y,y,1/2-z
x,x-y,1/2-z
-x,-y,-z
-x+y,-x,-z
y,-x+y,-z
x,y,-z
x-y,x,-z
-y,x-y,-z
-x+y,y,1/2+z
x,x-y,1/2+z
-y,-x,1/2+z
y,x,1/2+z
x-y,-y,1/2+z
-x,-x+y,1/2+z
loop_
_atom_site_type_symbol
_atom_site_label
_atom_site_fract_x
_atom_site_fract_y
_atom_site_fract_z
Si Si1 0.356060 0.838429 0.060447
Si Si2 0.783303 0.886171 0.000000
Si Si3 0.595119 0.009326 0.857768
Si Si4 0.698562 0.504189 0.112486
Si Si5 0.104629 0.219359 0.116949
Si Si6 0.230479 0.388807 0.307846
O O1 0.376275 0.930791 0.088743
O O2 0.249550 0.766895 0.065238
O O3 0.410783 0.802353 0.096447
O O4 0.387057 0.850857 0.000000
O O5 0.849048 0.843847 0.000000
O O6 0.737530 0.861982 0.057573
O O7 0.673745 0.064827 0.815217
O O8 0.500000 0.000000 0.839192
O O9 0.574891 0.910761 0.875581
O O10 0.761900 0.520221 0.163694
O O11 0.155056 0.160117 0.122291
O O12 0.140239 0.300073 0.159047
O O13 0.191800 0.383600 0.250000
#
# Coordination Sequence:
#
# PCOD9588598 Si02
#       6
#    24  12  24  24  24  24
#     4  10  20  36  61  93 126 165 210 261 326 398
#     4   8  15  30  52  80 117 160 212 268 324 384
#     4   9  21  41  63  90 126 164 213 267 330 404
#     4  10  21  39  61  89 124 161 213 265 332 397
#     4  10  20  36  60  91 130 175 227 277 334 396
#     4  11  24  43  65  92 129 173 223 278 334 396
#
# _framework density 20.990214999999999
#
# number of rings (size 3 to 8) (size 9 to 14) (size 15 to 20)
#    0.000    2.182    0.000    2.273    0.000    8.364 
#    8.182   10.909    4.000    1.091    0.000    0.000 
#    0.000    0.000    0.000    0.000    0.000    0.000 
#
# Total GULP energy -736013.570729 kJ/mol
# GULP energy per Si atom -5575.860384 kJ/mol
# Density = 2.094244 g / cm^3
# Si number density = 20.990215 Si / 1000 Ang^3
#
#
#
# Elastic Constant Matrix: (Units=GPa)
#
#
# Indices 1 2 3 4 5 6 
#
# 1 114.4873 41.7454 45.7274 0.0000 0.0000 0.0000
# 2 41.7454 114.4873 45.7274 0.0000 0.0000 0.0000
# 3 45.7274 45.7274 155.0919 0.0000 0.0000 0.0000
# 4 0.0000 0.0000 0.0000 19.6140 0.0000 0.0000
# 5 0.0000 0.0000 0.0000 0.0000 19.6140 0.0000
# 6 0.0000 0.0000 0.0000 0.0000 0.0000 36.3709
#
#
#
# Elastic Compliance Matrix: (Units=1/GPa)
#
#
# Indices 1 2 3 4 5 6 
#
# 1 0.010742 -0.003006 -0.002281 0.000000 0.000000 0.000000
# 2 -0.003006 0.010742 -0.002281 0.000000 0.000000 0.000000
# 3 -0.002281 -0.002281 0.007793 0.000000 0.000000 0.000000
# 4 0.000000 0.000000 0.000000 0.050984 0.000000 0.000000
# 5 0.000000 0.000000 0.000000 0.000000 0.050984 0.000000
# 6 0.000000 0.000000 0.000000 0.000000 0.000000 0.027494
#
#
# Mechanical properties :
#
#
# Convention : Reuss Voigt Hill
#
# Bulk Modulus (GPa) = 70.71589 72.27413 71.49501
# Shear Modulus (GPa) = 27.99756 31.84419 29.92087
#
# Velocity S-wave (km/s) = 3.65614 3.89922 3.77963
# Velocity P-wave (km/s) = 7.18235 7.40128 7.29264
#
# Compressibility (1/GPa) = 0.01414109
#
# Stress axis : x y z
#
# Youngs Moduli (GPa) = 93.09642 93.09642 128.32417
#
# Poissons Ratio (x) = 0.27982 0.29269
# Poissons Ratio (y) = 0.27982 0.29269
# Poissons Ratio (z) = 0.21234 0.21234
#
# Static dielectric constant tensor:
#      x y z
#    x 1.802250 0.000000 0.000000 
#    y 0.000000 1.802250 0.000000 
#    z 0.000000 0.000000 1.746670 
# 
# From -- ./inp_files/5837.got.cif
#   From: 2010.05.17/outbox.cif.g08.bks.cpg/sg192_3_cif.got.tgz:5837.got - 2010.05.20 12:28:01.
