data_PCOD9588424
_publ_section_title
;
Structure prediction by ZEFSAII (Michael W. Deem and Ramdas Pophale) SiO2 
 PCOD9588424
Probable space group: P 6/M C C
;
_chemical_formula_sum "Si O2"
_cell_formula_units_Z 96
_cell_length_a 19.108313
_cell_length_b 19.108313
_cell_length_c 15.461321
_cell_angle_alpha 90.000000
_cell_angle_beta 90.000000
_cell_angle_gamma 120.000000
_cell_volume 4889.021213
_symmetry_space_group_name_H-M "P 6/M C C"
_symmetry_group_IT_number 192
_symmetry_cell_setting 'hexagonal'
loop_
_space_group_symop_operation_xyz
x,y,z
x-y,x,z
-y,x-y,z
-x,-y,z
-x+y,-x,z
y,-x+y,z
x-y,-y,1/2-z
-x,-x+y,1/2-z
y,x,1/2-z
-y,-x,1/2-z
-x+y,y,1/2-z
x,x-y,1/2-z
-x,-y,-z
-x+y,-x,-z
y,-x+y,-z
x,y,-z
x-y,x,-z
-y,x-y,-z
-x+y,y,1/2+z
x,x-y,1/2+z
-y,-x,1/2+z
y,x,1/2+z
x-y,-y,1/2+z
-x,-x+y,1/2+z
loop_
_atom_site_type_symbol
_atom_site_label
_atom_site_fract_x
_atom_site_fract_y
_atom_site_fract_z
Si Si1 0.759350 0.657245 0.894661
Si Si2 0.523425 0.168137 0.597003
Si Si3 0.690864 0.209133 0.334099
Si Si4 0.258739 0.339306 0.604907
O O1 0.706966 0.571081 0.849197
O O2 0.851100 0.682738 0.870551
O O3 0.724598 0.714840 0.868337
O O4 0.752458 0.647899 0.000000
O O5 0.529525 0.141768 0.500000
O O6 0.532599 0.256799 0.593606
O O7 0.597016 0.177114 0.653709
O O8 0.432144 0.110568 0.631557
O O9 0.737236 0.262765 0.250000
O O10 0.261005 0.342343 0.500000
#
# Coordination Sequence:
#
# PCOD9588424 Si02
#       4
#    24  24  24  24
#     4   9  17  33  53  76 102 137 178 219 263 321
#     4  10  19  33  50  71  98 138 181 220 260 311
#     4  11  21  32  47  71 103 136 174 221 270 315
#     4   8  16  30  53  78 102 133 179 224 263 311
#
# _framework density 19.635833999999999
#
# number of rings (size 3 to 8) (size 9 to 14) (size 15 to 20)
#    0.000    2.500    0.000    5.000    0.000    1.000 
#    0.000    8.750    0.000    6.500    0.000    3.500 
#    0.000    0.000    0.000    9.000    0.000   10.000 
#
# Total GULP energy -535239.319114 kJ/mol
# GULP energy per Si atom -5575.409574 kJ/mol
# Density = 1.959114 g / cm^3
# Si number density = 19.635834 Si / 1000 Ang^3
#
#
#
# Elastic Constant Matrix: (Units=GPa)
#
#
# Indices 1 2 3 4 5 6 
#
# 1 143.5622 127.0941 23.2654 0.0000 0.0000 0.0000
# 2 127.0941 143.5622 23.2654 0.0000 0.0000 0.0000
# 3 23.2654 23.2654 75.2523 0.0000 0.0000 0.0000
# 4 0.0000 0.0000 0.0000 12.1361 0.0000 0.0000
# 5 0.0000 0.0000 0.0000 0.0000 12.1361 0.0000
# 6 0.0000 0.0000 0.0000 0.0000 0.0000 8.2341
#
#
#
# Elastic Compliance Matrix: (Units=1/GPa)
#
#
# Indices 1 2 3 4 5 6 
#
# 1 0.032313 -0.028411 -0.001206 0.000000 0.000000 0.000000
# 2 -0.028411 0.032313 -0.001206 0.000000 0.000000 0.000000
# 3 -0.001206 -0.001206 0.014035 0.000000 0.000000 0.000000
# 4 0.000000 0.000000 0.000000 0.082399 0.000000 0.000000
# 5 0.000000 0.000000 0.000000 0.000000 0.082399 0.000000
# 6 0.000000 0.000000 0.000000 0.000000 0.000000 0.121447
#
#
# Mechanical properties :
#
#
# Convention : Reuss Voigt Hill
#
# Bulk Modulus (GPa) = 58.77781 78.84743 68.81262
# Shear Modulus (GPa) = 11.56810 19.08469 15.32640
#
# Velocity S-wave (km/s) = 2.42984 3.12096 2.79683
# Velocity P-wave (km/s) = 6.15395 7.29584 6.74909
#
# Compressibility (1/GPa) = 0.01701322
#
# Stress axis : x y z
#
# Youngs Moduli (GPa) = 30.94751 30.94751 71.25254
#
# Poissons Ratio (x) = 0.87924 0.08596
# Poissons Ratio (y) = 0.87924 0.08596
# Poissons Ratio (z) = 0.03734 0.03734
#
# Static dielectric constant tensor:
#      x y z
#    x 1.683480 0.000000 0.000000 
#    y 0.000000 1.683480 0.000000 
#    z 0.000000 0.000000 1.816090 
# 
# From -- ./inp_files/4054.got.cif
#   From: 2010.05.17/outbox.cif.g08.bks.cpg/sg192_3_cif.got.tgz:4054.got - 2010.05.20 12:28:01.
