data_PCOD9588718
_publ_section_title
;
Structure prediction by ZEFSAII (Michael W. Deem and Ramdas Pophale) SiO2 
 PCOD9588718
Probable space group: P 6/M C C
;
_chemical_formula_sum "Si O2"
_cell_formula_units_Z 132
_cell_length_a 18.405490
_cell_length_b 18.405490
_cell_length_c 23.253845
_cell_angle_alpha 90.000000
_cell_angle_beta 90.000000
_cell_angle_gamma 120.000000
_cell_volume 6822.132859
_symmetry_space_group_name_H-M "P 6/M C C"
_symmetry_group_IT_number 192
_symmetry_cell_setting 'hexagonal'
loop_
_space_group_symop_operation_xyz
x,y,z
x-y,x,z
-y,x-y,z
-x,-y,z
-x+y,-x,z
y,-x+y,z
x-y,-y,1/2-z
-x,-x+y,1/2-z
y,x,1/2-z
-y,-x,1/2-z
-x+y,y,1/2-z
x,x-y,1/2-z
-x,-y,-z
-x+y,-x,-z
y,-x+y,-z
x,y,-z
x-y,x,-z
-y,x-y,-z
-x+y,y,1/2+z
x,x-y,1/2+z
-y,-x,1/2+z
y,x,1/2+z
x-y,-y,1/2+z
-x,-x+y,1/2+z
loop_
_atom_site_type_symbol
_atom_site_label
_atom_site_fract_x
_atom_site_fract_y
_atom_site_fract_z
Si Si1 0.040313 0.334670 0.000000
Si Si2 0.253670 0.141408 0.500000
Si Si3 0.090479 0.477643 0.782093
Si Si4 0.314526 0.087250 0.283974
Si Si5 0.190984 0.123416 0.124747
Si Si6 0.365191 0.590445 0.500000
Si Si7 0.592458 0.072851 0.081877
O O1 0.043004 0.388711 0.055216
O O2 0.126907 0.332774 0.000000
O O3 0.961340 0.238914 0.000000
O O4 0.204246 0.090738 0.443039
O O5 0.134410 0.567205 0.750000
O O6 0.125975 0.414188 0.779849
O O7 0.079304 0.485846 0.849548
O O8 0.000000 0.427608 0.750000
O O9 0.287107 0.143554 0.250000
O O10 0.278159 0.083861 0.347419
O O11 0.273065 0.000000 0.250000
O O12 0.127008 0.154452 0.143068
O O13 0.421053 0.692502 0.500000
O O14 0.383636 0.545787 0.446723
O O15 0.500000 0.000000 0.065113
#
# Coordination Sequence:
#
# PCOD9588718 Si02
#       7
#    12  12  24  24  24  12  24
#     4  11  24  39  65  97 132 173 235 285 355 408
#     4  12  24  41  58  95 137 173 227 291 339 405
#     4  10  21  42  65  93 132 168 215 285 355 415
#     4  11  23  41  65  95 132 177 231 285 334 395
#     4  12  23  40  62  89 132 185 236 285 342 403
#     4   9  22  44  64  95 137 176 211 276 350 437
#     4  11  22  42  70 100 127 172 228 282 353 431
#
# _framework density 19.348787000000002
#
# number of rings (size 3 to 8) (size 9 to 14) (size 15 to 20)
#    0.182    0.909    5.455    2.364    0.000    2.909 
#    3.273    0.909    0.000    0.364    0.000    0.000 
#    0.000    0.000    0.000    0.000    0.000    0.000 
#
# Total GULP energy -734886.310968 kJ/mol
# GULP energy per Si atom -5567.320538 kJ/mol
# Density = 1.930475 g / cm^3
# Si number density = 19.348787 Si / 1000 Ang^3
#
#
#
# Elastic Constant Matrix: (Units=GPa)
#
#
# Indices 1 2 3 4 5 6 
#
# 1 115.1673 55.3645 40.4468 0.0000 0.0000 0.0000
# 2 55.3645 115.1673 40.4468 0.0000 0.0000 0.0000
# 3 40.4468 40.4468 136.7176 0.0000 0.0000 0.0000
# 4 0.0000 0.0000 0.0000 15.5501 0.0000 0.0000
# 5 0.0000 0.0000 0.0000 0.0000 15.5501 0.0000
# 6 0.0000 0.0000 0.0000 0.0000 0.0000 29.9014
#
#
#
# Elastic Compliance Matrix: (Units=1/GPa)
#
#
# Indices 1 2 3 4 5 6 
#
# 1 0.011771 -0.004950 -0.002018 0.000000 0.000000 0.000000
# 2 -0.004950 0.011771 -0.002018 0.000000 0.000000 0.000000
# 3 -0.002018 -0.002018 0.008508 0.000000 0.000000 0.000000
# 4 0.000000 0.000000 0.000000 0.064308 0.000000 0.000000
# 5 0.000000 0.000000 0.000000 0.000000 0.064308 0.000000
# 6 0.000000 0.000000 0.000000 0.000000 0.000000 0.033443
#
#
# Mechanical properties :
#
#
# Convention : Reuss Voigt Hill
#
# Bulk Modulus (GPa) = 71.02850 71.06314 71.04582
# Shear Modulus (GPa) = 23.06528 27.58662 25.32595
#
# Velocity S-wave (km/s) = 3.45639 3.78001 3.62182
# Velocity P-wave (km/s) = 7.26072 7.47385 7.36806
#
# Compressibility (1/GPa) = 0.01407886
#
# Stress axis : x y z
#
# Youngs Moduli (GPa) = 84.95133 84.95133 117.53125
#
# Poissons Ratio (x) = 0.42052 0.23718
# Poissons Ratio (y) = 0.42052 0.23718
# Poissons Ratio (z) = 0.17143 0.17143
#
# Static dielectric constant tensor:
#      x y z
#    x 1.692330 0.000000 0.000000 
#    y 0.000000 1.692330 0.000000 
#    z 0.000000 0.000000 1.579690 
# 
# From -- ./inp_files/5869.got.cif
#   From: 2010.05.17/outbox.cif.g08.bks.cpg/sg192_3_cif.got.tgz:5869.got - 2010.05.20 12:28:01.
