data_PCOD9588276
_publ_section_title
;
Structure prediction by ZEFSAII (Michael W. Deem and Ramdas Pophale) SiO2 
 PCOD9588276
Probable space group: P 6/M M M
;
_chemical_formula_sum "Si O2"
_cell_formula_units_Z 96
_cell_length_a 18.000000
_cell_length_b 18.000000
_cell_length_c 21.000000
_cell_angle_alpha 90.000000
_cell_angle_beta 90.000000
_cell_angle_gamma 120.000000
_cell_volume 5892.436847
_symmetry_space_group_name_H-M "P 6/M M M"
_symmetry_group_IT_number 191
_symmetry_cell_setting 'hexagonal'
loop_
_space_group_symop_operation_xyz
x,y,z
x-y,x,z
-y,x-y,z
-x,-y,z
-x+y,-x,z
y,-x+y,z
x-y,-y,-z
-x,-x+y,-z
y,x,-z
-y,-x,-z
-x+y,y,-z
x,x-y,-z
-x,-y,-z
-x+y,-x,-z
y,-x+y,-z
x,y,-z
x-y,x,-z
-y,x-y,-z
-x+y,y,z
x,x-y,z
-y,-x,z
y,x,z
x-y,-y,z
-x,-x+y,z
loop_
_atom_site_type_symbol
_atom_site_label
_atom_site_fract_x
_atom_site_fract_y
_atom_site_fract_z
Si Si1 0.363302 0.466550 0.303836
Si Si2 0.000000 0.828966 0.922969
Si Si3 0.266428 0.899710 0.427735
Si Si4 0.347520 0.000000 0.922426
Si Si5 0.331387 0.842116 0.160220
O O1 0.433909 0.566092 0.312846
O O2 0.414607 0.414607 0.298671
O O3 0.307088 0.430815 0.367782
O O4 0.321603 0.458479 0.234386
O O5 0.913521 0.827042 0.900193
O O6 0.000000 0.741252 0.909370
O O7 0.000000 0.834755 0.000000
O O8 0.293989 0.889318 0.500000
O O9 0.165049 0.834952 0.424842
O O10 0.297464 0.000000 0.421414
O O11 0.423908 0.083232 0.887408
O O12 0.358549 0.000000 0.000000
O O13 0.419014 0.838028 0.157167
O O14 0.248280 0.751721 0.143407
#
# Coordination Sequence:
#
# PCOD9588276 Si02
#       5
#    24  12  24  12  24
#     4   9  17  31  51  75 102 133 168 206 251 303
#     4   9  17  31  53  81 109 134 161 197 244 300
#     4   9  17  29  47  73 104 137 173 213 254 296
#     4  11  23  39  57  77 102 135 173 213 263 319
#     4  11  22  37  56  78 104 136 174 217 262 311
#
# _framework density 16.292071
#
# number of rings (size 3 to 8) (size 9 to 14) (size 15 to 20)
#    0.000    2.250    1.250    2.250    0.000    3.500 
#    0.000    2.500    0.000    2.250    0.000    1.750 
#    0.000    0.000    0.000    0.000    0.000    0.000 
#
# Total GULP energy -534599.567016 kJ/mol
# GULP energy per Si atom -5568.745490 kJ/mol
# Density = 1.625499 g / cm^3
# Si number density = 16.292071 Si / 1000 Ang^3
#
#
#
# Elastic Constant Matrix: (Units=GPa)
#
#
# Indices 1 2 3 4 5 6 
#
# 1 105.1062 57.5053 59.7273 0.0000 0.0000 0.0000
# 2 57.5053 105.1062 59.7273 0.0000 0.0000 0.0000
# 3 59.7273 59.7273 125.8999 0.0000 0.0000 0.0000
# 4 0.0000 0.0000 0.0000 24.5471 0.0000 0.0000
# 5 0.0000 0.0000 0.0000 0.0000 24.5471 0.0000
# 6 0.0000 0.0000 0.0000 0.0000 0.0000 23.8004
#
#
#
# Elastic Compliance Matrix: (Units=1/GPa)
#
#
# Indices 1 2 3 4 5 6 
#
# 1 0.015224 -0.005784 -0.004478 0.000000 0.000000 0.000000
# 2 -0.005784 0.015224 -0.004478 0.000000 0.000000 0.000000
# 3 -0.004478 -0.004478 0.012192 0.000000 0.000000 0.000000
# 4 0.000000 0.000000 0.000000 0.040738 0.000000 0.000000
# 5 0.000000 0.000000 0.000000 0.000000 0.040738 0.000000
# 6 0.000000 0.000000 0.000000 0.000000 0.000000 0.042016
#
#
# Mechanical properties :
#
#
# Convention : Reuss Voigt Hill
#
# Bulk Modulus (GPa) = 75.99948 76.67021 76.33484
# Shear Modulus (GPa) = 25.00030 25.18907 25.09469
#
# Velocity S-wave (km/s) = 3.92153 3.93631 3.92892
# Velocity P-wave (km/s) = 8.20085 8.23537 8.21813
#
# Compressibility (1/GPa) = 0.01315799
#
# Stress axis : x y z
#
# Youngs Moduli (GPa) = 65.68760 65.68760 82.02418
#
# Poissons Ratio (x) = 0.37997 0.36730
# Poissons Ratio (y) = 0.37997 0.36730
# Poissons Ratio (z) = 0.29415 0.29415
#
# Static dielectric constant tensor:
#      x y z
#    x 1.543170 0.000000 0.000000 
#    y 0.000000 1.543170 0.000000 
#    z 0.000000 0.000000 1.552230 
# 
# From -- ./inp_files/7192.got.cif
#   From: 2010.05.17/outbox.ucp.g08.bks.cvg/sg191_4_cif.got.tgz:7192.got - 2010.06.11 15:22:43.
