data_PCOD9588691
_publ_section_title
;
Structure prediction by ZEFSAII (Michael W. Deem and Ramdas Pophale) SiO2 
 PCOD9588691
Probable space group: P 6/M C C
;
_chemical_formula_sum "Si O2"
_cell_formula_units_Z 84
_cell_length_a 18.085296
_cell_length_b 18.085296
_cell_length_c 13.899460
_cell_angle_alpha 90.000000
_cell_angle_beta 90.000000
_cell_angle_gamma 120.000000
_cell_volume 3937.130428
_symmetry_space_group_name_H-M "P 6/M C C"
_symmetry_group_IT_number 192
_symmetry_cell_setting 'hexagonal'
loop_
_space_group_symop_operation_xyz
x,y,z
x-y,x,z
-y,x-y,z
-x,-y,z
-x+y,-x,z
y,-x+y,z
x-y,-y,1/2-z
-x,-x+y,1/2-z
y,x,1/2-z
-y,-x,1/2-z
-x+y,y,1/2-z
x,x-y,1/2-z
-x,-y,-z
-x+y,-x,-z
y,-x+y,-z
x,y,-z
x-y,x,-z
-y,x-y,-z
-x+y,y,1/2+z
x,x-y,1/2+z
-y,-x,1/2+z
y,x,1/2+z
x-y,-y,1/2+z
-x,-x+y,1/2+z
loop_
_atom_site_type_symbol
_atom_site_label
_atom_site_fract_x
_atom_site_fract_y
_atom_site_fract_z
Si Si1 0.700472 0.921535 0.310319
Si Si2 0.398390 0.948910 0.883399
Si Si3 0.415598 0.650614 0.116539
Si Si4 0.201641 0.074033 0.500000
O O1 0.665469 0.832735 0.250000
O O2 0.637845 0.958581 0.341174
O O3 0.738973 0.906830 0.407072
O O4 0.774183 0.000000 0.250000
O O5 0.368384 0.853856 0.848010
O O6 0.500000 0.000000 0.860076
O O7 0.394639 0.954843 0.000000
O O8 0.419689 0.738715 0.143621
O O9 0.419848 0.650163 0.000000
O O10 0.157724 0.131798 0.500000
#
# Coordination Sequence:
#
# PCOD9588691 Si02
#       4
#    24  24  24  12
#     4  12  26  45  71 108 153 191 239 312 381 461
#     4  10  21  38  64 100 140 193 252 299 363 436
#     4   7  13  29  52  83 119 164 231 288 336 403
#     4  12  25  50  79 112 140 188 244 304 392 476
#
# _framework density 21.335335000000001
#
# number of rings (size 3 to 8) (size 9 to 14) (size 15 to 20)
#    0.571    1.429    4.286    0.143    0.000    2.857 
#    0.000    2.857    0.000    0.000    0.000    0.000 
#    0.000    0.000    0.000    0.000    0.000    0.000 
#
# Total GULP energy -467612.324978 kJ/mol
# GULP energy per Si atom -5566.813393 kJ/mol
# Density = 2.128677 g / cm^3
# Si number density = 21.335335 Si / 1000 Ang^3
#
#
#
# Elastic Constant Matrix: (Units=GPa)
#
#
# Indices 1 2 3 4 5 6 
#
# 1 75.5121 1.9720 37.2058 0.0000 0.0000 0.0000
# 2 1.9720 75.5121 37.2058 0.0000 0.0000 0.0000
# 3 37.2058 37.2058 125.9554 0.0000 0.0000 0.0000
# 4 0.0000 0.0000 0.0000 -18.1711 0.0000 0.0000
# 5 0.0000 0.0000 0.0000 0.0000 -18.1711 0.0000
# 6 0.0000 0.0000 0.0000 0.0000 0.0000 36.7700
#
#
#
# Elastic Compliance Matrix: (Units=1/GPa)
#
#
# Indices 1 2 3 4 5 6 
#
# 1 0.015807 0.002209 -0.005322 0.000000 0.000000 0.000000
# 2 0.002209 0.015807 -0.005322 0.000000 0.000000 0.000000
# 3 -0.005322 -0.005322 0.011083 0.000000 0.000000 0.000000
# 4 0.000000 0.000000 0.000000 -0.055032 0.000000 0.000000
# 5 0.000000 0.000000 0.000000 0.000000 -0.055032 0.000000
# 6 0.000000 0.000000 0.000000 0.000000 0.000000 0.027196
#
#
# Mechanical properties :
#
#
# Convention : Reuss Voigt Hill
#
# Bulk Modulus (GPa) = 38.71593 47.74966 43.23279
# Shear Modulus (GPa) = -340.32690 13.45862 -163.43414
#
# Velocity S-wave (km/s) = -12.64356 2.51433 -8.76178
# Velocity P-wave (km/s) = 13.96282 5.55502 9.05820
#
# Compressibility (1/GPa) = 0.02582916
#
# Stress axis : x y z
#
# Youngs Moduli (GPa) = 63.26145 63.26145 90.22489
#
# Poissons Ratio (x) = -0.13977 0.48017
# Poissons Ratio (y) = -0.13977 0.48017
# Poissons Ratio (z) = 0.33668 0.33668
#
# Static dielectric constant tensor:
#      x y z
#    x 1.828790 0.000000 0.000000 
#    y 0.000000 1.828790 0.000000 
#    z 0.000000 0.000000 1.821150 
# 
# From -- ./inp_files/2548.got.cif
#   From: 2010.05.17/outbox.cif.g08.bks.cpg/sg192_2_cif.got.tgz:2548.got - 2010.05.20 12:28:01.
