data_PCOD9588063
_publ_section_title
;
Structure prediction by ZEFSAII (Michael W. Deem and Ramdas Pophale) SiO2 
 PCOD9588063
Probable space group: P 6/M M M
;
_chemical_formula_sum "Si O2"
_cell_formula_units_Z 96
_cell_length_a 18.053574
_cell_length_b 18.053574
_cell_length_c 19.792244
_cell_angle_alpha 90.000000
_cell_angle_beta 90.000000
_cell_angle_gamma 120.000000
_cell_volume 5586.657525
_symmetry_space_group_name_H-M "P 6/M M M"
_symmetry_group_IT_number 191
_symmetry_cell_setting 'hexagonal'
loop_
_space_group_symop_operation_xyz
x,y,z
x-y,x,z
-y,x-y,z
-x,-y,z
-x+y,-x,z
y,-x+y,z
x-y,-y,-z
-x,-x+y,-z
y,x,-z
-y,-x,-z
-x+y,y,-z
x,x-y,-z
-x,-y,-z
-x+y,-x,-z
y,-x+y,-z
x,y,-z
x-y,x,-z
-y,x-y,-z
-x+y,y,z
x,x-y,z
-y,-x,z
y,x,z
x-y,-y,z
-x,-x+y,z
loop_
_atom_site_type_symbol
_atom_site_label
_atom_site_fract_x
_atom_site_fract_y
_atom_site_fract_z
Si Si1 0.602360 0.801180 0.919304
Si Si2 0.364629 0.097235 0.699257
Si Si3 0.099111 0.900890 0.082351
Si Si4 0.898265 0.363610 0.168470
Si Si5 0.506868 0.666423 0.578173
O O1 0.702410 0.851205 0.897137
O O2 0.556803 0.706641 0.888623
O O3 0.600063 0.800032 0.000000
O O4 0.336209 0.168105 0.700550
O O5 0.430420 0.116287 0.760815
O O6 0.416873 0.108839 0.630374
O O7 0.289799 0.000000 0.706178
O O8 0.000000 0.850861 0.104213
O O9 0.098603 0.901398 0.000000
O O10 0.871153 0.435577 0.172174
O O11 0.000000 0.412679 0.155619
O O12 0.531240 0.665095 0.500000
O O13 0.482432 0.741216 0.583620
O O14 0.425063 0.574937 0.594067
#
# Coordination Sequence:
#
# PCOD9588063 Si02
#       5
#    12  24  12  24  24
#     4  11  22  37  56  79 105 139 178 223 276 324
#     4  10  20  36  57  79 105 139 178 218 263 317
#     4   9  17  30  51  80 112 141 169 206 260 330
#     4  10  21  38  58  79 104 137 178 221 265 316
#     4   9  17  29  48  78 115 151 184 219 259 303
#
# _framework density 17.183800000000002
#
# number of rings (size 3 to 8) (size 9 to 14) (size 15 to 20)
#    0.000    2.250    1.250    1.875    0.000    5.500 
#    0.750    2.500    0.000    0.250    0.000    0.000 
#    0.000    0.000    0.000    6.250    0.000    0.000 
#
# Total GULP energy -535724.382648 kJ/mol
# GULP energy per Si atom -5580.462319 kJ/mol
# Density = 1.714469 g / cm^3
# Si number density = 17.183800 Si / 1000 Ang^3
#
#
#
# Elastic Constant Matrix: (Units=GPa)
#
#
# Indices 1 2 3 4 5 6 
#
# 1 102.9671 77.4200 42.5618 0.0000 0.0000 0.0000
# 2 77.4200 102.9671 42.5618 0.0000 0.0000 0.0000
# 3 42.5618 42.5618 70.9987 0.0000 0.0000 0.0000
# 4 0.0000 0.0000 0.0000 17.5574 0.0000 0.0000
# 5 0.0000 0.0000 0.0000 0.0000 17.5574 0.0000
# 6 0.0000 0.0000 0.0000 0.0000 0.0000 12.7736
#
#
#
# Elastic Compliance Matrix: (Units=1/GPa)
#
#
# Indices 1 2 3 4 5 6 
#
# 1 0.023437 -0.015706 -0.004634 0.000000 0.000000 0.000000
# 2 -0.015706 0.023437 -0.004634 0.000000 0.000000 0.000000
# 3 -0.004634 -0.004634 0.019641 0.000000 0.000000 0.000000
# 4 0.000000 0.000000 0.000000 0.056956 0.000000 0.000000
# 5 0.000000 0.000000 0.000000 0.000000 0.056956 0.000000
# 6 0.000000 0.000000 0.000000 0.000000 0.000000 0.078287
#
#
# Mechanical properties :
#
#
# Convention : Reuss Voigt Hill
#
# Bulk Modulus (GPa) = 60.36807 66.89113 63.62960
# Shear Modulus (GPa) = 15.91418 17.20362 16.55890
#
# Velocity S-wave (km/s) = 3.04652 3.16753 3.10761
# Velocity P-wave (km/s) = 6.89798 7.23803 7.07005
#
# Compressibility (1/GPa) = 0.01656505
#
# Stress axis : x y z
#
# Youngs Moduli (GPa) = 42.66773 42.66773 50.91404
#
# Poissons Ratio (x) = 0.67016 0.23595
# Poissons Ratio (y) = 0.67016 0.23595
# Poissons Ratio (z) = 0.19773 0.19773
#
# Static dielectric constant tensor:
#      x y z
#    x 1.568080 0.000000 0.000000 
#    y 0.000000 1.568080 0.000000 
#    z 0.000000 0.000000 1.582670 
# 
# From -- ./inp_files/7144.got.cif
#   From: 2010.05.17/outbox.cif.g08.bks.cpg/sg191_4_cif.got.tgz:7144.got - 2010.05.20 12:20:32.
