data_PCOD9588072
_publ_section_title
;
Structure prediction by ZEFSAII (Michael W. Deem and Ramdas Pophale) SiO2 
 PCOD9588072
Probable space group: P 6/M M M
;
_chemical_formula_sum "Si O2"
_cell_formula_units_Z 102
_cell_length_a 27.655120
_cell_length_b 27.655120
_cell_length_c 7.887614
_cell_angle_alpha 90.000000
_cell_angle_beta 90.000000
_cell_angle_gamma 120.000000
_cell_volume 5224.291189
_symmetry_space_group_name_H-M "P 6/M M M"
_symmetry_group_IT_number 191
_symmetry_cell_setting 'hexagonal'
loop_
_space_group_symop_operation_xyz
x,y,z
x-y,x,z
-y,x-y,z
-x,-y,z
-x+y,-x,z
y,-x+y,z
x-y,-y,-z
-x,-x+y,-z
y,x,-z
-y,-x,-z
-x+y,y,-z
x,x-y,-z
-x,-y,-z
-x+y,-x,-z
y,-x+y,-z
x,y,-z
x-y,x,-z
-y,x-y,-z
-x+y,y,z
x,x-y,z
-y,-x,z
y,x,z
x-y,-y,z
-x,-x+y,z
loop_
_atom_site_type_symbol
_atom_site_label
_atom_site_fract_x
_atom_site_fract_y
_atom_site_fract_z
Si Si1 0.722918 0.637009 0.804917
Si Si2 0.937819 0.363560 0.500000
Si Si3 0.399478 0.600523 0.815798
Si Si4 0.218266 0.781735 0.811344
Si Si5 0.722928 0.277073 0.691415
Si Si6 0.879122 0.439561 0.500000
Si Si7 0.240200 0.176981 0.705275
O O1 0.674897 0.606331 0.664040
O O2 0.754843 0.602141 0.795768
O O3 0.769731 0.700920 0.763014
O O4 0.703343 0.634285 0.000000
O O5 0.904412 0.397357 0.500000
O O6 0.000000 0.413065 0.500000
O O7 0.426193 0.666036 0.788629
O O8 0.421675 0.578326 0.669284
O O9 0.412642 0.587359 0.000000
O O10 0.243743 0.756258 0.684768
O O11 0.230900 0.769101 0.000000
O O12 0.711413 0.288588 0.500000
O O13 0.240981 0.176155 0.500000
O O14 0.235217 0.117609 0.761626
O O15 0.191947 0.191947 0.755791
#
# Coordination Sequence:
#
# PCOD9588072 Si02
#       7
#    24  12  12  12  12   6  24
#     4  11  23  40  64  96 130 164 208 262 325 394
#     4  12  27  45  66  91 122 165 217 271 326 375
#     4  12  25  44  65  93 127 161 202 251 311 377
#     4  10  22  37  59  93 125 159 199 245 314 379
#     4  12  23  39  63  92 122 157 199 249 306 376
#     4  12  27  48  68  90 120 166 218 268 316 388
#     4  10  20  36  60  92 131 174 219 268 324 386
#
# _framework density 19.524179
#
# number of rings (size 3 to 8) (size 9 to 14) (size 15 to 20)
#    0.000    0.941    3.529    3.588    1.647    4.706 
#    0.000    0.000    0.000    2.353    0.000    1.647 
#    0.000    0.000    0.000    2.118    0.000    2.353 
#
# Total GULP energy -569143.683703 kJ/mol
# GULP energy per Si atom -5579.840036 kJ/mol
# Density = 1.947974 g / cm^3
# Si number density = 19.524179 Si / 1000 Ang^3
#
#
#
# Elastic Constant Matrix: (Units=GPa)
#
#
# Indices 1 2 3 4 5 6 
#
# 1 244.2202 -48.6047 49.5371 0.0000 0.0000 0.0000
# 2 -48.6047 244.2202 49.5371 0.0000 0.0000 0.0000
# 3 49.5371 49.5371 129.4514 0.0000 0.0000 0.0000
# 4 0.0000 0.0000 0.0000 4.0379 0.0000 0.0000
# 5 0.0000 0.0000 0.0000 0.0000 4.0379 0.0000
# 6 0.0000 0.0000 0.0000 0.0000 0.0000 146.4124
#
#
#
# Elastic Compliance Matrix: (Units=1/GPa)
#
#
# Indices 1 2 3 4 5 6 
#
# 1 0.004878 0.001463 -0.002427 0.000000 0.000000 0.000000
# 2 0.001463 0.004878 -0.002427 0.000000 0.000000 0.000000
# 3 -0.002427 -0.002427 0.009582 0.000000 0.000000 0.000000
# 4 0.000000 0.000000 0.000000 0.247655 0.000000 0.000000
# 5 0.000000 0.000000 0.000000 0.000000 0.247655 0.000000
# 6 0.000000 0.000000 0.000000 0.000000 0.000000 0.006830
#
#
# Mechanical properties :
#
#
# Convention : Reuss Voigt Hill
#
# Bulk Modulus (GPa) = 79.63045 79.87008 79.75027
# Shear Modulus (GPa) = 9.39064 68.72578 39.05821
#
# Velocity S-wave (km/s) = 2.19549 5.93942 4.47755
# Velocity P-wave (km/s) = 6.87757 9.38258 8.22599
#
# Compressibility (1/GPa) = 0.01255801
#
# Stress axis : x y z
#
# Youngs Moduli (GPa) = 205.00093 205.00093 104.36210
#
# Poissons Ratio (x) = -0.29992 0.25324
# Poissons Ratio (y) = -0.29992 0.25324
# Poissons Ratio (z) = 0.49744 0.49744
#
# Static dielectric constant tensor:
#      x y z
#    x 1.689910 0.000000 0.000000 
#    y 0.000000 1.689910 0.000000 
#    z 0.000000 0.000000 1.729000 
# 
# From -- ./inp_files/1480.got.cif
#   From: 2010.05.17/outbox.cif.g08.bks.cpg/sg191_1_cif.got.tgz:1480.got - 2010.05.20 12:20:32.
