data_PCOD9588178
_publ_section_title
;
Structure prediction by ZEFSAII (Michael W. Deem and Ramdas Pophale) SiO2 
 PCOD9588178
Probable space group: P 6/M M M
;
_chemical_formula_sum "Si O2"
_cell_formula_units_Z 144
_cell_length_a 32.176819
_cell_length_b 32.176819
_cell_length_c 8.810274
_cell_angle_alpha 90.000000
_cell_angle_beta 90.000000
_cell_angle_gamma 120.000000
_cell_volume 7899.621115
_symmetry_space_group_name_H-M "P 6/M M M"
_symmetry_group_IT_number 191
_symmetry_cell_setting 'hexagonal'
loop_
_space_group_symop_operation_xyz
x,y,z
x-y,x,z
-y,x-y,z
-x,-y,z
-x+y,-x,z
y,-x+y,z
x-y,-y,-z
-x,-x+y,-z
y,x,-z
-y,-x,-z
-x+y,y,-z
x,x-y,-z
-x,-y,-z
-x+y,-x,-z
y,-x+y,-z
x,y,-z
x-y,x,-z
-y,x-y,-z
-x+y,y,z
x,x-y,z
-y,-x,z
y,x,z
x-y,-y,z
-x,-x+y,z
loop_
_atom_site_type_symbol
_atom_site_label
_atom_site_fract_x
_atom_site_fract_y
_atom_site_fract_z
Si Si1 0.236849 0.666757 0.182553
Si Si2 0.053459 0.852910 0.315219
Si Si3 0.242261 0.853810 0.181646
Si Si4 0.853868 0.520704 0.319559
Si Si5 0.945246 0.243489 0.317187
Si Si6 0.054863 0.478363 0.182279
O O1 0.245703 0.622852 0.217379
O O2 0.282665 0.717336 0.227238
O O3 0.188677 0.658719 0.260153
O O4 0.231230 0.667515 0.000000
O O5 0.053465 0.854486 0.500000
O O6 0.096915 0.903085 0.260019
O O7 0.061224 0.808404 0.276281
O O8 0.000000 0.838487 0.264536
O O9 0.189890 0.810111 0.226316
O O10 0.283468 0.845683 0.251217
O O11 0.249685 0.904228 0.239801
O O12 0.245593 0.854247 0.000000
O O13 0.853409 0.522360 0.500000
O O14 0.904664 0.528236 0.262446
O O15 0.940978 0.244620 0.500000
O O16 0.000000 0.282700 0.276597
O O17 0.061661 0.530831 0.215976
O O18 0.000000 0.439877 0.224390
O O19 0.059234 0.475813 0.000000
#
# Coordination Sequence:
#
# PCOD9588178 Si02
#       6
#    24  24  24  24  24  24
#     4  10  21  39  63  88 114 145 182 223 267 317
#     4   8  13  22  39  64  93 126 165 209 256 305
#     4  11  24  40  57  77 104 142 184 222 265 318
#     4  12  25  38  56  83 114 148 183 221 268 318
#     4   9  18  33  54  79 104 132 170 217 269 323
#     4   9  19  38  63  87 111 143 183 225 270 319
#
# _framework density 18.228722999999999
#
# number of rings (size 3 to 8) (size 9 to 14) (size 15 to 20)
#    0.000    2.167    0.000    5.167    0.000    9.000 
#    0.000    0.833    0.000    1.167    0.000    1.167 
#    0.000    0.000    0.000    0.000    0.000    0.000 
#
# Total GULP energy -804128.817716 kJ/mol
# GULP energy per Si atom -5584.227901 kJ/mol
# Density = 1.818723 g / cm^3
# Si number density = 18.228723 Si / 1000 Ang^3
#
#
#
# Elastic Constant Matrix: (Units=GPa)
#
#
# Indices 1 2 3 4 5 6 
#
# 1 94.2930 38.4805 37.1429 0.0000 0.0000 0.0000
# 2 38.4805 94.2930 37.1429 0.0000 0.0000 0.0000
# 3 37.1429 37.1429 35.6146 0.0000 0.0000 0.0000
# 4 0.0000 0.0000 0.0000 11.8874 0.0000 0.0000
# 5 0.0000 0.0000 0.0000 0.0000 11.8874 0.0000
# 6 0.0000 0.0000 0.0000 0.0000 0.0000 27.9063
#
#
#
# Elastic Compliance Matrix: (Units=1/GPa)
#
#
# Indices 1 2 3 4 5 6 
#
# 1 0.018000 0.000083 -0.018859 0.000000 0.000000 0.000000
# 2 0.000083 0.018000 -0.018859 0.000000 0.000000 0.000000
# 3 -0.018859 -0.018859 0.067416 0.000000 0.000000 0.000000
# 4 0.000000 0.000000 0.000000 0.084123 0.000000 0.000000
# 5 0.000000 0.000000 0.000000 0.000000 0.084123 0.000000
# 6 0.000000 0.000000 0.000000 0.000000 0.000000 0.035834
#
#
# Mechanical properties :
#
#
# Convention : Reuss Voigt Hill
#
# Bulk Modulus (GPa) = 35.53030 49.97037 42.75033
# Shear Modulus (GPa) = 12.75026 17.76515 15.25771
#
# Velocity S-wave (km/s) = 2.64760 3.12520 2.89626
# Velocity P-wave (km/s) = 5.37402 6.36357 5.88961
#
# Compressibility (1/GPa) = 0.02814499
#
# Stress axis : x y z
#
# Youngs Moduli (GPa) = 55.55499 55.55499 14.83337
#
# Poissons Ratio (x) = -0.00461 0.27975
# Poissons Ratio (y) = -0.00461 0.27975
# Poissons Ratio (z) = 1.04773 1.04773
#
# Static dielectric constant tensor:
#      x y z
#    x 1.610350 0.000000 0.000000 
#    y 0.000000 1.610350 0.000000 
#    z 0.000000 0.000000 1.610680 
# 
# From -- ./inp_files/1932.got.cif
#   From: 2010.05.17/outbox.cif.g08.bks.cpg/sg191_1_cif.got.tgz:1932.got - 2010.05.20 12:20:32.
