data_PCOD9588040
_publ_section_title
;
Structure prediction by ZEFSAII (Michael W. Deem and Ramdas Pophale) SiO2 
 PCOD9588040
Probable space group: P 6/M M M
;
_chemical_formula_sum "Si O2"
_cell_formula_units_Z 78
_cell_length_a 25.630768
_cell_length_b 25.630768
_cell_length_c 7.778179
_cell_angle_alpha 90.000000
_cell_angle_beta 90.000000
_cell_angle_gamma 120.000000
_cell_volume 4425.188797
_symmetry_space_group_name_H-M "P 6/M M M"
_symmetry_group_IT_number 191
_symmetry_cell_setting 'hexagonal'
loop_
_space_group_symop_operation_xyz
x,y,z
x-y,x,z
-y,x-y,z
-x,-y,z
-x+y,-x,z
y,-x+y,z
x-y,-y,-z
-x,-x+y,-z
y,x,-z
-y,-x,-z
-x+y,y,-z
x,x-y,-z
-x,-y,-z
-x+y,-x,-z
y,-x+y,-z
x,y,-z
x-y,x,-z
-y,x-y,-z
-x+y,y,z
x,x-y,z
-y,-x,z
y,x,z
x-y,-y,z
-x,-x+y,z
loop_
_atom_site_type_symbol
_atom_site_label
_atom_site_fract_x
_atom_site_fract_y
_atom_site_fract_z
Si Si1 0.559693 0.629839 0.792474
Si Si2 0.626884 0.253768 0.000000
Si Si3 0.252548 0.066756 0.000000
Si Si4 0.843294 0.421647 0.694954
Si Si5 0.347206 0.113525 0.303016
O O1 0.588785 0.588785 0.739329
O O2 0.492915 0.606217 0.724126
O O3 0.602075 0.698137 0.731750
O O4 0.557446 0.628872 0.000000
O O5 0.699185 0.300816 0.000000
O O6 0.605152 0.210304 0.834503
O O7 0.294530 0.078439 0.166016
O O8 0.233276 0.116638 0.000000
O O9 0.198587 0.000000 0.000000
O O10 0.820017 0.410009 0.500000
O O11 0.326531 0.098495 0.500000
O O12 0.368823 0.184412 0.277989
#
# Coordination Sequence:
#
# PCOD9588040 Si02
#       5
#    24   6  12  12  24
#     4  11  22  38  61  89 123 159 194 236 290 349
#     4  10  26  50  71  88 114 146 184 254 314 350
#     4  10  20  35  55  81 114 152 190 234 280 332
#     4  12  25  43  67  90 114 152 196 238 296 362
#     4  10  21  36  56  85 117 153 193 235 284 339
#
# _framework density 17.626366999999998
#
# number of rings (size 3 to 8) (size 9 to 14) (size 15 to 20)
#    0.154    1.231    3.077    2.308    0.000    8.000 
#    0.000    0.000    0.000    0.154    0.000    0.000 
#    0.000    0.000    0.000    7.692    0.000    0.000 
#
# Total GULP energy -435662.971804 kJ/mol
# GULP energy per Si atom -5585.422715 kJ/mol
# Density = 1.758625 g / cm^3
# Si number density = 17.626367 Si / 1000 Ang^3
#
#
#
# Elastic Constant Matrix: (Units=GPa)
#
#
# Indices 1 2 3 4 5 6 
#
# 1 106.4239 93.5386 52.8014 0.0000 0.0000 0.0000
# 2 93.5386 106.4239 52.8014 0.0000 0.0000 0.0000
# 3 52.8014 52.8014 133.8202 0.0000 0.0000 0.0000
# 4 0.0000 0.0000 0.0000 9.9904 0.0000 0.0000
# 5 0.0000 0.0000 0.0000 0.0000 9.9904 0.0000
# 6 0.0000 0.0000 0.0000 0.0000 0.0000 6.4426
#
#
#
# Elastic Compliance Matrix: (Units=1/GPa)
#
#
# Indices 1 2 3 4 5 6 
#
# 1 0.041963 -0.035645 -0.002493 0.000000 0.000000 0.000000
# 2 -0.035645 0.041963 -0.002493 0.000000 0.000000 0.000000
# 3 -0.002493 -0.002493 0.009440 0.000000 0.000000 0.000000
# 4 0.000000 0.000000 0.000000 0.100096 0.000000 0.000000
# 5 0.000000 0.000000 0.000000 0.000000 0.100096 0.000000
# 6 0.000000 0.000000 0.000000 0.000000 0.000000 0.155216
#
#
# Mechanical properties :
#
#
# Convention : Reuss Voigt Hill
#
# Bulk Modulus (GPa) = 82.61805 82.77231 82.69518
# Shear Modulus (GPa) = 9.36208 15.11979 12.24093
#
# Velocity S-wave (km/s) = 2.30715 2.93199 2.63813
# Velocity P-wave (km/s) = 7.35329 7.65006 7.50314
#
# Compressibility (1/GPa) = 0.01210389
#
# Stress axis : x y z
#
# Youngs Moduli (GPa) = 23.83066 23.83066 105.93509
#
# Poissons Ratio (x) = 0.84945 0.26406
# Poissons Ratio (y) = 0.84945 0.26406
# Poissons Ratio (z) = 0.05940 0.05940
#
# Static dielectric constant tensor:
#      x y z
#    x 1.580370 0.000000 0.000000 
#    y 0.000000 1.580370 0.000000 
#    z 0.000000 0.000000 1.621400 
# 
# From -- ./inp_files/1098.got.cif
#   From: 2010.05.17/outbox.cif.g08.bks.cpg/sg191_1_cif.got.tgz:1098.got - 2010.05.20 12:20:32.
