data_PCOD9588910
_publ_section_title
;
Structure prediction by ZEFSAII (Michael W. Deem and Ramdas Pophale) SiO2 
 PCOD9588910
Probable space group: P 63/M C M
;
_chemical_formula_sum "Si O2"
_cell_formula_units_Z 96
_cell_length_a 27.324076
_cell_length_b 27.324076
_cell_length_c 10.327645
_cell_angle_alpha 90.000000
_cell_angle_beta 90.000000
_cell_angle_gamma 120.000000
_cell_volume 6677.638465
_symmetry_space_group_name_H-M "P 63/M C M"
_symmetry_group_IT_number 193
_symmetry_cell_setting 'hexagonal'
loop_
_space_group_symop_operation_xyz
x,y,z
x-y,x,1/2+z
-y,x-y,z
-x,-y,1/2+z
-x+y,-x,z
y,-x+y,1/2+z
x-y,-y,1/2-z
-x,-x+y,1/2-z
y,x,1/2-z
-y,-x,-z
-x+y,y,-z
x,x-y,-z
-x,-y,-z
-x+y,-x,1/2-z
y,-x+y,-z
x,y,1/2-z
x-y,x,-z
-y,x-y,1/2-z
-x+y,y,1/2+z
x,x-y,1/2+z
-y,-x,1/2+z
y,x,z
x-y,-y,z
-x,-x+y,z
loop_
_atom_site_type_symbol
_atom_site_label
_atom_site_fract_x
_atom_site_fract_y
_atom_site_fract_z
Si Si1 0.350297 0.418626 0.525724
Si Si2 0.218095 0.066755 0.399722
Si Si3 0.494091 0.425802 0.750000
Si Si4 0.133331 0.780676 0.599970
Si Si5 0.605996 0.537428 0.750000
O O1 0.377632 0.377632 0.532561
O O2 0.386714 0.470149 0.623790
O O3 0.285504 0.385209 0.568119
O O4 0.358131 0.442419 0.380759
O O5 0.202164 0.101082 0.500000
O O6 0.208600 0.076962 0.250000
O O7 0.285250 0.090965 0.414059
O O8 0.184011 0.000000 0.423556
O O9 0.462949 0.462949 0.750000
O O10 0.560272 0.470892 0.750000
O O11 0.184114 0.815887 0.500000
O O12 0.152379 0.789310 0.750000
O O13 0.569539 0.569539 0.750000
#
# Coordination Sequence:
#
# PCOD9588910 Si02
#       5
#    24  24  12  24  12
#     4  10  18  29  46  65  89 123 158 188 221 265
#     4   9  18  32  49  68  91 117 149 190 231 276
#     4   9  16  28  45  64  88 120 154 182 213 254
#     4  10  20  32  46  64  89 122 158 192 230 271
#     4   9  18  28  41  66  94 118 148 186 219 250
#
# _framework density 14.376340000000001
#
# number of rings (size 3 to 8) (size 9 to 14) (size 15 to 20)
#    0.000    2.500    1.250    1.500    1.750    4.500 
#    0.000    0.000    0.000    0.250    0.000    0.000 
#    0.000    0.000    0.000   15.000    0.000    0.000 
#
# Total GULP energy -534954.345538 kJ/mol
# GULP energy per Si atom -5572.441099 kJ/mol
# Density = 1.434362 g / cm^3
# Si number density = 14.376340 Si / 1000 Ang^3
#
#
#
# Elastic Constant Matrix: (Units=GPa)
#
#
# Indices 1 2 3 4 5 6 
#
# 1 64.7257 25.6626 46.9539 0.0000 0.0000 0.0000
# 2 25.6626 64.7257 46.9539 0.0000 0.0000 0.0000
# 3 46.9539 46.9539 127.4753 0.0000 0.0000 0.0000
# 4 0.0000 0.0000 0.0000 20.0463 0.0000 0.0000
# 5 0.0000 0.0000 0.0000 0.0000 20.0463 0.0000
# 6 0.0000 0.0000 0.0000 0.0000 0.0000 19.5315
#
#
#
# Elastic Compliance Matrix: (Units=1/GPa)
#
#
# Indices 1 2 3 4 5 6 
#
# 1 0.021761 -0.003839 -0.006601 0.000000 0.000000 0.000000
# 2 -0.003839 0.021761 -0.006601 0.000000 0.000000 0.000000
# 3 -0.006601 -0.006601 0.012708 0.000000 0.000000 0.000000
# 4 0.000000 0.000000 0.000000 0.049885 0.000000 0.000000
# 5 0.000000 0.000000 0.000000 0.000000 0.049885 0.000000
# 6 0.000000 0.000000 0.000000 0.000000 0.000000 0.051199
#
#
# Mechanical properties :
#
#
# Convention : Reuss Voigt Hill
#
# Bulk Modulus (GPa) = 45.15484 55.11861 50.13672
# Shear Modulus (GPa) = 20.10761 21.08190 20.59476
#
# Velocity S-wave (km/s) = 3.74392 3.83355 3.78900
# Velocity P-wave (km/s) = 7.08284 7.61695 7.35474
#
# Compressibility (1/GPa) = 0.02214602
#
# Stress axis : x y z
#
# Youngs Moduli (GPa) = 45.95458 45.95458 78.69317
#
# Poissons Ratio (x) = 0.17642 0.51947
# Poissons Ratio (y) = 0.17642 0.51947
# Poissons Ratio (z) = 0.30335 0.30335
#
# Static dielectric constant tensor:
#      x y z
#    x 1.447640 0.000000 0.000000 
#    y 0.000000 1.447640 0.000000 
#    z 0.000000 0.000000 1.492910 
# 
# From -- ./inp_files/2303.got.cif
#   From: 2010.05.17/outbox.cif.g08.bks.cpg/sg193_2_cif.got.tgz:2303.got - 2010.05.20 12:33:02.
