data_PCOD9588603
_publ_section_title
;
Structure prediction by ZEFSAII (Michael W. Deem and Ramdas Pophale) SiO2 
 PCOD9588603
Probable space group: P 6/M C C
;
_chemical_formula_sum "Si O2"
_cell_formula_units_Z 102
_cell_length_a 24.894303
_cell_length_b 24.894303
_cell_length_c 10.129591
_cell_angle_alpha 90.000000
_cell_angle_beta 90.000000
_cell_angle_gamma 120.000000
_cell_volume 5436.538707
_symmetry_space_group_name_H-M "P 6/M C C"
_symmetry_group_IT_number 192
_symmetry_cell_setting 'hexagonal'
loop_
_space_group_symop_operation_xyz
x,y,z
x-y,x,z
-y,x-y,z
-x,-y,z
-x+y,-x,z
y,-x+y,z
x-y,-y,1/2-z
-x,-x+y,1/2-z
y,x,1/2-z
-y,-x,1/2-z
-x+y,y,1/2-z
x,x-y,1/2-z
-x,-y,-z
-x+y,-x,-z
y,-x+y,-z
x,y,-z
x-y,x,-z
-y,x-y,-z
-x+y,y,1/2+z
x,x-y,1/2+z
-y,-x,1/2+z
y,x,1/2+z
x-y,-y,1/2+z
-x,-x+y,1/2+z
loop_
_atom_site_type_symbol
_atom_site_label
_atom_site_fract_x
_atom_site_fract_y
_atom_site_fract_z
Si Si1 0.267937 0.926231 0.250838
Si Si2 0.431351 0.760252 0.343518
Si Si3 0.194035 0.267811 0.500000
Si Si4 0.193912 0.267957 0.000000
Si Si5 0.500000 0.000000 0.750000
Si Si6 0.534664 0.900865 0.647068
O O1 0.224480 0.911372 0.376063
O O2 0.314299 0.899347 0.243384
O O3 0.313836 0.000000 0.250000
O O4 0.223919 0.911677 0.125381
O O5 0.372794 0.745588 0.250000
O O6 0.463958 0.731979 0.250000
O O7 0.419608 0.739281 0.500000
O O8 0.473576 0.834169 0.349386
O O9 0.217983 0.217837 0.500000
O O10 0.120332 0.240589 0.500000
O O11 0.482453 0.045947 0.673764
O O12 0.562566 0.911672 0.500000
#
# Coordination Sequence:
#
# PCOD9588603 Si02
#       6
#    24  24  12  12   6  24
#     4  10  20  37  59  84 120 158 197 247 302 361
#     4  11  24  44  65  89 117 155 201 252 306 362
#     4  10  20  38  60  85 126 160 210 248 314 368
#     4  10  22  36  60  91 118 168 204 258 306 374
#     4  12  22  40  68  94 124 162 200 256 324 378
#     4  11  23  41  62  90 123 159 203 252 307 371
#
# _framework density 18.761937
#
# number of rings (size 3 to 8) (size 9 to 14) (size 15 to 20)
#    0.000    1.412    3.529    2.000    0.000    1.882 
#    6.353    0.000    0.000    0.235    0.000    0.000 
#    0.000    5.647    0.000    0.000    0.000    0.941 
#
# Total GULP energy -568381.188138 kJ/mol
# GULP energy per Si atom -5572.364590 kJ/mol
# Density = 1.871923 g / cm^3
# Si number density = 18.761937 Si / 1000 Ang^3
#
#
#
# Elastic Constant Matrix: (Units=GPa)
#
#
# Indices 1 2 3 4 5 6 
#
# 1 96.3265 41.5014 38.2954 0.0000 0.0000 0.0000
# 2 41.5014 96.3265 38.2954 0.0000 0.0000 0.0000
# 3 38.2954 38.2954 149.3909 0.0000 0.0000 0.0000
# 4 0.0000 0.0000 0.0000 -7.8897 0.0000 0.0000
# 5 0.0000 0.0000 0.0000 0.0000 -7.8897 0.0000
# 6 0.0000 0.0000 0.0000 0.0000 0.0000 27.4126
#
#
#
# Elastic Compliance Matrix: (Units=1/GPa)
#
#
# Indices 1 2 3 4 5 6 
#
# 1 0.013350 -0.004890 -0.002169 0.000000 0.000000 0.000000
# 2 -0.004890 0.013350 -0.002169 0.000000 0.000000 0.000000
# 3 -0.002169 -0.002169 0.007806 0.000000 0.000000 0.000000
# 4 0.000000 0.000000 0.000000 -0.126748 0.000000 0.000000
# 5 0.000000 0.000000 0.000000 0.000000 -0.126748 0.000000
# 6 0.000000 0.000000 0.000000 0.000000 0.000000 0.036480
#
#
# Mechanical properties :
#
#
# Convention : Reuss Voigt Hill
#
# Bulk Modulus (GPa) = 62.29856 64.24760 63.27308
# Shear Modulus (GPa) = -31.50488 17.25677 -7.12406
#
# Velocity S-wave (km/s) = -4.10224 3.03607 -1.95072
# Velocity P-wave (km/s) = 3.29227 6.82702 5.35944
#
# Compressibility (1/GPa) = 0.01605174
#
# Stress axis : x y z
#
# Youngs Moduli (GPa) = 74.90511 74.90511 128.11014
#
# Poissons Ratio (x) = 0.36625 0.27785
# Poissons Ratio (y) = 0.36625 0.27785
# Poissons Ratio (z) = 0.16246 0.16246
#
# Static dielectric constant tensor:
#      x y z
#    x 1.672530 0.000000 0.000000 
#    y 0.000000 1.672530 0.000000 
#    z 0.000000 0.000000 1.761440 
# 
# From -- ./inp_files/910.got.cif
#   From: 2010.05.17/outbox.cif.g08.bks.cpg/sg192_1_cif.got.tgz:910.got - 2010.05.20 12:28:01.
