data_PCOD9588627
_publ_section_title
;
Structure prediction by ZEFSAII (Michael W. Deem and Ramdas Pophale) SiO2 
 PCOD9588627
Probable space group: P 6/M C C
;
_chemical_formula_sum "Si O2"
_cell_formula_units_Z 132
_cell_length_a 25.764994
_cell_length_b 25.764994
_cell_length_c 14.566748
_cell_angle_alpha 90.000000
_cell_angle_beta 90.000000
_cell_angle_gamma 120.000000
_cell_volume 8374.392850
_symmetry_space_group_name_H-M "P 6/M C C"
_symmetry_group_IT_number 192
_symmetry_cell_setting 'hexagonal'
loop_
_space_group_symop_operation_xyz
x,y,z
x-y,x,z
-y,x-y,z
-x,-y,z
-x+y,-x,z
y,-x+y,z
x-y,-y,1/2-z
-x,-x+y,1/2-z
y,x,1/2-z
-y,-x,1/2-z
-x+y,y,1/2-z
x,x-y,1/2-z
-x,-y,-z
-x+y,-x,-z
y,-x+y,-z
x,y,-z
x-y,x,-z
-y,x-y,-z
-x+y,y,1/2+z
x,x-y,1/2+z
-y,-x,1/2+z
y,x,1/2+z
x-y,-y,1/2+z
-x,-x+y,1/2+z
loop_
_atom_site_type_symbol
_atom_site_label
_atom_site_fract_x
_atom_site_fract_y
_atom_site_fract_z
Si Si1 0.101137 0.326638 0.747479
Si Si2 0.402575 0.733819 0.000000
Si Si3 0.276878 0.275431 0.104292
Si Si4 0.549267 0.647226 0.746542
Si Si5 0.667605 0.441742 0.796125
Si Si6 0.404649 0.399401 0.103320
O O1 0.164723 0.329446 0.750000
O O2 0.059419 0.291428 0.834980
O O3 0.108072 0.393086 0.746288
O O4 0.059181 0.292199 0.659693
O O5 0.335056 0.723635 0.000000
O O6 0.434355 0.764619 0.094467
O O7 0.340813 0.337324 0.101063
O O8 0.258033 0.255558 0.000000
O O9 0.489322 0.648086 0.729738
O O10 0.551346 0.616529 0.841513
O O11 0.558393 0.609675 0.666046
O O12 0.621574 0.378427 0.750000
O O13 0.731223 0.462445 0.750000
O O14 0.423294 0.420438 0.000000
#
# Coordination Sequence:
#
# PCOD9588627 Si02
#       6
#    24  12  24  24  24  24
#     4   9  16  28  44  68  96 123 160 203 236 279
#     4  10  20  40  60  74  93 131 161 192 256 308
#     4   8  15  27  44  61  91 132 160 189 241 285
#     4   9  19  31  53  76  99 127 160 200 243 285
#     4  12  22  39  58  77 101 128 158 205 252 301
#     4   8  15  33  50  71 101 132 160 191 234 290
#
# _framework density 15.762337
#
# number of rings (size 3 to 8) (size 9 to 14) (size 15 to 20)
#    0.182    2.545    1.818    2.909    1.273    0.727 
#    3.273    1.818    4.000    1.091    0.000    0.000 
#    0.000    0.000    0.000   17.455    0.000   37.818 
#
# Total GULP energy -735249.750119 kJ/mol
# GULP energy per Si atom -5570.073865 kJ/mol
# Density = 1.572646 g / cm^3
# Si number density = 15.762337 Si / 1000 Ang^3
#
#
#
# Elastic Constant Matrix: (Units=GPa)
#
#
# Indices 1 2 3 4 5 6 
#
# 1 34.1590 11.8972 19.8768 0.0000 0.0000 0.0000
# 2 11.8972 34.1590 19.8768 0.0000 0.0000 0.0000
# 3 19.8768 19.8768 136.9167 0.0000 0.0000 0.0000
# 4 0.0000 0.0000 0.0000 7.4077 0.0000 0.0000
# 5 0.0000 0.0000 0.0000 0.0000 7.4077 0.0000
# 6 0.0000 0.0000 0.0000 0.0000 0.0000 11.1309
#
#
#
# Elastic Compliance Matrix: (Units=1/GPa)
#
#
# Indices 1 2 3 4 5 6 
#
# 1 0.034872 -0.010048 -0.003604 0.000000 0.000000 0.000000
# 2 -0.010048 0.034872 -0.003604 0.000000 0.000000 0.000000
# 3 -0.003604 -0.003604 0.008350 0.000000 0.000000 0.000000
# 4 0.000000 0.000000 0.000000 0.134995 0.000000 0.000000
# 5 0.000000 0.000000 0.000000 0.000000 0.134995 0.000000
# 6 0.000000 0.000000 0.000000 0.000000 0.000000 0.089840
#
#
# Mechanical properties :
#
#
# Convention : Reuss Voigt Hill
#
# Bulk Modulus (GPa) = 22.94549 34.28181 28.61365
# Shear Modulus (GPa) = 10.26773 15.42818 12.84795
#
# Velocity S-wave (km/s) = 2.55504 3.13197 2.85810
# Velocity P-wave (km/s) = 4.82629 5.90554 5.39298
#
# Compressibility (1/GPa) = 0.04358156
#
# Stress axis : x y z
#
# Youngs Moduli (GPa) = 28.67666 28.67666 119.75999
#
# Poissons Ratio (x) = 0.28816 0.43158
# Poissons Ratio (y) = 0.28816 0.43158
# Poissons Ratio (z) = 0.10334 0.10334
#
# Static dielectric constant tensor:
#      x y z
#    x 1.514590 0.000000 0.000000 
#    y 0.000000 1.514590 0.000000 
#    z 0.000000 0.000000 1.542080 
# 
# From -- ./inp_files/3257.got.cif
#   From: 2010.05.17/outbox.cif.g08.bks.cpg/sg192_2_cif.got.tgz:3257.got - 2010.05.20 12:28:01.
