data_PCOD9588344
_publ_section_title
;
Structure prediction by ZEFSAII (Michael W. Deem and Ramdas Pophale) SiO2 
 PCOD9588344
Probable space group: P 6/M C C
;
_chemical_formula_sum "Si O2"
_cell_formula_units_Z 192
_cell_length_a 26.282902
_cell_length_b 26.282902
_cell_length_c 17.798933
_cell_angle_alpha 90.000000
_cell_angle_beta 90.000000
_cell_angle_gamma 120.000000
_cell_volume 10648.078186
_symmetry_space_group_name_H-M "P 6/M C C"
_symmetry_group_IT_number 192
_symmetry_cell_setting 'hexagonal'
loop_
_space_group_symop_operation_xyz
x,y,z
x-y,x,z
-y,x-y,z
-x,-y,z
-x+y,-x,z
y,-x+y,z
x-y,-y,1/2-z
-x,-x+y,1/2-z
y,x,1/2-z
-y,-x,1/2-z
-x+y,y,1/2-z
x,x-y,1/2-z
-x,-y,-z
-x+y,-x,-z
y,-x+y,-z
x,y,-z
x-y,x,-z
-y,x-y,-z
-x+y,y,1/2+z
x,x-y,1/2+z
-y,-x,1/2+z
y,x,1/2+z
x-y,-y,1/2+z
-x,-x+y,1/2+z
loop_
_atom_site_type_symbol
_atom_site_label
_atom_site_fract_x
_atom_site_fract_y
_atom_site_fract_z
Si Si1 0.588000 0.494827 0.811297
Si Si2 0.787322 0.527800 0.910243
Si Si3 0.877800 0.220613 0.588406
Si Si4 0.453303 0.174999 0.205592
Si Si5 0.008812 0.717426 0.090112
Si Si6 0.593981 0.005794 0.912842
Si Si7 0.684238 0.882214 0.184802
Si Si8 0.477390 0.864858 0.410718
O O1 0.537506 0.462495 0.750000
O O2 0.653348 0.519855 0.778036
O O3 0.582360 0.544712 0.855628
O O4 0.573839 0.442727 0.869475
O O5 0.842516 0.590339 0.883574
O O6 0.730302 0.526619 0.877270
O O7 0.808079 0.482116 0.887809
O O8 0.785083 0.528486 0.000000
O O9 0.883607 0.230477 0.500000
O O10 0.836200 0.154286 0.611183
O O11 0.943089 0.244531 0.615859
O O12 0.470947 0.235474 0.250000
O O13 0.382564 0.136784 0.207960
O O14 0.007420 0.655023 0.092965
O O15 0.052712 0.764030 0.150908
O O16 0.018698 0.735245 0.000000
O O17 0.612645 0.073611 0.897410
O O18 0.573152 0.994255 0.000000
O O19 0.705565 0.852783 0.250000
O O20 0.469120 0.862027 0.500000
#
# Coordination Sequence:
#
# PCOD9588344 Si02
#       8
#    24  24  24  24  24  24  24  24
#     4  12  24  36  51  74 101 134 171 208 258 323
#     4   9  17  32  55  77  95 121 160 209 260 316
#     4   9  17  31  52  78 104 139 184 221 260 313
#     4  10  21  37  51  68  94 126 163 212 258 310
#     4  10  18  33  56  79 109 145 179 221 270 315
#     4  10  20  36  54  78 109 138 167 204 261 326
#     4  10  20  33  50  76 107 142 181 221 263 311
#     4  10  20  36  55  77 105 132 159 202 262 325
#
# _framework density 18.031421999999999
#
# number of rings (size 3 to 8) (size 9 to 14) (size 15 to 20)
#    0.000    2.000    2.500    1.875    0.000    4.000 
#    0.000    1.250    0.000    4.500    0.000    0.000 
#    0.000    0.000    0.000    0.375    0.000    7.250 
#
# Total GULP energy -1069649.939005 kJ/mol
# GULP energy per Si atom -5571.093432 kJ/mol
# Density = 1.799038 g / cm^3
# Si number density = 18.031422 Si / 1000 Ang^3
#
#
#
# Elastic Constant Matrix: (Units=GPa)
#
#
# Indices 1 2 3 4 5 6 
#
# 1 53.6689 20.4398 14.1625 0.0000 0.0000 0.0000
# 2 20.4398 53.6689 14.1625 0.0000 0.0000 0.0000
# 3 14.1625 14.1625 41.4483 0.0000 0.0000 0.0000
# 4 0.0000 0.0000 0.0000 24.0048 0.0000 0.0000
# 5 0.0000 0.0000 0.0000 0.0000 24.0048 0.0000
# 6 0.0000 0.0000 0.0000 0.0000 0.0000 16.6146
#
#
#
# Elastic Compliance Matrix: (Units=1/GPa)
#
#
# Indices 1 2 3 4 5 6 
#
# 1 0.022807 -0.007287 -0.005303 0.000000 0.000000 0.000000
# 2 -0.007287 0.022807 -0.005303 0.000000 0.000000 0.000000
# 3 -0.005303 -0.005303 0.027751 0.000000 0.000000 0.000000
# 4 0.000000 0.000000 0.000000 0.041658 0.000000 0.000000
# 5 0.000000 0.000000 0.000000 0.000000 0.041658 0.000000
# 6 0.000000 0.000000 0.000000 0.000000 0.000000 0.060188
#
#
# Mechanical properties :
#
#
# Convention : Reuss Voigt Hill
#
# Bulk Modulus (GPa) = 26.61073 27.36842 26.98958
# Shear Modulus (GPa) = 18.85491 19.59292 19.22391
#
# Velocity S-wave (km/s) = 3.23719 3.29994 3.26871
# Velocity P-wave (km/s) = 5.36307 5.45257 5.40801
#
# Compressibility (1/GPa) = 0.03757882
#
# Stress axis : x y z
#
# Youngs Moduli (GPa) = 43.84551 43.84551 36.03524
#
# Poissons Ratio (x) = 0.31949 0.19110
# Poissons Ratio (y) = 0.31949 0.19110
# Poissons Ratio (z) = 0.23252 0.23252
#
# Static dielectric constant tensor:
#      x y z
#    x 1.613250 0.000000 0.000000 
#    y 0.000000 1.613250 0.000000 
#    z 0.000000 0.000000 1.735260 
# 
# From -- ./inp_files/5436.got.cif
#   From: 2010.05.17/outbox.cif.g08.bks.cpg/sg192_3_cif.got.tgz:5436.got - 2010.05.20 12:28:01.
