data_PCOD9588131
_publ_section_title
;
Structure prediction by ZEFSAII (Michael W. Deem and Ramdas Pophale) SiO2 
 PCOD9588131
Probable space group: P 6/M M M
;
_chemical_formula_sum "Si O2"
_cell_formula_units_Z 72
_cell_length_a 18.667162
_cell_length_b 18.667162
_cell_length_c 14.665756
_cell_angle_alpha 90.000000
_cell_angle_beta 90.000000
_cell_angle_gamma 120.000000
_cell_volume 4425.798933
_symmetry_space_group_name_H-M "P 6/M M M"
_symmetry_group_IT_number 191
_symmetry_cell_setting 'hexagonal'
loop_
_space_group_symop_operation_xyz
x,y,z
x-y,x,z
-y,x-y,z
-x,-y,z
-x+y,-x,z
y,-x+y,z
x-y,-y,-z
-x,-x+y,-z
y,x,-z
-y,-x,-z
-x+y,y,-z
x,x-y,-z
-x,-y,-z
-x+y,-x,-z
y,-x+y,-z
x,y,-z
x-y,x,-z
-y,x-y,-z
-x+y,y,z
x,x-y,z
-y,-x,z
y,x,z
x-y,-y,z
-x,-x+y,z
loop_
_atom_site_type_symbol
_atom_site_label
_atom_site_fract_x
_atom_site_fract_y
_atom_site_fract_z
Si Si1 0.807027 0.614053 0.390690
Si Si2 0.903788 0.807575 0.389103
Si Si3 0.903956 0.369576 0.297067
Si Si4 0.502550 0.836695 0.100631
O O1 0.806008 0.612015 0.500000
O O2 0.855519 0.711037 0.361932
O O3 0.714524 0.567473 0.351761
O O4 0.855450 0.855450 0.359725
O O5 0.904375 0.808750 0.500000
O O6 0.876747 0.438374 0.313825
O O7 0.892691 0.349901 0.188835
O O8 0.000000 0.412272 0.321381
O O9 0.407017 0.814034 0.102254
O O10 0.507798 0.753899 0.109526
O O11 0.535290 0.873685 0.000000
#
# Coordination Sequence:
#
# PCOD9588131 Si02
#       4
#    12  12  24  24
#     4  11  22  37  53  72  99 139 182 219 262 307
#     4   9  17  30  51  77 101 125 158 206 263 320
#     4  10  21  36  53  75 103 135 172 215 260 305
#     4   9  16  28  49  76 103 130 162 202 252 308
#
# _framework density 16.268249000000001
#
# number of rings (size 3 to 8) (size 9 to 14) (size 15 to 20)
#    0.000    2.333    1.667    1.500    0.000    5.333 
#    1.000    5.000    0.000    0.000    0.000    0.000 
#    0.000    0.000    0.000    0.000    0.000   11.833 
#
# Total GULP energy -401194.468305 kJ/mol
# GULP energy per Si atom -5572.145393 kJ/mol
# Density = 1.623122 g / cm^3
# Si number density = 16.268249 Si / 1000 Ang^3
#
#
#
# Elastic Constant Matrix: (Units=GPa)
#
#
# Indices 1 2 3 4 5 6 
#
# 1 107.0187 69.9062 46.3463 0.0000 0.0000 0.0000
# 2 69.9062 107.0187 46.3463 0.0000 0.0000 0.0000
# 3 46.3463 46.3463 63.9435 0.0000 0.0000 0.0000
# 4 0.0000 0.0000 0.0000 12.1741 0.0000 0.0000
# 5 0.0000 0.0000 0.0000 0.0000 12.1741 0.0000
# 6 0.0000 0.0000 0.0000 0.0000 0.0000 18.5562
#
#
#
# Elastic Compliance Matrix: (Units=1/GPa)
#
#
# Indices 1 2 3 4 5 6 
#
# 1 0.018029 -0.008916 -0.006605 0.000000 0.000000 0.000000
# 2 -0.008916 0.018029 -0.006605 0.000000 0.000000 0.000000
# 3 -0.006605 -0.006605 0.025213 0.000000 0.000000 0.000000
# 4 0.000000 0.000000 0.000000 0.082142 0.000000 0.000000
# 5 0.000000 0.000000 0.000000 0.000000 0.082142 0.000000
# 6 0.000000 0.000000 0.000000 0.000000 0.000000 0.053890
#
#
# Mechanical properties :
#
#
# Convention : Reuss Voigt Hill
#
# Bulk Modulus (GPa) = 58.75773 67.01987 62.88880
# Shear Modulus (GPa) = 15.18056 16.27301 15.72678
#
# Velocity S-wave (km/s) = 3.05805 3.16617 3.11258
# Velocity P-wave (km/s) = 6.97605 7.39272 7.18741
#
# Compressibility (1/GPa) = 0.01701904
#
# Stress axis : x y z
#
# Youngs Moduli (GPa) = 55.46700 55.46700 39.66221
#
# Poissons Ratio (x) = 0.49457 0.26195
# Poissons Ratio (y) = 0.49457 0.26195
# Poissons Ratio (z) = 0.36634 0.36634
#
# Static dielectric constant tensor:
#      x y z
#    x 1.529520 0.000000 0.000000 
#    y 0.000000 1.529520 0.000000 
#    z 0.000000 0.000000 1.557940 
# 
# From -- ./inp_files/3920.got.cif
#   From: 2010.05.17/outbox.cif.g08.bks.cpg/sg191_2_cif.got.tgz:3920.got - 2010.05.20 12:20:32.
