data_PCOD9588588
_publ_section_title
;
Structure prediction by ZEFSAII (Michael W. Deem and Ramdas Pophale) SiO2 
 PCOD9588588
Probable space group: P 6/M C C
;
_chemical_formula_sum "Si O2"
_cell_formula_units_Z 144
_cell_length_a 21.641531
_cell_length_b 21.641531
_cell_length_c 20.276914
_cell_angle_alpha 90.000000
_cell_angle_beta 90.000000
_cell_angle_gamma 120.000000
_cell_volume 8224.480080
_symmetry_space_group_name_H-M "P 6/M C C"
_symmetry_group_IT_number 192
_symmetry_cell_setting 'hexagonal'
loop_
_space_group_symop_operation_xyz
x,y,z
x-y,x,z
-y,x-y,z
-x,-y,z
-x+y,-x,z
y,-x+y,z
x-y,-y,1/2-z
-x,-x+y,1/2-z
y,x,1/2-z
-y,-x,1/2-z
-x+y,y,1/2-z
x,x-y,1/2-z
-x,-y,-z
-x+y,-x,-z
y,-x+y,-z
x,y,-z
x-y,x,-z
-y,x-y,-z
-x+y,y,1/2+z
x,x-y,1/2+z
-y,-x,1/2+z
y,x,1/2+z
x-y,-y,1/2+z
-x,-x+y,1/2+z
loop_
_atom_site_type_symbol
_atom_site_label
_atom_site_fract_x
_atom_site_fract_y
_atom_site_fract_z
Si Si1 0.944153 0.379562 0.500000
Si Si2 0.261099 0.191609 0.704092
Si Si3 0.622872 0.560556 0.355908
Si Si4 0.121598 0.956466 0.575715
Si Si5 0.399260 0.895844 0.356529
Si Si6 0.280046 0.416583 0.235475
Si Si7 0.603247 0.101924 0.500000
O O1 0.920372 0.343188 0.429182
O O2 0.922626 0.441544 0.500000
O O3 0.029780 0.422539 0.500000
O O4 0.225188 0.225188 0.750000
O O5 0.259400 0.129700 0.750000
O O6 0.220373 0.162156 0.634960
O O7 0.343998 0.249638 0.693377
O O8 0.574529 0.474933 0.346492
O O9 0.563159 0.585027 0.353554
O O10 0.682477 0.592833 0.300363
O O11 0.142304 0.949152 0.500000
O O12 0.037295 0.900299 0.582394
O O13 0.340482 0.855861 0.302188
O O14 0.370044 0.863906 0.429041
O O15 0.213002 0.426004 0.250000
#
# Coordination Sequence:
#
# PCOD9588588 Si02
#       7
#    12  24  24  24  24  24  12
#     4   7  12  24  49  80 104 114 142 195 264 304
#     4  11  21  35  53  70 102 143 173 204 257 320
#     4   9  16  31  57  80  97 122 160 213 261 295
#     4  10  20  36  59  83 102 127 175 237 284 316
#     4   9  16  31  55  80  99 121 160 212 260 296
#     4  11  23  33  45  68 105 141 173 202 237 298
#     4   7  12  24  47  80 104 116 136 197 264 302
#
# _framework density 17.508706
#
# number of rings (size 3 to 8) (size 9 to 14) (size 15 to 20)
#    0.000    2.500    1.667    4.167    0.000    2.000 
#    1.500    0.833    7.333    2.667    0.000    0.000 
#    0.000    0.000    0.000    0.000    0.000    0.000 
#
# Total GULP energy -801895.371596 kJ/mol
# GULP energy per Si atom -5568.717858 kJ/mol
# Density = 1.746886 g / cm^3
# Si number density = 17.508706 Si / 1000 Ang^3
#
#
#
# Elastic Constant Matrix: (Units=GPa)
#
#
# Indices 1 2 3 4 5 6 
#
# 1 43.3881 14.0462 26.3021 0.0000 0.0000 0.0000
# 2 14.0462 43.3881 26.3021 0.0000 0.0000 0.0000
# 3 26.3021 26.3021 115.2459 0.0000 0.0000 0.0000
# 4 0.0000 0.0000 0.0000 10.3694 0.0000 0.0000
# 5 0.0000 0.0000 0.0000 0.0000 10.3694 0.0000
# 6 0.0000 0.0000 0.0000 0.0000 0.0000 14.6709
#
#
#
# Elastic Compliance Matrix: (Units=1/GPa)
#
#
# Indices 1 2 3 4 5 6 
#
# 1 0.028047 -0.006034 -0.005024 0.000000 0.000000 0.000000
# 2 -0.006034 0.028047 -0.005024 0.000000 0.000000 0.000000
# 3 -0.005024 -0.005024 0.010970 0.000000 0.000000 0.000000
# 4 0.000000 0.000000 0.000000 0.096438 0.000000 0.000000
# 5 0.000000 0.000000 0.000000 0.000000 0.096438 0.000000
# 6 0.000000 0.000000 0.000000 0.000000 0.000000 0.068162
#
#
# Mechanical properties :
#
#
# Convention : Reuss Voigt Hill
#
# Bulk Modulus (GPa) = 28.65335 37.25810 32.95573
# Shear Modulus (GPa) = 13.44454 16.10672 14.77563
#
# Velocity S-wave (km/s) = 2.77407 3.03632 2.90815
# Velocity P-wave (km/s) = 5.16346 5.79813 5.48997
#
# Compressibility (1/GPa) = 0.03489994
#
# Stress axis : x y z
#
# Youngs Moduli (GPa) = 35.65478 35.65478 91.15584
#
# Poissons Ratio (x) = 0.21515 0.45795
# Poissons Ratio (y) = 0.21515 0.45795
# Poissons Ratio (z) = 0.17912 0.17912
#
# Static dielectric constant tensor:
#      x y z
#    x 1.589970 0.000000 0.000000 
#    y 0.000000 1.589970 0.000000 
#    z 0.000000 0.000000 1.647180 
# 
# From -- ./inp_files/5162.got.cif
#   From: 2010.05.17/outbox.cif.g08.bks.cpg/sg192_3_cif.got.tgz:5162.got - 2010.05.20 12:28:01.
