data_PCOD9588049
_publ_section_title
;
Structure prediction by ZEFSAII (Michael W. Deem and Ramdas Pophale) SiO2 
 PCOD9588049
Probable space group: P 6/M M M
;
_chemical_formula_sum "Si O2"
_cell_formula_units_Z 66
_cell_length_a 22.403618
_cell_length_b 22.403618
_cell_length_c 8.208229
_cell_angle_alpha 90.000000
_cell_angle_beta 90.000000
_cell_angle_gamma 120.000000
_cell_volume 3567.930728
_symmetry_space_group_name_H-M "P 6/M M M"
_symmetry_group_IT_number 191
_symmetry_cell_setting 'hexagonal'
loop_
_space_group_symop_operation_xyz
x,y,z
x-y,x,z
-y,x-y,z
-x,-y,z
-x+y,-x,z
y,-x+y,z
x-y,-y,-z
-x,-x+y,-z
y,x,-z
-y,-x,-z
-x+y,y,-z
x,x-y,-z
-x,-y,-z
-x+y,-x,-z
y,-x+y,-z
x,y,-z
x-y,x,-z
-y,x-y,-z
-x+y,y,z
x,x-y,z
-y,-x,z
y,x,z
x-y,-y,z
-x,-x+y,z
loop_
_atom_site_type_symbol
_atom_site_label
_atom_site_fract_x
_atom_site_fract_y
_atom_site_fract_z
Si Si1 0.422218 0.844435 0.178582
Si Si2 0.622612 0.245223 0.500000
Si Si3 0.571884 0.654517 0.687455
Si Si4 0.079238 0.785961 0.802921
O O1 0.397458 0.794916 0.332620
O O2 0.504575 0.888447 0.201884
O O3 0.405904 0.811808 0.000000
O O4 0.704488 0.295513 0.500000
O O5 0.551133 0.656363 0.500000
O O6 0.609537 0.609537 0.691083
O O7 0.630056 0.730249 0.743634
O O8 0.137555 0.862446 0.750378
O O9 0.000000 0.758055 0.748443
O O10 0.078427 0.784840 0.000000
#
# Coordination Sequence:
#
# PCOD9588049 Si02
#       4
#    12   6  24  24
#     4  12  23  39  65  88 110 152 198 238 298 360
#     4  10  26  48  61  74 108 144 190 252 294 330
#     4  10  20  35  56  85 120 151 186 234 292 352
#     4   9  18  33  53  80 113 150 192 238 290 347
#
# _framework density 18.498117000000001
#
# number of rings (size 3 to 8) (size 9 to 14) (size 15 to 20)
#    0.182    1.818    1.818    1.636    0.000    7.273 
#    0.000    0.000    0.000    0.364    0.000    2.545 
#    0.000    0.000    0.000    9.091    0.000    9.455 
#
# Total GULP energy -368049.697406 kJ/mol
# GULP energy per Si atom -5576.510567 kJ/mol
# Density = 1.845601 g / cm^3
# Si number density = 18.498117 Si / 1000 Ang^3
#
#
#
# Elastic Constant Matrix: (Units=GPa)
#
#
# Indices 1 2 3 4 5 6 
#
# 1 98.5595 55.0742 32.7765 0.0000 0.0000 0.0000
# 2 55.0742 98.5595 32.7765 0.0000 0.0000 0.0000
# 3 32.7765 32.7765 92.1662 0.0000 0.0000 0.0000
# 4 0.0000 0.0000 0.0000 13.4049 0.0000 0.0000
# 5 0.0000 0.0000 0.0000 0.0000 13.4049 0.0000
# 6 0.0000 0.0000 0.0000 0.0000 0.0000 21.7426
#
#
#
# Elastic Compliance Matrix: (Units=1/GPa)
#
#
# Indices 1 2 3 4 5 6 
#
# 1 0.015335 -0.007661 -0.002729 0.000000 0.000000 0.000000
# 2 -0.007661 0.015335 -0.002729 0.000000 0.000000 0.000000
# 3 -0.002729 -0.002729 0.012791 0.000000 0.000000 0.000000
# 4 0.000000 0.000000 0.000000 0.074600 0.000000 0.000000
# 5 0.000000 0.000000 0.000000 0.000000 0.074600 0.000000
# 6 0.000000 0.000000 0.000000 0.000000 0.000000 0.045993
#
#
# Mechanical properties :
#
#
# Convention : Reuss Voigt Hill
#
# Bulk Modulus (GPa) = 58.06456 58.94887 58.50671
# Shear Modulus (GPa) = 18.47529 20.95432 19.71480
#
# Velocity S-wave (km/s) = 3.16375 3.36933 3.26816
# Velocity P-wave (km/s) = 6.69353 6.86099 6.77778
#
# Compressibility (1/GPa) = 0.01722221
#
# Stress axis : x y z
#
# Youngs Moduli (GPa) = 65.21107 65.21107 78.18099
#
# Poissons Ratio (x) = 0.49961 0.21334
# Poissons Ratio (y) = 0.49961 0.21334
# Poissons Ratio (z) = 0.17795 0.17795
#
# Static dielectric constant tensor:
#      x y z
#    x 1.643520 0.000000 0.000000 
#    y 0.000000 1.643520 0.000000 
#    z 0.000000 0.000000 1.668520 
# 
# From -- ./inp_files/681.got.cif
#   From: 2010.05.17/outbox.cif.g08.bks.cpg/sg191_1_cif.got.tgz:681.got - 2010.05.20 12:20:32.
