data_PCOD9588726
_publ_section_title
;
Structure prediction by ZEFSAII (Michael W. Deem and Ramdas Pophale) SiO2 
 PCOD9588726
Probable space group: P 6/M C C
;
_chemical_formula_sum "Si O2"
_cell_formula_units_Z 104
_cell_length_a 19.696115
_cell_length_b 19.696115
_cell_length_c 16.652803
_cell_angle_alpha 90.000000
_cell_angle_beta 90.000000
_cell_angle_gamma 120.000000
_cell_volume 5594.729824
_symmetry_space_group_name_H-M "P 6/M C C"
_symmetry_group_IT_number 192
_symmetry_cell_setting 'hexagonal'
loop_
_space_group_symop_operation_xyz
x,y,z
x-y,x,z
-y,x-y,z
-x,-y,z
-x+y,-x,z
y,-x+y,z
x-y,-y,1/2-z
-x,-x+y,1/2-z
y,x,1/2-z
-y,-x,1/2-z
-x+y,y,1/2-z
x,x-y,1/2-z
-x,-y,-z
-x+y,-x,-z
y,-x+y,-z
x,y,-z
x-y,x,-z
-y,x-y,-z
-x+y,y,1/2+z
x,x-y,1/2+z
-y,-x,1/2+z
y,x,1/2+z
x-y,-y,1/2+z
-x,-x+y,1/2+z
loop_
_atom_site_type_symbol
_atom_site_label
_atom_site_fract_x
_atom_site_fract_y
_atom_site_fract_z
Si Si1 0.666668 0.333335 0.346318
Si Si2 0.340394 0.172507 0.155839
Si Si3 0.028960 0.587371 0.657830
Si Si4 0.719816 0.003692 0.405831
Si Si5 0.697919 0.499732 0.594310
O O1 0.666668 0.333334 0.250000
O O2 0.726076 0.305739 0.378494
O O3 0.357799 0.178900 0.250000
O O4 0.294051 0.218246 0.135548
O O5 0.292812 0.082585 0.130230
O O6 0.423066 0.218001 0.109028
O O7 0.122704 0.637904 0.646809
O O8 0.000000 0.500000 0.628235
O O9 0.000000 0.579891 0.750000
O O10 0.995494 0.634732 0.609986
O O11 0.730783 0.998884 0.500000
O O12 0.677991 0.495708 0.500000
#
# Coordination Sequence:
#
# PCOD9588726 Si02
#       5
#     8  24  24  24  24
#     4  12  28  41  64  84 118 164 208 255 313 365
#     4  11  22  40  64  90 124 159 206 249 306 365
#     4  10  22  37  61  84 118 152 201 245 303 359
#     4  11  22  38  61  91 122 159 201 253 305 361
#     4  11  24  42  60  88 120 156 204 254 305 367
#
# _framework density 18.588922
#
# number of rings (size 3 to 8) (size 9 to 14) (size 15 to 20)
#    0.000    1.154    0.000    9.000    6.462    1.846 
#    0.000    0.000    0.000    0.462    0.000    3.231 
#    0.000    0.000    0.000    0.000    0.000    0.000 
#
# Total GULP energy -581426.724451 kJ/mol
# GULP energy per Si atom -5590.641581 kJ/mol
# Density = 1.854661 g / cm^3
# Si number density = 18.588922 Si / 1000 Ang^3
#
#
#
# Elastic Constant Matrix: (Units=GPa)
#
#
# Indices 1 2 3 4 5 6 
#
# 1 99.8714 72.6037 24.3975 -0.0002 0.0003 0.0002
# 2 72.6037 99.8732 24.3977 0.0001 0.0000 0.0000
# 3 24.3975 24.3977 100.3135 0.0000 -0.0003 0.0001
# 4 -0.0002 0.0001 0.0000 30.4200 -0.0002 0.0001
# 5 0.0003 0.0000 -0.0003 -0.0002 30.4189 0.0002
# 6 0.0002 0.0000 0.0001 0.0001 0.0002 13.6338
#
#
#
# Elastic Compliance Matrix: (Units=1/GPa)
#
#
# Indices 1 2 3 4 5 6 
#
# 1 0.021449 -0.015223 -0.001514 0.000000 0.000000 0.000000
# 2 -0.015223 0.021449 -0.001514 0.000000 0.000000 0.000000
# 3 -0.001514 -0.001514 0.010705 0.000000 0.000000 0.000000
# 4 0.000000 0.000000 0.000000 0.032873 0.000000 0.000000
# 5 0.000000 0.000000 0.000000 0.000000 0.032874 0.000000
# 6 0.000000 0.000000 0.000000 0.000000 0.000000 0.073347
#
#
# Mechanical properties :
#
#
# Convention : Reuss Voigt Hill
#
# Bulk Modulus (GPa) = 58.47713 60.31733 59.39723
# Shear Modulus (GPa) = 21.28549 26.80515 24.04532
#
# Velocity S-wave (km/s) = 3.38755 3.80148 3.60047
# Velocity P-wave (km/s) = 6.84303 7.19630 7.02189
#
# Compressibility (1/GPa) = 0.01710070
#
# Stress axis : x y z
#
# Youngs Moduli (GPa) = 46.62126 46.62208 93.41116
#
# Poissons Ratio (x) = 0.70972 0.14145
# Poissons Ratio (y) = 0.70971 0.14146
# Poissons Ratio (z) = 0.07060 0.07060
#
# Static dielectric constant tensor:
#      x y z
#    x 1.633890 0.000000 0.000000 
#    y 0.000000 1.633890 0.000000 
#    z 0.000000 0.000000 1.643470 
# 
# From -- ./inp_files/2906.got.cif
#   From: 2010.05.17/outbox.cif.g08.bks.cpg/sg192_2_cif.got.tgz:2906.got - 2010.05.20 12:28:01.
