data_PCOD9588893
_publ_section_title
;
Structure prediction by ZEFSAII (Michael W. Deem and Ramdas Pophale) SiO2 
 PCOD9588893
Probable space group: P 63/M C M
;
_chemical_formula_sum "Si O2"
_cell_formula_units_Z 144
_cell_length_a 23.421009
_cell_length_b 23.421009
_cell_length_c 17.498096
_cell_angle_alpha 90.000000
_cell_angle_beta 90.000000
_cell_angle_gamma 120.000000
_cell_volume 8312.518570
_symmetry_space_group_name_H-M "P 63/M C M"
_symmetry_group_IT_number 193
_symmetry_cell_setting 'hexagonal'
loop_
_space_group_symop_operation_xyz
x,y,z
x-y,x,1/2+z
-y,x-y,z
-x,-y,1/2+z
-x+y,-x,z
y,-x+y,1/2+z
x-y,-y,1/2-z
-x,-x+y,1/2-z
y,x,1/2-z
-y,-x,-z
-x+y,y,-z
x,x-y,-z
-x,-y,-z
-x+y,-x,1/2-z
y,-x+y,-z
x,y,1/2-z
x-y,x,-z
-y,x-y,1/2-z
-x+y,y,1/2+z
x,x-y,1/2+z
-y,-x,1/2+z
y,x,z
x-y,-y,z
-x,-x+y,z
loop_
_atom_site_type_symbol
_atom_site_label
_atom_site_fract_x
_atom_site_fract_y
_atom_site_fract_z
Si Si1 0.921071 0.651267 0.165063
Si Si2 0.540498 0.618704 0.564936
Si Si3 0.414868 0.264607 0.550415
Si Si4 0.585450 0.385536 0.086954
Si Si5 0.800486 0.722774 0.516417
Si Si6 0.722762 0.480238 0.160783
O O1 0.892806 0.644091 0.250000
O O2 0.911268 0.583347 0.130550
O O3 0.901288 0.685432 0.098714
O O4 0.000000 0.697557 0.170416
O O5 0.571040 0.571040 0.555121
O O6 0.551207 0.664190 0.490629
O O7 0.464363 0.585652 0.586482
O O8 0.425663 0.212831 0.500000
O O9 0.337006 0.237795 0.544022
O O10 0.450585 0.266793 0.628783
O O11 0.647636 0.425986 0.140974
O O12 0.543447 0.310310 0.114897
O O13 0.610239 0.389762 0.000000
O O14 0.877384 0.754767 0.500000
O O15 0.770708 0.770708 0.515490
O O16 0.736423 0.482884 0.250000
#
# Coordination Sequence:
#
# PCOD9588893 Si02
#       6
#    24  24  24  24  24  24
#     4   8  15  29  51  80 110 139 176 230 282 317
#     4  10  20  35  59  86 111 141 183 228 279 351
#     4  10  17  37  56  82 107 142 185 225 282 334
#     4  12  23  42  61  81 110 143 194 240 291 336
#     4   9  18  32  55  82 114 149 193 232 275 339
#     4  12  25  40  58  83 110 146 191 241 290 342
#
# _framework density 17.323270000000001
#
# number of rings (size 3 to 8) (size 9 to 14) (size 15 to 20)
#    0.000    1.833    3.333    2.833    0.000    1.667 
#    0.000    0.000    0.000    5.667    0.000    0.000 
#    0.000    0.000    0.000    0.000    0.000    0.167 
#
# Total GULP energy -803226.496616 kJ/mol
# GULP energy per Si atom -5577.961782 kJ/mol
# Density = 1.728384 g / cm^3
# Si number density = 17.323270 Si / 1000 Ang^3
#
#
#
# Elastic Constant Matrix: (Units=GPa)
#
#
# Indices 1 2 3 4 5 6 
#
# 1 89.5682 36.2586 36.2117 0.0000 0.0000 0.0000
# 2 36.2586 89.5682 36.2117 0.0000 0.0000 0.0000
# 3 36.2117 36.2117 112.5465 0.0000 0.0000 0.0000
# 4 0.0000 0.0000 0.0000 15.2182 0.0000 0.0000
# 5 0.0000 0.0000 0.0000 0.0000 15.2182 0.0000
# 6 0.0000 0.0000 0.0000 0.0000 0.0000 26.6548
#
#
#
# Elastic Compliance Matrix: (Units=1/GPa)
#
#
# Indices 1 2 3 4 5 6 
#
# 1 0.014256 -0.004502 -0.003138 0.000000 0.000000 0.000000
# 2 -0.004502 0.014256 -0.003138 0.000000 0.000000 0.000000
# 3 -0.003138 -0.003138 0.010905 0.000000 0.000000 0.000000
# 4 0.000000 0.000000 0.000000 0.065711 0.000000 0.000000
# 5 0.000000 0.000000 0.000000 0.000000 0.065711 0.000000
# 6 0.000000 0.000000 0.000000 0.000000 0.000000 0.037517
#
#
# Mechanical properties :
#
#
# Convention : Reuss Voigt Hill
#
# Bulk Modulus (GPa) = 55.99372 56.56078 56.27725
# Shear Modulus (GPa) = 21.19853 23.61831 22.40842
#
# Velocity S-wave (km/s) = 3.50194 3.69641 3.60049
# Velocity P-wave (km/s) = 6.98172 7.13716 7.05987
#
# Compressibility (1/GPa) = 0.01785915
#
# Stress axis : x y z
#
# Youngs Moduli (GPa) = 70.14562 70.14562 91.70379
#
# Poissons Ratio (x) = 0.31582 0.28779
# Poissons Ratio (y) = 0.31582 0.28779
# Poissons Ratio (z) = 0.22014 0.22014
#
# Static dielectric constant tensor:
#      x y z
#    x 1.606410 0.000000 0.000000 
#    y 0.000000 1.606410 0.000000 
#    z 0.000000 0.000000 1.613250 
# 
# From -- ./inp_files/5596.got.cif
#   From: 2010.05.17/outbox.cif.g08.bks.cpg/sg193_3_cif.got.tgz:5596.got - 2010.05.20 12:33:02.
