data_PCOD9588924
_publ_section_title
;
Structure prediction by ZEFSAII (Michael W. Deem and Ramdas Pophale) SiO2 
 PCOD9588924
Probable space group: P 63/M C M
;
_chemical_formula_sum "Si O2"
_cell_formula_units_Z 168
_cell_length_a 19.226907
_cell_length_b 19.226907
_cell_length_c 26.344701
_cell_angle_alpha 90.000000
_cell_angle_beta 90.000000
_cell_angle_gamma 120.000000
_cell_volume 8434.177893
_symmetry_space_group_name_H-M "P 63/M C M"
_symmetry_group_IT_number 193
_symmetry_cell_setting 'hexagonal'
loop_
_space_group_symop_operation_xyz
x,y,z
x-y,x,1/2+z
-y,x-y,z
-x,-y,1/2+z
-x+y,-x,z
y,-x+y,1/2+z
x-y,-y,1/2-z
-x,-x+y,1/2-z
y,x,1/2-z
-y,-x,-z
-x+y,y,-z
x,x-y,-z
-x,-y,-z
-x+y,-x,1/2-z
y,-x+y,-z
x,y,1/2-z
x-y,x,-z
-y,x-y,1/2-z
-x+y,y,1/2+z
x,x-y,1/2+z
-y,-x,1/2+z
y,x,z
x-y,-y,z
-x,-x+y,z
loop_
_atom_site_type_symbol
_atom_site_label
_atom_site_fract_x
_atom_site_fract_y
_atom_site_fract_z
Si Si1 0.450823 0.364305 0.906034
Si Si2 0.908994 0.238428 0.890294
Si Si3 0.124128 0.410091 0.995449
Si Si4 0.377539 0.804700 0.949762
Si Si5 0.365034 0.841001 0.191692
Si Si6 0.697251 0.490137 0.849414
Si Si7 0.904249 0.807698 0.940595
O O1 0.441109 0.441109 0.912046
O O2 0.537030 0.381834 0.923456
O O3 0.451586 0.348238 0.846697
O O4 0.391488 0.300939 0.947578
O O5 0.913718 0.263282 0.949570
O O6 0.850018 0.264066 0.861722
O O7 0.882423 0.145025 0.899191
O O8 0.000000 0.287032 0.869211
O O9 0.125655 0.488585 0.972979
O O10 0.215985 0.431969 0.000000
O O11 0.313946 0.763735 0.905206
O O12 0.380865 0.761729 0.000000
O O13 0.373068 0.865005 0.250000
O O14 0.444611 0.836796 0.174928
O O15 0.285058 0.754478 0.183361
O O16 0.867803 0.867803 0.936895
O O17 0.000000 0.854358 0.932712
O O18 0.889239 0.778478 0.000000
#
# Coordination Sequence:
#
# PCOD9588924 Si02
#       7
#    24  24  24  24  24  24  24
#     4  10  20  33  51  75 102 135 176 224 280 337
#     4  10  20  34  56  85 119 157 195 240 295 356
#     4  10  18  30  47  71 107 146 181 215 260 329
#     4   8  17  30  49  74 103 134 168 217 275 334
#     4  11  23  39  59  77  98 136 186 243 296 342
#     4  10  21  38  58  81 106 140 193 244 295 360
#     4   9  17  30  51  82 122 168 211 244 277 329
#
# _framework density 19.918952999999998
#
# number of rings (size 3 to 8) (size 9 to 14) (size 15 to 20)
#    0.000    2.286    0.000    3.429    0.000    8.571 
#    0.000    4.286    0.000   10.714    0.000    0.000 
#    0.000    0.000    0.000    1.714    0.000   15.429 
#
# Total GULP energy -935398.749368 kJ/mol
# GULP energy per Si atom -5567.849699 kJ/mol
# Density = 1.987362 g / cm^3
# Si number density = 19.918953 Si / 1000 Ang^3
#
#
#
# Elastic Constant Matrix: (Units=GPa)
#
#
# Indices 1 2 3 4 5 6 
#
# 1 60.8098 32.8169 15.9193 0.0000 0.0000 0.0000
# 2 32.8169 60.8098 15.9193 0.0000 0.0000 0.0000
# 3 15.9193 15.9193 111.9862 0.0000 0.0000 0.0000
# 4 0.0000 0.0000 0.0000 5.0613 0.0000 0.0000
# 5 0.0000 0.0000 0.0000 0.0000 5.0613 0.0000
# 6 0.0000 0.0000 0.0000 0.0000 0.0000 13.9964
#
#
#
# Elastic Compliance Matrix: (Units=1/GPa)
#
#
# Indices 1 2 3 4 5 6 
#
# 1 0.023473 -0.012250 -0.001595 0.000000 0.000000 0.000000
# 2 -0.012250 0.023473 -0.001595 0.000000 0.000000 0.000000
# 3 -0.001595 -0.001595 0.009383 0.000000 0.000000 0.000000
# 4 0.000000 0.000000 0.000000 0.197577 0.000000 0.000000
# 5 0.000000 0.000000 0.000000 0.000000 0.197577 0.000000
# 6 0.000000 0.000000 0.000000 0.000000 0.000000 0.071447
#
#
# Mechanical properties :
#
#
# Convention : Reuss Voigt Hill
#
# Bulk Modulus (GPa) = 39.29575 40.32410 39.80992
# Shear Modulus (GPa) = 8.89211 16.08715 12.48963
#
# Velocity S-wave (km/s) = 2.11514 2.84497 2.50676
# Velocity P-wave (km/s) = 5.07304 5.57493 5.32990
#
# Compressibility (1/GPa) = 0.02544804
#
# Stress axis : x y z
#
# Youngs Moduli (GPa) = 42.60150 42.60150 106.57275
#
# Poissons Ratio (x) = 0.52187 0.17003
# Poissons Ratio (y) = 0.52187 0.17003
# Poissons Ratio (z) = 0.06797 0.06797
#
# Static dielectric constant tensor:
#      x y z
#    x 1.761490 0.000000 0.000000 
#    y 0.000000 1.761490 0.000000 
#    z 0.000000 0.000000 1.740810 
# 
# From -- ./inp_files/8515.got.cif
#   From: 2010.05.17/outbox.cif.g08.bks.cpg/sg193_5_cif.got.tgz:8515.got - 2010.05.20 12:33:02.
