data_PCOD9588192
_publ_section_title
;
Structure prediction by ZEFSAII (Michael W. Deem and Ramdas Pophale) SiO2 
 PCOD9588192
Probable space group: P 6/M M M
;
_chemical_formula_sum "Si O2"
_cell_formula_units_Z 168
_cell_length_a 23.354726
_cell_length_b 23.354726
_cell_length_c 23.930765
_cell_angle_alpha 90.000000
_cell_angle_beta 90.000000
_cell_angle_gamma 120.000000
_cell_volume 11304.120195
_symmetry_space_group_name_H-M "P 6/M M M"
_symmetry_group_IT_number 191
_symmetry_cell_setting 'hexagonal'
loop_
_space_group_symop_operation_xyz
x,y,z
x-y,x,z
-y,x-y,z
-x,-y,z
-x+y,-x,z
y,-x+y,z
x-y,-y,-z
-x,-x+y,-z
y,x,-z
-y,-x,-z
-x+y,y,-z
x,x-y,-z
-x,-y,-z
-x+y,-x,-z
y,-x+y,-z
x,y,-z
x-y,x,-z
-y,x-y,-z
-x+y,y,z
x,x-y,z
-y,-x,z
y,x,z
x-y,-y,z
-x,-x+y,z
loop_
_atom_site_type_symbol
_atom_site_label
_atom_site_fract_x
_atom_site_fract_y
_atom_site_fract_z
Si Si1 0.079364 0.472393 0.357302
Si Si2 0.859421 0.272335 0.138790
Si Si3 0.606811 0.530157 0.063824
Si Si4 0.714738 0.923456 0.350245
Si Si5 0.922282 0.307047 0.259190
Si Si6 0.269273 0.404865 0.434026
Si Si7 0.075664 0.281249 0.065314
O O1 0.095051 0.547526 0.356028
O O2 0.093820 0.446691 0.299191
O O3 0.117051 0.455259 0.404752
O O4 0.000000 0.426709 0.366470
O O5 0.783675 0.216326 0.133357
O O6 0.877219 0.339807 0.108154
O O7 0.880652 0.284208 0.203091
O O8 0.901485 0.245166 0.105533
O O9 0.540051 0.459950 0.067199
O O10 0.585122 0.585122 0.073967
O O11 0.631743 0.538774 0.000000
O O12 0.736662 0.868331 0.349185
O O13 0.667520 0.913351 0.297069
O O14 0.665598 0.907619 0.403034
O O15 0.771338 0.000000 0.351242
O O16 0.000000 0.349746 0.244613
O O17 0.276967 0.399922 0.500000
O O18 0.211745 0.423489 0.424993
O O19 0.128311 0.256622 0.073041
O O20 0.000000 0.227461 0.076224
O O21 0.080506 0.301834 0.000000
#
# Coordination Sequence:
#
# PCOD9588192 Si02
#       7
#    24  24  24  24  24  24  24
#     4   9  18  31  47  69  94 117 143 178 220 262
#     4  11  20  28  44  69  91 111 139 177 220 264
#     4   9  18  32  48  65  86 113 144 176 211 256
#     4   9  17  29  44  62  87 118 150 184 221 261
#     4   9  17  29  44  63  89 119 147 174 209 257
#     4   9  17  29  46  68  93 121 151 180 211 251
#     4   9  17  28  42  62  89 118 145 176 216 259
#
# _framework density 14.861837
#
# number of rings (size 3 to 8) (size 9 to 14) (size 15 to 20)
#    0.000    2.714    0.000    3.857    0.000    4.571 
#    0.000    2.143    0.000    0.857    0.000    2.000 
#    0.000    0.000    0.000    8.143    0.000    3.143 
#
# Total GULP energy -936193.799629 kJ/mol
# GULP energy per Si atom -5572.582141 kJ/mol
# Density = 1.482801 g / cm^3
# Si number density = 14.861837 Si / 1000 Ang^3
#
#
#
# Elastic Constant Matrix: (Units=GPa)
#
#
# Indices 1 2 3 4 5 6 
#
# 1 82.0160 42.7070 43.0560 0.0000 0.0000 0.0000
# 2 42.7070 82.0160 43.0560 0.0000 0.0000 0.0000
# 3 43.0560 43.0560 88.8273 0.0000 0.0000 0.0000
# 4 0.0000 0.0000 0.0000 16.4822 0.0000 0.0000
# 5 0.0000 0.0000 0.0000 0.0000 16.4822 0.0000
# 6 0.0000 0.0000 0.0000 0.0000 0.0000 19.6545
#
#
#
# Elastic Compliance Matrix: (Units=1/GPa)
#
#
# Indices 1 2 3 4 5 6 
#
# 1 0.018745 -0.006694 -0.005841 0.000000 0.000000 0.000000
# 2 -0.006694 0.018745 -0.005841 0.000000 0.000000 0.000000
# 3 -0.005841 -0.005841 0.016920 0.000000 0.000000 0.000000
# 4 0.000000 0.000000 0.000000 0.060672 0.000000 0.000000
# 5 0.000000 0.000000 0.000000 0.000000 0.060672 0.000000
# 6 0.000000 0.000000 0.000000 0.000000 0.000000 0.050879
#
#
# Mechanical properties :
#
#
# Convention : Reuss Voigt Hill
#
# Bulk Modulus (GPa) = 56.63439 56.72193 56.67816
# Shear Modulus (GPa) = 18.56861 18.79313 18.68087
#
# Velocity S-wave (km/s) = 3.53854 3.55987 3.54922
# Velocity P-wave (km/s) = 7.40844 7.42603 7.41724
#
# Compressibility (1/GPa) = 0.01765712
#
# Stress axis : x y z
#
# Youngs Moduli (GPa) = 53.34745 53.34745 59.10029
#
# Poissons Ratio (x) = 0.35713 0.34521
# Poissons Ratio (y) = 0.35713 0.34521
# Poissons Ratio (z) = 0.31161 0.31161
#
# Static dielectric constant tensor:
#      x y z
#    x 1.484000 0.000000 0.000000 
#    y 0.000000 1.484000 0.000000 
#    z 0.000000 0.000000 1.490970 
# 
# From -- ./inp_files/7907.got.cif
#   From: 2010.05.17/outbox.cif.g08.bks.cpg/sg191_4_cif.got.tgz:7907.got - 2010.05.20 12:20:32.
