data_PCOD9588520
_publ_section_title
;
Structure prediction by ZEFSAII (Michael W. Deem and Ramdas Pophale) SiO2 
 PCOD9588520
Probable space group: P 6/M C C
;
_chemical_formula_sum "Si O2"
_cell_formula_units_Z 144
_cell_length_a 21.046067
_cell_length_b 21.046067
_cell_length_c 19.002078
_cell_angle_alpha 90.000000
_cell_angle_beta 90.000000
_cell_angle_gamma 120.000000
_cell_volume 7289.095251
_symmetry_space_group_name_H-M "P 6/M C C"
_symmetry_group_IT_number 192
_symmetry_cell_setting 'hexagonal'
loop_
_space_group_symop_operation_xyz
x,y,z
x-y,x,z
-y,x-y,z
-x,-y,z
-x+y,-x,z
y,-x+y,z
x-y,-y,1/2-z
-x,-x+y,1/2-z
y,x,1/2-z
-y,-x,1/2-z
-x+y,y,1/2-z
x,x-y,1/2-z
-x,-y,-z
-x+y,-x,-z
y,-x+y,-z
x,y,-z
x-y,x,-z
-y,x-y,-z
-x+y,y,1/2+z
x,x-y,1/2+z
-y,-x,1/2+z
y,x,1/2+z
x-y,-y,1/2+z
-x,-x+y,1/2+z
loop_
_atom_site_type_symbol
_atom_site_label
_atom_site_fract_x
_atom_site_fract_y
_atom_site_fract_z
Si Si1 0.291782 0.213554 0.617874
Si Si2 0.851951 0.968665 0.172669
Si Si3 0.696466 0.541882 0.333229
Si Si4 0.766791 0.680997 0.575436
Si Si5 0.845530 0.303190 0.166435
Si Si6 0.456005 0.911729 0.084509
O O1 0.233346 0.172891 0.679411
O O2 0.294138 0.146955 0.578457
O O3 0.256719 0.257225 0.579969
O O4 0.372683 0.267702 0.644843
O O5 0.905479 0.045118 0.134866
O O6 0.882934 0.000000 0.250000
O O7 0.731033 0.625669 0.359581
O O8 0.680320 0.533939 0.249915
O O9 0.761008 0.522095 0.346068
O O10 0.623439 0.496492 0.378655
O O11 0.738175 0.641887 0.500000
O O12 0.873639 0.375426 0.119791
O O13 0.500000 0.000000 0.098210
O O14 0.450891 0.902000 0.000000
#
# Coordination Sequence:
#
# PCOD9588520 Si02
#       6
#    24  24  24  24  24  24
#     4  11  22  36  58  84 118 163 206 264 317 372
#     4  10  20  33  54  81 117 158 209 267 325 375
#     4  10  23  43  66  93 127 164 205 257 316 373
#     4  11  23  38  57  83 119 163 213 263 317 377
#     4  10  24  41  65  98 129 160 207 260 313 375
#     4  11  24  43  68  98 132 171 212 255 313 384
#
# _framework density 19.755537
#
# number of rings (size 3 to 8) (size 9 to 14) (size 15 to 20)
#    0.000    1.500    1.667    2.667    2.333   10.000 
#    1.000    0.000    0.000    0.000    0.000    2.333 
#    0.000    0.000    0.000    0.000    0.000    0.000 
#
# Total GULP energy -801851.309704 kJ/mol
# GULP energy per Si atom -5568.411873 kJ/mol
# Density = 1.971057 g / cm^3
# Si number density = 19.755537 Si / 1000 Ang^3
#
#
#
# Elastic Constant Matrix: (Units=GPa)
#
#
# Indices 1 2 3 4 5 6 
#
# 1 104.8085 120.5701 65.8306 0.0000 0.0000 0.0000
# 2 120.5701 104.8085 65.8306 0.0000 0.0000 0.0000
# 3 65.8306 65.8306 112.2607 0.0000 0.0000 0.0000
# 4 0.0000 0.0000 0.0000 18.9349 0.0000 0.0000
# 5 0.0000 0.0000 0.0000 0.0000 18.9349 0.0000
# 6 0.0000 0.0000 0.0000 0.0000 0.0000 -7.8808
#
#
#
# Elastic Compliance Matrix: (Units=1/GPa)
#
#
# Indices 1 2 3 4 5 6 
#
# 1 -0.028348 0.035097 -0.003958 0.000000 0.000000 0.000000
# 2 0.035097 -0.028348 -0.003958 0.000000 0.000000 0.000000
# 3 -0.003958 -0.003958 0.013549 0.000000 0.000000 0.000000
# 4 0.000000 0.000000 0.000000 0.052813 0.000000 0.000000
# 5 0.000000 0.000000 0.000000 0.000000 0.052813 0.000000
# 6 0.000000 0.000000 0.000000 0.000000 0.000000 -0.126891
#
#
# Mechanical properties :
#
#
# Convention : Reuss Voigt Hill
#
# Bulk Modulus (GPa) = 89.15230 91.81559 90.48395
# Shear Modulus (GPa) = -43.46429 10.64089 -16.41170
#
# Velocity S-wave (km/s) = -4.69562 2.32335 -2.88538
# Velocity P-wave (km/s) = 3.97835 7.33308 5.89921
#
# Compressibility (1/GPa) = 0.01121676
#
# Stress axis : x y z
#
# Youngs Moduli (GPa) = -35.27566 -35.27566 73.80400
#
# Poissons Ratio (x) = 1.23807 0.29209
# Poissons Ratio (y) = 1.23807 0.29209
# Poissons Ratio (z) = -0.13961 -0.13961
#
# Static dielectric constant tensor:
#      x y z
#    x 1.611880 0.000000 0.000000 
#    y 0.000000 1.611880 0.000000 
#    z 0.000000 0.000000 1.689390 
# 
# From -- ./inp_files/5129.got.cif
#   From: 2010.05.17/outbox.cif.g08.bks.cpg/sg192_3_cif.got.tgz:5129.got - 2010.05.20 12:28:01.
