data_PCOD9588917
_publ_section_title
;
Structure prediction by ZEFSAII (Michael W. Deem and Ramdas Pophale) SiO2 
 PCOD9588917
Probable space group: P 63/M C M
;
_chemical_formula_sum "Si O2"
_cell_formula_units_Z 104
_cell_length_a 18.324428
_cell_length_b 18.324428
_cell_length_c 21.123168
_cell_angle_alpha 90.000000
_cell_angle_beta 90.000000
_cell_angle_gamma 120.000000
_cell_volume 6142.576003
_symmetry_space_group_name_H-M "P 63/M C M"
_symmetry_group_IT_number 193
_symmetry_cell_setting 'hexagonal'
loop_
_space_group_symop_operation_xyz
x,y,z
x-y,x,1/2+z
-y,x-y,z
-x,-y,1/2+z
-x+y,-x,z
y,-x+y,1/2+z
x-y,-y,1/2-z
-x,-x+y,1/2-z
y,x,1/2-z
-y,-x,-z
-x+y,y,-z
x,x-y,-z
-x,-y,-z
-x+y,-x,1/2-z
y,-x+y,-z
x,y,1/2-z
x-y,x,-z
-y,x-y,1/2-z
-x+y,y,1/2+z
x,x-y,1/2+z
-y,-x,1/2+z
y,x,z
x-y,-y,z
-x,-x+y,z
loop_
_atom_site_type_symbol
_atom_site_label
_atom_site_fract_x
_atom_site_fract_y
_atom_site_fract_z
Si Si1 0.320639 0.497656 0.250000
Si Si2 0.540880 0.902124 0.378252
Si Si3 0.506661 0.162701 0.389664
Si Si4 0.505905 0.165107 0.250000
Si Si5 0.264386 0.901053 0.003571
Si Si6 0.666668 0.333334 0.423309
O O1 0.306545 0.451221 0.316443
O O2 0.418793 0.564612 0.250000
O O3 0.265139 0.542199 0.250000
O O4 0.444588 0.874705 0.395395
O O5 0.586531 0.890859 0.438472
O O6 0.586685 0.000000 0.361730
O O7 0.465949 0.138539 0.319326
O O8 0.434074 0.128581 0.441543
O O9 0.573914 0.262700 0.399208
O O10 0.295450 0.000000 0.011333
O O11 0.164794 0.835207 0.000000
O O12 0.666668 0.333334 0.500000
#
# Coordination Sequence:
#
# PCOD9588917 Si02
#       6
#    12  24  24  12  24   8
#     4  10  18  30  44  65  97 130 173 213 245 283
#     4  10  20  32  49  71  98 134 171 209 251 291
#     4  11  20  32  48  71 104 138 176 213 244 285
#     4  10  19  28  44  65  93 134 174 211 249 283
#     4  11  22  37  55  74  97 125 160 203 252 305
#     4  12  21  28  47  73 102 141 184 221 250 283
#
# _framework density 16.931007999999999
#
# number of rings (size 3 to 8) (size 9 to 14) (size 15 to 20)
#    0.000    1.385    0.000    9.577    0.000    1.846 
#    0.000    1.731    0.000    0.231    0.000    0.000 
#    0.000    0.000    0.000    0.000    0.000   17.769 
#
# Total GULP energy -580095.987356 kJ/mol
# GULP energy per Si atom -5577.846032 kJ/mol
# Density = 1.689247 g / cm^3
# Si number density = 16.931008 Si / 1000 Ang^3
#
#
#
# Elastic Constant Matrix: (Units=GPa)
#
#
# Indices 1 2 3 4 5 6 
#
# 1 76.0270 36.9514 29.4369 0.0000 0.0000 0.0000
# 2 36.9514 76.0271 29.4366 -0.0001 0.0000 -0.0001
# 3 29.4369 29.4366 117.5579 0.0000 0.0000 -0.0001
# 4 0.0000 -0.0001 0.0000 15.9011 0.0000 0.0000
# 5 0.0000 0.0000 0.0000 0.0000 15.9010 0.0000
# 6 0.0000 -0.0001 -0.0001 0.0000 0.0000 19.5379
#
#
#
# Elastic Compliance Matrix: (Units=1/GPa)
#
#
# Indices 1 2 3 4 5 6 
#
# 1 0.017885 -0.007706 -0.002549 0.000000 0.000000 0.000000
# 2 -0.007706 0.017885 -0.002549 0.000000 0.000000 0.000000
# 3 -0.002549 -0.002549 0.009783 0.000000 0.000000 0.000000
# 4 0.000000 0.000000 0.000000 0.062889 0.000000 0.000000
# 5 0.000000 0.000000 0.000000 0.000000 0.062889 0.000000
# 6 0.000000 0.000000 0.000000 0.000000 0.000000 0.051183
#
#
# Mechanical properties :
#
#
# Convention : Reuss Voigt Hill
#
# Bulk Modulus (GPa) = 50.13501 51.25130 50.69316
# Shear Modulus (GPa) = 19.62550 21.85381 20.73965
#
# Velocity S-wave (km/s) = 3.40832 3.59661 3.50373
# Velocity P-wave (km/s) = 6.72045 6.89810 6.80986
#
# Compressibility (1/GPa) = 0.01994614
#
# Stress axis : x y z
#
# Youngs Moduli (GPa) = 55.91131 55.91144 102.21827
#
# Poissons Ratio (x) = 0.43085 0.26056
# Poissons Ratio (y) = 0.43085 0.26055
# Poissons Ratio (z) = 0.14252 0.14252
#
# Static dielectric constant tensor:
#      x y z
#    x 1.582930 0.000000 0.000000 
#    y 0.000000 1.582930 0.000000 
#    z 0.000000 0.000000 1.637870 
# 
# From -- ./inp_files/6330.got.cif
#   From: 2010.05.17/outbox.cif.g08.bks.cpg/sg193_4_cif.got.tgz:6330.got - 2010.05.20 12:33:02.
