data_PCOD9588004
_publ_section_title
;
Structure prediction by ZEFSAII (Michael W. Deem and Ramdas Pophale) SiO2 
 PCOD9588004
Probable space group: P 6/M M M
;
_chemical_formula_sum "Si O2"
_cell_formula_units_Z 144
_cell_length_a 22.140251
_cell_length_b 22.140251
_cell_length_c 20.518228
_cell_angle_alpha 90.000000
_cell_angle_beta 90.000000
_cell_angle_gamma 120.000000
_cell_volume 8710.349139
_symmetry_space_group_name_H-M "P 6/M M M"
_symmetry_group_IT_number 191
_symmetry_cell_setting 'hexagonal'
loop_
_space_group_symop_operation_xyz
x,y,z
x-y,x,z
-y,x-y,z
-x,-y,z
-x+y,-x,z
y,-x+y,z
x-y,-y,-z
-x,-x+y,-z
y,x,-z
-y,-x,-z
-x+y,y,-z
x,x-y,-z
-x,-y,-z
-x+y,-x,-z
y,-x+y,-z
x,y,-z
x-y,x,-z
-y,x-y,-z
-x+y,y,z
x,x-y,z
-y,-x,z
y,x,z
x-y,-y,z
-x,-x+y,z
loop_
_atom_site_type_symbol
_atom_site_label
_atom_site_fract_x
_atom_site_fract_y
_atom_site_fract_z
Si Si1 0.579519 0.861569 0.925559
Si Si2 0.000000 0.719602 0.885841
Si Si3 0.860588 0.000000 0.732315
Si Si4 0.419249 0.281438 0.311418
Si Si5 0.666440 0.189610 0.190979
Si Si6 0.279832 0.000000 0.271862
Si Si7 0.524635 0.333775 0.576812
Si Si8 0.139882 0.000000 0.891176
O O1 0.592331 0.796166 0.917729
O O2 0.650956 0.931620 0.910376
O O3 0.519992 0.848330 0.873925
O O4 0.558136 0.862172 0.000000
O O5 0.000000 0.717860 0.807058
O O6 0.000000 0.789398 0.908685
O O7 0.861144 0.000000 0.811743
O O8 0.930290 0.069710 0.711346
O O9 0.791055 0.000000 0.710874
O O10 0.405399 0.202700 0.312132
O O11 0.472639 0.320008 0.252146
O O12 0.347715 0.279907 0.298534
O O13 0.459888 0.318184 0.377582
O O14 0.594148 0.188296 0.196194
O O15 0.731106 0.268895 0.189489
O O16 0.510063 0.334328 0.500000
O O17 0.539217 0.269609 0.587794
O O18 0.593607 0.406394 0.593235
O O19 0.070145 0.929856 0.912630
#
# Coordination Sequence:
#
# PCOD9588004 Si02
#       8
#    24  12  12  24  24  12  24  12
#     4  10  21  36  53  74 100 128 164 213 262 310
#     4  11  19  33  53  72  96 134 178 213 250 303
#     4   9  17  28  46  73 105 136 168 209 257 303
#     4  10  20  34  52  76 107 139 173 213 254 299
#     4  10  20  35  55  77 100 127 162 207 260 312
#     4  11  20  32  51  74 101 140 181 213 249 303
#     4   9  17  31  53  80 108 139 176 218 262 307
#     4   9  17  27  45  73 104 133 163 204 253 302
#
# _framework density 16.532059
#
# number of rings (size 3 to 8) (size 9 to 14) (size 15 to 20)
#    0.000    2.167    1.667    2.250    0.000    3.000 
#    0.000    5.000    0.000    3.000    0.000    0.000 
#    0.000    4.000    0.000    0.500    0.000   15.417 
#
# Total GULP energy -803590.672469 kJ/mol
# GULP energy per Si atom -5580.490781 kJ/mol
# Density = 1.649443 g / cm^3
# Si number density = 16.532059 Si / 1000 Ang^3
#
#
#
# Elastic Constant Matrix: (Units=GPa)
#
#
# Indices 1 2 3 4 5 6 
#
# 1 122.6556 75.6498 43.6973 0.0000 0.0000 0.0000
# 2 75.6498 122.6556 43.6973 0.0000 0.0000 0.0000
# 3 43.6973 43.6973 64.5127 0.0000 0.0000 0.0000
# 4 0.0000 0.0000 0.0000 16.6011 0.0000 0.0000
# 5 0.0000 0.0000 0.0000 0.0000 16.6011 0.0000
# 6 0.0000 0.0000 0.0000 0.0000 0.0000 23.5029
#
#
#
# Elastic Compliance Matrix: (Units=1/GPa)
#
#
# Indices 1 2 3 4 5 6 
#
# 1 0.014231 -0.007043 -0.004869 0.000000 0.000000 0.000000
# 2 -0.007043 0.014231 -0.004869 0.000000 0.000000 0.000000
# 3 -0.004869 -0.004869 0.022097 0.000000 0.000000 0.000000
# 4 0.000000 0.000000 0.000000 0.060237 0.000000 0.000000
# 5 0.000000 0.000000 0.000000 0.000000 0.060237 0.000000
# 6 0.000000 0.000000 0.000000 0.000000 0.000000 0.042548
#
#
# Mechanical properties :
#
#
# Convention : Reuss Voigt Hill
#
# Bulk Modulus (GPa) = 58.83186 70.65696 64.74441
# Shear Modulus (GPa) = 19.77774 21.12632 20.45203
#
# Velocity S-wave (km/s) = 3.46255 3.57865 3.52108
# Velocity P-wave (km/s) = 7.18675 7.74001 7.46851
#
# Compressibility (1/GPa) = 0.01699759
#
# Stress axis : x y z
#
# Youngs Moduli (GPa) = 70.26773 70.26773 45.25499
#
# Poissons Ratio (x) = 0.49487 0.22035
# Poissons Ratio (y) = 0.49487 0.22035
# Poissons Ratio (z) = 0.34214 0.34214
#
# Static dielectric constant tensor:
#      x y z
#    x 1.530990 0.000000 0.000000 
#    y 0.000000 1.530990 0.000000 
#    z 0.000000 0.000000 1.560480 
# 
# From -- ./inp_files/7708.got.cif
#   From: 2010.05.17/outbox.cif.g08.bks.cpg/sg191_4_cif.got.tgz:7708.got - 2010.05.20 12:20:32.
