data_PCOD9588005
_publ_section_title
;
Structure prediction by ZEFSAII (Michael W. Deem and Ramdas Pophale) SiO2 
 PCOD9588005
Probable space group: P 6/M M M
;
_chemical_formula_sum "Si O2"
_cell_formula_units_Z 72
_cell_length_a 23.570720
_cell_length_b 23.570720
_cell_length_c 7.390271
_cell_angle_alpha 90.000000
_cell_angle_beta 90.000000
_cell_angle_gamma 120.000000
_cell_volume 3555.794825
_symmetry_space_group_name_H-M "P 6/M M M"
_symmetry_group_IT_number 191
_symmetry_cell_setting 'hexagonal'
loop_
_space_group_symop_operation_xyz
x,y,z
x-y,x,z
-y,x-y,z
-x,-y,z
-x+y,-x,z
y,-x+y,z
x-y,-y,-z
-x,-x+y,-z
y,x,-z
-y,-x,-z
-x+y,y,-z
x,x-y,-z
-x,-y,-z
-x+y,-x,-z
y,-x+y,-z
x,y,-z
x-y,x,-z
-y,x-y,-z
-x+y,y,z
x,x-y,z
-y,-x,z
y,x,z
x-y,-y,z
-x,-x+y,z
loop_
_atom_site_type_symbol
_atom_site_label
_atom_site_fract_x
_atom_site_fract_y
_atom_site_fract_z
Si Si1 0.706413 0.107572 0.792748
Si Si2 0.543618 0.333313 0.282487
Si Si3 0.000000 0.436030 0.779814
Si Si4 0.920069 0.211543 0.500000
O O1 0.704715 0.174434 0.787707
O O2 0.632706 0.060330 0.724085
O O3 0.756898 0.098358 0.669887
O O4 0.713136 0.091603 0.000000
O O5 0.539124 0.336137 0.500000
O O6 0.573423 0.286712 0.241760
O O7 0.592856 0.407145 0.216843
O O8 0.000000 0.500000 0.712690
O O9 0.000000 0.438690 0.000000
O O10 0.867228 0.132773 0.500000
O O11 0.000000 0.240132 0.500000
#
# Coordination Sequence:
#
# PCOD9588005 Si02
#       4
#    24  24  12  12
#     4  11  22  39  62  91 125 161 207 259 311 364
#     4  10  20  34  52  77 113 162 219 276 328 374
#     4   9  18  33  55  85 124 167 209 255 306 361
#     4  12  26  46  70  99 130 160 196 240 300 375
#
# _framework density 20.248638
#
# number of rings (size 3 to 8) (size 9 to 14) (size 15 to 20)
#    0.000    1.500    3.333    2.333    0.000    6.000 
#    0.000    0.833    0.000    2.167    0.000    0.000 
#    0.000    0.000    0.000    3.000    0.000    0.000 
#
# Total GULP energy -401641.750963 kJ/mol
# GULP energy per Si atom -5578.357652 kJ/mol
# Density = 2.020255 g / cm^3
# Si number density = 20.248638 Si / 1000 Ang^3
#
#
#
# Elastic Constant Matrix: (Units=GPa)
#
#
# Indices 1 2 3 4 5 6 
#
# 1 118.3183 57.1148 17.3352 0.0000 0.0000 0.0000
# 2 57.1148 118.3183 17.3352 0.0000 0.0000 0.0000
# 3 17.3352 17.3352 102.9846 0.0000 0.0000 0.0000
# 4 0.0000 0.0000 0.0000 12.6464 0.0000 0.0000
# 5 0.0000 0.0000 0.0000 0.0000 12.6464 0.0000
# 6 0.0000 0.0000 0.0000 0.0000 0.0000 30.6017
#
#
#
# Elastic Compliance Matrix: (Units=1/GPa)
#
#
# Indices 1 2 3 4 5 6 
#
# 1 0.011118 -0.005221 -0.000993 0.000000 0.000000 0.000000
# 2 -0.005221 0.011118 -0.000993 0.000000 0.000000 0.000000
# 3 -0.000993 -0.000993 0.010044 0.000000 0.000000 0.000000
# 4 0.000000 0.000000 0.000000 0.079074 0.000000 0.000000
# 5 0.000000 0.000000 0.000000 0.000000 0.079074 0.000000
# 6 0.000000 0.000000 0.000000 0.000000 0.000000 0.032678
#
#
# Mechanical properties :
#
#
# Convention : Reuss Voigt Hill
#
# Bulk Modulus (GPa) = 55.96937 58.13239 57.05088
# Shear Modulus (GPa) = 20.53609 27.70129 24.11869
#
# Velocity S-wave (km/s) = 3.18810 3.70274 3.45501
# Velocity P-wave (km/s) = 6.42285 6.85944 6.64473
#
# Compressibility (1/GPa) = 0.01786691
#
# Stress axis : x y z
#
# Youngs Moduli (GPa) = 89.94715 89.94715 99.55868
#
# Poissons Ratio (x) = 0.46964 0.09881
# Poissons Ratio (y) = 0.46964 0.09881
# Poissons Ratio (z) = 0.08927 0.08927
#
# Static dielectric constant tensor:
#      x y z
#    x 2.253440 0.000000 0.000000 
#    y 0.000000 2.253440 0.000000 
#    z 0.000000 0.000000 1.770720 
# 
# From -- ./inp_files/946.got.cif
#   From: 2010.05.17/outbox.cif.g08.bks.cpg/sg191_1_cif.got.tgz:946.got - 2010.05.20 12:20:32.
