data_PCOD9588768
_publ_section_title
;
Structure prediction by ZEFSAII (Michael W. Deem and Ramdas Pophale) SiO2 
 PCOD9588768
Probable space group: P 6/M C C
;
_chemical_formula_sum "Si O2"
_cell_formula_units_Z 60
_cell_length_a 10.354782
_cell_length_b 10.354782
_cell_length_c 28.501253
_cell_angle_alpha 90.000000
_cell_angle_beta 90.000000
_cell_angle_gamma 120.000000
_cell_volume 2646.528073
_symmetry_space_group_name_H-M "P 6/M C C"
_symmetry_group_IT_number 192
_symmetry_cell_setting 'hexagonal'
loop_
_space_group_symop_operation_xyz
x,y,z
x-y,x,z
-y,x-y,z
-x,-y,z
-x+y,-x,z
y,-x+y,z
x-y,-y,1/2-z
-x,-x+y,1/2-z
y,x,1/2-z
-y,-x,1/2-z
-x+y,y,1/2-z
x,x-y,1/2-z
-x,-y,-z
-x+y,-x,-z
y,-x+y,-z
x,y,-z
x-y,x,-z
-y,x-y,-z
-x+y,y,1/2+z
x,x-y,1/2+z
-y,-x,1/2+z
y,x,1/2+z
x-y,-y,1/2+z
-x,-x+y,1/2+z
loop_
_atom_site_type_symbol
_atom_site_label
_atom_site_fract_x
_atom_site_fract_y
_atom_site_fract_z
Si Si1 0.698449 0.000000 0.250000
Si Si2 0.342909 0.093991 0.898615
Si Si3 0.518362 0.701768 0.500000
Si Si4 0.500000 0.500000 0.833064
O O1 0.628082 0.032883 0.204365
O O2 0.857790 0.142211 0.250000
O O3 0.288102 0.212125 0.889038
O O4 0.390662 0.114156 0.952888
O O5 0.483800 0.114689 0.867843
O O6 0.455330 0.818048 0.500000
#
# Coordination Sequence:
#
# PCOD9588768 Si02
#       4
#    12  24  12  12
#     4  11  25  52  80 110 141 183 242 302 370 443
#     4  12  25  46  73 107 147 196 252 310 369 433
#     4  10  24  44  72 105 152 200 251 310 366 441
#     4  11  26  45  68 110 146 187 230 293 374 448
#
# _framework density 22.671213999999999
#
# number of rings (size 3 to 8) (size 9 to 14) (size 15 to 20)
#    0.400    0.400    0.000    6.600    0.000    2.400 
#   33.600    6.000    0.000    0.000    0.000    0.000 
#    0.000    0.000    0.000    0.000    0.000    0.000 
#
# Total GULP energy -335039.565748 kJ/mol
# GULP energy per Si atom -5583.992762 kJ/mol
# Density = 2.261961 g / cm^3
# Si number density = 22.671214 Si / 1000 Ang^3
#
#
#
# Elastic Constant Matrix: (Units=GPa)
#
#
# Indices 1 2 3 4 5 6 
#
# 1 -11.5278 243.9368 60.3068 0.0000 0.0000 0.0000
# 2 243.9368 -11.5278 60.3068 0.0000 0.0000 0.0000
# 3 60.3068 60.3068 168.8203 0.0000 0.0000 0.0000
# 4 0.0000 0.0000 0.0000 31.8713 0.0000 0.0000
# 5 0.0000 0.0000 0.0000 0.0000 31.8713 0.0000
# 6 0.0000 0.0000 0.0000 0.0000 0.0000 -127.7323
#
#
#
# Elastic Compliance Matrix: (Units=1/GPa)
#
#
# Indices 1 2 3 4 5 6 
#
# 1 0.000684 0.004598 -0.001887 0.000000 0.000000 0.000000
# 2 0.004598 0.000684 -0.001887 0.000000 0.000000 0.000000
# 3 -0.001887 -0.001887 0.007272 0.000000 0.000000 0.000000
# 4 0.000000 0.000000 0.000000 0.031376 0.000000 0.000000
# 5 0.000000 0.000000 0.000000 0.000000 0.031376 0.000000
# 6 0.000000 0.000000 0.000000 0.000000 0.000000 -0.007829
#
#
# Mechanical properties :
#
#
# Convention : Reuss Voigt Hill
#
# Bulk Modulus (GPa) = 97.20002 97.20730 97.20366
# Shear Modulus (GPa) = 76.51936 -27.38367 24.56785
#
# Velocity S-wave (km/s) = 5.81593 -3.47920 3.29547
# Velocity P-wave (km/s) = 9.38440 5.17980 7.57948
#
# Compressibility (1/GPa) = 0.01028806
#
# Stress axis : x y z
#
# Youngs Moduli (GPa) = 1462.47167 1462.47167 137.52276
#
# Poissons Ratio (x) = -6.72475 0.25949
# Poissons Ratio (y) = -6.72475 0.25949
# Poissons Ratio (z) = 2.75947 2.75947
#
# Static dielectric constant tensor:
#      x y z
#    x 1.850170 0.000000 0.000000 
#    y 0.000000 1.850170 0.000000 
#    z 0.000000 0.000000 1.780280 
# 
# From -- ./inp_files/6253.got.cif
#   From: 2010.05.17/outbox.cif.g08.bks.cpg/sg192_4_cif.got.tgz:6253.got - 2010.05.20 12:28:01.
