data_PCOD9588664
_publ_section_title
;
Structure prediction by ZEFSAII (Michael W. Deem and Ramdas Pophale) SiO2 
 PCOD9588664
Probable space group: P 6/M C C
;
_chemical_formula_sum "Si O2"
_cell_formula_units_Z 144
_cell_length_a 32.082399
_cell_length_b 32.082399
_cell_length_c 8.671458
_cell_angle_alpha 90.000000
_cell_angle_beta 90.000000
_cell_angle_gamma 120.000000
_cell_volume 7729.589462
_symmetry_space_group_name_H-M "P 6/M C C"
_symmetry_group_IT_number 192
_symmetry_cell_setting 'hexagonal'
loop_
_space_group_symop_operation_xyz
x,y,z
x-y,x,z
-y,x-y,z
-x,-y,z
-x+y,-x,z
y,-x+y,z
x-y,-y,1/2-z
-x,-x+y,1/2-z
y,x,1/2-z
-y,-x,1/2-z
-x+y,y,1/2-z
x,x-y,1/2-z
-x,-y,-z
-x+y,-x,-z
y,-x+y,-z
x,y,-z
x-y,x,-z
-y,x-y,-z
-x+y,y,1/2+z
x,x-y,1/2+z
-y,-x,1/2+z
y,x,1/2+z
x-y,-y,1/2+z
-x,-x+y,1/2+z
loop_
_atom_site_type_symbol
_atom_site_label
_atom_site_fract_x
_atom_site_fract_y
_atom_site_fract_z
Si Si1 0.666726 0.240341 0.684348
Si Si2 0.331778 0.851562 0.185015
Si Si3 0.478952 0.427922 0.184630
Si Si4 0.711167 0.762470 0.684854
Si Si5 0.386946 0.239570 0.684805
Si Si6 0.803546 0.855766 0.815438
O O1 0.716094 0.283907 0.750000
O O2 0.622321 0.244642 0.750000
O O3 0.666993 0.242607 0.500000
O O4 0.661720 0.190292 0.739325
O O5 0.376729 0.903688 0.226614
O O6 0.282595 0.847551 0.242648
O O7 0.330859 0.846446 0.000000
O O8 0.437999 0.437999 0.250000
O O9 0.529250 0.470751 0.250000
O O10 0.479807 0.431921 0.000000
O O11 0.721954 0.721954 0.750000
O O12 0.717394 0.765378 0.500000
O O13 0.658757 0.754136 0.721707
O O14 0.751974 0.812591 0.757621
O O15 0.378398 0.189199 0.750000
O O16 0.391881 0.240025 0.500000
O O17 0.842047 0.842047 0.750000
O O18 0.811168 0.905584 0.750000
O O19 0.804487 0.856276 0.000000
#
# Coordination Sequence:
#
# PCOD9588664 Si02
#       6
#    24  24  24  24  24  24
#     4  12  25  43  66  92 122 154 191 236 287 344
#     4  11  24  41  61  87 118 155 196 239 288 341
#     4  10  21  37  60  87 116 150 189 235 285 337
#     4  10  21  37  58  85 115 150 192 239 291 343
#     4  11  24  40  59  83 114 154 195 237 286 341
#     4  11  21  35  56  83 114 149 190 237 289 343
#
# _framework density 18.629708000000001
#
# number of rings (size 3 to 8) (size 9 to 14) (size 15 to 20)
#    0.000    1.167    0.000    8.167    0.000    8.667 
#    0.000    3.333    0.000    0.167    0.000    1.167 
#    0.000    0.000    0.000    0.000    0.000    0.000 
#
# Total GULP energy -805566.108986 kJ/mol
# GULP energy per Si atom -5594.209090 kJ/mol
# Density = 1.858731 g / cm^3
# Si number density = 18.629708 Si / 1000 Ang^3
#
#
#
# Elastic Constant Matrix: (Units=GPa)
#
#
# Indices 1 2 3 4 5 6 
#
# 1 109.1335 52.7729 50.9481 0.0000 0.0000 0.0000
# 2 52.7729 109.1335 50.9481 0.0000 0.0000 0.0000
# 3 50.9481 50.9481 113.6068 0.0000 0.0000 0.0000
# 4 0.0000 0.0000 0.0000 32.4413 0.0000 0.0000
# 5 0.0000 0.0000 0.0000 0.0000 32.4413 0.0000
# 6 0.0000 0.0000 0.0000 0.0000 0.0000 28.1803
#
#
#
# Elastic Compliance Matrix: (Units=1/GPa)
#
#
# Indices 1 2 3 4 5 6 
#
# 1 0.013174 -0.004569 -0.003859 0.000000 0.000000 0.000000
# 2 -0.004569 0.013174 -0.003859 0.000000 0.000000 0.000000
# 3 -0.003859 -0.003859 0.012264 0.000000 0.000000 0.000000
# 4 0.000000 0.000000 0.000000 0.030825 0.000000 0.000000
# 5 0.000000 0.000000 0.000000 0.000000 0.030825 0.000000
# 6 0.000000 0.000000 0.000000 0.000000 0.000000 0.035486
#
#
# Mechanical properties :
#
#
# Convention : Reuss Voigt Hill
#
# Bulk Modulus (GPa) = 71.23736 71.24577 71.24156
# Shear Modulus (GPa) = 30.30296 30.42622 30.36459
#
# Velocity S-wave (km/s) = 4.03748 4.04568 4.04158
# Velocity P-wave (km/s) = 7.74962 7.75561 7.75262
#
# Compressibility (1/GPa) = 0.01403758
#
# Stress axis : x y z
#
# Youngs Moduli (GPa) = 75.90702 75.90702 81.54245
#
# Poissons Ratio (x) = 0.34681 0.31468
# Poissons Ratio (y) = 0.34681 0.31468
# Poissons Ratio (z) = 0.29293 0.29293
#
# Static dielectric constant tensor:
#      x y z
#    x 1.619210 0.000000 0.000000 
#    y 0.000000 1.619210 0.000000 
#    z 0.000000 0.000000 1.623810 
# 
# From -- ./inp_files/1215.got.cif
#   From: 2010.05.17/outbox.cif.g08.bks.cpg/sg192_1_cif.got.tgz:1215.got - 2010.05.20 12:28:01.
