data_PCOD9588176
_publ_section_title
;
Structure prediction by ZEFSAII (Michael W. Deem and Ramdas Pophale) SiO2 
 PCOD9588176
Probable space group: P 6/M M M
;
_chemical_formula_sum "Si O2"
_cell_formula_units_Z 60
_cell_length_a 17.157852
_cell_length_b 17.157852
_cell_length_c 10.894180
_cell_angle_alpha 90.000000
_cell_angle_beta 90.000000
_cell_angle_gamma 120.000000
_cell_volume 2777.480465
_symmetry_space_group_name_H-M "P 6/M M M"
_symmetry_group_IT_number 191
_symmetry_cell_setting 'hexagonal'
loop_
_space_group_symop_operation_xyz
x,y,z
x-y,x,z
-y,x-y,z
-x,-y,z
-x+y,-x,z
y,-x+y,z
x-y,-y,-z
-x,-x+y,-z
y,x,-z
-y,-x,-z
-x+y,y,-z
x,x-y,-z
-x,-y,-z
-x+y,-x,-z
y,-x+y,-z
x,y,-z
x-y,x,-z
-y,x-y,-z
-x+y,y,z
x,x-y,z
-y,-x,z
y,x,z
x-y,-y,z
-x,-x+y,z
loop_
_atom_site_type_symbol
_atom_site_label
_atom_site_fract_x
_atom_site_fract_y
_atom_site_fract_z
Si Si1 0.851089 0.334863 0.272618
Si Si2 0.000000 0.699762 0.367119
Si Si3 0.000000 0.813623 0.864383
Si Si4 0.488178 0.334535 0.000000
O O1 0.851564 0.425782 0.307780
O O2 0.749623 0.250377 0.270406
O O3 0.913223 0.312179 0.355144
O O4 0.890564 0.348952 0.132949
O O5 0.000000 0.756923 0.251300
O O6 0.000000 0.739702 0.500000
O O7 0.910900 0.821800 0.859174
O O8 0.000000 0.773917 0.000000
O O9 0.595856 0.404145 0.000000
O O10 0.465574 0.232787 0.000000
#
# Coordination Sequence:
#
# PCOD9588176 Si02
#       4
#    24  12  12  12
#     4  10  21  38  62  90 125 169 220 272 325 383
#     4  12  27  43  60  92 137 176 212 263 325 383
#     4  10  23  45  75 105 132 163 206 259 315 379
#     4   8  15  29  53  85 116 148 194 257 320 373
#
# _framework density 21.602311
#
# number of rings (size 3 to 8) (size 9 to 14) (size 15 to 20)
#    0.000    2.000    0.000    2.600    2.800    8.800 
#    0.000    3.000    0.000    3.600    0.000    0.000 
#    0.000    0.000    0.000    0.000    0.000    0.000 
#
# Total GULP energy -335057.472870 kJ/mol
# GULP energy per Si atom -5584.291214 kJ/mol
# Density = 2.155314 g / cm^3
# Si number density = 21.602311 Si / 1000 Ang^3
#
#
#
# Elastic Constant Matrix: (Units=GPa)
#
#
# Indices 1 2 3 4 5 6 
#
# 1 92.4812 32.6372 50.0573 0.0000 0.0000 0.0000
# 2 32.6372 92.4812 50.0573 0.0000 0.0000 0.0000
# 3 50.0573 50.0573 152.6401 0.0000 0.0000 0.0000
# 4 0.0000 0.0000 0.0000 -21.3961 0.0000 0.0000
# 5 0.0000 0.0000 0.0000 0.0000 -21.3961 0.0000
# 6 0.0000 0.0000 0.0000 0.0000 0.0000 29.9220
#
#
#
# Elastic Compliance Matrix: (Units=1/GPa)
#
#
# Indices 1 2 3 4 5 6 
#
# 1 0.013773 -0.002937 -0.003554 0.000000 0.000000 0.000000
# 2 -0.002937 0.013773 -0.003554 0.000000 0.000000 0.000000
# 3 -0.003554 -0.003554 0.008882 0.000000 0.000000 0.000000
# 4 0.000000 0.000000 0.000000 -0.046738 0.000000 0.000000
# 5 0.000000 0.000000 0.000000 0.000000 -0.046738 0.000000
# 6 0.000000 0.000000 0.000000 0.000000 0.000000 0.033420
#
#
# Mechanical properties :
#
#
# Convention : Reuss Voigt Hill
#
# Bulk Modulus (GPa) = 61.20107 67.01179 64.10643
# Shear Modulus (GPa) = 2620.40261 11.08268 1315.74264
#
# Velocity S-wave (km/s) = 34.86622 2.26748 24.70622
# Velocity P-wave (km/s) = 40.61112 6.15981 29.04485
#
# Compressibility (1/GPa) = 0.01633958
#
# Stress axis : x y z
#
# Youngs Moduli (GPa) = 72.60595 72.60595 112.58623
#
# Poissons Ratio (x) = 0.21325 0.40008
# Poissons Ratio (y) = 0.21325 0.40008
# Poissons Ratio (z) = 0.25801 0.25801
#
# Static dielectric constant tensor:
#      x y z
#    x 1.759560 0.000000 0.000000 
#    y 0.000000 1.759560 0.000000 
#    z 0.000000 0.000000 1.842030 
# 
# From -- ./inp_files/2249.got.cif
#   From: 2010.05.17/outbox.cif.g08.bks.cpg/sg191_2_cif.got.tgz:2249.got - 2010.05.20 12:20:32.
