data_PCOD9588289
_publ_section_title
;
Structure prediction by ZEFSAII (Michael W. Deem and Ramdas Pophale) SiO2 
 PCOD9588289
Probable space group: P 6/M C C
;
_chemical_formula_sum "Si O2"
_cell_formula_units_Z 66
_cell_length_a 15.650733
_cell_length_b 15.650733
_cell_length_c 17.327307
_cell_angle_alpha 90.000000
_cell_angle_beta 90.000000
_cell_angle_gamma 120.000000
_cell_volume 3675.623900
_symmetry_space_group_name_H-M "P 6/M C C"
_symmetry_group_IT_number 192
_symmetry_cell_setting 'hexagonal'
loop_
_space_group_symop_operation_xyz
x,y,z
x-y,x,z
-y,x-y,z
-x,-y,z
-x+y,-x,z
y,-x+y,z
x-y,-y,1/2-z
-x,-x+y,1/2-z
y,x,1/2-z
-y,-x,1/2-z
-x+y,y,1/2-z
x,x-y,1/2-z
-x,-y,-z
-x+y,-x,-z
y,-x+y,-z
x,y,-z
x-y,x,-z
-y,x-y,-z
-x+y,y,1/2+z
x,x-y,1/2+z
-y,-x,1/2+z
y,x,1/2+z
x-y,-y,1/2+z
-x,-x+y,1/2+z
loop_
_atom_site_type_symbol
_atom_site_label
_atom_site_fract_x
_atom_site_fract_y
_atom_site_fract_z
Si Si1 0.295409 0.836454 0.500000
Si Si2 0.115273 0.482704 0.000000
Si Si3 0.369563 0.341838 0.632480
Si Si4 0.500000 0.000000 0.750000
Si Si5 0.205014 0.000000 0.750000
O O1 0.412518 0.878679 0.500000
O O2 0.226622 0.720942 0.500000
O O3 0.276430 0.881076 0.576800
O O4 0.058234 0.418935 0.075399
O O5 0.459319 0.405951 0.692488
O O6 0.270127 0.271677 0.678086
O O7 0.196755 0.098378 0.750000
#
# Coordination Sequence:
#
# PCOD9588289 Si02
#       5
#    12  12  24   6  12
#     4  11  20  35  56  84 116 151 194 237 286 336
#     4  11  20  35  56  84 116 151 194 237 286 336
#     4  10  20  36  59  81 107 156 192 238 280 348
#     4  10  16  34  58  76 110 138 202 232 280 328
#     4  11  23  39  59  86 114 148 189 245 301 351
#
# _framework density 17.956135
#
# number of rings (size 3 to 8) (size 9 to 14) (size 15 to 20)
#    0.000    1.455    3.636    3.818    0.000    0.000 
#    0.000    0.000    0.000    0.000    0.000   12.727 
#    0.000    0.000    0.000    0.000    0.000    0.000 
#
# Total GULP energy -367879.782875 kJ/mol
# GULP energy per Si atom -5573.936104 kJ/mol
# Density = 1.791527 g / cm^3
# Si number density = 17.956135 Si / 1000 Ang^3
#
#
#
# Elastic Constant Matrix: (Units=GPa)
#
#
# Indices 1 2 3 4 5 6 
#
# 1 111.3194 47.8642 43.2505 0.0000 0.0000 0.0000
# 2 47.8642 111.3194 43.2505 0.0000 0.0000 0.0000
# 3 43.2505 43.2505 115.4644 0.0000 0.0000 0.0000
# 4 0.0000 0.0000 0.0000 14.6220 0.0000 0.0000
# 5 0.0000 0.0000 0.0000 0.0000 14.6220 0.0000
# 6 0.0000 0.0000 0.0000 0.0000 0.0000 31.7276
#
#
#
# Elastic Compliance Matrix: (Units=1/GPa)
#
#
# Indices 1 2 3 4 5 6 
#
# 1 0.011823 -0.003936 -0.002955 0.000000 0.000000 0.000000
# 2 -0.003936 0.011823 -0.002955 0.000000 0.000000 0.000000
# 3 -0.002955 -0.002955 0.010874 0.000000 0.000000 0.000000
# 4 0.000000 0.000000 0.000000 0.068390 0.000000 0.000000
# 5 0.000000 0.000000 0.000000 0.000000 0.068390 0.000000
# 6 0.000000 0.000000 0.000000 0.000000 0.000000 0.031518
#
#
# Mechanical properties :
#
#
# Convention : Reuss Voigt Hill
#
# Bulk Modulus (GPa) = 67.42575 67.42597 67.42586
# Shear Modulus (GPa) = 21.98261 25.77686 23.87974
#
# Velocity S-wave (km/s) = 3.50271 3.79297 3.65073
# Velocity P-wave (km/s) = 7.34782 7.53751 7.44327
#
# Compressibility (1/GPa) = 0.01483113
#
# Stress axis : x y z
#
# Youngs Moduli (GPa) = 84.57841 84.57841 91.96197
#
# Poissons Ratio (x) = 0.33288 0.27170
# Poissons Ratio (y) = 0.33288 0.27170
# Poissons Ratio (z) = 0.24989 0.24989
#
# Static dielectric constant tensor:
#      x y z
#    x 1.590650 0.000000 0.000000 
#    y 0.000000 1.590650 0.000000 
#    z 0.000000 0.000000 1.642850 
# 
# From -- ./inp_files/3764.got.cif
#   From: 2010.05.17/outbox.cif.g08.bks.cpg/sg192_2_cif.got.tgz:3764.got - 2010.05.20 12:28:01.
