data_PCOD9588281
_publ_section_title
;
Structure prediction by ZEFSAII (Michael W. Deem and Ramdas Pophale) SiO2 
 PCOD9588281
Probable space group: P 6/M C C
;
_chemical_formula_sum "Si O2"
_cell_formula_units_Z 152
_cell_length_a 26.091088
_cell_length_b 26.091088
_cell_length_c 15.082836
_cell_angle_alpha 90.000000
_cell_angle_beta 90.000000
_cell_angle_gamma 120.000000
_cell_volume 8891.970633
_symmetry_space_group_name_H-M "P 6/M C C"
_symmetry_group_IT_number 192
_symmetry_cell_setting 'hexagonal'
loop_
_space_group_symop_operation_xyz
x,y,z
x-y,x,z
-y,x-y,z
-x,-y,z
-x+y,-x,z
y,-x+y,z
x-y,-y,1/2-z
-x,-x+y,1/2-z
y,x,1/2-z
-y,-x,1/2-z
-x+y,y,1/2-z
x,x-y,1/2-z
-x,-y,-z
-x+y,-x,-z
y,-x+y,-z
x,y,-z
x-y,x,-z
-y,x-y,-z
-x+y,y,1/2+z
x,x-y,1/2+z
-y,-x,1/2+z
y,x,1/2+z
x-y,-y,1/2+z
-x,-x+y,1/2+z
loop_
_atom_site_type_symbol
_atom_site_label
_atom_site_fract_x
_atom_site_fract_y
_atom_site_fract_z
Si Si1 0.523083 0.702107 0.391499
Si Si2 0.813362 0.064887 0.750000
Si Si3 0.820969 0.297887 0.608501
Si Si4 0.346160 0.110931 0.600569
Si Si5 0.666668 0.333334 0.856096
Si Si6 0.235232 0.346159 0.100569
Si Si7 0.597343 0.402658 0.603929
O O1 0.522548 0.702520 0.500000
O O2 0.514852 0.757423 0.363582
O O3 0.588594 0.716173 0.366435
O O4 0.467958 0.640963 0.359480
O O5 0.880452 0.119549 0.750000
O O6 0.779814 0.072631 0.834247
O O7 0.779813 0.072629 0.665754
O O8 0.804938 0.000000 0.750000
O O9 0.820021 0.297474 0.500000
O O10 0.872416 0.283823 0.633565
O O11 0.826988 0.359031 0.640520
O O12 0.336766 0.087952 0.500000
O O13 0.350036 0.175020 0.597510
O O14 0.666668 0.333334 0.750000
O O15 0.632965 0.367041 0.888618
O O16 0.248815 0.336764 0.000000
O O17 0.589546 0.179095 0.500000
#
# Coordination Sequence:
#
# PCOD9588281 Si02
#       7
#    24  24  24  24   8  24  24
#     4   8  13  22  39  59  79 111 157 201 241 288
#     4  10  20  34  54  80 103 127 151 175 213 259
#     4   8  13  22  39  59  79 111 157 201 241 288
#     4   8  15  29  46  68  97 125 157 197 234 268
#     4  12  22  26  22  48  88 116 157 207 259 311
#     4   8  15  29  46  68  97 125 157 197 234 268
#     4  10  16  26  40  50  72 119 164 197 245 306
#
# _framework density 17.094073999999999
#
# number of rings (size 3 to 8) (size 9 to 14) (size 15 to 20)
#    0.000    3.158    1.579    2.368    0.000    0.632 
#    2.842    0.000    0.000    0.158    0.000    2.211 
#    0.000    6.316    0.000    7.895    0.000    0.000 
#
# Total GULP energy -846570.507650 kJ/mol
# GULP energy per Si atom -5569.542813 kJ/mol
# Density = 1.705517 g / cm^3
# Si number density = 17.094074 Si / 1000 Ang^3
#
#
#
# Elastic Constant Matrix: (Units=GPa)
#
#
# Indices 1 2 3 4 5 6 
#
# 1 73.3874 46.0086 20.5259 0.0000 0.0000 -0.0001
# 2 46.0086 73.3874 20.5258 0.0001 0.0000 0.0001
# 3 20.5259 20.5258 60.4753 0.0000 0.0000 0.0000
# 4 0.0000 0.0001 0.0000 8.1669 0.0000 0.0000
# 5 0.0000 0.0000 0.0000 0.0000 8.1669 0.0000
# 6 -0.0001 0.0001 0.0000 0.0000 0.0000 13.6892
#
#
#
# Elastic Compliance Matrix: (Units=1/GPa)
#
#
# Indices 1 2 3 4 5 6 
#
# 1 0.023003 -0.013521 -0.003218 0.000000 0.000000 0.000000
# 2 -0.013521 0.023003 -0.003218 0.000000 0.000000 0.000000
# 3 -0.003218 -0.003218 0.018720 0.000000 0.000000 0.000000
# 4 0.000000 0.000000 0.000000 0.122446 0.000000 0.000000
# 5 0.000000 0.000000 0.000000 0.000000 0.122445 0.000000
# 6 0.000000 0.000000 0.000000 0.000000 0.000000 0.073050
#
#
# Mechanical properties :
#
#
# Convention : Reuss Voigt Hill
#
# Bulk Modulus (GPa) = 40.30433 42.37451 41.33942
# Shear Modulus (GPa) = 11.60485 14.01725 12.81105
#
# Velocity S-wave (km/s) = 2.60836 2.86668 2.74057
# Velocity P-wave (km/s) = 5.71844 5.98331 5.85237
#
# Compressibility (1/GPa) = 0.02481123
#
# Stress axis : x y z
#
# Youngs Moduli (GPa) = 43.47197 43.47198 53.41797
#
# Poissons Ratio (x) = 0.58780 0.17192
# Poissons Ratio (y) = 0.58780 0.17191
# Poissons Ratio (z) = 0.13991 0.13990
#
# Static dielectric constant tensor:
#      x y z
#    x 1.575000 0.000000 0.000000 
#    y 0.000000 1.575000 0.000000 
#    z 0.000000 0.000000 1.638160 
# 
# From -- ./inp_files/3376.got.cif
#   From: 2010.05.17/outbox.cif.g08.bks.cpg/sg192_2_cif.got.tgz:3376.got - 2010.05.20 12:28:01.
