data_PCOD9588263
_publ_section_title
;
Structure prediction by ZEFSAII (Michael W. Deem and Ramdas Pophale) SiO2 
 PCOD9588263
Probable space group: P 6/M M M
;
_chemical_formula_sum "Si O2"
_cell_formula_units_Z 72
_cell_length_a 18.000000
_cell_length_b 18.000000
_cell_length_c 18.000000
_cell_angle_alpha 90.000000
_cell_angle_beta 90.000000
_cell_angle_gamma 120.000000
_cell_volume 5050.660155
_symmetry_space_group_name_H-M "P 6/M M M"
_symmetry_group_IT_number 191
_symmetry_cell_setting 'hexagonal'
loop_
_space_group_symop_operation_xyz
x,y,z
x-y,x,z
-y,x-y,z
-x,-y,z
-x+y,-x,z
y,-x+y,z
x-y,-y,-z
-x,-x+y,-z
y,x,-z
-y,-x,-z
-x+y,y,-z
x,x-y,-z
-x,-y,-z
-x+y,-x,-z
y,-x+y,-z
x,y,-z
x-y,x,-z
-y,x-y,-z
-x+y,y,z
x,x-y,z
-y,-x,z
y,x,z
x-y,-y,z
-x,-x+y,z
loop_
_atom_site_type_symbol
_atom_site_label
_atom_site_fract_x
_atom_site_fract_y
_atom_site_fract_z
Si Si1 0.589760 0.000000 0.913761
Si Si2 0.636230 0.103249 0.500000
Si Si3 0.487408 0.154999 0.801665
Si Si4 0.623623 0.726085 0.348952
O O1 0.652229 0.085046 0.865767
O O2 0.500000 0.000000 0.916845
O O3 0.616293 0.000000 0.000000
O O4 0.568950 0.137900 0.500000
O O5 0.691022 0.123889 0.424428
O O6 0.579047 0.000000 0.500000
O O7 0.580868 0.161736 0.797825
O O8 0.495903 0.247952 0.815528
O O9 0.437045 0.120472 0.723254
O O10 0.656717 0.828359 0.344867
O O11 0.693985 0.693985 0.350513
#
# Coordination Sequence:
#
# PCOD9588263 Si02
#       4
#    12  12  24  24
#     4   9  18  32  48  65  89 121 152 187 234 283
#     4   9  17  28  45  68  94 124 158 191 227 272
#     4  10  19  31  48  69  94 123 157 195 235 279
#     4  10  19  31  48  70  95 126 161 198 237 280
#
# _framework density 14.255561999999999
#
# number of rings (size 3 to 8) (size 9 to 14) (size 15 to 20)
#    0.000    2.333    1.667    1.833    0.000    2.000 
#    0.000    0.000    0.000    7.000    0.000    0.000 
#    0.000    4.000    0.000    0.000    0.000   15.167 
#
# Total GULP energy -400994.569449 kJ/mol
# GULP energy per Si atom -5569.369020 kJ/mol
# Density = 1.422312 g / cm^3
# Si number density = 14.255562 Si / 1000 Ang^3
#
#
#
# Elastic Constant Matrix: (Units=GPa)
#
#
# Indices 1 2 3 4 5 6 
#
# 1 101.0574 52.9874 44.8114 0.0000 0.0000 0.0000
# 2 52.9874 101.0574 44.8114 0.0000 0.0000 0.0000
# 3 44.8114 44.8114 136.7513 0.0000 0.0000 0.0000
# 4 0.0000 0.0000 0.0000 20.5574 0.0000 0.0000
# 5 0.0000 0.0000 0.0000 0.0000 20.5574 0.0000
# 6 0.0000 0.0000 0.0000 0.0000 0.0000 24.0350
#
#
#
# Elastic Compliance Matrix: (Units=1/GPa)
#
#
# Indices 1 2 3 4 5 6 
#
# 1 0.014412 -0.006391 -0.002628 0.000000 0.000000 0.000000
# 2 -0.006391 0.014412 -0.002628 0.000000 0.000000 0.000000
# 3 -0.002628 -0.002628 0.009035 0.000000 0.000000 0.000000
# 4 0.000000 0.000000 0.000000 0.048644 0.000000 0.000000
# 5 0.000000 0.000000 0.000000 0.000000 0.048644 0.000000
# 6 0.000000 0.000000 0.000000 0.000000 0.000000 0.041606
#
#
# Mechanical properties :
#
#
# Convention : Reuss Voigt Hill
#
# Bulk Modulus (GPa) = 68.66524 69.34294 69.00409
# Shear Modulus (GPa) = 24.40180 26.11371 25.25775
#
# Velocity S-wave (km/s) = 4.14180 4.28463 4.21382
# Velocity P-wave (km/s) = 8.43473 8.55720 8.49618
#
# Compressibility (1/GPa) = 0.01456341
#
# Stress axis : x y z
#
# Youngs Moduli (GPa) = 69.38731 69.38731 110.68012
#
# Poissons Ratio (x) = 0.44346 0.29090
# Poissons Ratio (y) = 0.44346 0.29090
# Poissons Ratio (z) = 0.18237 0.18237
#
# Static dielectric constant tensor:
#      x y z
#    x 1.466500 0.000000 0.000000 
#    y 0.000000 1.466500 0.000000 
#    z 0.000000 0.000000 1.477000 
# 
# From -- ./inp_files/3922.got.cif
#   From: 2010.05.17/outbox.ucp.g08.bks.cvg/sg191_2_cif.got.tgz:3922.got - 2010.06.11 15:22:43.
