data_PCOD9588887
_publ_section_title
;
Structure prediction by ZEFSAII (Michael W. Deem and Ramdas Pophale) SiO2 
 PCOD9588887
Probable space group: P 63/M C M
;
_chemical_formula_sum "Si O2"
_cell_formula_units_Z 108
_cell_length_a 14.431203
_cell_length_b 14.431203
_cell_length_c 30.435948
_cell_angle_alpha 90.000000
_cell_angle_beta 90.000000
_cell_angle_gamma 120.000000
_cell_volume 5489.370408
_symmetry_space_group_name_H-M "P 63/M C M"
_symmetry_group_IT_number 193
_symmetry_cell_setting 'hexagonal'
loop_
_space_group_symop_operation_xyz
x,y,z
x-y,x,1/2+z
-y,x-y,z
-x,-y,1/2+z
-x+y,-x,z
y,-x+y,1/2+z
x-y,-y,1/2-z
-x,-x+y,1/2-z
y,x,1/2-z
-y,-x,-z
-x+y,y,-z
x,x-y,-z
-x,-y,-z
-x+y,-x,1/2-z
y,-x+y,-z
x,y,1/2-z
x-y,x,-z
-y,x-y,1/2-z
-x+y,y,1/2+z
x,x-y,1/2+z
-y,-x,1/2+z
y,x,z
x-y,-y,z
-x,-x+y,z
loop_
_atom_site_type_symbol
_atom_site_label
_atom_site_fract_x
_atom_site_fract_y
_atom_site_fract_z
Si Si1 0.881041 0.120675 0.829254
Si Si2 0.538175 0.716258 0.298638
Si Si3 0.130424 0.260847 0.500000
Si Si4 0.122835 0.369672 0.584581
Si Si5 0.487840 0.612889 0.845591
O O1 0.789214 0.123914 0.801489
O O2 0.876171 0.172168 0.875693
O O3 0.000000 0.192564 0.810985
O O4 0.853289 0.000000 0.835159
O O5 0.506881 0.669207 0.250000
O O6 0.496826 0.798533 0.309643
O O7 0.490268 0.626036 0.336223
O O8 0.185597 0.185597 0.500010
O O9 0.168079 0.339441 0.542384
O O10 0.161573 0.484303 0.608058
O O11 0.000000 0.328190 0.572319
O O12 0.576293 0.576293 0.840001
#
# Coordination Sequence:
#
# PCOD9588887 Si02
#       5
#    24  24  12  24  24
#     4  10  20  34  51  74 108 148 186 223 274 344
#     4  11  22  35  55  81 105 138 188 241 292 343
#     4  10  17  28  52  88 126 160 201 246 288 340
#     4   8  17  32  51  77 110 149 185 225 278 331
#     4  10  21  38  57  79 112 148 184 236 299 356
#
# _framework density 19.674385999999998
#
# number of rings (size 3 to 8) (size 9 to 14) (size 15 to 20)
#    0.000    2.222    0.000    4.778    0.000    4.444 
#    0.000    2.222    0.000    6.667    0.000   20.222 
#    0.000    0.000    0.000    1.000    0.000    0.222 
#
# Total GULP energy -601342.390320 kJ/mol
# GULP energy per Si atom -5567.985096 kJ/mol
# Density = 1.962961 g / cm^3
# Si number density = 19.674386 Si / 1000 Ang^3
#
#
#
# Elastic Constant Matrix: (Units=GPa)
#
#
# Indices 1 2 3 4 5 6 
#
# 1 89.1325 37.7505 31.3121 0.0000 0.0000 0.0000
# 2 37.7505 89.1325 31.3121 0.0000 0.0000 0.0000
# 3 31.3121 31.3121 102.6448 0.0000 0.0000 0.0000
# 4 0.0000 0.0000 0.0000 20.8819 0.0000 0.0000
# 5 0.0000 0.0000 0.0000 0.0000 20.8819 0.0000
# 6 0.0000 0.0000 0.0000 0.0000 0.0000 25.6910
#
#
#
# Elastic Compliance Matrix: (Units=1/GPa)
#
#
# Indices 1 2 3 4 5 6 
#
# 1 0.014370 -0.005092 -0.002830 0.000000 0.000000 0.000000
# 2 -0.005092 0.014370 -0.002830 0.000000 0.000000 0.000000
# 3 -0.002830 -0.002830 0.011469 0.000000 0.000000 0.000000
# 4 0.000000 0.000000 0.000000 0.047888 0.000000 0.000000
# 5 0.000000 0.000000 0.000000 0.000000 0.047888 0.000000
# 6 0.000000 0.000000 0.000000 0.000000 0.000000 0.038924
#
#
# Mechanical properties :
#
#
# Convention : Reuss Voigt Hill
#
# Bulk Modulus (GPa) = 53.46394 53.51768 53.49081
# Shear Modulus (GPa) = 24.67307 25.52664 25.09986
#
# Velocity S-wave (km/s) = 3.54513 3.60593 3.57566
# Velocity P-wave (km/s) = 6.63254 6.67815 6.65539
#
# Compressibility (1/GPa) = 0.01870419
#
# Stress axis : x y z
#
# Youngs Moduli (GPa) = 69.58868 69.58868 87.19049
#
# Poissons Ratio (x) = 0.35434 0.24678
# Poissons Ratio (y) = 0.35434 0.24678
# Poissons Ratio (z) = 0.19696 0.19696
#
# Static dielectric constant tensor:
#      x y z
#    x 1.741260 0.000000 0.000000 
#    y 0.000000 1.741260 0.000000 
#    z 0.000000 0.000000 1.700130 
# 
# From -- ./inp_files/8847.got.cif
#   From: 2010.05.17/outbox.cif.g08.bks.cpg/sg193_5_cif.got.tgz:8847.got - 2010.05.20 12:33:02.
