data_PCOD9588515
_publ_section_title
;
Structure prediction by ZEFSAII (Michael W. Deem and Ramdas Pophale) SiO2 
 PCOD9588515
Probable space group: P 6/M C C
;
_chemical_formula_sum "Si O2"
_cell_formula_units_Z 80
_cell_length_a 18.785333
_cell_length_b 18.785333
_cell_length_c 15.814152
_cell_angle_alpha 90.000000
_cell_angle_beta 90.000000
_cell_angle_gamma 120.000000
_cell_volume 4832.972640
_symmetry_space_group_name_H-M "P 6/M C C"
_symmetry_group_IT_number 192
_symmetry_cell_setting 'hexagonal'
loop_
_space_group_symop_operation_xyz
x,y,z
x-y,x,z
-y,x-y,z
-x,-y,z
-x+y,-x,z
y,-x+y,z
x-y,-y,1/2-z
-x,-x+y,1/2-z
y,x,1/2-z
-y,-x,1/2-z
-x+y,y,1/2-z
x,x-y,1/2-z
-x,-y,-z
-x+y,-x,-z
y,-x+y,-z
x,y,-z
x-y,x,-z
-y,x-y,-z
-x+y,y,1/2+z
x,x-y,1/2+z
-y,-x,1/2+z
y,x,1/2+z
x-y,-y,1/2+z
-x,-x+y,1/2+z
loop_
_atom_site_type_symbol
_atom_site_label
_atom_site_fract_x
_atom_site_fract_y
_atom_site_fract_z
Si Si1 0.617310 0.559672 0.332256
Si Si2 0.511390 0.898655 0.904496
Si Si3 0.518539 0.777918 0.400042
Si Si4 0.333334 0.666667 0.148335
O O1 0.598496 0.598496 0.250000
O O2 0.591002 0.602180 0.404461
O O3 0.553256 0.461973 0.346082
O O4 0.704420 0.565873 0.346596
O O5 0.532575 0.829980 0.875070
O O6 0.477931 0.877031 0.000000
O O7 0.536108 0.795108 0.500000
O O8 0.420772 0.737237 0.384991
O O9 0.333334 0.666667 0.250000
#
# Coordination Sequence:
#
# PCOD9588515 Si02
#       4
#    24  24  24   8
#     4  11  22  33  50  72 105 132 170 223 276 322
#     4  10  20  33  52  70  93 132 173 215 270 326
#     4  11  22  38  55  71 100 140 181 222 271 328
#     4  12  25  29  52  81 103 125 172 234 280 314
#
# _framework density 16.552959000000001
#
# number of rings (size 3 to 8) (size 9 to 14) (size 15 to 20)
#    0.000    1.200    3.000    6.300    4.200    0.000 
#    0.000    0.000    0.000    0.000    0.000    0.000 
#    0.000    0.000    0.000    0.900    0.000   22.500 
#
# Total GULP energy -446073.241629 kJ/mol
# GULP energy per Si atom -5575.915520 kJ/mol
# Density = 1.651528 g / cm^3
# Si number density = 16.552959 Si / 1000 Ang^3
#
#
#
# Elastic Constant Matrix: (Units=GPa)
#
#
# Indices 1 2 3 4 5 6 
#
# 1 108.0648 46.8411 27.2772 0.0000 0.0000 -0.0001
# 2 46.8411 108.0645 27.2771 -0.0001 0.0000 -0.0001
# 3 27.2772 27.2771 91.3113 -0.0001 0.0000 0.0001
# 4 0.0000 -0.0001 -0.0001 23.2540 0.0000 0.0000
# 5 0.0000 0.0000 0.0000 0.0000 23.2541 0.0000
# 6 -0.0001 -0.0001 0.0001 0.0000 0.0000 30.6116
#
#
#
# Elastic Compliance Matrix: (Units=1/GPa)
#
#
# Indices 1 2 3 4 5 6 
#
# 1 0.011774 -0.004560 -0.002155 0.000000 0.000000 0.000000
# 2 -0.004560 0.011774 -0.002155 0.000000 0.000000 0.000000
# 3 -0.002155 -0.002155 0.012239 0.000000 0.000000 0.000000
# 4 0.000000 0.000000 0.000000 0.043003 0.000000 0.000000
# 5 0.000000 0.000000 0.000000 0.000000 0.043003 0.000000
# 6 0.000000 0.000000 0.000000 0.000000 0.000000 0.032667
#
#
# Mechanical properties :
#
#
# Convention : Reuss Voigt Hill
#
# Bulk Modulus (GPa) = 55.40922 56.69238 56.05080
# Shear Modulus (GPa) = 28.05573 29.16029 28.60801
#
# Velocity S-wave (km/s) = 4.12139 4.20174 4.16176
# Velocity P-wave (km/s) = 7.49629 7.60677 7.55173
#
# Compressibility (1/GPa) = 0.01804754
#
# Stress axis : x y z
#
# Youngs Moduli (GPa) = 84.93251 84.93232 81.70486
#
# Poissons Ratio (x) = 0.38725 0.17609
# Poissons Ratio (y) = 0.38725 0.17609
# Poissons Ratio (z) = 0.18305 0.18304
#
# Static dielectric constant tensor:
#      x y z
#    x 1.587200 0.000000 0.000000 
#    y 0.000000 1.587200 0.000000 
#    z 0.000000 0.000000 1.672720 
# 
# From -- ./inp_files/2647.got.cif
#   From: 2010.05.17/outbox.cif.g08.bks.cpg/sg192_2_cif.got.tgz:2647.got - 2010.05.20 12:28:01.
