data_PCOD9588609
_publ_section_title
;
Structure prediction by ZEFSAII (Michael W. Deem and Ramdas Pophale) SiO2 
 PCOD9588609
Probable space group: P 6/M C C
;
_chemical_formula_sum "Si O2"
_cell_formula_units_Z 116
_cell_length_a 19.465617
_cell_length_b 19.465617
_cell_length_c 15.168182
_cell_angle_alpha 90.000000
_cell_angle_beta 90.000000
_cell_angle_gamma 120.000000
_cell_volume 4977.376705
_symmetry_space_group_name_H-M "P 6/M C C"
_symmetry_group_IT_number 192
_symmetry_cell_setting 'hexagonal'
loop_
_space_group_symop_operation_xyz
x,y,z
x-y,x,z
-y,x-y,z
-x,-y,z
-x+y,-x,z
y,-x+y,z
x-y,-y,1/2-z
-x,-x+y,1/2-z
y,x,1/2-z
-y,-x,1/2-z
-x+y,y,1/2-z
x,x-y,1/2-z
-x,-y,-z
-x+y,-x,-z
y,-x+y,-z
x,y,-z
x-y,x,-z
-y,x-y,-z
-x+y,y,1/2+z
x,x-y,1/2+z
-y,-x,1/2+z
y,x,1/2+z
x-y,-y,1/2+z
-x,-x+y,1/2+z
loop_
_atom_site_type_symbol
_atom_site_label
_atom_site_fract_x
_atom_site_fract_y
_atom_site_fract_z
Si Si1 0.021176 0.745472 0.846715
Si Si2 0.666667 0.333334 0.855719
Si Si3 0.230429 0.412559 0.892994
Si Si4 0.154248 0.551114 0.603407
Si Si5 0.568123 0.917806 0.392859
Si Si6 0.982368 0.827591 0.000000
O O1 0.114766 0.787608 0.861995
O O2 0.000000 0.758137 0.750000
O O3 0.988564 0.651523 0.860845
O O4 0.981960 0.776075 0.917160
O O5 0.666668 0.333334 0.750000
O O6 0.617359 0.374054 0.889488
O O7 0.316815 0.478681 0.858439
O O8 0.161869 0.430612 0.866966
O O9 0.232819 0.413450 0.000000
O O10 0.134392 0.532867 0.500000
O O11 0.093901 0.578128 0.638957
O O12 0.568601 0.922230 0.500000
O O13 0.909433 0.843366 0.000000
#
# Coordination Sequence:
#
# PCOD9588609 Si02
#       6
#    24   8  24  24  24  12
#     4  12  26  44  70 102 142 181 217 268 331 403
#     4  12  22  32  49  87 136 176 229 297 346 389
#     4  10  20  38  65  93 127 173 226 282 336 397
#     4  10  20  37  63  88 123 175 235 288 337 392
#     4  10  20  38  65  93 127 173 226 282 336 397
#     4  12  27  52  82 111 140 168 214 262 324 395
#
# _framework density 23.305448999999999
#
# number of rings (size 3 to 8) (size 9 to 14) (size 15 to 20)
#    0.000    1.241    4.138    1.966    0.000    5.793 
#    0.000    4.138    0.000    1.241    0.000    0.000 
#    0.000    0.000    0.000    0.000    0.000    0.000 
#
# Total GULP energy -649525.323857 kJ/mol
# GULP energy per Si atom -5599.356240 kJ/mol
# Density = 2.325240 g / cm^3
# Si number density = 23.305449 Si / 1000 Ang^3
#
#
#
# Elastic Constant Matrix: (Units=GPa)
#
#
# Indices 1 2 3 4 5 6 
#
# 1 53.4561 -18.5488 -6.1690 -0.0001 0.0000 0.0000
# 2 -18.5488 53.4560 -6.1693 0.0000 0.0001 0.0001
# 3 -6.1690 -6.1693 51.1075 0.0001 0.0000 0.0001
# 4 -0.0001 0.0000 0.0001 0.2002 0.0000 -0.0001
# 5 0.0000 0.0001 0.0000 0.0000 0.2005 0.0000
# 6 0.0000 0.0001 0.0001 -0.0001 0.0000 36.0019
#
#
#
# Elastic Compliance Matrix: (Units=1/GPa)
#
#
# Indices 1 2 3 4 5 6 
#
# 1 0.021906 0.008018 0.003612 0.000005 -0.000008 0.000000
# 2 0.008018 0.021906 0.003612 -0.000001 -0.000017 0.000000
# 3 0.003612 0.003612 0.020439 -0.000006 -0.000005 0.000000
# 4 0.000005 -0.000001 -0.000006 4.994999 0.000018 0.000009
# 5 -0.000008 -0.000017 -0.000005 0.000018 4.987430 -0.000005
# 6 0.000000 0.000000 0.000000 0.000009 -0.000005 0.027776
#
#
# Mechanical properties :
#
#
# Convention : Reuss Voigt Hill
#
# Bulk Modulus (GPa) = 10.55572 10.69392 10.62482
# Shear Modulus (GPa) = 0.49625 19.87431 10.18528
#
# Velocity S-wave (km/s) = 0.46195 2.92340 2.09280
# Velocity P-wave (km/s) = 2.19628 3.99920 3.22624
#
# Compressibility (1/GPa) = 0.09473538
#
# Stress axis : x y z
#
# Youngs Moduli (GPa) = 45.64960 45.64947 48.92690
#
# Poissons Ratio (x) = -0.36602 -0.17673
# Poissons Ratio (y) = -0.36602 -0.17673
# Poissons Ratio (z) = -0.16489 -0.16489
#
# Static dielectric constant tensor:
#      x y z
#    x 1.884990 0.000000 0.000000 
#    y 0.000000 1.884990 0.000000 
#    z 0.000000 0.000000 1.849590 
# 
# From -- ./inp_files/2999.got.cif
#   From: 2010.05.17/outbox.cif.g08.bks.cpg/sg192_2_cif.got.tgz:2999.got - 2010.05.20 12:28:01.
