data_PCOD9588021
_publ_section_title
;
Structure prediction by ZEFSAII (Michael W. Deem and Ramdas Pophale) SiO2 
 PCOD9588021
Probable space group: P 6/M M M
;
_chemical_formula_sum "Si O2"
_cell_formula_units_Z 100
_cell_length_a 28.047930
_cell_length_b 28.047930
_cell_length_c 7.643815
_cell_angle_alpha 90.000000
_cell_angle_beta 90.000000
_cell_angle_gamma 120.000000
_cell_volume 5207.657684
_symmetry_space_group_name_H-M "P 6/M M M"
_symmetry_group_IT_number 191
_symmetry_cell_setting 'hexagonal'
loop_
_space_group_symop_operation_xyz
x,y,z
x-y,x,z
-y,x-y,z
-x,-y,z
-x+y,-x,z
y,-x+y,z
x-y,-y,-z
-x,-x+y,-z
y,x,-z
-y,-x,-z
-x+y,y,-z
x,x-y,-z
-x,-y,-z
-x+y,-x,-z
y,-x+y,-z
x,y,-z
x-y,x,-z
-y,x-y,-z
-x+y,y,z
x,x-y,z
-y,-x,z
y,x,z
x-y,-y,z
-x,-x+y,z
loop_
_atom_site_type_symbol
_atom_site_label
_atom_site_fract_x
_atom_site_fract_y
_atom_site_fract_z
Si Si1 0.730849 0.269152 0.798377
Si Si2 0.476321 0.845380 0.706841
Si Si3 0.666668 0.333334 0.710244
Si Si4 0.592532 0.655674 0.286532
Si Si5 0.234447 0.062861 0.000000
Si Si6 0.673508 0.782086 0.707084
O O1 0.791187 0.309452 0.724589
O O2 0.697902 0.302099 0.773113
O O3 0.737988 0.262013 0.000000
O O4 0.475717 0.854232 0.500000
O O5 0.418236 0.836472 0.778371
O O6 0.530425 0.898385 0.778372
O O7 0.666667 0.333334 0.500000
O O8 0.591048 0.653275 0.500000
O O9 0.622182 0.622182 0.226929
O O10 0.628824 0.720160 0.242549
O O11 0.273700 0.076064 0.830548
O O12 0.214311 0.107156 0.000000
O O13 0.187873 0.000000 0.000000
O O14 0.686194 0.782485 0.500000
O O15 0.653567 0.826784 0.731463
#
# Coordination Sequence:
#
# PCOD9588021 Si02
#       6
#    12  24   4  24  12  24
#     4  12  24  38  56  82 110 137 169 220 280 334
#     4  10  21  36  56  79 104 139 180 222 268 323
#     4  12  22  38  64  84 103 131 172 222 286 347
#     4   9  18  33  54  79 108 144 183 223 267 315
#     4  10  20  34  54  81 111 145 183 223 267 319
#     4   9  18  33  54  81 111 143 180 225 275 327
#
# _framework density 19.202490999999998
#
# number of rings (size 3 to 8) (size 9 to 14) (size 15 to 20)
#    0.000    2.160    1.200    2.160    1.680    1.920 
#    2.160    2.400    0.000    0.120    0.000    1.680 
#    0.000    0.000    0.000    6.000    0.000    0.000 
#
# Total GULP energy -558161.745829 kJ/mol
# GULP energy per Si atom -5581.617458 kJ/mol
# Density = 1.915878 g / cm^3
# Si number density = 19.202491 Si / 1000 Ang^3
#
#
#
# Elastic Constant Matrix: (Units=GPa)
#
#
# Indices 1 2 3 4 5 6 
#
# 1 135.3345 91.6105 19.2764 0.0001 0.0000 -0.0001
# 2 91.6105 135.3347 19.2763 -0.0001 0.0000 0.0000
# 3 19.2764 19.2763 50.9043 -0.0002 0.0000 0.0000
# 4 0.0001 -0.0001 -0.0002 -5.7227 0.0001 0.0000
# 5 0.0000 0.0000 0.0000 0.0001 -5.7219 -0.0001
# 6 -0.0001 0.0000 0.0000 0.0000 -0.0001 21.8620
#
#
#
# Elastic Compliance Matrix: (Units=1/GPa)
#
#
# Indices 1 2 3 4 5 6 
#
# 1 0.013790 -0.009081 -0.001783 0.000000 0.000000 0.000000
# 2 -0.009081 0.013790 -0.001783 0.000000 0.000000 0.000000
# 3 -0.001783 -0.001783 0.020995 -0.000001 0.000000 0.000000
# 4 0.000000 0.000000 -0.000001 -0.174744 -0.000002 0.000000
# 5 0.000000 0.000000 0.000000 -0.000002 -0.174767 -0.000001
# 6 0.000000 0.000000 0.000000 0.000000 -0.000001 0.045741
#
#
# Mechanical properties :
#
#
# Convention : Reuss Voigt Hill
#
# Bulk Modulus (GPa) = 42.95410 64.65556 53.80483
# Shear Modulus (GPa) = -22.50837 14.84418 -3.83210
#
# Velocity S-wave (km/s) = -3.42740 2.78336 -1.41420
# Velocity P-wave (km/s) = 2.59901 6.63875 5.04122
#
# Compressibility (1/GPa) = 0.02328066
#
# Stress axis : x y z
#
# Youngs Moduli (GPa) = 72.51627 72.51648 47.62968
#
# Poissons Ratio (x) = 0.65850 0.08494
# Poissons Ratio (y) = 0.65850 0.08494
# Poissons Ratio (z) = 0.12932 0.12932
#
# Static dielectric constant tensor:
#      x y z
#    x 1.674510 0.000000 0.000000 
#    y 0.000000 1.674510 0.000000 
#    z 0.000000 0.000000 1.697630 
# 
# From -- ./inp_files/1448.got.cif
#   From: 2010.05.17/outbox.cif.g08.bks.cpg/sg191_1_cif.got.tgz:1448.got - 2010.05.20 12:20:32.
