data_PCOD9588799
_publ_section_title
;
Structure prediction by ZEFSAII (Michael W. Deem and Ramdas Pophale) SiO2 
 PCOD9588799
Probable space group: P 6/M C C
;
_chemical_formula_sum "Si O2"
_cell_formula_units_Z 152
_cell_length_a 24.694409
_cell_length_b 24.694409
_cell_length_c 15.174258
_cell_angle_alpha 90.000000
_cell_angle_beta 90.000000
_cell_angle_gamma 120.000000
_cell_volume 8013.742239
_symmetry_space_group_name_H-M "P 6/M C C"
_symmetry_group_IT_number 192
_symmetry_cell_setting 'hexagonal'
loop_
_space_group_symop_operation_xyz
x,y,z
x-y,x,z
-y,x-y,z
-x,-y,z
-x+y,-x,z
y,-x+y,z
x-y,-y,1/2-z
-x,-x+y,1/2-z
y,x,1/2-z
-y,-x,1/2-z
-x+y,y,1/2-z
x,x-y,1/2-z
-x,-y,-z
-x+y,-x,-z
y,-x+y,-z
x,y,-z
x-y,x,-z
-y,x-y,-z
-x+y,y,1/2+z
x,x-y,1/2+z
-y,-x,1/2+z
y,x,1/2+z
x-y,-y,1/2+z
-x,-x+y,1/2+z
loop_
_atom_site_type_symbol
_atom_site_label
_atom_site_fract_x
_atom_site_fract_y
_atom_site_fract_z
Si Si1 0.597143 0.407716 0.851575
Si Si2 0.874137 0.219271 0.317667
Si Si3 0.741977 0.760189 0.500000
Si Si4 0.335722 0.043481 0.180504
Si Si5 0.666667 0.333334 0.105882
Si Si6 0.843870 0.121966 0.000000
Si Si7 0.301124 0.459300 0.898475
Si Si8 0.180212 0.711716 0.602135
O O1 0.586319 0.413682 0.750000
O O2 0.643399 0.379702 0.862270
O O3 0.633130 0.476587 0.892109
O O4 0.531454 0.353659 0.888338
O O5 0.818857 0.181144 0.250000
O O6 0.932087 0.236064 0.253471
O O7 0.865571 0.182018 0.408079
O O8 0.871632 0.280595 0.346035
O O9 0.704164 0.723114 0.410407
O O10 0.746380 0.828153 0.500000
O O11 0.809238 0.763402 0.500000
O O12 0.401708 0.102307 0.151557
O O13 0.346510 0.000000 0.250000
O O14 0.666667 0.333334 0.000000
O O15 0.247085 0.475326 0.870546
O O16 0.287880 0.439485 0.000000
O O17 0.172217 0.720364 0.500000
#
# Coordination Sequence:
#
# PCOD9588799 Si02
#       8
#    24  24  12  24   8  12  24  24
#     4  12  24  35  53  83 121 170 216 276 341 412
#     4  12  22  37  65  93 131 168 214 271 320 383
#     4  12  24  42  68 106 141 175 219 263 321 383
#     4  12  24  40  66  98 132 175 218 274 334 390
#     4  12  22  35  49  75 118 167 217 270 352 407
#     4  12  24  42  66 106 139 175 213 259 319 377
#     4  11  22  38  60  86 125 167 215 267 334 407
#     4  11  22  36  57  86 120 164 215 273 334 399
#
# _framework density 18.967417999999999
#
# number of rings (size 3 to 8) (size 9 to 14) (size 15 to 20)
#    0.000    0.316    7.895    2.842    0.000    0.000 
#    0.000    0.000    0.000    4.421    0.000    6.632 
#    0.000    0.000    0.000    0.000    0.000    0.000 
#
# Total GULP energy -847081.452762 kJ/mol
# GULP energy per Si atom -5572.904294 kJ/mol
# Density = 1.892425 g / cm^3
# Si number density = 18.967418 Si / 1000 Ang^3
#
#
#
# Elastic Constant Matrix: (Units=GPa)
#
#
# Indices 1 2 3 4 5 6 
#
# 1 85.0537 39.0275 41.1710 0.0000 0.0001 -0.0001
# 2 39.0275 85.0530 41.1714 0.0001 0.0000 0.0000
# 3 41.1710 41.1714 145.9597 0.0000 -0.0001 0.0002
# 4 0.0000 0.0001 0.0000 33.9798 0.0000 0.0001
# 5 0.0001 0.0000 -0.0001 0.0000 33.9800 0.0001
# 6 -0.0001 0.0000 0.0002 0.0001 0.0001 23.0137
#
#
#
# Elastic Compliance Matrix: (Units=1/GPa)
#
#
# Indices 1 2 3 4 5 6 
#
# 1 0.015821 -0.005906 -0.002797 0.000000 0.000000 0.000000
# 2 -0.005906 0.015821 -0.002797 0.000000 0.000000 0.000000
# 3 -0.002797 -0.002797 0.008429 0.000000 0.000000 0.000000
# 4 0.000000 0.000000 0.000000 0.029429 0.000000 0.000000
# 5 0.000000 0.000000 0.000000 0.000000 0.029429 0.000000
# 6 0.000000 0.000000 0.000000 0.000000 0.000000 0.043452
#
#
# Mechanical properties :
#
#
# Convention : Reuss Voigt Hill
#
# Bulk Modulus (GPa) = 58.57446 62.08956 60.33201
# Shear Modulus (GPa) = 29.22752 31.17446 30.20099
#
# Velocity S-wave (km/s) = 3.92973 4.05851 3.99464
# Velocity P-wave (km/s) = 7.17907 7.40053 7.29064
#
# Compressibility (1/GPa) = 0.01707229
#
# Stress axis : x y z
#
# Youngs Moduli (GPa) = 63.20705 63.20630 118.63774
#
# Poissons Ratio (x) = 0.37329 0.33180
# Poissons Ratio (y) = 0.37329 0.33182
# Poissons Ratio (z) = 0.17678 0.17678
#
# Static dielectric constant tensor:
#      x y z
#    x 1.769510 0.000000 0.000000 
#    y 0.000000 1.769520 0.000000 
#    z 0.000000 0.000000 1.698130 
# 
# From -- ./inp_files/3432.got.cif
#   From: 2010.05.17/outbox.cif.g08.bks.cpg/sg192_2_cif.got.tgz:3432.got - 2010.05.20 12:28:01.
