data_PCOD9588092
_publ_section_title
;
Structure prediction by ZEFSAII (Michael W. Deem and Ramdas Pophale) SiO2 
 PCOD9588092
Probable space group: P 6/M M M
;
_chemical_formula_sum "Si O2"
_cell_formula_units_Z 168
_cell_length_a 30.419493
_cell_length_b 30.419493
_cell_length_c 13.224335
_cell_angle_alpha 90.000000
_cell_angle_beta 90.000000
_cell_angle_gamma 120.000000
_cell_volume 10597.621803
_symmetry_space_group_name_H-M "P 6/M M M"
_symmetry_group_IT_number 191
_symmetry_cell_setting 'hexagonal'
loop_
_space_group_symop_operation_xyz
x,y,z
x-y,x,z
-y,x-y,z
-x,-y,z
-x+y,-x,z
y,-x+y,z
x-y,-y,-z
-x,-x+y,-z
y,x,-z
-y,-x,-z
-x+y,y,-z
x,x-y,-z
-x,-y,-z
-x+y,-x,-z
y,-x+y,-z
x,y,-z
x-y,x,-z
-y,x-y,-z
-x+y,y,z
x,x-y,z
-y,-x,z
y,x,z
x-y,-y,z
-x,-x+y,z
loop_
_atom_site_type_symbol
_atom_site_label
_atom_site_fract_x
_atom_site_fract_y
_atom_site_fract_z
Si Si1 0.666373 0.528836 0.759274
Si Si2 0.333308 0.771706 0.119351
Si Si3 0.159574 0.218530 0.117448
Si Si4 0.327156 0.943853 0.115983
Si Si5 0.057596 0.757494 0.737690
Si Si6 0.610404 0.857592 0.615054
Si Si7 0.581120 0.524320 0.383598
O O1 0.667144 0.480801 0.806872
O O2 0.663871 0.562867 0.849636
O O3 0.714912 0.566149 0.690860
O O4 0.619022 0.517398 0.688120
O O5 0.384202 0.768404 0.135696
O O6 0.282856 0.717145 0.135653
O O7 0.333126 0.784986 0.000000
O O8 0.100668 0.201336 0.130723
O O9 0.175694 0.175694 0.130894
O O10 0.192971 0.262962 0.196984
O O11 0.172884 0.236467 0.000000
O O12 0.283052 0.942390 0.183934
O O13 0.375598 0.000000 0.129038
O O14 0.311711 0.938284 0.000000
O O15 0.097812 0.762589 0.654293
O O16 0.000000 0.733355 0.697985
O O17 0.600962 0.868070 0.500000
O O18 0.611506 0.805753 0.616079
O O19 0.599254 0.534226 0.500000
O O20 0.527688 0.472313 0.382760
O O21 0.568708 0.568708 0.353577
#
# Coordination Sequence:
#
# PCOD9588092 Si02
#       7
#    24  24  24  24  24  24  24
#     4  11  19  31  50  73  94 121 157 191 222 268
#     4  10  21  37  56  76  97 121 152 194 245 297
#     4   9  16  26  42  64  89 118 155 199 244 288
#     4   9  17  28  42  64  96 127 150 176 214 259
#     4   9  17  29  46  65  86 118 158 194 225 263
#     4  10  21  34  46  64  93 124 151 184 227 271
#     4   9  18  32  49  70  96 124 154 189 226 261
#
# _framework density 15.852613
#
# number of rings (size 3 to 8) (size 9 to 14) (size 15 to 20)
#    0.000    2.429    0.000    3.571    0.000    3.143 
#    0.000    0.000    0.000    7.000    0.000    7.000 
#    0.000    6.857    0.000    0.000    0.000    0.000 
#
# Total GULP energy -935887.651402 kJ/mol
# GULP energy per Si atom -5570.759830 kJ/mol
# Density = 1.581653 g / cm^3
# Si number density = 15.852613 Si / 1000 Ang^3
#
#
#
# Elastic Constant Matrix: (Units=GPa)
#
#
# Indices 1 2 3 4 5 6 
#
# 1 95.4665 48.8290 40.2261 0.0000 0.0000 0.0000
# 2 48.8290 95.4665 40.2261 0.0000 0.0000 0.0000
# 3 40.2261 40.2261 69.0684 0.0000 0.0000 0.0000
# 4 0.0000 0.0000 0.0000 25.8100 0.0000 0.0000
# 5 0.0000 0.0000 0.0000 0.0000 25.8100 0.0000
# 6 0.0000 0.0000 0.0000 0.0000 0.0000 23.3188
#
#
#
# Elastic Compliance Matrix: (Units=1/GPa)
#
#
# Indices 1 2 3 4 5 6 
#
# 1 0.015852 -0.005590 -0.005977 0.000000 0.000000 0.000000
# 2 -0.005590 0.015852 -0.005977 0.000000 0.000000 0.000000
# 3 -0.005977 -0.005977 0.021441 0.000000 0.000000 0.000000
# 4 0.000000 0.000000 0.000000 0.038745 0.000000 0.000000
# 5 0.000000 0.000000 0.000000 0.000000 0.038745 0.000000
# 6 0.000000 0.000000 0.000000 0.000000 0.000000 0.042884
#
#
# Mechanical properties :
#
#
# Convention : Reuss Voigt Hill
#
# Bulk Modulus (GPa) = 55.37805 57.61818 56.49812
# Shear Modulus (GPa) = 23.29638 23.70244 23.49941
#
# Velocity S-wave (km/s) = 3.83764 3.87095 3.85433
# Velocity P-wave (km/s) = 7.39227 7.51026 7.45150
#
# Compressibility (1/GPa) = 0.01805770
#
# Stress axis : x y z
#
# Youngs Moduli (GPa) = 63.08206 63.08206 46.64027
#
# Poissons Ratio (x) = 0.35260 0.27878
# Poissons Ratio (y) = 0.35260 0.27878
# Poissons Ratio (z) = 0.37705 0.37705
#
# Static dielectric constant tensor:
#      x y z
#    x 1.527320 0.000000 0.000000 
#    y 0.000000 1.527320 0.000000 
#    z 0.000000 0.000000 1.526230 
# 
# From -- ./inp_files/3628.got.cif
#   From: 2010.05.17/outbox.cif.g08.bks.cpg/sg191_2_cif.got.tgz:3628.got - 2010.05.20 12:20:32.
