data_PCOD9588054
_publ_section_title
;
Structure prediction by ZEFSAII (Michael W. Deem and Ramdas Pophale) SiO2 
 PCOD9588054
Probable space group: P 6/M M M
;
_chemical_formula_sum "Si O2"
_cell_formula_units_Z 132
_cell_length_a 27.189895
_cell_length_b 27.189895
_cell_length_c 11.897952
_cell_angle_alpha 90.000000
_cell_angle_beta 90.000000
_cell_angle_gamma 120.000000
_cell_volume 7617.595457
_symmetry_space_group_name_H-M "P 6/M M M"
_symmetry_group_IT_number 191
_symmetry_cell_setting 'hexagonal'
loop_
_space_group_symop_operation_xyz
x,y,z
x-y,x,z
-y,x-y,z
-x,-y,z
-x+y,-x,z
y,-x+y,z
x-y,-y,-z
-x,-x+y,-z
y,x,-z
-y,-x,-z
-x+y,y,-z
x,x-y,-z
-x,-y,-z
-x+y,-x,-z
y,-x+y,-z
x,y,-z
x-y,x,-z
-y,x-y,-z
-x+y,y,z
x,x-y,z
-y,-x,z
y,x,z
x-y,-y,z
-x,-x+y,z
loop_
_atom_site_type_symbol
_atom_site_label
_atom_site_fract_x
_atom_site_fract_y
_atom_site_fract_z
Si Si1 0.700447 0.932009 0.000000
Si Si2 0.721830 0.067425 0.631929
Si Si3 0.932528 0.178448 0.234900
Si Si4 0.885051 0.537943 0.238405
Si Si5 0.411628 0.343781 0.000000
Si Si6 0.552824 0.332094 0.130789
Si Si7 0.465924 0.534077 0.632518
O O1 0.723913 0.919212 0.887315
O O2 0.633189 0.908886 0.000000
O O3 0.728816 0.000000 0.000000
O O4 0.725300 0.079959 0.500000
O O5 0.781584 0.077583 0.679043
O O6 0.696190 0.100088 0.699935
O O7 0.678424 0.000000 0.648539
O O8 0.887626 0.112375 0.255419
O O9 0.000000 0.199171 0.238748
O O10 0.818831 0.497597 0.213218
O O11 0.907985 0.503074 0.308698
O O12 0.913144 0.553171 0.114703
O O13 0.375818 0.375818 0.000000
O O14 0.572349 0.286175 0.147541
O O15 0.604898 0.395103 0.147151
O O16 0.534326 0.326979 0.000000
O O17 0.500000 0.500000 0.643121
O O18 0.458872 0.541129 0.500000
#
# Coordination Sequence:
#
# PCOD9588054 Si02
#       7
#    12  24  24  24  12  24  12
#     4   9  17  33  53  78 111 148 187 226 276 341
#     4  10  21  37  56  79 112 155 195 229 271 331
#     4  10  20  35  57  84 115 152 195 241 289 343
#     4  12  21  36  56  86 116 144 187 234 283 337
#     4  11  20  32  53  83 121 153 177 219 285 343
#     4  10  21  39  59  81 106 136 177 228 284 337
#     4  11  24  39  57  81 113 158 199 229 273 339
#
# _framework density 17.328303999999999
#
# number of rings (size 3 to 8) (size 9 to 14) (size 15 to 20)
#    0.000    1.545    3.636    2.636    0.000    3.636 
#    0.000    0.909    0.000    1.818    0.000    0.000 
#    0.000    2.182    0.000    4.545    0.000    0.000 
#
# Total GULP energy -736621.942954 kJ/mol
# GULP energy per Si atom -5580.469265 kJ/mol
# Density = 1.728886 g / cm^3
# Si number density = 17.328304 Si / 1000 Ang^3
#
#
#
# Elastic Constant Matrix: (Units=GPa)
#
#
# Indices 1 2 3 4 5 6 
#
# 1 77.7348 32.3976 40.6516 0.0000 0.0000 0.0000
# 2 32.3976 77.7348 40.6516 0.0000 0.0000 0.0000
# 3 40.6516 40.6516 93.2146 0.0000 0.0000 0.0000
# 4 0.0000 0.0000 0.0000 12.8192 0.0000 0.0000
# 5 0.0000 0.0000 0.0000 0.0000 12.8192 0.0000
# 6 0.0000 0.0000 0.0000 0.0000 0.0000 22.6686
#
#
#
# Elastic Compliance Matrix: (Units=1/GPa)
#
#
# Indices 1 2 3 4 5 6 
#
# 1 0.017724 -0.004333 -0.005840 0.000000 0.000000 0.000000
# 2 -0.004333 0.017724 -0.005840 0.000000 0.000000 0.000000
# 3 -0.005840 -0.005840 0.015822 0.000000 0.000000 0.000000
# 4 0.000000 0.000000 0.000000 0.078008 0.000000 0.000000
# 5 0.000000 0.000000 0.000000 0.000000 0.078008 0.000000
# 6 0.000000 0.000000 0.000000 0.000000 0.000000 0.044114
#
#
# Mechanical properties :
#
#
# Convention : Reuss Voigt Hill
#
# Bulk Modulus (GPa) = 51.96394 52.89840 52.43117
# Shear Modulus (GPa) = 17.25089 18.66032 17.95561
#
# Velocity S-wave (km/s) = 3.15863 3.28513 3.22250
# Velocity P-wave (km/s) = 6.58450 6.70693 6.64599
#
# Compressibility (1/GPa) = 0.01924411
#
# Stress axis : x y z
#
# Youngs Moduli (GPa) = 56.42040 56.42040 63.20435
#
# Poissons Ratio (x) = 0.24446 0.36912
# Poissons Ratio (y) = 0.24446 0.36912
# Poissons Ratio (z) = 0.32950 0.32950
#
# Static dielectric constant tensor:
#      x y z
#    x 1.585890 0.000000 0.000000 
#    y 0.000000 1.585890 0.000000 
#    z 0.000000 0.000000 1.583240 
# 
# From -- ./inp_files/3391.got.cif
#   From: 2010.05.17/outbox.cif.g08.bks.cpg/sg191_2_cif.got.tgz:3391.got - 2010.05.20 12:20:32.
