data_PCOD9588158
_publ_section_title
;
Structure prediction by ZEFSAII (Michael W. Deem and Ramdas Pophale) SiO2 
 PCOD9588158
Probable space group: P 6/M M M
;
_chemical_formula_sum "Si O2"
_cell_formula_units_Z 138
_cell_length_a 30.689891
_cell_length_b 30.689891
_cell_length_c 8.003172
_cell_angle_alpha 90.000000
_cell_angle_beta 90.000000
_cell_angle_gamma 120.000000
_cell_volume 6528.050032
_symmetry_space_group_name_H-M "P 6/M M M"
_symmetry_group_IT_number 191
_symmetry_cell_setting 'hexagonal'
loop_
_space_group_symop_operation_xyz
x,y,z
x-y,x,z
-y,x-y,z
-x,-y,z
-x+y,-x,z
y,-x+y,z
x-y,-y,-z
-x,-x+y,-z
y,x,-z
-y,-x,-z
-x+y,y,-z
x,x-y,-z
-x,-y,-z
-x+y,-x,-z
y,-x+y,-z
x,y,-z
x-y,x,-z
-y,x-y,-z
-x+y,y,z
x,x-y,z
-y,-x,z
y,x,z
x-y,-y,z
-x,-x+y,z
loop_
_atom_site_type_symbol
_atom_site_label
_atom_site_fract_x
_atom_site_fract_y
_atom_site_fract_z
Si Si1 0.000000 0.832971 0.692184
Si Si2 0.090693 0.279983 0.698262
Si Si3 0.524138 0.944591 0.694149
Si Si4 0.567236 0.333185 0.700533
Si Si5 0.897720 0.000000 0.000000
Si Si6 0.700259 0.057001 0.196650
Si Si7 0.677403 0.140660 0.812600
O O1 0.950826 0.778385 0.715126
O O2 0.000000 0.868727 0.833684
O O3 0.000000 0.849138 0.500000
O O4 0.094694 0.291521 0.500000
O O5 0.144606 0.289211 0.757738
O O6 0.070736 0.313142 0.785587
O O7 0.533354 0.936538 0.500000
O O8 0.472516 0.945032 0.694868
O O9 0.518895 0.900393 0.807613
O O10 0.567091 0.000000 0.747616
O O11 0.571616 0.334609 0.500000
O O12 0.575350 0.287675 0.762170
O O13 0.611937 0.388064 0.761673
O O14 0.509996 0.319576 0.736893
O O15 0.951061 0.048940 0.000000
O O16 0.697502 0.105167 0.267631
O O17 0.665055 0.000000 0.266252
O O18 0.687490 0.054804 0.000000
O O19 0.697998 0.154017 0.000000
#
# Coordination Sequence:
#
# PCOD9588158 Si02
#       7
#    12  24  24  24   6  24  24
#     4  10  22  43  67  97 132 166 217 279 331 387
#     4  10  21  37  60  90 121 155 202 262 321 374
#     4   9  18  33  53  78 108 145 192 240 283 335
#     4  10  22  42  67  91 115 148 195 252 313 380
#     4  12  27  44  68 100 136 180 224 270 331 400
#     4  10  22  39  57  81 119 166 212 255 301 363
#     4  11  23  37  55  83 120 157 193 239 300 369
#
# _framework density 21.139544000000001
#
# number of rings (size 3 to 8) (size 9 to 14) (size 15 to 20)
#    0.000    1.913    0.870    2.826    1.217    8.348 
#    0.000    4.348    0.000    1.565    0.000    0.000 
#    0.000    0.000    0.000    0.000    0.000    0.000 
#
# Total GULP energy -769733.552179 kJ/mol
# GULP energy per Si atom -5577.779364 kJ/mol
# Density = 2.109143 g / cm^3
# Si number density = 21.139544 Si / 1000 Ang^3
#
#
#
# Elastic Constant Matrix: (Units=GPa)
#
#
# Indices 1 2 3 4 5 6 
#
# 1 119.9022 48.9633 32.7244 0.0000 0.0000 0.0000
# 2 48.9633 119.9022 32.7244 0.0000 0.0000 0.0000
# 3 32.7244 32.7244 34.1863 0.0000 0.0000 0.0000
# 4 0.0000 0.0000 0.0000 15.4326 0.0000 0.0000
# 5 0.0000 0.0000 0.0000 0.0000 15.4326 0.0000
# 6 0.0000 0.0000 0.0000 0.0000 0.0000 35.4695
#
#
#
# Elastic Compliance Matrix: (Units=1/GPa)
#
#
# Indices 1 2 3 4 5 6 
#
# 1 0.011756 -0.002341 -0.009012 0.000000 0.000000 0.000000
# 2 -0.002341 0.011756 -0.009012 0.000000 0.000000 0.000000
# 3 -0.009012 -0.009012 0.046505 0.000000 0.000000 0.000000
# 4 0.000000 0.000000 0.000000 0.064798 0.000000 0.000000
# 5 0.000000 0.000000 0.000000 0.000000 0.064798 0.000000
# 6 0.000000 0.000000 0.000000 0.000000 0.000000 0.028193
#
#
# Mechanical properties :
#
#
# Convention : Reuss Voigt Hill
#
# Bulk Modulus (GPa) = 34.14611 55.86831 45.00721
# Shear Modulus (GPa) = 17.96632 23.90550 20.93591
#
# Velocity S-wave (km/s) = 2.91845 3.36645 3.15042
# Velocity P-wave (km/s) = 5.24826 6.44952 5.87965
#
# Compressibility (1/GPa) = 0.02928591
#
# Stress axis : x y z
#
# Youngs Moduli (GPa) = 85.06494 85.06494 21.50301
#
# Poissons Ratio (x) = 0.19913 0.19379
# Poissons Ratio (y) = 0.19913 0.19379
# Poissons Ratio (z) = 0.76662 0.76662
#
# Static dielectric constant tensor:
#      x y z
#    x 1.767270 0.000000 0.000000 
#    y 0.000000 1.767270 0.000000 
#    z 0.000000 0.000000 1.802410 
# 
# From -- ./inp_files/2015.got.cif
#   From: 2010.05.17/outbox.cif.g08.bks.cpg/sg191_2_cif.got.tgz:2015.got - 2010.05.20 12:20:32.
