data_PCOD9588892
_publ_section_title
;
Structure prediction by ZEFSAII (Michael W. Deem and Ramdas Pophale) SiO2 
 PCOD9588892
Probable space group: P 63/M C M
;
_chemical_formula_sum "Si O2"
_cell_formula_units_Z 112
_cell_length_a 21.043556
_cell_length_b 21.043556
_cell_length_c 13.790857
_cell_angle_alpha 90.000000
_cell_angle_beta 90.000000
_cell_angle_gamma 120.000000
_cell_volume 5288.836567
_symmetry_space_group_name_H-M "P 63/M C M"
_symmetry_group_IT_number 193
_symmetry_cell_setting 'hexagonal'
loop_
_space_group_symop_operation_xyz
x,y,z
x-y,x,1/2+z
-y,x-y,z
-x,-y,1/2+z
-x+y,-x,z
y,-x+y,1/2+z
x-y,-y,1/2-z
-x,-x+y,1/2-z
y,x,1/2-z
-y,-x,-z
-x+y,y,-z
x,x-y,-z
-x,-y,-z
-x+y,-x,1/2-z
y,-x+y,-z
x,y,1/2-z
x-y,x,-z
-y,x-y,1/2-z
-x+y,y,1/2+z
x,x-y,1/2+z
-y,-x,1/2+z
y,x,z
x-y,-y,z
-x,-x+y,z
loop_
_atom_site_type_symbol
_atom_site_label
_atom_site_fract_x
_atom_site_fract_y
_atom_site_fract_z
Si Si1 0.152716 0.000000 0.862318
Si Si2 0.213965 0.451805 0.361224
Si Si3 0.862868 0.151594 0.365689
Si Si4 0.000000 0.309166 0.368198
Si Si5 0.506740 0.349451 0.465726
Si Si6 0.000000 0.000000 0.613548
Si Si7 0.575980 0.575980 0.519621
O O1 0.144019 0.924009 0.903836
O O2 0.172506 0.000000 0.750000
O O3 0.075269 0.000000 0.860837
O O4 0.193007 0.452424 0.250000
O O5 0.203867 0.371169 0.381644
O O6 0.168123 0.469264 0.438080
O O7 0.297130 0.511423 0.386253
O O8 0.872718 0.149402 0.250000
O O9 0.931323 0.229840 0.395432
O O10 0.000000 0.319684 0.250000
O O11 0.000000 0.375468 0.427412
O O12 0.583105 0.416896 0.500000
O O13 0.452724 0.376576 0.426612
O O14 0.000000 0.000000 0.500000
O O15 0.500000 0.500000 0.500000
#
# Coordination Sequence:
#
# PCOD9588892 Si02
#       7
#    12  24  24  12  24   4  12
#     4  10  20  38  61  82 118 169 214 260 316 363
#     4  10  21  40  63  89 124 163 205 258 314 373
#     4   9  18  33  58  90 115 151 211 264 309 370
#     4  10  17  31  57  88 118 158 215 268 317 375
#     4  10  22  40  61  90 125 157 204 254 309 384
#     4  12  25  41  46  81 133 170 214 261 304 374
#     4  10  20  36  58  87 121 157 196 255 321 370
#
# _framework density 21.176680000000001
#
# number of rings (size 3 to 8) (size 9 to 14) (size 15 to 20)
#    0.000    2.143    2.143    0.964    0.000    3.429 
#    9.000    4.821    0.000    0.000    0.000    0.000 
#    0.000    0.000    0.000    0.000    0.000    0.000 
#
# Total GULP energy -623757.943257 kJ/mol
# GULP energy per Si atom -5569.267351 kJ/mol
# Density = 2.112848 g / cm^3
# Si number density = 21.176680 Si / 1000 Ang^3
#
#
#
# Elastic Constant Matrix: (Units=GPa)
#
#
# Indices 1 2 3 4 5 6 
#
# 1 118.3882 47.6474 4.3921 0.0000 0.0000 0.0000
# 2 47.6474 118.3882 4.3921 0.0000 0.0000 0.0000
# 3 4.3921 4.3921 65.2704 0.0000 0.0000 0.0000
# 4 0.0000 0.0000 0.0000 20.7657 0.0000 0.0000
# 5 0.0000 0.0000 0.0000 0.0000 20.7657 0.0000
# 6 0.0000 0.0000 0.0000 0.0000 0.0000 35.3704
#
#
#
# Elastic Compliance Matrix: (Units=1/GPa)
#
#
# Indices 1 2 3 4 5 6 
#
# 1 0.010090 -0.004046 -0.000407 0.000000 0.000000 0.000000
# 2 -0.004046 0.010090 -0.000407 0.000000 0.000000 0.000000
# 3 -0.000407 -0.000407 0.015376 0.000000 0.000000 0.000000
# 4 0.000000 0.000000 0.000000 0.048156 0.000000 0.000000
# 5 0.000000 0.000000 0.000000 0.000000 0.048156 0.000000
# 6 0.000000 0.000000 0.000000 0.000000 0.000000 0.028272
#
#
# Mechanical properties :
#
#
# Convention : Reuss Voigt Hill
#
# Bulk Modulus (GPa) = 38.70363 46.10109 42.40236
# Shear Modulus (GPa) = 28.01559 31.75471 29.88515
#
# Velocity S-wave (km/s) = 3.64118 3.87656 3.76071
# Velocity P-wave (km/s) = 5.99948 6.46946 6.23890
#
# Compressibility (1/GPa) = 0.02583737
#
# Stress axis : x y z
#
# Youngs Moduli (GPa) = 99.10588 99.10588 65.03804
#
# Poissons Ratio (x) = 0.40097 0.02645
# Poissons Ratio (y) = 0.40097 0.02645
# Poissons Ratio (z) = 0.04031 0.04031
#
# Static dielectric constant tensor:
#      x y z
#    x 1.806920 0.000000 0.000000 
#    y 0.000000 1.806920 0.000000 
#    z 0.000000 0.000000 1.761110 
# 
# From -- ./inp_files/3867.got.cif
#   From: 2010.05.17/outbox.cif.g08.bks.cpg/sg193_2_cif.got.tgz:3867.got - 2010.05.20 12:33:02.
