data_PCOD9588437
_publ_section_title
;
Structure prediction by ZEFSAII (Michael W. Deem and Ramdas Pophale) SiO2 
 PCOD9588437
Probable space group: P 6/M C C
;
_chemical_formula_sum "Si O2"
_cell_formula_units_Z 132
_cell_length_a 17.081180
_cell_length_b 17.081180
_cell_length_c 25.571628
_cell_angle_alpha 90.000000
_cell_angle_beta 90.000000
_cell_angle_gamma 120.000000
_cell_volume 6461.372042
_symmetry_space_group_name_H-M "P 6/M C C"
_symmetry_group_IT_number 192
_symmetry_cell_setting 'hexagonal'
loop_
_space_group_symop_operation_xyz
x,y,z
x-y,x,z
-y,x-y,z
-x,-y,z
-x+y,-x,z
y,-x+y,z
x-y,-y,1/2-z
-x,-x+y,1/2-z
y,x,1/2-z
-y,-x,1/2-z
-x+y,y,1/2-z
x,x-y,1/2-z
-x,-y,-z
-x+y,-x,-z
y,-x+y,-z
x,y,-z
x-y,x,-z
-y,x-y,-z
-x+y,y,1/2+z
x,x-y,1/2+z
-y,-x,1/2+z
y,x,1/2+z
x-y,-y,1/2+z
-x,-x+y,1/2+z
loop_
_atom_site_type_symbol
_atom_site_label
_atom_site_fract_x
_atom_site_fract_y
_atom_site_fract_z
Si Si1 0.635267 0.163463 0.145599
Si Si2 0.196754 0.702816 0.802105
Si Si3 0.171194 0.196709 0.500000
Si Si4 0.504973 0.908237 0.058908
Si Si5 0.360407 0.343212 0.652295
Si Si6 0.198337 0.021618 0.615459
O O1 0.740663 0.233144 0.150762
O O2 0.583347 0.190808 0.187702
O O3 0.586292 0.158458 0.090789
O O4 0.620107 0.064796 0.158045
O O5 0.245968 0.754033 0.750000
O O6 0.095610 0.684704 0.805520
O O7 0.173204 0.104597 0.500000
O O8 0.208168 0.238601 0.556409
O O9 0.589131 0.933443 0.097620
O O10 0.500000 0.000000 0.054708
O O11 0.512651 0.880007 0.000000
O O12 0.253953 0.273750 0.651429
O O13 0.179897 0.105224 0.621470
#
# Coordination Sequence:
#
# PCOD9588437 Si02
#       6
#    24  24  12  24  24  24
#     4  10  21  39  59  88 120 152 200 251 300 366
#     4  11  22  38  61  85 114 154 196 249 316 373
#     4   8  15  26  44  72 107 150 200 244 286 332
#     4   8  16  33  56  81 115 157 194 235 291 353
#     4  10  21  36  58  87 123 156 203 256 302 361
#     4  10  19  33  53  82 121 164 208 252 298 351
#
# _framework density 20.429098
#
# number of rings (size 3 to 8) (size 9 to 14) (size 15 to 20)
#    0.000    2.364    0.000    3.909    1.273    2.182 
#    0.000    9.091    0.000    0.000    0.000    0.000 
#    0.000    1.455    0.000    0.000    0.000    0.000 
#
# Total GULP energy -735836.377414 kJ/mol
# GULP energy per Si atom -5574.518011 kJ/mol
# Density = 2.038260 g / cm^3
# Si number density = 20.429098 Si / 1000 Ang^3
#
#
#
# Elastic Constant Matrix: (Units=GPa)
#
#
# Indices 1 2 3 4 5 6 
#
# 1 83.7926 19.8401 27.7974 0.0000 0.0000 0.0000
# 2 19.8401 83.7926 27.7974 0.0000 0.0000 0.0000
# 3 27.7974 27.7974 64.7520 0.0000 0.0000 0.0000
# 4 0.0000 0.0000 0.0000 23.4357 0.0000 0.0000
# 5 0.0000 0.0000 0.0000 0.0000 23.4357 0.0000
# 6 0.0000 0.0000 0.0000 0.0000 0.0000 31.9762
#
#
#
# Elastic Compliance Matrix: (Units=1/GPa)
#
#
# Indices 1 2 3 4 5 6 
#
# 1 0.014087 -0.001550 -0.005382 0.000000 0.000000 0.000000
# 2 -0.001550 0.014087 -0.005382 0.000000 0.000000 0.000000
# 3 -0.005382 -0.005382 0.020064 0.000000 0.000000 0.000000
# 4 0.000000 0.000000 0.000000 0.042670 0.000000 0.000000
# 5 0.000000 0.000000 0.000000 0.000000 0.042670 0.000000
# 6 0.000000 0.000000 0.000000 0.000000 0.000000 0.031273
#
#
# Mechanical properties :
#
#
# Convention : Reuss Voigt Hill
#
# Bulk Modulus (GPa) = 42.35469 42.57854 42.46661
# Shear Modulus (GPa) = 25.33597 26.22970 25.78284
#
# Velocity S-wave (km/s) = 3.52545 3.58710 3.55641
# Velocity P-wave (km/s) = 6.11141 6.16796 6.13975
#
# Compressibility (1/GPa) = 0.02361014
#
# Stress axis : x y z
#
# Youngs Moduli (GPa) = 70.98944 70.98944 49.83983
#
# Poissons Ratio (x) = 0.11003 0.26823
# Poissons Ratio (y) = 0.11003 0.26823
# Poissons Ratio (z) = 0.38205 0.38205
#
# Static dielectric constant tensor:
#      x y z
#    x 1.714780 0.000000 0.000000 
#    y 0.000000 1.714780 0.000000 
#    z 0.000000 0.000000 1.821260 
# 
# From -- ./inp_files/6514.got.cif
#   From: 2010.05.17/outbox.cif.g08.bks.cpg/sg192_4_cif.got.tgz:6514.got - 2010.05.20 12:28:01.
