data_PCOD9588146
_publ_section_title
;
Structure prediction by ZEFSAII (Michael W. Deem and Ramdas Pophale) SiO2 
 PCOD9588146
Probable space group: P 6/M M M
;
_chemical_formula_sum "Si O2"
_cell_formula_units_Z 108
_cell_length_a 18.424136
_cell_length_b 18.424136
_cell_length_c 22.361348
_cell_angle_alpha 90.000000
_cell_angle_beta 90.000000
_cell_angle_gamma 120.000000
_cell_volume 6573.593940
_symmetry_space_group_name_H-M "P 6/M M M"
_symmetry_group_IT_number 191
_symmetry_cell_setting 'hexagonal'
loop_
_space_group_symop_operation_xyz
x,y,z
x-y,x,z
-y,x-y,z
-x,-y,z
-x+y,-x,z
y,-x+y,z
x-y,-y,-z
-x,-x+y,-z
y,x,-z
-y,-x,-z
-x+y,y,-z
x,x-y,-z
-x,-y,-z
-x+y,-x,-z
y,-x+y,-z
x,y,-z
x-y,x,-z
-y,x-y,-z
-x+y,y,z
x,x-y,z
-y,-x,z
y,x,z
x-y,-y,z
-x,-x+y,z
loop_
_atom_site_type_symbol
_atom_site_label
_atom_site_fract_x
_atom_site_fract_y
_atom_site_fract_z
Si Si1 0.506285 0.666821 0.630478
Si Si2 0.642365 0.737159 0.131263
Si Si3 0.000000 0.831349 0.427221
Si Si4 0.741383 0.094530 0.000000
Si Si5 0.835870 0.333750 0.228659
Si Si6 0.662005 0.662005 0.571752
O O1 0.503030 0.751515 0.617125
O O2 0.416203 0.583798 0.618850
O O3 0.524112 0.667391 0.701535
O O4 0.580427 0.663644 0.595501
O O5 0.667787 0.833894 0.137342
O O6 0.717219 0.717219 0.135115
O O7 0.602689 0.708866 0.064249
O O8 0.576807 0.687820 0.183313
O O9 0.915557 0.831113 0.407990
O O10 0.000000 0.746863 0.409027
O O11 0.000000 0.832148 0.500000
O O12 0.838916 0.161085 0.000000
O O13 0.721365 0.000000 0.000000
O O14 0.845795 0.422898 0.215164
O O15 0.739555 0.260446 0.221421
O O16 0.660293 0.660293 0.500000
#
# Coordination Sequence:
#
# PCOD9588146 Si02
#       6
#    24  24  12  12  24  12
#     4  10  21  37  56  76 100 132 171 211 253 302
#     4   9  17  29  47  71  98 130 166 204 246 290
#     4   9  17  31  53  79 105 133 164 197 235 284
#     4   8  14  26  43  64  93 127 163 201 242 290
#     4   9  18  32  51  73  97 126 162 204 246 287
#     4  11  23  37  53  77 107 134 161 203 257 307
#
# _framework density 16.429368
#
# number of rings (size 3 to 8) (size 9 to 14) (size 15 to 20)
#    0.000    2.667    0.000    1.556    1.556    4.889 
#    0.000    0.556    0.000    3.667    0.000    4.667 
#    0.000    0.000    0.000    0.000    0.000    0.000 
#
# Total GULP energy -601239.306442 kJ/mol
# GULP energy per Si atom -5567.030615 kJ/mol
# Density = 1.639197 g / cm^3
# Si number density = 16.429368 Si / 1000 Ang^3
#
#
#
# Elastic Constant Matrix: (Units=GPa)
#
#
# Indices 1 2 3 4 5 6 
#
# 1 111.1506 78.0821 61.4972 0.0000 0.0000 0.0000
# 2 78.0821 111.1506 61.4972 0.0000 0.0000 0.0000
# 3 61.4972 61.4972 60.5715 0.0000 0.0000 0.0000
# 4 0.0000 0.0000 0.0000 24.6885 0.0000 0.0000
# 5 0.0000 0.0000 0.0000 0.0000 24.6885 0.0000
# 6 0.0000 0.0000 0.0000 0.0000 0.0000 16.5342
#
#
#
# Elastic Compliance Matrix: (Units=1/GPa)
#
#
# Indices 1 2 3 4 5 6 
#
# 1 0.022889 -0.007351 -0.015775 0.000000 0.000000 0.000000
# 2 -0.007351 0.022889 -0.015775 0.000000 0.000000 0.000000
# 3 -0.015775 -0.015775 0.048543 0.000000 0.000000 0.000000
# 4 0.000000 0.000000 0.000000 0.040505 0.000000 0.000000
# 5 0.000000 0.000000 0.000000 0.000000 0.040505 0.000000
# 6 0.000000 0.000000 0.000000 0.000000 0.000000 0.060481
#
#
# Mechanical properties :
#
#
# Convention : Reuss Voigt Hill
#
# Bulk Modulus (GPa) = 60.54485 76.11398 68.32942
# Shear Modulus (GPa) = 15.66806 18.63532 17.15169
#
# Velocity S-wave (km/s) = 3.09149 3.37154 3.23455
# Velocity P-wave (km/s) = 7.04803 7.84761 7.45854
#
# Compressibility (1/GPa) = 0.01651668
#
# Stress axis : x y z
#
# Youngs Moduli (GPa) = 43.68884 43.68884 20.60046
#
# Poissons Ratio (x) = 0.32116 0.32498
# Poissons Ratio (y) = 0.32116 0.32498
# Poissons Ratio (z) = 0.68921 0.68921
#
# Static dielectric constant tensor:
#      x y z
#    x 1.534250 0.000000 0.000000 
#    y 0.000000 1.534250 0.000000 
#    z 0.000000 0.000000 1.580780 
# 
# From -- ./inp_files/7400.got.cif
#   From: 2010.05.17/outbox.cif.g08.bks.cpg/sg191_4_cif.got.tgz:7400.got - 2010.05.20 12:20:32.
