data_PCOD9588654
_publ_section_title
;
Structure prediction by ZEFSAII (Michael W. Deem and Ramdas Pophale) SiO2 
 PCOD9588654
Probable space group: P 6/M C C
;
_chemical_formula_sum "Si O2"
_cell_formula_units_Z 132
_cell_length_a 23.124975
_cell_length_b 23.124975
_cell_length_c 14.603833
_cell_angle_alpha 90.000000
_cell_angle_beta 90.000000
_cell_angle_gamma 120.000000
_cell_volume 6763.321516
_symmetry_space_group_name_H-M "P 6/M C C"
_symmetry_group_IT_number 192
_symmetry_cell_setting 'hexagonal'
loop_
_space_group_symop_operation_xyz
x,y,z
x-y,x,z
-y,x-y,z
-x,-y,z
-x+y,-x,z
y,-x+y,z
x-y,-y,1/2-z
-x,-x+y,1/2-z
y,x,1/2-z
-y,-x,1/2-z
-x+y,y,1/2-z
x,x-y,1/2-z
-x,-y,-z
-x+y,-x,-z
y,-x+y,-z
x,y,-z
x-y,x,-z
-y,x-y,-z
-x+y,y,1/2+z
x,x-y,1/2+z
-y,-x,1/2+z
y,x,1/2+z
x-y,-y,1/2+z
-x,-x+y,1/2+z
loop_
_atom_site_type_symbol
_atom_site_label
_atom_site_fract_x
_atom_site_fract_y
_atom_site_fract_z
Si Si1 0.028644 0.276246 0.350150
Si Si2 0.421597 0.210799 0.750000
Si Si3 0.033998 0.887276 0.111108
Si Si4 0.701447 0.128396 0.393641
Si Si5 0.719470 0.623519 0.603466
Si Si6 0.002425 0.566689 0.389666
O O1 0.046212 0.218180 0.358464
O O2 0.963862 0.264272 0.406038
O O3 0.000000 0.274820 0.250000
O O4 0.091233 0.346478 0.379272
O O5 0.459220 0.271311 0.678877
O O6 0.382671 0.148573 0.679906
O O7 0.960379 0.870033 0.141700
O O8 0.034374 0.887814 0.000000
O O9 0.704505 0.147161 0.500000
O O10 0.627898 0.069278 0.370291
O O11 0.725902 0.601428 0.500000
O O12 0.641581 0.581605 0.636519
O O13 0.008846 0.567927 0.500000
O O14 0.000000 0.500000 0.355439
#
# Coordination Sequence:
#
# PCOD9588654 Si02
#       6
#    24  12  24  24  24  24
#     4  11  21  36  52  74 103 134 178 232 285 341
#     4  12  22  34  52  78 118 153 188 222 266 338
#     4  10  22  37  52  67  88 126 179 230 277 324
#     4  10  21  36  55  81 115 150 183 230 280 333
#     4  10  21  36  55  81 115 150 183 230 280 333
#     4   8  16  35  61  86 115 151 190 231 284 344
#
# _framework density 19.517039
#
# number of rings (size 3 to 8) (size 9 to 14) (size 15 to 20)
#    0.000    2.000    1.818    3.455    2.545    1.455 
#    0.000    1.818    0.000    1.091    0.000    0.000 
#    7.273    0.000    6.545    0.000    0.000    0.364 
#
# Total GULP energy -736332.020532 kJ/mol
# GULP energy per Si atom -5578.272883 kJ/mol
# Density = 1.947262 g / cm^3
# Si number density = 19.517039 Si / 1000 Ang^3
#
#
#
# Elastic Constant Matrix: (Units=GPa)
#
#
# Indices 1 2 3 4 5 6 
#
# 1 68.0867 52.0347 20.3168 0.0000 0.0000 0.0000
# 2 52.0347 68.0867 20.3168 0.0000 0.0000 0.0000
# 3 20.3168 20.3168 122.1911 0.0000 0.0000 0.0000
# 4 0.0000 0.0000 0.0000 -51.1574 0.0000 0.0000
# 5 0.0000 0.0000 0.0000 0.0000 -51.1574 0.0000
# 6 0.0000 0.0000 0.0000 0.0000 0.0000 8.0260
#
#
#
# Elastic Compliance Matrix: (Units=1/GPa)
#
#
# Indices 1 2 3 4 5 6 
#
# 1 0.035559 -0.026738 -0.001467 0.000000 0.000000 0.000000
# 2 -0.026738 0.035559 -0.001467 0.000000 0.000000 0.000000
# 3 -0.001467 -0.001467 0.008672 0.000000 0.000000 0.000000
# 4 0.000000 0.000000 0.000000 -0.019547 0.000000 0.000000
# 5 0.000000 0.000000 0.000000 0.000000 -0.019547 0.000000
# 6 0.000000 0.000000 0.000000 0.000000 0.000000 0.124595
#
#
# Mechanical properties :
#
#
# Convention : Reuss Voigt Hill
#
# Bulk Modulus (GPa) = 48.90695 49.30014 49.10354
# Shear Modulus (GPa) = 21.60303 -7.81137 6.89583
#
# Velocity S-wave (km/s) = 3.33059 -2.00275 1.88173
# Velocity P-wave (km/s) = 6.31692 4.46843 5.47130
#
# Compressibility (1/GPa) = 0.02044699
#
# Stress axis : x y z
#
# Youngs Moduli (GPa) = 28.12206 28.12206 115.31847
#
# Poissons Ratio (x) = 0.75193 0.16914
# Poissons Ratio (y) = 0.75193 0.16914
# Poissons Ratio (z) = 0.04125 0.04125
#
# Static dielectric constant tensor:
#      x y z
#    x 1.687020 0.000000 0.000000 
#    y 0.000000 1.687020 0.000000 
#    z 0.000000 0.000000 1.789400 
# 
# From -- ./inp_files/3241.got.cif
#   From: 2010.05.17/outbox.cif.g08.bks.cpg/sg192_2_cif.got.tgz:3241.got - 2010.05.20 12:28:01.
