data_PCOD9588112
_publ_section_title
;
Structure prediction by ZEFSAII (Michael W. Deem and Ramdas Pophale) SiO2 
 PCOD9588112
Probable space group: P 6/M M M
;
_chemical_formula_sum "Si O2"
_cell_formula_units_Z 168
_cell_length_a 18.465499
_cell_length_b 18.465499
_cell_length_c 34.047185
_cell_angle_alpha 90.000000
_cell_angle_beta 90.000000
_cell_angle_gamma 120.000000
_cell_volume 10053.885589
_symmetry_space_group_name_H-M "P 6/M M M"
_symmetry_group_IT_number 191
_symmetry_cell_setting 'hexagonal'
loop_
_space_group_symop_operation_xyz
x,y,z
x-y,x,z
-y,x-y,z
-x,-y,z
-x+y,-x,z
y,-x+y,z
x-y,-y,-z
-x,-x+y,-z
y,x,-z
-y,-x,-z
-x+y,y,-z
x,x-y,-z
-x,-y,-z
-x+y,-x,-z
y,-x+y,-z
x,y,-z
x-y,x,-z
-y,x-y,-z
-x+y,y,z
x,x-y,z
-y,-x,z
y,x,z
x-y,-y,z
-x,-x+y,z
loop_
_atom_site_type_symbol
_atom_site_label
_atom_site_fract_x
_atom_site_fract_y
_atom_site_fract_z
Si Si1 0.000000 0.167953 0.952175
Si Si2 0.333882 0.833214 0.825239
Si Si3 0.000000 0.336194 0.047111
Si Si4 0.906853 0.259523 0.545155
Si Si5 0.836691 0.503219 0.919469
Si Si6 0.503465 0.837348 0.393192
Si Si7 0.333494 0.496509 0.697781
Si Si8 0.905664 0.263354 0.236365
O O1 0.084038 0.168075 0.939572
O O2 0.000000 0.251934 0.939886
O O3 0.000000 0.167445 0.000000
O O4 0.424254 0.848508 0.813131
O O5 0.262621 0.737380 0.816654
O O6 0.334467 0.844824 0.872046
O O7 0.305485 0.889576 0.801790
O O8 0.917119 0.335145 0.062145
O O9 0.000000 0.337080 0.000000
O O10 0.897704 0.281171 0.500000
O O11 0.835557 0.164444 0.551713
O O12 0.890854 0.314955 0.576140
O O13 0.000000 0.276950 0.549618
O O14 0.751013 0.502025 0.930163
O O15 0.832270 0.416135 0.930487
O O16 0.421000 0.841999 0.401228
O O17 0.484467 0.742234 0.397002
O O18 0.527686 0.861938 0.347686
O O19 0.259849 0.519698 0.701487
O O20 0.422715 0.577286 0.706809
O O21 0.308283 0.420061 0.727028
O O22 0.833466 0.166535 0.236954
O O23 0.000000 0.283095 0.237114
#
# Coordination Sequence:
#
# PCOD9588112 Si02
#       8
#    12  24  12  24  24  24  24  24
#     4   9  17  31  53  79 105 133 165 203 249 303
#     4   9  18  32  52  77 105 135 166 198 234 278
#     4  11  23  37  53  77 107 137 169 211 261 305
#     4   9  18  32  48  65  86 115 153 198 248 299
#     4  10  21  37  56  77 103 137 176 214 252 297
#     4   9  17  29  45  66  95 131 168 201 233 273
#     4   9  17  29  46  70 101 136 168 197 232 279
#     4  10  21  35  51  73 100 130 163 201 246 293
#
# _framework density 16.709958
#
# number of rings (size 3 to 8) (size 9 to 14) (size 15 to 20)
#    0.000    2.571    0.000    1.714    1.000    6.286 
#    0.000    3.571    0.000    2.000    0.000    1.000 
#    0.000    0.000    0.000    7.143    0.000    3.714 
#
# Total GULP energy -936963.030318 kJ/mol
# GULP energy per Si atom -5577.160895 kJ/mol
# Density = 1.667192 g / cm^3
# Si number density = 16.709958 Si / 1000 Ang^3
#
#
#
# Elastic Constant Matrix: (Units=GPa)
#
#
# Indices 1 2 3 4 5 6 
#
# 1 111.6031 86.4839 40.4132 0.0000 0.0000 0.0000
# 2 86.4839 111.6031 40.4132 0.0000 0.0000 0.0000
# 3 40.4132 40.4132 35.9438 0.0000 0.0000 0.0000
# 4 0.0000 0.0000 0.0000 18.4321 0.0000 0.0000
# 5 0.0000 0.0000 0.0000 0.0000 18.4321 0.0000
# 6 0.0000 0.0000 0.0000 0.0000 0.0000 12.5596
#
#
#
# Elastic Compliance Matrix: (Units=1/GPa)
#
#
# Indices 1 2 3 4 5 6 
#
# 1 0.024569 -0.015241 -0.010487 0.000000 0.000000 0.000000
# 2 -0.015241 0.024569 -0.010487 0.000000 0.000000 0.000000
# 3 -0.010487 -0.010487 0.051404 0.000000 0.000000 0.000000
# 4 0.000000 0.000000 0.000000 0.054253 0.000000 0.000000
# 5 0.000000 0.000000 0.000000 0.000000 0.054253 0.000000
# 6 0.000000 0.000000 0.000000 0.000000 0.000000 0.079620
#
#
# Mechanical properties :
#
#
# Convention : Reuss Voigt Hill
#
# Bulk Modulus (GPa) = 35.57502 65.97450 50.77476
# Shear Modulus (GPa) = 13.49640 16.00744 14.75192
#
# Velocity S-wave (km/s) = 2.84507 3.09845 2.97446
# Velocity P-wave (km/s) = 5.66820 7.23660 6.49988
#
# Compressibility (1/GPa) = 0.02810961
#
# Stress axis : x y z
#
# Youngs Moduli (GPa) = 40.70206 40.70206 19.45384
#
# Poissons Ratio (x) = 0.62035 0.20402
# Poissons Ratio (y) = 0.62035 0.20402
# Poissons Ratio (z) = 0.42685 0.42685
#
# Static dielectric constant tensor:
#      x y z
#    x 1.545510 0.000000 0.000000 
#    y 0.000000 1.545510 0.000000 
#    z 0.000000 0.000000 1.574770 
# 
# From -- ./inp_files/10784.got.cif
#   From: 2010.05.17/outbox.cif.g08.bks.cpg/sg191_6_cif.got.tgz:10784.got - 2010.05.20 12:20:32.
