data_PCOD9588107
_publ_section_title
;
Structure prediction by ZEFSAII (Michael W. Deem and Ramdas Pophale) SiO2 
 PCOD9588107
Probable space group: P 6/M M M
;
_chemical_formula_sum "Si O2"
_cell_formula_units_Z 168
_cell_length_a 18.722788
_cell_length_b 18.722788
_cell_length_c 35.120071
_cell_angle_alpha 90.000000
_cell_angle_beta 90.000000
_cell_angle_gamma 120.000000
_cell_volume 10661.714688
_symmetry_space_group_name_H-M "P 6/M M M"
_symmetry_group_IT_number 191
_symmetry_cell_setting 'hexagonal'
loop_
_space_group_symop_operation_xyz
x,y,z
x-y,x,z
-y,x-y,z
-x,-y,z
-x+y,-x,z
y,-x+y,z
x-y,-y,-z
-x,-x+y,-z
y,x,-z
-y,-x,-z
-x+y,y,-z
x,x-y,-z
-x,-y,-z
-x+y,-x,-z
y,-x+y,-z
x,y,-z
x-y,x,-z
-y,x-y,-z
-x+y,y,z
x,x-y,z
-y,-x,z
y,x,z
x-y,-y,z
-x,-x+y,z
loop_
_atom_site_type_symbol
_atom_site_label
_atom_site_fract_x
_atom_site_fract_y
_atom_site_fract_z
Si Si1 0.255886 0.907734 0.544409
Si Si2 0.907734 0.255887 0.955591
Si Si3 0.166022 0.666305 0.188347
Si Si4 0.641146 0.904855 0.749999
Si Si5 0.500284 0.666305 0.688345
Si Si6 0.665797 0.165899 0.098891
Si Si7 0.165900 0.665797 0.401110
O O1 0.273757 0.899864 0.500000
O O2 0.162213 0.837787 0.551849
O O3 0.312485 0.889098 0.572009
O O4 0.275117 0.000000 0.550333
O O5 0.837787 0.162214 0.948153
O O6 0.889097 0.312484 0.927990
O O7 0.000000 0.275119 0.949668
O O8 0.899863 0.273760 0.000000
O O9 0.155984 0.577992 0.198712
O O10 0.261442 0.738559 0.193335
O O11 0.113293 0.693664 0.213982
O O12 0.145568 0.664183 0.143639
O O13 0.666048 0.833024 0.749999
O O14 0.580372 0.886710 0.713980
O O15 0.713032 0.000000 0.750000
O O16 0.477120 0.738560 0.693334
O O17 0.422008 0.577993 0.698710
O O18 0.518615 0.664184 0.643637
O O19 0.579438 0.158876 0.089142
O O20 0.740177 0.259824 0.094157
O O21 0.158876 0.579438 0.410860
O O22 0.259824 0.740177 0.405845
#
# Coordination Sequence:
#
# PCOD9588107 Si02
#       7
#    24  24  24  24  24  24  24
#     4   9  18  32  48  65  86 113 145 182 226 274
#     4   9  18  32  48  65  86 113 145 182 226 274
#     4   9  17  29  46  68  95 126 156 183 211 248
#     4  10  21  35  49  66  89 117 148 184 227 271
#     4   9  17  29  46  68  95 126 156 183 211 248
#     4   9  17  29  45  66  93 125 158 187 213 244
#     4   9  17  29  45  66  93 125 158 187 213 244
#
# _framework density 15.757315
#
# number of rings (size 3 to 8) (size 9 to 14) (size 15 to 20)
#    0.000    2.857    0.000    1.000    0.000    5.714 
#    0.000    5.714    0.000    2.143    0.000    2.000 
#    0.000    0.000    0.000   14.286    0.000    7.429 
#
# Total GULP energy -936154.508259 kJ/mol
# GULP energy per Si atom -5572.348263 kJ/mol
# Density = 1.572145 g / cm^3
# Si number density = 15.757315 Si / 1000 Ang^3
#
#
#
# Elastic Constant Matrix: (Units=GPa)
#
#
# Indices 1 2 3 4 5 6 
#
# 1 80.1521 71.2058 46.4819 0.0000 0.0000 0.0000
# 2 71.2058 80.1521 46.4819 0.0000 0.0000 0.0000
# 3 46.4819 46.4819 48.6062 0.0000 0.0000 0.0000
# 4 0.0000 0.0000 0.0000 18.6348 0.0000 0.0000
# 5 0.0000 0.0000 0.0000 0.0000 18.6348 0.0000
# 6 0.0000 0.0000 0.0000 0.0000 0.0000 4.4731
#
#
#
# Elastic Compliance Matrix: (Units=1/GPa)
#
#
# Indices 1 2 3 4 5 6 
#
# 1 0.063895 -0.047884 -0.015311 0.000000 0.000000 0.000000
# 2 -0.047884 0.063895 -0.015311 0.000000 0.000000 0.000000
# 3 -0.015311 -0.015311 0.049858 0.000000 0.000000 0.000000
# 4 0.000000 0.000000 0.000000 0.053663 0.000000 0.000000
# 5 0.000000 0.000000 0.000000 0.000000 0.053663 0.000000
# 6 0.000000 0.000000 0.000000 0.000000 0.000000 0.223556
#
#
# Mechanical properties :
#
#
# Convention : Reuss Voigt Hill
#
# Bulk Modulus (GPa) = 48.46211 59.69437 54.07824
# Shear Modulus (GPa) = 7.43584 11.33129 9.38356
#
# Velocity S-wave (km/s) = 2.17468 2.68454 2.44294
# Velocity P-wave (km/s) = 6.09325 6.89745 6.50778
#
# Compressibility (1/GPa) = 0.02063468
#
# Stress axis : x y z
#
# Youngs Moduli (GPa) = 15.65078 15.65078 20.05710
#
# Poissons Ratio (x) = 0.74942 0.30710
# Poissons Ratio (y) = 0.74942 0.30710
# Poissons Ratio (z) = 0.23963 0.23963
#
# Static dielectric constant tensor:
#      x y z
#    x 1.509770 0.000000 0.000000 
#    y 0.000000 1.509770 0.000000 
#    z 0.000000 0.000000 1.539660 
# 
# From -- ./inp_files/10735.got.cif
#   From: 2010.05.17/outbox.cif.g08.bks.cpg/sg191_6_cif.got.tgz:10735.got - 2010.05.20 12:20:32.
