data_PCOD9588318
_publ_section_title
;
Structure prediction by ZEFSAII (Michael W. Deem and Ramdas Pophale) SiO2 
 PCOD9588318
Probable space group: P 6/M C C
;
_chemical_formula_sum "Si O2"
_cell_formula_units_Z 56
_cell_length_a 13.437479
_cell_length_b 13.437479
_cell_length_c 17.178941
_cell_angle_alpha 90.000000
_cell_angle_beta 90.000000
_cell_angle_gamma 120.000000
_cell_volume 2686.350132
_symmetry_space_group_name_H-M "P 6/M C C"
_symmetry_group_IT_number 192
_symmetry_cell_setting 'hexagonal'
loop_
_space_group_symop_operation_xyz
x,y,z
x-y,x,z
-y,x-y,z
-x,-y,z
-x+y,-x,z
y,-x+y,z
x-y,-y,1/2-z
-x,-x+y,1/2-z
y,x,1/2-z
-y,-x,1/2-z
-x+y,y,1/2-z
x,x-y,1/2-z
-x,-y,-z
-x+y,-x,-z
y,-x+y,-z
x,y,-z
x-y,x,-z
-y,x-y,-z
-x+y,y,1/2+z
x,x-y,1/2+z
-y,-x,1/2+z
y,x,1/2+z
x-y,-y,1/2+z
-x,-x+y,1/2+z
loop_
_atom_site_type_symbol
_atom_site_label
_atom_site_fract_x
_atom_site_fract_y
_atom_site_fract_z
Si Si1 0.783134 0.770771 0.342090
Si Si2 0.666768 0.142631 0.804153
Si Si3 0.333334 0.666668 0.908510
O O1 0.768496 0.874143 0.375603
O O2 0.799068 0.799068 0.250000
O O3 0.678038 0.639699 0.340054
O O4 0.779433 0.220568 0.750000
O O5 0.559541 0.119081 0.750000
O O6 0.669326 0.224482 0.872423
O O7 0.333334 0.666668 0.000000
#
# Coordination Sequence:
#
# PCOD9588318 Si02
#       3
#    24  24   8
#     4  10  18  30  48  80 111 143 174 225 273 322
#     4   9  17  32  49  80 110 142 175 219 283 327
#     4   9  19  35  55  75 109 146 184 225 271 341
#
# _framework density 20.846128
#
# number of rings (size 3 to 8) (size 9 to 14) (size 15 to 20)
#    0.000    2.571    4.286    2.143    0.000    2.571 
#    0.000    0.000    0.000    5.143    0.000    0.000 
#    0.000    3.429    0.000    0.000    0.000    0.000 
#
# Total GULP energy -312048.619857 kJ/mol
# GULP energy per Si atom -5572.296783 kJ/mol
# Density = 2.079868 g / cm^3
# Si number density = 20.846128 Si / 1000 Ang^3
#
#
#
# Elastic Constant Matrix: (Units=GPa)
#
#
# Indices 1 2 3 4 5 6 
#
# 1 125.6894 54.0302 18.7956 0.0000 -0.0001 -0.0001
# 2 54.0302 125.6878 18.7956 -0.0001 -0.0001 -0.0003
# 3 18.7956 18.7956 78.9128 -0.0002 -0.0001 0.0001
# 4 0.0000 -0.0001 -0.0002 3.3893 -0.0001 0.0000
# 5 -0.0001 -0.0001 -0.0001 -0.0001 3.3894 0.0000
# 6 -0.0001 -0.0003 0.0001 0.0000 0.0000 35.8290
#
#
#
# Elastic Compliance Matrix: (Units=1/GPa)
#
#
# Indices 1 2 3 4 5 6 
#
# 1 0.009905 -0.004050 -0.001395 0.000000 0.000000 0.000000
# 2 -0.004050 0.009906 -0.001395 0.000000 0.000000 0.000000
# 3 -0.001395 -0.001395 0.013337 0.000001 0.000000 0.000000
# 4 0.000000 0.000000 0.000001 0.295050 0.000007 0.000000
# 5 0.000000 0.000000 0.000000 0.000007 0.295038 0.000000
# 6 0.000000 0.000000 0.000000 0.000000 0.000000 0.027910
#
#
# Mechanical properties :
#
#
# Convention : Reuss Voigt Hill
#
# Bulk Modulus (GPa) = 51.36248 57.05919 54.21084
# Shear Modulus (GPa) = 7.44807 24.43277 15.94042
#
# Velocity S-wave (km/s) = 1.89226 3.42724 2.76827
# Velocity P-wave (km/s) = 5.42831 6.56447 6.02324
#
# Compressibility (1/GPa) = 0.01946946
#
# Stress axis : x y z
#
# Youngs Moduli (GPa) = 100.95419 100.95283 74.98137
#
# Poissons Ratio (x) = 0.40881 0.10458
# Poissons Ratio (y) = 0.40882 0.10458
# Poissons Ratio (z) = 0.14081 0.14081
#
# Static dielectric constant tensor:
#      x y z
#    x 1.839980 0.000000 0.000000 
#    y 0.000000 1.839980 0.000000 
#    z 0.000000 0.000000 1.693960 
# 
# From -- ./inp_files/2204.got.cif
#   From: 2010.05.17/outbox.cif.g08.bks.cpg/sg192_2_cif.got.tgz:2204.got - 2010.05.20 12:28:01.
