data_PCOD9588526
_publ_section_title
;
Structure prediction by ZEFSAII (Michael W. Deem and Ramdas Pophale) SiO2 
 PCOD9588526
Probable space group: P 6/M C C
;
_chemical_formula_sum "Si O2"
_cell_formula_units_Z 144
_cell_length_a 32.949059
_cell_length_b 32.949059
_cell_length_c 8.693382
_cell_angle_alpha 90.000000
_cell_angle_beta 90.000000
_cell_angle_gamma 120.000000
_cell_volume 8173.450320
_symmetry_space_group_name_H-M "P 6/M C C"
_symmetry_group_IT_number 192
_symmetry_cell_setting 'hexagonal'
loop_
_space_group_symop_operation_xyz
x,y,z
x-y,x,z
-y,x-y,z
-x,-y,z
-x+y,-x,z
y,-x+y,z
x-y,-y,1/2-z
-x,-x+y,1/2-z
y,x,1/2-z
-y,-x,1/2-z
-x+y,y,1/2-z
x,x-y,1/2-z
-x,-y,-z
-x+y,-x,-z
y,-x+y,-z
x,y,-z
x-y,x,-z
-y,x-y,-z
-x+y,y,1/2+z
x,x-y,1/2+z
-y,-x,1/2+z
y,x,1/2+z
x-y,-y,1/2+z
-x,-x+y,1/2+z
loop_
_atom_site_type_symbol
_atom_site_label
_atom_site_fract_x
_atom_site_fract_y
_atom_site_fract_z
Si Si1 0.284073 0.379794 0.815917
Si Si2 0.192000 0.896659 0.815746
Si Si3 0.281725 0.473938 0.183411
Si Si4 0.191665 0.140279 0.684669
Si Si5 0.471967 0.616784 0.183876
Si Si6 0.613863 0.564553 0.315786
O O1 0.243771 0.333260 0.737448
O O2 0.274801 0.422710 0.779368
O O3 0.335979 0.397063 0.753345
O O4 0.282759 0.373952 0.000000
O O5 0.154714 0.845287 0.750000
O O6 0.175454 0.931176 0.745415
O O7 0.188453 0.896124 0.000000
O O8 0.239179 0.478358 0.250000
O O9 0.331671 0.511681 0.252304
O O10 0.283148 0.478309 0.000000
O O11 0.157633 0.157633 0.750000
O O12 0.179454 0.089727 0.750000
O O13 0.191555 0.139750 0.500000
O O14 0.423277 0.576724 0.250000
O O15 0.513827 0.606521 0.227915
O O16 0.469895 0.617332 0.000000
O O17 0.574667 0.574667 0.250000
O O18 0.615626 0.568136 0.500000
#
# Coordination Sequence:
#
# PCOD9588526 Si02
#       6
#    24  24  24  24  24  24
#     4  10  20  34  52  76 107 144 183 225 268 314
#     4  11  21  34  52  77 108 143 181 221 263 312
#     4  10  20  34  55  81 109 140 176 217 265 318
#     4  11  22  39  60  84 111 142 179 220 265 315
#     4  10  21  37  57  80 107 138 176 220 268 320
#     4  10  21  36  53  75 104 140 181 226 271 318
#
# _framework density 17.618019
#
# number of rings (size 3 to 8) (size 9 to 14) (size 15 to 20)
#    0.000    1.667    0.000    6.500    0.000    6.333 
#    0.000    5.000    0.000    0.500    0.000    3.500 
#    0.000    0.000    0.000    0.000    0.000    0.000 
#
# Total GULP energy -804776.049426 kJ/mol
# GULP energy per Si atom -5588.722565 kJ/mol
# Density = 1.757792 g / cm^3
# Si number density = 17.618019 Si / 1000 Ang^3
#
#
#
# Elastic Constant Matrix: (Units=GPa)
#
#
# Indices 1 2 3 4 5 6 
#
# 1 76.7482 53.9435 40.8424 0.0000 0.0000 0.0000
# 2 53.9435 76.7482 40.8424 0.0000 0.0000 0.0000
# 3 40.8424 40.8424 106.2603 0.0000 0.0000 0.0000
# 4 0.0000 0.0000 0.0000 29.5954 0.0000 0.0000
# 5 0.0000 0.0000 0.0000 0.0000 29.5954 0.0000
# 6 0.0000 0.0000 0.0000 0.0000 0.0000 11.4024
#
#
#
# Elastic Compliance Matrix: (Units=1/GPa)
#
#
# Indices 1 2 3 4 5 6 
#
# 1 0.026961 -0.016890 -0.003871 0.000000 0.000000 0.000000
# 2 -0.016890 0.026961 -0.003871 0.000000 0.000000 0.000000
# 3 -0.003871 -0.003871 0.012386 0.000000 0.000000 0.000000
# 4 0.000000 0.000000 0.000000 0.033789 0.000000 0.000000
# 5 0.000000 0.000000 0.000000 0.000000 0.033789 0.000000
# 6 0.000000 0.000000 0.000000 0.000000 0.000000 0.087701
#
#
# Mechanical properties :
#
#
# Convention : Reuss Voigt Hill
#
# Bulk Modulus (GPa) = 58.66869 59.00147 58.83508
# Shear Modulus (GPa) = 18.08108 22.39386 20.23747
#
# Velocity S-wave (km/s) = 3.20704 3.56908 3.39290
# Velocity P-wave (km/s) = 6.86194 7.10960 6.98687
#
# Compressibility (1/GPa) = 0.01704487
#
# Stress axis : x y z
#
# Youngs Moduli (GPa) = 37.09093 37.09093 80.73310
#
# Poissons Ratio (x) = 0.62646 0.31251
# Poissons Ratio (y) = 0.62646 0.31251
# Poissons Ratio (z) = 0.14357 0.14357
#
# Static dielectric constant tensor:
#      x y z
#    x 1.582230 0.000000 0.000000 
#    y 0.000000 1.582230 0.000000 
#    z 0.000000 0.000000 1.583540 
# 
# From -- ./inp_files/1144.got.cif
#   From: 2010.05.17/outbox.cif.g08.bks.cpg/sg192_1_cif.got.tgz:1144.got - 2010.05.20 12:28:01.
