data_PCOD9588866
_publ_section_title
;
Structure prediction by ZEFSAII (Michael W. Deem and Ramdas Pophale) SiO2 
 PCOD9588866
Probable space group: P 6/M C C
;
_chemical_formula_sum "Si O2"
_cell_formula_units_Z 144
_cell_length_a 21.000000
_cell_length_b 21.000000
_cell_length_c 21.000000
_cell_angle_alpha 90.000000
_cell_angle_beta 90.000000
_cell_angle_gamma 120.000000
_cell_volume 8020.261264
_symmetry_space_group_name_H-M "P 6/M C C"
_symmetry_group_IT_number 192
_symmetry_cell_setting 'hexagonal'
loop_
_space_group_symop_operation_xyz
x,y,z
x-y,x,z
-y,x-y,z
-x,-y,z
-x+y,-x,z
y,-x+y,z
x-y,-y,1/2-z
-x,-x+y,1/2-z
y,x,1/2-z
-y,-x,1/2-z
-x+y,y,1/2-z
x,x-y,1/2-z
-x,-y,-z
-x+y,-x,-z
y,-x+y,-z
x,y,-z
x-y,x,-z
-y,x-y,-z
-x+y,y,1/2+z
x,x-y,1/2+z
-y,-x,1/2+z
y,x,1/2+z
x-y,-y,1/2+z
-x,-x+y,1/2+z
loop_
_atom_site_type_symbol
_atom_site_label
_atom_site_fract_x
_atom_site_fract_y
_atom_site_fract_z
Si Si1 0.587526 0.675531 0.925030
Si Si2 0.522234 0.184797 0.820328
Si Si3 0.834211 0.894150 0.577763
Si Si4 0.520746 0.188496 0.675879
Si Si5 0.342697 0.913923 0.571718
Si Si6 0.158108 0.831726 0.925572
O O1 0.518673 0.647242 0.878614
O O2 0.625599 0.626155 0.921354
O O3 0.641430 0.759266 0.901775
O O4 0.569164 0.677745 0.000000
O O5 0.495900 0.159572 0.747952
O O6 0.609045 0.215911 0.823866
O O7 0.507094 0.250890 0.835206
O O8 0.485714 0.119978 0.871274
O O9 0.887040 0.864355 0.598293
O O10 0.835079 0.891364 0.500000
O O11 0.751043 0.847708 0.601501
O O12 0.362183 0.901050 0.500000
O O13 0.254313 0.871515 0.576601
O O14 0.164312 0.852608 0.000000
#
# Coordination Sequence:
#
# PCOD9588866 Si02
#       6
#    24  24  24  24  24  24
#     4  10  20  34  54  80 109 142 180 221 264 314
#     4  10  21  38  59  81 106 138 177 219 265 318
#     4   9  15  22  35  59  93 133 176 220 264 309
#     4  10  21  38  59  81 106 138 177 219 265 318
#     4  10  20  34  54  80 109 142 180 221 264 314
#     4   9  16  29  47  68  99 139 180 216 257 309
#
# _framework density 17.954526999999999
#
# number of rings (size 3 to 8) (size 9 to 14) (size 15 to 20)
#    0.000    2.333    1.667    1.500    0.000    8.000 
#    0.000    3.333    0.000    2.000    0.000    0.000 
#    0.000    0.000    0.000    0.000    0.000   11.833 
#
# Total GULP energy -801687.060657 kJ/mol
# GULP energy per Si atom -5567.271255 kJ/mol
# Density = 1.791366 g / cm^3
# Si number density = 17.954527 Si / 1000 Ang^3
#
#
#
# Elastic Constant Matrix: (Units=GPa)
#
#
# Indices 1 2 3 4 5 6 
#
# 1 106.1083 -85.6642 30.6054 0.0000 0.0000 0.0000
# 2 -85.6642 106.1083 30.6054 0.0000 0.0000 0.0000
# 3 30.6054 30.6054 72.5365 0.0000 0.0000 0.0000
# 4 0.0000 0.0000 0.0000 18.2709 0.0000 0.0000
# 5 0.0000 0.0000 0.0000 0.0000 18.2709 0.0000
# 6 0.0000 0.0000 0.0000 0.0000 0.0000 95.8863
#
#
#
# Elastic Compliance Matrix: (Units=1/GPa)
#
#
# Indices 1 2 3 4 5 6 
#
# 1 -0.090283 -0.095498 0.078387 0.000000 0.000000 0.000000
# 2 -0.095498 -0.090283 0.078387 0.000000 0.000000 0.000000
# 3 0.078387 0.078387 -0.052362 0.000000 0.000000 0.000000
# 4 0.000000 0.000000 0.000000 0.054732 0.000000 0.000000
# 5 0.000000 0.000000 0.000000 0.000000 0.054732 0.000000
# 6 0.000000 0.000000 0.000000 0.000000 0.000000 0.010429
#
#
# Mechanical properties :
#
#
# Convention : Reuss Voigt Hill
#
# Bulk Modulus (GPa) = -9.05996 26.20517 8.57260
# Shear Modulus (GPa) = -18.35677 47.09938 14.37130
#
# Velocity S-wave (km/s) = -3.20097 5.12733 2.83225
# Velocity P-wave (km/s) = 4.32651 7.04838 3.93453
#
# Compressibility (1/GPa) = -0.11037577
#
# Stress axis : x y z
#
# Youngs Moduli (GPa) = -11.07627 -11.07627 -19.09796
#
# Poissons Ratio (x) = -1.05776 1.49703
# Poissons Ratio (y) = -1.05776 1.49703
# Poissons Ratio (z) = 0.86823 0.86823
#
# Static dielectric constant tensor:
#      x y z
#    x 1.626930 0.000000 0.000000 
#    y 0.000000 1.626930 0.000000 
#    z 0.000000 0.000000 1.606560 
# 
# From -- ./inp_files/5102.got.cif
#   From: 2010.05.17/outbox.ucp.g08.bks.cvg/sg192_3_cif.got.tgz:5102.got - 2010.06.11 15:23:19.
