data_PCOD9588300
_publ_section_title
;
Structure prediction by ZEFSAII (Michael W. Deem and Ramdas Pophale) SiO2 
 PCOD9588300
Probable space group: P 6/M C C
;
_chemical_formula_sum "Si O2"
_cell_formula_units_Z 96
_cell_length_a 18.122307
_cell_length_b 18.122307
_cell_length_c 20.355558
_cell_angle_alpha 90.000000
_cell_angle_beta 90.000000
_cell_angle_gamma 120.000000
_cell_volume 5789.494028
_symmetry_space_group_name_H-M "P 6/M C C"
_symmetry_group_IT_number 192
_symmetry_cell_setting 'hexagonal'
loop_
_space_group_symop_operation_xyz
x,y,z
x-y,x,z
-y,x-y,z
-x,-y,z
-x+y,-x,z
y,-x+y,z
x-y,-y,1/2-z
-x,-x+y,1/2-z
y,x,1/2-z
-y,-x,1/2-z
-x+y,y,1/2-z
x,x-y,1/2-z
-x,-y,-z
-x+y,-x,-z
y,-x+y,-z
x,y,-z
x-y,x,-z
-y,x-y,-z
-x+y,y,1/2+z
x,x-y,1/2+z
-y,-x,1/2+z
y,x,1/2+z
x-y,-y,1/2+z
-x,-x+y,1/2+z
loop_
_atom_site_type_symbol
_atom_site_label
_atom_site_fract_x
_atom_site_fract_y
_atom_site_fract_z
Si Si1 0.223845 0.839618 0.500000
Si Si2 0.492367 0.181699 0.870199
Si Si3 0.303462 0.338395 0.500000
Si Si4 0.539353 0.180734 0.314085
Si Si5 0.410982 0.419987 0.629890
O O1 0.264114 0.817465 0.562636
O O2 0.121893 0.785830 0.500000
O O3 0.256152 0.940410 0.500000
O O4 0.586998 0.192923 0.872795
O O5 0.503785 0.259634 0.825860
O O6 0.433934 0.084327 0.844929
O O7 0.350942 0.386529 0.566688
O O8 0.596904 0.193808 0.250000
O O9 0.460941 0.084892 0.317851
O O10 0.500000 0.500000 0.607047
#
# Coordination Sequence:
#
# PCOD9588300 Si02
#       5
#    12  24  12  24  24
#     4  10  20  34  58  79 104 130 168 223 276 309
#     4  10  21  34  50  75  97 137 174 224 264 311
#     4  10  17  34  54  79 102 130 167 216 269 321
#     4  11  21  35  51  71 104 141 179 217 257 308
#     4   9  19  32  52  71  99 132 175 220 266 306
#
# _framework density 16.581759000000002
#
# number of rings (size 3 to 8) (size 9 to 14) (size 15 to 20)
#    0.000    2.000    2.500    1.625    0.000    8.500 
#    0.000    0.000    0.000    0.250    0.000    0.000 
#    0.000    0.000    0.000    0.000    0.000    0.000 
#
# Total GULP energy -534583.957968 kJ/mol
# GULP energy per Si atom -5568.582896 kJ/mol
# Density = 1.654402 g / cm^3
# Si number density = 16.581759 Si / 1000 Ang^3
#
#
#
# Elastic Constant Matrix: (Units=GPa)
#
#
# Indices 1 2 3 4 5 6 
#
# 1 121.9635 73.2053 50.8654 0.0000 0.0000 0.0000
# 2 73.2053 121.9635 50.8654 0.0000 0.0000 0.0000
# 3 50.8654 50.8654 78.6454 0.0000 0.0000 0.0000
# 4 0.0000 0.0000 0.0000 16.0847 0.0000 0.0000
# 5 0.0000 0.0000 0.0000 0.0000 16.0847 0.0000
# 6 0.0000 0.0000 0.0000 0.0000 0.0000 24.3791
#
#
#
# Elastic Compliance Matrix: (Units=1/GPa)
#
#
# Indices 1 2 3 4 5 6 
#
# 1 0.014119 -0.006390 -0.004999 0.000000 0.000000 0.000000
# 2 -0.006390 0.014119 -0.004999 0.000000 0.000000 0.000000
# 3 -0.004999 -0.004999 0.019182 0.000000 0.000000 0.000000
# 4 0.000000 0.000000 0.000000 0.062171 0.000000 0.000000
# 5 0.000000 0.000000 0.000000 0.000000 0.062171 0.000000
# 6 0.000000 0.000000 0.000000 0.000000 0.000000 0.041019
#
#
# Mechanical properties :
#
#
# Convention : Reuss Voigt Hill
#
# Bulk Modulus (GPa) = 68.28647 74.71604 71.50126
# Shear Modulus (GPa) = 19.96487 21.15212 20.55850
#
# Velocity S-wave (km/s) = 3.47367 3.57547 3.52494
# Velocity P-wave (km/s) = 7.57361 7.88684 7.73181
#
# Compressibility (1/GPa) = 0.01464419
#
# Stress axis : x y z
#
# Youngs Moduli (GPa) = 70.82407 70.82407 52.13206
#
# Poissons Ratio (x) = 0.45256 0.26062
# Poissons Ratio (y) = 0.45256 0.26062
# Poissons Ratio (z) = 0.35407 0.35407
#
# Static dielectric constant tensor:
#      x y z
#    x 1.577380 0.000000 0.000000 
#    y 0.000000 1.577380 0.000000 
#    z 0.000000 0.000000 1.606650 
# 
# From -- ./inp_files/4745.got.cif
#   From: 2010.05.17/outbox.cif.g08.bks.cpg/sg192_3_cif.got.tgz:4745.got - 2010.05.20 12:28:01.
