data_PCOD9588585
_publ_section_title
;
Structure prediction by ZEFSAII (Michael W. Deem and Ramdas Pophale) SiO2 
 PCOD9588585
Probable space group: P 6/M C C
;
_chemical_formula_sum "Si O2"
_cell_formula_units_Z 144
_cell_length_a 32.272227
_cell_length_b 32.272227
_cell_length_c 8.659232
_cell_angle_alpha 90.000000
_cell_angle_beta 90.000000
_cell_angle_gamma 120.000000
_cell_volume 7810.302927
_symmetry_space_group_name_H-M "P 6/M C C"
_symmetry_group_IT_number 192
_symmetry_cell_setting 'hexagonal'
loop_
_space_group_symop_operation_xyz
x,y,z
x-y,x,z
-y,x-y,z
-x,-y,z
-x+y,-x,z
y,-x+y,z
x-y,-y,1/2-z
-x,-x+y,1/2-z
y,x,1/2-z
-y,-x,1/2-z
-x+y,y,1/2-z
x,x-y,1/2-z
-x,-y,-z
-x+y,-x,-z
y,-x+y,-z
x,y,-z
x-y,x,-z
-y,x-y,-z
-x+y,y,1/2+z
x,x-y,1/2+z
-y,-x,1/2+z
y,x,1/2+z
x-y,-y,1/2+z
-x,-x+y,1/2+z
loop_
_atom_site_type_symbol
_atom_site_label
_atom_site_fract_x
_atom_site_fract_y
_atom_site_fract_z
Si Si1 0.330726 0.476181 0.686201
Si Si2 0.236186 0.287383 0.814240
Si Si3 0.573834 0.333319 0.814343
Si Si4 0.479095 0.051069 0.314283
Si Si5 0.051790 0.195084 0.815046
Si Si6 0.615720 0.761790 0.684683
O O1 0.327707 0.473337 0.500000
O O2 0.336130 0.526931 0.731534
O O3 0.377316 0.473054 0.732755
O O4 0.282834 0.432848 0.754596
O O5 0.276386 0.276386 0.750000
O O6 0.186189 0.246061 0.744779
O O7 0.243848 0.338897 0.771024
O O8 0.234161 0.282837 0.000000
O O9 0.621178 0.378823 0.750000
O O10 0.570081 0.285041 0.750000
O O11 0.576204 0.333166 0.000000
O O12 0.529085 0.058169 0.250000
O O13 0.479816 0.048944 0.500000
O O14 0.438508 0.000000 0.250000
O O15 0.093771 0.187542 0.750000
O O16 0.000000 0.156438 0.750000
O O17 0.051430 0.194684 0.000000
O O18 0.621648 0.810824 0.750000
O O19 0.614284 0.763352 0.500000
#
# Coordination Sequence:
#
# PCOD9588585 Si02
#       6
#    24  24  24  24  24  24
#     4  10  23  40  59  83 113 148 188 230 276 328
#     4  10  21  37  57  84 113 147 188 233 282 332
#     4  11  23  40  61  86 113 144 180 224 275 330
#     4  10  20  36  58  85 114 147 186 231 280 332
#     4  11  21  35  56  83 113 148 188 234 284 336
#     4  11  24  39  58  82 112 150 190 229 277 331
#
# _framework density 18.437186000000001
#
# number of rings (size 3 to 8) (size 9 to 14) (size 15 to 20)
#    0.000    1.500    0.000    6.667    0.000    8.667 
#    0.000    3.333    0.000    0.167    0.000    1.167 
#    0.000    0.000    0.000    0.000    0.000    0.000 
#
# Total GULP energy -805081.030038 kJ/mol
# GULP energy per Si atom -5590.840486 kJ/mol
# Density = 1.839522 g / cm^3
# Si number density = 18.437186 Si / 1000 Ang^3
#
#
#
# Elastic Constant Matrix: (Units=GPa)
#
#
# Indices 1 2 3 4 5 6 
#
# 1 155.3476 95.4048 48.3641 0.0000 0.0000 0.0000
# 2 95.4048 155.3476 48.3641 0.0000 0.0000 0.0000
# 3 48.3641 48.3641 72.9445 0.0000 0.0000 0.0000
# 4 0.0000 0.0000 0.0000 31.7181 0.0000 0.0000
# 5 0.0000 0.0000 0.0000 0.0000 31.7181 0.0000
# 6 0.0000 0.0000 0.0000 0.0000 0.0000 29.9714
#
#
#
# Elastic Compliance Matrix: (Units=1/GPa)
#
#
# Indices 1 2 3 4 5 6 
#
# 1 0.011021 -0.005662 -0.003553 0.000000 0.000000 0.000000
# 2 -0.005662 0.011021 -0.003553 0.000000 0.000000 0.000000
# 3 -0.003553 -0.003553 0.018420 0.000000 0.000000 0.000000
# 4 0.000000 0.000000 0.000000 0.031528 0.000000 0.000000
# 5 0.000000 0.000000 0.000000 0.000000 0.031528 0.000000
# 6 0.000000 0.000000 0.000000 0.000000 0.000000 0.033365
#
#
# Mechanical properties :
#
#
# Convention : Reuss Voigt Hill
#
# Bulk Modulus (GPa) = 66.99728 85.32286 76.16007
# Shear Modulus (GPa) = 29.86989 31.44864 30.65926
#
# Velocity S-wave (km/s) = 4.02940 4.13451 4.08230
# Velocity P-wave (km/s) = 7.62005 8.31687 7.97607
#
# Compressibility (1/GPa) = 0.01492598
#
# Stress axis : x y z
#
# Youngs Moduli (GPa) = 90.73971 90.73971 54.28799
#
# Poissons Ratio (x) = 0.51377 0.19288
# Poissons Ratio (y) = 0.51377 0.19288
# Poissons Ratio (z) = 0.32238 0.32238
#
# Static dielectric constant tensor:
#      x y z
#    x 1.612720 0.000000 0.000000 
#    y 0.000000 1.612720 0.000000 
#    z 0.000000 0.000000 1.621920 
# 
# From -- ./inp_files/1206.got.cif
#   From: 2010.05.17/outbox.cif.g08.bks.cpg/sg192_1_cif.got.tgz:1206.got - 2010.05.20 12:28:01.
