data_PCOD9588573
_publ_section_title
;
Structure prediction by ZEFSAII (Michael W. Deem and Ramdas Pophale) SiO2 
 PCOD9588573
Probable space group: P 6/M C C
;
_chemical_formula_sum "Si O2"
_cell_formula_units_Z 144
_cell_length_a 21.411393
_cell_length_b 21.411393
_cell_length_c 18.948089
_cell_angle_alpha 90.000000
_cell_angle_beta 90.000000
_cell_angle_gamma 120.000000
_cell_volume 7522.910472
_symmetry_space_group_name_H-M "P 6/M C C"
_symmetry_group_IT_number 192
_symmetry_cell_setting 'hexagonal'
loop_
_space_group_symop_operation_xyz
x,y,z
x-y,x,z
-y,x-y,z
-x,-y,z
-x+y,-x,z
y,-x+y,z
x-y,-y,1/2-z
-x,-x+y,1/2-z
y,x,1/2-z
-y,-x,1/2-z
-x+y,y,1/2-z
x,x-y,1/2-z
-x,-y,-z
-x+y,-x,-z
y,-x+y,-z
x,y,-z
x-y,x,-z
-y,x-y,-z
-x+y,y,1/2+z
x,x-y,1/2+z
-y,-x,1/2+z
y,x,1/2+z
x-y,-y,1/2+z
-x,-x+y,1/2+z
loop_
_atom_site_type_symbol
_atom_site_label
_atom_site_fract_x
_atom_site_fract_y
_atom_site_fract_z
Si Si1 0.652304 0.821370 0.581968
Si Si2 0.559346 0.900779 0.919534
Si Si3 0.598151 0.933099 0.416055
Si Si4 0.755911 0.816266 0.701873
Si Si5 0.852168 0.999404 0.573852
Si Si6 0.447695 0.913206 0.830255
O O1 0.680176 0.829995 0.500000
O O2 0.582484 0.741959 0.583714
O O3 0.637573 0.886799 0.595808
O O4 0.699291 0.814734 0.644517
O O5 0.490802 0.883184 0.873618
O O6 0.627055 0.980753 0.900777
O O7 0.541898 0.908269 0.000000
O O8 0.580025 0.926176 0.500000
O O9 0.526508 0.902189 0.368071
O O10 0.750197 0.750197 0.750000
O O11 0.771801 0.885901 0.750000
O O12 0.816354 0.821882 0.647681
O O13 0.813005 0.997876 0.500000
O O14 0.929573 0.070067 0.572498
O O15 0.444533 0.889066 0.750000
O O16 0.500000 0.000000 0.831472
#
# Coordination Sequence:
#
# PCOD9588573 Si02
#       6
#    24  24  24  24  24  24
#     4  10  23  40  58  84 116 159 205 249 302 363
#     4   9  18  34  57  83 114 151 196 244 290 352
#     4   9  18  34  58  84 114 152 197 246 296 352
#     4  12  25  39  53  76 109 150 194 249 316 379
#     4  10  20  36  56  74  93 126 180 244 309 377
#     4   9  17  31  54  86 115 144 179 225 286 349
#
# _framework density 19.141528000000001
#
# number of rings (size 3 to 8) (size 9 to 14) (size 15 to 20)
#    0.000    2.167    1.667    1.167    2.333    4.000 
#    3.000    0.000    0.000    0.667    0.000    2.333 
#    0.000    0.000    0.000    0.000    0.000    0.000 
#
# Total GULP energy -801646.776605 kJ/mol
# GULP energy per Si atom -5566.991504 kJ/mol
# Density = 1.909796 g / cm^3
# Si number density = 19.141528 Si / 1000 Ang^3
#
#
#
# Elastic Constant Matrix: (Units=GPa)
#
#
# Indices 1 2 3 4 5 6 
#
# 1 36.0575 33.2658 31.3695 0.0000 0.0000 0.0000
# 2 33.2658 36.0575 31.3695 0.0000 0.0000 0.0000
# 3 31.3695 31.3695 107.9798 0.0000 0.0000 0.0000
# 4 0.0000 0.0000 0.0000 27.0067 0.0000 0.0000
# 5 0.0000 0.0000 0.0000 0.0000 27.0067 0.0000
# 6 0.0000 0.0000 0.0000 0.0000 0.0000 1.3959
#
#
#
# Elastic Compliance Matrix: (Units=1/GPa)
#
#
# Indices 1 2 3 4 5 6 
#
# 1 0.188887 -0.169317 -0.005686 0.000000 0.000000 0.000000
# 2 -0.169317 0.188887 -0.005686 0.000000 0.000000 0.000000
# 3 -0.005686 -0.005686 0.012564 0.000000 0.000000 0.000000
# 4 0.000000 0.000000 0.000000 0.037028 0.000000 0.000000
# 5 0.000000 0.000000 0.000000 0.000000 0.037028 0.000000
# 6 0.000000 0.000000 0.000000 0.000000 0.000000 0.716408
#
#
# Mechanical properties :
#
#
# Convention : Reuss Voigt Hill
#
# Bulk Modulus (GPa) = 34.52600 41.34493 37.93546
# Shear Modulus (GPa) = 3.22199 16.68784 9.95492
#
# Velocity S-wave (km/s) = 1.29881 2.95585 2.28298
# Velocity P-wave (km/s) = 4.50839 5.77026 5.17791
#
# Compressibility (1/GPa) = 0.02896368
#
# Stress axis : x y z
#
# Youngs Moduli (GPa) = 5.29416 5.29416 79.58977
#
# Poissons Ratio (x) = 0.89639 0.45251
# Poissons Ratio (y) = 0.89639 0.45251
# Poissons Ratio (z) = 0.03010 0.03010
#
# Static dielectric constant tensor:
#      x y z
#    x 1.678070 0.000000 0.000000 
#    y 0.000000 1.678070 0.000000 
#    z 0.000000 0.000000 1.743950 
# 
# From -- ./inp_files/4324.got.cif
#   From: 2010.05.17/outbox.cif.g08.bks.cpg/sg192_3_cif.got.tgz:4324.got - 2010.05.20 12:28:01.
