data_PCOD9588024
_publ_section_title
;
Structure prediction by ZEFSAII (Michael W. Deem and Ramdas Pophale) SiO2 
 PCOD9588024
Probable space group: P 6/M M M
;
_chemical_formula_sum "Si O2"
_cell_formula_units_Z 132
_cell_length_a 27.163490
_cell_length_b 27.163490
_cell_length_c 11.897454
_cell_angle_alpha 90.000000
_cell_angle_beta 90.000000
_cell_angle_gamma 120.000000
_cell_volume 7602.489024
_symmetry_space_group_name_H-M "P 6/M M M"
_symmetry_group_IT_number 191
_symmetry_cell_setting 'hexagonal'
loop_
_space_group_symop_operation_xyz
x,y,z
x-y,x,z
-y,x-y,z
-x,-y,z
-x+y,-x,z
y,-x+y,z
x-y,-y,-z
-x,-x+y,-z
y,x,-z
-y,-x,-z
-x+y,y,-z
x,x-y,-z
-x,-y,-z
-x+y,-x,-z
y,-x+y,-z
x,y,-z
x-y,x,-z
-y,x-y,-z
-x+y,y,z
x,x-y,z
-y,-x,z
y,x,z
x-y,-y,z
-x,-x+y,z
loop_
_atom_site_type_symbol
_atom_site_label
_atom_site_fract_x
_atom_site_fract_y
_atom_site_fract_z
Si Si1 0.686251 0.900171 0.000000
Si Si2 0.722653 0.067884 0.631281
Si Si3 0.934259 0.180263 0.231746
Si Si4 0.886415 0.538633 0.237245
Si Si5 0.410566 0.343504 0.000000
Si Si6 0.552557 0.332186 0.131246
Si Si7 0.465888 0.534113 0.632012
O O1 0.724455 0.927700 0.110300
O O2 0.631025 0.906608 0.000000
O O3 0.668530 0.834265 0.000000
O O4 0.726968 0.082335 0.500000
O O5 0.782405 0.078670 0.680093
O O6 0.695742 0.098893 0.701310
O O7 0.679977 0.000000 0.643487
O O8 0.885855 0.114145 0.239729
O O9 0.000000 0.197080 0.246316
O O10 0.820110 0.498731 0.211217
O O11 0.908377 0.503302 0.308692
O O12 0.915302 0.553523 0.114197
O O13 0.370129 0.370129 0.000000
O O14 0.571311 0.285656 0.148728
O O15 0.605017 0.394983 0.149250
O O16 0.535033 0.327770 0.000000
O O17 0.500000 0.500000 0.641160
O O18 0.458417 0.541584 0.500000
#
# Coordination Sequence:
#
# PCOD9588024 Si02
#       7
#    12  24  24  24  12  24  12
#     4  10  20  34  56  83 115 154 192 231 284 347
#     4  10  21  37  56  80 113 154 196 232 272 332
#     4  10  20  35  57  84 116 154 197 242 290 344
#     4  12  22  36  57  87 115 145 189 233 285 338
#     4  12  22  33  54  84 124 154 176 221 289 348
#     4  10  21  39  60  83 108 137 177 229 286 341
#     4  11  24  41  59  79 111 158 201 233 275 339
#
# _framework density 17.362734
#
# number of rings (size 3 to 8) (size 9 to 14) (size 15 to 20)
#    0.000    1.364    3.636    3.182    0.000    4.364 
#    0.000    0.909    0.000    1.818    0.000    0.000 
#    0.000    2.182    0.000    4.545    0.000    0.000 
#
# Total GULP energy -737164.818107 kJ/mol
# GULP energy per Si atom -5584.581955 kJ/mol
# Density = 1.732322 g / cm^3
# Si number density = 17.362734 Si / 1000 Ang^3
#
#
#
# Elastic Constant Matrix: (Units=GPa)
#
#
# Indices 1 2 3 4 5 6 
#
# 1 72.8796 39.5022 38.9368 0.0000 0.0000 0.0000
# 2 39.5022 72.8796 38.9368 0.0000 0.0000 0.0000
# 3 38.9368 38.9368 104.4649 0.0000 0.0000 0.0000
# 4 0.0000 0.0000 0.0000 16.6034 0.0000 0.0000
# 5 0.0000 0.0000 0.0000 0.0000 16.6034 0.0000
# 6 0.0000 0.0000 0.0000 0.0000 0.0000 16.6887
#
#
#
# Elastic Compliance Matrix: (Units=1/GPa)
#
#
# Indices 1 2 3 4 5 6 
#
# 1 0.020979 -0.008982 -0.004471 0.000000 0.000000 0.000000
# 2 -0.008982 0.020979 -0.004471 0.000000 0.000000 0.000000
# 3 -0.004471 -0.004471 0.012906 0.000000 0.000000 0.000000
# 4 0.000000 0.000000 0.000000 0.060228 0.000000 0.000000
# 5 0.000000 0.000000 0.000000 0.000000 0.060228 0.000000
# 6 0.000000 0.000000 0.000000 0.000000 0.000000 0.059921
#
#
# Mechanical properties :
#
#
# Convention : Reuss Voigt Hill
#
# Bulk Modulus (GPa) = 52.59465 53.88618 53.24041
# Shear Modulus (GPa) = 18.02270 18.83568 18.42919
#
# Velocity S-wave (km/s) = 3.22531 3.29725 3.26148
# Velocity P-wave (km/s) = 6.65039 6.75269 6.70173
#
# Compressibility (1/GPa) = 0.01901334
#
# Stress axis : x y z
#
# Youngs Moduli (GPa) = 47.66778 47.66778 77.48418
#
# Poissons Ratio (x) = 0.42814 0.34647
# Poissons Ratio (y) = 0.42814 0.34647
# Poissons Ratio (z) = 0.21315 0.21315
#
# Static dielectric constant tensor:
#      x y z
#    x 1.579620 0.000000 0.000000 
#    y 0.000000 1.579620 0.000000 
#    z 0.000000 0.000000 1.588450 
# 
# From -- ./inp_files/3392.got.cif
#   From: 2010.05.17/outbox.cif.g08.bks.cpg/sg191_2_cif.got.tgz:3392.got - 2010.05.20 12:20:32.
