data_PCOD9588838
_publ_section_title
;
Structure prediction by ZEFSAII (Michael W. Deem and Ramdas Pophale) SiO2 
 PCOD9588838
Probable space group: P 6/M C C
;
_chemical_formula_sum "Si O2"
_cell_formula_units_Z 132
_cell_length_a 18.454572
_cell_length_b 18.454572
_cell_length_c 22.714187
_cell_angle_alpha 90.000000
_cell_angle_beta 90.000000
_cell_angle_gamma 120.000000
_cell_volume 6699.398065
_symmetry_space_group_name_H-M "P 6/M C C"
_symmetry_group_IT_number 192
_symmetry_cell_setting 'hexagonal'
loop_
_space_group_symop_operation_xyz
x,y,z
x-y,x,z
-y,x-y,z
-x,-y,z
-x+y,-x,z
y,-x+y,z
x-y,-y,1/2-z
-x,-x+y,1/2-z
y,x,1/2-z
-y,-x,1/2-z
-x+y,y,1/2-z
x,x-y,1/2-z
-x,-y,-z
-x+y,-x,-z
y,-x+y,-z
x,y,-z
x-y,x,-z
-y,x-y,-z
-x+y,y,1/2+z
x,x-y,1/2+z
-y,-x,1/2+z
y,x,1/2+z
x-y,-y,1/2+z
-x,-x+y,1/2+z
loop_
_atom_site_type_symbol
_atom_site_label
_atom_site_fract_x
_atom_site_fract_y
_atom_site_fract_z
Si Si1 0.401945 0.955736 0.874629
Si Si2 0.899866 0.262368 0.107884
Si Si3 0.000000 0.235917 0.750000
Si Si4 0.373412 0.510227 0.500000
Si Si5 0.031950 0.182167 0.624824
Si Si6 0.249099 0.405300 0.698793
Si Si7 0.516270 0.703803 0.500000
O O1 0.386839 0.919029 0.941421
O O2 0.338504 0.880498 0.832423
O O3 0.500000 0.000000 0.861137
O O4 0.377990 0.028040 0.866614
O O5 0.947765 0.213364 0.090097
O O6 0.824870 0.200850 0.150979
O O7 0.857719 0.285243 0.056132
O O8 0.029856 0.203837 0.694171
O O9 0.077860 0.323211 0.772288
O O10 0.439221 0.609463 0.500000
O O11 0.282569 0.502641 0.500000
O O12 0.104445 0.162050 0.612287
O O13 0.224541 0.449081 0.750000
#
# Coordination Sequence:
#
# PCOD9588838 Si02
#       7
#    24  24  12  12  24  24  12
#     4  12  24  42  71 105 142 179 235 303 357 427
#     4  12  23  42  69  99 137 182 229 284 353 423
#     4  12  20  38  64  92 132 174 234 280 322 402
#     4  12  25  47  74 107 139 181 235 308 365 437
#     4  12  23  38  60  94 133 181 227 280 328 388
#     4  12  22  42  68  97 139 186 235 279 347 422
#     4  12  26  46  75 106 133 179 229 293 372 422
#
# _framework density 19.703261999999999
#
# number of rings (size 3 to 8) (size 9 to 14) (size 15 to 20)
#    0.000    0.000    9.091    1.727    0.000    0.000 
#    0.000    5.000    0.000    0.000    0.000    3.818 
#    0.000    0.000    0.000    0.000    0.000    0.000 
#
# Total GULP energy -737929.676998 kJ/mol
# GULP energy per Si atom -5590.376341 kJ/mol
# Density = 1.965842 g / cm^3
# Si number density = 19.703262 Si / 1000 Ang^3
#
#
#
# Elastic Constant Matrix: (Units=GPa)
#
#
# Indices 1 2 3 4 5 6 
#
# 1 118.1342 50.5003 26.7634 0.0000 0.0000 0.0000
# 2 50.5003 118.1342 26.7634 0.0000 0.0000 0.0000
# 3 26.7634 26.7634 54.7129 0.0000 0.0000 0.0000
# 4 0.0000 0.0000 0.0000 53.2148 0.0000 0.0000
# 5 0.0000 0.0000 0.0000 0.0000 53.2148 0.0000
# 6 0.0000 0.0000 0.0000 0.0000 0.0000 33.8170
#
#
#
# Elastic Compliance Matrix: (Units=1/GPa)
#
#
# Indices 1 2 3 4 5 6 
#
# 1 0.010903 -0.003883 -0.003434 0.000000 0.000000 0.000000
# 2 -0.003883 0.010903 -0.003434 0.000000 0.000000 0.000000
# 3 -0.003434 -0.003434 0.021637 0.000000 0.000000 0.000000
# 4 0.000000 0.000000 0.000000 0.018792 0.000000 0.000000
# 5 0.000000 0.000000 0.000000 0.000000 0.018792 0.000000
# 6 0.000000 0.000000 0.000000 0.000000 0.000000 0.029571
#
#
# Mechanical properties :
#
#
# Convention : Reuss Voigt Hill
#
# Bulk Modulus (GPa) = 45.57668 55.44837 50.51253
# Shear Modulus (GPa) = 35.86510 40.51294 38.18902
#
# Velocity S-wave (km/s) = 4.27108 4.53940 4.40728
# Velocity P-wave (km/s) = 6.89236 7.46175 7.18270
#
# Compressibility (1/GPa) = 0.02194104
#
# Stress axis : x y z
#
# Youngs Moduli (GPa) = 91.72034 91.72034 46.21782
#
# Poissons Ratio (x) = 0.35613 0.15871
# Poissons Ratio (y) = 0.35613 0.15871
# Poissons Ratio (z) = 0.31496 0.31496
#
# Static dielectric constant tensor:
#      x y z
#    x 1.685190 0.000000 0.000000 
#    y 0.000000 1.685190 0.000000 
#    z 0.000000 0.000000 1.727990 
# 
# From -- ./inp_files/5850.got.cif
#   From: 2010.05.17/outbox.cif.g08.bks.cpg/sg192_3_cif.got.tgz:5850.got - 2010.05.20 12:28:01.
