data_PCOD9588975
_publ_section_title
;
Structure prediction by ZEFSAII (Michael W. Deem and Ramdas Pophale) SiO2 
 PCOD9588975
Probable space group: P 63/M C M
;
_chemical_formula_sum "Si O2"
_cell_formula_units_Z 160
_cell_length_a 22.026227
_cell_length_b 22.026227
_cell_length_c 21.319830
_cell_angle_alpha 90.000000
_cell_angle_beta 90.000000
_cell_angle_gamma 120.000000
_cell_volume 8957.660336
_symmetry_space_group_name_H-M "P 63/M C M"
_symmetry_group_IT_number 193
_symmetry_cell_setting 'hexagonal'
loop_
_space_group_symop_operation_xyz
x,y,z
x-y,x,1/2+z
-y,x-y,z
-x,-y,1/2+z
-x+y,-x,z
y,-x+y,1/2+z
x-y,-y,1/2-z
-x,-x+y,1/2-z
y,x,1/2-z
-y,-x,-z
-x+y,y,-z
x,x-y,-z
-x,-y,-z
-x+y,-x,1/2-z
y,-x+y,-z
x,y,1/2-z
x-y,x,-z
-y,x-y,1/2-z
-x+y,y,1/2+z
x,x-y,1/2+z
-y,-x,1/2+z
y,x,z
x-y,-y,z
-x,-x+y,z
loop_
_atom_site_type_symbol
_atom_site_label
_atom_site_fract_x
_atom_site_fract_y
_atom_site_fract_z
Si Si1 0.628142 0.838076 0.822483
Si Si2 0.000000 0.000000 0.421778
Si Si3 0.513689 0.218920 0.853070
Si Si4 0.892769 0.892769 0.176795
Si Si5 0.185532 0.555837 0.320872
Si Si6 0.521718 0.333172 0.490307
Si Si7 0.766020 0.844957 0.675944
Si Si8 0.916315 0.565389 0.599453
O O1 0.642670 0.863080 0.750000
O O2 0.559973 0.761014 0.823834
O O3 0.692776 0.832078 0.849632
O O4 0.611820 0.888924 0.864359
O O5 0.935675 0.935675 0.384673
O O6 0.000000 0.000000 0.500000
O O7 0.567258 0.201971 0.818295
O O8 0.551552 0.304073 0.858006
O O9 0.500580 0.177344 0.917771
O O10 0.918408 0.918408 0.250000
O O11 0.893255 0.820802 0.172499
O O12 0.184331 0.530621 0.250000
O O13 0.113711 0.503515 0.355998
O O14 0.595944 0.404057 0.500000
O O15 0.528781 0.264391 0.500000
O O16 0.464944 0.336261 0.535656
O O17 0.754134 0.827472 0.750000
O O18 0.801610 0.801610 0.649518
O O19 0.000000 0.606056 0.591505
#
# Coordination Sequence:
#
# PCOD9588975 Si02
#       8
#    24   4  24  12  24  24  24  24
#     4  10  21  37  60  88 121 157 194 244 302 354
#     4  12  22  32  58  90 136 158 175 246 325 368
#     4  11  20  37  58  86 116 151 191 242 294 351
#     4  10  18  34  62  90 118 154 202 248 300 362
#     4  11  21  35  58  89 120 149 184 239 306 362
#     4  12  21  40  64  87 110 146 198 250 291 337
#     4   9  18  33  58  90 116 146 194 248 288 344
#     4  11  24  39  57  82 118 159 199 242 286 345
#
# _framework density 17.861806999999999
#
# number of rings (size 3 to 8) (size 9 to 14) (size 15 to 20)
#    0.000    1.350    5.250    3.375    1.050    1.500 
#    0.000    1.500    3.300    1.800    0.000    0.000 
#    0.000    0.000    0.000    0.000    0.000    0.000 
#
# Total GULP energy -890943.656520 kJ/mol
# GULP energy per Si atom -5568.397853 kJ/mol
# Density = 1.782115 g / cm^3
# Si number density = 17.861807 Si / 1000 Ang^3
#
#
#
# Elastic Constant Matrix: (Units=GPa)
#
#
# Indices 1 2 3 4 5 6 
#
# 1 111.8136 84.9321 32.6749 0.0000 0.0000 0.0000
# 2 84.9321 111.8136 32.6749 0.0000 0.0000 0.0000
# 3 32.6749 32.6749 113.4685 0.0000 0.0000 0.0000
# 4 0.0000 0.0000 0.0000 11.5061 0.0000 0.0000
# 5 0.0000 0.0000 0.0000 0.0000 11.5061 0.0000
# 6 0.0000 0.0000 0.0000 0.0000 0.0000 13.4407
#
#
#
# Elastic Compliance Matrix: (Units=1/GPa)
#
#
# Indices 1 2 3 4 5 6 
#
# 1 0.021410 -0.015790 -0.001618 0.000000 0.000000 0.000000
# 2 -0.015790 0.021410 -0.001618 0.000000 0.000000 0.000000
# 3 -0.001618 -0.001618 0.009745 0.000000 0.000000 0.000000
# 4 0.000000 0.000000 0.000000 0.086910 0.000000 0.000000
# 5 0.000000 0.000000 0.000000 0.000000 0.086910 0.000000
# 6 0.000000 0.000000 0.000000 0.000000 0.000000 0.074401
#
#
# Mechanical properties :
#
#
# Convention : Reuss Voigt Hill
#
# Bulk Modulus (GPa) = 68.90889 70.85105 69.87997
# Shear Modulus (GPa) = 14.54850 19.74484 17.14667
#
# Velocity S-wave (km/s) = 2.85705 3.32840 3.10169
# Velocity P-wave (km/s) = 7.03891 7.38399 7.21351
#
# Compressibility (1/GPa) = 0.01451191
#
# Stress axis : x y z
#
# Youngs Moduli (GPa) = 46.70641 46.70641 102.61542
#
# Poissons Ratio (x) = 0.73750 0.16608
# Poissons Ratio (y) = 0.73750 0.16608
# Poissons Ratio (z) = 0.07559 0.07559
#
# Static dielectric constant tensor:
#      x y z
#    x 1.617830 0.000000 0.000000 
#    y 0.000000 1.617830 0.000000 
#    z 0.000000 0.000000 1.683910 
# 
# From -- ./inp_files/6747.got.cif
#   From: 2010.05.17/outbox.cif.g08.bks.cpg/sg193_4_cif.got.tgz:6747.got - 2010.05.20 12:33:02.
