data_PCOD9588476
_publ_section_title
;
Structure prediction by ZEFSAII (Michael W. Deem and Ramdas Pophale) SiO2 
 PCOD9588476
Probable space group: P 6/M C C
;
_chemical_formula_sum "Si O2"
_cell_formula_units_Z 80
_cell_length_a 19.515130
_cell_length_b 19.515130
_cell_length_c 14.326226
_cell_angle_alpha 90.000000
_cell_angle_beta 90.000000
_cell_angle_gamma 120.000000
_cell_volume 4725.038234
_symmetry_space_group_name_H-M "P 6/M C C"
_symmetry_group_IT_number 192
_symmetry_cell_setting 'hexagonal'
loop_
_space_group_symop_operation_xyz
x,y,z
x-y,x,z
-y,x-y,z
-x,-y,z
-x+y,-x,z
y,-x+y,z
x-y,-y,1/2-z
-x,-x+y,1/2-z
y,x,1/2-z
-y,-x,1/2-z
-x+y,y,1/2-z
x,x-y,1/2-z
-x,-y,-z
-x+y,-x,-z
y,-x+y,-z
x,y,-z
x-y,x,-z
-y,x-y,-z
-x+y,y,1/2+z
x,x-y,1/2+z
-y,-x,1/2+z
y,x,1/2+z
x-y,-y,1/2+z
-x,-x+y,1/2+z
loop_
_atom_site_type_symbol
_atom_site_label
_atom_site_fract_x
_atom_site_fract_y
_atom_site_fract_z
Si Si1 0.299354 0.000001 0.145649
Si Si2 0.333334 0.666667 0.862794
Si Si3 0.000000 0.163532 0.750000
Si Si4 0.587047 0.712493 0.000000
Si Si5 0.812940 0.406467 0.500000
Si Si6 0.874552 0.287508 0.000000
O O1 0.217258 0.000002 0.163170
O O2 0.328848 0.000000 0.250000
O O3 0.285602 0.923992 0.088544
O O4 0.361614 0.076009 0.088544
O O5 0.333334 0.666667 0.750000
O O6 0.377031 0.622979 0.909996
O O7 0.078717 0.157433 0.750000
O O8 0.500667 0.635945 0.000000
O O9 0.575684 0.787842 0.000000
O O10 0.864717 0.500662 0.500000
#
# Coordination Sequence:
#
# PCOD9588476 Si02
#       6
#    24   8  12  12  12  12
#     4   9  23  37  56  92 117 155 206 244 301 382
#     4  10  20  40  55  92 127 157 218 256 310 365
#     4  10  19  38  60  89 120 150 204 248 296 361
#     4  11  20  39  63  81 124 165 193 261 312 355
#     4  10  22  39  58  94 120 160 216 252 304 371
#     4  11  20  39  63  81 124 165 193 261 312 355
#
# _framework density 16.931079
#
# number of rings (size 3 to 8) (size 9 to 14) (size 15 to 20)
#    0.900    1.200    3.000    1.950    0.000    4.800 
#    0.000    1.500    0.000    0.000    0.000   10.500 
#    0.000    0.000    0.000    0.000    0.000    0.000 
#
# Total GULP energy -445676.797475 kJ/mol
# GULP energy per Si atom -5570.959968 kJ/mol
# Density = 1.689254 g / cm^3
# Si number density = 16.931079 Si / 1000 Ang^3
#
#
#
# Elastic Constant Matrix: (Units=GPa)
#
#
# Indices 1 2 3 4 5 6 
#
# 1 134.3349 94.6758 47.8749 0.0001 0.0000 -0.0001
# 2 94.6758 134.3349 47.8748 0.0000 0.0000 0.0000
# 3 47.8749 47.8748 141.3260 0.0002 -0.0001 0.0000
# 4 0.0001 0.0000 0.0002 15.4197 0.0000 0.0000
# 5 0.0000 0.0000 -0.0001 0.0000 15.4196 0.0000
# 6 -0.0001 0.0000 0.0000 0.0000 0.0000 19.8294
#
#
#
# Elastic Compliance Matrix: (Units=1/GPa)
#
#
# Indices 1 2 3 4 5 6 
#
# 1 0.015151 -0.010064 -0.001723 0.000000 0.000000 0.000000
# 2 -0.010064 0.015151 -0.001723 0.000000 0.000000 0.000000
# 3 -0.001723 -0.001723 0.008243 0.000000 0.000000 0.000000
# 4 0.000000 0.000000 0.000000 0.064852 0.000000 0.000000
# 5 0.000000 0.000000 0.000000 0.000000 0.064852 0.000000
# 6 0.000000 0.000000 0.000000 0.000000 0.000000 0.050430
#
#
# Mechanical properties :
#
#
# Convention : Reuss Voigt Hill
#
# Bulk Modulus (GPa) = 86.77184 87.87185 87.32185
# Shear Modulus (GPa) = 20.03667 24.77177 22.40422
#
# Velocity S-wave (km/s) = 3.44383 3.82919 3.64161
# Velocity P-wave (km/s) = 8.19601 8.45947 8.32878
#
# Compressibility (1/GPa) = 0.01152448
#
# Stress axis : x y z
#
# Youngs Moduli (GPa) = 66.00227 66.00230 121.30944
#
# Poissons Ratio (x) = 0.66424 0.20905
# Poissons Ratio (y) = 0.66424 0.20905
# Poissons Ratio (z) = 0.11374 0.11374
#
# Static dielectric constant tensor:
#      x y z
#    x 1.560020 0.000000 0.000000 
#    y 0.000000 1.560020 0.000000 
#    z 0.000000 0.000000 1.562570 
# 
# From -- ./inp_files/2693.got.cif
#   From: 2010.05.17/outbox.cif.g08.bks.cpg/sg192_2_cif.got.tgz:2693.got - 2010.05.20 12:28:01.
