data_PCOD9588055
_publ_section_title
;
Structure prediction by ZEFSAII (Michael W. Deem and Ramdas Pophale) SiO2 
 PCOD9588055
Probable space group: P 6/M M M
;
_chemical_formula_sum "Si O2"
_cell_formula_units_Z 108
_cell_length_a 22.040572
_cell_length_b 22.040572
_cell_length_c 16.032782
_cell_angle_alpha 90.000000
_cell_angle_beta 90.000000
_cell_angle_gamma 120.000000
_cell_volume 6745.051059
_symmetry_space_group_name_H-M "P 6/M M M"
_symmetry_group_IT_number 191
_symmetry_cell_setting 'hexagonal'
loop_
_space_group_symop_operation_xyz
x,y,z
x-y,x,z
-y,x-y,z
-x,-y,z
-x+y,-x,z
y,-x+y,z
x-y,-y,-z
-x,-x+y,-z
y,x,-z
-y,-x,-z
-x+y,y,-z
x,x-y,-z
-x,-y,-z
-x+y,-x,-z
y,-x+y,-z
x,y,-z
x-y,x,-z
-y,x-y,-z
-x+y,y,z
x,x-y,z
-y,-x,z
y,x,z
x-y,-y,z
-x,-x+y,z
loop_
_atom_site_type_symbol
_atom_site_label
_atom_site_fract_x
_atom_site_fract_y
_atom_site_fract_z
Si Si1 0.918325 0.388315 0.846797
Si Si2 0.135862 0.135862 0.399900
Si Si3 0.720578 0.000000 0.399099
Si Si4 0.665483 0.465884 0.597055
Si Si5 0.189411 0.524235 0.000000
Si Si6 0.602917 0.871826 0.292553
O O1 0.910750 0.455375 0.816208
O O2 0.861571 0.352428 0.920347
O O3 0.902832 0.326469 0.781317
O O4 0.000000 0.424082 0.874068
O O5 0.139159 0.069580 0.365942
O O6 0.126720 0.126720 0.500000
O O7 0.207227 0.207227 0.389153
O O8 0.662663 0.932327 0.349231
O O9 0.706608 0.000000 0.500000
O O10 0.660087 0.479865 0.500000
O O11 0.717242 0.434484 0.601911
O O12 0.589790 0.410211 0.629396
O O13 0.700636 0.536025 0.647680
O O14 0.256933 0.513866 0.000000
O O15 0.213729 0.606865 0.000000
O O16 0.619732 0.809866 0.267703
#
# Coordination Sequence:
#
# PCOD9588055 Si02
#       6
#    24  12  12  24  12  24
#     4  10  20  36  56  78 107 139 174 212 254 308
#     4   9  17  30  49  71  93 119 155 200 250 304
#     4  11  22  35  49  70 101 136 173 217 265 314
#     4   9  17  29  45  65  90 124 169 219 266 306
#     4  10  20  35  57  85 112 139 170 209 257 306
#     4  11  21  34  51  72 101 136 175 217 259 308
#
# _framework density 16.01174
#
# number of rings (size 3 to 8) (size 9 to 14) (size 15 to 20)
#    0.000    2.000    1.111    3.444    0.000    4.889 
#    0.000    0.000    0.000    9.778    0.000    0.000 
#    0.000    0.000    0.000    0.000    0.000    0.000 
#
# Total GULP energy -601230.557221 kJ/mol
# GULP energy per Si atom -5566.949604 kJ/mol
# Density = 1.597530 g / cm^3
# Si number density = 16.011740 Si / 1000 Ang^3
#
#
#
# Elastic Constant Matrix: (Units=GPa)
#
#
# Indices 1 2 3 4 5 6 
#
# 1 115.6371 55.4440 47.7796 0.0000 0.0000 0.0000
# 2 55.4440 115.6371 47.7796 0.0000 0.0000 0.0000
# 3 47.7796 47.7796 63.4614 0.0000 0.0000 0.0000
# 4 0.0000 0.0000 0.0000 14.0799 0.0000 0.0000
# 5 0.0000 0.0000 0.0000 0.0000 14.0799 0.0000
# 6 0.0000 0.0000 0.0000 0.0000 0.0000 30.0966
#
#
#
# Elastic Compliance Matrix: (Units=1/GPa)
#
#
# Indices 1 2 3 4 5 6 
#
# 1 0.013350 -0.003263 -0.007595 0.000000 0.000000 0.000000
# 2 -0.003263 0.013350 -0.007595 0.000000 0.000000 0.000000
# 3 -0.007595 -0.007595 0.027193 0.000000 0.000000 0.000000
# 4 0.000000 0.000000 0.000000 0.071023 0.000000 0.000000
# 5 0.000000 0.000000 0.000000 0.000000 0.071023 0.000000
# 6 0.000000 0.000000 0.000000 0.000000 0.000000 0.033226
#
#
# Mechanical properties :
#
#
# Convention : Reuss Voigt Hill
#
# Bulk Modulus (GPa) = 58.85984 66.30465 62.58225
# Shear Modulus (GPa) = 18.40035 21.23344 19.81690
#
# Velocity S-wave (km/s) = 3.39363 3.64554 3.52184
# Velocity P-wave (km/s) = 7.22467 7.69544 7.46377
#
# Compressibility (1/GPa) = 0.01698951
#
# Stress axis : x y z
#
# Youngs Moduli (GPa) = 74.90514 74.90514 36.77352
#
# Poissons Ratio (x) = 0.24441 0.27928
# Poissons Ratio (y) = 0.24441 0.27928
# Poissons Ratio (z) = 0.56888 0.56888
#
# Static dielectric constant tensor:
#      x y z
#    x 1.571270 0.000000 0.000000 
#    y 0.000000 1.571270 0.000000 
#    z 0.000000 0.000000 1.527580 
# 
# From -- ./inp_files/6150.got.cif
#   From: 2010.05.17/outbox.cif.g08.bks.cpg/sg191_4_cif.got.tgz:6150.got - 2010.05.20 12:20:32.
