data_PCOD9588291
_publ_section_title
;
Structure prediction by ZEFSAII (Michael W. Deem and Ramdas Pophale) SiO2 
 PCOD9588291
Probable space group: P 6/M C C
;
_chemical_formula_sum "Si O2"
_cell_formula_units_Z 92
_cell_length_a 18.418409
_cell_length_b 18.418409
_cell_length_c 14.329681
_cell_angle_alpha 90.000000
_cell_angle_beta 90.000000
_cell_angle_gamma 120.000000
_cell_volume 4209.896119
_symmetry_space_group_name_H-M "P 6/M C C"
_symmetry_group_IT_number 192
_symmetry_cell_setting 'hexagonal'
loop_
_space_group_symop_operation_xyz
x,y,z
x-y,x,z
-y,x-y,z
-x,-y,z
-x+y,-x,z
y,-x+y,z
x-y,-y,1/2-z
-x,-x+y,1/2-z
y,x,1/2-z
-y,-x,1/2-z
-x+y,y,1/2-z
x,x-y,1/2-z
-x,-y,-z
-x+y,-x,-z
y,-x+y,-z
x,y,-z
x-y,x,-z
-y,x-y,-z
-x+y,y,1/2+z
x,x-y,1/2+z
-y,-x,1/2+z
y,x,1/2+z
x-y,-y,1/2+z
-x,-x+y,1/2+z
loop_
_atom_site_type_symbol
_atom_site_label
_atom_site_fract_x
_atom_site_fract_y
_atom_site_fract_z
Si Si1 0.740054 0.520400 0.107902
Si Si2 0.451400 0.403904 0.386152
Si Si3 0.192015 0.045451 0.500000
Si Si4 0.650669 0.732240 0.893139
Si Si5 0.333334 0.666667 0.639736
O O1 0.656056 0.514192 0.148952
O O2 0.827950 0.590393 0.150276
O O3 0.727952 0.428245 0.108285
O O4 0.742148 0.547009 0.000000
O O5 0.500000 0.500000 0.355194
O O6 0.458611 0.407216 0.500000
O O7 0.354000 0.359802 0.357115
O O8 0.163566 0.114704 0.500000
O O9 0.254239 0.060027 0.588036
O O10 0.617042 0.707313 0.000000
O O11 0.333334 0.666667 0.750000
#
# Coordination Sequence:
#
# PCOD9588291 Si02
#       5
#    24  24  12  24   8
#     4  10  18  32  52  70  92 128 171 207 242 296
#     4   9  15  24  42  69  94 116 156 216 250 272
#     4  10  17  26  39  66 108 142 162 190 250 312
#     4   8  16  26  44  69  95 122 164 210 245 280
#     4  12  25  35  46  69 103 131 157 210 268 302
#
# _framework density 21.853269999999998
#
# number of rings (size 3 to 8) (size 9 to 14) (size 15 to 20)
#    0.783    1.826    0.000    4.043    0.000    4.174 
#    0.000    0.000    0.000    7.043    0.000    0.000 
#    0.000    0.000    0.000    0.000    0.000    7.043 
#
# Total GULP energy -512635.666928 kJ/mol
# GULP energy per Si atom -5572.126814 kJ/mol
# Density = 2.180353 g / cm^3
# Si number density = 21.853270 Si / 1000 Ang^3
#
#
#
# Elastic Constant Matrix: (Units=GPa)
#
#
# Indices 1 2 3 4 5 6 
#
# 1 131.8104 46.5664 -12.4075 0.0015 0.0000 0.0001
# 2 46.5664 131.8122 -12.4076 0.0005 0.0012 0.0004
# 3 -12.4075 -12.4076 57.6009 -0.0003 -0.0010 0.0000
# 4 0.0015 0.0005 -0.0003 -8.0822 0.0056 -0.0006
# 5 0.0000 0.0012 -0.0010 0.0056 -8.0790 -0.0005
# 6 0.0001 0.0004 0.0000 -0.0006 -0.0005 42.6223
#
#
#
# Elastic Compliance Matrix: (Units=1/GPa)
#
#
# Indices 1 2 3 4 5 6 
#
# 1 0.008755 -0.002976 0.001245 0.000001 -0.000001 0.000000
# 2 -0.002976 0.008755 0.001245 0.000000 0.000001 0.000000
# 3 0.001245 0.001245 0.017897 0.000000 -0.000002 0.000000
# 4 0.000001 0.000000 0.000000 -0.123729 -0.000086 -0.000002
# 5 -0.000001 0.000001 -0.000002 -0.000086 -0.123777 -0.000001
# 6 0.000000 0.000000 0.000000 -0.000002 -0.000001 0.023462
#
#
# Mechanical properties :
#
#
# Convention : Reuss Voigt Hill
#
# Bulk Modulus (GPa) = 29.04002 40.52510 34.78256
# Shear Modulus (GPa) = -28.37891 25.25705 -1.56093
#
# Velocity S-wave (km/s) = -3.60753 3.40333 -0.84607
# Velocity P-wave (km/s) = 2.00871 5.83335 3.87253
#
# Compressibility (1/GPa) = 0.03443524
#
# Stress axis : x y z
#
# Youngs Moduli (GPa) = 114.21854 114.22007 55.87482
#
# Poissons Ratio (x) = 0.33990 -0.06956
# Poissons Ratio (y) = 0.33989 -0.06956
# Poissons Ratio (z) = -0.14219 -0.14219
#
# Static dielectric constant tensor:
#      x y z
#    x 1.815000 0.000000 0.000000 
#    y 0.000000 1.815000 0.000000 
#    z 0.000000 0.000000 1.865290 
# 
# From -- ./inp_files/4025.got.cif
#   From: 2010.05.17/outbox.cif.g08.bks.cpg/sg192_3_cif.got.tgz:4025.got - 2010.05.20 12:28:01.
