data_PCOD9588858
_publ_section_title
;
Structure prediction by ZEFSAII (Michael W. Deem and Ramdas Pophale) SiO2 
 PCOD9588858
Probable space group: P 6/M C C
;
_chemical_formula_sum "Si O2"
_cell_formula_units_Z 132
_cell_length_a 18.000000
_cell_length_b 18.000000
_cell_length_c 24.000000
_cell_angle_alpha 90.000000
_cell_angle_beta 90.000000
_cell_angle_gamma 120.000000
_cell_volume 6734.213540
_symmetry_space_group_name_H-M "P 6/M C C"
_symmetry_group_IT_number 192
_symmetry_cell_setting 'hexagonal'
loop_
_space_group_symop_operation_xyz
x,y,z
x-y,x,z
-y,x-y,z
-x,-y,z
-x+y,-x,z
y,-x+y,z
x-y,-y,1/2-z
-x,-x+y,1/2-z
y,x,1/2-z
-y,-x,1/2-z
-x+y,y,1/2-z
x,x-y,1/2-z
-x,-y,-z
-x+y,-x,-z
y,-x+y,-z
x,y,-z
x-y,x,-z
-y,x-y,-z
-x+y,y,1/2+z
x,x-y,1/2+z
-y,-x,1/2+z
y,x,1/2+z
x-y,-y,1/2+z
-x,-x+y,1/2+z
loop_
_atom_site_type_symbol
_atom_site_label
_atom_site_fract_x
_atom_site_fract_y
_atom_site_fract_z
Si Si1 0.367776 0.467318 0.874392
Si Si2 0.208418 0.104209 0.500000
Si Si3 0.367776 0.900457 0.125608
Si Si4 0.825027 0.650054 0.402396
Si Si5 0.665352 0.504981 0.750000
Si Si6 0.100874 0.201748 0.816894
O O1 0.431407 0.568592 0.886870
O O2 0.420172 0.420172 0.888061
O O3 0.276723 0.414121 0.903924
O O4 0.351239 0.460736 0.807595
O O5 0.149792 0.149792 0.500000
O O6 0.274368 0.137184 0.447938
O O7 0.276723 0.862602 0.096074
O O8 0.351238 0.890502 0.192404
O O9 0.852711 0.705424 0.345325
O O10 0.596307 0.403694 0.750000
O O11 0.760274 0.520547 0.750000
O O12 0.148795 0.148795 0.832904
O O13 0.104869 0.209738 0.750000
#
# Coordination Sequence:
#
# PCOD9588858 Si02
#       6
#    24  12  24  24  24  24
#     4  10  21  37  57  85 122 163 207 259 318 377
#     4  12  27  48  74 102 134 170 214 268 325 392
#     4  10  21  37  57  85 122 163 207 259 318 377
#     4  12  24  42  63  94 124 168 216 266 319 388
#     4  10  18  31  51  84 121 165 204 251 308 375
#     4  10  21  36  58  88 126 168 212 266 329 399
#
# _framework density 19.601398
#
# number of rings (size 3 to 8) (size 9 to 14) (size 15 to 20)
#    0.000    1.455    1.818    4.273    2.545    2.909 
#    1.091    2.727    0.000    3.273    0.000    0.000 
#    0.000    0.000    0.000    0.000    0.000    0.000 
#
# Total GULP energy -736718.928469 kJ/mol
# GULP energy per Si atom -5581.204004 kJ/mol
# Density = 1.955678 g / cm^3
# Si number density = 19.601398 Si / 1000 Ang^3
#
#
#
# Elastic Constant Matrix: (Units=GPa)
#
#
# Indices 1 2 3 4 5 6 
#
# 1 151.5043 76.4427 31.1250 0.0000 0.0000 0.0000
# 2 76.4427 151.5043 31.1250 0.0000 0.0000 0.0000
# 3 31.1250 31.1250 35.4222 0.0000 0.0000 0.0000
# 4 0.0000 0.0000 0.0000 9.5933 0.0000 0.0000
# 5 0.0000 0.0000 0.0000 0.0000 9.5933 0.0000
# 6 0.0000 0.0000 0.0000 0.0000 0.0000 37.5308
#
#
#
# Elastic Compliance Matrix: (Units=1/GPa)
#
#
# Indices 1 2 3 4 5 6 
#
# 1 0.009547 -0.003775 -0.005072 0.000000 0.000000 0.000000
# 2 -0.003775 0.009547 -0.005072 0.000000 0.000000 0.000000
# 3 -0.005072 -0.005072 0.037144 0.000000 0.000000 0.000000
# 4 0.000000 0.000000 0.000000 0.104239 0.000000 0.000000
# 5 0.000000 0.000000 0.000000 0.000000 0.104239 0.000000
# 6 0.000000 0.000000 0.000000 0.000000 0.000000 0.026645
#
#
# Mechanical properties :
#
#
# Convention : Reuss Voigt Hill
#
# Bulk Modulus (GPa) = 35.21034 68.42404 51.81719
# Shear Modulus (GPa) = 15.21299 24.65936 19.93617
#
# Velocity S-wave (km/s) = 2.78891 3.55073 3.19263
# Velocity P-wave (km/s) = 5.32662 7.19679 6.33114
#
# Compressibility (1/GPa) = 0.02840075
#
# Stress axis : x y z
#
# Youngs Moduli (GPa) = 104.74256 104.74256 26.92230
#
# Poissons Ratio (x) = 0.39542 0.13655
# Poissons Ratio (y) = 0.39542 0.13655
# Poissons Ratio (z) = 0.53124 0.53124
#
# Static dielectric constant tensor:
#      x y z
#    x 1.681550 0.000000 0.000000 
#    y 0.000000 1.681550 0.000000 
#    z 0.000000 0.000000 1.724020 
# 
# From -- ./inp_files/5838.got.cif
#   From: 2010.05.17/outbox.ucp.g08.bks.cvg/sg192_3_cif.got.tgz:5838.got - 2010.06.11 15:23:19.
