data_PCOD9588848
_publ_section_title
;
Structure prediction by ZEFSAII (Michael W. Deem and Ramdas Pophale) SiO2 
 PCOD9588848
Probable space group: P 6/M C C
;
_chemical_formula_sum "Si O2"
_cell_formula_units_Z 54
_cell_length_a 10.544473
_cell_length_b 10.544473
_cell_length_c 24.572622
_cell_angle_alpha 90.000000
_cell_angle_beta 90.000000
_cell_angle_gamma 120.000000
_cell_volume 2366.093431
_symmetry_space_group_name_H-M "P 6/M C C"
_symmetry_group_IT_number 192
_symmetry_cell_setting 'hexagonal'
loop_
_space_group_symop_operation_xyz
x,y,z
x-y,x,z
-y,x-y,z
-x,-y,z
-x+y,-x,z
y,-x+y,z
x-y,-y,1/2-z
-x,-x+y,1/2-z
y,x,1/2-z
-y,-x,1/2-z
-x+y,y,1/2-z
x,x-y,1/2-z
-x,-y,-z
-x+y,-x,-z
y,-x+y,-z
x,y,-z
x-y,x,-z
-y,x-y,-z
-x+y,y,1/2+z
x,x-y,1/2+z
-y,-x,1/2+z
y,x,1/2+z
x-y,-y,1/2+z
-x,-x+y,1/2+z
loop_
_atom_site_type_symbol
_atom_site_label
_atom_site_fract_x
_atom_site_fract_y
_atom_site_fract_z
Si Si1 0.515246 0.700210 0.939086
Si Si2 0.000000 0.500000 0.750000
Si Si3 0.670173 0.918491 0.326830
O O1 0.453393 0.814400 0.934805
O O2 0.619732 0.723153 0.889520
O O3 0.574597 0.711833 0.000000
O O4 0.902724 0.364067 0.710557
O O5 0.719597 0.800886 0.315638
#
# Coordination Sequence:
#
# PCOD9588848 Si02
#       3
#    24   6  24
#     4   8  18  40  71 107 146 189 235 280 338 413
#     4  12  28  48  68  96 128 184 240 286 340 420
#     4  12  26  47  73 106 142 184 230 292 357 422
#
# _framework density 22.822430000000001
#
# number of rings (size 3 to 8) (size 9 to 14) (size 15 to 20)
#    0.889    0.889    0.000    4.444    0.000    1.778 
#   10.667    7.778    0.000    2.667    0.000    0.000 
#    0.000    0.000    0.000    0.000    0.000    0.000 
#
# Total GULP energy -302161.714825 kJ/mol
# GULP energy per Si atom -5595.587312 kJ/mol
# Density = 2.277048 g / cm^3
# Si number density = 22.822430 Si / 1000 Ang^3
#
#
#
# Elastic Constant Matrix: (Units=GPa)
#
#
# Indices 1 2 3 4 5 6 
#
# 1 114.9134 43.7455 60.7726 0.0000 0.0000 0.0000
# 2 43.7455 114.9134 60.7726 0.0000 0.0000 0.0000
# 3 60.7726 60.7726 149.5170 0.0000 0.0000 0.0000
# 4 0.0000 0.0000 0.0000 33.9587 0.0000 0.0000
# 5 0.0000 0.0000 0.0000 0.0000 33.9587 0.0000
# 6 0.0000 0.0000 0.0000 0.0000 0.0000 35.5839
#
#
#
# Elastic Compliance Matrix: (Units=1/GPa)
#
#
# Indices 1 2 3 4 5 6 
#
# 1 0.011602 -0.002449 -0.003720 0.000000 0.000000 0.000000
# 2 -0.002449 0.011602 -0.003720 0.000000 0.000000 0.000000
# 3 -0.003720 -0.003720 0.009712 0.000000 0.000000 0.000000
# 4 0.000000 0.000000 0.000000 0.029448 0.000000 0.000000
# 5 0.000000 0.000000 0.000000 0.000000 0.029448 0.000000
# 6 0.000000 0.000000 0.000000 0.000000 0.000000 0.028103
#
#
# Mechanical properties :
#
#
# Convention : Reuss Voigt Hill
#
# Bulk Modulus (GPa) = 76.12020 78.88059 77.50039
# Shear Modulus (GPa) = 34.70466 34.97045 34.83756
#
# Velocity S-wave (km/s) = 3.90377 3.91869 3.91123
# Velocity P-wave (km/s) = 7.33109 7.42379 7.37758
#
# Compressibility (1/GPa) = 0.01313712
#
# Stress axis : x y z
#
# Youngs Moduli (GPa) = 86.19155 86.19155 102.96038
#
# Poissons Ratio (x) = 0.21110 0.38304
# Poissons Ratio (y) = 0.21110 0.38304
# Poissons Ratio (z) = 0.32066 0.32066
#
# Static dielectric constant tensor:
#      x y z
#    x 1.877050 0.000000 0.000000 
#    y 0.000000 1.877050 0.000000 
#    z 0.000000 0.000000 1.828790 
# 
# From -- ./inp_files/5483.got.cif
#   From: 2010.05.17/outbox.cif.g08.bks.cpg/sg192_3_cif.got.tgz:5483.got - 2010.05.20 12:28:01.
