data_PCOD9588183
_publ_section_title
;
Structure prediction by ZEFSAII (Michael W. Deem and Ramdas Pophale) SiO2 
 PCOD9588183
Probable space group: P 6/M M M
;
_chemical_formula_sum "Si O2"
_cell_formula_units_Z 102
_cell_length_a 27.311146
_cell_length_b 27.311146
_cell_length_c 7.268474
_cell_angle_alpha 90.000000
_cell_angle_beta 90.000000
_cell_angle_gamma 120.000000
_cell_volume 4695.195938
_symmetry_space_group_name_H-M "P 6/M M M"
_symmetry_group_IT_number 191
_symmetry_cell_setting 'hexagonal'
loop_
_space_group_symop_operation_xyz
x,y,z
x-y,x,z
-y,x-y,z
-x,-y,z
-x+y,-x,z
y,-x+y,z
x-y,-y,-z
-x,-x+y,-z
y,x,-z
-y,-x,-z
-x+y,y,-z
x,x-y,-z
-x,-y,-z
-x+y,-x,-z
y,-x+y,-z
x,y,-z
x-y,x,-z
-y,x-y,-z
-x+y,y,z
x,x-y,z
-y,-x,z
y,x,z
x-y,-y,z
-x,-x+y,z
loop_
_atom_site_type_symbol
_atom_site_label
_atom_site_fract_x
_atom_site_fract_y
_atom_site_fract_z
Si Si1 0.129595 0.760878 0.782928
Si Si2 0.936607 0.763946 0.720461
Si Si3 0.775481 0.333053 0.222984
Si Si4 0.538330 0.901334 0.777019
Si Si5 0.438081 0.438081 0.500000
O O1 0.190467 0.809534 0.707972
O O2 0.086951 0.784748 0.757429
O O3 0.103467 0.696855 0.720204
O O4 0.138263 0.758042 0.000000
O O5 0.938533 0.770041 0.500000
O O6 0.888654 0.777307 0.789318
O O7 0.000000 0.802371 0.790499
O O8 0.759403 0.379702 0.281004
O O9 0.729337 0.270664 0.286247
O O10 0.839919 0.353984 0.270131
O O11 0.774135 0.331451 0.000000
O O12 0.538965 0.950671 0.660778
O O13 0.538945 0.909830 0.000000
#
# Coordination Sequence:
#
# PCOD9588183 Si02
#       5
#    24  24  24  24   6
#     4   9  18  32  50  74 106 144 182 226 287 352
#     4   9  18  30  46  68  96 130 172 225 281 340
#     4   9  17  34  64  99 131 162 200 252 316 381
#     4  10  22  39  59  86 122 161 203 252 301 356
#     4  12  26  40  59  84 114 164 218 256 295 352
#
# _framework density 21.724332
#
# number of rings (size 3 to 8) (size 9 to 14) (size 15 to 20)
#    0.000    2.588    0.000    1.294    3.294    4.235 
#    0.000    3.529    0.000    3.059    0.000    3.294 
#    0.000    0.000    0.000    5.882    0.000    6.588 
#
# Total GULP energy -568133.916779 kJ/mol
# GULP energy per Si atom -5569.940361 kJ/mol
# Density = 2.167489 g / cm^3
# Si number density = 21.724332 Si / 1000 Ang^3
#
#
#
# Elastic Constant Matrix: (Units=GPa)
#
#
# Indices 1 2 3 4 5 6 
#
# 1 55.6995 112.0060 18.2917 0.0000 0.0000 0.0000
# 2 112.0060 55.6995 18.2917 0.0000 0.0000 0.0000
# 3 18.2917 18.2917 121.6250 0.0000 0.0000 0.0000
# 4 0.0000 0.0000 0.0000 2122.0393 -0.0005 0.0000
# 5 0.0000 0.0000 0.0000 -0.0005 2122.0398 0.0000
# 6 0.0000 0.0000 0.0000 0.0000 0.0000 -28.1533
#
#
#
# Elastic Compliance Matrix: (Units=1/GPa)
#
#
# Indices 1 2 3 4 5 6 
#
# 1 -0.005797 0.011963 -0.000927 0.000000 0.000000 0.000000
# 2 0.011963 -0.005797 -0.000927 0.000000 0.000000 0.000000
# 3 -0.000927 -0.000927 0.008501 0.000000 0.000000 0.000000
# 4 0.000000 0.000000 0.000000 0.000471 0.000000 0.000000
# 5 0.000000 0.000000 0.000000 0.000000 0.000471 0.000000
# 6 0.000000 0.000000 0.000000 0.000000 0.000000 -0.035520
#
#
# Mechanical properties :
#
#
# Convention : Reuss Voigt Hill
#
# Bulk Modulus (GPa) = 58.40336 58.91138 58.65737
# Shear Modulus (GPa) = -95.82183 848.81414 376.49616
#
# Velocity S-wave (km/s) = -6.64860 19.78809 13.17886
# Velocity P-wave (km/s) = 5.65652 23.43647 16.08216
#
# Compressibility (1/GPa) = 0.01712230
#
# Stress axis : x y z
#
# Youngs Moduli (GPa) = -172.49047 -172.49047 117.63482
#
# Poissons Ratio (x) = 2.06342 0.10907
# Poissons Ratio (y) = 2.06342 0.10907
# Poissons Ratio (z) = -0.15993 -0.15993
#
# Static dielectric constant tensor:
#      x y z
#    x 1.779040 0.000000 0.000000 
#    y 0.000000 1.779040 0.000000 
#    z 0.000000 0.000000 1.841140 
# 
# From -- ./inp_files/1396.got.cif
#   From: 2010.05.17/outbox.cif.g08.bks.cpg/sg191_1_cif.got.tgz:1396.got - 2010.05.20 12:20:32.
