data_PCOD9588237
_publ_section_title
;
Structure prediction by ZEFSAII (Michael W. Deem and Ramdas Pophale) SiO2 
 PCOD9588237
Probable space group: P 6/M M M
;
_chemical_formula_sum "Si O2"
_cell_formula_units_Z 96
_cell_length_a 28.624453
_cell_length_b 28.624453
_cell_length_c 7.426597
_cell_angle_alpha 90.000000
_cell_angle_beta 90.000000
_cell_angle_gamma 120.000000
_cell_volume 5269.809087
_symmetry_space_group_name_H-M "P 6/M M M"
_symmetry_group_IT_number 191
_symmetry_cell_setting 'hexagonal'
loop_
_space_group_symop_operation_xyz
x,y,z
x-y,x,z
-y,x-y,z
-x,-y,z
-x+y,-x,z
y,-x+y,z
x-y,-y,-z
-x,-x+y,-z
y,x,-z
-y,-x,-z
-x+y,y,-z
x,x-y,-z
-x,-y,-z
-x+y,-x,-z
y,-x+y,-z
x,y,-z
x-y,x,-z
-y,x-y,-z
-x+y,y,z
x,x-y,z
-y,-x,z
y,x,z
x-y,-y,z
-x,-x+y,z
loop_
_atom_site_type_symbol
_atom_site_label
_atom_site_fract_x
_atom_site_fract_y
_atom_site_fract_z
Si Si1 0.939436 0.665215 0.280406
Si Si2 0.939370 0.166142 0.719392
Si Si3 0.439007 0.666084 0.784146
Si Si4 0.833689 0.560845 0.285173
O O1 0.939856 0.664450 0.500000
O O2 0.929477 0.714276 0.229198
O O3 0.890737 0.608293 0.217063
O O4 0.000000 0.682490 0.222089
O O5 0.939120 0.165205 0.500000
O O6 0.891093 0.108907 0.781243
O O7 0.000000 0.183499 0.776652
O O8 0.433596 0.716798 0.716307
O O9 0.390626 0.609375 0.716761
O O10 0.499757 0.680178 0.746021
O O11 0.434171 0.665822 0.000000
O O12 0.834429 0.567995 0.500000
O O13 0.782692 0.565384 0.214553
#
# Coordination Sequence:
#
# PCOD9588237 Si02
#       4
#    24  24  24  24
#     4   8  13  21  34  52  73  96 120 148 186 230
#     4   8  12  17  26  41  62  89 120 153 189 228
#     4   9  17  29  44  60  78 101 127 152 180 219
#     4   9  16  25  39  60  82 100 121 155 196 229
#
# _framework density 18.216977
#
# number of rings (size 3 to 8) (size 9 to 14) (size 15 to 20)
#    0.000    3.500    0.000    2.500    0.000    4.500 
#    0.000    0.000    0.000    3.250    0.000    7.000 
#    0.000    0.000    0.000    0.000    0.000    0.000 
#
# Total GULP energy -535008.490985 kJ/mol
# GULP energy per Si atom -5573.005114 kJ/mol
# Density = 1.817551 g / cm^3
# Si number density = 18.216977 Si / 1000 Ang^3
#
#
#
# Elastic Constant Matrix: (Units=GPa)
#
#
# Indices 1 2 3 4 5 6 
#
# 1 167.5622 118.3001 3.4492 0.0000 0.0000 0.0000
# 2 118.3001 167.5622 3.4492 0.0000 0.0000 0.0000
# 3 3.4492 3.4492 56.9856 0.0000 0.0000 0.0000
# 4 0.0000 0.0000 0.0000 103.4650 0.0000 0.0000
# 5 0.0000 0.0000 0.0000 0.0000 103.4650 0.0000
# 6 0.0000 0.0000 0.0000 0.0000 0.0000 24.6311
#
#
#
# Elastic Compliance Matrix: (Units=1/GPa)
#
#
# Indices 1 2 3 4 5 6 
#
# 1 0.011901 -0.008398 -0.000212 0.000000 0.000000 0.000000
# 2 -0.008398 0.011901 -0.000212 0.000000 0.000000 0.000000
# 3 -0.000212 -0.000212 0.017574 0.000000 0.000000 0.000000
# 4 0.000000 0.000000 0.000000 0.009665 0.000000 0.000000
# 5 0.000000 0.000000 0.000000 0.000000 0.009665 0.000000
# 6 0.000000 0.000000 0.000000 0.000000 0.000000 0.040599
#
#
# Mechanical properties :
#
#
# Convention : Reuss Voigt Hill
#
# Bulk Modulus (GPa) = 42.13650 71.38967 56.76309
# Shear Modulus (GPa) = 39.41307 64.10631 51.75969
#
# Velocity S-wave (km/s) = 4.65643 5.93859 5.33616
# Velocity P-wave (km/s) = 7.21736 9.28957 8.31824
#
# Compressibility (1/GPa) = 0.02373239
#
# Stress axis : x y z
#
# Youngs Moduli (GPa) = 84.02344 84.02344 56.90233
#
# Poissons Ratio (x) = 0.70564 0.01207
# Poissons Ratio (y) = 0.70564 0.01207
# Poissons Ratio (z) = 0.01782 0.01782
#
# Static dielectric constant tensor:
#      x y z
#    x 1.616040 0.000000 0.000000 
#    y 0.000000 1.616040 0.000000 
#    z 0.000000 0.000000 1.716230 
# 
# From -- ./inp_files/2746.got.cif
#   From: 2010.05.17/outbox.cif.g08.bks.cpg/sg191_2_cif.got.tgz:2746.got - 2010.05.20 12:20:32.
