data_PCOD9588955
_publ_section_title
;
Structure prediction by ZEFSAII (Michael W. Deem and Ramdas Pophale) SiO2 
 PCOD9588955
Probable space group: P 63/M C M
;
_chemical_formula_sum "Si O2"
_cell_formula_units_Z 120
_cell_length_a 20.838685
_cell_length_b 20.838685
_cell_length_c 14.732972
_cell_angle_alpha 90.000000
_cell_angle_beta 90.000000
_cell_angle_gamma 120.000000
_cell_volume 5540.661457
_symmetry_space_group_name_H-M "P 63/M C M"
_symmetry_group_IT_number 193
_symmetry_cell_setting 'hexagonal'
loop_
_space_group_symop_operation_xyz
x,y,z
x-y,x,1/2+z
-y,x-y,z
-x,-y,1/2+z
-x+y,-x,z
y,-x+y,1/2+z
x-y,-y,1/2-z
-x,-x+y,1/2-z
y,x,1/2-z
-y,-x,-z
-x+y,y,-z
x,x-y,-z
-x,-y,-z
-x+y,-x,1/2-z
y,-x+y,-z
x,y,1/2-z
x-y,x,-z
-y,x-y,1/2-z
-x+y,y,1/2+z
x,x-y,1/2+z
-y,-x,1/2+z
y,x,z
x-y,-y,z
-x,-x+y,z
loop_
_atom_site_type_symbol
_atom_site_label
_atom_site_fract_x
_atom_site_fract_y
_atom_site_fract_z
Si Si1 0.747673 0.499222 0.606848
Si Si2 0.185940 0.333726 0.640767
Si Si3 0.170060 0.084376 0.639206
Si Si4 0.518171 0.000000 0.605269
Si Si5 0.000000 0.331743 0.140224
Si Si6 0.162863 0.582792 0.888415
O O1 0.741973 0.483945 0.500000
O O2 0.782385 0.587234 0.617320
O O3 0.664476 0.452044 0.642664
O O4 0.802324 0.470595 0.641229
O O5 0.185966 0.331238 0.750000
O O6 0.117411 0.255391 0.610395
O O7 0.259805 0.334109 0.607740
O O8 0.169419 0.084064 0.750000
O O9 0.137039 0.137039 0.612055
O O10 0.118165 0.000000 0.609257
O O11 0.500000 0.000000 0.500000
O O12 0.455492 0.921726 0.643211
O O13 0.594793 0.000000 0.612714
O O14 0.000000 0.328350 0.250000
O O15 0.161350 0.580675 0.000000
#
# Coordination Sequence:
#
# PCOD9588955 Si02
#       6
#    24  24  24  12  12  24
#     4  10  19  34  53  75 101 134 171 216 258 311
#     4  10  19  33  53  78 106 137 173 215 263 314
#     4   9  16  28  49  76 105 137 175 216 257 306
#     4  10  18  32  52  78 104 135 172 216 253 306
#     4  10  18  32  56  80 104 137 179 220 262 317
#     4   9  18  31  51  73  98 129 169 210 255 297
#
# _framework density 21.658064
#
# number of rings (size 3 to 8) (size 9 to 14) (size 15 to 20)
#    0.000    2.400    3.000    0.600    0.000    2.400 
#    1.800    2.000    0.000    0.000    0.000    0.000 
#    0.000    1.600    0.000    0.000    0.000    0.000 
#
# Total GULP energy -669898.337260 kJ/mol
# GULP energy per Si atom -5582.486144 kJ/mol
# Density = 2.160877 g / cm^3
# Si number density = 21.658064 Si / 1000 Ang^3
#
#
#
# Elastic Constant Matrix: (Units=GPa)
#
#
# Indices 1 2 3 4 5 6 
#
# 1 135.0823 57.9118 -1.6692 0.0000 0.0000 0.0000
# 2 57.9118 135.0823 -1.6692 0.0000 0.0000 0.0000
# 3 -1.6692 -1.6692 58.9427 0.0000 0.0000 0.0000
# 4 0.0000 0.0000 0.0000 16.1200 0.0000 0.0000
# 5 0.0000 0.0000 0.0000 0.0000 16.1200 0.0000
# 6 0.0000 0.0000 0.0000 0.0000 0.0000 38.5852
#
#
#
# Elastic Compliance Matrix: (Units=1/GPa)
#
#
# Indices 1 2 3 4 5 6 
#
# 1 0.009071 -0.003887 0.000147 0.000000 0.000000 0.000000
# 2 -0.003887 0.009071 0.000147 0.000000 0.000000 0.000000
# 3 0.000147 0.000147 0.016974 0.000000 0.000000 0.000000
# 4 0.000000 0.000000 0.000000 0.062035 0.000000 0.000000
# 5 0.000000 0.000000 0.000000 0.000000 0.062035 0.000000
# 6 0.000000 0.000000 0.000000 0.000000 0.000000 0.025917
#
#
# Mechanical properties :
#
#
# Convention : Reuss Voigt Hill
#
# Bulk Modulus (GPa) = 35.80471 48.69488 42.24979
# Shear Modulus (GPa) = 24.80168 32.46730 28.63449
#
# Velocity S-wave (km/s) = 3.38767 3.87600 3.64004
# Velocity P-wave (km/s) = 5.64531 6.52407 6.10053
#
# Compressibility (1/GPa) = 0.02792929
#
# Stress axis : x y z
#
# Youngs Moduli (GPa) = 110.23916 110.23916 58.91380
#
# Poissons Ratio (x) = 0.42852 -0.00865
# Poissons Ratio (y) = 0.42852 -0.00865
# Poissons Ratio (z) = -0.01618 -0.01618
#
# Static dielectric constant tensor:
#      x y z
#    x 1.760610 0.000000 0.000000 
#    y 0.000000 1.760610 0.000000 
#    z 0.000000 0.000000 1.815510 
# 
# From -- ./inp_files/5394.got.cif
#   From: 2010.05.17/outbox.cif.g08.bks.cpg/sg193_3_cif.got.tgz:5394.got - 2010.05.20 12:33:02.
