data_PCOD9588998
_publ_section_title
;
Structure prediction by ZEFSAII (Michael W. Deem and Ramdas Pophale) SiO2 
 PCOD9588998
Probable space group: P 63/M C M
;
_chemical_formula_sum "Si O2"
_cell_formula_units_Z 168
_cell_length_a 20.771290
_cell_length_b 20.771290
_cell_length_c 25.936717
_cell_angle_alpha 90.000000
_cell_angle_beta 90.000000
_cell_angle_gamma 120.000000
_cell_volume 9691.088810
_symmetry_space_group_name_H-M "P 63/M C M"
_symmetry_group_IT_number 193
_symmetry_cell_setting 'hexagonal'
loop_
_space_group_symop_operation_xyz
x,y,z
x-y,x,1/2+z
-y,x-y,z
-x,-y,1/2+z
-x+y,-x,z
y,-x+y,1/2+z
x-y,-y,1/2-z
-x,-x+y,1/2-z
y,x,1/2-z
-y,-x,-z
-x+y,y,-z
x,x-y,-z
-x,-y,-z
-x+y,-x,1/2-z
y,-x+y,-z
x,y,1/2-z
x-y,x,-z
-y,x-y,1/2-z
-x+y,y,1/2+z
x,x-y,1/2+z
-y,-x,1/2+z
y,x,z
x-y,-y,z
-x,-x+y,z
loop_
_atom_site_type_symbol
_atom_site_label
_atom_site_fract_x
_atom_site_fract_y
_atom_site_fract_z
Si Si1 0.672617 0.088731 0.307752
Si Si2 0.285125 0.085288 0.540266
Si Si3 0.575483 0.484697 0.894203
Si Si4 0.180794 0.265218 0.340521
Si Si5 0.669442 0.911075 0.806900
Si Si6 0.662056 0.090580 0.895753
Si Si7 0.430719 0.341734 0.012954
O O1 0.680562 0.119332 0.250000
O O2 0.637614 0.117880 0.350143
O O3 0.749082 0.094732 0.326184
O O4 0.615989 0.000000 0.304870
O O5 0.279926 0.139963 0.500000
O O6 0.261041 0.090716 0.597913
O O7 0.368875 0.099844 0.542306
O O8 0.235141 0.000000 0.522415
O O9 0.532813 0.532813 0.895643
O O10 0.511747 0.401592 0.882070
O O11 0.614290 0.498170 0.950284
O O12 0.204968 0.204968 0.324847
O O13 0.113024 0.268787 0.315062
O O14 0.634955 0.884972 0.750000
O O15 0.610723 0.882961 0.854132
O O16 0.709367 0.000000 0.807381
O O17 0.621684 0.000000 0.896393
O O18 0.682944 0.117370 0.954846
O O19 0.396755 0.396755 0.007344
#
# Coordination Sequence:
#
# PCOD9588998 Si02
#       7
#    24  24  24  24  24  24  24
#     4   9  16  26  42  65  92 120 153 198 246 287
#     4  10  19  30  47  70  99 131 167 215 270 330
#     4   9  15  25  41  65  95 125 155 184 223 281
#     4  10  19  33  51  71  95 128 171 217 265 317
#     4  10  21  35  49  69  99 132 169 212 260 322
#     4   9  17  27  43  65  94 131 157 181 230 291
#     4   9  15  26  42  64  94 124 156 194 234 289
#
# _framework density 17.335512999999999
#
# number of rings (size 3 to 8) (size 9 to 14) (size 15 to 20)
#    0.000    2.571    1.429    1.714    0.000    4.857 
#    0.000    2.857    0.000    0.429    0.000    0.000 
#    1.429    0.000    1.143    0.000    0.000    0.000 
#
# Total GULP energy -935382.620161 kJ/mol
# GULP energy per Si atom -5567.753691 kJ/mol
# Density = 1.729606 g / cm^3
# Si number density = 17.335513 Si / 1000 Ang^3
#
#
#
# Elastic Constant Matrix: (Units=GPa)
#
#
# Indices 1 2 3 4 5 6 
#
# 1 33.3982 4.8665 21.4305 0.0000 0.0000 0.0000
# 2 4.8665 33.3982 21.4305 0.0000 0.0000 0.0000
# 3 21.4305 21.4305 105.8959 0.0000 0.0000 0.0000
# 4 0.0000 0.0000 0.0000 16.8439 0.0000 0.0000
# 5 0.0000 0.0000 0.0000 0.0000 16.8439 0.0000
# 6 0.0000 0.0000 0.0000 0.0000 0.0000 14.2659
#
#
#
# Elastic Compliance Matrix: (Units=1/GPa)
#
#
# Indices 1 2 3 4 5 6 
#
# 1 0.034421 -0.000627 -0.006839 0.000000 0.000000 0.000000
# 2 -0.000627 0.034421 -0.006839 0.000000 0.000000 0.000000
# 3 -0.006839 -0.006839 0.012211 0.000000 0.000000 0.000000
# 4 0.000000 0.000000 0.000000 0.059369 0.000000 0.000000
# 5 0.000000 0.000000 0.000000 0.000000 0.059369 0.000000
# 6 0.000000 0.000000 0.000000 0.000000 0.000000 0.070097
#
#
# Mechanical properties :
#
#
# Convention : Reuss Voigt Hill
#
# Bulk Modulus (GPa) = 19.06811 29.79415 24.43113
# Shear Modulus (GPa) = 15.82373 17.92171 16.87272
#
# Velocity S-wave (km/s) = 3.02452 3.21879 3.12317
# Velocity P-wave (km/s) = 4.81875 5.57119 5.20858
#
# Compressibility (1/GPa) = 0.05244358
#
# Stress axis : x y z
#
# Youngs Moduli (GPa) = 29.05164 29.05164 81.89126
#
# Poissons Ratio (x) = 0.01822 0.56006
# Poissons Ratio (y) = 0.01822 0.56006
# Poissons Ratio (z) = 0.19869 0.19869
#
# Static dielectric constant tensor:
#      x y z
#    x 1.587730 0.000000 0.000000 
#    y 0.000000 1.587730 0.000000 
#    z 0.000000 0.000000 1.640240 
# 
# From -- ./inp_files/7716.got.cif
#   From: 2010.05.17/outbox.cif.g08.bks.cpg/sg193_4_cif.got.tgz:7716.got - 2010.05.20 12:33:02.
