data_PCOD9588247
_publ_section_title
;
Structure prediction by ZEFSAII (Michael W. Deem and Ramdas Pophale) SiO2 
 PCOD9588247
Probable space group: P 6/M M M
;
_chemical_formula_sum "Si O2"
_cell_formula_units_Z 84
_cell_length_a 27.210614
_cell_length_b 27.210614
_cell_length_c 9.207337
_cell_angle_alpha 90.000000
_cell_angle_beta 90.000000
_cell_angle_gamma 120.000000
_cell_volume 5903.932100
_symmetry_space_group_name_H-M "P 6/M M M"
_symmetry_group_IT_number 191
_symmetry_cell_setting 'hexagonal'
loop_
_space_group_symop_operation_xyz
x,y,z
x-y,x,z
-y,x-y,z
-x,-y,z
-x+y,-x,z
y,-x+y,z
x-y,-y,-z
-x,-x+y,-z
y,x,-z
-y,-x,-z
-x+y,y,-z
x,x-y,-z
-x,-y,-z
-x+y,-x,-z
y,-x+y,-z
x,y,-z
x-y,x,-z
-y,x-y,-z
-x+y,y,z
x,x-y,z
-y,-x,z
y,x,z
x-y,-y,z
-x,-x+y,z
loop_
_atom_site_type_symbol
_atom_site_label
_atom_site_fract_x
_atom_site_fract_y
_atom_site_fract_z
Si Si1 0.236437 0.360512 0.325644
Si Si2 0.534462 0.465539 0.833176
Si Si3 0.633347 0.566414 0.674019
Si Si4 0.935694 0.760326 0.825388
O O1 0.236026 0.352892 0.500000
O O2 0.189224 0.378448 0.292038
O O3 0.300875 0.404511 0.283093
O O4 0.214950 0.300269 0.248984
O O5 0.500000 0.500000 0.830899
O O6 0.592835 0.507017 0.751954
O O7 0.543736 0.456265 0.000000
O O8 0.628980 0.558003 0.500000
O O9 0.608758 0.608758 0.707369
O O10 0.889138 0.778275 0.787011
O O11 0.000000 0.804258 0.782899
O O12 0.934104 0.753291 0.000000
#
# Coordination Sequence:
#
# PCOD9588247 Si02
#       4
#    24  12  24  24
#     4   9  17  28  42  61  84 108 135 166 199 239
#     4   9  17  27  39  57  79 103 133 165 191 221
#     4   9  16  26  40  57  80 109 135 159 193 235
#     4   9  17  28  41  57  78 105 136 170 209 251
#
# _framework density 14.227805999999999
#
# number of rings (size 3 to 8) (size 9 to 14) (size 15 to 20)
#    0.000    3.000    0.000    1.286    0.000    4.571 
#    0.000    2.857    0.000    0.286    0.000    2.000 
#    1.429    0.000    2.571    7.143    0.857    7.429 
#
# Total GULP energy -467727.592273 kJ/mol
# GULP energy per Si atom -5568.185622 kJ/mol
# Density = 1.419542 g / cm^3
# Si number density = 14.227806 Si / 1000 Ang^3
#
#
#
# Elastic Constant Matrix: (Units=GPa)
#
#
# Indices 1 2 3 4 5 6 
#
# 1 124.0112 75.3298 38.1301 0.0000 0.0000 0.0000
# 2 75.3298 124.0112 38.1301 0.0000 0.0000 0.0000
# 3 38.1301 38.1301 20.2935 0.0000 0.0000 0.0000
# 4 0.0000 0.0000 0.0000 17.8839 0.0000 0.0000
# 5 0.0000 0.0000 0.0000 0.0000 17.8839 0.0000
# 6 0.0000 0.0000 0.0000 0.0000 0.0000 24.3407
#
#
#
# Elastic Compliance Matrix: (Units=1/GPa)
#
#
# Indices 1 2 3 4 5 6 
#
# 1 0.019191 -0.001351 -0.033521 0.000000 0.000000 0.000000
# 2 -0.001351 0.019191 -0.033521 0.000000 0.000000 0.000000
# 3 -0.033521 -0.033521 0.175243 0.000000 0.000000 0.000000
# 4 0.000000 0.000000 0.000000 0.055916 0.000000 0.000000
# 5 0.000000 0.000000 0.000000 0.000000 0.055916 0.000000
# 6 0.000000 0.000000 0.000000 0.000000 0.000000 0.041083
#
#
# Mechanical properties :
#
#
# Convention : Reuss Voigt Hill
#
# Bulk Modulus (GPa) = 13.01390 63.49953 38.25671
# Shear Modulus (GPa) = 9.45290 19.80343 14.62816
#
# Velocity S-wave (km/s) = 2.58038 3.73484 3.20994
# Velocity P-wave (km/s) = 4.24788 7.95778 6.37851
#
# Compressibility (1/GPa) = 0.07684092
#
# Stress axis : x y z
#
# Youngs Moduli (GPa) = 52.10783 52.10783 5.70637
#
# Poissons Ratio (x) = 0.07038 0.19128
# Poissons Ratio (y) = 0.07038 0.19128
# Poissons Ratio (z) = 1.74669 1.74669
#
# Static dielectric constant tensor:
#      x y z
#    x 1.458230 0.000000 0.000000 
#    y 0.000000 1.458230 0.000000 
#    z 0.000000 0.000000 1.474790 
# 
# From -- ./inp_files/2631.got.cif
#   From: 2010.05.17/outbox.cif.g08.bks.cpg/sg191_2_cif.got.tgz:2631.got - 2010.05.20 12:20:32.
