data_PCOD9588026
_publ_section_title
;
Structure prediction by ZEFSAII (Michael W. Deem and Ramdas Pophale) SiO2 
 PCOD9588026
Probable space group: P 6/M M M
;
_chemical_formula_sum "Si O2"
_cell_formula_units_Z 168
_cell_length_a 28.529688
_cell_length_b 28.529688
_cell_length_c 16.212015
_cell_angle_alpha 90.000000
_cell_angle_beta 90.000000
_cell_angle_gamma 120.000000
_cell_volume 11427.774791
_symmetry_space_group_name_H-M "P 6/M M M"
_symmetry_group_IT_number 191
_symmetry_cell_setting 'hexagonal'
loop_
_space_group_symop_operation_xyz
x,y,z
x-y,x,z
-y,x-y,z
-x,-y,z
-x+y,-x,z
y,-x+y,z
x-y,-y,-z
-x,-x+y,-z
y,x,-z
-y,-x,-z
-x+y,y,-z
x,x-y,-z
-x,-y,-z
-x+y,-x,-z
y,-x+y,-z
x,y,-z
x-y,x,-z
-y,x-y,-z
-x+y,y,z
x,x-y,z
-y,-x,z
y,x,z
x-y,-y,z
-x,-x+y,z
loop_
_atom_site_type_symbol
_atom_site_label
_atom_site_fract_x
_atom_site_fract_y
_atom_site_fract_z
Si Si1 0.144463 0.516348 0.410287
Si Si2 0.223162 0.668167 0.261761
Si Si3 0.938501 0.523583 0.826499
Si Si4 0.226634 0.061196 0.400204
Si Si5 0.642123 0.470424 0.089837
Si Si6 0.354770 0.231758 0.401319
Si Si7 0.937153 0.586584 0.335541
O O1 0.167765 0.515660 0.500000
O O2 0.139002 0.569501 0.405964
O O3 0.182249 0.520204 0.334392
O O4 0.086948 0.463142 0.399062
O O5 0.224891 0.612446 0.261433
O O6 0.281721 0.718280 0.277737
O O7 0.202304 0.673936 0.171883
O O8 0.929950 0.464975 0.796430
O O9 0.891988 0.509319 0.892788
O O10 0.932941 0.557738 0.752220
O O11 0.000000 0.556844 0.857899
O O12 0.221876 0.059312 0.500000
O O13 0.210875 0.105438 0.370690
O O14 0.290498 0.086267 0.384241
O O15 0.190975 0.000000 0.369100
O O16 0.590121 0.409880 0.087497
O O17 0.669003 0.481256 0.000000
O O18 0.362887 0.244221 0.500000
O O19 0.370092 0.185046 0.385152
O O20 0.386180 0.286386 0.349107
O O21 0.000000 0.629444 0.349938
#
# Coordination Sequence:
#
# PCOD9588026 Si02
#       7
#    24  24  24  24  24  24  24
#     4  10  21  35  48  64  88 117 148 180 216 263
#     4  10  20  35  52  69  89 115 148 187 228 269
#     4   9  17  30  47  67  92 118 143 173 211 261
#     4   8  13  22  36  52  71  97 129 166 206 245
#     4   9  17  31  51  72  92 112 137 174 221 271
#     4   9  18  30  41  56  80 108 142 182 215 247
#     4  11  20  30  47  67  88 115 145 179 219 261
#
# _framework density 14.701025
#
# number of rings (size 3 to 8) (size 9 to 14) (size 15 to 20)
#    0.000    2.571    1.429    2.286    0.000    4.000 
#    0.000    2.143    0.000    1.857    0.000    1.000 
#    0.000    0.000    0.000    0.000    0.000    0.000 
#
# Total GULP energy -935342.514487 kJ/mol
# GULP energy per Si atom -5567.514967 kJ/mol
# Density = 1.466756 g / cm^3
# Si number density = 14.701025 Si / 1000 Ang^3
#
#
#
# Elastic Constant Matrix: (Units=GPa)
#
#
# Indices 1 2 3 4 5 6 
#
# 1 58.6736 21.1079 20.2555 0.0000 0.0000 0.0000
# 2 21.1079 58.6736 20.2555 0.0000 0.0000 0.0000
# 3 20.2555 20.2555 59.8143 0.0000 0.0000 0.0000
# 4 0.0000 0.0000 0.0000 3.9923 0.0000 0.0000
# 5 0.0000 0.0000 0.0000 0.0000 3.9923 0.0000
# 6 0.0000 0.0000 0.0000 0.0000 0.0000 18.7828
#
#
#
# Elastic Compliance Matrix: (Units=1/GPa)
#
#
# Indices 1 2 3 4 5 6 
#
# 1 0.020879 -0.005741 -0.005126 0.000000 0.000000 0.000000
# 2 -0.005741 0.020879 -0.005126 0.000000 0.000000 0.000000
# 3 -0.005126 -0.005126 0.020190 0.000000 0.000000 0.000000
# 4 0.000000 0.000000 0.000000 0.250485 0.000000 0.000000
# 5 0.000000 0.000000 0.000000 0.000000 0.250485 0.000000
# 6 0.000000 0.000000 0.000000 0.000000 0.000000 0.053240
#
#
# Mechanical properties :
#
#
# Convention : Reuss Voigt Hill
#
# Bulk Modulus (GPa) = 33.37755 33.37770 33.37762
# Shear Modulus (GPa) = 7.59728 13.05630 10.32679
#
# Velocity S-wave (km/s) = 2.27576 2.98337 2.65326
# Velocity P-wave (km/s) = 5.44600 5.88396 5.66921
#
# Compressibility (1/GPa) = 0.02996026
#
# Stress axis : x y z
#
# Youngs Moduli (GPa) = 47.89598 47.89598 49.52900
#
# Poissons Ratio (x) = 0.27499 0.25389
# Poissons Ratio (y) = 0.27499 0.25389
# Poissons Ratio (z) = 0.24552 0.24552
#
# Static dielectric constant tensor:
#      x y z
#    x 1.491860 0.000000 0.000000 
#    y 0.000000 1.491860 0.000000 
#    z 0.000000 0.000000 1.498060 
# 
# From -- ./inp_files/5409.got.cif
#   From: 2010.05.17/outbox.cif.g08.bks.cpg/sg191_3_cif.got.tgz:5409.got - 2010.05.20 12:20:32.
