data_PCOD9588554
_publ_section_title
;
Structure prediction by ZEFSAII (Michael W. Deem and Ramdas Pophale) SiO2 
 PCOD9588554
Probable space group: P 6/M C C
;
_chemical_formula_sum "Si O2"
_cell_formula_units_Z 104
_cell_length_a 20.053813
_cell_length_b 20.053813
_cell_length_c 14.612968
_cell_angle_alpha 90.000000
_cell_angle_beta 90.000000
_cell_angle_gamma 120.000000
_cell_volume 5089.357827
_symmetry_space_group_name_H-M "P 6/M C C"
_symmetry_group_IT_number 192
_symmetry_cell_setting 'hexagonal'
loop_
_space_group_symop_operation_xyz
x,y,z
x-y,x,z
-y,x-y,z
-x,-y,z
-x+y,-x,z
y,-x+y,z
x-y,-y,1/2-z
-x,-x+y,1/2-z
y,x,1/2-z
-y,-x,1/2-z
-x+y,y,1/2-z
x,x-y,1/2-z
-x,-y,-z
-x+y,-x,-z
y,-x+y,-z
x,y,-z
x-y,x,-z
-y,x-y,-z
-x+y,y,1/2+z
x,x-y,1/2+z
-y,-x,1/2+z
y,x,1/2+z
x-y,-y,1/2+z
-x,-x+y,1/2+z
loop_
_atom_site_type_symbol
_atom_site_label
_atom_site_fract_x
_atom_site_fract_y
_atom_site_fract_z
Si Si1 0.213646 0.715366 0.347805
Si Si2 0.704655 0.713233 0.388164
Si Si3 0.049141 0.588973 0.611059
Si Si4 0.844970 0.169928 0.605100
Si Si5 0.666668 0.333334 0.362583
O O1 0.247061 0.752940 0.250000
O O2 0.133325 0.635111 0.344309
O O3 0.191799 0.774419 0.394394
O O4 0.277725 0.699221 0.391024
O O5 0.705576 0.715050 0.500000
O O6 0.632706 0.630056 0.364389
O O7 0.695338 0.783596 0.353813
O O8 0.780498 0.711525 0.356766
O O9 0.060769 0.594903 0.500000
O O10 0.000000 0.500000 0.635263
O O11 0.855100 0.154385 0.500000
O O12 0.666668 0.333334 0.250000
#
# Coordination Sequence:
#
# PCOD9588554 Si02
#       5
#    24  24  24  24   8
#     4  10  20  35  52  71 102 141 177 218 262 328
#     4   8  15  28  49  73  98 128 162 209 262 313
#     4   9  18  33  53  78 104 131 174 229 275 316
#     4   9  17  32  52  74 100 130 169 215 265 316
#     4   9  21  36  49  62 103 141 169 206 268 315
#
# _framework density 20.434798000000001
#
# number of rings (size 3 to 8) (size 9 to 14) (size 15 to 20)
#    0.000    3.000    0.000    2.077    3.231    0.000 
#    0.000    8.077    0.000    0.462    0.000    3.231 
#    0.000    0.000    0.000    8.308    0.000    9.231 
#
# Total GULP energy -580378.753898 kJ/mol
# GULP energy per Si atom -5580.564941 kJ/mol
# Density = 2.038829 g / cm^3
# Si number density = 20.434798 Si / 1000 Ang^3
#
#
#
# Elastic Constant Matrix: (Units=GPa)
#
#
# Indices 1 2 3 4 5 6 
#
# 1 162.3908 99.3597 13.8229 0.0003 0.0002 0.0002
# 2 99.3597 162.3926 13.8224 0.0006 0.0000 0.0001
# 3 13.8229 13.8224 66.6246 -0.0005 0.0001 -0.0001
# 4 0.0003 0.0006 -0.0005 27.5816 0.0031 0.0001
# 5 0.0002 0.0000 0.0001 0.0031 27.5827 0.0001
# 6 0.0002 0.0001 -0.0001 0.0001 0.0001 31.5158
#
#
#
# Elastic Compliance Matrix: (Units=1/GPa)
#
#
# Indices 1 2 3 4 5 6 
#
# 1 0.009886 -0.005979 -0.000810 0.000000 0.000000 0.000000
# 2 -0.005979 0.009885 -0.000810 0.000000 0.000000 0.000000
# 3 -0.000810 -0.000810 0.015346 0.000000 0.000000 0.000000
# 4 0.000000 0.000000 0.000000 0.036256 -0.000004 0.000000
# 5 0.000000 0.000000 0.000000 -0.000004 0.036255 0.000000
# 6 0.000000 0.000000 0.000000 0.000000 0.000000 0.031730
#
#
# Mechanical properties :
#
#
# Convention : Reuss Voigt Hill
#
# Bulk Modulus (GPa) = 50.21036 71.71312 60.96174
# Shear Modulus (GPa) = 31.01802 34.96290 32.99046
#
# Velocity S-wave (km/s) = 3.90025 4.14085 4.02235
# Velocity P-wave (km/s) = 6.70127 7.61787 7.17422
#
# Compressibility (1/GPa) = 0.01991621
#
# Stress axis : x y z
#
# Youngs Moduli (GPa) = 101.15782 101.15905 65.16474
#
# Poissons Ratio (x) = 0.60488 0.05281
# Poissons Ratio (y) = 0.60487 0.05280
# Poissons Ratio (z) = 0.08198 0.08197
#
# Static dielectric constant tensor:
#      x y z
#    x 1.715410 0.000000 0.000000 
#    y 0.000000 1.715410 0.000000 
#    z 0.000000 0.000000 1.791630 
# 
# From -- ./inp_files/2868.got.cif
#   From: 2010.05.17/outbox.cif.g08.bks.cpg/sg192_2_cif.got.tgz:2868.got - 2010.05.20 12:28:01.
