data_PCOD9588708
_publ_section_title
;
Structure prediction by ZEFSAII (Michael W. Deem and Ramdas Pophale) SiO2 
 PCOD9588708
Probable space group: P 6/M C C
;
_chemical_formula_sum "Si O2"
_cell_formula_units_Z 60
_cell_length_a 10.929553
_cell_length_b 10.929553
_cell_length_c 25.798350
_cell_angle_alpha 90.000000
_cell_angle_beta 90.000000
_cell_angle_gamma 120.000000
_cell_volume 2668.869650
_symmetry_space_group_name_H-M "P 6/M C C"
_symmetry_group_IT_number 192
_symmetry_cell_setting 'hexagonal'
loop_
_space_group_symop_operation_xyz
x,y,z
x-y,x,z
-y,x-y,z
-x,-y,z
-x+y,-x,z
y,-x+y,z
x-y,-y,1/2-z
-x,-x+y,1/2-z
y,x,1/2-z
-y,-x,1/2-z
-x+y,y,1/2-z
x,x-y,1/2-z
-x,-y,-z
-x+y,-x,-z
y,-x+y,-z
x,y,-z
x-y,x,-z
-y,x-y,-z
-x+y,y,1/2+z
x,x-y,1/2+z
-y,-x,1/2+z
y,x,1/2+z
x-y,-y,1/2+z
-x,-x+y,1/2+z
loop_
_atom_site_type_symbol
_atom_site_label
_atom_site_fract_x
_atom_site_fract_y
_atom_site_fract_z
Si Si1 0.303648 0.027422 0.307672
Si Si2 0.656641 0.167186 0.100865
Si Si3 0.256316 0.322443 0.500000
O O1 0.271875 0.155852 0.313810
O O2 0.427348 0.078628 0.349348
O O3 0.342927 0.000000 0.250000
O O4 0.793443 0.326261 0.100997
O O5 0.672226 0.093146 0.049984
O O6 0.275876 0.185882 0.500000
#
# Coordination Sequence:
#
# PCOD9588708 Si02
#       3
#    24  24  12
#     4  10  21  40  66  94 127 174 226 288 348 406
#     4  10  24  44  65 102 139 186 233 281 348 418
#     4  12  25  42  70 106 143 184 232 290 350 416
#
# _framework density 22.48143
#
# number of rings (size 3 to 8) (size 9 to 14) (size 15 to 20)
#    0.800    0.800    0.000    4.200    0.000    9.600 
#    0.000   18.000    0.000    0.000    0.000    0.000 
#    0.000    0.000    0.000    0.000    0.000    0.000 
#
# Total GULP energy -334918.204108 kJ/mol
# GULP energy per Si atom -5581.970068 kJ/mol
# Density = 2.243026 g / cm^3
# Si number density = 22.481430 Si / 1000 Ang^3
#
#
#
# Elastic Constant Matrix: (Units=GPa)
#
#
# Indices 1 2 3 4 5 6 
#
# 1 124.7354 89.1616 89.8904 0.0000 0.0000 0.0000
# 2 89.1616 124.7354 89.8904 0.0000 0.0000 0.0000
# 3 89.8904 89.8904 190.9780 0.0000 0.0000 0.0000
# 4 0.0000 0.0000 0.0000 71.3315 0.0000 0.0000
# 5 0.0000 0.0000 0.0000 0.0000 71.3315 0.0000
# 6 0.0000 0.0000 0.0000 0.0000 0.0000 17.7869
#
#
#
# Elastic Compliance Matrix: (Units=1/GPa)
#
#
# Indices 1 2 3 4 5 6 
#
# 1 0.017923 -0.010188 -0.003641 0.000000 0.000000 0.000000
# 2 -0.010188 0.017923 -0.003641 0.000000 0.000000 0.000000
# 3 -0.003641 -0.003641 0.008664 0.000000 0.000000 0.000000
# 4 0.000000 0.000000 0.000000 0.014019 0.000000 0.000000
# 5 0.000000 0.000000 0.000000 0.000000 0.014019 0.000000
# 6 0.000000 0.000000 0.000000 0.000000 0.000000 0.056221
#
#
# Mechanical properties :
#
#
# Convention : Reuss Voigt Hill
#
# Bulk Modulus (GPa) = 104.48561 108.70372 106.59467
# Shear Modulus (GPa) = 29.95850 43.52377 36.74113
#
# Velocity S-wave (km/s) = 3.65442 4.40476 4.04702
# Velocity P-wave (km/s) = 8.02395 8.62130 8.32798
#
# Compressibility (1/GPa) = 0.00957070
#
# Stress axis : x y z
#
# Youngs Moduli (GPa) = 55.79450 55.79450 115.42508
#
# Poissons Ratio (x) = 0.56841 0.42025
# Poissons Ratio (y) = 0.56841 0.42025
# Poissons Ratio (z) = 0.20314 0.20314
#
# Static dielectric constant tensor:
#      x y z
#    x 1.855350 0.000000 0.000000 
#    y 0.000000 1.855350 0.000000 
#    z 0.000000 0.000000 1.837730 
# 
# From -- ./inp_files/6244.got.cif
#   From: 2010.05.17/outbox.cif.g08.bks.cpg/sg192_4_cif.got.tgz:6244.got - 2010.05.20 12:28:01.
