data_PCOD9588749
_publ_section_title
;
Structure prediction by ZEFSAII (Michael W. Deem and Ramdas Pophale) SiO2 
 PCOD9588749
Probable space group: P 6/M C C
;
_chemical_formula_sum "Si O2"
_cell_formula_units_Z 108
_cell_length_a 16.603591
_cell_length_b 16.603591
_cell_length_c 19.365496
_cell_angle_alpha 90.000000
_cell_angle_beta 90.000000
_cell_angle_gamma 120.000000
_cell_volume 4623.419603
_symmetry_space_group_name_H-M "P 6/M C C"
_symmetry_group_IT_number 192
_symmetry_cell_setting 'hexagonal'
loop_
_space_group_symop_operation_xyz
x,y,z
x-y,x,z
-y,x-y,z
-x,-y,z
-x+y,-x,z
y,-x+y,z
x-y,-y,1/2-z
-x,-x+y,1/2-z
y,x,1/2-z
-y,-x,1/2-z
-x+y,y,1/2-z
x,x-y,1/2-z
-x,-y,-z
-x+y,-x,-z
y,-x+y,-z
x,y,-z
x-y,x,-z
-y,x-y,-z
-x+y,y,1/2+z
x,x-y,1/2+z
-y,-x,1/2+z
y,x,1/2+z
x-y,-y,1/2+z
-x,-x+y,1/2+z
loop_
_atom_site_type_symbol
_atom_site_label
_atom_site_fract_x
_atom_site_fract_y
_atom_site_fract_z
Si Si1 0.265212 0.332866 0.188068
Si Si2 0.328722 0.764519 0.894570
Si Si3 0.498580 0.249290 0.750000
Si Si4 0.221656 0.096349 0.077070
Si Si5 0.576014 0.968335 0.423457
O O1 0.270784 0.270784 0.250000
O O2 0.281308 0.429526 0.218093
O O3 0.171624 0.288380 0.142320
O O4 0.345969 0.353246 0.133958
O O5 0.244228 0.662831 0.915046
O O6 0.318786 0.764610 0.811896
O O7 0.335486 0.856554 0.922231
O O8 0.165841 0.151573 0.081212
O O9 0.265946 0.116921 0.000000
O O10 0.615245 0.000989 0.500000
O O11 0.500000 0.000000 0.409851
#
# Coordination Sequence:
#
# PCOD9588749 Si02
#       5
#    24  24  12  24  24
#     4  12  24  42  69 100 136 178 227 283 346 416
#     4  10  23  42  68 102 136 180 230 289 349 420
#     4  12  22  42  66 104 140 178 228 286 344 420
#     4  10  22  42  68 100 135 176 222 277 343 417
#     4  11  25  46  68  98 135 179 231 287 350 420
#
# _framework density 23.359334
#
# number of rings (size 3 to 8) (size 9 to 14) (size 15 to 20)
#    0.444    0.667    2.222    4.222    0.000    2.222 
#    0.000    1.111    0.000    1.333    0.000    0.000 
#    0.000    0.000    0.000    0.000    0.000    0.000 
#
# Total GULP energy -604336.887675 kJ/mol
# GULP energy per Si atom -5595.711923 kJ/mol
# Density = 2.330617 g / cm^3
# Si number density = 23.359334 Si / 1000 Ang^3
#
#
#
# Elastic Constant Matrix: (Units=GPa)
#
#
# Indices 1 2 3 4 5 6 
#
# 1 73.0860 8.4896 21.4727 0.0000 0.0000 0.0000
# 2 8.4896 73.0860 21.4727 0.0000 0.0000 0.0000
# 3 21.4727 21.4727 128.7965 0.0000 0.0000 0.0000
# 4 0.0000 0.0000 0.0000 19.8951 0.0000 0.0000
# 5 0.0000 0.0000 0.0000 0.0000 19.8951 0.0000
# 6 0.0000 0.0000 0.0000 0.0000 0.0000 32.2982
#
#
#
# Elastic Compliance Matrix: (Units=1/GPa)
#
#
# Indices 1 2 3 4 5 6 
#
# 1 0.014459 -0.001021 -0.002240 0.000000 0.000000 0.000000
# 2 -0.001021 0.014459 -0.002240 0.000000 0.000000 0.000000
# 3 -0.002240 -0.002240 0.008511 0.000000 0.000000 0.000000
# 4 0.000000 0.000000 0.000000 0.050264 0.000000 0.000000
# 5 0.000000 0.000000 0.000000 0.000000 0.050264 0.000000
# 6 0.000000 0.000000 0.000000 0.000000 0.000000 0.030961
#
#
# Mechanical properties :
#
#
# Convention : Reuss Voigt Hill
#
# Bulk Modulus (GPa) = 37.84187 41.98208 39.91198
# Shear Modulus (GPa) = 26.49266 29.31992 27.90629
#
# Velocity S-wave (km/s) = 3.37135 3.54668 3.46012
# Velocity P-wave (km/s) = 5.60265 5.89773 5.75208
#
# Compressibility (1/GPa) = 0.02642576
#
# Stress axis : x y z
#
# Youngs Moduli (GPa) = 69.15934 69.15934 117.49225
#
# Poissons Ratio (x) = 0.07064 0.26322
# Poissons Ratio (y) = 0.07064 0.26322
# Poissons Ratio (z) = 0.15494 0.15494
#
# Static dielectric constant tensor:
#      x y z
#    x 1.871310 0.000000 0.000000 
#    y 0.000000 1.871310 0.000000 
#    z 0.000000 0.000000 1.876890 
# 
# From -- ./inp_files/4863.got.cif
#   From: 2010.05.17/outbox.cif.g08.bks.cpg/sg192_3_cif.got.tgz:4863.got - 2010.05.20 12:28:01.
