data_PCOD9588003
_publ_section_title
;
Structure prediction by ZEFSAII (Michael W. Deem and Ramdas Pophale) SiO2 
 PCOD9588003
Probable space group: P 6/M M M
;
_chemical_formula_sum "Si O2"
_cell_formula_units_Z 192
_cell_length_a 30.607888
_cell_length_b 30.607888
_cell_length_c 14.561265
_cell_angle_alpha 90.000000
_cell_angle_beta 90.000000
_cell_angle_gamma 120.000000
_cell_volume 11813.986341
_symmetry_space_group_name_H-M "P 6/M M M"
_symmetry_group_IT_number 191
_symmetry_cell_setting 'hexagonal'
loop_
_space_group_symop_operation_xyz
x,y,z
x-y,x,z
-y,x-y,z
-x,-y,z
-x+y,-x,z
y,-x+y,z
x-y,-y,-z
-x,-x+y,-z
y,x,-z
-y,-x,-z
-x+y,y,-z
x,x-y,-z
-x,-y,-z
-x+y,-x,-z
y,-x+y,-z
x,y,-z
x-y,x,-z
-y,x-y,-z
-x+y,y,z
x,x-y,z
-y,-x,z
y,x,z
x-y,-y,z
-x,-x+y,z
loop_
_atom_site_type_symbol
_atom_site_label
_atom_site_fract_x
_atom_site_fract_y
_atom_site_fract_z
Si Si1 0.565866 0.234046 0.294800
Si Si2 0.653483 0.775467 0.897991
Si Si3 0.613103 0.486729 0.390095
Si Si4 0.057320 0.652963 0.697759
Si Si5 0.645412 0.186985 0.897970
Si Si6 0.307060 0.060163 0.717787
Si Si7 0.568802 0.906919 0.898178
Si Si8 0.941723 0.158746 0.389442
O O1 0.624170 0.248339 0.298173
O O2 0.559157 0.279579 0.329015
O O3 0.534932 0.182684 0.351432
O O4 0.548156 0.221483 0.188824
O O5 0.644853 0.822427 0.886309
O O6 0.686511 0.773664 0.815077
O O7 0.601208 0.722760 0.895976
O O8 0.675705 0.779266 0.000000
O O9 0.615441 0.489364 0.500000
O O10 0.555507 0.444494 0.363712
O O11 0.633136 0.541766 0.348357
O O12 0.075440 0.712235 0.682335
O O13 0.058966 0.645907 0.807950
O O14 0.000000 0.620850 0.664428
O O15 0.588780 0.177559 0.893268
O O16 0.644897 0.134568 0.889006
O O17 0.665708 0.207789 0.000000
O O18 0.270752 0.070060 0.652414
O O19 0.279756 0.000000 0.731563
O O20 0.577210 0.930918 0.000000
O O21 0.940912 0.161172 0.500000
O O22 0.897403 0.102597 0.361976
O O23 0.000000 0.176521 0.362865
#
# Coordination Sequence:
#
# PCOD9588003 Si02
#       8
#    24  24  24  24  24  24  24  24
#     4  10  20  35  55  77 100 126 156 191 233 285
#     4   9  17  28  43  65  94 127 163 200 233 272
#     4  10  22  40  57  73  96 124 156 199 251 301
#     4  10  20  34  52  75  99 126 164 205 244 290
#     4   9  17  30  49  72  99 129 156 185 227 281
#     4   9  18  31  47  69  97 129 162 199 244 287
#     4   9  17  30  47  70  98 129 159 192 235 282
#     4   9  17  30  49  72  98 130 167 205 246 293
#
# _framework density 16.251923999999999
#
# number of rings (size 3 to 8) (size 9 to 14) (size 15 to 20)
#    0.000    2.625    1.250    0.500    0.000    2.500 
#    0.000    6.250    0.000    1.625    0.000    3.500 
#    0.000    0.000    0.000    0.000    0.000    0.000 
#
# Total GULP energy -1069186.746937 kJ/mol
# GULP energy per Si atom -5568.680974 kJ/mol
# Density = 1.621493 g / cm^3
# Si number density = 16.251924 Si / 1000 Ang^3
#
#
#
# Elastic Constant Matrix: (Units=GPa)
#
#
# Indices 1 2 3 4 5 6 
#
# 1 76.3258 56.7045 35.1478 0.0000 0.0000 0.0000
# 2 56.7045 76.3258 35.1478 0.0000 0.0000 0.0000
# 3 35.1478 35.1478 53.0423 0.0000 0.0000 0.0000
# 4 0.0000 0.0000 0.0000 15.6598 0.0000 0.0000
# 5 0.0000 0.0000 0.0000 0.0000 15.6598 0.0000
# 6 0.0000 0.0000 0.0000 0.0000 0.0000 9.8106
#
#
#
# Elastic Compliance Matrix: (Units=1/GPa)
#
#
# Indices 1 2 3 4 5 6 
#
# 1 0.031266 -0.019699 -0.007665 0.000000 0.000000 0.000000
# 2 -0.019699 0.031266 -0.007665 0.000000 0.000000 0.000000
# 3 -0.007665 -0.007665 0.029011 0.000000 0.000000 0.000000
# 4 0.000000 0.000000 0.000000 0.063858 0.000000 0.000000
# 5 0.000000 0.000000 0.000000 0.000000 0.063858 0.000000
# 6 0.000000 0.000000 0.000000 0.000000 0.000000 0.101930
#
#
# Mechanical properties :
#
#
# Convention : Reuss Voigt Hill
#
# Bulk Modulus (GPa) = 46.54208 51.07712 48.80960
# Shear Modulus (GPa) = 12.54991 13.47229 13.01110
#
# Velocity S-wave (km/s) = 2.78188 2.88230 2.83254
# Velocity P-wave (km/s) = 6.24648 6.52483 6.38717
#
# Compressibility (1/GPa) = 0.02148593
#
# Stress axis : x y z
#
# Youngs Moduli (GPa) = 31.98338 31.98338 34.46964
#
# Poissons Ratio (x) = 0.63004 0.26421
# Poissons Ratio (y) = 0.63004 0.26421
# Poissons Ratio (z) = 0.24515 0.24515
#
# Static dielectric constant tensor:
#      x y z
#    x 1.535370 0.000000 0.000000 
#    y 0.000000 1.535370 0.000000 
#    z 0.000000 0.000000 1.566400 
# 
# From -- ./inp_files/5596.got.cif
#   From: 2010.05.17/outbox.cif.g08.bks.cpg/sg191_3_cif.got.tgz:5596.got - 2010.05.20 12:20:32.
