data_PCOD9588465
_publ_section_title
;
Structure prediction by ZEFSAII (Michael W. Deem and Ramdas Pophale) SiO2 
 PCOD9588465
Probable space group: P 6/M C C
;
_chemical_formula_sum "Si O2"
_cell_formula_units_Z 168
_cell_length_a 21.797374
_cell_length_b 21.797374
_cell_length_c 22.041898
_cell_angle_alpha 90.000000
_cell_angle_beta 90.000000
_cell_angle_gamma 120.000000
_cell_volume 9069.596621
_symmetry_space_group_name_H-M "P 6/M C C"
_symmetry_group_IT_number 192
_symmetry_cell_setting 'hexagonal'
loop_
_space_group_symop_operation_xyz
x,y,z
x-y,x,z
-y,x-y,z
-x,-y,z
-x+y,-x,z
y,-x+y,z
x-y,-y,1/2-z
-x,-x+y,1/2-z
y,x,1/2-z
-y,-x,1/2-z
-x+y,y,1/2-z
x,x-y,1/2-z
-x,-y,-z
-x+y,-x,-z
y,-x+y,-z
x,y,-z
x-y,x,-z
-y,x-y,-z
-x+y,y,1/2+z
x,x-y,1/2+z
-y,-x,1/2+z
y,x,1/2+z
x-y,-y,1/2+z
-x,-x+y,1/2+z
loop_
_atom_site_type_symbol
_atom_site_label
_atom_site_fract_x
_atom_site_fract_y
_atom_site_fract_z
Si Si1 0.906943 0.274630 0.130249
Si Si2 0.050454 0.393689 0.068612
Si Si3 0.120817 0.964329 0.926707
Si Si4 0.195802 0.882552 0.110628
Si Si5 0.218077 0.918660 0.243887
Si Si6 0.486340 0.693867 0.573440
Si Si7 0.823932 0.462761 0.073326
O O1 0.874117 0.194225 0.104134
O O2 0.907430 0.261170 0.202136
O O3 0.850711 0.296141 0.108368
O O4 0.982854 0.335156 0.105825
O O5 0.104932 0.363653 0.066689
O O6 0.099283 0.473259 0.094111
O O7 0.026487 0.396529 0.000000
O O8 0.174496 0.942070 0.899551
O O9 0.041699 0.905076 0.908976
O O10 0.125666 0.963081 0.000000
O O11 0.229920 0.895702 0.177752
O O12 0.134210 0.865791 0.250000
O O13 0.240469 0.000000 0.250000
O O14 0.496623 0.696447 0.500000
O O15 0.473464 0.758301 0.590723
O O16 0.421216 0.616477 0.588907
O O17 0.828053 0.467636 0.000000
#
# Coordination Sequence:
#
# PCOD9588465 Si02
#       7
#    24  24  24  24  24  24  24
#     4  11  22  36  57  83 113 151 192 241 292 345
#     4  11  21  33  54  85 119 149 184 233 285 346
#     4  10  21  35  53  79 115 155 193 237 296 361
#     4  11  21  36  55  81 109 148 195 241 287 344
#     4  10  22  39  58  81 104 148 198 248 297 343
#     4  10  19  35  59  89 122 158 191 230 288 350
#     4   9  19  34  55  86 124 157 189 228 278 350
#
# _framework density 18.523426000000001
#
# number of rings (size 3 to 8) (size 9 to 14) (size 15 to 20)
#    0.000    1.714    2.857    2.143    2.000    5.143 
#    0.000    2.143    0.000    1.000    0.000    0.000 
#    0.000    0.000    0.000    0.000    0.000    0.000 
#
# Total GULP energy -936628.482579 kJ/mol
# GULP energy per Si atom -5575.169539 kJ/mol
# Density = 1.848127 g / cm^3
# Si number density = 18.523426 Si / 1000 Ang^3
#
#
#
# Elastic Constant Matrix: (Units=GPa)
#
#
# Indices 1 2 3 4 5 6 
#
# 1 109.4373 43.3708 33.6931 0.0000 0.0000 0.0000
# 2 43.3708 109.4373 33.6931 0.0000 0.0000 0.0000
# 3 33.6931 33.6931 49.8312 0.0000 0.0000 0.0000
# 4 0.0000 0.0000 0.0000 16.3096 0.0000 0.0000
# 5 0.0000 0.0000 0.0000 0.0000 16.3096 0.0000
# 6 0.0000 0.0000 0.0000 0.0000 0.0000 33.0333
#
#
#
# Elastic Compliance Matrix: (Units=1/GPa)
#
#
# Indices 1 2 3 4 5 6 
#
# 1 0.012230 -0.002906 -0.006305 0.000000 0.000000 0.000000
# 2 -0.002906 0.012230 -0.006305 0.000000 0.000000 0.000000
# 3 -0.006305 -0.006305 0.028593 0.000000 0.000000 0.000000
# 4 0.000000 0.000000 0.000000 0.061313 0.000000 0.000000
# 5 0.000000 0.000000 0.000000 0.000000 0.061313 0.000000
# 6 0.000000 0.000000 0.000000 0.000000 0.000000 0.030273
#
#
# Mechanical properties :
#
#
# Convention : Reuss Voigt Hill
#
# Bulk Modulus (GPa) = 45.40566 54.46886 49.93726
# Shear Modulus (GPa) = 20.46452 23.66042 22.06247
#
# Velocity S-wave (km/s) = 3.32745 3.57784 3.45491
# Velocity P-wave (km/s) = 6.27123 6.82182 6.55231
#
# Compressibility (1/GPa) = 0.02202369
#
# Stress axis : x y z
#
# Youngs Moduli (GPa) = 81.76386 81.76386 34.97299
#
# Poissons Ratio (x) = 0.23760 0.22049
# Poissons Ratio (y) = 0.23760 0.22049
# Poissons Ratio (z) = 0.51549 0.51549
#
# Static dielectric constant tensor:
#      x y z
#    x 1.652790 0.000000 0.000000 
#    y 0.000000 1.652790 0.000000 
#    z 0.000000 0.000000 1.669600 
# 
# From -- ./inp_files/6035.got.cif
#   From: 2010.05.17/outbox.cif.g08.bks.cpg/sg192_4_cif.got.tgz:6035.got - 2010.05.20 12:28:01.
