data_PCOD9588256
_publ_section_title
;
Structure prediction by ZEFSAII (Michael W. Deem and Ramdas Pophale) SiO2 
 PCOD9588256
Probable space group: P 6/M M M
;
_chemical_formula_sum "Si O2"
_cell_formula_units_Z 168
_cell_length_a 30.000000
_cell_length_b 30.000000
_cell_length_c 15.000000
_cell_angle_alpha 90.000000
_cell_angle_beta 90.000000
_cell_angle_gamma 120.000000
_cell_volume 11691.342951
_symmetry_space_group_name_H-M "P 6/M M M"
_symmetry_group_IT_number 191
_symmetry_cell_setting 'hexagonal'
loop_
_space_group_symop_operation_xyz
x,y,z
x-y,x,z
-y,x-y,z
-x,-y,z
-x+y,-x,z
y,-x+y,z
x-y,-y,-z
-x,-x+y,-z
y,x,-z
-y,-x,-z
-x+y,y,-z
x,x-y,-z
-x,-y,-z
-x+y,-x,-z
y,-x+y,-z
x,y,-z
x-y,x,-z
-y,x-y,-z
-x+y,y,z
x,x-y,z
-y,-x,z
y,x,z
x-y,-y,z
-x,-x+y,z
loop_
_atom_site_type_symbol
_atom_site_label
_atom_site_fract_x
_atom_site_fract_y
_atom_site_fract_z
Si Si1 0.505735 0.204282 0.393006
Si Si2 0.480873 0.061658 0.847928
Si Si3 0.600076 0.850257 0.279820
Si Si4 0.308677 0.451426 0.102076
Si Si5 0.614595 0.939399 0.602105
Si Si6 0.566107 0.333780 0.891706
Si Si7 0.504005 0.106024 0.352636
O O1 0.496666 0.196970 0.500000
O O2 0.531684 0.265842 0.376958
O O3 0.452791 0.179257 0.337217
O O4 0.528013 0.167696 0.363045
O O5 0.535609 0.071217 0.885848
O O6 0.455722 0.091201 0.896172
O O7 0.493152 0.086296 0.749132
O O8 0.443804 0.000000 0.843941
O O9 0.622747 0.811374 0.281393
O O10 0.586116 0.857660 0.178713
O O11 0.626878 0.905159 0.330120
O O12 0.320052 0.508472 0.129388
O O13 0.288707 0.440772 0.000000
O O14 0.625875 0.931857 0.500000
O O15 0.553290 0.920174 0.606541
O O16 0.646005 0.000000 0.623533
O O17 0.575193 0.287597 0.861791
O O18 0.610869 0.389132 0.859299
O O19 0.568635 0.334991 0.000000
O O20 0.545963 0.091926 0.388753
#
# Coordination Sequence:
#
# PCOD9588256 Si02
#       7
#    24  24  24  24  24  24  24
#     4   9  17  30  48  67  83 102 134 171 205 248
#     4  10  20  33  47  63  85 113 144 178 218 270
#     4  10  19  32  49  67  89 116 143 174 213 255
#     4  11  21  32  47  64  84 112 145 178 211 251
#     4  10  20  33  50  72  95 116 141 177 221 266
#     4   9  17  29  44  60  77  97 124 161 206 251
#     4  10  18  29  47  67  88 114 141 171 214 270
#
# _framework density 14.369607
#
# number of rings (size 3 to 8) (size 9 to 14) (size 15 to 20)
#    0.000    2.143    2.857    3.143    0.000    5.429 
#    0.000    1.429    0.000    0.286    0.000    0.000 
#    0.000    0.000    0.000    0.000    0.000    0.286 
#
# Total GULP energy -936046.826684 kJ/mol
# GULP energy per Si atom -5571.707302 kJ/mol
# Density = 1.433690 g / cm^3
# Si number density = 14.369607 Si / 1000 Ang^3
#
#
#
# Elastic Constant Matrix: (Units=GPa)
#
#
# Indices 1 2 3 4 5 6 
#
# 1 62.8879 28.0300 21.1816 0.0000 0.0000 0.0000
# 2 28.0300 62.8879 21.1816 0.0000 0.0000 0.0000
# 3 21.1816 21.1816 65.5552 0.0000 0.0000 0.0000
# 4 0.0000 0.0000 0.0000 3.2919 0.0000 0.0000
# 5 0.0000 0.0000 0.0000 0.0000 3.2919 0.0000
# 6 0.0000 0.0000 0.0000 0.0000 0.0000 17.4290
#
#
#
# Elastic Compliance Matrix: (Units=1/GPa)
#
#
# Indices 1 2 3 4 5 6 
#
# 1 0.020818 -0.007870 -0.004184 0.000000 0.000000 0.000000
# 2 -0.007870 0.020818 -0.004184 0.000000 0.000000 0.000000
# 3 -0.004184 -0.004184 0.017958 0.000000 0.000000 0.000000
# 4 0.000000 0.000000 0.000000 0.303776 0.000000 0.000000
# 5 0.000000 0.000000 0.000000 0.000000 0.303776 0.000000
# 6 0.000000 0.000000 0.000000 0.000000 0.000000 0.057376
#
#
# Mechanical properties :
#
#
# Convention : Reuss Voigt Hill
#
# Bulk Modulus (GPa) = 36.87362 36.90191 36.88777
# Shear Modulus (GPa) = 6.52711 12.86509 9.69610
#
# Velocity S-wave (km/s) = 2.13358 2.99540 2.60044
# Velocity P-wave (km/s) = 5.63792 6.13999 5.89430
#
# Compressibility (1/GPa) = 0.02711966
#
# Stress axis : x y z
#
# Youngs Moduli (GPa) = 48.03513 48.03513 55.68567
#
# Poissons Ratio (x) = 0.37802 0.23297
# Poissons Ratio (y) = 0.37802 0.23297
# Poissons Ratio (z) = 0.20097 0.20097
#
# Static dielectric constant tensor:
#      x y z
#    x 1.484160 0.000000 0.000000 
#    y 0.000000 1.484160 0.000000 
#    z 0.000000 0.000000 1.519800 
# 
# From -- ./inp_files/5452.got.cif
#   From: 2010.05.17/outbox.ucp.g08.bks.cvg/sg191_3_cif.got.tgz:5452.got - 2010.06.11 15:22:43.
