data_PCOD9588779
_publ_section_title
;
Structure prediction by ZEFSAII (Michael W. Deem and Ramdas Pophale) SiO2 
 PCOD9588779
Probable space group: P 6/M C C
;
_chemical_formula_sum "Si O2"
_cell_formula_units_Z 104
_cell_length_a 17.909582
_cell_length_b 17.909582
_cell_length_c 19.685711
_cell_angle_alpha 90.000000
_cell_angle_beta 90.000000
_cell_angle_gamma 120.000000
_cell_volume 5468.303823
_symmetry_space_group_name_H-M "P 6/M C C"
_symmetry_group_IT_number 192
_symmetry_cell_setting 'hexagonal'
loop_
_space_group_symop_operation_xyz
x,y,z
x-y,x,z
-y,x-y,z
-x,-y,z
-x+y,-x,z
y,-x+y,z
x-y,-y,1/2-z
-x,-x+y,1/2-z
y,x,1/2-z
-y,-x,1/2-z
-x+y,y,1/2-z
x,x-y,1/2-z
-x,-y,-z
-x+y,-x,-z
y,-x+y,-z
x,y,-z
x-y,x,-z
-y,x-y,-z
-x+y,y,1/2+z
x,x-y,1/2+z
-y,-x,1/2+z
y,x,1/2+z
x-y,-y,1/2+z
-x,-x+y,1/2+z
loop_
_atom_site_type_symbol
_atom_site_label
_atom_site_fract_x
_atom_site_fract_y
_atom_site_fract_z
Si Si1 0.227787 0.319075 0.871615
Si Si2 0.102878 0.897123 0.750000
Si Si3 0.473731 0.257485 0.830546
Si Si4 0.571617 0.977441 0.329652
Si Si5 0.666668 0.333334 0.167952
Si Si6 0.154581 0.195759 0.000000
O O1 0.157333 0.267917 0.812183
O O2 0.220014 0.403828 0.878135
O O3 0.329058 0.356171 0.855278
O O4 0.199031 0.254726 0.934415
O O5 0.000000 0.855141 0.750000
O O6 0.460249 0.230125 0.750000
O O7 0.466088 0.342121 0.836239
O O8 0.567876 0.277562 0.851774
O O9 0.500000 0.000000 0.357903
O O10 0.580552 0.000000 0.250000
O O11 0.666668 0.333334 0.250000
O O12 0.166996 0.113135 0.000000
#
# Coordination Sequence:
#
# PCOD9588779 Si02
#       6
#    24  12  24  24   8  12
#     4  12  23  41  63  91 123 167 212 272 328 396
#     4  12  23  38  60  88 122 158 208 266 335 394
#     4  11  19  34  55  86 124 157 201 250 312 374
#     4  11  21  34  59  92 126 162 204 258 323 387
#     4   9  21  30  54  91 128 163 201 253 308 376
#     4  12  27  46  67  90 124 168 222 272 338 402
#
# _framework density 19.018694
#
# number of rings (size 3 to 8) (size 9 to 14) (size 15 to 20)
#    0.000    0.692    3.462    6.462    6.462    0.000 
#    0.000    2.885    0.000    4.154    0.000    0.000 
#    0.000    0.000    0.000    0.000    0.000    0.000 
#
# Total GULP energy -580262.716226 kJ/mol
# GULP energy per Si atom -5579.449194 kJ/mol
# Density = 1.897541 g / cm^3
# Si number density = 19.018694 Si / 1000 Ang^3
#
#
#
# Elastic Constant Matrix: (Units=GPa)
#
#
# Indices 1 2 3 4 5 6 
#
# 1 174.9244 41.2807 39.7068 -0.0005 0.0000 -0.0010
# 2 41.2807 174.9230 39.7066 -0.0002 -0.0003 -0.0004
# 3 39.7068 39.7066 66.7530 0.0000 0.0000 0.0000
# 4 -0.0005 -0.0002 0.0000 -2.1855 0.0005 0.0001
# 5 0.0000 -0.0003 0.0000 0.0005 -2.1851 0.0002
# 6 -0.0010 -0.0004 0.0000 0.0001 0.0002 66.8209
#
#
#
# Elastic Compliance Matrix: (Units=1/GPa)
#
#
# Indices 1 2 3 4 5 6 
#
# 1 0.006700 -0.000782 -0.003520 -0.000002 0.000000 0.000000
# 2 -0.000782 0.006700 -0.003520 0.000000 -0.000001 0.000000
# 3 -0.003520 -0.003520 0.019169 0.000001 0.000001 0.000000
# 4 -0.000002 0.000000 0.000001 -0.457560 -0.000106 0.000001
# 5 0.000000 -0.000001 0.000001 -0.000106 -0.457639 0.000001
# 6 0.000000 0.000000 0.000000 0.000001 0.000001 0.014965
#
#
# Mechanical properties :
#
#
# Convention : Reuss Voigt Hill
#
# Bulk Modulus (GPa) = 59.08862 73.10985 66.09923
# Shear Modulus (GPa) = -5.90753 32.21714 13.15481
#
# Velocity S-wave (km/s) = -1.76435 4.12025 2.63283
# Velocity P-wave (km/s) = 5.19477 7.82047 6.63873
#
# Compressibility (1/GPa) = 0.01692373
#
# Stress axis : x y z
#
# Youngs Moduli (GPa) = 149.24384 149.24272 52.16848
#
# Poissons Ratio (x) = 0.11673 0.18365
# Poissons Ratio (y) = 0.11673 0.18365
# Poissons Ratio (z) = 0.52540 0.52539
#
# Static dielectric constant tensor:
#      x y z
#    x 1.722150 0.000000 0.000000 
#    y 0.000000 1.722150 0.000000 
#    z 0.000000 0.000000 1.641130 
# 
# From -- ./inp_files/4891.got.cif
#   From: 2010.05.17/outbox.cif.g08.bks.cpg/sg192_3_cif.got.tgz:4891.got - 2010.05.20 12:28:01.
