data_PCOD9588082
_publ_section_title
;
Structure prediction by ZEFSAII (Michael W. Deem and Ramdas Pophale) SiO2 
 PCOD9588082
Probable space group: P 6/M M M
;
_chemical_formula_sum "Si O2"
_cell_formula_units_Z 72
_cell_length_a 23.624866
_cell_length_b 23.624866
_cell_length_c 7.242358
_cell_angle_alpha 90.000000
_cell_angle_beta 90.000000
_cell_angle_gamma 120.000000
_cell_volume 3500.655132
_symmetry_space_group_name_H-M "P 6/M M M"
_symmetry_group_IT_number 191
_symmetry_cell_setting 'hexagonal'
loop_
_space_group_symop_operation_xyz
x,y,z
x-y,x,z
-y,x-y,z
-x,-y,z
-x+y,-x,z
y,-x+y,z
x-y,-y,-z
-x,-x+y,-z
y,x,-z
-y,-x,-z
-x+y,y,-z
x,x-y,-z
-x,-y,-z
-x+y,-x,-z
y,-x+y,-z
x,y,-z
x-y,x,-z
-y,x-y,-z
-x+y,y,z
x,x-y,z
-y,-x,z
y,x,z
x-y,-y,z
-x,-x+y,z
loop_
_atom_site_type_symbol
_atom_site_label
_atom_site_fract_x
_atom_site_fract_y
_atom_site_fract_z
Si Si1 0.698715 0.126556 0.221331
Si Si2 0.330212 0.539059 0.500000
Si Si3 0.798044 0.722040 0.775704
Si Si4 0.563661 0.000000 0.222765
O O1 0.692896 0.182376 0.326971
O O2 0.754664 0.109440 0.275299
O O3 0.630602 0.063031 0.272021
O O4 0.703596 0.136948 0.000000
O O5 0.406567 0.593434 0.500000
O O6 0.286603 0.573205 0.500000
O O7 0.872778 0.745556 0.720199
O O8 0.763979 0.763979 0.714872
O O9 0.796830 0.723082 0.000000
O O10 0.500000 0.000000 0.292928
O O11 0.560833 0.000000 0.000000
#
# Coordination Sequence:
#
# PCOD9588082 Si02
#       4
#    24  12  24  12
#     4  10  20  38  61  86 113 144 189 240 293 346
#     4  12  27  43  59  81 112 153 198 241 285 339
#     4   9  16  29  52  81 113 149 189 234 284 339
#     4   9  16  29  53  83 114 141 170 223 289 350
#
# _framework density 20.567578999999999
#
# number of rings (size 3 to 8) (size 9 to 14) (size 15 to 20)
#    0.000    2.167    1.667    2.167    0.000    4.667 
#    0.000    1.667    0.000    2.333    0.000    2.333 
#    0.000    0.000    0.000    0.000    0.000    7.667 
#
# Total GULP energy -401868.220137 kJ/mol
# GULP energy per Si atom -5581.503057 kJ/mol
# Density = 2.052077 g / cm^3
# Si number density = 20.567579 Si / 1000 Ang^3
#
#
#
# Elastic Constant Matrix: (Units=GPa)
#
#
# Indices 1 2 3 4 5 6 
#
# 1 148.0671 85.7559 23.7454 0.0000 0.0000 0.0000
# 2 85.7559 148.0671 23.7454 0.0000 0.0000 0.0000
# 3 23.7454 23.7454 100.0670 0.0000 0.0000 0.0000
# 4 0.0000 0.0000 0.0000 -112.5739 0.0000 0.0000
# 5 0.0000 0.0000 0.0000 0.0000 -112.5739 0.0000
# 6 0.0000 0.0000 0.0000 0.0000 0.0000 31.1556
#
#
#
# Elastic Compliance Matrix: (Units=1/GPa)
#
#
# Indices 1 2 3 4 5 6 
#
# 1 0.010271 -0.005778 -0.001066 0.000000 0.000000 0.000000
# 2 -0.005778 0.010271 -0.001066 0.000000 0.000000 0.000000
# 3 -0.001066 -0.001066 0.010499 0.000000 0.000000 0.000000
# 4 0.000000 0.000000 0.000000 -0.008883 0.000000 0.000000
# 5 0.000000 0.000000 0.000000 0.000000 -0.008883 0.000000
# 6 0.000000 0.000000 0.000000 0.000000 0.000000 0.032097
#
#
# Mechanical properties :
#
#
# Convention : Reuss Voigt Hill
#
# Bulk Modulus (GPa) = 65.69883 73.63275 69.66579
# Shear Modulus (GPa) = 75.45369 -21.26815 27.09277
#
# Velocity S-wave (km/s) = 6.06345 -3.21917 3.63334
# Velocity P-wave (km/s) = 9.00182 4.69688 7.17961
#
# Compressibility (1/GPa) = 0.01522097
#
# Stress axis : x y z
#
# Youngs Moduli (GPa) = 97.36248 97.36248 95.24420
#
# Poissons Ratio (x) = 0.56252 0.10155
# Poissons Ratio (y) = 0.56252 0.10155
# Poissons Ratio (z) = 0.10381 0.10381
#
# Static dielectric constant tensor:
#      x y z
#    x 1.735890 0.000000 0.000000 
#    y 0.000000 1.735890 0.000000 
#    z 0.000000 0.000000 1.791860 
# 
# From -- ./inp_files/909.got.cif
#   From: 2010.05.17/outbox.cif.g08.bks.cpg/sg191_1_cif.got.tgz:909.got - 2010.05.20 12:20:32.
