data_PCOD9588189
_publ_section_title
;
Structure prediction by ZEFSAII (Michael W. Deem and Ramdas Pophale) SiO2 
 PCOD9588189
Probable space group: P 6/M M M
;
_chemical_formula_sum "Si O2"
_cell_formula_units_Z 84
_cell_length_a 23.029608
_cell_length_b 23.029608
_cell_length_c 11.723057
_cell_angle_alpha 90.000000
_cell_angle_beta 90.000000
_cell_angle_gamma 120.000000
_cell_volume 5384.490309
_symmetry_space_group_name_H-M "P 6/M M M"
_symmetry_group_IT_number 191
_symmetry_cell_setting 'hexagonal'
loop_
_space_group_symop_operation_xyz
x,y,z
x-y,x,z
-y,x-y,z
-x,-y,z
-x+y,-x,z
y,-x+y,z
x-y,-y,-z
-x,-x+y,-z
y,x,-z
-y,-x,-z
-x+y,y,-z
x,x-y,-z
-x,-y,-z
-x+y,-x,-z
y,-x+y,-z
x,y,-z
x-y,x,-z
-y,x-y,-z
-x+y,y,z
x,x-y,z
-y,-x,z
y,x,z
x-y,-y,z
-x,-x+y,z
loop_
_atom_site_type_symbol
_atom_site_label
_atom_site_fract_x
_atom_site_fract_y
_atom_site_fract_z
Si Si1 0.390576 0.922282 0.000000
Si Si2 0.393220 0.000000 0.636260
Si Si3 0.256165 0.000000 0.361058
Si Si4 0.365674 0.866566 0.756254
Si Si5 0.853393 0.146608 0.362102
Si Si6 0.452834 0.226417 0.637187
O O1 0.354419 0.883772 0.114937
O O2 0.462562 0.925123 0.000000
O O3 0.409344 0.000000 0.000000
O O4 0.324708 0.000000 0.668808
O O5 0.456450 0.064778 0.686852
O O6 0.396015 0.000000 0.500000
O O7 0.191906 0.930323 0.322007
O O8 0.254368 0.000000 0.500000
O O9 0.423629 0.847258 0.758360
O O10 0.298989 0.813183 0.693661
O O11 0.856402 0.143599 0.500000
O O12 0.813565 0.186436 0.338287
O O13 0.460359 0.230180 0.500000
#
# Coordination Sequence:
#
# PCOD9588189 Si02
#       6
#    12  12  12  24  12  12
#     4   9  18  35  56  78 100 128 171 223 271 320
#     4  11  19  29  51  80 105 131 165 214 275 327
#     4   9  16  27  45  68  98 133 164 199 249 310
#     4  11  22  36  54  75 103 138 179 223 267 315
#     4   9  16  28  45  68  99 132 164 200 247 309
#     4  11  22  35  51  75 108 140 176 219 267 326
#
# _framework density 15.600362000000001
#
# number of rings (size 3 to 8) (size 9 to 14) (size 15 to 20)
#    0.000    1.857    4.286    1.286    0.000    3.429 
#    0.857    0.000    0.000    0.286    0.000    2.000 
#    0.000    0.000    0.000    0.000    0.000    0.000 
#
# Total GULP energy -468382.500059 kJ/mol
# GULP energy per Si atom -5575.982144 kJ/mol
# Density = 1.556485 g / cm^3
# Si number density = 15.600362 Si / 1000 Ang^3
#
#
#
# Elastic Constant Matrix: (Units=GPa)
#
#
# Indices 1 2 3 4 5 6 
#
# 1 96.8556 56.9283 42.3518 0.0000 0.0000 0.0000
# 2 56.9283 96.8556 42.3518 0.0000 0.0000 0.0000
# 3 42.3518 42.3518 93.8073 0.0000 0.0000 0.0000
# 4 0.0000 0.0000 0.0000 16.5005 0.0000 0.0000
# 5 0.0000 0.0000 0.0000 0.0000 16.5005 0.0000
# 6 0.0000 0.0000 0.0000 0.0000 0.0000 19.9636
#
#
#
# Elastic Compliance Matrix: (Units=1/GPa)
#
#
# Indices 1 2 3 4 5 6 
#
# 1 0.016850 -0.008195 -0.003907 0.000000 0.000000 0.000000
# 2 -0.008195 0.016850 -0.003907 0.000000 0.000000 0.000000
# 3 -0.003907 -0.003907 0.014188 0.000000 0.000000 0.000000
# 4 0.000000 0.000000 0.000000 0.060604 0.000000 0.000000
# 5 0.000000 0.000000 0.000000 0.000000 0.060604 0.000000
# 6 0.000000 0.000000 0.000000 0.000000 0.000000 0.050091
#
#
# Mechanical properties :
#
#
# Convention : Reuss Voigt Hill
#
# Bulk Modulus (GPa) = 63.01893 63.42028 63.21961
# Shear Modulus (GPa) = 19.49330 20.31869 19.90599
#
# Velocity S-wave (km/s) = 3.53872 3.61286 3.57598
# Velocity P-wave (km/s) = 7.56176 7.62529 7.59359
#
# Compressibility (1/GPa) = 0.01586825
#
# Stress axis : x y z
#
# Youngs Moduli (GPa) = 59.34648 59.34648 70.48008
#
# Poissons Ratio (x) = 0.48637 0.27540
# Poissons Ratio (y) = 0.48637 0.27540
# Poissons Ratio (z) = 0.23189 0.23189
#
# Static dielectric constant tensor:
#      x y z
#    x 1.497000 0.000000 0.000000 
#    y 0.000000 1.497000 0.000000 
#    z 0.000000 0.000000 1.513150 
# 
# From -- ./inp_files/2499.got.cif
#   From: 2010.05.17/outbox.cif.g08.bks.cpg/sg191_2_cif.got.tgz:2499.got - 2010.05.20 12:20:32.
