data_PCOD9588493
_publ_section_title
;
Structure prediction by ZEFSAII (Michael W. Deem and Ramdas Pophale) SiO2 
 PCOD9588493
Probable space group: P 6/M C C
;
_chemical_formula_sum "Si O2"
_cell_formula_units_Z 104
_cell_length_a 19.987308
_cell_length_b 19.987308
_cell_length_c 16.200622
_cell_angle_alpha 90.000000
_cell_angle_beta 90.000000
_cell_angle_gamma 120.000000
_cell_volume 5604.939517
_symmetry_space_group_name_H-M "P 6/M C C"
_symmetry_group_IT_number 192
_symmetry_cell_setting 'hexagonal'
loop_
_space_group_symop_operation_xyz
x,y,z
x-y,x,z
-y,x-y,z
-x,-y,z
-x+y,-x,z
y,-x+y,z
x-y,-y,1/2-z
-x,-x+y,1/2-z
y,x,1/2-z
-y,-x,1/2-z
-x+y,y,1/2-z
x,x-y,1/2-z
-x,-y,-z
-x+y,-x,-z
y,-x+y,-z
x,y,-z
x-y,x,-z
-y,x-y,-z
-x+y,y,1/2+z
x,x-y,1/2+z
-y,-x,1/2+z
y,x,1/2+z
x-y,-y,1/2+z
-x,-x+y,1/2+z
loop_
_atom_site_type_symbol
_atom_site_label
_atom_site_fract_x
_atom_site_fract_y
_atom_site_fract_z
Si Si1 0.666667 0.333334 0.148357
Si Si2 0.714258 0.212157 0.338783
Si Si3 0.035295 0.586537 0.158561
Si Si4 0.998557 0.285071 0.401929
Si Si5 0.167664 0.836397 0.598584
O O1 0.666668 0.333334 0.250000
O O2 0.726768 0.306463 0.122572
O O3 0.752780 0.247221 0.250000
O O4 0.636251 0.128424 0.334245
O O5 0.777346 0.199551 0.385865
O O6 0.000000 0.500000 0.123459
O O7 0.000000 0.574713 0.250000
O O8 0.008395 0.639128 0.110965
O O9 0.997421 0.272253 0.500000
O O10 0.917438 0.219238 0.366601
O O11 0.076333 0.290059 0.367513
O O12 0.161021 0.841271 0.500000
#
# Coordination Sequence:
#
# PCOD9588493 Si02
#       5
#     8  24  24  24  24
#     4   9  21  30  49  65  91 126 160 194 241 279
#     4  10  20  33  49  69  94 127 161 199 238 283
#     4  10  21  30  49  72  95 122 161 200 238 279
#     4   9  18  33  51  71  95 125 156 193 238 286
#     4   9  18  33  52  72  96 124 158 194 237 285
#
# _framework density 18.555062
#
# number of rings (size 3 to 8) (size 9 to 14) (size 15 to 20)
#    0.000    2.538    0.000    1.385   12.923    0.462 
#    0.000    1.154    0.000    0.462    0.000    3.231 
#    0.000    0.000    0.000    7.385    0.000   10.154 
#
# Total GULP energy -579740.091813 kJ/mol
# GULP energy per Si atom -5574.423960 kJ/mol
# Density = 1.851283 g / cm^3
# Si number density = 18.555062 Si / 1000 Ang^3
#
#
#
# Elastic Constant Matrix: (Units=GPa)
#
#
# Indices 1 2 3 4 5 6 
#
# 1 159.1813 103.9066 4.9665 -0.0001 -0.0001 0.0002
# 2 103.9066 159.1824 4.9665 -0.0001 0.0000 0.0002
# 3 4.9665 4.9665 6.6704 0.0000 0.0000 0.0000
# 4 -0.0001 -0.0001 0.0000 15.0027 0.0000 -0.0001
# 5 -0.0001 0.0000 0.0000 0.0000 15.0027 0.0000
# 6 0.0002 0.0002 0.0000 -0.0001 0.0000 27.6374
#
#
#
# Elastic Compliance Matrix: (Units=1/GPa)
#
#
# Indices 1 2 3 4 5 6 
#
# 1 0.011001 -0.007090 -0.002912 0.000000 0.000000 0.000000
# 2 -0.007090 0.011001 -0.002912 0.000000 0.000000 0.000000
# 3 -0.002912 -0.002912 0.154251 0.000000 0.000000 0.000000
# 4 0.000000 0.000000 0.000000 0.066655 0.000000 0.000000
# 5 0.000000 0.000000 0.000000 0.000000 0.066655 0.000000
# 6 0.000000 0.000000 0.000000 0.000000 0.000000 0.036183
#
#
# Mechanical properties :
#
#
# Convention : Reuss Voigt Hill
#
# Bulk Modulus (GPa) = 6.64781 61.41257 34.03019
# Shear Modulus (GPa) = 11.85635 25.60821 18.73228
#
# Velocity S-wave (km/s) = 2.53055 3.71903 3.18079
# Velocity P-wave (km/s) = 3.48264 7.18407 5.64534
#
# Compressibility (1/GPa) = 0.15042545
#
# Stress axis : x y z
#
# Youngs Moduli (GPa) = 90.89960 90.90027 6.48293
#
# Poissons Ratio (x) = 0.64450 0.01888
# Poissons Ratio (y) = 0.64449 0.01888
# Poissons Ratio (z) = 0.26470 0.26469
#
# Static dielectric constant tensor:
#      x y z
#    x 1.660320 0.000000 0.000000 
#    y 0.000000 1.660320 0.000000 
#    z 0.000000 0.000000 1.671680 
# 
# From -- ./inp_files/2889.got.cif
#   From: 2010.05.17/outbox.cif.g08.bks.cpg/sg192_2_cif.got.tgz:2889.got - 2010.05.20 12:28:01.
