data_PCOD9588865
_publ_section_title
;
Structure prediction by ZEFSAII (Michael W. Deem and Ramdas Pophale) SiO2 
 PCOD9588865
Probable space group: P 6/M C C
;
_chemical_formula_sum "Si O2"
_cell_formula_units_Z 192
_cell_length_a 30.000000
_cell_length_b 30.000000
_cell_length_c 15.000000
_cell_angle_alpha 90.000000
_cell_angle_beta 90.000000
_cell_angle_gamma 120.000000
_cell_volume 11691.342951
_symmetry_space_group_name_H-M "P 6/M C C"
_symmetry_group_IT_number 192
_symmetry_cell_setting 'hexagonal'
loop_
_space_group_symop_operation_xyz
x,y,z
x-y,x,z
-y,x-y,z
-x,-y,z
-x+y,-x,z
y,-x+y,z
x-y,-y,1/2-z
-x,-x+y,1/2-z
y,x,1/2-z
-y,-x,1/2-z
-x+y,y,1/2-z
x,x-y,1/2-z
-x,-y,-z
-x+y,-x,-z
y,-x+y,-z
x,y,-z
x-y,x,-z
-y,x-y,-z
-x+y,y,1/2+z
x,x-y,1/2+z
-y,-x,1/2+z
y,x,1/2+z
x-y,-y,1/2+z
-x,-x+y,1/2+z
loop_
_atom_site_type_symbol
_atom_site_label
_atom_site_fract_x
_atom_site_fract_y
_atom_site_fract_z
Si Si1 0.082294 0.304449 0.900764
Si Si2 0.799082 0.802613 0.356271
Si Si3 0.238468 0.368486 0.239844
Si Si4 0.812522 0.516892 0.254935
Si Si5 0.770641 0.433830 0.395356
Si Si6 0.559458 0.331236 0.895317
Si Si7 0.903722 0.009518 0.858395
Si Si8 0.110821 0.286959 0.398442
O O1 0.094946 0.346431 0.826616
O O2 0.123202 0.285767 0.877367
O O3 0.027145 0.254139 0.895569
O O4 0.093028 0.325852 0.000000
O O5 0.797313 0.797313 0.250000
O O6 0.857406 0.838979 0.385264
O O7 0.768353 0.830839 0.383415
O O8 0.185611 0.371222 0.250000
O O9 0.283122 0.426003 0.226923
O O10 0.222600 0.327235 0.162096
O O11 0.759368 0.518735 0.250000
O O12 0.808741 0.480714 0.335097
O O13 0.810873 0.488775 0.163308
O O14 0.781534 0.443426 0.500000
O O15 0.772241 0.383122 0.370861
O O16 0.714842 0.428238 0.379926
O O17 0.549196 0.331572 0.000000
O O18 0.956639 0.057426 0.888713
O O19 0.898588 0.000000 0.750000
O O20 0.114615 0.303000 0.500000
#
# Coordination Sequence:
#
# PCOD9588865 Si02
#       8
#    24  24  24  24  24  24  24  24
#     4  10  20  33  49  68  90 116 146 181 222 268
#     4  11  19  30  49  69  92 118 147 185 223 264
#     4   9  18  32  46  62  85 113 149 189 228 270
#     4   9  17  27  40  58  81 113 154 196 232 268
#     4   9  16  25  38  58  86 121 160 198 231 260
#     4   9  16  25  38  58  86 121 160 198 231 260
#     4   9  17  27  42  65  93 124 154 184 218 257
#     4  10  20  33  49  68  90 116 146 181 222 268
#
# _framework density 16.422408000000001
#
# number of rings (size 3 to 8) (size 9 to 14) (size 15 to 20)
#    0.000    2.500    1.250    1.875    0.000    3.500 
#    0.000    6.250    0.000    0.000    0.000    0.000 
#    0.000    6.000    0.000    9.000    0.000   34.000 
#
# Total GULP energy -1069055.677381 kJ/mol
# GULP energy per Si atom -5567.998320 kJ/mol
# Density = 1.638503 g / cm^3
# Si number density = 16.422408 Si / 1000 Ang^3
#
#
#
# Elastic Constant Matrix: (Units=GPa)
#
#
# Indices 1 2 3 4 5 6 
#
# 1 38.5213 -3.4190 9.9528 0.0000 0.0000 0.0000
# 2 -3.4190 38.5213 9.9528 0.0000 0.0000 0.0000
# 3 9.9528 9.9528 24.0784 0.0000 0.0000 0.0000
# 4 0.0000 0.0000 0.0000 39.1305 0.0000 0.0000
# 5 0.0000 0.0000 0.0000 0.0000 39.1305 0.0000
# 6 0.0000 0.0000 0.0000 0.0000 0.0000 20.9701
#
#
#
# Elastic Compliance Matrix: (Units=1/GPa)
#
#
# Indices 1 2 3 4 5 6 
#
# 1 0.030527 0.006683 -0.015381 0.000000 0.000000 0.000000
# 2 0.006683 0.030527 -0.015381 0.000000 0.000000 0.000000
# 3 -0.015381 -0.015381 0.054246 0.000000 0.000000 0.000000
# 4 0.000000 0.000000 0.000000 0.025556 0.000000 0.000000
# 5 0.000000 0.000000 0.000000 0.000000 0.025556 0.000000
# 6 0.000000 0.000000 0.000000 0.000000 0.000000 0.047687
#
#
# Mechanical properties :
#
#
# Convention : Reuss Voigt Hill
#
# Bulk Modulus (GPa) = 14.89348 14.89935 14.89641
# Shear Modulus (GPa) = 17.56635 25.48853 21.52744
#
# Velocity S-wave (km/s) = 3.27411 3.94389 3.62450
# Velocity P-wave (km/s) = 4.83547 5.46180 5.15815
#
# Compressibility (1/GPa) = 0.06714349
#
# Stress axis : x y z
#
# Youngs Moduli (GPa) = 32.75811 32.75811 18.43447
#
# Poissons Ratio (x) = -0.21893 0.28354
# Poissons Ratio (y) = -0.21893 0.28354
# Poissons Ratio (z) = 0.50384 0.50384
#
# Static dielectric constant tensor:
#      x y z
#    x 1.582150 0.000000 0.000000 
#    y 0.000000 1.582150 0.000000 
#    z 0.000000 0.000000 1.599610 
# 
# From -- ./inp_files/3556.got.cif
#   From: 2010.05.17/outbox.ucp.g08.bks.cvg/sg192_2_cif.got.tgz:3556.got - 2010.06.11 15:23:19.
