data_PCOD9588759
_publ_section_title
;
Structure prediction by ZEFSAII (Michael W. Deem and Ramdas Pophale) SiO2 
 PCOD9588759
Probable space group: P 6/M C C
;
_chemical_formula_sum "Si O2"
_cell_formula_units_Z 120
_cell_length_a 22.225288
_cell_length_b 22.225288
_cell_length_c 14.349234
_cell_angle_alpha 90.000000
_cell_angle_beta 90.000000
_cell_angle_gamma 120.000000
_cell_volume 6138.385288
_symmetry_space_group_name_H-M "P 6/M C C"
_symmetry_group_IT_number 192
_symmetry_cell_setting 'hexagonal'
loop_
_space_group_symop_operation_xyz
x,y,z
x-y,x,z
-y,x-y,z
-x,-y,z
-x+y,-x,z
y,-x+y,z
x-y,-y,1/2-z
-x,-x+y,1/2-z
y,x,1/2-z
-y,-x,1/2-z
-x+y,y,1/2-z
x,x-y,1/2-z
-x,-y,-z
-x+y,-x,-z
y,-x+y,-z
x,y,-z
x-y,x,-z
-y,x-y,-z
-x+y,y,1/2+z
x,x-y,1/2+z
-y,-x,1/2+z
y,x,1/2+z
x-y,-y,1/2+z
-x,-x+y,1/2+z
loop_
_atom_site_type_symbol
_atom_site_label
_atom_site_fract_x
_atom_site_fract_y
_atom_site_fract_z
Si Si1 0.465900 0.734911 0.898420
Si Si2 0.578931 0.405060 0.847494
Si Si3 0.072491 0.723110 0.720419
Si Si4 0.173241 0.800603 0.892184
Si Si5 0.456167 0.039772 0.396326
O O1 0.429950 0.670329 0.830222
O O2 0.452949 0.798227 0.885041
O O3 0.547291 0.766220 0.893886
O O4 0.437622 0.703635 0.000000
O O5 0.568211 0.431790 0.750000
O O6 0.516930 0.398114 0.907223
O O7 0.118229 0.746586 0.816518
O O8 0.121217 0.785224 0.649393
O O9 0.049034 0.646834 0.672042
O O10 0.000000 0.716339 0.750000
O O11 0.148866 0.795661 0.000000
O O12 0.424538 0.012165 0.500000
O O13 0.500000 0.000000 0.370375
#
# Coordination Sequence:
#
# PCOD9588759 Si02
#       5
#    24  24  24  24  24
#     4  11  22  37  53  72 102 145 197 259 328 397
#     4  12  24  36  55  76 105 144 200 265 336 399
#     4  11  24  41  67  92 124 163 209 267 330 392
#     4  10  23  43  66  91 123 163 208 263 331 399
#     4  11  25  40  57  83 118 161 210 274 338 398
#
# _framework density 19.549113999999999
#
# number of rings (size 3 to 8) (size 9 to 14) (size 15 to 20)
#    0.000    1.000    2.000    4.600    8.400    1.600 
#    0.000    0.000    0.000    0.600    0.000    0.000 
#    0.000    0.000    0.000   19.200    0.000   41.600 
#
# Total GULP energy -668124.928715 kJ/mol
# GULP energy per Si atom -5567.707739 kJ/mol
# Density = 1.950462 g / cm^3
# Si number density = 19.549114 Si / 1000 Ang^3
#
#
#
# Elastic Constant Matrix: (Units=GPa)
#
#
# Indices 1 2 3 4 5 6 
#
# 1 71.7742 16.0136 27.1937 0.0000 0.0000 0.0000
# 2 16.0136 71.7742 27.1937 0.0000 0.0000 0.0000
# 3 27.1937 27.1937 142.3644 0.0000 0.0000 0.0000
# 4 0.0000 0.0000 0.0000 -12.0523 0.0000 0.0000
# 5 0.0000 0.0000 0.0000 0.0000 -12.0523 0.0000
# 6 0.0000 0.0000 0.0000 0.0000 0.0000 27.8803
#
#
#
# Elastic Compliance Matrix: (Units=1/GPa)
#
#
# Indices 1 2 3 4 5 6 
#
# 1 0.015427 -0.002507 -0.002468 0.000000 0.000000 0.000000
# 2 -0.002507 0.015427 -0.002468 0.000000 0.000000 0.000000
# 3 -0.002468 -0.002468 0.007967 0.000000 0.000000 0.000000
# 4 0.000000 0.000000 0.000000 -0.082971 0.000000 0.000000
# 5 0.000000 0.000000 0.000000 0.000000 -0.082971 0.000000
# 6 0.000000 0.000000 0.000000 0.000000 0.000000 0.035868
#
#
# Mechanical properties :
#
#
# Convention : Reuss Voigt Hill
#
# Bulk Modulus (GPa) = 41.77897 47.41275 44.59586
# Shear Modulus (GPa) = -73.10970 15.12257 -28.99357
#
# Velocity S-wave (km/s) = -6.12202 2.78433 -3.85530
# Velocity P-wave (km/s) = 5.34364 5.88578 1.74469
#
# Compressibility (1/GPa) = 0.02393548
#
# Stress axis : x y z
#
# Youngs Moduli (GPa) = 64.82165 64.82165 125.51699
#
# Poissons Ratio (x) = 0.16250 0.30977
# Poissons Ratio (y) = 0.16250 0.30977
# Poissons Ratio (z) = 0.15997 0.15997
#
# Static dielectric constant tensor:
#      x y z
#    x 1.714330 0.000000 0.000000 
#    y 0.000000 1.714330 0.000000 
#    z 0.000000 0.000000 1.904180 
# 
# From -- ./inp_files/3142.got.cif
#   From: 2010.05.17/outbox.cif.g08.bks.cpg/sg192_2_cif.got.tgz:3142.got - 2010.05.20 12:28:01.
