data_PCOD9588814
_publ_section_title
;
Structure prediction by ZEFSAII (Michael W. Deem and Ramdas Pophale) SiO2 
 PCOD9588814
Probable space group: P 6/M C C
;
_chemical_formula_sum "Si O2"
_cell_formula_units_Z 102
_cell_length_a 26.210843
_cell_length_b 26.210843
_cell_length_c 8.186589
_cell_angle_alpha 90.000000
_cell_angle_beta 90.000000
_cell_angle_gamma 120.000000
_cell_volume 4870.747288
_symmetry_space_group_name_H-M "P 6/M C C"
_symmetry_group_IT_number 192
_symmetry_cell_setting 'hexagonal'
loop_
_space_group_symop_operation_xyz
x,y,z
x-y,x,z
-y,x-y,z
-x,-y,z
-x+y,-x,z
y,-x+y,z
x-y,-y,1/2-z
-x,-x+y,1/2-z
y,x,1/2-z
-y,-x,1/2-z
-x+y,y,1/2-z
x,x-y,1/2-z
-x,-y,-z
-x+y,-x,-z
y,-x+y,-z
x,y,-z
x-y,x,-z
-y,x-y,-z
-x+y,y,1/2+z
x,x-y,1/2+z
-y,-x,1/2+z
y,x,1/2+z
x-y,-y,1/2+z
-x,-x+y,1/2+z
loop_
_atom_site_type_symbol
_atom_site_label
_atom_site_fract_x
_atom_site_fract_y
_atom_site_fract_z
Si Si1 0.333294 0.774041 0.307240
Si Si2 0.904286 0.374834 0.803594
Si Si3 0.933566 0.177985 0.194613
Si Si4 0.868579 0.247093 0.692141
Si Si5 0.500000 0.000000 0.750000
O O1 0.267578 0.732423 0.250000
O O2 0.374465 0.748929 0.250000
O O3 0.333591 0.776635 0.500000
O O4 0.361217 0.840166 0.246439
O O5 0.898587 0.311171 0.777251
O O6 0.951340 0.431860 0.703128
O O7 0.914111 0.389698 0.000000
O O8 0.888446 0.111555 0.250000
O O9 0.908752 0.217758 0.273379
O O10 0.000000 0.201976 0.250000
O O11 0.930495 0.182045 0.000000
O O12 0.802741 0.197260 0.750000
O O13 0.865674 0.256136 0.500000
#
# Coordination Sequence:
#
# PCOD9588814 Si02
#       5
#    24  24  24  24   6
#     4  11  23  41  64  91 120 155 198 253 315 380
#     4  11  25  44  66  92 125 167 213 265 323 393
#     4  11  22  40  65  97 136 177 224 275 330 390
#     4  11  23  41  67  98 132 171 218 276 335 397
#     4  12  26  48  68  94 130 172 228 270 328 396
#
# _framework density 20.941344999999998
#
# number of rings (size 3 to 8) (size 9 to 14) (size 15 to 20)
#    0.000    0.941    1.176    7.647    1.647    5.647 
#    0.000    0.000    0.000    0.235    0.000    1.647 
#    0.000    0.000    0.000    0.000    0.000    0.000 
#
# Total GULP energy -569134.496526 kJ/mol
# GULP energy per Si atom -5579.749966 kJ/mol
# Density = 2.089368 g / cm^3
# Si number density = 20.941345 Si / 1000 Ang^3
#
#
#
# Elastic Constant Matrix: (Units=GPa)
#
#
# Indices 1 2 3 4 5 6 
#
# 1 151.4450 64.7296 6.4091 0.0000 0.0000 0.0000
# 2 64.7296 151.4450 6.4091 0.0000 0.0000 0.0000
# 3 6.4091 6.4091 65.2974 0.0000 0.0000 0.0000
# 4 0.0000 0.0000 0.0000 4.5804 0.0000 0.0000
# 5 0.0000 0.0000 0.0000 0.0000 4.5804 0.0000
# 6 0.0000 0.0000 0.0000 0.0000 0.0000 43.3577
#
#
#
# Elastic Compliance Matrix: (Units=1/GPa)
#
#
# Indices 1 2 3 4 5 6 
#
# 1 0.008092 -0.003440 -0.000457 0.000000 0.000000 0.000000
# 2 -0.003440 0.008092 -0.000457 0.000000 0.000000 0.000000
# 3 -0.000457 -0.000457 0.015404 0.000000 0.000000 0.000000
# 4 0.000000 0.000000 0.000000 0.218323 0.000000 0.000000
# 5 0.000000 0.000000 0.000000 0.000000 0.218323 0.000000
# 6 0.000000 0.000000 0.000000 0.000000 0.000000 0.023064
#
#
# Mechanical properties :
#
#
# Convention : Reuss Voigt Hill
#
# Bulk Modulus (GPa) = 43.69990 58.14255 50.92122
# Shear Modulus (GPa) = 9.84962 29.87966 19.86464
#
# Velocity S-wave (km/s) = 2.17109 3.78143 3.08325
# Velocity P-wave (km/s) = 5.21516 6.84766 6.08639
#
# Compressibility (1/GPa) = 0.02288335
#
# Stress axis : x y z
#
# Youngs Moduli (GPa) = 123.57163 123.57163 64.91735
#
# Poissons Ratio (x) = 0.42502 0.02965
# Poissons Ratio (y) = 0.42502 0.02965
# Poissons Ratio (z) = 0.05643 0.05643
#
# Static dielectric constant tensor:
#      x y z
#    x 1.757500 0.000000 0.000000 
#    y 0.000000 1.757500 0.000000 
#    z 0.000000 0.000000 1.769720 
# 
# From -- ./inp_files/880.got.cif
#   From: 2010.05.17/outbox.cif.g08.bks.cpg/sg192_1_cif.got.tgz:880.got - 2010.05.20 12:28:01.
