data_PCOD9588322
_publ_section_title
;
Structure prediction by ZEFSAII (Michael W. Deem and Ramdas Pophale) SiO2 
 PCOD9588322
Probable space group: P 6/M C C
;
_chemical_formula_sum "Si O2"
_cell_formula_units_Z 72
_cell_length_a 23.748909
_cell_length_b 23.748909
_cell_length_c 8.566364
_cell_angle_alpha 90.000000
_cell_angle_beta 90.000000
_cell_angle_gamma 120.000000
_cell_volume 4184.219729
_symmetry_space_group_name_H-M "P 6/M C C"
_symmetry_group_IT_number 192
_symmetry_cell_setting 'hexagonal'
loop_
_space_group_symop_operation_xyz
x,y,z
x-y,x,z
-y,x-y,z
-x,-y,z
-x+y,-x,z
y,-x+y,z
x-y,-y,1/2-z
-x,-x+y,1/2-z
y,x,1/2-z
-y,-x,1/2-z
-x+y,y,1/2-z
x,x-y,1/2-z
-x,-y,-z
-x+y,-x,-z
y,-x+y,-z
x,y,-z
x-y,x,-z
-y,x-y,-z
-x+y,y,1/2+z
x,x-y,1/2+z
-y,-x,1/2+z
y,x,1/2+z
x-y,-y,1/2+z
-x,-x+y,1/2+z
loop_
_atom_site_type_symbol
_atom_site_label
_atom_site_fract_x
_atom_site_fract_y
_atom_site_fract_z
Si Si1 0.539896 0.334069 0.686912
Si Si2 0.734290 0.930722 0.813488
Si Si3 0.862329 0.596473 0.813131
O O1 0.600076 0.399925 0.750000
O O2 0.546575 0.273288 0.750000
O O3 0.539594 0.332227 0.500000
O O4 0.471079 0.323793 0.748611
O O5 0.742243 0.871122 0.750000
O O6 0.664650 0.918854 0.751339
O O7 0.789031 0.000000 0.750000
O O8 0.733444 0.929013 0.000000
O O9 0.797843 0.595685 0.750000
O O10 0.862709 0.596611 0.000000
#
# Coordination Sequence:
#
# PCOD9588322 Si02
#       3
#    24  24  24
#     4  11  20  31  45  66  95 131 172 219 269 321
#     4  11  21  36  57  84 112 141 172 209 249 294
#     4  10  18  31  49  72  99 132 170 213 258 305
#
# _framework density 17.207509999999999
#
# number of rings (size 3 to 8) (size 9 to 14) (size 15 to 20)
#    0.000    1.333    0.000   13.333    0.000    0.000 
#    0.000    0.000    0.000    1.333    0.000    9.333 
#    0.000    0.000    0.000    0.000    0.000    0.000 
#
# Total GULP energy -401869.363225 kJ/mol
# GULP energy per Si atom -5581.518934 kJ/mol
# Density = 1.716835 g / cm^3
# Si number density = 17.207510 Si / 1000 Ang^3
#
#
#
# Elastic Constant Matrix: (Units=GPa)
#
#
# Indices 1 2 3 4 5 6 
#
# 1 100.0366 51.8363 52.8060 0.0000 0.0000 0.0000
# 2 51.8363 100.0366 52.8060 0.0000 0.0000 0.0000
# 3 52.8060 52.8060 223.3690 0.0000 0.0000 0.0000
# 4 0.0000 0.0000 0.0000 26.7199 0.0000 0.0000
# 5 0.0000 0.0000 0.0000 0.0000 26.7199 0.0000
# 6 0.0000 0.0000 0.0000 0.0000 0.0000 24.1002
#
#
#
# Elastic Compliance Matrix: (Units=1/GPa)
#
#
# Indices 1 2 3 4 5 6 
#
# 1 0.014313 -0.006433 -0.001863 0.000000 0.000000 0.000000
# 2 -0.006433 0.014313 -0.001863 0.000000 0.000000 0.000000
# 3 -0.001863 -0.001863 0.005358 0.000000 0.000000 0.000000
# 4 0.000000 0.000000 0.000000 0.037425 0.000000 0.000000
# 5 0.000000 0.000000 0.000000 0.000000 0.037425 0.000000
# 6 0.000000 0.000000 0.000000 0.000000 0.000000 0.041494
#
#
# Mechanical properties :
#
#
# Convention : Reuss Voigt Hill
#
# Bulk Modulus (GPa) = 73.17421 82.03760 77.60591
# Shear Modulus (GPa) = 28.53849 33.24093 30.88971
#
# Velocity S-wave (km/s) = 4.07687 4.39996 4.24149
# Velocity P-wave (km/s) = 8.04848 8.57857 8.31775
#
# Compressibility (1/GPa) = 0.01366602
#
# Stress axis : x y z
#
# Youngs Moduli (GPa) = 69.86499 69.86499 186.64787
#
# Poissons Ratio (x) = 0.44947 0.34770
# Poissons Ratio (y) = 0.44947 0.34770
# Poissons Ratio (z) = 0.13015 0.13015
#
# Static dielectric constant tensor:
#      x y z
#    x 1.580170 0.000000 0.000000 
#    y 0.000000 1.580170 0.000000 
#    z 0.000000 0.000000 1.565550 
# 
# From -- ./inp_files/528.got.cif
#   From: 2010.05.17/outbox.cif.g08.bks.cpg/sg192_1_cif.got.tgz:528.got - 2010.05.20 12:28:01.
