data_PCOD9588601
_publ_section_title
;
Structure prediction by ZEFSAII (Michael W. Deem and Ramdas Pophale) SiO2 
 PCOD9588601
Probable space group: P 6/M C C
;
_chemical_formula_sum "Si O2"
_cell_formula_units_Z 144
_cell_length_a 21.330017
_cell_length_b 21.330017
_cell_length_c 20.191421
_cell_angle_alpha 90.000000
_cell_angle_beta 90.000000
_cell_angle_gamma 120.000000
_cell_volume 7955.727862
_symmetry_space_group_name_H-M "P 6/M C C"
_symmetry_group_IT_number 192
_symmetry_cell_setting 'hexagonal'
loop_
_space_group_symop_operation_xyz
x,y,z
x-y,x,z
-y,x-y,z
-x,-y,z
-x+y,-x,z
y,-x+y,z
x-y,-y,1/2-z
-x,-x+y,1/2-z
y,x,1/2-z
-y,-x,1/2-z
-x+y,y,1/2-z
x,x-y,1/2-z
-x,-y,-z
-x+y,-x,-z
y,-x+y,-z
x,y,-z
x-y,x,-z
-y,x-y,-z
-x+y,y,1/2+z
x,x-y,1/2+z
-y,-x,1/2+z
y,x,1/2+z
x-y,-y,1/2+z
-x,-x+y,1/2+z
loop_
_atom_site_type_symbol
_atom_site_label
_atom_site_fract_x
_atom_site_fract_y
_atom_site_fract_z
Si Si1 0.838435 0.873521 0.580281
Si Si2 0.415117 0.169479 0.000000
Si Si3 0.055737 0.660022 0.626084
Si Si4 0.500000 0.000000 0.618466
Si Si5 0.322884 0.245879 0.612339
Si Si6 0.671069 0.152633 0.000000
Si Si7 0.313874 0.084013 0.255472
Si Si8 0.481230 0.587513 0.500000
O O1 0.902940 0.857851 0.598341
O O2 0.831167 0.867626 0.500000
O O3 0.761895 0.814068 0.610288
O O4 0.363362 0.143752 0.063394
O O5 0.459532 0.128736 0.000000
O O6 0.474065 0.252032 0.000000
O O7 0.027346 0.577934 0.653459
O O8 0.108444 0.668647 0.565875
O O9 0.086551 0.723083 0.682588
O O10 0.990292 0.666975 0.593248
O O11 0.446853 0.938990 0.566707
O O12 0.355015 0.258788 0.685907
O O13 0.603270 0.164919 0.000000
O O14 0.290951 0.145476 0.250000
O O15 0.249604 0.000000 0.250000
#
# Coordination Sequence:
#
# PCOD9588601 Si02
#       8
#    24  12  24  12  24  12  24  12
#     4  10  22  36  54  79 114 153 198 244 292 339
#     4  12  20  34  58  83 115 145 191 230 275 348
#     4  10  20  37  57  85 114 144 187 237 291 345
#     4   9  16  34  61  78 112 146 176 228 296 349
#     4  11  22  33  55  84 109 148 187 245 283 333
#     4  10  22  32  62  83 108 151 182 220 287 350
#     4  10  23  39  53  78 117 152 189 242 293 336
#     4   9  18  34  52  86 114 145 176 225 285 339
#
# _framework density 18.100166000000002
#
# number of rings (size 3 to 8) (size 9 to 14) (size 15 to 20)
#    0.000    1.833    2.500    2.167    7.000    0.667 
#    0.500    3.750    0.000    0.167    0.000    0.000 
#    0.000    0.000    0.000    0.000    0.000    0.000 
#
# Total GULP energy -801876.503203 kJ/mol
# GULP energy per Si atom -5568.586828 kJ/mol
# Density = 1.805897 g / cm^3
# Si number density = 18.100166 Si / 1000 Ang^3
#
#
#
# Elastic Constant Matrix: (Units=GPa)
#
#
# Indices 1 2 3 4 5 6 
#
# 1 88.9296 42.2302 19.6134 0.0000 0.0000 0.0000
# 2 42.2302 88.9296 19.6134 0.0000 0.0000 0.0000
# 3 19.6134 19.6134 69.5540 0.0000 0.0000 0.0000
# 4 0.0000 0.0000 0.0000 12.7220 0.0000 0.0000
# 5 0.0000 0.0000 0.0000 0.0000 12.7220 0.0000
# 6 0.0000 0.0000 0.0000 0.0000 0.0000 23.3497
#
#
#
# Elastic Compliance Matrix: (Units=1/GPa)
#
#
# Indices 1 2 3 4 5 6 
#
# 1 0.014870 -0.006544 -0.002348 0.000000 0.000000 0.000000
# 2 -0.006544 0.014870 -0.002348 0.000000 0.000000 0.000000
# 3 -0.002348 -0.002348 0.015702 0.000000 0.000000 0.000000
# 4 0.000000 0.000000 0.000000 0.078604 0.000000 0.000000
# 5 0.000000 0.000000 0.000000 0.000000 0.078604 0.000000
# 6 0.000000 0.000000 0.000000 0.000000 0.000000 0.042827
#
#
# Mechanical properties :
#
#
# Convention : Reuss Voigt Hill
#
# Bulk Modulus (GPa) = 43.54900 45.59190 44.57045
# Shear Modulus (GPa) = 18.14160 20.82250 19.48205
#
# Velocity S-wave (km/s) = 3.16933 3.39544 3.28433
# Velocity P-wave (km/s) = 6.12414 6.37302 6.24982
#
# Compressibility (1/GPa) = 0.02296264
#
# Stress axis : x y z
#
# Youngs Moduli (GPa) = 67.24940 67.24940 63.68814
#
# Poissons Ratio (x) = 0.44005 0.14954
# Poissons Ratio (y) = 0.44005 0.14954
# Poissons Ratio (z) = 0.15790 0.15790
#
# Static dielectric constant tensor:
#      x y z
#    x 1.644920 0.000000 0.000000 
#    y 0.000000 1.644920 0.000000 
#    z 0.000000 0.000000 1.659800 
# 
# From -- ./inp_files/5221.got.cif
#   From: 2010.05.17/outbox.cif.g08.bks.cpg/sg192_3_cif.got.tgz:5221.got - 2010.05.20 12:28:01.
