data_PCOD9588403
_publ_section_title
;
Structure prediction by ZEFSAII (Michael W. Deem and Ramdas Pophale) SiO2 
 PCOD9588403
Probable space group: P 6/M C C
;
_chemical_formula_sum "Si O2"
_cell_formula_units_Z 120
_cell_length_a 22.477535
_cell_length_b 22.477535
_cell_length_c 15.492667
_cell_angle_alpha 90.000000
_cell_angle_beta 90.000000
_cell_angle_gamma 120.000000
_cell_volume 6778.821264
_symmetry_space_group_name_H-M "P 6/M C C"
_symmetry_group_IT_number 192
_symmetry_cell_setting 'hexagonal'
loop_
_space_group_symop_operation_xyz
x,y,z
x-y,x,z
-y,x-y,z
-x,-y,z
-x+y,-x,z
y,-x+y,z
x-y,-y,1/2-z
-x,-x+y,1/2-z
y,x,1/2-z
-y,-x,1/2-z
-x+y,y,1/2-z
x,x-y,1/2-z
-x,-y,-z
-x+y,-x,-z
y,-x+y,-z
x,y,-z
x-y,x,-z
-y,x-y,-z
-x+y,y,1/2+z
x,x-y,1/2+z
-y,-x,1/2+z
y,x,1/2+z
x-y,-y,1/2+z
-x,-x+y,1/2+z
loop_
_atom_site_type_symbol
_atom_site_label
_atom_site_fract_x
_atom_site_fract_y
_atom_site_fract_z
Si Si1 0.736006 0.826429 0.165077
Si Si2 0.257018 0.206130 0.404411
Si Si3 0.282394 0.420217 0.899415
Si Si4 0.140834 0.416054 0.897587
Si Si5 0.469911 0.388299 0.753451
O O1 0.732893 0.866447 0.250000
O O2 0.758556 0.887096 0.096204
O O3 0.782921 0.792219 0.158812
O O4 0.661055 0.764244 0.140386
O O5 0.248235 0.227314 0.500000
O O6 0.338293 0.250088 0.383193
O O7 0.221064 0.437584 0.888682
O O8 0.341368 0.458596 0.830047
O O9 0.304210 0.432680 0.000000
O O10 0.115816 0.457930 0.838672
O O11 0.126635 0.416235 0.000000
O O12 0.415135 0.415135 0.750000
O O13 0.544667 0.455334 0.750000
#
# Coordination Sequence:
#
# PCOD9588403 Si02
#       5
#    24  24  24  24  24
#     4  11  20  31  50  77 107 138 176 223 273 320
#     4  10  19  32  50  75 104 137 176 221 269 319
#     4   9  19  36  59  81 103 136 180 225 269 311
#     4  10  20  36  57  79 103 137 179 225 268 308
#     4  11  23  35  51  80 115 147 174 205 258 328
#
# _framework density 17.702193000000001
#
# number of rings (size 3 to 8) (size 9 to 14) (size 15 to 20)
#    0.000    1.800    0.000    7.800    0.000    3.200 
#    0.000    2.000    0.000    3.600    0.000    2.800 
#    0.000    0.000    0.000    0.000    0.000    0.000 
#
# Total GULP energy -669193.759375 kJ/mol
# GULP energy per Si atom -5576.614661 kJ/mol
# Density = 1.766190 g / cm^3
# Si number density = 17.702193 Si / 1000 Ang^3
#
#
#
# Elastic Constant Matrix: (Units=GPa)
#
#
# Indices 1 2 3 4 5 6 
#
# 1 89.2132 48.7226 60.3792 0.0000 0.0000 0.0000
# 2 48.7226 89.2132 60.3792 0.0000 0.0000 0.0000
# 3 60.3792 60.3792 135.1254 0.0000 0.0000 0.0000
# 4 0.0000 0.0000 0.0000 18.3314 0.0000 0.0000
# 5 0.0000 0.0000 0.0000 0.0000 18.3314 0.0000
# 6 0.0000 0.0000 0.0000 0.0000 0.0000 20.2453
#
#
#
# Elastic Compliance Matrix: (Units=1/GPa)
#
#
# Indices 1 2 3 4 5 6 
#
# 1 0.018303 -0.006394 -0.005321 0.000000 0.000000 0.000000
# 2 -0.006394 0.018303 -0.005321 0.000000 0.000000 0.000000
# 3 -0.005321 -0.005321 0.012156 0.000000 0.000000 0.000000
# 4 0.000000 0.000000 0.000000 0.054551 0.000000 0.000000
# 5 0.000000 0.000000 0.000000 0.000000 0.054551 0.000000
# 6 0.000000 0.000000 0.000000 0.000000 0.000000 0.049394
#
#
# Mechanical properties :
#
#
# Convention : Reuss Voigt Hill
#
# Bulk Modulus (GPa) = 68.08270 72.50151 70.29210
# Shear Modulus (GPa) = 20.30652 20.98636 20.64644
#
# Velocity S-wave (km/s) = 3.39059 3.44688 3.41885
# Velocity P-wave (km/s) = 7.33973 7.54231 7.44171
#
# Compressibility (1/GPa) = 0.01468802
#
# Stress axis : x y z
#
# Youngs Moduli (GPa) = 54.63704 54.63704 82.26533
#
# Poissons Ratio (x) = 0.34938 0.43773
# Poissons Ratio (y) = 0.34938 0.43773
# Poissons Ratio (z) = 0.29072 0.29072
#
# Static dielectric constant tensor:
#      x y z
#    x 1.598400 0.000000 0.000000 
#    y 0.000000 1.598400 0.000000 
#    z 0.000000 0.000000 1.790930 
# 
# From -- ./inp_files/3163.got.cif
#   From: 2010.05.17/outbox.cif.g08.bks.cpg/sg192_2_cif.got.tgz:3163.got - 2010.05.20 12:28:01.
