data_PCOD9588842
_publ_section_title
;
Structure prediction by ZEFSAII (Michael W. Deem and Ramdas Pophale) SiO2 
 PCOD9588842
Probable space group: P 6/M C C
;
_chemical_formula_sum "Si O2"
_cell_formula_units_Z 74
_cell_length_a 11.357796
_cell_length_b 11.357796
_cell_length_c 28.222936
_cell_angle_alpha 90.000000
_cell_angle_beta 90.000000
_cell_angle_gamma 120.000000
_cell_volume 3152.978073
_symmetry_space_group_name_H-M "P 6/M C C"
_symmetry_group_IT_number 192
_symmetry_cell_setting 'hexagonal'
loop_
_space_group_symop_operation_xyz
x,y,z
x-y,x,z
-y,x-y,z
-x,-y,z
-x+y,-x,z
y,-x+y,z
x-y,-y,1/2-z
-x,-x+y,1/2-z
y,x,1/2-z
-y,-x,1/2-z
-x+y,y,1/2-z
x,x-y,1/2-z
-x,-y,-z
-x+y,-x,-z
y,-x+y,-z
x,y,-z
x-y,x,-z
-y,x-y,-z
-x+y,y,1/2+z
x,x-y,1/2+z
-y,-x,1/2+z
y,x,1/2+z
x-y,-y,1/2+z
-x,-x+y,1/2+z
loop_
_atom_site_type_symbol
_atom_site_label
_atom_site_fract_x
_atom_site_fract_y
_atom_site_fract_z
Si Si1 0.000000 0.500000 0.750000
Si Si2 0.350005 0.417660 0.904821
Si Si3 0.666667 0.333334 0.556900
Si Si4 0.692567 0.760718 0.306415
Si Si5 0.020163 0.732629 0.500000
O O1 0.082395 0.445617 0.717430
O O2 0.500000 0.500000 0.883524
O O3 0.309907 0.525464 0.923214
O O4 0.252778 0.326893 0.863297
O O5 0.359281 0.342955 0.951808
O O6 0.666667 0.333334 0.500000
O O7 0.814337 0.729217 0.295005
O O8 0.881444 0.735525 0.500000
#
# Coordination Sequence:
#
# PCOD9588842 Si02
#       5
#     6  24   8  24  12
#     4  12  28  52  78 118 152 188 244 312 388 458
#     4  12  25  44  69 107 147 196 251 307 375 455
#     4  12  24  42  72 106 155 205 246 306 375 463
#     4  12  27  54  83 117 153 202 257 319 389 462
#     4  12  24  40  64  96 141 186 244 300 368 442
#
# _framework density 23.469873
#
# number of rings (size 3 to 8) (size 9 to 14) (size 15 to 20)
#    0.000    0.000    3.243    7.784    0.000    0.000 
#    7.784    4.865    0.000    0.000    0.000    0.000 
#    0.000    0.000    0.000    0.000    0.000    0.000 
#
# Total GULP energy -414229.547944 kJ/mol
# GULP energy per Si atom -5597.696594 kJ/mol
# Density = 2.341645 g / cm^3
# Si number density = 23.469873 Si / 1000 Ang^3
#
#
#
# Elastic Constant Matrix: (Units=GPa)
#
#
# Indices 1 2 3 4 5 6 
#
# 1 141.7021 75.9169 40.1790 0.0001 -0.0008 0.0000
# 2 75.9169 141.7026 40.1787 0.0006 0.0004 0.0004
# 3 40.1790 40.1787 134.3977 0.0005 0.0004 -0.0001
# 4 0.0001 0.0006 0.0005 105.1896 0.0009 -0.0006
# 5 -0.0008 0.0004 0.0004 0.0009 105.1889 0.0003
# 6 0.0000 0.0004 -0.0001 -0.0006 0.0003 32.8925
#
#
#
# Elastic Compliance Matrix: (Units=1/GPa)
#
#
# Indices 1 2 3 4 5 6 
#
# 1 0.010183 -0.005018 -0.001544 0.000000 0.000000 0.000000
# 2 -0.005018 0.010183 -0.001544 0.000000 0.000000 0.000000
# 3 -0.001544 -0.001544 0.008364 0.000000 0.000000 0.000000
# 4 0.000000 0.000000 0.000000 0.009507 0.000000 0.000000
# 5 0.000000 0.000000 0.000000 0.000000 0.009507 0.000000
# 6 0.000000 0.000000 0.000000 0.000000 0.000000 0.030402
#
#
# Mechanical properties :
#
#
# Convention : Reuss Voigt Hill
#
# Bulk Modulus (GPa) = 79.88611 81.15018 80.51814
# Shear Modulus (GPa) = 50.74562 66.08938 58.41750
#
# Velocity S-wave (km/s) = 4.65495 5.31228 4.99444
# Velocity P-wave (km/s) = 7.93744 8.50168 8.22440
#
# Compressibility (1/GPa) = 0.01251782
#
# Stress axis : x y z
#
# Youngs Moduli (GPa) = 98.20106 98.20159 119.56134
#
# Poissons Ratio (x) = 0.49275 0.18463
# Poissons Ratio (y) = 0.49275 0.18463
# Poissons Ratio (z) = 0.15165 0.15164
#
# Static dielectric constant tensor:
#      x y z
#    x 1.664360 0.000010 0.000000 
#    y 0.000010 1.664470 0.000000 
#    z 0.000000 0.000000 2.040310 
# 
# From -- ./inp_files/6773.got.cif
#   From: 2010.05.17/outbox.cif.g08.bks.cpg/sg192_4_cif.got.tgz:6773.got - 2010.05.20 12:28:01.
