data_PCOD9588392
_publ_section_title
;
Structure prediction by ZEFSAII (Michael W. Deem and Ramdas Pophale) SiO2 
 PCOD9588392
Probable space group: P 6/M C C
;
_chemical_formula_sum "Si O2"
_cell_formula_units_Z 104
_cell_length_a 19.133365
_cell_length_b 19.133365
_cell_length_c 14.416409
_cell_angle_alpha 90.000000
_cell_angle_beta 90.000000
_cell_angle_gamma 120.000000
_cell_volume 4570.570788
_symmetry_space_group_name_H-M "P 6/M C C"
_symmetry_group_IT_number 192
_symmetry_cell_setting 'hexagonal'
loop_
_space_group_symop_operation_xyz
x,y,z
x-y,x,z
-y,x-y,z
-x,-y,z
-x+y,-x,z
y,-x+y,z
x-y,-y,1/2-z
-x,-x+y,1/2-z
y,x,1/2-z
-y,-x,1/2-z
-x+y,y,1/2-z
x,x-y,1/2-z
-x,-y,-z
-x+y,-x,-z
y,-x+y,-z
x,y,-z
x-y,x,-z
-y,x-y,-z
-x+y,y,1/2+z
x,x-y,1/2+z
-y,-x,1/2+z
y,x,1/2+z
x-y,-y,1/2+z
-x,-x+y,1/2+z
loop_
_atom_site_type_symbol
_atom_site_label
_atom_site_fract_x
_atom_site_fract_y
_atom_site_fract_z
Si Si1 0.666668 0.333334 0.387303
Si Si2 0.261449 0.906839 0.611544
Si Si3 0.142437 0.166756 0.142045
Si Si4 0.967433 0.559216 0.113465
Si Si5 0.210629 0.483673 0.886563
O O1 0.666667 0.333334 0.500000
O O2 0.573245 0.279954 0.358887
O O3 0.264559 0.903313 0.500000
O O4 0.207310 0.946844 0.633223
O O5 0.228273 0.815202 0.644022
O O6 0.351439 0.967586 0.644453
O O7 0.158636 0.098127 0.102228
O O8 0.144947 0.144947 0.250000
O O9 0.877093 0.533042 0.143916
O O10 0.000000 0.500000 0.140900
O O11 0.965473 0.559256 0.000000
O O12 0.209973 0.482745 0.000000
#
# Coordination Sequence:
#
# PCOD9588392 Si02
#       5
#     8  24  24  24  24
#     4   9  15  24  39  63  99 139 173 202 238 287
#     4  10  19  31  49  74 102 129 161 205 253 295
#     4  10  21  37  55  73  95 126 163 200 240 292
#     4   9  16  26  41  64  96 131 163 197 241 291
#     4   9  16  25  39  62  94 131 166 201 242 288
#
# _framework density 22.754269000000001
#
# number of rings (size 3 to 8) (size 9 to 14) (size 15 to 20)
#    0.000    2.538    0.000    3.000    0.000    9.231 
#    0.000    0.000    0.000    2.077    0.000    0.000 
#    0.000    5.538    0.000    0.000    0.000    0.000 
#
# Total GULP energy -581013.995804 kJ/mol
# GULP energy per Si atom -5586.673037 kJ/mol
# Density = 2.270248 g / cm^3
# Si number density = 22.754269 Si / 1000 Ang^3
#
#
#
# Elastic Constant Matrix: (Units=GPa)
#
#
# Indices 1 2 3 4 5 6 
#
# 1 241.1140 157.5119 9.1347 -0.0001 0.0000 0.0006
# 2 157.5119 241.1173 9.1348 -0.0001 0.0000 0.0006
# 3 9.1347 9.1348 84.6917 0.0000 0.0000 0.0001
# 4 -0.0001 -0.0001 0.0000 9.7210 0.0000 0.0000
# 5 0.0000 0.0000 0.0000 0.0000 9.7210 0.0000
# 6 0.0006 0.0006 0.0001 0.0000 0.0000 41.8014
#
#
#
# Elastic Compliance Matrix: (Units=1/GPa)
#
#
# Indices 1 2 3 4 5 6 
#
# 1 0.007241 -0.004720 -0.000272 0.000000 0.000000 0.000000
# 2 -0.004720 0.007241 -0.000272 0.000000 0.000000 0.000000
# 3 -0.000272 -0.000272 0.011866 0.000000 0.000000 0.000000
# 4 0.000000 0.000000 0.000000 0.102870 0.000000 0.000000
# 5 0.000000 0.000000 0.000000 0.000000 0.102870 0.000000
# 6 0.000000 0.000000 0.000000 0.000000 0.000000 0.023923
#
#
# Mechanical properties :
#
#
# Convention : Reuss Voigt Hill
#
# Bulk Modulus (GPa) = 63.20852 102.05397 82.63125
# Shear Modulus (GPa) = 18.39507 38.32481 28.35994
#
# Velocity S-wave (km/s) = 2.84636 4.10846 3.53421
# Velocity P-wave (km/s) = 6.21622 8.21303 7.28338
#
# Compressibility (1/GPa) = 0.01582065
#
# Stress axis : x y z
#
# Youngs Moduli (GPa) = 138.09910 138.10102 84.27304
#
# Poissons Ratio (x) = 0.65184 0.02291
# Poissons Ratio (y) = 0.65184 0.02292
# Poissons Ratio (z) = 0.03755 0.03755
#
# Static dielectric constant tensor:
#      x y z
#    x 1.705090 -0.000010 0.000000 
#    y -0.000010 1.705050 0.000000 
#    z 0.000000 0.000000 2.007600 
# 
# From -- ./inp_files/4868.got.cif
#   From: 2010.05.17/outbox.cif.g08.bks.cpg/sg192_3_cif.got.tgz:4868.got - 2010.05.20 12:28:01.
