data_PCOD9588608
_publ_section_title
;
Structure prediction by ZEFSAII (Michael W. Deem and Ramdas Pophale) SiO2 
 PCOD9588608
Probable space group: P 6/M C C
;
_chemical_formula_sum "Si O2"
_cell_formula_units_Z 84
_cell_length_a 17.127667
_cell_length_b 17.127667
_cell_length_c 15.428163
_cell_angle_alpha 90.000000
_cell_angle_beta 90.000000
_cell_angle_gamma 120.000000
_cell_volume 3919.595692
_symmetry_space_group_name_H-M "P 6/M C C"
_symmetry_group_IT_number 192
_symmetry_cell_setting 'hexagonal'
loop_
_space_group_symop_operation_xyz
x,y,z
x-y,x,z
-y,x-y,z
-x,-y,z
-x+y,-x,z
y,-x+y,z
x-y,-y,1/2-z
-x,-x+y,1/2-z
y,x,1/2-z
-y,-x,1/2-z
-x+y,y,1/2-z
x,x-y,1/2-z
-x,-y,-z
-x+y,-x,-z
y,-x+y,-z
x,y,-z
x-y,x,-z
-y,x-y,-z
-x+y,y,1/2+z
x,x-y,1/2+z
-y,-x,1/2+z
y,x,1/2+z
x-y,-y,1/2+z
-x,-x+y,1/2+z
loop_
_atom_site_type_symbol
_atom_site_label
_atom_site_fract_x
_atom_site_fract_y
_atom_site_fract_z
Si Si1 0.500451 0.361898 0.394271
Si Si2 0.172765 0.479673 0.104366
Si Si3 0.001411 0.699677 0.653679
Si Si4 0.970313 0.169306 0.000000
O O1 0.492597 0.364740 0.500000
O O2 0.591941 0.450117 0.366180
O O3 0.507509 0.274019 0.371044
O O4 0.408728 0.348581 0.353974
O O5 0.102665 0.379231 0.132925
O O6 0.170920 0.480962 0.000000
O O7 0.965892 0.742619 0.583292
O O8 0.000000 0.731465 0.750000
O O9 0.067349 0.176687 0.000000
#
# Coordination Sequence:
#
# PCOD9588608 Si02
#       4
#    24  24  24  12
#     4  10  20  37  62  94 132 175 222 271 321 375
#     4  10  20  37  62  94 132 175 222 271 321 375
#     4  12  25  42  68  99 131 171 218 265 317 383
#     4  12  27  50  75 100 128 162 206 262 327 390
#
# _framework density 21.430783000000002
#
# number of rings (size 3 to 8) (size 9 to 14) (size 15 to 20)
#    0.000    1.143    2.857    3.286    0.000   11.429 
#    0.000    0.000    0.000    5.143    0.000    0.000 
#    0.000    0.000    0.000    0.000    0.000    0.000 
#
# Total GULP energy -470379.361104 kJ/mol
# GULP energy per Si atom -5599.754299 kJ/mol
# Density = 2.138201 g / cm^3
# Si number density = 21.430783 Si / 1000 Ang^3
#
#
#
# Elastic Constant Matrix: (Units=GPa)
#
#
# Indices 1 2 3 4 5 6 
#
# 1 90.1630 -1.6245 14.8800 0.0000 0.0000 0.0000
# 2 -1.6245 90.1630 14.8800 0.0000 0.0000 0.0000
# 3 14.8800 14.8800 67.2892 0.0000 0.0000 0.0000
# 4 0.0000 0.0000 0.0000 -13.2147 0.0000 0.0000
# 5 0.0000 0.0000 0.0000 0.0000 -13.2147 0.0000
# 6 0.0000 0.0000 0.0000 0.0000 0.0000 45.8938
#
#
#
# Elastic Compliance Matrix: (Units=1/GPa)
#
#
# Indices 1 2 3 4 5 6 
#
# 1 0.011548 0.000653 -0.002698 0.000000 0.000000 0.000000
# 2 0.000653 0.011548 -0.002698 0.000000 0.000000 0.000000
# 3 -0.002698 -0.002698 0.016055 0.000000 0.000000 0.000000
# 4 0.000000 0.000000 0.000000 -0.075674 0.000000 0.000000
# 5 0.000000 0.000000 0.000000 0.000000 -0.075674 0.000000
# 6 0.000000 0.000000 0.000000 0.000000 0.000000 0.021789
#
#
# Mechanical properties :
#
#
# Convention : Reuss Voigt Hill
#
# Bulk Modulus (GPa) = 33.71005 33.76516 33.73761
# Shear Modulus (GPa) = -70.39013 18.52487 -25.93263
#
# Velocity S-wave (km/s) = -5.73730 2.94327 -3.48237
# Velocity P-wave (km/s) = 5.30330 5.22877 0.62646
#
# Compressibility (1/GPa) = 0.02966474
#
# Stress axis : x y z
#
# Youngs Moduli (GPa) = 86.59447 86.59447 62.28764
#
# Poissons Ratio (x) = -0.05658 0.16806
# Poissons Ratio (y) = -0.05658 0.16806
# Poissons Ratio (z) = 0.23365 0.23365
#
# Static dielectric constant tensor:
#      x y z
#    x 1.729500 0.000000 0.000000 
#    y 0.000000 1.729500 0.000000 
#    z 0.000000 0.000000 1.795150 
# 
# From -- ./inp_files/2523.got.cif
#   From: 2010.05.17/outbox.cif.g08.bks.cpg/sg192_2_cif.got.tgz:2523.got - 2010.05.20 12:28:01.
