data_PCOD9588369
_publ_section_title
;
Structure prediction by ZEFSAII (Michael W. Deem and Ramdas Pophale) SiO2 
 PCOD9588369
Probable space group: P 6/M C C
;
_chemical_formula_sum "Si O2"
_cell_formula_units_Z 120
_cell_length_a 25.770626
_cell_length_b 25.770626
_cell_length_c 14.744488
_cell_angle_alpha 90.000000
_cell_angle_beta 90.000000
_cell_angle_gamma 120.000000
_cell_volume 8480.281417
_symmetry_space_group_name_H-M "P 6/M C C"
_symmetry_group_IT_number 192
_symmetry_cell_setting 'hexagonal'
loop_
_space_group_symop_operation_xyz
x,y,z
x-y,x,z
-y,x-y,z
-x,-y,z
-x+y,-x,z
y,-x+y,z
x-y,-y,1/2-z
-x,-x+y,1/2-z
y,x,1/2-z
-y,-x,1/2-z
-x+y,y,1/2-z
x,x-y,1/2-z
-x,-y,-z
-x+y,-x,-z
y,-x+y,-z
x,y,-z
x-y,x,-z
-y,x-y,-z
-x+y,y,1/2+z
x,x-y,1/2+z
-y,-x,1/2+z
y,x,1/2+z
x-y,-y,1/2+z
-x,-x+y,1/2+z
loop_
_atom_site_type_symbol
_atom_site_label
_atom_site_fract_x
_atom_site_fract_y
_atom_site_fract_z
Si Si1 0.463718 0.927437 0.896761
Si Si2 0.745724 0.931715 0.107882
Si Si3 0.745724 0.931715 0.607882
Si Si4 0.072565 0.450809 0.750000
Si Si5 0.881059 0.641513 0.750000
O O1 0.405043 0.911245 0.837673
O O2 0.506202 0.911245 0.837673
O O3 0.500000 0.000000 0.899680
O O4 0.452628 0.905256 0.000000
O O5 0.765485 0.882743 0.129411
O O6 0.685136 0.911086 0.163716
O O7 0.793447 0.000000 0.131252
O O8 0.734712 0.928987 0.000000
O O9 0.734712 0.928987 0.500000
O O10 0.685136 0.911086 0.663716
O O11 0.104330 0.411484 0.750000
O O12 0.000000 0.407419 0.750000
O O13 0.811071 0.622142 0.750000
#
# Coordination Sequence:
#
# PCOD9588369 Si02
#       5
#    24  24  24  24  24
#     4   8  15  27  42  61  83 106 131 159 192 231
#     4   9  17  28  41  57  78 107 143 180 219 262
#     4   9  17  28  41  57  78 107 143 180 219 262
#     4   9  16  26  41  61  84 109 137 166 194 234
#     4  10  19  29  41  60  87 114 139 171 205 242
#
# _framework density 14.150474000000001
#
# number of rings (size 3 to 8) (size 9 to 14) (size 15 to 20)
#    0.000    3.000    0.000    3.000    0.000    1.600 
#    0.000    4.000    0.000    0.400    0.000    2.800 
#    8.000    4.800    0.000    0.400    0.000    0.000 
#
# Total GULP energy -668043.240725 kJ/mol
# GULP energy per Si atom -5567.027006 kJ/mol
# Density = 1.411827 g / cm^3
# Si number density = 14.150474 Si / 1000 Ang^3
#
#
#
# Elastic Constant Matrix: (Units=GPa)
#
#
# Indices 1 2 3 4 5 6 
#
# 1 115.3731 65.2804 48.5801 0.0000 0.0000 0.0000
# 2 65.2804 115.3731 48.5801 0.0000 0.0000 0.0000
# 3 48.5801 48.5801 94.4241 0.0000 0.0000 0.0000
# 4 0.0000 0.0000 0.0000 9.1675 0.0000 0.0000
# 5 0.0000 0.0000 0.0000 0.0000 9.1675 0.0000
# 6 0.0000 0.0000 0.0000 0.0000 0.0000 25.0464
#
#
#
# Elastic Compliance Matrix: (Units=1/GPa)
#
#
# Indices 1 2 3 4 5 6 
#
# 1 0.013808 -0.006155 -0.003937 0.000000 0.000000 0.000000
# 2 -0.006155 0.013808 -0.003937 0.000000 0.000000 0.000000
# 3 -0.003937 -0.003937 0.014642 0.000000 0.000000 0.000000
# 4 0.000000 0.000000 0.000000 0.109081 0.000000 0.000000
# 5 0.000000 0.000000 0.000000 0.000000 0.109081 0.000000
# 6 0.000000 0.000000 0.000000 0.000000 0.000000 0.039926
#
#
# Mechanical properties :
#
#
# Convention : Reuss Voigt Hill
#
# Bulk Modulus (GPa) = 70.42984 72.22793 71.32888
# Shear Modulus (GPa) = 15.00873 19.52491 17.26682
#
# Velocity S-wave (km/s) = 3.26030 3.71860 3.49697
# Velocity P-wave (km/s) = 8.00330 8.34212 8.17447
#
# Compressibility (1/GPa) = 0.01419853
#
# Stress axis : x y z
#
# Youngs Moduli (GPa) = 72.42154 72.42154 68.29652
#
# Poissons Ratio (x) = 0.44575 0.26891
# Poissons Ratio (y) = 0.44575 0.26891
# Poissons Ratio (z) = 0.28515 0.28515
#
# Static dielectric constant tensor:
#      x y z
#    x 1.446280 0.000000 0.000000 
#    y 0.000000 1.446280 0.000000 
#    z 0.000000 0.000000 1.497290 
# 
# From -- ./inp_files/3125.got.cif
#   From: 2010.05.17/outbox.cif.g08.bks.cpg/sg192_2_cif.got.tgz:3125.got - 2010.05.20 12:28:01.
