data_PCOD9588033
_publ_section_title
;
Structure prediction by ZEFSAII (Michael W. Deem and Ramdas Pophale) SiO2 
 PCOD9588033
Probable space group: P 6/M M M
;
_chemical_formula_sum "Si O2"
_cell_formula_units_Z 144
_cell_length_a 21.709790
_cell_length_b 21.709790
_cell_length_c 20.728812
_cell_angle_alpha 90.000000
_cell_angle_beta 90.000000
_cell_angle_gamma 120.000000
_cell_volume 8460.894688
_symmetry_space_group_name_H-M "P 6/M M M"
_symmetry_group_IT_number 191
_symmetry_cell_setting 'hexagonal'
loop_
_space_group_symop_operation_xyz
x,y,z
x-y,x,z
-y,x-y,z
-x,-y,z
-x+y,-x,z
y,-x+y,z
x-y,-y,-z
-x,-x+y,-z
y,x,-z
-y,-x,-z
-x+y,y,-z
x,x-y,-z
-x,-y,-z
-x+y,-x,-z
y,-x+y,-z
x,y,-z
x-y,x,-z
-y,x-y,-z
-x+y,y,z
x,x-y,z
-y,-x,z
y,x,z
x-y,-y,z
-x,-x+y,z
loop_
_atom_site_type_symbol
_atom_site_label
_atom_site_fract_x
_atom_site_fract_y
_atom_site_fract_z
Si Si1 0.852570 0.000000 0.666918
Si Si2 0.864323 0.580747 0.573345
Si Si3 0.724018 0.593809 0.926203
Si Si4 0.614975 0.532403 0.189172
Si Si5 0.146054 0.146054 0.184735
Si Si6 0.000000 0.266514 0.576645
Si Si7 0.754136 0.754136 0.927403
Si Si8 0.185881 0.666285 0.691688
O O1 0.858500 0.929250 0.657945
O O2 0.829719 0.000000 0.741448
O O3 0.795092 0.000000 0.618681
O O4 0.874183 0.562455 0.500000
O O5 0.793918 0.587835 0.574000
O O6 0.850732 0.521252 0.625545
O O7 0.930970 0.657214 0.589941
O O8 0.793393 0.586786 0.914285
O O9 0.663499 0.552091 0.873941
O O10 0.745972 0.676476 0.922133
O O11 0.699809 0.570764 0.000000
O O12 0.542499 0.457502 0.180537
O O13 0.591143 0.591143 0.200396
O O14 0.655459 0.522677 0.249688
O O15 0.069803 0.139605 0.177590
O O16 0.197529 0.197529 0.130049
O O17 0.000000 0.251558 0.500000
O O18 0.781786 0.781786 0.000000
O O19 0.197591 0.598796 0.691126
O O20 0.260599 0.739402 0.698766
#
# Coordination Sequence:
#
# PCOD9588033 Si02
#       8
#    12  24  24  24  12  12  12  24
#     4  10  21  36  54  77 105 140 183 231 281 330
#     4   9  19  35  54  79 109 140 179 224 268 320
#     4  10  20  35  56  81 110 143 179 222 272 324
#     4  10  21  36  55  81 112 144 180 224 270 321
#     4  10  21  36  52  71  99 136 177 221 269 322
#     4  10  20  35  56  78 106 145 181 220 275 332
#     4  10  20  35  54  78 106 137 175 222 271 320
#     4  10  21  37  58  82 111 146 183 224 271 323
#
# _framework density 17.019476999999998
#
# number of rings (size 3 to 8) (size 9 to 14) (size 15 to 20)
#    0.000    2.167    0.833    1.833    1.167    4.667 
#    0.000    2.500    0.000    3.833    0.000    0.000 
#    0.000    0.000    0.000    0.000    0.000    0.000 
#
# Total GULP energy -803468.656158 kJ/mol
# GULP energy per Si atom -5579.643446 kJ/mol
# Density = 1.698074 g / cm^3
# Si number density = 17.019477 Si / 1000 Ang^3
#
#
#
# Elastic Constant Matrix: (Units=GPa)
#
#
# Indices 1 2 3 4 5 6 
#
# 1 77.9175 48.1446 76.7333 0.0000 0.0000 0.0000
# 2 48.1446 77.9175 76.7333 0.0000 0.0000 0.0000
# 3 76.7333 76.7333 130.9263 0.0000 0.0000 0.0000
# 4 0.0000 0.0000 0.0000 31.2580 0.0000 0.0000
# 5 0.0000 0.0000 0.0000 0.0000 31.2580 0.0000
# 6 0.0000 0.0000 0.0000 0.0000 0.0000 14.8864
#
#
#
# Elastic Compliance Matrix: (Units=1/GPa)
#
#
# Indices 1 2 3 4 5 6 
#
# 1 0.030637 -0.002950 -0.016227 0.000000 0.000000 0.000000
# 2 -0.002950 0.030637 -0.016227 0.000000 0.000000 0.000000
# 3 -0.016227 -0.016227 0.026658 0.000000 0.000000 0.000000
# 4 0.000000 0.000000 0.000000 0.031992 0.000000 0.000000
# 5 0.000000 0.000000 0.000000 0.000000 0.031992 0.000000
# 6 0.000000 0.000000 0.000000 0.000000 0.000000 0.067175
#
#
# Mechanical properties :
#
#
# Convention : Reuss Voigt Hill
#
# Bulk Modulus (GPa) = 58.39420 76.66485 67.52952
# Shear Modulus (GPa) = 16.91436 21.15718 19.03577
#
# Velocity S-wave (km/s) = 3.15592 3.52961 3.34798
# Velocity P-wave (km/s) = 6.90394 7.85837 7.39657
#
# Compressibility (1/GPa) = 0.01712499
#
# Stress axis : x y z
#
# Youngs Moduli (GPa) = 32.64013 32.64013 37.51212
#
# Poissons Ratio (x) = 0.09630 0.60869
# Poissons Ratio (y) = 0.09630 0.60869
# Poissons Ratio (z) = 0.52964 0.52964
#
# Static dielectric constant tensor:
#      x y z
#    x 1.549970 0.000000 0.000000 
#    y 0.000000 1.549970 0.000000 
#    z 0.000000 0.000000 1.572900 
# 
# From -- ./inp_files/7701.got.cif
#   From: 2010.05.17/outbox.cif.g08.bks.cpg/sg191_4_cif.got.tgz:7701.got - 2010.05.20 12:20:32.
