data_PCOD9588979
_publ_section_title
;
Structure prediction by ZEFSAII (Michael W. Deem and Ramdas Pophale) SiO2 
 PCOD9588979
Probable space group: P 63/M C M
;
_chemical_formula_sum "Si O2"
_cell_formula_units_Z 120
_cell_length_a 17.763317
_cell_length_b 17.763317
_cell_length_c 23.910098
_cell_angle_alpha 90.000000
_cell_angle_beta 90.000000
_cell_angle_gamma 120.000000
_cell_volume 6533.714000
_symmetry_space_group_name_H-M "P 63/M C M"
_symmetry_group_IT_number 193
_symmetry_cell_setting 'hexagonal'
loop_
_space_group_symop_operation_xyz
x,y,z
x-y,x,1/2+z
-y,x-y,z
-x,-y,1/2+z
-x+y,-x,z
y,-x+y,1/2+z
x-y,-y,1/2-z
-x,-x+y,1/2-z
y,x,1/2-z
-y,-x,-z
-x+y,y,-z
x,x-y,-z
-x,-y,-z
-x+y,-x,1/2-z
y,-x+y,-z
x,y,1/2-z
x-y,x,-z
-y,x-y,1/2-z
-x+y,y,1/2+z
x,x-y,1/2+z
-y,-x,1/2+z
y,x,z
x-y,-y,z
-x,-x+y,z
loop_
_atom_site_type_symbol
_atom_site_label
_atom_site_fract_x
_atom_site_fract_y
_atom_site_fract_z
Si Si1 0.354484 0.458063 0.870859
Si Si2 0.174500 0.374681 0.935921
Si Si3 0.508274 0.403878 0.443394
Si Si4 0.804270 0.902116 0.125858
Si Si5 0.154950 0.903150 0.750000
Si Si6 0.393189 0.288905 0.750000
O O1 0.397730 0.397730 0.879232
O O2 0.270484 0.421095 0.909836
O O3 0.425832 0.552967 0.891769
O O4 0.326425 0.448063 0.806390
O O5 0.141910 0.444115 0.936233
O O6 0.119215 0.287597 0.900067
O O7 0.174328 0.348655 0.000000
O O8 0.566340 0.433661 0.500000
O O9 0.449054 0.449054 0.446672
O O10 0.833332 0.833332 0.108226
O O11 0.793251 0.898287 0.193006
O O12 0.876004 0.000000 0.110621
O O13 0.160432 0.815623 0.750000
O O14 0.240170 0.000000 0.750000
O O15 0.321033 0.321033 0.750000
#
# Coordination Sequence:
#
# PCOD9588979 Si02
#       6
#    24  24  24  24  12  12
#     4  10  21  39  63  88 118 158 201 249 307 369
#     4  12  23  37  61  92 117 159 208 257 306 380
#     4  10  21  39  59  85 118 149 189 249 309 365
#     4  11  23  38  58  88 129 174 219 264 313 368
#     4  10  20  34  57  90 123 161 212 267 307 358
#     4  10  18  36  65  88 115 161 215 253 297 364
#
# _framework density 18.366278000000001
#
# number of rings (size 3 to 8) (size 9 to 14) (size 15 to 20)
#    0.000    1.400    4.000    2.300    0.000    2.400 
#    1.200    4.000    0.000    5.000    0.000    0.000 
#    0.000    0.000    0.000    0.000    0.000    0.000 
#
# Total GULP energy -669749.159112 kJ/mol
# GULP energy per Si atom -5581.242993 kJ/mol
# Density = 1.832448 g / cm^3
# Si number density = 18.366278 Si / 1000 Ang^3
#
#
#
# Elastic Constant Matrix: (Units=GPa)
#
#
# Indices 1 2 3 4 5 6 
#
# 1 89.4889 39.3980 45.6466 0.0000 0.0000 0.0000
# 2 39.3980 89.4889 45.6466 0.0000 0.0000 0.0000
# 3 45.6466 45.6466 107.5943 0.0000 0.0000 0.0000
# 4 0.0000 0.0000 0.0000 19.2122 0.0000 0.0000
# 5 0.0000 0.0000 0.0000 0.0000 19.2122 0.0000
# 6 0.0000 0.0000 0.0000 0.0000 0.0000 25.0454
#
#
#
# Elastic Compliance Matrix: (Units=1/GPa)
#
#
# Indices 1 2 3 4 5 6 
#
# 1 0.015528 -0.004436 -0.004706 0.000000 0.000000 0.000000
# 2 -0.004436 0.015528 -0.004706 0.000000 0.000000 0.000000
# 3 -0.004706 -0.004706 0.013287 0.000000 0.000000 0.000000
# 4 0.000000 0.000000 0.000000 0.052050 0.000000 0.000000
# 5 0.000000 0.000000 0.000000 0.000000 0.052050 0.000000
# 6 0.000000 0.000000 0.000000 0.000000 0.000000 0.039927
#
#
# Mechanical properties :
#
#
# Convention : Reuss Voigt Hill
#
# Bulk Modulus (GPa) = 60.06767 60.88385 60.47576
# Shear Modulus (GPa) = 22.56169 23.08601 22.82385
#
# Velocity S-wave (km/s) = 3.50870 3.54924 3.52903
# Velocity P-wave (km/s) = 7.01363 7.07233 7.04304
#
# Compressibility (1/GPa) = 0.01664789
#
# Stress axis : x y z
#
# Youngs Moduli (GPa) = 64.40058 64.40058 75.26188
#
# Poissons Ratio (x) = 0.28568 0.35416
# Poissons Ratio (y) = 0.28568 0.35416
# Poissons Ratio (z) = 0.30305 0.30305
#
# Static dielectric constant tensor:
#      x y z
#    x 1.625530 0.000000 0.000000 
#    y 0.000000 1.625530 0.000000 
#    z 0.000000 0.000000 1.637000 
# 
# From -- ./inp_files/7379.got.cif
#   From: 2010.05.17/outbox.cif.g08.bks.cpg/sg193_4_cif.got.tgz:7379.got - 2010.05.20 12:33:02.
