data_PCOD9588130
_publ_section_title
;
Structure prediction by ZEFSAII (Michael W. Deem and Ramdas Pophale) SiO2 
 PCOD9588130
Probable space group: P 6/M M M
;
_chemical_formula_sum "Si O2"
_cell_formula_units_Z 120
_cell_length_a 21.486351
_cell_length_b 21.486351
_cell_length_c 17.036302
_cell_angle_alpha 90.000000
_cell_angle_beta 90.000000
_cell_angle_gamma 120.000000
_cell_volume 6811.320154
_symmetry_space_group_name_H-M "P 6/M M M"
_symmetry_group_IT_number 191
_symmetry_cell_setting 'hexagonal'
loop_
_space_group_symop_operation_xyz
x,y,z
x-y,x,z
-y,x-y,z
-x,-y,z
-x+y,-x,z
y,-x+y,z
x-y,-y,-z
-x,-x+y,-z
y,x,-z
-y,-x,-z
-x+y,y,-z
x,x-y,-z
-x,-y,-z
-x+y,-x,-z
y,-x+y,-z
x,y,-z
x-y,x,-z
-y,x-y,-z
-x+y,y,z
x,x-y,z
-y,-x,z
y,x,z
x-y,-y,z
-x,-x+y,z
loop_
_atom_site_type_symbol
_atom_site_label
_atom_site_fract_x
_atom_site_fract_y
_atom_site_fract_z
Si Si1 0.697951 0.918456 0.123457
Si Si2 0.542197 0.457804 0.824531
Si Si3 0.163096 0.694173 0.909643
Si Si4 0.300486 0.219842 0.687140
Si Si5 0.293631 0.848606 0.590961
Si Si6 0.542204 0.084407 0.364065
O O1 0.722512 0.861256 0.101502
O O2 0.617285 0.886847 0.092736
O O3 0.692373 0.917903 0.218478
O O4 0.749513 0.000000 0.098245
O O5 0.500000 0.500000 0.849326
O O6 0.623134 0.497009 0.857547
O O7 0.542786 0.457214 0.730496
O O8 0.242441 0.757559 0.883675
O O9 0.168674 0.675615 0.000000
O O10 0.277824 0.138912 0.664958
O O11 0.245400 0.245400 0.662836
O O12 0.377271 0.270303 0.647557
O O13 0.285245 0.863308 0.500000
O O14 0.235741 0.764260 0.604967
O O15 0.376172 0.874387 0.606263
O O16 0.500000 0.000000 0.388534
#
# Coordination Sequence:
#
# PCOD9588130 Si02
#       6
#    24  12  24  24  24  12
#     4   9  17  30  49  72  99 131 166 205 248 296
#     4  11  23  37  55  79 105 135 173 213 255 307
#     4  10  21  36  53  75 102 132 167 209 256 303
#     4   9  17  30  49  72  99 131 166 205 248 296
#     4  10  21  36  53  75 102 132 167 209 256 303
#     4  11  23  37  55  79 105 135 173 213 255 307
#
# _framework density 17.617730000000002
#
# number of rings (size 3 to 8) (size 9 to 14) (size 15 to 20)
#    0.000    2.200    0.000    3.000    0.000    9.600 
#    1.200    0.000    0.000    0.400    0.000    2.800 
#    0.000    0.000    0.000   10.000    0.000   10.400 
#
# Total GULP energy -669632.008225 kJ/mol
# GULP energy per Si atom -5580.266735 kJ/mol
# Density = 1.757763 g / cm^3
# Si number density = 17.617730 Si / 1000 Ang^3
#
#
#
# Elastic Constant Matrix: (Units=GPa)
#
#
# Indices 1 2 3 4 5 6 
#
# 1 99.6087 62.1695 23.4425 0.0000 0.0000 0.0000
# 2 62.1695 99.6087 23.4425 0.0000 0.0000 0.0000
# 3 23.4425 23.4425 40.1138 0.0000 0.0000 0.0000
# 4 0.0000 0.0000 0.0000 9.9909 0.0000 0.0000
# 5 0.0000 0.0000 0.0000 0.0000 9.9909 0.0000
# 6 0.0000 0.0000 0.0000 0.0000 0.0000 18.7196
#
#
#
# Elastic Compliance Matrix: (Units=1/GPa)
#
#
# Indices 1 2 3 4 5 6 
#
# 1 0.017076 -0.009634 -0.004349 0.000000 0.000000 0.000000
# 2 -0.009634 0.017076 -0.004349 0.000000 0.000000 0.000000
# 3 -0.004349 -0.004349 0.030012 0.000000 0.000000 0.000000
# 4 0.000000 0.000000 0.000000 0.100091 0.000000 0.000000
# 5 0.000000 0.000000 0.000000 0.000000 0.100091 0.000000
# 6 0.000000 0.000000 0.000000 0.000000 0.000000 0.053420
#
#
# Mechanical properties :
#
#
# Convention : Reuss Voigt Hill
#
# Bulk Modulus (GPa) = 36.36396 50.82668 43.59532
# Shear Modulus (GPa) = 13.75150 16.42540 15.08845
#
# Velocity S-wave (km/s) = 2.79686 3.05671 2.92967
# Velocity P-wave (km/s) = 5.57811 6.43198 6.02020
#
# Compressibility (1/GPa) = 0.02749976
#
# Stress axis : x y z
#
# Youngs Moduli (GPa) = 58.56245 58.56245 33.31998
#
# Poissons Ratio (x) = 0.56420 0.14491
# Poissons Ratio (y) = 0.56420 0.14491
# Poissons Ratio (z) = 0.25468 0.25468
#
# Static dielectric constant tensor:
#      x y z
#    x 1.587350 0.000000 0.000000 
#    y 0.000000 1.587350 0.000000 
#    z 0.000000 0.000000 1.615720 
# 
# From -- ./inp_files/6271.got.cif
#   From: 2010.05.17/outbox.cif.g08.bks.cpg/sg191_4_cif.got.tgz:6271.got - 2010.05.20 12:20:32.
