data_PCOD9588145
_publ_section_title
;
Structure prediction by ZEFSAII (Michael W. Deem and Ramdas Pophale) SiO2 
 PCOD9588145
Probable space group: P 6/M M M
;
_chemical_formula_sum "Si O2"
_cell_formula_units_Z 168
_cell_length_a 22.044505
_cell_length_b 22.044505
_cell_length_c 25.654211
_cell_angle_alpha 90.000000
_cell_angle_beta 90.000000
_cell_angle_gamma 120.000000
_cell_volume 10796.674213
_symmetry_space_group_name_H-M "P 6/M M M"
_symmetry_group_IT_number 191
_symmetry_cell_setting 'hexagonal'
loop_
_space_group_symop_operation_xyz
x,y,z
x-y,x,z
-y,x-y,z
-x,-y,z
-x+y,-x,z
y,-x+y,z
x-y,-y,-z
-x,-x+y,-z
y,x,-z
-y,-x,-z
-x+y,y,-z
x,x-y,-z
-x,-y,-z
-x+y,-x,-z
y,-x+y,-z
x,y,-z
x-y,x,-z
-y,x-y,-z
-x+y,y,z
x,x-y,z
-y,-x,z
y,x,z
x-y,-y,z
-x,-x+y,z
loop_
_atom_site_type_symbol
_atom_site_label
_atom_site_fract_x
_atom_site_fract_y
_atom_site_fract_z
Si Si1 0.704703 0.556010 0.161424
Si Si2 0.473047 0.806171 0.437807
Si Si3 0.706124 0.783993 0.672603
Si Si4 0.521881 0.188009 0.941451
Si Si5 0.922547 0.216544 0.202144
Si Si6 0.917998 0.565113 0.643816
Si Si7 0.809601 0.334895 0.733300
O O1 0.779318 0.558636 0.159661
O O2 0.669399 0.527049 0.105848
O O3 0.724989 0.634497 0.175729
O O4 0.664540 0.504639 0.209388
O O5 0.483818 0.814590 0.500000
O O6 0.393108 0.786216 0.427305
O O7 0.484825 0.742413 0.420689
O O8 0.523015 0.877325 0.407475
O O9 0.718543 0.859272 0.656979
O O10 0.769109 0.769109 0.661504
O O11 0.694237 0.776893 0.735284
O O12 0.636609 0.721629 0.647194
O O13 0.597498 0.194996 0.935990
O O14 0.529893 0.264947 0.937550
O O15 0.495315 0.161376 0.000000
O O16 0.860002 0.139999 0.187155
O O17 0.000000 0.232146 0.190282
O O18 0.870890 0.517384 0.691636
O O19 0.000000 0.588219 0.646454
O O20 0.787051 0.393526 0.730117
O O21 0.742745 0.257256 0.724228
#
# Coordination Sequence:
#
# PCOD9588145 Si02
#       7
#    24  24  24  24  24  24  24
#     4   9  17  28  43  64  89 118 153 193 234 277
#     4  10  21  37  56  74  93 120 155 194 236 285
#     4   9  16  28  47  69  93 120 150 184 222 268
#     4   9  16  26  41  61  86 117 155 199 245 290
#     4   9  16  28  47  69  92 118 149 184 224 271
#     4  11  22  34  49  69  94 124 157 193 233 277
#     4  11  21  32  46  65  92 123 157 198 244 289
#
# _framework density 15.560347999999999
#
# number of rings (size 3 to 8) (size 9 to 14) (size 15 to 20)
#    0.000    2.286    1.429    2.571    0.000    2.571 
#    0.000    3.571    0.000    2.000    0.000    3.000 
#    0.000    0.000    0.000    0.000    0.000    0.000 
#
# Total GULP energy -936305.750834 kJ/mol
# GULP energy per Si atom -5573.248517 kJ/mol
# Density = 1.552493 g / cm^3
# Si number density = 15.560348 Si / 1000 Ang^3
#
#
#
# Elastic Constant Matrix: (Units=GPa)
#
#
# Indices 1 2 3 4 5 6 
#
# 1 75.5044 37.3821 32.2454 0.0000 0.0000 0.0000
# 2 37.3821 75.5044 32.2454 0.0000 0.0000 0.0000
# 3 32.2454 32.2454 56.9817 0.0000 0.0000 0.0000
# 4 0.0000 0.0000 0.0000 13.7738 0.0000 0.0000
# 5 0.0000 0.0000 0.0000 0.0000 13.7738 0.0000
# 6 0.0000 0.0000 0.0000 0.0000 0.0000 19.0612
#
#
#
# Elastic Compliance Matrix: (Units=1/GPa)
#
#
# Indices 1 2 3 4 5 6 
#
# 1 0.019661 -0.006570 -0.007408 0.000000 0.000000 0.000000
# 2 -0.006570 0.019661 -0.007408 0.000000 0.000000 0.000000
# 3 -0.007408 -0.007408 0.025933 0.000000 0.000000 0.000000
# 4 0.000000 0.000000 0.000000 0.072601 0.000000 0.000000
# 5 0.000000 0.000000 0.000000 0.000000 0.072601 0.000000
# 6 0.000000 0.000000 0.000000 0.000000 0.000000 0.052463
#
#
# Mechanical properties :
#
#
# Convention : Reuss Voigt Hill
#
# Bulk Modulus (GPa) = 44.47747 45.74850 45.11299
# Shear Modulus (GPa) = 15.96490 16.39628 16.18059
#
# Velocity S-wave (km/s) = 3.20660 3.24963 3.22819
# Velocity P-wave (km/s) = 6.50812 6.59884 6.55363
#
# Compressibility (1/GPa) = 0.02248329
#
# Stress axis : x y z
#
# Youngs Moduli (GPa) = 50.86242 50.86242 38.56022
#
# Poissons Ratio (x) = 0.33419 0.28564
# Poissons Ratio (y) = 0.33419 0.28564
# Poissons Ratio (z) = 0.37678 0.37678
#
# Static dielectric constant tensor:
#      x y z
#    x 1.515430 0.000000 0.000000 
#    y 0.000000 1.515430 0.000000 
#    z 0.000000 0.000000 1.528540 
# 
# From -- ./inp_files/9012.got.cif
#   From: 2010.05.17/outbox.cif.g08.bks.cpg/sg191_5_cif.got.tgz:9012.got - 2010.05.20 12:20:32.
