data_PCOD9588416
_publ_section_title
;
Structure prediction by ZEFSAII (Michael W. Deem and Ramdas Pophale) SiO2 
 PCOD9588416
Probable space group: P 6/M C C
;
_chemical_formula_sum "Si O2"
_cell_formula_units_Z 144
_cell_length_a 32.164478
_cell_length_b 32.164478
_cell_length_c 8.608679
_cell_angle_alpha 90.000000
_cell_angle_beta 90.000000
_cell_angle_gamma 120.000000
_cell_volume 7712.943696
_symmetry_space_group_name_H-M "P 6/M C C"
_symmetry_group_IT_number 192
_symmetry_cell_setting 'hexagonal'
loop_
_space_group_symop_operation_xyz
x,y,z
x-y,x,z
-y,x-y,z
-x,-y,z
-x+y,-x,z
y,-x+y,z
x-y,-y,1/2-z
-x,-x+y,1/2-z
y,x,1/2-z
-y,-x,1/2-z
-x+y,y,1/2-z
x,x-y,1/2-z
-x,-y,-z
-x+y,-x,-z
y,-x+y,-z
x,y,-z
x-y,x,-z
-y,x-y,-z
-x+y,y,1/2+z
x,x-y,1/2+z
-y,-x,1/2+z
y,x,1/2+z
x-y,-y,1/2+z
-x,-x+y,1/2+z
loop_
_atom_site_type_symbol
_atom_site_label
_atom_site_fract_x
_atom_site_fract_y
_atom_site_fract_z
Si Si1 0.292826 0.241112 0.812871
Si Si2 0.427398 0.478683 0.813867
Si Si3 0.852772 0.240009 0.687324
Si Si4 0.240713 0.666725 0.814136
Si Si5 0.855662 0.803639 0.686102
Si Si6 0.146005 0.482976 0.187102
O O1 0.280564 0.280564 0.750000
O O2 0.342839 0.246437 0.759466
O O3 0.248412 0.189047 0.766001
O O4 0.293230 0.243166 0.000000
O O5 0.437542 0.437542 0.750000
O O6 0.471494 0.528507 0.750000
O O7 0.378703 0.474344 0.751613
O O8 0.428590 0.479150 0.000000
O O9 0.808829 0.191172 0.750000
O O10 0.852139 0.237740 0.500000
O O11 0.847569 0.285536 0.731903
O O12 0.282826 0.717175 0.750000
O O13 0.248364 0.624182 0.750000
O O14 0.189637 0.658155 0.755420
O O15 0.241885 0.666906 0.000000
O O16 0.842506 0.842506 0.750000
O O17 0.904875 0.809749 0.750000
O O18 0.857064 0.805434 0.500000
O O19 0.146285 0.486365 0.000000
#
# Coordination Sequence:
#
# PCOD9588416 Si02
#       6
#    24  24  24  24  24  24
#     4   9  19  35  54  80 110 144 184 230 278 327
#     4  11  22  39  62  88 117 151 191 238 290 343
#     4  10  22  38  57  81 113 150 190 232 278 332
#     4  12  25  43  65  91 120 152 190 235 288 345
#     4  10  19  32  52  77 107 140 180 225 274 325
#     4  11  23  40  60  86 119 155 195 239 284 339
#
# _framework density 18.669915
#
# number of rings (size 3 to 8) (size 9 to 14) (size 15 to 20)
#    0.000    1.500    0.000    6.167    0.000    4.667 
#    0.000    1.667    0.000    0.167    0.000    1.167 
#    0.000    0.000    0.000    0.000    0.000    0.000 
#
# Total GULP energy -805109.716582 kJ/mol
# GULP energy per Si atom -5591.039698 kJ/mol
# Density = 1.862742 g / cm^3
# Si number density = 18.669915 Si / 1000 Ang^3
#
#
#
# Elastic Constant Matrix: (Units=GPa)
#
#
# Indices 1 2 3 4 5 6 
#
# 1 105.5270 41.7181 35.6158 0.0000 0.0000 0.0000
# 2 41.7181 105.5270 35.6158 0.0000 0.0000 0.0000
# 3 35.6158 35.6158 92.0971 0.0000 0.0000 0.0000
# 4 0.0000 0.0000 0.0000 25.0714 0.0000 0.0000
# 5 0.0000 0.0000 0.0000 0.0000 25.0714 0.0000
# 6 0.0000 0.0000 0.0000 0.0000 0.0000 31.9044
#
#
#
# Elastic Compliance Matrix: (Units=1/GPa)
#
#
# Indices 1 2 3 4 5 6 
#
# 1 0.012013 -0.003659 -0.003231 0.000000 0.000000 0.000000
# 2 -0.003659 0.012013 -0.003231 0.000000 0.000000 0.000000
# 3 -0.003231 -0.003231 0.013357 0.000000 0.000000 0.000000
# 4 0.000000 0.000000 0.000000 0.039886 0.000000 0.000000
# 5 0.000000 0.000000 0.000000 0.000000 0.039886 0.000000
# 6 0.000000 0.000000 0.000000 0.000000 0.000000 0.031344
#
#
# Mechanical properties :
#
#
# Convention : Reuss Voigt Hill
#
# Bulk Modulus (GPa) = 58.33475 58.78337 58.55906
# Shear Modulus (GPa) = 28.66093 29.08955 28.87524
#
# Velocity S-wave (km/s) = 3.92234 3.95156 3.93697
# Velocity P-wave (km/s) = 7.19904 7.23697 7.21803
#
# Compressibility (1/GPa) = 0.01714244
#
# Stress axis : x y z
#
# Youngs Moduli (GPa) = 83.24266 83.24266 74.86758
#
# Poissons Ratio (x) = 0.30456 0.24188
# Poissons Ratio (y) = 0.30456 0.24188
# Poissons Ratio (z) = 0.26894 0.26894
#
# Static dielectric constant tensor:
#      x y z
#    x 1.622150 0.000000 0.000000 
#    y 0.000000 1.622150 0.000000 
#    z 0.000000 0.000000 1.632460 
# 
# From -- ./inp_files/1175.got.cif
#   From: 2010.05.17/outbox.cif.g08.bks.cpg/sg192_1_cif.got.tgz:1175.got - 2010.05.20 12:28:01.
