data_PCOD9588307
_publ_section_title
;
Structure prediction by ZEFSAII (Michael W. Deem and Ramdas Pophale) SiO2 
 PCOD9588307
Probable space group: P 6/M C C
;
_chemical_formula_sum "Si O2"
_cell_formula_units_Z 120
_cell_length_a 22.677849
_cell_length_b 22.677849
_cell_length_c 16.316005
_cell_angle_alpha 90.000000
_cell_angle_beta 90.000000
_cell_angle_gamma 120.000000
_cell_volume 7266.883200
_symmetry_space_group_name_H-M "P 6/M C C"
_symmetry_group_IT_number 192
_symmetry_cell_setting 'hexagonal'
loop_
_space_group_symop_operation_xyz
x,y,z
x-y,x,z
-y,x-y,z
-x,-y,z
-x+y,-x,z
y,-x+y,z
x-y,-y,1/2-z
-x,-x+y,1/2-z
y,x,1/2-z
-y,-x,1/2-z
-x+y,y,1/2-z
x,x-y,1/2-z
-x,-y,-z
-x+y,-x,-z
y,-x+y,-z
x,y,-z
x-y,x,-z
-y,x-y,-z
-x+y,y,1/2+z
x,x-y,1/2+z
-y,-x,1/2+z
y,x,1/2+z
x-y,-y,1/2+z
-x,-x+y,1/2+z
loop_
_atom_site_type_symbol
_atom_site_label
_atom_site_fract_x
_atom_site_fract_y
_atom_site_fract_z
Si Si1 0.088767 0.398383 0.592992
Si Si2 0.097795 0.154035 0.099964
Si Si3 0.846500 0.693784 0.401178
Si Si4 0.082183 0.475051 0.256158
Si Si5 0.952080 0.653979 0.170139
O O1 0.103497 0.422014 0.500000
O O2 0.132957 0.363100 0.615917
O O3 0.100661 0.456458 0.656647
O O4 0.009131 0.340669 0.602157
O O5 0.126537 0.105903 0.128070
O O6 0.142542 0.232843 0.122631
O O7 0.097214 0.151353 0.000000
O O8 0.836863 0.694802 0.500000
O O9 0.778833 0.681523 0.355937
O O10 0.110589 0.555295 0.250000
O O11 0.092573 0.427003 0.191087
O O12 0.000000 0.439442 0.250000
O O13 0.000000 0.690539 0.250000
#
# Coordination Sequence:
#
# PCOD9588307 Si02
#       5
#    24  24  24  24  24
#     4   9  17  29  46  66  92 125 157 190 235 287
#     4   9  16  25  38  56  82 120 168 220 266 300
#     4  10  18  28  43  66  95 124 160 209 255 294
#     4   8  16  31  46  64  91 116 139 173 217 271
#     4   9  18  29  44  65  93 124 156 193 238 289
#
# _framework density 16.513269000000001
#
# number of rings (size 3 to 8) (size 9 to 14) (size 15 to 20)
#    0.000    3.400    0.000    2.000    0.000    7.200 
#    0.000    9.000    0.000    0.000    0.000    0.000 
#    8.000    1.600    0.000    0.000    0.000    0.000 
#
# Total GULP energy -668030.794785 kJ/mol
# GULP energy per Si atom -5566.923290 kJ/mol
# Density = 1.647568 g / cm^3
# Si number density = 16.513269 Si / 1000 Ang^3
#
#
#
# Elastic Constant Matrix: (Units=GPa)
#
#
# Indices 1 2 3 4 5 6 
#
# 1 72.6173 31.2672 32.0521 0.0000 0.0000 0.0000
# 2 31.2672 72.6173 32.0521 0.0000 0.0000 0.0000
# 3 32.0521 32.0521 35.6340 0.0000 0.0000 0.0000
# 4 0.0000 0.0000 0.0000 4.3949 0.0000 0.0000
# 5 0.0000 0.0000 0.0000 0.0000 4.3949 0.0000
# 6 0.0000 0.0000 0.0000 0.0000 0.0000 20.6750
#
#
#
# Elastic Compliance Matrix: (Units=1/GPa)
#
#
# Indices 1 2 3 4 5 6 
#
# 1 0.022909 -0.001275 -0.019459 0.000000 0.000000 0.000000
# 2 -0.001275 0.022909 -0.019459 0.000000 0.000000 0.000000
# 3 -0.019459 -0.019459 0.063069 0.000000 0.000000 0.000000
# 4 0.000000 0.000000 0.000000 0.227538 0.000000 0.000000
# 5 0.000000 0.000000 0.000000 0.000000 0.227538 0.000000
# 6 0.000000 0.000000 0.000000 0.000000 0.000000 0.048368
#
#
# Mechanical properties :
#
#
# Convention : Reuss Voigt Hill
#
# Bulk Modulus (GPa) = 35.08741 41.29014 38.18877
# Shear Modulus (GPa) = 7.12030 11.59277 9.35653
#
# Velocity S-wave (km/s) = 2.07876 2.65245 2.38293
# Velocity P-wave (km/s) = 5.20152 5.86849 5.54504
#
# Compressibility (1/GPa) = 0.02850025
#
# Stress axis : x y z
#
# Youngs Moduli (GPa) = 43.65147 43.65147 15.85563
#
# Poissons Ratio (x) = 0.05566 0.30854
# Poissons Ratio (y) = 0.05566 0.30854
# Poissons Ratio (z) = 0.84942 0.84942
#
# Static dielectric constant tensor:
#      x y z
#    x 1.560100 0.000000 0.000000 
#    y 0.000000 1.560100 0.000000 
#    z 0.000000 0.000000 1.605120 
# 
# From -- ./inp_files/3139.got.cif
#   From: 2010.05.17/outbox.cif.g08.bks.cpg/sg192_2_cif.got.tgz:3139.got - 2010.05.20 12:28:01.
