data_PCOD9588159
_publ_section_title
;
Structure prediction by ZEFSAII (Michael W. Deem and Ramdas Pophale) SiO2 
 PCOD9588159
Probable space group: P 6/M M M
;
_chemical_formula_sum "Si O2"
_cell_formula_units_Z 108
_cell_length_a 27.998214
_cell_length_b 27.998214
_cell_length_c 11.711919
_cell_angle_alpha 90.000000
_cell_angle_beta 90.000000
_cell_angle_gamma 120.000000
_cell_volume 7950.955983
_symmetry_space_group_name_H-M "P 6/M M M"
_symmetry_group_IT_number 191
_symmetry_cell_setting 'hexagonal'
loop_
_space_group_symop_operation_xyz
x,y,z
x-y,x,z
-y,x-y,z
-x,-y,z
-x+y,-x,z
y,-x+y,z
x-y,-y,-z
-x,-x+y,-z
y,x,-z
-y,-x,-z
-x+y,y,-z
x,x-y,-z
-x,-y,-z
-x+y,-x,-z
y,-x+y,-z
x,y,-z
x-y,x,-z
-y,x-y,-z
-x+y,y,z
x,x-y,z
-y,-x,z
y,x,z
x-y,-y,z
-x,-x+y,z
loop_
_atom_site_type_symbol
_atom_site_label
_atom_site_fract_x
_atom_site_fract_y
_atom_site_fract_z
Si Si1 0.468946 0.640692 0.752649
Si Si2 0.334170 0.553767 0.000000
Si Si3 0.177353 0.354705 0.360604
Si Si4 0.936293 0.380261 0.365002
Si Si5 0.671769 0.939464 0.637365
Si Si6 0.758110 0.241891 0.363785
O O1 0.406424 0.593577 0.728653
O O2 0.508449 0.617402 0.713024
O O3 0.487315 0.696444 0.683434
O O4 0.472047 0.655926 0.886029
O O5 0.381696 0.618305 0.000000
O O6 0.274047 0.548093 0.000000
O O7 0.176517 0.353034 0.500000
O O8 0.114429 0.327658 0.320015
O O9 0.209660 0.419319 0.329330
O O10 0.924650 0.383009 0.500000
O O11 0.932017 0.320898 0.345913
O O12 0.000000 0.425985 0.344104
O O13 0.678757 0.940873 0.500000
O O14 0.715874 0.000000 0.682169
O O15 0.757268 0.242733 0.500000
#
# Coordination Sequence:
#
# PCOD9588159 Si02
#       6
#    24  12  12  24  24  12
#     4  11  22  35  50  66  86 112 146 182 218 260
#     4  10  21  38  55  65  77 109 153 190 220 258
#     4   9  14  22  39  59  83 113 135 159 198 246
#     4   9  17  30  48  70  95 118 138 166 212 270
#     4   8  13  21  35  57  83 110 138 163 194 245
#     4  11  20  31  47  69  91 110 135 172 222 275
#
# _framework density 13.583271999999999
#
# number of rings (size 3 to 8) (size 9 to 14) (size 15 to 20)
#    0.000    2.444    3.333    2.111    0.000    2.222 
#    0.667    1.667    0.000    2.000    0.000    0.000 
#    0.000    0.000    0.000    0.333    0.000   10.667 
#
# Total GULP energy -601480.883471 kJ/mol
# GULP energy per Si atom -5569.267440 kJ/mol
# Density = 1.355236 g / cm^3
# Si number density = 13.583272 Si / 1000 Ang^3
#
#
#
# Elastic Constant Matrix: (Units=GPa)
#
#
# Indices 1 2 3 4 5 6 
#
# 1 87.8444 51.5407 35.0806 0.0000 0.0000 0.0000
# 2 51.5407 87.8444 35.0806 0.0000 0.0000 0.0000
# 3 35.0806 35.0806 49.5777 0.0000 0.0000 0.0000
# 4 0.0000 0.0000 0.0000 10.6944 0.0000 0.0000
# 5 0.0000 0.0000 0.0000 0.0000 10.6944 0.0000
# 6 0.0000 0.0000 0.0000 0.0000 0.0000 18.1518
#
#
#
# Elastic Compliance Matrix: (Units=1/GPa)
#
#
# Indices 1 2 3 4 5 6 
#
# 1 0.019344 -0.008201 -0.007885 0.000000 0.000000 0.000000
# 2 -0.008201 0.019344 -0.007885 0.000000 0.000000 0.000000
# 3 -0.007885 -0.007885 0.031329 0.000000 0.000000 0.000000
# 4 0.000000 0.000000 0.000000 0.093507 0.000000 0.000000
# 5 0.000000 0.000000 0.000000 0.000000 0.093507 0.000000
# 6 0.000000 0.000000 0.000000 0.000000 0.000000 0.055091
#
#
# Mechanical properties :
#
#
# Convention : Reuss Voigt Hill
#
# Bulk Modulus (GPa) = 45.29810 52.07446 48.68628
# Shear Modulus (GPa) = 13.60832 14.81244 14.21038
#
# Velocity S-wave (km/s) = 3.16863 3.30584 3.23796
# Velocity P-wave (km/s) = 6.84162 7.27955 7.06398
#
# Compressibility (1/GPa) = 0.02207598
#
# Stress axis : x y z
#
# Youngs Moduli (GPa) = 51.69460 51.69460 31.91946
#
# Poissons Ratio (x) = 0.42395 0.25168
# Poissons Ratio (y) = 0.42395 0.25168
# Poissons Ratio (z) = 0.40761 0.40761
#
# Static dielectric constant tensor:
#      x y z
#    x 1.455350 0.000000 0.000000 
#    y 0.000000 1.455350 0.000000 
#    z 0.000000 0.000000 1.424450 
# 
# From -- ./inp_files/3134.got.cif
#   From: 2010.05.17/outbox.cif.g08.bks.cpg/sg191_2_cif.got.tgz:3134.got - 2010.05.20 12:20:32.
