data_PCOD9588640
_publ_section_title
;
Structure prediction by ZEFSAII (Michael W. Deem and Ramdas Pophale) SiO2 
 PCOD9588640
Probable space group: P 6/M C C
;
_chemical_formula_sum "Si O2"
_cell_formula_units_Z 72
_cell_length_a 14.910196
_cell_length_b 14.910196
_cell_length_c 14.949455
_cell_angle_alpha 90.000000
_cell_angle_beta 90.000000
_cell_angle_gamma 120.000000
_cell_volume 2878.211452
_symmetry_space_group_name_H-M "P 6/M C C"
_symmetry_group_IT_number 192
_symmetry_cell_setting 'hexagonal'
loop_
_space_group_symop_operation_xyz
x,y,z
x-y,x,z
-y,x-y,z
-x,-y,z
-x+y,-x,z
y,-x+y,z
x-y,-y,1/2-z
-x,-x+y,1/2-z
y,x,1/2-z
-y,-x,1/2-z
-x+y,y,1/2-z
x,x-y,1/2-z
-x,-y,-z
-x+y,-x,-z
y,-x+y,-z
x,y,-z
x-y,x,-z
-y,x-y,-z
-x+y,y,1/2+z
x,x-y,1/2+z
-y,-x,1/2+z
y,x,1/2+z
x-y,-y,1/2+z
-x,-x+y,1/2+z
loop_
_atom_site_type_symbol
_atom_site_label
_atom_site_fract_x
_atom_site_fract_y
_atom_site_fract_z
Si Si1 0.198225 0.982137 0.641150
Si Si2 0.307673 0.762497 0.107181
Si Si3 0.590628 0.609131 0.854274
O O1 0.089613 0.884375 0.612866
O O2 0.210507 0.000000 0.750000
O O3 0.292588 0.964524 0.610344
O O4 0.227809 0.645882 0.136183
O O5 0.305314 0.859947 0.140300
O O6 0.305803 0.763874 0.000000
O O7 0.500000 0.500000 0.895134
O O8 0.591476 0.591476 0.750000
#
# Coordination Sequence:
#
# PCOD9588640 Si02
#       3
#    24  24  24
#     4   9  18  32  52  75 110 152 200 247 298 364
#     4   8  18  37  61  82 111 160 210 254 306 376
#     4  10  21  34  51  87 122 151 195 250 325 382
#
# _framework density 25.015533999999999
#
# number of rings (size 3 to 8) (size 9 to 14) (size 15 to 20)
#    0.667    2.333    0.000    0.333    4.667    2.000 
#    6.000    0.000    0.000    0.000    0.000    0.000 
#    0.000    2.667    0.000    0.000    0.000    0.000 
#
# Total GULP energy -401515.028656 kJ/mol
# GULP energy per Si atom -5576.597620 kJ/mol
# Density = 2.495860 g / cm^3
# Si number density = 25.015534 Si / 1000 Ang^3
#
#
#
# Elastic Constant Matrix: (Units=GPa)
#
#
# Indices 1 2 3 4 5 6 
#
# 1 141.9047 57.9666 1.6091 0.0000 0.0000 0.0000
# 2 57.9666 141.9047 1.6091 0.0000 0.0000 0.0000
# 3 1.6091 1.6091 64.8129 0.0000 0.0000 0.0000
# 4 0.0000 0.0000 0.0000 117.5879 0.0000 0.0000
# 5 0.0000 0.0000 0.0000 0.0000 117.5879 0.0000
# 6 0.0000 0.0000 0.0000 0.0000 0.0000 41.9691
#
#
#
# Elastic Compliance Matrix: (Units=1/GPa)
#
#
# Indices 1 2 3 4 5 6 
#
# 1 0.008459 -0.003454 -0.000124 0.000000 0.000000 0.000000
# 2 -0.003454 0.008459 -0.000124 0.000000 0.000000 0.000000
# 3 -0.000124 -0.000124 0.015435 0.000000 0.000000 0.000000
# 4 0.000000 0.000000 0.000000 0.008504 0.000000 0.000000
# 5 0.000000 0.000000 0.000000 0.000000 0.008504 0.000000
# 6 0.000000 0.000000 0.000000 0.000000 0.000000 0.023827
#
#
# Mechanical properties :
#
#
# Convention : Reuss Voigt Hill
#
# Bulk Modulus (GPa) = 40.08243 52.33243 46.20743
# Shear Modulus (GPa) = 56.23591 74.59147 65.41369
#
# Velocity S-wave (km/s) = 4.74649 5.46652 5.11918
# Velocity P-wave (km/s) = 6.78946 7.79802 7.31115
#
# Compressibility (1/GPa) = 0.02494859
#
# Stress axis : x y z
#
# Youngs Moduli (GPa) = 118.21198 118.21198 64.78698
#
# Poissons Ratio (x) = 0.40832 0.00805
# Poissons Ratio (y) = 0.40832 0.00805
# Poissons Ratio (z) = 0.01469 0.01469
#
# Static dielectric constant tensor:
#      x y z
#    x 2.006440 0.000000 0.000000 
#    y 0.000000 2.006440 0.000000 
#    z 0.000000 0.000000 1.893500 
# 
# From -- ./inp_files/3783.got.cif
#   From: 2010.05.17/outbox.cif.g08.bks.cpg/sg192_2_cif.got.tgz:3783.got - 2010.05.20 12:28:01.
