data_PCOD9588423
_publ_section_title
;
Structure prediction by ZEFSAII (Michael W. Deem and Ramdas Pophale) SiO2 
 PCOD9588423
Probable space group: P 6/M C C
;
_chemical_formula_sum "Si O2"
_cell_formula_units_Z 144
_cell_length_a 21.632820
_cell_length_b 21.632820
_cell_length_c 14.828683
_cell_angle_alpha 90.000000
_cell_angle_beta 90.000000
_cell_angle_gamma 120.000000
_cell_volume 6009.792622
_symmetry_space_group_name_H-M "P 6/M C C"
_symmetry_group_IT_number 192
_symmetry_cell_setting 'hexagonal'
loop_
_space_group_symop_operation_xyz
x,y,z
x-y,x,z
-y,x-y,z
-x,-y,z
-x+y,-x,z
y,-x+y,z
x-y,-y,1/2-z
-x,-x+y,1/2-z
y,x,1/2-z
-y,-x,1/2-z
-x+y,y,1/2-z
x,x-y,1/2-z
-x,-y,-z
-x+y,-x,-z
y,-x+y,-z
x,y,-z
x-y,x,-z
-y,x-y,-z
-x+y,y,1/2+z
x,x-y,1/2+z
-y,-x,1/2+z
y,x,1/2+z
x-y,-y,1/2+z
-x,-x+y,1/2+z
loop_
_atom_site_type_symbol
_atom_site_label
_atom_site_fract_x
_atom_site_fract_y
_atom_site_fract_z
Si Si1 0.354119 0.477215 0.893052
Si Si2 0.255311 0.476342 0.389744
Si Si3 0.684187 0.812349 0.102233
Si Si4 0.666122 0.669302 0.850774
Si Si5 0.088480 0.923567 0.389594
Si Si6 0.097448 0.499373 0.890698
O O1 0.300643 0.502792 0.857331
O O2 0.318205 0.392323 0.881390
O O3 0.434859 0.523723 0.858282
O O4 0.361589 0.490627 0.000000
O O5 0.252972 0.474733 0.500000
O O6 0.220058 0.394314 0.356687
O O7 0.338772 0.516391 0.369325
O O8 0.695298 0.743470 0.097754
O O9 0.753114 0.879816 0.142312
O O10 0.678041 0.832657 0.000000
O O11 0.691080 0.691080 0.750000
O O12 0.579483 0.626990 0.853057
O O13 0.089087 0.922460 0.500000
O O14 0.005653 0.879692 0.362030
O O15 0.085729 0.490726 0.000000
#
# Coordination Sequence:
#
# PCOD9588423 Si02
#       6
#    24  24  24  24  24  24
#     4  10  19  32  56  80 102 136 174 208 254 314
#     4   8  16  31  50  75 104 133 169 212 253 304
#     4   9  18  33  53  75 106 140 174 217 262 308
#     4  11  22  34  51  76 105 136 174 217 264 306
#     4   9  17  28  48  79 111 141 172 214 265 318
#     4   9  18  35  53  76 107 136 166 211 260 303
#
# _framework density 23.960892999999999
#
# number of rings (size 3 to 8) (size 9 to 14) (size 15 to 20)
#    0.000    2.667    0.000    3.167    2.333    3.333 
#    1.000    3.333    0.000    0.000    0.000    0.000 
#    0.000    1.333    0.000    0.000    0.000    0.000 
#
# Total GULP energy -804018.031727 kJ/mol
# GULP energy per Si atom -5583.458554 kJ/mol
# Density = 2.390636 g / cm^3
# Si number density = 23.960893 Si / 1000 Ang^3
#
#
#
# Elastic Constant Matrix: (Units=GPa)
#
#
# Indices 1 2 3 4 5 6 
#
# 1 -9.5556 42.6027 -6.2142 0.0000 0.0000 0.0000
# 2 42.6027 -9.5556 -6.2142 0.0000 0.0000 0.0000
# 3 -6.2142 -6.2142 60.2726 0.0000 0.0000 0.0000
# 4 0.0000 0.0000 0.0000********** -0.0034 0.0000
# 5 0.0000 0.0000 0.0000 -0.0034********** 0.0000
# 6 0.0000 0.0000 0.0000 0.0000 0.0000 -26.0791
#
#
#
# Elastic Compliance Matrix: (Units=1/GPa)
#
#
# Indices 1 2 3 4 5 6 
#
# 1 0.006154 0.025326 0.003246 0.000000 0.000000 0.000000
# 2 0.025326 0.006154 0.003246 0.000000 0.000000 0.000000
# 3 0.003246 0.003246 0.017261 0.000000 0.000000 0.000000
# 4 0.000000 0.000000 0.000000 -0.000080 0.000000 0.000000
# 5 0.000000 0.000000 0.000000 0.000000 -0.000080 0.000000
# 6 0.000000 0.000000 0.000000 0.000000 0.000000 -0.038345
#
#
# Mechanical properties :
#
#
# Convention : Reuss Voigt Hill
#
# Bulk Modulus (GPa) = 10.72912 11.27889 11.00400
# Shear Modulus (GPa) = -120.46836 -4973.94575 -2547.20706
#
# Velocity S-wave (km/s) = -7.09833 -45.61103 -32.64010
# Velocity P-wave (km/s) = 7.91796 52.62228 37.62844
#
# Compressibility (1/GPa) = 0.09320431
#
# Stress axis : x y z
#
# Youngs Moduli (GPa) = 162.49446 162.49446 57.93557
#
# Poissons Ratio (x) = -4.11541 -0.18804
# Poissons Ratio (y) = -4.11541 -0.18804
# Poissons Ratio (z) = -0.52740 -0.52740
#
# Static dielectric constant tensor:
#      x y z
#    x 1.921870 0.000000 0.000000 
#    y 0.000000 1.921870 0.000000 
#    z 0.000000 0.000000 1.943830 
# 
# From -- ./inp_files/4354.got.cif
#   From: 2010.05.17/outbox.cif.g08.bks.cpg/sg192_3_cif.got.tgz:4354.got - 2010.05.20 12:28:01.
