data_PCOD9588043
_publ_section_title
;
Structure prediction by ZEFSAII (Michael W. Deem and Ramdas Pophale) SiO2 
 PCOD9588043
Probable space group: P 6/M M M
;
_chemical_formula_sum "Si O2"
_cell_formula_units_Z 60
_cell_length_a 23.150058
_cell_length_b 23.150058
_cell_length_c 7.571036
_cell_angle_alpha 90.000000
_cell_angle_beta 90.000000
_cell_angle_gamma 120.000000
_cell_volume 3513.905759
_symmetry_space_group_name_H-M "P 6/M M M"
_symmetry_group_IT_number 191
_symmetry_cell_setting 'hexagonal'
loop_
_space_group_symop_operation_xyz
x,y,z
x-y,x,z
-y,x-y,z
-x,-y,z
-x+y,-x,z
y,-x+y,z
x-y,-y,-z
-x,-x+y,-z
y,x,-z
-y,-x,-z
-x+y,y,-z
x,x-y,-z
-x,-y,-z
-x+y,-x,-z
y,-x+y,-z
x,y,-z
x-y,x,-z
-y,x-y,-z
-x+y,y,z
x,x-y,z
-y,-x,z
y,x,z
x-y,-y,z
-x,-x+y,z
loop_
_atom_site_type_symbol
_atom_site_label
_atom_site_fract_x
_atom_site_fract_y
_atom_site_fract_z
Si Si1 0.921526 0.391676 0.000000
Si Si2 0.721047 0.924591 0.785854
Si Si3 0.433976 0.150455 0.297058
O O1 0.883212 0.346178 0.831807
O O2 0.919177 0.459589 0.000000
O O3 0.000000 0.413082 0.000000
O O4 0.744541 0.872271 0.735921
O O5 0.646274 0.894828 0.715384
O O6 0.768252 0.000000 0.728025
O O7 0.716205 0.924098 0.000000
O O8 0.454587 0.152825 0.500000
O O9 0.449782 0.224891 0.243803
#
# Coordination Sequence:
#
# PCOD9588043 Si02
#       3
#    12  24  24
#     4  11  23  36  52  78 112 143 167 199 252 320
#     4   9  16  27  45  69  98 131 168 211 255 297
#     4  10  20  35  56  78 101 133 174 218 258 298
#
# _framework density 17.075018
#
# number of rings (size 3 to 8) (size 9 to 14) (size 15 to 20)
#    0.000    2.200    2.000    1.800    0.000    4.000 
#    0.000    2.000    0.000    3.600    0.000    2.800 
#    0.000    0.000    0.000   10.000    0.000   10.400 
#
# Total GULP energy -334780.757116 kJ/mol
# GULP energy per Si atom -5579.679285 kJ/mol
# Density = 1.703615 g / cm^3
# Si number density = 17.075018 Si / 1000 Ang^3
#
#
#
# Elastic Constant Matrix: (Units=GPa)
#
#
# Indices 1 2 3 4 5 6 
#
# 1 98.8724 46.5291 46.6876 0.0000 0.0000 0.0000
# 2 46.5291 98.8724 46.6876 0.0000 0.0000 0.0000
# 3 46.6876 46.6876 88.2039 0.0000 0.0000 0.0000
# 4 0.0000 0.0000 0.0000 -12.4028 0.0000 0.0000
# 5 0.0000 0.0000 0.0000 0.0000 -12.4028 0.0000
# 6 0.0000 0.0000 0.0000 0.0000 0.0000 26.1716
#
#
#
# Elastic Compliance Matrix: (Units=1/GPa)
#
#
# Indices 1 2 3 4 5 6 
#
# 1 0.014762 -0.004343 -0.005515 0.000000 0.000000 0.000000
# 2 -0.004343 0.014762 -0.005515 0.000000 0.000000 0.000000
# 3 -0.005515 -0.005515 0.017176 0.000000 0.000000 0.000000
# 4 0.000000 0.000000 0.000000 -0.080627 0.000000 0.000000
# 5 0.000000 0.000000 0.000000 0.000000 -0.080627 0.000000
# 6 0.000000 0.000000 0.000000 0.000000 0.000000 0.038209
#
#
# Mechanical properties :
#
#
# Convention : Reuss Voigt Hill
#
# Bulk Modulus (GPa) = 62.68020 62.86194 62.77107
# Shear Modulus (GPa) = -124.12567 10.00950 -57.05809
#
# Velocity S-wave (km/s) = -8.53535 2.42380 -5.78694
# Velocity P-wave (km/s) = 7.76838 6.68791 2.79460
#
# Compressibility (1/GPa) = 0.01595400
#
# Stress axis : x y z
#
# Youngs Moduli (GPa) = 67.74177 67.74177 58.22158
#
# Poissons Ratio (x) = 0.29418 0.32109
# Poissons Ratio (y) = 0.29418 0.32109
# Poissons Ratio (z) = 0.37360 0.37360
#
# Static dielectric constant tensor:
#      x y z
#    x 1.561010 0.000000 0.000000 
#    y 0.000000 1.561010 0.000000 
#    z 0.000000 0.000000 1.633960 
# 
# From -- ./inp_files/547.got.cif
#   From: 2010.05.17/outbox.cif.g08.bks.cpg/sg191_1_cif.got.tgz:547.got - 2010.05.20 12:20:32.
