data_PCOD9588561
_publ_section_title
;
Structure prediction by ZEFSAII (Michael W. Deem and Ramdas Pophale) SiO2 
 PCOD9588561
Probable space group: P 6/M C C
;
_chemical_formula_sum "Si O2"
_cell_formula_units_Z 144
_cell_length_a 19.401088
_cell_length_b 19.401088
_cell_length_c 24.670308
_cell_angle_alpha 90.000000
_cell_angle_beta 90.000000
_cell_angle_gamma 120.000000
_cell_volume 8041.876038
_symmetry_space_group_name_H-M "P 6/M C C"
_symmetry_group_IT_number 192
_symmetry_cell_setting 'hexagonal'
loop_
_space_group_symop_operation_xyz
x,y,z
x-y,x,z
-y,x-y,z
-x,-y,z
-x+y,-x,z
y,-x+y,z
x-y,-y,1/2-z
-x,-x+y,1/2-z
y,x,1/2-z
-y,-x,1/2-z
-x+y,y,1/2-z
x,x-y,1/2-z
-x,-y,-z
-x+y,-x,-z
y,-x+y,-z
x,y,-z
x-y,x,-z
-y,x-y,-z
-x+y,y,1/2+z
x,x-y,1/2+z
-y,-x,1/2+z
y,x,1/2+z
x-y,-y,1/2+z
-x,-x+y,1/2+z
loop_
_atom_site_type_symbol
_atom_site_label
_atom_site_fract_x
_atom_site_fract_y
_atom_site_fract_z
Si Si1 0.796002 0.279839 0.500000
Si Si2 0.996768 0.706101 0.565180
Si Si3 0.245000 0.766205 0.813862
Si Si4 0.150794 0.580745 0.186699
Si Si5 0.465004 0.051025 0.091688
Si Si6 0.184470 0.353800 0.592842
Si Si7 0.830301 0.453679 0.500000
O O1 0.815856 0.240157 0.550560
O O2 0.836952 0.374715 0.500000
O O3 0.702925 0.253925 0.500000
O O4 0.005876 0.705374 0.500000
O O5 0.995452 0.629190 0.591273
O O6 0.908564 0.691312 0.576877
O O7 0.074570 0.781492 0.589766
O O8 0.229083 0.770918 0.750000
O O9 0.338421 0.817127 0.828284
O O10 0.217638 0.673180 0.821137
O O11 0.197147 0.795820 0.851034
O O12 0.129674 0.564837 0.250000
O O13 0.080432 0.572951 0.149182
O O14 0.500000 0.000000 0.066000
O O15 0.494549 0.126384 0.052848
#
# Coordination Sequence:
#
# PCOD9588561 Si02
#       7
#    12  24  24  24  24  24  12
#     4  12  21  36  54  82 119 150 204 241 295 348
#     4  12  22  41  62  88 119 155 202 256 320 391
#     4  10  20  37  57  85 120 163 210 254 294 346
#     4  10  20  35  55  78 115 157 206 248 289 337
#     4  12  22  34  52  81 114 153 198 240 293 351
#     4  12  23  40  62  87 117 157 200 258 317 387
#     4  12  22  34  52  78 115 152 191 242 287 340
#
# _framework density 17.906269999999999
#
# number of rings (size 3 to 8) (size 9 to 14) (size 15 to 20)
#    0.000    0.667    5.833    3.750    0.000    1.667 
#    0.000    4.167    0.000    0.333    0.000    1.167 
#    0.000    0.000    0.000    1.500    0.000    0.167 
#
# Total GULP energy -803856.221272 kJ/mol
# GULP energy per Si atom -5582.334870 kJ/mol
# Density = 1.786551 g / cm^3
# Si number density = 17.906270 Si / 1000 Ang^3
#
#
#
# Elastic Constant Matrix: (Units=GPa)
#
#
# Indices 1 2 3 4 5 6 
#
# 1 90.4486 30.4988 25.0525 0.0000 0.0000 0.0000
# 2 30.4988 90.4486 25.0525 0.0000 0.0000 0.0000
# 3 25.0525 25.0525 68.1933 0.0000 0.0000 0.0000
# 4 0.0000 0.0000 0.0000 19.3205 0.0000 0.0000
# 5 0.0000 0.0000 0.0000 0.0000 19.3205 0.0000
# 6 0.0000 0.0000 0.0000 0.0000 0.0000 29.9749
#
#
#
# Elastic Compliance Matrix: (Units=1/GPa)
#
#
# Indices 1 2 3 4 5 6 
#
# 1 0.013216 -0.003464 -0.003583 0.000000 0.000000 0.000000
# 2 -0.003464 0.013216 -0.003583 0.000000 0.000000 0.000000
# 3 -0.003583 -0.003583 0.017297 0.000000 0.000000 0.000000
# 4 0.000000 0.000000 0.000000 0.051759 0.000000 0.000000
# 5 0.000000 0.000000 0.000000 0.000000 0.051759 0.000000
# 6 0.000000 0.000000 0.000000 0.000000 0.000000 0.033361
#
#
# Mechanical properties :
#
#
# Convention : Reuss Voigt Hill
#
# Bulk Modulus (GPa) = 44.50337 45.58868 45.04603
# Shear Modulus (GPa) = 23.88260 24.95560 24.41910
#
# Velocity S-wave (km/s) = 3.65602 3.73725 3.69686
# Velocity P-wave (km/s) = 6.53678 6.64362 6.59041
#
# Compressibility (1/GPa) = 0.02247021
#
# Stress axis : x y z
#
# Youngs Moduli (GPa) = 75.66325 75.66325 57.81476
#
# Poissons Ratio (x) = 0.26211 0.20714
# Poissons Ratio (y) = 0.26211 0.20714
# Poissons Ratio (z) = 0.27108 0.27108
#
# Static dielectric constant tensor:
#      x y z
#    x 1.647040 0.000000 0.000000 
#    y 0.000000 1.647040 0.000000 
#    z 0.000000 0.000000 1.643030 
# 
# From -- ./inp_files/5985.got.cif
#   From: 2010.05.17/outbox.cif.g08.bks.cpg/sg192_3_cif.got.tgz:5985.got - 2010.05.20 12:28:01.
