data_PCOD9588765
_publ_section_title
;
Structure prediction by ZEFSAII (Michael W. Deem and Ramdas Pophale) SiO2 
 PCOD9588765
Probable space group: P 6/M C C
;
_chemical_formula_sum "Si O2"
_cell_formula_units_Z 132
_cell_length_a 17.013479
_cell_length_b 17.013479
_cell_length_c 25.353564
_cell_angle_alpha 90.000000
_cell_angle_beta 90.000000
_cell_angle_gamma 120.000000
_cell_volume 6355.590512
_symmetry_space_group_name_H-M "P 6/M C C"
_symmetry_group_IT_number 192
_symmetry_cell_setting 'hexagonal'
loop_
_space_group_symop_operation_xyz
x,y,z
x-y,x,z
-y,x-y,z
-x,-y,z
-x+y,-x,z
y,-x+y,z
x-y,-y,1/2-z
-x,-x+y,1/2-z
y,x,1/2-z
-y,-x,1/2-z
-x+y,y,1/2-z
x,x-y,1/2-z
-x,-y,-z
-x+y,-x,-z
y,-x+y,-z
x,y,-z
x-y,x,-z
-y,x-y,-z
-x+y,y,1/2+z
x,x-y,1/2+z
-y,-x,1/2+z
y,x,1/2+z
x-y,-y,1/2+z
-x,-x+y,1/2+z
loop_
_atom_site_type_symbol
_atom_site_label
_atom_site_fract_x
_atom_site_fract_y
_atom_site_fract_z
Si Si1 0.789266 0.270057 0.661154
Si Si2 0.000000 0.500000 0.395107
Si Si3 0.833690 0.796893 0.397281
Si Si4 0.398110 0.861870 0.306369
Si Si5 0.224507 0.923713 0.788252
Si Si6 0.593739 0.889461 0.561197
O O1 0.709466 0.190364 0.693732
O O2 0.791137 0.362523 0.673235
O O3 0.880357 0.277226 0.683359
O O4 0.800700 0.257761 0.599212
O O5 0.931857 0.505840 0.353707
O O6 0.949723 0.404323 0.426197
O O7 0.818601 0.881955 0.409263
O O8 0.814966 0.773412 0.334796
O O9 0.760612 0.701875 0.425243
O O10 0.446778 0.893555 0.250000
O O11 0.145245 0.854756 0.750000
O O12 0.293380 0.000000 0.750000
O O13 0.582245 0.865686 0.500000
#
# Coordination Sequence:
#
# PCOD9588765 Si02
#       6
#    24  12  24  24  24  24
#     4  10  24  38  62  92 131 173 221 270 328 412
#     4  10  24  40  68 100 130 168 224 276 334 412
#     4  11  24  41  65  99 135 177 231 291 352 419
#     4  11  21  38  60  94 133 171 206 260 332 405
#     4  11  21  36  61  93 130 175 223 269 331 407
#     4  10  24  46  68  94 127 174 229 290 346 392
#
# _framework density 20.769117000000001
#
# number of rings (size 3 to 8) (size 9 to 14) (size 15 to 20)
#    0.000    1.455    1.818    2.727    5.091    6.545 
#    0.000    3.636    0.000    1.091    0.000    0.000 
#    0.000    0.000    0.000    0.000    0.000    0.000 
#
# Total GULP energy -736595.267591 kJ/mol
# GULP energy per Si atom -5580.267179 kJ/mol
# Density = 2.072185 g / cm^3
# Si number density = 20.769117 Si / 1000 Ang^3
#
#
#
# Elastic Constant Matrix: (Units=GPa)
#
#
# Indices 1 2 3 4 5 6 
#
# 1 70.4375 27.8862 18.3082 0.0000 0.0000 0.0000
# 2 27.8862 70.4375 18.3082 0.0000 0.0000 0.0000
# 3 18.3082 18.3082 137.3324 0.0000 0.0000 0.0000
# 4 0.0000 0.0000 0.0000 16.8155 0.0000 0.0000
# 5 0.0000 0.0000 0.0000 0.0000 16.8155 0.0000
# 6 0.0000 0.0000 0.0000 0.0000 0.0000 21.2757
#
#
#
# Elastic Compliance Matrix: (Units=1/GPa)
#
#
# Indices 1 2 3 4 5 6 
#
# 1 0.017101 -0.006400 -0.001427 0.000000 0.000000 0.000000
# 2 -0.006400 0.017101 -0.001427 0.000000 0.000000 0.000000
# 3 -0.001427 -0.001427 0.007662 0.000000 0.000000 0.000000
# 4 0.000000 0.000000 0.000000 0.059469 0.000000 0.000000
# 5 0.000000 0.000000 0.000000 0.000000 0.059469 0.000000
# 6 0.000000 0.000000 0.000000 0.000000 0.000000 0.047002
#
#
# Mechanical properties :
#
#
# Convention : Reuss Voigt Hill
#
# Bulk Modulus (GPa) = 42.81036 45.24585 44.02810
# Shear Modulus (GPa) = 21.35867 25.22832 23.29350
#
# Velocity S-wave (km/s) = 3.21033 3.48904 3.35258
# Velocity P-wave (km/s) = 5.86505 6.16958 6.01924
#
# Compressibility (1/GPa) = 0.02335883
#
# Stress axis : x y z
#
# Youngs Moduli (GPa) = 58.47469 58.47469 130.51431
#
# Poissons Ratio (x) = 0.37422 0.18620
# Poissons Ratio (y) = 0.37422 0.18620
# Poissons Ratio (z) = 0.08343 0.08343
#
# Static dielectric constant tensor:
#      x y z
#    x 1.823620 0.000000 0.000000 
#    y 0.000000 1.823620 0.000000 
#    z 0.000000 0.000000 1.742130 
# 
# From -- ./inp_files/5843.got.cif
#   From: 2010.05.17/outbox.cif.g08.bks.cpg/sg192_3_cif.got.tgz:5843.got - 2010.05.20 12:28:01.
