data_PCOD9588461
_publ_section_title
;
Structure prediction by ZEFSAII (Michael W. Deem and Ramdas Pophale) SiO2 
 PCOD9588461
Probable space group: P 6/M C C
;
_chemical_formula_sum "Si O2"
_cell_formula_units_Z 144
_cell_length_a 32.340644
_cell_length_b 32.340644
_cell_length_c 8.540824
_cell_angle_alpha 90.000000
_cell_angle_beta 90.000000
_cell_angle_gamma 120.000000
_cell_volume 7736.200765
_symmetry_space_group_name_H-M "P 6/M C C"
_symmetry_group_IT_number 192
_symmetry_cell_setting 'hexagonal'
loop_
_space_group_symop_operation_xyz
x,y,z
x-y,x,z
-y,x-y,z
-x,-y,z
-x+y,-x,z
y,-x+y,z
x-y,-y,1/2-z
-x,-x+y,1/2-z
y,x,1/2-z
-y,-x,1/2-z
-x+y,y,1/2-z
x,x-y,1/2-z
-x,-y,-z
-x+y,-x,-z
y,-x+y,-z
x,y,-z
x-y,x,-z
-y,x-y,-z
-x+y,y,1/2+z
x,x-y,1/2+z
-y,-x,1/2+z
y,x,1/2+z
x-y,-y,1/2+z
-x,-x+y,1/2+z
loop_
_atom_site_type_symbol
_atom_site_label
_atom_site_fract_x
_atom_site_fract_y
_atom_site_fract_z
Si Si1 0.666658 0.426646 0.188371
Si Si2 0.143587 0.948119 0.312815
Si Si3 0.572432 0.520949 0.188302
Si Si4 0.618948 0.856017 0.188375
Si Si5 0.763335 0.051884 0.187116
Si Si6 0.145510 0.668474 0.809551
O O1 0.620767 0.379234 0.250000
O O2 0.714533 0.429066 0.250000
O O3 0.664648 0.473478 0.240969
O O4 0.666745 0.425663 0.000000
O O5 0.093718 0.906283 0.250000
O O6 0.144502 0.948298 0.500000
O O7 0.186041 0.939907 0.250150
O O8 0.156522 0.000000 0.250000
O O9 0.561322 0.561322 0.250000
O O10 0.529208 0.470793 0.250000
O O11 0.622760 0.526959 0.240471
O O12 0.570774 0.520591 0.000000
O O13 0.623994 0.811997 0.250000
O O14 0.661746 0.905534 0.251977
O O15 0.568428 0.850267 0.239579
O O16 0.620745 0.856497 0.000000
O O17 0.723959 0.000000 0.250000
O O18 0.763866 0.051071 0.000000
O O19 0.145378 0.668088 0.000000
#
# Coordination Sequence:
#
# PCOD9588461 Si02
#       6
#    24  24  24  24  24  24
#     4  11  22  39  60  85 112 144 181 226 277 332
#     4  11  21  36  57  84 114 149 189 235 284 336
#     4  10  19  35  56  82 110 142 179 224 274 326
#     4  11  22  39  58  81 112 149 187 229 275 330
#     4  11  22  38  58  84 113 147 187 233 281 331
#     4   9  21  38  58  81 111 145 185 230 274 322
#
# _framework density 18.613786999999999
#
# number of rings (size 3 to 8) (size 9 to 14) (size 15 to 20)
#    0.000    1.500    0.000    7.667    0.000    0.667 
#    0.000   10.000    0.000    0.167    0.000    1.167 
#    0.000    0.000    0.000    0.000    0.000    0.000 
#
# Total GULP energy -805047.132150 kJ/mol
# GULP energy per Si atom -5590.605084 kJ/mol
# Density = 1.857142 g / cm^3
# Si number density = 18.613787 Si / 1000 Ang^3
#
#
#
# Elastic Constant Matrix: (Units=GPa)
#
#
# Indices 1 2 3 4 5 6 
#
# 1 162.8622 102.5532 46.2805 0.0000 0.0000 0.0000
# 2 102.5532 162.8622 46.2805 0.0000 0.0000 0.0000
# 3 46.2805 46.2805 115.6258 0.0000 0.0000 0.0000
# 4 0.0000 0.0000 0.0000 21.8208 0.0000 0.0000
# 5 0.0000 0.0000 0.0000 0.0000 21.8208 0.0000
# 6 0.0000 0.0000 0.0000 0.0000 0.0000 30.1545
#
#
#
# Elastic Compliance Matrix: (Units=1/GPa)
#
#
# Indices 1 2 3 4 5 6 
#
# 1 0.010480 -0.006101 -0.001753 0.000000 0.000000 0.000000
# 2 -0.006101 0.010480 -0.001753 0.000000 0.000000 0.000000
# 3 -0.001753 -0.001753 0.010052 0.000000 0.000000 0.000000
# 4 0.000000 0.000000 0.000000 0.045828 0.000000 0.000000
# 5 0.000000 0.000000 0.000000 0.000000 0.045828 0.000000
# 6 0.000000 0.000000 0.000000 0.000000 0.000000 0.033163
#
#
# Mechanical properties :
#
#
# Convention : Reuss Voigt Hill
#
# Bulk Modulus (GPa) = 84.75532 92.39762 88.57647
# Shear Modulus (GPa) = 27.93667 31.17494 29.55581
#
# Velocity S-wave (km/s) = 3.87830 4.09691 3.98910
# Velocity P-wave (km/s) = 8.10477 8.49274 8.30103
#
# Compressibility (1/GPa) = 0.01179867
#
# Stress axis : x y z
#
# Youngs Moduli (GPa) = 95.41893 95.41893 99.48589
#
# Poissons Ratio (x) = 0.58217 0.17437
# Poissons Ratio (y) = 0.58217 0.17437
# Poissons Ratio (z) = 0.16724 0.16724
#
# Static dielectric constant tensor:
#      x y z
#    x 1.619380 0.000000 0.000000 
#    y 0.000000 1.619380 0.000000 
#    z 0.000000 0.000000 1.631810 
# 
# From -- ./inp_files/1205.got.cif
#   From: 2010.05.17/outbox.cif.g08.bks.cpg/sg192_1_cif.got.tgz:1205.got - 2010.05.20 12:28:01.
