data_PCOD9588187
_publ_section_title
;
Structure prediction by ZEFSAII (Michael W. Deem and Ramdas Pophale) SiO2 
 PCOD9588187
Probable space group: P 6/M M M
;
_chemical_formula_sum "Si O2"
_cell_formula_units_Z 102
_cell_length_a 27.246432
_cell_length_b 27.246432
_cell_length_c 7.248863
_cell_angle_alpha 90.000000
_cell_angle_beta 90.000000
_cell_angle_gamma 120.000000
_cell_volume 4660.363583
_symmetry_space_group_name_H-M "P 6/M M M"
_symmetry_group_IT_number 191
_symmetry_cell_setting 'hexagonal'
loop_
_space_group_symop_operation_xyz
x,y,z
x-y,x,z
-y,x-y,z
-x,-y,z
-x+y,-x,z
y,-x+y,z
x-y,-y,-z
-x,-x+y,-z
y,x,-z
-y,-x,-z
-x+y,y,-z
x,x-y,-z
-x,-y,-z
-x+y,-x,-z
y,-x+y,-z
x,y,-z
x-y,x,-z
-y,x-y,-z
-x+y,y,z
x,x-y,z
-y,-x,z
y,x,z
x-y,-y,z
-x,-x+y,z
loop_
_atom_site_type_symbol
_atom_site_label
_atom_site_fract_x
_atom_site_fract_y
_atom_site_fract_z
Si Si1 0.355220 0.533958 0.279533
Si Si2 0.746413 0.253588 0.000000
Si Si3 0.935728 0.366772 0.723316
Si Si4 0.828601 0.063866 0.777505
Si Si5 0.869333 0.238257 0.714778
O O1 0.343376 0.528830 0.500000
O O2 0.400887 0.599114 0.238885
O O3 0.299164 0.511995 0.160723
O O4 0.383526 0.495232 0.236951
O O5 0.939592 0.365603 0.500000
O O6 0.906011 0.301398 0.789630
O O7 0.000000 0.405439 0.789552
O O8 0.892344 0.107657 0.716506
O O9 0.791141 0.092239 0.725401
O O10 0.801070 0.000000 0.710355
O O11 0.828804 0.062446 0.000000
O O12 0.859184 0.244338 0.500000
O O13 0.807849 0.192152 0.796602
#
# Coordination Sequence:
#
# PCOD9588187 Si02
#       5
#    24   6  24  24  24
#     4  10  23  44  69  98 131 168 213 266 326 390
#     4  12  24  44  70  96 128 168 212 268 323 384
#     4   9  18  34  59  90 124 164 208 255 310 376
#     4   9  17  29  43  62  90 125 166 215 271 333
#     4   9  17  29  49  76 108 146 187 234 283 336
#
# _framework density 21.886706
#
# number of rings (size 3 to 8) (size 9 to 14) (size 15 to 20)
#    0.000    2.588    0.000    1.412    1.647    1.882 
#    4.941    2.941    0.000    1.647    0.000    1.647 
#    0.000    0.000    0.000    5.882    0.000    6.118 
#
# Total GULP energy -568026.773064 kJ/mol
# GULP energy per Si atom -5568.889932 kJ/mol
# Density = 2.183689 g / cm^3
# Si number density = 21.886706 Si / 1000 Ang^3
#
#
#
# Elastic Constant Matrix: (Units=GPa)
#
#
# Indices 1 2 3 4 5 6 
#
# 1 92.5068 48.6290 12.4166 0.0000 0.0000 0.0000
# 2 48.6290 92.5068 12.4166 0.0000 0.0000 0.0000
# 3 12.4166 12.4166 114.7468 0.0000 0.0000 0.0000
# 4 0.0000 0.0000 0.0000 3.4015 0.0000 0.0000
# 5 0.0000 0.0000 0.0000 0.0000 3.4015 0.0000
# 6 0.0000 0.0000 0.0000 0.0000 0.0000 21.9389
#
#
#
# Elastic Compliance Matrix: (Units=1/GPa)
#
#
# Indices 1 2 3 4 5 6 
#
# 1 0.015007 -0.007784 -0.000782 0.000000 0.000000 0.000000
# 2 -0.007784 0.015007 -0.000782 0.000000 0.000000 0.000000
# 3 -0.000782 -0.000782 0.008884 0.000000 0.000000 0.000000
# 4 0.000000 0.000000 0.000000 0.293988 0.000000 0.000000
# 5 0.000000 0.000000 0.000000 0.000000 0.293988 0.000000
# 6 0.000000 0.000000 0.000000 0.000000 0.000000 0.045581
#
#
# Mechanical properties :
#
#
# Convention : Reuss Voigt Hill
#
# Bulk Modulus (GPa) = 49.49649 49.63166 49.56408
# Shear Modulus (GPa) = 7.16453 20.83493 13.99973
#
# Velocity S-wave (km/s) = 1.81123 3.08871 2.53186
# Velocity P-wave (km/s) = 5.19981 5.95365 5.58946
#
# Compressibility (1/GPa) = 0.02020345
#
# Stress axis : x y z
#
# Youngs Moduli (GPa) = 66.63677 66.63677 112.56204
#
# Poissons Ratio (x) = 0.51869 0.08798
# Poissons Ratio (y) = 0.51869 0.08798
# Poissons Ratio (z) = 0.05208 0.05208
#
# Static dielectric constant tensor:
#      x y z
#    x 1.790260 0.000000 0.000000 
#    y 0.000000 1.790260 0.000000 
#    z 0.000000 0.000000 1.856850 
# 
# From -- ./inp_files/1417.got.cif
#   From: 2010.05.17/outbox.cif.g08.bks.cpg/sg191_1_cif.got.tgz:1417.got - 2010.05.20 12:20:32.
