data_PCOD9588969
_publ_section_title
;
Structure prediction by ZEFSAII (Michael W. Deem and Ramdas Pophale) SiO2 
 PCOD9588969
Probable space group: P 63/M C M
;
_chemical_formula_sum "Si O2"
_cell_formula_units_Z 120
_cell_length_a 20.788601
_cell_length_b 20.788601
_cell_length_c 15.457457
_cell_angle_alpha 90.000000
_cell_angle_beta 90.000000
_cell_angle_gamma 120.000000
_cell_volume 5785.211041
_symmetry_space_group_name_H-M "P 63/M C M"
_symmetry_group_IT_number 193
_symmetry_cell_setting 'hexagonal'
loop_
_space_group_symop_operation_xyz
x,y,z
x-y,x,1/2+z
-y,x-y,z
-x,-y,1/2+z
-x+y,-x,z
y,-x+y,1/2+z
x-y,-y,1/2-z
-x,-x+y,1/2-z
y,x,1/2-z
-y,-x,-z
-x+y,y,-z
x,x-y,-z
-x,-y,-z
-x+y,-x,1/2-z
y,-x+y,-z
x,y,1/2-z
x-y,x,-z
-y,x-y,1/2-z
-x+y,y,1/2+z
x,x-y,1/2+z
-y,-x,1/2+z
y,x,z
x-y,-y,z
-x,-x+y,z
loop_
_atom_site_type_symbol
_atom_site_label
_atom_site_fract_x
_atom_site_fract_y
_atom_site_fract_z
Si Si1 0.748634 0.500759 0.602731
Si Si2 0.186446 0.334289 0.647037
Si Si3 0.168392 0.083819 0.603710
Si Si4 0.517870 0.000000 0.600861
Si Si5 0.000000 0.333386 0.144900
Si Si6 0.163135 0.582683 0.893401
O O1 0.744435 0.488871 0.500000
O O2 0.782938 0.588335 0.617313
O O3 0.665035 0.451996 0.636194
O O4 0.802526 0.470742 0.635128
O O5 0.189769 0.337096 0.750000
O O6 0.117180 0.255288 0.622230
O O7 0.259610 0.333047 0.614643
O O8 0.160607 0.080304 0.500000
O O9 0.137651 0.137651 0.635987
O O10 0.118916 0.000000 0.637423
O O11 0.500000 0.000000 0.500000
O O12 0.533155 0.078410 0.637142
O O13 0.594607 0.000000 0.610752
O O14 0.000000 0.335009 0.250000
O O15 0.162014 0.581007 0.000000
#
# Coordination Sequence:
#
# PCOD9588969 Si02
#       6
#    24  24  24  12  12  24
#     4  10  19  35  56  82 112 146 186 238 288 340
#     4  11  22  38  58  83 115 153 195 235 280 345
#     4  10  21  39  62  90 117 149 190 240 292 343
#     4  10  18  34  54  84 110 142 186 236 278 335
#     4  10  20  36  60  82 109 150 198 241 275 338
#     4   9  18  31  53  79 107 139 180 228 280 328
#
# _framework density 20.742546000000001
#
# number of rings (size 3 to 8) (size 9 to 14) (size 15 to 20)
#    0.000    2.000    3.000    1.200    0.000    2.800 
#    1.800    2.000    0.000    1.200    0.000    0.000 
#    0.000    0.000    0.000    0.000    0.000    0.000 
#
# Total GULP energy -669855.943374 kJ/mol
# GULP energy per Si atom -5582.132861 kJ/mol
# Density = 2.069533 g / cm^3
# Si number density = 20.742546 Si / 1000 Ang^3
#
#
#
# Elastic Constant Matrix: (Units=GPa)
#
#
# Indices 1 2 3 4 5 6 
#
# 1 134.7106 43.1317 -0.5602 0.0000 0.0000 0.0000
# 2 43.1317 134.7106 -0.5602 0.0000 0.0000 0.0000
# 3 -0.5602 -0.5602 20.1642 0.0000 0.0000 0.0000
# 4 0.0000 0.0000 0.0000 -9.7464 0.0000 0.0000
# 5 0.0000 0.0000 0.0000 0.0000 -9.7464 0.0000
# 6 0.0000 0.0000 0.0000 0.0000 0.0000 45.7894
#
#
#
# Elastic Compliance Matrix: (Units=1/GPa)
#
#
# Indices 1 2 3 4 5 6 
#
# 1 0.008272 -0.002648 0.000156 0.000000 0.000000 0.000000
# 2 -0.002648 0.008272 0.000156 0.000000 0.000000 0.000000
# 3 0.000156 0.000156 0.049602 0.000000 0.000000 0.000000
# 4 0.000000 0.000000 0.000000 -0.102602 0.000000 0.000000
# 5 0.000000 0.000000 0.000000 0.000000 -0.102602 0.000000
# 6 0.000000 0.000000 0.000000 0.000000 0.000000 0.021839
#
#
# Mechanical properties :
#
#
# Convention : Reuss Voigt Hill
#
# Bulk Modulus (GPa) = 16.26691 41.51198 28.88945
# Shear Modulus (GPa) = -54.31339 21.76427 -16.27456
#
# Velocity S-wave (km/s) = -5.12263 3.24274 -2.80411
# Velocity P-wave (km/s) = 5.20857 5.83754 1.86383
#
# Compressibility (1/GPa) = 0.06147447
#
# Stress axis : x y z
#
# Youngs Moduli (GPa) = 120.89345 120.89345 20.16063
#
# Poissons Ratio (x) = 0.32010 -0.00315
# Poissons Ratio (y) = 0.32010 -0.00315
# Poissons Ratio (z) = -0.01889 -0.01889
#
# Static dielectric constant tensor:
#      x y z
#    x 1.740150 0.000000 0.000000 
#    y 0.000000 1.740150 0.000000 
#    z 0.000000 0.000000 1.726210 
# 
# From -- ./inp_files/5391.got.cif
#   From: 2010.05.17/outbox.cif.g08.bks.cpg/sg193_3_cif.got.tgz:5391.got - 2010.05.20 12:33:02.
