data_PCOD9588037
_publ_section_title
;
Structure prediction by ZEFSAII (Michael W. Deem and Ramdas Pophale) SiO2 
 PCOD9588037
Probable space group: P 6/M M M
;
_chemical_formula_sum "Si O2"
_cell_formula_units_Z 144
_cell_length_a 32.325115
_cell_length_b 32.325115
_cell_length_c 9.109775
_cell_angle_alpha 90.000000
_cell_angle_beta 90.000000
_cell_angle_gamma 120.000000
_cell_volume 8243.629021
_symmetry_space_group_name_H-M "P 6/M M M"
_symmetry_group_IT_number 191
_symmetry_cell_setting 'hexagonal'
loop_
_space_group_symop_operation_xyz
x,y,z
x-y,x,z
-y,x-y,z
-x,-y,z
-x+y,-x,z
y,-x+y,z
x-y,-y,-z
-x,-x+y,-z
y,x,-z
-y,-x,-z
-x+y,y,-z
x,x-y,-z
-x,-y,-z
-x+y,-x,-z
y,-x+y,-z
x,y,-z
x-y,x,-z
-y,x-y,-z
-x+y,y,z
x,x-y,z
-y,-x,z
y,x,z
x-y,-y,z
-x,-x+y,z
loop_
_atom_site_type_symbol
_atom_site_label
_atom_site_fract_x
_atom_site_fract_y
_atom_site_fract_z
Si Si1 0.900306 0.200214 0.831893
Si Si2 0.430269 0.763519 0.675323
Si Si3 0.148431 0.396732 0.328787
Si Si4 0.851760 0.798467 0.324092
Si Si5 0.423057 0.477555 0.327029
Si Si6 0.661990 0.145358 0.174971
O O1 0.849555 0.150446 0.833716
O O2 0.890272 0.236322 0.739425
O O3 0.936146 0.186338 0.755004
O O4 0.913531 0.215785 0.000000
O O5 0.439466 0.771523 0.500000
O O6 0.377044 0.754087 0.701805
O O7 0.434281 0.717141 0.715168
O O8 0.468478 0.810451 0.759807
O O9 0.138675 0.400032 0.500000
O O10 0.199826 0.399652 0.319630
O O11 0.150005 0.439521 0.238179
O O12 0.847176 0.790665 0.500000
O O13 0.904543 0.809086 0.282320
O O14 0.839827 0.839827 0.289108
O O15 0.409963 0.471559 0.500000
O O16 0.471036 0.528965 0.312003
O O17 0.438342 0.438342 0.287718
O O18 0.381516 0.477064 0.232841
O O19 0.662663 0.147008 0.000000
#
# Coordination Sequence:
#
# PCOD9588037 Si02
#       6
#    24  24  24  24  24  24
#     4   9  17  30  49  73 100 128 160 203 254 304
#     4  10  21  38  59  81 107 143 189 237 280 322
#     4  10  20  35  55  76 101 137 178 216 255 303
#     4   9  17  30  49  73 102 138 180 222 263 311
#     4   9  19  38  62  82 100 128 168 212 257 307
#     4  12  24  35  52  81 114 144 174 213 264 321
#
# _framework density 17.468036000000001
#
# number of rings (size 3 to 8) (size 9 to 14) (size 15 to 20)
#    0.000    2.167    0.000    4.167    0.000    9.333 
#    0.000    1.667    0.000    6.167    0.000    1.167 
#    0.000    0.000    0.000    4.167    0.000    4.333 
#
# Total GULP energy -803692.086898 kJ/mol
# GULP energy per Si atom -5581.195048 kJ/mol
# Density = 1.742828 g / cm^3
# Si number density = 17.468036 Si / 1000 Ang^3
#
#
#
# Elastic Constant Matrix: (Units=GPa)
#
#
# Indices 1 2 3 4 5 6 
#
# 1 95.8634 52.7769 62.0617 0.0000 0.0000 0.0000
# 2 52.7769 95.8634 62.0617 0.0000 0.0000 0.0000
# 3 62.0617 62.0617 91.8936 0.0000 0.0000 0.0000
# 4 0.0000 0.0000 0.0000 5.7402 0.0000 0.0000
# 5 0.0000 0.0000 0.0000 0.0000 5.7402 0.0000
# 6 0.0000 0.0000 0.0000 0.0000 0.0000 21.5433
#
#
#
# Elastic Compliance Matrix: (Units=1/GPa)
#
#
# Indices 1 2 3 4 5 6 
#
# 1 0.019319 -0.003890 -0.010420 0.000000 0.000000 0.000000
# 2 -0.003890 0.019319 -0.010420 0.000000 0.000000 0.000000
# 3 -0.010420 -0.010420 0.024957 0.000000 0.000000 0.000000
# 4 0.000000 0.000000 0.000000 0.174210 0.000000 0.000000
# 5 0.000000 0.000000 0.000000 0.000000 0.174210 0.000000
# 6 0.000000 0.000000 0.000000 0.000000 0.000000 0.046418
#
#
# Mechanical properties :
#
#
# Convention : Reuss Voigt Hill
#
# Bulk Modulus (GPa) = 70.75000 70.82458 70.78729
# Shear Modulus (GPa) = 9.75406 13.71941 11.73674
#
# Velocity S-wave (km/s) = 2.36560 2.80554 2.59491
# Velocity P-wave (km/s) = 6.93195 7.15039 7.04201
#
# Compressibility (1/GPa) = 0.01413428
#
# Stress axis : x y z
#
# Youngs Moduli (GPa) = 51.76196 51.76196 40.06842
#
# Poissons Ratio (x) = 0.20135 0.41753
# Poissons Ratio (y) = 0.20135 0.41753
# Poissons Ratio (z) = 0.53938 0.53938
#
# Static dielectric constant tensor:
#      x y z
#    x 1.582250 0.000000 0.000000 
#    y 0.000000 1.582250 0.000000 
#    z 0.000000 0.000000 1.581710 
# 
# From -- ./inp_files/1953.got.cif
#   From: 2010.05.17/outbox.cif.g08.bks.cpg/sg191_1_cif.got.tgz:1953.got - 2010.05.20 12:20:32.
