data_PCOD9588144
_publ_section_title
;
Structure prediction by ZEFSAII (Michael W. Deem and Ramdas Pophale) SiO2 
 PCOD9588144
Probable space group: P 6/M M M
;
_chemical_formula_sum "Si O2"
_cell_formula_units_Z 144
_cell_length_a 32.226617
_cell_length_b 32.226617
_cell_length_c 8.895687
_cell_angle_alpha 90.000000
_cell_angle_beta 90.000000
_cell_angle_gamma 120.000000
_cell_volume 8000.913233
_symmetry_space_group_name_H-M "P 6/M M M"
_symmetry_group_IT_number 191
_symmetry_cell_setting 'hexagonal'
loop_
_space_group_symop_operation_xyz
x,y,z
x-y,x,z
-y,x-y,z
-x,-y,z
-x+y,-x,z
y,-x+y,z
x-y,-y,-z
-x,-x+y,-z
y,x,-z
-y,-x,-z
-x+y,y,-z
x,x-y,-z
-x,-y,-z
-x+y,-x,-z
y,-x+y,-z
x,y,-z
x-y,x,-z
-y,x-y,-z
-x+y,y,z
x,x-y,z
-y,-x,z
y,x,z
x-y,-y,z
-x,-x+y,z
loop_
_atom_site_type_symbol
_atom_site_label
_atom_site_fract_x
_atom_site_fract_y
_atom_site_fract_z
Si Si1 0.756209 0.609479 0.319180
Si Si2 0.147645 0.201486 0.181378
Si Si3 0.423419 0.478171 0.680043
Si Si4 0.238263 0.945778 0.318941
Si Si5 0.666768 0.429820 0.319185
Si Si6 0.480398 0.334432 0.821270
O O1 0.749677 0.603760 0.500000
O O2 0.808835 0.617669 0.285277
O O3 0.751931 0.655472 0.273303
O O4 0.715536 0.562233 0.240808
O O5 0.095745 0.191489 0.230012
O O6 0.161611 0.161611 0.225350
O O7 0.188972 0.251366 0.248394
O O8 0.149869 0.205010 0.000000
O O9 0.415285 0.474719 0.500000
O O10 0.469523 0.530478 0.709803
O O11 0.439604 0.439604 0.721547
O O12 0.377267 0.472687 0.762155
O O13 0.233495 0.943782 0.500000
O O14 0.278860 0.000000 0.278436
O O15 0.667596 0.436050 0.500000
O O16 0.717225 0.434450 0.274719
O O17 0.622784 0.377217 0.284388
O O18 0.658860 0.470041 0.242875
O O19 0.481182 0.334292 0.000000
#
# Coordination Sequence:
#
# PCOD9588144 Si02
#       6
#    24  24  24  24  24  24
#     4  10  21  37  55  74 101 141 185 222 256 302
#     4   9  17  29  46  69  98 132 168 207 254 307
#     4   9  19  38  63  86 107 137 179 222 263 310
#     4   9  18  33  54  79 103 127 162 212 264 310
#     4  10  21  39  63  87 110 139 179 225 269 314
#     4  12  25  37  53  81 115 147 178 215 263 318
#
# _framework density 17.997945999999999
#
# number of rings (size 3 to 8) (size 9 to 14) (size 15 to 20)
#    0.000    2.167    0.000    3.667    0.000    8.667 
#    0.000    2.500    0.000    1.167    0.000    1.167 
#    0.000    0.000    0.000    4.167    0.000    4.333 
#
# Total GULP energy -804009.611125 kJ/mol
# GULP energy per Si atom -5583.400077 kJ/mol
# Density = 1.795698 g / cm^3
# Si number density = 17.997946 Si / 1000 Ang^3
#
#
#
# Elastic Constant Matrix: (Units=GPa)
#
#
# Indices 1 2 3 4 5 6 
#
# 1 103.1561 48.7267 37.3094 0.0000 0.0000 0.0000
# 2 48.7267 103.1561 37.3094 0.0000 0.0000 0.0000
# 3 37.3094 37.3094 22.5117 0.0000 0.0000 0.0000
# 4 0.0000 0.0000 0.0000 7.3465 0.0000 0.0000
# 5 0.0000 0.0000 0.0000 0.0000 7.3465 0.0000
# 6 0.0000 0.0000 0.0000 0.0000 0.0000 27.2147
#
#
#
# Elastic Compliance Matrix: (Units=1/GPa)
#
#
# Indices 1 2 3 4 5 6 
#
# 1 0.026908 0.008535 -0.058740 0.000000 0.000000 0.000000
# 2 0.008535 0.026908 -0.058740 0.000000 0.000000 0.000000
# 3 -0.058740 -0.058740 0.239125 0.000000 0.000000 0.000000
# 4 0.000000 0.000000 0.000000 0.136120 0.000000 0.000000
# 5 0.000000 0.000000 0.000000 0.000000 0.136120 0.000000
# 6 0.000000 0.000000 0.000000 0.000000 0.000000 0.036745
#
#
# Mechanical properties :
#
#
# Convention : Reuss Voigt Hill
#
# Bulk Modulus (GPa) = 13.32450 52.83500 33.07975
# Shear Modulus (GPa) = 5.91834 15.41343 10.66588
#
# Velocity S-wave (km/s) = 1.81535 2.92960 2.43701
# Velocity P-wave (km/s) = 3.43706 6.39244 5.13209
#
# Compressibility (1/GPa) = 0.07504974
#
# Stress axis : x y z
#
# Youngs Moduli (GPa) = 37.16434 37.16434 4.18191
#
# Poissons Ratio (x) = -0.31720 0.24565
# Poissons Ratio (y) = -0.31720 0.24565
# Poissons Ratio (z) = 2.18304 2.18304
#
# Static dielectric constant tensor:
#      x y z
#    x 1.601120 0.000000 0.000000 
#    y 0.000000 1.601120 0.000000 
#    z 0.000000 0.000000 1.597910 
# 
# From -- ./inp_files/1930.got.cif
#   From: 2010.05.17/outbox.cif.g08.bks.cpg/sg191_1_cif.got.tgz:1930.got - 2010.05.20 12:20:32.
