data_PCOD9588141
_publ_section_title
;
Structure prediction by ZEFSAII (Michael W. Deem and Ramdas Pophale) SiO2 
 PCOD9588141
Probable space group: P 6/M M M
;
_chemical_formula_sum "Si O2"
_cell_formula_units_Z 120
_cell_length_a 28.264670
_cell_length_b 28.264670
_cell_length_c 11.514187
_cell_angle_alpha 90.000000
_cell_angle_beta 90.000000
_cell_angle_gamma 120.000000
_cell_volume 7966.209962
_symmetry_space_group_name_H-M "P 6/M M M"
_symmetry_group_IT_number 191
_symmetry_cell_setting 'hexagonal'
loop_
_space_group_symop_operation_xyz
x,y,z
x-y,x,z
-y,x-y,z
-x,-y,z
-x+y,-x,z
y,-x+y,z
x-y,-y,-z
-x,-x+y,-z
y,x,-z
-y,-x,-z
-x+y,y,-z
x,x-y,-z
-x,-y,-z
-x+y,-x,-z
y,-x+y,-z
x,y,-z
x-y,x,-z
-y,x-y,-z
-x+y,y,z
x,x-y,z
-y,-x,z
y,x,z
x-y,-y,z
-x,-x+y,z
loop_
_atom_site_type_symbol
_atom_site_label
_atom_site_fract_x
_atom_site_fract_y
_atom_site_fract_z
Si Si1 0.501948 0.894706 0.747058
Si Si2 0.064392 0.608605 0.000000
Si Si3 0.394562 0.000000 0.638746
Si Si4 0.064297 0.722590 0.000000
Si Si5 0.170259 0.450935 0.636807
Si Si6 0.283979 0.000000 0.638710
Si Si7 0.668236 0.889464 0.245287
O O1 0.444697 0.889394 0.713393
O O2 0.552337 0.947190 0.686689
O O3 0.509049 0.844537 0.705289
O O4 0.511655 0.906580 0.884020
O O5 0.066805 0.666852 0.000000
O O6 0.000000 0.562858 0.000000
O O7 0.339619 0.000000 0.677464
O O8 0.395113 0.000000 0.500000
O O9 0.093658 0.756420 0.114961
O O10 0.000000 0.703535 0.000000
O O11 0.157126 0.449408 0.500000
O O12 0.232828 0.465655 0.647628
O O13 0.134172 0.390250 0.690020
O O14 0.289701 0.055285 0.688951
O O15 0.282937 0.000000 0.500000
O O16 0.682327 0.841164 0.247273
#
# Coordination Sequence:
#
# PCOD9588141 Si02
#       7
#    24  12  12  12  24  12  24
#     4  12  23  35  52  74 101 133 170 209 255 315
#     4  11  21  35  50  70 106 145 172 202 252 306
#     4  11  21  33  47  72 106 137 166 205 255 305
#     4  11  19  34  55  72 102 143 175 215 259 293
#     4  10  21  37  54  73  99 128 162 209 260 309
#     4  11  20  34  53  73 108 145 172 210 255 299
#     4  11  21  34  53  77 102 136 178 214 250 297
#
# _framework density 15.063625
#
# number of rings (size 3 to 8) (size 9 to 14) (size 15 to 20)
#    0.000    1.000    6.000    2.100    0.000    3.600 
#    0.000    0.500    0.000    0.400    0.000    0.000 
#    0.000    0.000    0.000    0.300    0.000    2.600 
#
# Total GULP energy -670465.672766 kJ/mol
# GULP energy per Si atom -5587.213940 kJ/mol
# Density = 1.502934 g / cm^3
# Si number density = 15.063625 Si / 1000 Ang^3
#
#
#
# Elastic Constant Matrix: (Units=GPa)
#
#
# Indices 1 2 3 4 5 6 
#
# 1 82.6148 50.2077 35.3885 0.0000 0.0000 0.0000
# 2 50.2077 82.6148 35.3885 0.0000 0.0000 0.0000
# 3 35.3885 35.3885 95.2632 0.0000 0.0000 0.0000
# 4 0.0000 0.0000 0.0000 44.4348 0.0000 0.0000
# 5 0.0000 0.0000 0.0000 0.0000 44.4348 0.0000
# 6 0.0000 0.0000 0.0000 0.0000 0.0000 16.2035
#
#
#
# Elastic Compliance Matrix: (Units=1/GPa)
#
#
# Indices 1 2 3 4 5 6 
#
# 1 0.020122 -0.010735 -0.003487 0.000000 0.000000 0.000000
# 2 -0.010735 0.020122 -0.003487 0.000000 0.000000 0.000000
# 3 -0.003487 -0.003487 0.013088 0.000000 0.000000 0.000000
# 4 0.000000 0.000000 0.000000 0.022505 0.000000 0.000000
# 5 0.000000 0.000000 0.000000 0.000000 0.022505 0.000000
# 6 0.000000 0.000000 0.000000 0.000000 0.000000 0.061715
#
#
# Mechanical properties :
#
#
# Convention : Reuss Voigt Hill
#
# Bulk Modulus (GPa) = 55.82338 55.82914 55.82626
# Shear Modulus (GPa) = 24.82041 30.31519 27.56780
#
# Velocity S-wave (km/s) = 4.06360 4.49093 4.28260
# Velocity P-wave (km/s) = 7.69129 8.00212 7.84824
#
# Compressibility (1/GPa) = 0.01791364
#
# Stress axis : x y z
#
# Youngs Moduli (GPa) = 49.69628 49.69628 76.40576
#
# Poissons Ratio (x) = 0.53350 0.26643
# Poissons Ratio (y) = 0.53350 0.26643
# Poissons Ratio (z) = 0.17330 0.17330
#
# Static dielectric constant tensor:
#      x y z
#    x 1.492740 0.000000 0.000000 
#    y 0.000000 1.492740 0.000000 
#    z 0.000000 0.000000 1.510940 
# 
# From -- ./inp_files/3288.got.cif
#   From: 2010.05.17/outbox.cif.g08.bks.cpg/sg191_2_cif.got.tgz:3288.got - 2010.05.20 12:20:32.
