data_PCOD9588761
_publ_section_title
;
Structure prediction by ZEFSAII (Michael W. Deem and Ramdas Pophale) SiO2 
 PCOD9588761
Probable space group: P 6/M C C
;
_chemical_formula_sum "Si O2"
_cell_formula_units_Z 116
_cell_length_a 14.383808
_cell_length_b 14.383808
_cell_length_c 27.549550
_cell_angle_alpha 90.000000
_cell_angle_beta 90.000000
_cell_angle_gamma 120.000000
_cell_volume 4936.201683
_symmetry_space_group_name_H-M "P 6/M C C"
_symmetry_group_IT_number 192
_symmetry_cell_setting 'hexagonal'
loop_
_space_group_symop_operation_xyz
x,y,z
x-y,x,z
-y,x-y,z
-x,-y,z
-x+y,-x,z
y,-x+y,z
x-y,-y,1/2-z
-x,-x+y,1/2-z
y,x,1/2-z
-y,-x,1/2-z
-x+y,y,1/2-z
x,x-y,1/2-z
-x,-y,-z
-x+y,-x,-z
y,-x+y,-z
x,y,-z
x-y,x,-z
-y,x-y,-z
-x+y,y,1/2+z
x,x-y,1/2+z
-y,-x,1/2+z
y,x,1/2+z
x-y,-y,1/2+z
-x,-x+y,1/2+z
loop_
_atom_site_type_symbol
_atom_site_label
_atom_site_fract_x
_atom_site_fract_y
_atom_site_fract_z
Si Si1 0.770922 0.960722 0.941188
Si Si2 0.333334 0.666667 0.308698
Si Si3 0.050140 0.625110 0.557587
Si Si4 0.727192 0.625273 0.783003
Si Si5 0.500000 0.500000 0.685085
Si Si6 0.267952 0.442886 0.644280
O O1 0.662864 0.963957 0.931119
O O2 0.866173 0.076178 0.923798
O O3 0.776279 0.957345 0.000000
O O4 0.333334 0.666667 0.250000
O O5 0.268793 0.718320 0.333397
O O6 0.071541 0.636280 0.500000
O O7 0.156351 0.708662 0.587030
O O8 0.000000 0.500000 0.570399
O O9 0.712298 0.712298 0.750000
O O10 0.796950 0.593900 0.750000
O O11 0.607860 0.525361 0.787862
O O12 0.795091 0.644417 0.833547
O O13 0.379452 0.447199 0.661461
#
# Coordination Sequence:
#
# PCOD9588761 Si02
#       6
#    24   8  24  24  12  24
#     4   9  18  35  64  99 137 186 251 323 391 459
#     4  12  27  42  67 107 139 186 249 327 400 482
#     4  10  23  44  70 103 150 212 273 329 396 481
#     4  12  26  42  70 110 151 193 249 332 414 493
#     4  12  25  42  75 112 150 198 267 330 409 492
#     4  12  25  43  71 106 152 199 256 328 402 485
#
# _framework density 23.499849999999999
#
# number of rings (size 3 to 8) (size 9 to 14) (size 15 to 20)
#    0.000    1.034    5.172    1.138    0.000    4.138 
#    0.000    3.103    0.000    1.034    0.000    5.793 
#    0.000    0.000    0.000    0.000    0.000    0.000 
#
# Total GULP energy -645841.052843 kJ/mol
# GULP energy per Si atom -5567.595283 kJ/mol
# Density = 2.344636 g / cm^3
# Si number density = 23.499850 Si / 1000 Ang^3
#
#
#
# Elastic Constant Matrix: (Units=GPa)
#
#
# Indices 1 2 3 4 5 6 
#
# 1 137.0320 61.2330 38.0043 0.0001 0.0000 0.0000
# 2 61.2330 137.0320 38.0039 0.0000 0.0001 0.0001
# 3 38.0043 38.0039 114.2842 0.0000 0.0000 -0.0001
# 4 0.0001 0.0000 0.0000 33.6374 -0.0001 0.0000
# 5 0.0000 0.0001 0.0000 -0.0001 33.6377 0.0000
# 6 0.0000 0.0001 -0.0001 0.0000 0.0000 37.8996
#
#
#
# Elastic Compliance Matrix: (Units=1/GPa)
#
#
# Indices 1 2 3 4 5 6 
#
# 1 0.009487 -0.003706 -0.001922 0.000000 0.000000 0.000000
# 2 -0.003706 0.009487 -0.001922 0.000000 0.000000 0.000000
# 3 -0.001922 -0.001922 0.010029 0.000000 0.000000 0.000000
# 4 0.000000 0.000000 0.000000 0.029729 0.000000 0.000000
# 5 0.000000 0.000000 0.000000 0.000000 0.029729 0.000000
# 6 0.000000 0.000000 0.000000 0.000000 0.000000 0.026386
#
#
# Mechanical properties :
#
#
# Convention : Reuss Voigt Hill
#
# Bulk Modulus (GPa) = 71.93856 73.64786 72.79321
# Shear Modulus (GPa) = 37.15264 37.77540 37.46402
#
# Velocity S-wave (km/s) = 3.98046 4.01368 3.99710
# Velocity P-wave (km/s) = 7.19751 7.27236 7.23504
#
# Compressibility (1/GPa) = 0.01390075
#
# Stress axis : x y z
#
# Youngs Moduli (GPa) = 105.41013 105.41027 99.71467
#
# Poissons Ratio (x) = 0.39065 0.19169
# Poissons Ratio (y) = 0.39065 0.19168
# Poissons Ratio (z) = 0.20263 0.20263
#
# Static dielectric constant tensor:
#      x y z
#    x 1.953300 0.000000 0.000000 
#    y 0.000000 1.953300 0.000000 
#    z 0.000000 0.000000 2.124780 
# 
# From -- ./inp_files/6998.got.cif
#   From: 2010.05.17/outbox.cif.g08.bks.cpg/sg192_4_cif.got.tgz:6998.got - 2010.05.20 12:28:01.
