data_PCOD9588659
_publ_section_title
;
Structure prediction by ZEFSAII (Michael W. Deem and Ramdas Pophale) SiO2 
 PCOD9588659
Probable space group: P 6/M C C
;
_chemical_formula_sum "Si O2"
_cell_formula_units_Z 132
_cell_length_a 17.770861
_cell_length_b 17.770861
_cell_length_c 23.971240
_cell_angle_alpha 90.000000
_cell_angle_beta 90.000000
_cell_angle_gamma 120.000000
_cell_volume 6555.986817
_symmetry_space_group_name_H-M "P 6/M C C"
_symmetry_group_IT_number 192
_symmetry_cell_setting 'hexagonal'
loop_
_space_group_symop_operation_xyz
x,y,z
x-y,x,z
-y,x-y,z
-x,-y,z
-x+y,-x,z
y,-x+y,z
x-y,-y,1/2-z
-x,-x+y,1/2-z
y,x,1/2-z
-y,-x,1/2-z
-x+y,y,1/2-z
x,x-y,1/2-z
-x,-y,-z
-x+y,-x,-z
y,-x+y,-z
x,y,-z
x-y,x,-z
-y,x-y,-z
-x+y,y,1/2+z
x,x-y,1/2+z
-y,-x,1/2+z
y,x,1/2+z
x-y,-y,1/2+z
-x,-x+y,1/2+z
loop_
_atom_site_type_symbol
_atom_site_label
_atom_site_fract_x
_atom_site_fract_y
_atom_site_fract_z
Si Si1 0.103573 0.354057 0.689246
Si Si2 0.402617 0.535497 0.000000
Si Si3 0.507848 0.175027 0.273181
Si Si4 0.817239 0.000000 0.750000
Si Si5 0.737134 0.524899 0.500000
Si Si6 0.405808 0.970155 0.390248
Si Si7 0.735553 0.147343 0.118702
O O1 0.123639 0.410630 0.746252
O O2 0.027752 0.256465 0.701339
O O3 0.181974 0.350503 0.657330
O O4 0.090604 0.418652 0.649369
O O5 0.314809 0.539717 0.000000
O O6 0.480234 0.633390 0.000000
O O7 0.405202 0.482992 0.946589
O O8 0.571159 0.142318 0.250000
O O9 0.543597 0.271799 0.250000
O O10 0.495137 0.176982 0.339751
O O11 0.913125 0.086876 0.750000
O O12 0.767606 0.574418 0.441074
O O13 0.388913 0.050477 0.396739
O O14 0.500000 0.000000 0.364169
#
# Coordination Sequence:
#
# PCOD9588659 Si02
#       7
#    24  12  24  12  12  24  24
#     4  11  23  41  64  96 136 168 216 277 342 409
#     4  12  25  43  62  91 130 179 233 287 329 392
#     4  10  21  36  58  91 133 183 225 268 316 379
#     4  12  25  46  71  98 128 164 210 272 359 444
#     4  12  24  42  61  90 129 180 236 286 340 381
#     4  12  22  38  65  90 127 179 223 272 325 393
#     4  11  23  40  61  90 130 172 226 281 334 397
#
# _framework density 20.134267999999999
#
# number of rings (size 3 to 8) (size 9 to 14) (size 15 to 20)
#    0.000    0.727    3.636    6.182    0.000    0.000 
#    0.000    1.818    0.000    0.000    0.000    0.000 
#    0.000    0.000    0.000   17.455    0.000    0.000 
#
# Total GULP energy -735157.240640 kJ/mol
# GULP energy per Si atom -5569.373035 kJ/mol
# Density = 2.008844 g / cm^3
# Si number density = 20.134268 Si / 1000 Ang^3
#
#
#
# Elastic Constant Matrix: (Units=GPa)
#
#
# Indices 1 2 3 4 5 6 
#
# 1 105.9684 30.1818 35.1089 0.0000 0.0000 0.0000
# 2 30.1818 105.9684 35.1089 0.0000 0.0000 0.0000
# 3 35.1089 35.1089 129.8689 0.0000 0.0000 0.0000
# 4 0.0000 0.0000 0.0000 24.2950 0.0000 0.0000
# 5 0.0000 0.0000 0.0000 0.0000 24.2950 0.0000
# 6 0.0000 0.0000 0.0000 0.0000 0.0000 37.8933
#
#
#
# Elastic Compliance Matrix: (Units=1/GPa)
#
#
# Indices 1 2 3 4 5 6 
#
# 1 0.010865 -0.002330 -0.002307 0.000000 0.000000 0.000000
# 2 -0.002330 0.010865 -0.002307 0.000000 0.000000 0.000000
# 3 -0.002307 -0.002307 0.008948 0.000000 0.000000 0.000000
# 4 0.000000 0.000000 0.000000 0.041161 0.000000 0.000000
# 5 0.000000 0.000000 0.000000 0.000000 0.041161 0.000000
# 6 0.000000 0.000000 0.000000 0.000000 0.000000 0.026390
#
#
# Mechanical properties :
#
#
# Convention : Reuss Voigt Hill
#
# Bulk Modulus (GPa) = 59.56650 60.28943 59.92796
# Shear Modulus (GPa) = 31.47145 33.39039 32.43092
#
# Velocity S-wave (km/s) = 3.95787 4.07675 4.01775
# Velocity P-wave (km/s) = 7.10881 7.22278 7.16602
#
# Compressibility (1/GPa) = 0.01678796
#
# Stress axis : x y z
#
# Youngs Moduli (GPa) = 92.03975 92.03975 111.76195
#
# Poissons Ratio (x) = 0.21446 0.25787
# Poissons Ratio (y) = 0.21446 0.25787
# Poissons Ratio (z) = 0.21236 0.21236
#
# Static dielectric constant tensor:
#      x y z
#    x 1.773120 0.000000 0.000000 
#    y 0.000000 1.773120 0.000000 
#    z 0.000000 0.000000 1.758570 
# 
# From -- ./inp_files/5882.got.cif
#   From: 2010.05.17/outbox.cif.g08.bks.cpg/sg192_3_cif.got.tgz:5882.got - 2010.05.20 12:28:01.
