data_PCOD9588313
_publ_section_title
;
Structure prediction by ZEFSAII (Michael W. Deem and Ramdas Pophale) SiO2 
 PCOD9588313
Probable space group: P 6/M C C
;
_chemical_formula_sum "Si O2"
_cell_formula_units_Z 144
_cell_length_a 23.065063
_cell_length_b 23.065063
_cell_length_c 14.145090
_cell_angle_alpha 90.000000
_cell_angle_beta 90.000000
_cell_angle_gamma 120.000000
_cell_volume 6516.968729
_symmetry_space_group_name_H-M "P 6/M C C"
_symmetry_group_IT_number 192
_symmetry_cell_setting 'hexagonal'
loop_
_space_group_symop_operation_xyz
x,y,z
x-y,x,z
-y,x-y,z
-x,-y,z
-x+y,-x,z
y,-x+y,z
x-y,-y,1/2-z
-x,-x+y,1/2-z
y,x,1/2-z
-y,-x,1/2-z
-x+y,y,1/2-z
x,x-y,1/2-z
-x,-y,-z
-x+y,-x,-z
y,-x+y,-z
x,y,-z
x-y,x,-z
-y,x-y,-z
-x+y,y,1/2+z
x,x-y,1/2+z
-y,-x,1/2+z
y,x,1/2+z
x-y,-y,1/2+z
-x,-x+y,1/2+z
loop_
_atom_site_type_symbol
_atom_site_label
_atom_site_fract_x
_atom_site_fract_y
_atom_site_fract_z
Si Si1 0.358448 0.545759 0.615416
Si Si2 0.785606 0.474475 0.614870
Si Si3 0.992050 0.128365 0.361845
Si Si4 0.779659 0.621724 0.115291
Si Si5 0.601575 0.699409 0.884439
Si Si6 0.984503 0.258049 0.887677
O O1 0.359687 0.546505 0.500000
O O2 0.289535 0.544029 0.642691
O O3 0.421996 0.614659 0.647248
O O4 0.351350 0.474927 0.644698
O O5 0.784687 0.472809 0.500000
O O6 0.835439 0.551076 0.642538
O O7 0.061871 0.135527 0.397560
O O8 0.986573 0.194639 0.376081
O O9 0.000000 0.124539 0.250000
O O10 0.844090 0.617550 0.144243
O O11 0.776018 0.685234 0.150477
O O12 0.782075 0.623857 0.000000
O O13 0.666151 0.695973 0.852599
O O14 0.600926 0.697430 0.000000
O O15 0.979916 0.264272 0.000000
#
# Coordination Sequence:
#
# PCOD9588313 Si02
#       6
#    24  24  24  24  24  24
#     4   8  12  18  29  46  71 105 142 176 211 252
#     4   8  12  18  29  46  71 105 142 176 211 252
#     4  10  21  36  52  69  89 111 135 168 210 248
#     4   8  14  23  34  51  76 104 136 175 212 243
#     4   8  14  23  34  51  76 104 136 175 212 243
#     4  10  18  29  46  65  86 116 147 168 196 246
#
# _framework density 22.096164000000002
#
# number of rings (size 3 to 8) (size 9 to 14) (size 15 to 20)
#    0.000    3.333    0.000    3.500    0.000    4.000 
#    0.000    0.833    0.000    6.000    0.000    0.000 
#    0.000    2.667    0.000    1.000    0.000   10.667 
#
# Total GULP energy -803664.161425 kJ/mol
# GULP energy per Si atom -5581.001121 kJ/mol
# Density = 2.204587 g / cm^3
# Si number density = 22.096164 Si / 1000 Ang^3
#
#
#
# Elastic Constant Matrix: (Units=GPa)
#
#
# Indices 1 2 3 4 5 6 
#
# 1 81.1777 18.5421 -12.3173 0.0000 0.0000 0.0000
# 2 18.5421 81.1777 -12.3173 0.0000 0.0000 0.0000
# 3 -12.3173 -12.3173 75.5094 0.0000 0.0000 0.0000
# 4 0.0000 0.0000 0.0000 8.0535 0.0000 0.0000
# 5 0.0000 0.0000 0.0000 0.0000 8.0535 0.0000
# 6 0.0000 0.0000 0.0000 0.0000 0.0000 31.3178
#
#
#
# Elastic Compliance Matrix: (Units=1/GPa)
#
#
# Indices 1 2 3 4 5 6 
#
# 1 0.013207 -0.002758 0.001704 0.000000 0.000000 0.000000
# 2 -0.002758 0.013207 0.001704 0.000000 0.000000 0.000000
# 3 0.001704 0.001704 0.013799 0.000000 0.000000 0.000000
# 4 0.000000 0.000000 0.000000 0.124170 0.000000 0.000000
# 5 0.000000 0.000000 0.000000 0.000000 0.124170 0.000000
# 6 0.000000 0.000000 0.000000 0.000000 0.000000 0.031931
#
#
# Mechanical properties :
#
#
# Convention : Reuss Voigt Hill
#
# Bulk Modulus (GPa) = 24.08723 25.07555 24.58139
# Shear Modulus (GPa) = 15.01406 25.74878 20.38142
#
# Velocity S-wave (km/s) = 2.60953 3.41736 3.04039
# Velocity P-wave (km/s) = 4.47261 5.19077 4.84502
#
# Compressibility (1/GPa) = 0.04151578
#
# Stress axis : x y z
#
# Youngs Moduli (GPa) = 75.71591 75.71591 72.46661
#
# Poissons Ratio (x) = 0.20883 -0.12352
# Poissons Ratio (y) = 0.20883 -0.12352
# Poissons Ratio (z) = -0.12906 -0.12906
#
# Static dielectric constant tensor:
#      x y z
#    x 1.785170 0.000000 0.000000 
#    y 0.000000 1.785170 0.000000 
#    z 0.000000 0.000000 1.918830 
# 
# From -- ./inp_files/4310.got.cif
#   From: 2010.05.17/outbox.cif.g08.bks.cpg/sg192_3_cif.got.tgz:4310.got - 2010.05.20 12:28:01.
