data_PCOD9588122
_publ_section_title
;
Structure prediction by ZEFSAII (Michael W. Deem and Ramdas Pophale) SiO2 
 PCOD9588122
Probable space group: P 6/M M M
;
_chemical_formula_sum "Si O2"
_cell_formula_units_Z 132
_cell_length_a 25.511889
_cell_length_b 25.511889
_cell_length_c 14.559467
_cell_angle_alpha 90.000000
_cell_angle_beta 90.000000
_cell_angle_gamma 120.000000
_cell_volume 8206.563635
_symmetry_space_group_name_H-M "P 6/M M M"
_symmetry_group_IT_number 191
_symmetry_cell_setting 'hexagonal'
loop_
_space_group_symop_operation_xyz
x,y,z
x-y,x,z
-y,x-y,z
-x,-y,z
-x+y,-x,z
y,-x+y,z
x-y,-y,-z
-x,-x+y,-z
y,x,-z
-y,-x,-z
-x+y,y,-z
x,x-y,-z
-x,-y,-z
-x+y,-x,-z
y,-x+y,-z
x,y,-z
x-y,x,-z
-y,x-y,-z
-x+y,y,z
x,x-y,z
-y,-x,z
y,x,z
x-y,-y,z
-x,-x+y,z
loop_
_atom_site_type_symbol
_atom_site_label
_atom_site_fract_x
_atom_site_fract_y
_atom_site_fract_z
Si Si1 0.071017 0.928984 0.109657
Si Si2 0.928983 0.071018 0.609657
Si Si3 0.562474 0.718383 0.892916
Si Si4 0.124925 0.875076 0.249998
Si Si5 0.340183 0.268239 0.750004
Si Si6 0.718386 0.562481 0.607085
Si Si7 0.457742 0.791089 0.749995
O O1 0.102506 0.897495 0.163014
O O2 0.000000 0.896037 0.133333
O O3 0.075705 0.924296 0.000000
O O4 0.924294 0.075707 0.500000
O O5 0.897495 0.102506 0.663018
O O6 0.000000 0.103963 0.633330
O O7 0.572975 0.786488 0.884948
O O8 0.616371 0.717397 0.838184
O O9 0.500259 0.676822 0.838236
O O10 0.559524 0.703370 0.000000
O O11 0.094670 0.802962 0.249997
O O12 0.306555 0.306555 0.750008
O O13 0.383626 0.282603 0.661821
O O14 0.703377 0.559534 0.500000
O O15 0.786492 0.572984 0.615057
O O16 0.676825 0.500263 0.661758
O O17 0.397107 0.794213 0.749992
O O18 0.443828 0.721914 0.749994
#
# Coordination Sequence:
#
# PCOD9588122 Si02
#       7
#    12  12  24  12  24  24  24
#     4  10  21  36  52  70  96 132 170 208 260 332
#     4  10  21  36  52  70  96 132 170 208 260 332
#     4   9  18  35  54  73 103 142 179 212 251 302
#     4  12  22  36  51  76 104 126 160 222 284 326
#     4  11  21  34  54  76  99 130 171 220 270 317
#     4   9  18  35  54  73 103 142 179 212 251 302
#     4   9  17  30  52  85 118 146 170 202 244 294
#
# _framework density 16.084685
#
# number of rings (size 3 to 8) (size 9 to 14) (size 15 to 20)
#    0.000    2.182    1.818    3.091    0.000    3.636 
#    0.000    0.909    0.000   10.909    0.000   10.182 
#    0.000    0.000    0.000    0.000    0.000    0.000 
#
# Total GULP energy -736510.926206 kJ/mol
# GULP energy per Si atom -5579.628229 kJ/mol
# Density = 1.604808 g / cm^3
# Si number density = 16.084685 Si / 1000 Ang^3
#
#
#
# Elastic Constant Matrix: (Units=GPa)
#
#
# Indices 1 2 3 4 5 6 
#
# 1 142.3475 83.6499 74.4702 0.0000 0.0000 0.0000
# 2 83.6499 142.3475 74.4702 0.0000 0.0000 0.0000
# 3 74.4702 74.4702 150.8821 0.0000 0.0000 0.0000
# 4 0.0000 0.0000 0.0000 9.4932 0.0000 0.0000
# 5 0.0000 0.0000 0.0000 0.0000 9.4932 0.0000
# 6 0.0000 0.0000 0.0000 0.0000 0.0000 29.3488
#
#
#
# Elastic Compliance Matrix: (Units=1/GPa)
#
#
# Indices 1 2 3 4 5 6 
#
# 1 0.011797 -0.005239 -0.003237 0.000000 0.000000 0.000000
# 2 -0.005239 0.011797 -0.003237 0.000000 0.000000 0.000000
# 3 -0.003237 -0.003237 0.009823 0.000000 0.000000 0.000000
# 4 0.000000 0.000000 0.000000 0.105339 0.000000 0.000000
# 5 0.000000 0.000000 0.000000 0.000000 0.105339 0.000000
# 6 0.000000 0.000000 0.000000 0.000000 0.000000 0.034073
#
#
# Mechanical properties :
#
#
# Convention : Reuss Voigt Hill
#
# Bulk Modulus (GPa) = 100.08381 100.08421 100.08401
# Shear Modulus (GPa) = 16.39755 23.19948 19.79852
#
# Velocity S-wave (km/s) = 3.19635 3.80193 3.51221
# Velocity P-wave (km/s) = 8.71667 9.03500 8.87726
#
# Compressibility (1/GPa) = 0.00999163
#
# Stress axis : x y z
#
# Youngs Moduli (GPa) = 84.76560 84.76560 101.80350
#
# Poissons Ratio (x) = 0.44411 0.32952
# Poissons Ratio (y) = 0.44411 0.32952
# Poissons Ratio (z) = 0.27437 0.27437
#
# Static dielectric constant tensor:
#      x y z
#    x 1.511930 0.000000 0.000000 
#    y 0.000000 1.511930 0.000000 
#    z 0.000000 0.000000 1.546280 
# 
# From -- ./inp_files/5025.got.cif
#   From: 2010.05.17/outbox.cif.g08.bks.cpg/sg191_3_cif.got.tgz:5025.got - 2010.05.20 12:20:32.
