data_PCOD9588953
_publ_section_title
;
Structure prediction by ZEFSAII (Michael W. Deem and Ramdas Pophale) SiO2 
 PCOD9588953
Probable space group: P 63/M C M
;
_chemical_formula_sum "Si O2"
_cell_formula_units_Z 64
_cell_length_a 13.380983
_cell_length_b 13.380983
_cell_length_c 19.959781
_cell_angle_alpha 90.000000
_cell_angle_beta 90.000000
_cell_angle_gamma 120.000000
_cell_volume 3095.012743
_symmetry_space_group_name_H-M "P 63/M C M"
_symmetry_group_IT_number 193
_symmetry_cell_setting 'hexagonal'
loop_
_space_group_symop_operation_xyz
x,y,z
x-y,x,1/2+z
-y,x-y,z
-x,-y,1/2+z
-x+y,-x,z
y,-x+y,1/2+z
x-y,-y,1/2-z
-x,-x+y,1/2-z
y,x,1/2-z
-y,-x,-z
-x+y,y,-z
x,x-y,-z
-x,-y,-z
-x+y,-x,1/2-z
y,-x+y,-z
x,y,1/2-z
x-y,x,-z
-y,x-y,1/2-z
-x+y,y,1/2+z
x,x-y,1/2+z
-y,-x,1/2+z
y,x,z
x-y,-y,z
-x,-x+y,z
loop_
_atom_site_type_symbol
_atom_site_label
_atom_site_fract_x
_atom_site_fract_y
_atom_site_fract_z
Si Si1 0.328810 0.465171 0.464239
Si Si2 0.254759 0.393474 0.176035
Si Si3 0.804765 0.804765 0.172290
Si Si4 0.000000 0.000000 0.581637
O O1 0.416050 0.583951 0.500000
O O2 0.206543 0.413085 0.500000
O O3 0.382213 0.382213 0.471832
O O4 0.313223 0.478063 0.385689
O O5 0.279858 0.446369 0.250000
O O6 0.304094 0.304094 0.174424
O O7 0.117355 0.316802 0.166174
O O8 0.845167 0.845167 0.250000
O O9 0.890157 0.890157 0.115857
O O10 0.000000 0.000000 0.500000
#
# Coordination Sequence:
#
# PCOD9588953 Si02
#       4
#    24  24  12   4
#     4  10  22  40  62  87 120 161 203 256 318 374
#     4   9  18  33  55  81 115 159 204 250 303 369
#     4  10  18  32  50  74 116 167 209 251 308 374
#     4  12  22  26  40  78 118 161 217 255 295 374
#
# _framework density 20.678428
#
# number of rings (size 3 to 8) (size 9 to 14) (size 15 to 20)
#    0.000    2.250    1.875    0.938    2.625    1.500 
#    0.000    1.875    0.000    2.625    0.000    0.000 
#    0.000    0.000    0.000    0.000    0.000    0.000 
#
# Total GULP energy -357228.592280 kJ/mol
# GULP energy per Si atom -5581.696754 kJ/mol
# Density = 2.063136 g / cm^3
# Si number density = 20.678428 Si / 1000 Ang^3
#
#
#
# Elastic Constant Matrix: (Units=GPa)
#
#
# Indices 1 2 3 4 5 6 
#
# 1 43.8703 25.5796 64.4553 0.0000 0.0000 0.0000
# 2 25.5796 43.8703 64.4553 0.0000 0.0000 0.0000
# 3 64.4553 64.4553 210.1164 0.0000 0.0000 0.0000
# 4 0.0000 0.0000 0.0000 25.7371 0.0000 0.0000
# 5 0.0000 0.0000 0.0000 0.0000 25.7371 0.0000
# 6 0.0000 0.0000 0.0000 0.0000 0.0000 9.1453
#
#
#
# Elastic Compliance Matrix: (Units=1/GPa)
#
#
# Indices 1 2 3 4 5 6 
#
# 1 0.044056 -0.010617 -0.010258 0.000000 0.000000 0.000000
# 2 -0.010617 0.044056 -0.010258 0.000000 0.000000 0.000000
# 3 -0.010258 -0.010258 0.011053 0.000000 0.000000 0.000000
# 4 0.000000 0.000000 0.000000 0.038854 0.000000 0.000000
# 5 0.000000 0.000000 0.000000 0.000000 0.038854 0.000000
# 6 0.000000 0.000000 0.000000 0.000000 0.000000 0.109345
#
#
# Mechanical properties :
#
#
# Convention : Reuss Voigt Hill
#
# Bulk Modulus (GPa) = 27.10064 67.42636 47.26350
# Shear Modulus (GPa) = 13.85875 21.68168 17.77022
#
# Velocity S-wave (km/s) = 2.59164 3.24159 2.93466
# Velocity P-wave (km/s) = 4.69996 6.83290 5.86422
#
# Compressibility (1/GPa) = 0.03689950
#
# Stress axis : x y z
#
# Youngs Moduli (GPa) = 22.69849 22.69849 90.47670
#
# Poissons Ratio (x) = 0.24099 0.92808
# Poissons Ratio (y) = 0.24099 0.92808
# Poissons Ratio (z) = 0.23283 0.23283
#
# Static dielectric constant tensor:
#      x y z
#    x 1.733380 0.000000 0.000000 
#    y 0.000000 1.733380 0.000000 
#    z 0.000000 0.000000 1.764970 
# 
# From -- ./inp_files/4752.got.cif
#   From: 2010.05.17/outbox.cif.g08.bks.cpg/sg193_3_cif.got.tgz:4752.got - 2010.05.20 12:33:02.
