data_PCOD9588174
_publ_section_title
;
Structure prediction by ZEFSAII (Michael W. Deem and Ramdas Pophale) SiO2 
 PCOD9588174
Probable space group: P 6/M M M
;
_chemical_formula_sum "Si O2"
_cell_formula_units_Z 138
_cell_length_a 30.622266
_cell_length_b 30.622266
_cell_length_c 7.829898
_cell_angle_alpha 90.000000
_cell_angle_beta 90.000000
_cell_angle_gamma 120.000000
_cell_volume 6358.598241
_symmetry_space_group_name_H-M "P 6/M M M"
_symmetry_group_IT_number 191
_symmetry_cell_setting 'hexagonal'
loop_
_space_group_symop_operation_xyz
x,y,z
x-y,x,z
-y,x-y,z
-x,-y,z
-x+y,-x,z
y,-x+y,z
x-y,-y,-z
-x,-x+y,-z
y,x,-z
-y,-x,-z
-x+y,y,-z
x,x-y,-z
-x,-y,-z
-x+y,-x,-z
y,-x+y,-z
x,y,-z
x-y,x,-z
-y,x-y,-z
-x+y,y,z
x,x-y,z
-y,-x,z
y,x,z
x-y,-y,z
-x,-x+y,z
loop_
_atom_site_type_symbol
_atom_site_label
_atom_site_fract_x
_atom_site_fract_y
_atom_site_fract_z
Si Si1 0.434016 0.667177 0.293868
Si Si2 0.941869 0.058132 0.000000
Si Si3 0.735292 0.792711 0.793367
Si Si4 0.905180 0.810360 0.687442
Si Si5 0.489669 0.610186 0.203344
Si Si6 0.943191 0.343722 0.299121
Si Si7 0.139552 0.376519 0.298980
O O1 0.432611 0.667599 0.500000
O O2 0.440467 0.720234 0.233500
O O3 0.380459 0.619542 0.235259
O O4 0.477621 0.654929 0.243756
O O5 0.925094 0.074907 0.165863
O O6 0.000000 0.083247 0.000000
O O7 0.749622 0.749622 0.752681
O O8 0.776895 0.845437 0.716703
O O9 0.683028 0.784162 0.719974
O O10 0.734744 0.796609 0.000000
O O11 0.916179 0.832357 0.500000
O O12 0.440563 0.559438 0.265543
O O13 0.540527 0.616814 0.281995
O O14 0.493073 0.607407 0.000000
O O15 0.945852 0.333490 0.500000
O O16 0.896039 0.292782 0.222447
O O17 0.000000 0.365542 0.228487
O O18 0.147883 0.390615 0.500000
O O19 0.194336 0.388671 0.229161
#
# Coordination Sequence:
#
# PCOD9588174 Si02
#       7
#    24   6  24  12  24  24  24
#     4   9  17  31  54  84 118 156 198 244 295 356
#     4  12  27  48  68  92 124 160 208 264 322 386
#     4  11  22  37  59  89 125 161 200 248 298 355
#     4  12  24  41  65  93 124 160 202 254 312 372
#     4  10  22  39  58  83 116 153 198 254 311 366
#     4  10  22  40  61  86 118 156 200 250 302 360
#     4  10  21  38  60  89 123 158 196 237 291 361
#
# _framework density 21.702895999999999
#
# number of rings (size 3 to 8) (size 9 to 14) (size 15 to 20)
#    0.000    1.739    1.739    2.304    0.000    7.304 
#    0.000    3.478    0.000    1.565    0.000    0.000 
#    0.000    0.000    0.000    0.000    0.000    0.000 
#
# Total GULP energy -770507.772455 kJ/mol
# GULP energy per Si atom -5583.389655 kJ/mol
# Density = 2.165350 g / cm^3
# Si number density = 21.702896 Si / 1000 Ang^3
#
#
#
# Elastic Constant Matrix: (Units=GPa)
#
#
# Indices 1 2 3 4 5 6 
#
# 1 95.0140 53.5097 -1.7372 0.0000 0.0000 0.0000
# 2 53.5097 95.0140 -1.7372 0.0000 0.0000 0.0000
# 3 -1.7372 -1.7372 40.5919 0.0000 0.0000 0.0000
# 4 0.0000 0.0000 0.0000 17.8620 0.0000 0.0000
# 5 0.0000 0.0000 0.0000 0.0000 17.8620 0.0000
# 6 0.0000 0.0000 0.0000 0.0000 0.0000 20.7521
#
#
#
# Elastic Compliance Matrix: (Units=1/GPa)
#
#
# Indices 1 2 3 4 5 6 
#
# 1 0.015417 -0.008677 0.000288 0.000000 0.000000 0.000000
# 2 -0.008677 0.015417 0.000288 0.000000 0.000000 0.000000
# 3 0.000288 0.000288 0.024660 0.000000 0.000000 0.000000
# 4 0.000000 0.000000 0.000000 0.055985 0.000000 0.000000
# 5 0.000000 0.000000 0.000000 0.000000 0.055985 0.000000
# 6 0.000000 0.000000 0.000000 0.000000 0.000000 0.048188
#
#
# Mechanical properties :
#
#
# Convention : Reuss Voigt Hill
#
# Bulk Modulus (GPa) = 25.44967 36.74341 31.09654
# Shear Modulus (GPa) = 20.41239 23.33420 21.87330
#
# Velocity S-wave (km/s) = 3.07015 3.28253 3.17811
# Velocity P-wave (km/s) = 4.93149 5.59764 5.27509
#
# Compressibility (1/GPa) = 0.03929324
#
# Stress axis : x y z
#
# Youngs Moduli (GPa) = 64.86436 64.86436 40.55122
#
# Poissons Ratio (x) = 0.56284 -0.01170
# Poissons Ratio (y) = 0.56284 -0.01170
# Poissons Ratio (z) = -0.01871 -0.01871
#
# Static dielectric constant tensor:
#      x y z
#    x 1.835320 0.000000 0.000000 
#    y 0.000000 1.835320 0.000000 
#    z 0.000000 0.000000 1.764130 
# 
# From -- ./inp_files/2036.got.cif
#   From: 2010.05.17/outbox.cif.g08.bks.cpg/sg191_2_cif.got.tgz:2036.got - 2010.05.20 12:20:32.
