data_PCOD9588209
_publ_section_title
;
Structure prediction by ZEFSAII (Michael W. Deem and Ramdas Pophale) SiO2 
 PCOD9588209
Probable space group: P 6/M M M
;
_chemical_formula_sum "Si O2"
_cell_formula_units_Z 144
_cell_length_a 21.769738
_cell_length_b 21.769738
_cell_length_c 24.791571
_cell_angle_alpha 90.000000
_cell_angle_beta 90.000000
_cell_angle_gamma 120.000000
_cell_volume 10175.156191
_symmetry_space_group_name_H-M "P 6/M M M"
_symmetry_group_IT_number 191
_symmetry_cell_setting 'hexagonal'
loop_
_space_group_symop_operation_xyz
x,y,z
x-y,x,z
-y,x-y,z
-x,-y,z
-x+y,-x,z
y,-x+y,z
x-y,-y,-z
-x,-x+y,-z
y,x,-z
-y,-x,-z
-x+y,y,-z
x,x-y,-z
-x,-y,-z
-x+y,-x,-z
y,-x+y,-z
x,y,-z
x-y,x,-z
-y,x-y,-z
-x+y,y,z
x,x-y,z
-y,-x,z
y,x,z
x-y,-y,z
-x,-x+y,z
loop_
_atom_site_type_symbol
_atom_site_label
_atom_site_fract_x
_atom_site_fract_y
_atom_site_fract_z
Si Si1 0.315242 0.917861 0.562787
Si Si2 0.574925 0.657847 0.723808
Si Si3 0.812787 0.479696 0.061172
Si Si4 0.917544 0.532268 0.842587
Si Si5 0.187871 0.664938 0.633715
Si Si6 0.779587 0.699564 0.341987
O O1 0.296138 0.907173 0.500000
O O2 0.335869 0.861376 0.584695
O O3 0.252419 0.909945 0.601718
O O4 0.377470 0.000000 0.570008
O O5 0.597182 0.597182 0.715583
O O6 0.556543 0.656473 0.786343
O O7 0.511176 0.648710 0.686042
O O8 0.642613 0.730348 0.703284
O O9 0.739099 0.478197 0.068214
O O10 0.800439 0.400220 0.065269
O O11 0.867987 0.524851 0.107543
O O12 0.838939 0.504655 0.000000
O O13 0.910286 0.455143 0.833671
O O14 0.000000 0.585489 0.855180
O O15 0.207359 0.603680 0.627628
O O16 0.257817 0.742184 0.637950
O O17 0.859754 0.719508 0.336032
O O18 0.763417 0.763417 0.340238
#
# Coordination Sequence:
#
# PCOD9588209 Si02
#       6
#    24  24  24  24  24  24
#     4   9  18  32  50  69  83  99 131 175 215 244
#     4   9  17  30  48  66  81 101 133 173 214 247
#     4   9  17  28  41  57  78 106 139 171 201 234
#     4   9  17  28  42  61  83 104 129 165 208 252
#     4  11  22  33  44  59  83 113 140 166 199 244
#     4   9  17  29  46  67  89 111 134 163 200 240
#
# _framework density 14.152117000000001
#
# number of rings (size 3 to 8) (size 9 to 14) (size 15 to 20)
#    0.000    2.667    0.000    4.333    0.000    6.000 
#    0.000    2.500    0.000    3.167    0.000    0.000 
#    0.000    0.000    0.000    4.167    0.000    0.000 
#
# Total GULP energy -802327.097703 kJ/mol
# GULP energy per Si atom -5571.715956 kJ/mol
# Density = 1.411991 g / cm^3
# Si number density = 14.152117 Si / 1000 Ang^3
#
#
#
# Elastic Constant Matrix: (Units=GPa)
#
#
# Indices 1 2 3 4 5 6 
#
# 1 71.3222 40.0750 48.3383 0.0000 0.0000 0.0000
# 2 40.0750 71.3222 48.3383 0.0000 0.0000 0.0000
# 3 48.3383 48.3383 124.5514 0.0000 0.0000 0.0000
# 4 0.0000 0.0000 0.0000 5.5964 0.0000 0.0000
# 5 0.0000 0.0000 0.0000 0.0000 5.5964 0.0000
# 6 0.0000 0.0000 0.0000 0.0000 0.0000 15.6236
#
#
#
# Elastic Compliance Matrix: (Units=1/GPa)
#
#
# Indices 1 2 3 4 5 6 
#
# 1 0.022769 -0.009233 -0.005253 0.000000 0.000000 0.000000
# 2 -0.009233 0.022769 -0.005253 0.000000 0.000000 0.000000
# 3 -0.005253 -0.005253 0.012106 0.000000 0.000000 0.000000
# 4 0.000000 0.000000 0.000000 0.178686 0.000000 0.000000
# 5 0.000000 0.000000 0.000000 0.000000 0.178686 0.000000
# 6 0.000000 0.000000 0.000000 0.000000 0.000000 0.064006
#
#
# Mechanical properties :
#
#
# Convention : Reuss Voigt Hill
#
# Bulk Modulus (GPa) = 55.05036 60.07764 57.56400
# Shear Modulus (GPa) = 9.53183 14.05957 11.79570
#
# Velocity S-wave (km/s) = 2.59805 3.15534 2.89016
# Velocity P-wave (km/s) = 6.92700 7.47117 7.20423
#
# Compressibility (1/GPa) = 0.01816519
#
# Stress axis : x y z
#
# Youngs Moduli (GPa) = 43.91858 43.91858 82.60082
#
# Poissons Ratio (x) = 0.40552 0.43393
# Poissons Ratio (y) = 0.40552 0.43393
# Poissons Ratio (z) = 0.23072 0.23072
#
# Static dielectric constant tensor:
#      x y z
#    x 1.457240 0.000000 0.000000 
#    y 0.000000 1.457240 0.000000 
#    z 0.000000 0.000000 1.468030 
# 
# From -- ./inp_files/9939.got.cif
#   From: 2010.05.17/outbox.cif.g08.bks.cpg/sg191_5_cif.got.tgz:9939.got - 2010.05.20 12:20:32.
