data_PCOD9588716
_publ_section_title
;
Structure prediction by ZEFSAII (Michael W. Deem and Ramdas Pophale) SiO2 
 PCOD9588716
Probable space group: P 6/M C C
;
_chemical_formula_sum "Si O2"
_cell_formula_units_Z 68
_cell_length_a 12.514526
_cell_length_b 12.514526
_cell_length_c 24.813389
_cell_angle_alpha 90.000000
_cell_angle_beta 90.000000
_cell_angle_gamma 120.000000
_cell_volume 3365.468466
_symmetry_space_group_name_H-M "P 6/M C C"
_symmetry_group_IT_number 192
_symmetry_cell_setting 'hexagonal'
loop_
_space_group_symop_operation_xyz
x,y,z
x-y,x,z
-y,x-y,z
-x,-y,z
-x+y,-x,z
y,-x+y,z
x-y,-y,1/2-z
-x,-x+y,1/2-z
y,x,1/2-z
-y,-x,1/2-z
-x+y,y,1/2-z
x,x-y,1/2-z
-x,-y,-z
-x+y,-x,-z
y,-x+y,-z
x,y,-z
x-y,x,-z
-y,x-y,-z
-x+y,y,1/2+z
x,x-y,1/2+z
-y,-x,1/2+z
y,x,1/2+z
x-y,-y,1/2+z
-x,-x+y,1/2+z
loop_
_atom_site_type_symbol
_atom_site_label
_atom_site_fract_x
_atom_site_fract_y
_atom_site_fract_z
Si Si1 0.666667 0.333334 0.937603
Si Si2 0.914900 0.553832 0.602874
Si Si3 0.873541 0.708075 0.689278
Si Si4 0.267391 0.253174 0.500000
O O1 0.566283 0.199267 0.920254
O O2 0.666667 0.333334 0.000000
O O3 0.857569 0.605648 0.646936
O O4 0.976976 0.654029 0.554064
O O5 0.000000 0.500000 0.625333
O O6 0.802655 0.783629 0.681826
O O7 0.829266 0.658531 0.750000
O O8 0.135880 0.250416 0.500000
#
# Coordination Sequence:
#
# PCOD9588716 Si02
#       4
#     8  24  24  12
#     4  12  24  42  64  89 124 174 228 265 326 403
#     4  12  25  42  65  96 132 176 227 278 333 406
#     4  10  21  41  68  98 131 170 218 276 339 400
#     4  12  24  40  64  96 135 178 226 286 344 406
#
# _framework density 20.205210000000001
#
# number of rings (size 3 to 8) (size 9 to 14) (size 15 to 20)
#    0.000    0.706    1.765    7.412    0.000    1.412 
#    0.000   15.882    0.000    0.000    0.000    0.000 
#    0.000    0.000    0.000    0.000    0.000    0.000 
#
# Total GULP energy -379322.247029 kJ/mol
# GULP energy per Si atom -5578.268339 kJ/mol
# Density = 2.015922 g / cm^3
# Si number density = 20.205210 Si / 1000 Ang^3
#
#
#
# Elastic Constant Matrix: (Units=GPa)
#
#
# Indices 1 2 3 4 5 6 
#
# 1 61.6269 -3.9504 8.1641 -0.0007 0.0002 -0.0002
# 2 -3.9504 61.6234 8.1621 0.0005 0.0011 -0.0004
# 3 8.1641 8.1621 51.9124 0.0008 0.0016 -0.0001
# 4 -0.0007 0.0005 0.0008 111.7362 0.0047 -0.0005
# 5 0.0002 0.0011 0.0016 0.0047 111.7058 0.0006
# 6 -0.0002 -0.0004 -0.0001 -0.0005 0.0006 32.7875
#
#
#
# Elastic Compliance Matrix: (Units=1/GPa)
#
#
# Indices 1 2 3 4 5 6 
#
# 1 0.016698 0.001448 -0.002854 0.000000 0.000000 0.000000
# 2 0.001448 0.016698 -0.002853 0.000000 0.000000 0.000000
# 3 -0.002854 -0.002853 0.020161 0.000000 0.000000 0.000000
# 4 0.000000 0.000000 0.000000 0.008950 0.000000 0.000000
# 5 0.000000 0.000000 0.000000 0.000000 0.008952 0.000000
# 6 0.000000 0.000000 0.000000 0.000000 0.000000 0.030499
#
#
# Mechanical properties :
#
#
# Convention : Reuss Voigt Hill
#
# Bulk Modulus (GPa) = 22.20275 22.21269 22.20772
# Shear Modulus (GPa) = 39.84447 62.09836 50.97142
#
# Velocity S-wave (km/s) = 4.44553 5.54982 5.02808
# Velocity P-wave (km/s) = 6.11251 7.21698 6.68758
#
# Compressibility (1/GPa) = 0.04503947
#
# Stress axis : x y z
#
# Youngs Moduli (GPa) = 59.88900 59.88611 49.60169
#
# Poissons Ratio (x) = -0.08674 0.14155
# Poissons Ratio (y) = -0.08674 0.14152
# Poissons Ratio (z) = 0.17090 0.17087
#
# Static dielectric constant tensor:
#      x y z
#    x 1.692770 0.000000 0.000000 
#    y 0.000000 1.692770 0.000000 
#    z 0.000000 0.000000 1.765470 
# 
# From -- ./inp_files/6735.got.cif
#   From: 2010.05.17/outbox.cif.g08.bks.cpg/sg192_4_cif.got.tgz:6735.got - 2010.05.20 12:28:01.
