data_PCOD9588943
_publ_section_title
;
Structure prediction by ZEFSAII (Michael W. Deem and Ramdas Pophale) SiO2 
 PCOD9588943
Probable space group: P 63/M C M
;
_chemical_formula_sum "Si O2"
_cell_formula_units_Z 144
_cell_length_a 23.376779
_cell_length_b 23.376779
_cell_length_c 19.501693
_cell_angle_alpha 90.000000
_cell_angle_beta 90.000000
_cell_angle_gamma 120.000000
_cell_volume 9229.374938
_symmetry_space_group_name_H-M "P 63/M C M"
_symmetry_group_IT_number 193
_symmetry_cell_setting 'hexagonal'
loop_
_space_group_symop_operation_xyz
x,y,z
x-y,x,1/2+z
-y,x-y,z
-x,-y,1/2+z
-x+y,-x,z
y,-x+y,1/2+z
x-y,-y,1/2-z
-x,-x+y,1/2-z
y,x,1/2-z
-y,-x,-z
-x+y,y,-z
x,x-y,-z
-x,-y,-z
-x+y,-x,1/2-z
y,-x+y,-z
x,y,1/2-z
x-y,x,-z
-y,x-y,1/2-z
-x+y,y,1/2+z
x,x-y,1/2+z
-y,-x,1/2+z
y,x,z
x-y,-y,z
-x,-x+y,z
loop_
_atom_site_type_symbol
_atom_site_label
_atom_site_fract_x
_atom_site_fract_y
_atom_site_fract_z
Si Si1 0.926157 0.176319 0.831630
Si Si2 0.864838 0.598775 0.168277
Si Si3 0.835498 0.596969 0.932904
Si Si4 0.594355 0.518159 0.904030
Si Si5 0.391254 0.923302 0.430973
Si Si6 0.752347 0.831499 0.440068
O O1 0.920191 0.166775 0.750000
O O2 0.915325 0.238617 0.846659
O O3 0.871798 0.111940 0.870504
O O4 0.000000 0.197157 0.853371
O O5 0.859411 0.590210 0.250000
O O6 0.799657 0.589951 0.131696
O O7 0.885259 0.549172 0.134025
O O8 0.873098 0.557573 0.917351
O O9 0.891323 0.673388 0.946679
O O10 0.787996 0.575991 0.000000
O O11 0.560461 0.560461 0.881610
O O12 0.538372 0.441523 0.896654
O O13 0.603812 0.526276 0.986141
O O14 0.417928 0.000000 0.411991
O O15 0.771321 0.885661 0.500000
O O16 0.793120 0.793120 0.442207
#
# Coordination Sequence:
#
# PCOD9588943 Si02
#       6
#    24  24  24  24  24  24
#     4   9  18  32  50  71  95 124 160 204 252 300
#     4  10  19  31  49  75 103 130 164 208 253 297
#     4  10  18  31  50  74 100 133 167 203 245 296
#     4   9  17  29  48  74 101 129 158 198 250 298
#     4   9  17  30  49  74 102 129 162 201 242 294
#     4  10  20  31  47  72  99 129 162 201 249 300
#
# _framework density 15.602357
#
# number of rings (size 3 to 8) (size 9 to 14) (size 15 to 20)
#    0.000    2.500    1.667    2.500    0.000    1.333 
#    0.000    0.833    0.000    6.167    4.333    0.000 
#    0.000    0.000    0.000    0.000    0.000    0.000 
#
# Total GULP energy -801845.234631 kJ/mol
# GULP energy per Si atom -5568.369685 kJ/mol
# Density = 1.556685 g / cm^3
# Si number density = 15.602357 Si / 1000 Ang^3
#
#
#
# Elastic Constant Matrix: (Units=GPa)
#
#
# Indices 1 2 3 4 5 6 
#
# 1 112.1542 64.9015 31.8572 0.0000 0.0000 0.0000
# 2 64.9015 112.1542 31.8572 0.0000 0.0000 0.0000
# 3 31.8572 31.8572 41.6294 0.0000 0.0000 0.0000
# 4 0.0000 0.0000 0.0000 18.3490 0.0000 0.0000
# 5 0.0000 0.0000 0.0000 0.0000 18.3490 0.0000
# 6 0.0000 0.0000 0.0000 0.0000 0.0000 23.6264
#
#
#
# Elastic Compliance Matrix: (Units=1/GPa)
#
#
# Indices 1 2 3 4 5 6 
#
# 1 0.014479 -0.006684 -0.005965 0.000000 0.000000 0.000000
# 2 -0.006684 0.014479 -0.005965 0.000000 0.000000 0.000000
# 3 -0.005965 -0.005965 0.033150 0.000000 0.000000 0.000000
# 4 0.000000 0.000000 0.000000 0.054499 0.000000 0.000000
# 5 0.000000 0.000000 0.000000 0.000000 0.054499 0.000000
# 6 0.000000 0.000000 0.000000 0.000000 0.000000 0.042326
#
#
# Mechanical properties :
#
#
# Convention : Reuss Voigt Hill
#
# Bulk Modulus (GPa) = 40.19213 58.12995 49.16104
# Shear Modulus (GPa) = 19.30864 21.21969 20.26416
#
# Velocity S-wave (km/s) = 3.52169 3.69186 3.60778
# Velocity P-wave (km/s) = 6.50789 7.45058 6.99513
#
# Compressibility (1/GPa) = 0.02488049
#
# Stress axis : x y z
#
# Youngs Moduli (GPa) = 69.06753 69.06753 30.16547
#
# Poissons Ratio (x) = 0.46166 0.17993
# Poissons Ratio (y) = 0.46166 0.17993
# Poissons Ratio (z) = 0.41197 0.41197
#
# Static dielectric constant tensor:
#      x y z
#    x 1.520790 0.000000 0.000000 
#    y 0.000000 1.520790 0.000000 
#    z 0.000000 0.000000 1.532870 
# 
# From -- ./inp_files/5559.got.cif
#   From: 2010.05.17/outbox.cif.g08.bks.cpg/sg193_3_cif.got.tgz:5559.got - 2010.05.20 12:33:02.
