data_PCOD9588518
_publ_section_title
;
Structure prediction by ZEFSAII (Michael W. Deem and Ramdas Pophale) SiO2 
 PCOD9588518
Probable space group: P 6/M C C
;
_chemical_formula_sum "Si O2"
_cell_formula_units_Z 132
_cell_length_a 19.373133
_cell_length_b 19.373133
_cell_length_c 22.722675
_cell_angle_alpha 90.000000
_cell_angle_beta 90.000000
_cell_angle_gamma 120.000000
_cell_volume 7385.668462
_symmetry_space_group_name_H-M "P 6/M C C"
_symmetry_group_IT_number 192
_symmetry_cell_setting 'hexagonal'
loop_
_space_group_symop_operation_xyz
x,y,z
x-y,x,z
-y,x-y,z
-x,-y,z
-x+y,-x,z
y,-x+y,z
x-y,-y,1/2-z
-x,-x+y,1/2-z
y,x,1/2-z
-y,-x,1/2-z
-x+y,y,1/2-z
x,x-y,1/2-z
-x,-y,-z
-x+y,-x,-z
y,-x+y,-z
x,y,-z
x-y,x,-z
-y,x-y,-z
-x+y,y,1/2+z
x,x-y,1/2+z
-y,-x,1/2+z
y,x,1/2+z
x-y,-y,1/2+z
-x,-x+y,1/2+z
loop_
_atom_site_type_symbol
_atom_site_label
_atom_site_fract_x
_atom_site_fract_y
_atom_site_fract_z
Si Si1 0.903268 0.595462 0.686976
Si Si2 0.100385 0.195375 0.000000
Si Si3 0.474160 0.236981 0.000000
Si Si4 0.092594 0.688470 0.680026
Si Si5 0.544093 0.450489 0.368999
Si Si6 0.851115 0.424157 0.000000
Si Si7 0.830927 0.167255 0.403550
O O1 0.876153 0.592425 0.754028
O O2 0.870724 0.506693 0.660854
O O3 0.885871 0.650677 0.644359
O O4 0.998143 0.634628 0.686555
O O5 0.142547 0.139987 0.000000
O O6 0.131420 0.256455 0.943515
O O7 0.521062 0.331997 0.000000
O O8 0.539117 0.209256 0.000000
O O9 0.413351 0.200794 0.054290
O O10 0.126888 0.633577 0.654549
O O11 0.106920 0.757290 0.634429
O O12 0.500000 0.500000 0.354547
O O13 0.543123 0.441864 0.439190
#
# Coordination Sequence:
#
# PCOD9588518 Si02
#       7
#    24  12  12  24  24  12  24
#     4  10  20  35  56  82 114 150 188 232 284 343
#     4  11  25  44  66  90 120 152 188 240 314 402
#     4  11  23  34  55  73 111 154 201 239 281 328
#     4  10  20  35  56  82 114 150 188 232 284 343
#     4  10  20  33  54  79 111 150 190 228 274 333
#     4  12  20  38  49  75 106 154 196 227 279 322
#     4  11  21  38  58  88 112 146 190 245 294 346
#
# _framework density 17.872451000000002
#
# number of rings (size 3 to 8) (size 9 to 14) (size 15 to 20)
#    0.000    1.455    3.636    2.727    0.000    2.182 
#    0.000    0.000    0.000    0.000    0.000    5.091 
#    0.000    8.727    0.000    0.000    0.000    0.000 
#
# Total GULP energy -735323.820366 kJ/mol
# GULP energy per Si atom -5570.635003 kJ/mol
# Density = 1.783177 g / cm^3
# Si number density = 17.872451 Si / 1000 Ang^3
#
#
#
# Elastic Constant Matrix: (Units=GPa)
#
#
# Indices 1 2 3 4 5 6 
#
# 1 67.7976 13.0892 20.3540 0.0000 0.0000 0.0000
# 2 13.0892 67.7976 20.3540 0.0000 0.0000 0.0000
# 3 20.3540 20.3540 121.3500 0.0000 0.0000 0.0000
# 4 0.0000 0.0000 0.0000 29.7142 0.0000 0.0000
# 5 0.0000 0.0000 0.0000 0.0000 29.7142 0.0000
# 6 0.0000 0.0000 0.0000 0.0000 0.0000 27.3542
#
#
#
# Elastic Compliance Matrix: (Units=1/GPa)
#
#
# Indices 1 2 3 4 5 6 
#
# 1 0.015891 -0.002388 -0.002265 0.000000 0.000000 0.000000
# 2 -0.002388 0.015891 -0.002265 0.000000 0.000000 0.000000
# 3 -0.002265 -0.002265 0.009000 0.000000 0.000000 0.000000
# 4 0.000000 0.000000 0.000000 0.033654 0.000000 0.000000
# 5 0.000000 0.000000 0.000000 0.000000 0.033654 0.000000
# 6 0.000000 0.000000 0.000000 0.000000 0.000000 0.036557
#
#
# Mechanical properties :
#
#
# Convention : Reuss Voigt Hill
#
# Bulk Modulus (GPa) = 37.11034 40.50440 38.80737
# Shear Modulus (GPa) = 29.85703 30.89971 30.37837
#
# Velocity S-wave (km/s) = 4.09168 4.16252 4.12725
# Velocity P-wave (km/s) = 6.56746 6.76863 6.66880
#
# Compressibility (1/GPa) = 0.02694667
#
# Stress axis : x y z
#
# Youngs Moduli (GPa) = 62.92968 62.92968 111.10647
#
# Poissons Ratio (x) = 0.15027 0.25164
# Poissons Ratio (y) = 0.15027 0.25164
# Poissons Ratio (z) = 0.14252 0.14252
#
# Static dielectric constant tensor:
#      x y z
#    x 1.620950 0.000000 0.000000 
#    y 0.000000 1.620950 0.000000 
#    z 0.000000 0.000000 1.616390 
# 
# From -- ./inp_files/5865.got.cif
#   From: 2010.05.17/outbox.cif.g08.bks.cpg/sg192_3_cif.got.tgz:5865.got - 2010.05.20 12:28:01.
