data_PCOD9588684
_publ_section_title
;
Structure prediction by ZEFSAII (Michael W. Deem and Ramdas Pophale) SiO2 
 PCOD9588684
Probable space group: P 6/M C C
;
_chemical_formula_sum "Si O2"
_cell_formula_units_Z 92
_cell_length_a 19.874416
_cell_length_b 19.874416
_cell_length_c 14.330043
_cell_angle_alpha 90.000000
_cell_angle_beta 90.000000
_cell_angle_gamma 120.000000
_cell_volume 4901.927427
_symmetry_space_group_name_H-M "P 6/M C C"
_symmetry_group_IT_number 192
_symmetry_cell_setting 'hexagonal'
loop_
_space_group_symop_operation_xyz
x,y,z
x-y,x,z
-y,x-y,z
-x,-y,z
-x+y,-x,z
y,-x+y,z
x-y,-y,1/2-z
-x,-x+y,1/2-z
y,x,1/2-z
-y,-x,1/2-z
-x+y,y,1/2-z
x,x-y,1/2-z
-x,-y,-z
-x+y,-x,-z
y,-x+y,-z
x,y,-z
x-y,x,-z
-y,x-y,-z
-x+y,y,1/2+z
x,x-y,1/2+z
-y,-x,1/2+z
y,x,1/2+z
x-y,-y,1/2+z
-x,-x+y,1/2+z
loop_
_atom_site_type_symbol
_atom_site_label
_atom_site_fract_x
_atom_site_fract_y
_atom_site_fract_z
Si Si1 0.666668 0.333334 0.861731
Si Si2 0.662121 0.105478 0.500000
Si Si3 0.182733 0.092723 0.138405
Si Si4 0.566940 0.921086 0.500000
Si Si5 0.844719 0.169225 0.500000
Si Si6 0.581845 0.155752 0.861781
O O1 0.666668 0.333334 0.750000
O O2 0.639151 0.245663 0.888618
O O3 0.753289 0.137989 0.500000
O O4 0.632324 0.132517 0.589524
O O5 0.617581 0.013073 0.500000
O O6 0.133537 0.134881 0.113684
O O7 0.192981 0.096491 0.250000
O O8 0.265283 0.136066 0.087136
O O9 0.623956 0.886113 0.500000
O O10 0.509546 0.893326 0.589444
O O11 0.573742 0.147484 0.750000
#
# Coordination Sequence:
#
# PCOD9588684 Si02
#       6
#     8  12  24  12  12  24
#     4   9  18  34  59  88 109 137 184 220 263 331
#     4  11  24  38  56  85 113 146 193 231 276 346
#     4  10  21  38  61  88 118 156 201 245 290 343
#     4  11  24  38  56  85 113 146 193 231 276 346
#     4  12  24  40  59  84 122 156 190 242 299 350
#     4  10  21  39  61  84 113 147 184 232 283 332
#
# _framework density 18.768127
#
# number of rings (size 3 to 8) (size 9 to 14) (size 15 to 20)
#    0.000    1.565    0.000    5.739    0.000    8.348 
#    0.000    1.304    0.000    0.000    0.000    0.000 
#    0.000    0.000    0.000    0.000    0.000    0.000 
#
# Total GULP energy -514088.477576 kJ/mol
# GULP energy per Si atom -5587.918235 kJ/mol
# Density = 1.872541 g / cm^3
# Si number density = 18.768127 Si / 1000 Ang^3
#
#
#
# Elastic Constant Matrix: (Units=GPa)
#
#
# Indices 1 2 3 4 5 6 
#
# 1 112.3459 17.3072 37.5644 -0.0004 0.0003 0.0007
# 2 17.3072 112.3522 37.5656 -0.0004 0.0001 0.0007
# 3 37.5644 37.5656 138.0513 -0.0001 0.0001 0.0002
# 4 -0.0004 -0.0004 -0.0001 15.8031 0.0001 0.0001
# 5 0.0003 0.0001 0.0001 0.0001 15.8023 0.0000
# 6 0.0007 0.0007 0.0002 0.0001 0.0000 47.5212
#
#
#
# Elastic Compliance Matrix: (Units=1/GPa)
#
#
# Indices 1 2 3 4 5 6 
#
# 1 0.009839 -0.000683 -0.002492 0.000000 0.000000 0.000000
# 2 -0.000683 0.009839 -0.002492 0.000000 0.000000 0.000000
# 3 -0.002492 -0.002492 0.008600 0.000000 0.000000 0.000000
# 4 0.000000 0.000000 0.000000 0.063279 0.000000 0.000000
# 5 0.000000 0.000000 0.000000 0.000000 0.063282 0.000000
# 6 0.000000 0.000000 0.000000 0.000000 0.000000 0.021043
#
#
# Mechanical properties :
#
#
# Convention : Reuss Voigt Hill
#
# Bulk Modulus (GPa) = 59.00989 60.84711 59.92850
# Shear Modulus (GPa) = 25.92529 33.84613 29.88571
#
# Velocity S-wave (km/s) = 3.72068 4.25123 3.99477
# Velocity P-wave (km/s) = 7.06879 7.52251 7.29917
#
# Compressibility (1/GPa) = 0.01694631
#
# Stress axis : x y z
#
# Youngs Moduli (GPa) = 101.63282 101.63846 116.28407
#
# Poissons Ratio (x) = 0.06938 0.28973
# Poissons Ratio (y) = 0.06938 0.28972
# Poissons Ratio (z) = 0.25323 0.25323
#
# Static dielectric constant tensor:
#      x y z
#    x 1.696530 -0.000010 0.000000 
#    y -0.000010 1.696530 0.000000 
#    z 0.000000 0.000000 1.659300 
# 
# From -- ./inp_files/4044.got.cif
#   From: 2010.05.17/outbox.cif.g08.bks.cpg/sg192_3_cif.got.tgz:4044.got - 2010.05.20 12:28:01.
