data_PCOD9588500
_publ_section_title
;
Structure prediction by ZEFSAII (Michael W. Deem and Ramdas Pophale) SiO2 
 PCOD9588500
Probable space group: P 6/M C C
;
_chemical_formula_sum "Si O2"
_cell_formula_units_Z 144
_cell_length_a 33.024468
_cell_length_b 33.024468
_cell_length_c 8.731475
_cell_angle_alpha 90.000000
_cell_angle_beta 90.000000
_cell_angle_gamma 120.000000
_cell_volume 8246.884400
_symmetry_space_group_name_H-M "P 6/M C C"
_symmetry_group_IT_number 192
_symmetry_cell_setting 'hexagonal'
loop_
_space_group_symop_operation_xyz
x,y,z
x-y,x,z
-y,x-y,z
-x,-y,z
-x+y,-x,z
y,-x+y,z
x-y,-y,1/2-z
-x,-x+y,1/2-z
y,x,1/2-z
-y,-x,1/2-z
-x+y,y,1/2-z
x,x-y,1/2-z
-x,-y,-z
-x+y,-x,-z
y,-x+y,-z
x,y,-z
x-y,x,-z
-y,x-y,-z
-x+y,y,1/2+z
x,x-y,1/2+z
-y,-x,1/2+z
y,x,1/2+z
x-y,-y,1/2+z
-x,-x+y,1/2+z
loop_
_atom_site_type_symbol
_atom_site_label
_atom_site_fract_x
_atom_site_fract_y
_atom_site_fract_z
Si Si1 0.472822 0.280785 0.816586
Si Si2 0.146293 0.617150 0.815490
Si Si3 0.101472 0.717267 0.184146
Si Si4 0.860747 0.809449 0.683099
Si Si5 0.560535 0.950156 0.816762
Si Si6 0.700445 0.805930 0.183407
O O1 0.481353 0.240677 0.750000
O O2 0.510757 0.331672 0.754035
O O3 0.423006 0.272114 0.754430
O O4 0.472446 0.280100 0.000000
O O5 0.156975 0.578488 0.750000
O O6 0.093210 0.603564 0.771199
O O7 0.149405 0.619448 0.000000
O O8 0.064821 0.663671 0.227946
O O9 0.089708 0.755602 0.246160
O O10 0.105250 0.719622 0.000000
O O11 0.841069 0.841069 0.750000
O O12 0.910824 0.821647 0.750000
O O13 0.863572 0.813110 0.500000
O O14 0.825574 0.754791 0.722761
O O15 0.574037 0.000000 0.750000
O O16 0.560925 0.953017 0.000000
O O17 0.687981 0.843991 0.250000
O O18 0.695732 0.804363 0.000000
#
# Coordination Sequence:
#
# PCOD9588500 Si02
#       6
#    24  24  24  24  24  24
#     4  11  21  35  56  81 108 140 175 217 265 317
#     4  10  21  38  57  81 108 138 176 219 266 318
#     4  10  20  34  50  73 106 143 181 223 265 311
#     4  10  21  37  57  80 107 138 175 216 261 311
#     4   9  20  35  51  72 102 138 179 223 266 310
#     4  10  20  33  50  74 103 138 176 215 257 306
#
# _framework density 17.46114
#
# number of rings (size 3 to 8) (size 9 to 14) (size 15 to 20)
#    0.000    2.000    0.000    5.000    0.000    7.000 
#    0.000    5.000    0.000    0.500    0.000    3.500 
#    0.000    0.000    0.000    0.000    0.000    0.000 
#
# Total GULP energy -804240.951728 kJ/mol
# GULP energy per Si atom -5585.006609 kJ/mol
# Density = 1.742140 g / cm^3
# Si number density = 17.461140 Si / 1000 Ang^3
#
#
#
# Elastic Constant Matrix: (Units=GPa)
#
#
# Indices 1 2 3 4 5 6 
#
# 1 78.0785 55.9098 34.0677 0.0000 0.0000 0.0000
# 2 55.9098 78.0785 34.0677 0.0000 0.0000 0.0000
# 3 34.0677 34.0677 74.0318 0.0000 0.0000 0.0000
# 4 0.0000 0.0000 0.0000 12.5086 0.0000 0.0000
# 5 0.0000 0.0000 0.0000 0.0000 12.5086 0.0000
# 6 0.0000 0.0000 0.0000 0.0000 0.0000 11.0843
#
#
#
# Elastic Compliance Matrix: (Units=1/GPa)
#
#
# Indices 1 2 3 4 5 6 
#
# 1 0.027426 -0.017683 -0.004484 0.000000 0.000000 0.000000
# 2 -0.017683 0.027426 -0.004484 0.000000 0.000000 0.000000
# 3 -0.004484 -0.004484 0.017634 0.000000 0.000000 0.000000
# 4 0.000000 0.000000 0.000000 0.079945 0.000000 0.000000
# 5 0.000000 0.000000 0.000000 0.000000 0.079945 0.000000
# 6 0.000000 0.000000 0.000000 0.000000 0.000000 0.090217
#
#
# Mechanical properties :
#
#
# Convention : Reuss Voigt Hill
#
# Bulk Modulus (GPa) = 52.12048 53.14215 52.63132
# Shear Modulus (GPa) = 13.07911 14.29655 13.68783
#
# Velocity S-wave (km/s) = 2.73983 2.86451 2.80286
# Velocity P-wave (km/s) = 6.31847 6.43748 6.37825
#
# Compressibility (1/GPa) = 0.01918632
#
# Stress axis : x y z
#
# Youngs Moduli (GPa) = 36.46174 36.46174 56.70771
#
# Poissons Ratio (x) = 0.64474 0.25426
# Poissons Ratio (y) = 0.64474 0.25426
# Poissons Ratio (z) = 0.16348 0.16348
#
# Static dielectric constant tensor:
#      x y z
#    x 1.578510 0.000000 0.000000 
#    y 0.000000 1.578510 0.000000 
#    z 0.000000 0.000000 1.581270 
# 
# From -- ./inp_files/1190.got.cif
#   From: 2010.05.17/outbox.cif.g08.bks.cpg/sg192_1_cif.got.tgz:1190.got - 2010.05.20 12:28:01.
