data_PCOD9588347
_publ_section_title
;
Structure prediction by ZEFSAII (Michael W. Deem and Ramdas Pophale) SiO2 
 PCOD9588347
Probable space group: P 6/M C C
;
_chemical_formula_sum "Si O2"
_cell_formula_units_Z 104
_cell_length_a 20.624558
_cell_length_b 20.624558
_cell_length_c 14.554553
_cell_angle_alpha 90.000000
_cell_angle_beta 90.000000
_cell_angle_gamma 120.000000
_cell_volume 5361.654237
_symmetry_space_group_name_H-M "P 6/M C C"
_symmetry_group_IT_number 192
_symmetry_cell_setting 'hexagonal'
loop_
_space_group_symop_operation_xyz
x,y,z
x-y,x,z
-y,x-y,z
-x,-y,z
-x+y,-x,z
y,-x+y,z
x-y,-y,1/2-z
-x,-x+y,1/2-z
y,x,1/2-z
-y,-x,1/2-z
-x+y,y,1/2-z
x,x-y,1/2-z
-x,-y,-z
-x+y,-x,-z
y,-x+y,-z
x,y,-z
x-y,x,-z
-y,x-y,-z
-x+y,y,1/2+z
x,x-y,1/2+z
-y,-x,1/2+z
y,x,1/2+z
x-y,-y,1/2+z
-x,-x+y,1/2+z
loop_
_atom_site_type_symbol
_atom_site_label
_atom_site_fract_x
_atom_site_fract_y
_atom_site_fract_z
Si Si1 0.604216 0.694239 0.500000
Si Si2 0.219505 0.652196 0.000000
Si Si3 0.877398 0.520055 0.000000
Si Si4 0.076405 0.787135 0.698960
Si Si5 0.333334 0.666667 0.359367
Si Si6 0.378153 0.974724 0.158288
Si Si7 0.869509 0.674592 0.000000
O O1 0.518146 0.673575 0.500000
O O2 0.618805 0.657350 0.409787
O O3 0.655839 0.783837 0.500000
O O4 0.187299 0.563530 0.000000
O O5 0.269097 0.678719 0.907055
O O6 0.924757 0.529759 0.909015
O O7 0.864965 0.592348 0.000000
O O8 0.148314 0.851687 0.750000
O O9 0.087018 0.806521 0.590790
O O10 0.000000 0.770831 0.750000
O O11 0.071881 0.706583 0.698067
O O12 0.333334 0.666667 0.250000
O O13 0.425542 0.000000 0.250000
#
# Coordination Sequence:
#
# PCOD9588347 Si02
#       7
#    12  12  12  24   8  24  12
#     4  11  21  36  59  84 114 157 194 242 298 346
#     4  10  22  40  58  81 114 146 196 254 302 358
#     4   9  19  34  52  78 111 152 189 239 304 353
#     4  10  20  34  55  83 114 147 184 231 280 332
#     4  10  23  43  61  80 109 148 203 259 310 377
#     4   9  19  34  52  82 118 148 194 239 283 354
#     4  10  18  33  57  79 109 147 191 233 286 341
#
# _framework density 19.396999000000001
#
# number of rings (size 3 to 8) (size 9 to 14) (size 15 to 20)
#    0.000    2.308    0.000    4.846    0.000    4.615 
#    0.000    9.231    0.000    0.231    0.000    0.000 
#    0.000    3.692    0.000    0.000    0.000    0.000 
#
# Total GULP energy -579542.588715 kJ/mol
# GULP energy per Si atom -5572.524891 kJ/mol
# Density = 1.935285 g / cm^3
# Si number density = 19.396999 Si / 1000 Ang^3
#
#
#
# Elastic Constant Matrix: (Units=GPa)
#
#
# Indices 1 2 3 4 5 6 
#
# 1 80.0892 34.8321 48.1999 -0.0001 0.0001 0.0000
# 2 34.8321 80.0885 48.1995 -0.0004 -0.0004 -0.0001
# 3 48.1999 48.1995 193.7747 -0.0007 0.0013 0.0000
# 4 -0.0001 -0.0004 -0.0007 34.6231 -0.0030 0.0002
# 5 0.0001 -0.0004 0.0013 -0.0030 34.6351 -0.0002
# 6 0.0000 -0.0001 0.0000 0.0002 -0.0002 22.6283
#
#
#
# Elastic Compliance Matrix: (Units=1/GPa)
#
#
# Indices 1 2 3 4 5 6 
#
# 1 0.016546 -0.005550 -0.002735 0.000000 0.000000 0.000000
# 2 -0.005550 0.016546 -0.002735 0.000000 0.000000 0.000000
# 3 -0.002735 -0.002735 0.006521 0.000000 0.000000 0.000000
# 4 0.000000 0.000000 0.000000 0.028882 0.000002 0.000000
# 5 0.000000 0.000000 0.000000 0.000002 0.028872 0.000000
# 6 0.000000 0.000000 0.000000 0.000000 0.000000 0.044193
#
#
# Mechanical properties :
#
#
# Convention : Reuss Voigt Hill
#
# Bulk Modulus (GPa) = 56.90658 68.49059 62.69859
# Shear Modulus (GPa) = 29.50563 33.22535 31.36549
#
# Velocity S-wave (km/s) = 3.90442 4.14322 4.02559
# Velocity P-wave (km/s) = 7.05177 7.63380 7.34855
#
# Compressibility (1/GPa) = 0.01757266
#
# Stress axis : x y z
#
# Youngs Moduli (GPa) = 60.43754 60.43712 153.34326
#
# Poissons Ratio (x) = 0.33543 0.41942
# Poissons Ratio (y) = 0.33543 0.41941
# Poissons Ratio (z) = 0.16531 0.16530
#
# Static dielectric constant tensor:
#      x y z
#    x 1.702230 0.000000 0.000000 
#    y 0.000000 1.702240 0.000000 
#    z 0.000000 0.000000 1.711900 
# 
# From -- ./inp_files/2984.got.cif
#   From: 2010.05.17/outbox.cif.g08.bks.cpg/sg192_2_cif.got.tgz:2984.got - 2010.05.20 12:28:01.
