data_PCOD9588326
_publ_section_title
;
Structure prediction by ZEFSAII (Michael W. Deem and Ramdas Pophale) SiO2 
 PCOD9588326
Probable space group: P 6/M C C
;
_chemical_formula_sum "Si O2"
_cell_formula_units_Z 164
_cell_length_a 19.593839
_cell_length_b 19.593839
_cell_length_c 25.514751
_cell_angle_alpha 90.000000
_cell_angle_beta 90.000000
_cell_angle_gamma 120.000000
_cell_volume 8483.225987
_symmetry_space_group_name_H-M "P 6/M C C"
_symmetry_group_IT_number 192
_symmetry_cell_setting 'hexagonal'
loop_
_space_group_symop_operation_xyz
x,y,z
x-y,x,z
-y,x-y,z
-x,-y,z
-x+y,-x,z
y,-x+y,z
x-y,-y,1/2-z
-x,-x+y,1/2-z
y,x,1/2-z
-y,-x,1/2-z
-x+y,y,1/2-z
x,x-y,1/2-z
-x,-y,-z
-x+y,-x,-z
y,-x+y,-z
x,y,-z
x-y,x,-z
-y,x-y,-z
-x+y,y,1/2+z
x,x-y,1/2+z
-y,-x,1/2+z
y,x,1/2+z
x-y,-y,1/2+z
-x,-x+y,1/2+z
loop_
_atom_site_type_symbol
_atom_site_label
_atom_site_fract_x
_atom_site_fract_y
_atom_site_fract_z
Si Si1 0.814155 0.641369 0.610638
Si Si2 0.601570 0.914107 0.821839
Si Si3 0.895183 0.810902 0.632786
Si Si4 0.333334 0.666667 0.563051
Si Si5 0.093381 0.186761 0.250000
Si Si6 0.591364 0.899798 0.704011
Si Si7 0.905670 0.445708 0.349292
Si Si8 0.492417 0.814188 0.438853
O O1 0.889460 0.636256 0.629899
O O2 0.846626 0.732815 0.598119
O O3 0.758290 0.611880 0.661865
O O4 0.756754 0.576696 0.569147
O O5 0.606323 0.885583 0.763415
O O6 0.510090 0.880996 0.835980
O O7 0.651012 0.008226 0.812746
O O8 0.859105 0.868859 0.626640
O O9 0.882811 0.775357 0.692637
O O10 0.333334 0.666668 0.500000
O O11 0.305587 0.577585 0.578772
O O12 0.132623 0.132623 0.250000
O O13 0.502564 0.882957 0.695925
O O14 0.873385 0.394307 0.402089
O O15 0.000000 0.500000 0.352475
O O16 0.481963 0.825980 0.500000
#
# Coordination Sequence:
#
# PCOD9588326 Si02
#       8
#    24  24  24   8  12  24  24  24
#     4  11  21  32  49  78 108 138 183 230 283 342
#     4  10  18  31  50  71 103 142 176 214 263 321
#     4  10  20  34  53  77 111 150 193 234 279 334
#     4   9  18  36  60  81 100 134 181 225 285 354
#     4   8  15  26  44  70 102 140 178 218 260 310
#     4   9  19  31  47  72 104 141 176 215 263 321
#     4   9  18  33  52  76 106 140 183 221 268 336
#     4  10  21  37  57  80 108 140 181 240 299 348
#
# _framework density 19.332267999999999
#
# number of rings (size 3 to 8) (size 9 to 14) (size 15 to 20)
#    0.000    2.341    0.000    2.854    2.049    3.220 
#    0.000    0.000    0.000   11.415    0.000    8.195 
#    0.000    1.171    0.000    0.000    0.000    0.000 
#
# Total GULP energy -913466.023059 kJ/mol
# GULP energy per Si atom -5569.914775 kJ/mol
# Density = 1.928827 g / cm^3
# Si number density = 19.332268 Si / 1000 Ang^3
#
#
#
# Elastic Constant Matrix: (Units=GPa)
#
#
# Indices 1 2 3 4 5 6 
#
# 1 60.0821 27.3768 -3.8865 0.0000 0.0000 0.0001
# 2 27.3768 60.0827 -3.8863 0.0000 0.0000 0.0001
# 3 -3.8865 -3.8863 33.8949 0.0000 0.0000 0.0001
# 4 0.0000 0.0000 0.0000 20.1291 0.0000 0.0000
# 5 0.0000 0.0000 0.0000 0.0000 20.1291 0.0000
# 6 0.0001 0.0001 0.0001 0.0000 0.0000 16.3529
#
#
#
# Elastic Compliance Matrix: (Units=1/GPa)
#
#
# Indices 1 2 3 4 5 6 
#
# 1 0.021064 -0.009512 0.001325 0.000000 0.000000 0.000000
# 2 -0.009512 0.021064 0.001324 0.000000 0.000000 0.000000
# 3 0.001325 0.001324 0.029807 0.000000 0.000000 0.000000
# 4 0.000000 0.000000 0.000000 0.049679 0.000000 0.000000
# 5 0.000000 0.000000 0.000000 0.000000 0.049679 0.000000
# 6 0.000000 0.000000 0.000000 0.000000 0.000000 0.061151
#
#
# Mechanical properties :
#
#
# Convention : Reuss Voigt Hill
#
# Bulk Modulus (GPa) = 17.17978 21.47419 19.32698
# Shear Modulus (GPa) = 18.82722 20.28592 19.55657
#
# Velocity S-wave (km/s) = 3.12408 3.24285 3.18402
# Velocity P-wave (km/s) = 4.68178 5.01533 4.85142
#
# Compressibility (1/GPa) = 0.05820797
#
# Stress axis : x y z
#
# Youngs Moduli (GPa) = 47.47472 47.47523 33.54952
#
# Poissons Ratio (x) = 0.45159 -0.04444
# Poissons Ratio (y) = 0.45158 -0.04443
# Poissons Ratio (z) = -0.06289 -0.06287
#
# Static dielectric constant tensor:
#      x y z
#    x 1.715380 0.000000 0.000000 
#    y 0.000000 1.715380 0.000000 
#    z 0.000000 0.000000 1.669210 
# 
# From -- ./inp_files/6661.got.cif
#   From: 2010.05.17/outbox.cif.g08.bks.cpg/sg192_4_cif.got.tgz:6661.got - 2010.05.20 12:28:01.
