data_PCOD9588285
_publ_section_title
;
Structure prediction by ZEFSAII (Michael W. Deem and Ramdas Pophale) SiO2 
 PCOD9588285
Probable space group: P 6/M C C
;
_chemical_formula_sum "Si O2"
_cell_formula_units_Z 92
_cell_length_a 13.951086
_cell_length_b 13.951086
_cell_length_c 31.788242
_cell_angle_alpha 90.000000
_cell_angle_beta 90.000000
_cell_angle_gamma 120.000000
_cell_volume 5358.129108
_symmetry_space_group_name_H-M "P 6/M C C"
_symmetry_group_IT_number 192
_symmetry_cell_setting 'hexagonal'
loop_
_space_group_symop_operation_xyz
x,y,z
x-y,x,z
-y,x-y,z
-x,-y,z
-x+y,-x,z
y,-x+y,z
x-y,-y,1/2-z
-x,-x+y,1/2-z
y,x,1/2-z
-y,-x,1/2-z
-x+y,y,1/2-z
x,x-y,1/2-z
-x,-y,-z
-x+y,-x,-z
y,-x+y,-z
x,y,-z
x-y,x,-z
-y,x-y,-z
-x+y,y,1/2+z
x,x-y,1/2+z
-y,-x,1/2+z
y,x,1/2+z
x-y,-y,1/2+z
-x,-x+y,1/2+z
loop_
_atom_site_type_symbol
_atom_site_label
_atom_site_fract_x
_atom_site_fract_y
_atom_site_fract_z
Si Si1 0.666668 0.333334 0.200067
Si Si2 0.752744 0.801322 0.952597
Si Si3 0.538879 0.129058 0.140863
Si Si4 0.202896 0.756330 0.409599
Si Si5 0.240945 0.716086 0.000000
O O1 0.666668 0.333334 0.250000
O O2 0.595707 0.209059 0.180895
O O3 0.859010 0.788492 0.949078
O O4 0.661178 0.745108 0.916717
O O5 0.707162 0.760958 0.000000
O O6 0.446625 0.156584 0.123336
O O7 0.636955 0.180382 0.105616
O O8 0.500000 0.000000 0.146945
O O9 0.257141 0.794009 0.455903
O O10 0.214699 0.590021 0.000000
#
# Coordination Sequence:
#
# PCOD9588285 Si02
#       5
#     8  24  24  24  12
#     4   9  21  39  57  76  98 121 150 189 240 309
#     4  10  20  31  42  56  81 121 170 212 238 259
#     4  10  20  33  52  75 100 124 152 195 243 292
#     4  11  18  31  45  69  98 130 163 196 236 275
#     4  10  16  28  42  62  96 138 166 198 222 268
#
# _framework density 17.170172000000001
#
# number of rings (size 3 to 8) (size 9 to 14) (size 15 to 20)
#    0.261    1.565    3.913    2.348    0.000    1.565 
#    0.000    1.304    0.000    0.000    0.000    0.000 
#    0.000    0.000    0.000    0.000    0.000   77.739 
#
# Total GULP energy -512446.523140 kJ/mol
# GULP energy per Si atom -5570.070904 kJ/mol
# Density = 1.713109 g / cm^3
# Si number density = 17.170172 Si / 1000 Ang^3
#
#
#
# Elastic Constant Matrix: (Units=GPa)
#
#
# Indices 1 2 3 4 5 6 
#
# 1 59.8870 8.2219 21.9822 0.0000 0.0000 0.0000
# 2 8.2219 59.8869 21.9822 0.0000 0.0000 0.0000
# 3 21.9822 21.9822 96.1746 -0.0001 0.0000 0.0000
# 4 0.0000 0.0000 -0.0001 13.4483 0.0001 0.0000
# 5 0.0000 0.0000 0.0000 0.0001 13.4485 0.0000
# 6 0.0000 0.0000 0.0000 0.0000 0.0000 25.8325
#
#
#
# Elastic Compliance Matrix: (Units=1/GPa)
#
#
# Indices 1 2 3 4 5 6 
#
# 1 0.018289 -0.001066 -0.003937 0.000000 0.000000 0.000000
# 2 -0.001066 0.018290 -0.003937 0.000000 0.000000 0.000000
# 3 -0.003937 -0.003937 0.012197 0.000000 0.000000 0.000000
# 4 0.000000 0.000000 0.000000 0.074359 0.000000 0.000000
# 5 0.000000 0.000000 0.000000 0.000000 0.074358 0.000000
# 6 0.000000 0.000000 0.000000 0.000000 0.000000 0.038711
#
#
# Mechanical properties :
#
#
# Convention : Reuss Voigt Hill
#
# Bulk Modulus (GPa) = 32.36498 35.59123 33.97810
# Shear Modulus (GPa) = 18.91205 21.46334 20.18769
#
# Velocity S-wave (km/s) = 3.32241 3.53942 3.43263
# Velocity P-wave (km/s) = 5.79727 6.12183 5.96176
#
# Compressibility (1/GPa) = 0.03089759
#
# Stress axis : x y z
#
# Youngs Moduli (GPa) = 54.67628 54.67615 81.98500
#
# Poissons Ratio (x) = 0.05828 0.32275
# Poissons Ratio (y) = 0.05828 0.32275
# Poissons Ratio (z) = 0.21524 0.21524
#
# Static dielectric constant tensor:
#      x y z
#    x 1.626240 0.000000 0.000000 
#    y 0.000000 1.626250 0.000000 
#    z 0.000000 0.000000 1.554670 
# 
# From -- ./inp_files/6820.got.cif
#   From: 2010.05.17/outbox.cif.g08.bks.cpg/sg192_4_cif.got.tgz:6820.got - 2010.05.20 12:28:01.
