data_PCOD9588579
_publ_section_title
;
Structure prediction by ZEFSAII (Michael W. Deem and Ramdas Pophale) SiO2 
 PCOD9588579
Probable space group: P 6/M C C
;
_chemical_formula_sum "Si O2"
_cell_formula_units_Z 102
_cell_length_a 26.634300
_cell_length_b 26.634300
_cell_length_c 8.402668
_cell_angle_alpha 90.000000
_cell_angle_beta 90.000000
_cell_angle_gamma 120.000000
_cell_volume 5162.147509
_symmetry_space_group_name_H-M "P 6/M C C"
_symmetry_group_IT_number 192
_symmetry_cell_setting 'hexagonal'
loop_
_space_group_symop_operation_xyz
x,y,z
x-y,x,z
-y,x-y,z
-x,-y,z
-x+y,-x,z
y,-x+y,z
x-y,-y,1/2-z
-x,-x+y,1/2-z
y,x,1/2-z
-y,-x,1/2-z
-x+y,y,1/2-z
x,x-y,1/2-z
-x,-y,-z
-x+y,-x,-z
y,-x+y,-z
x,y,-z
x-y,x,-z
-y,x-y,-z
-x+y,y,1/2+z
x,x-y,1/2+z
-y,-x,1/2+z
y,x,1/2+z
x-y,-y,1/2+z
-x,-x+y,1/2+z
loop_
_atom_site_type_symbol
_atom_site_label
_atom_site_fract_x
_atom_site_fract_y
_atom_site_fract_z
Si Si1 0.440380 0.774220 0.309789
Si Si2 0.474708 0.377030 0.691158
Si Si3 0.065692 0.239541 0.187623
Si Si4 0.500000 0.500000 0.750000
Si Si5 0.280862 0.346432 0.189374
O O1 0.375030 0.750059 0.250000
O O2 0.461753 0.730877 0.250000
O O3 0.443507 0.778815 0.500000
O O4 0.476570 0.837651 0.232168
O O5 0.475980 0.390921 0.500000
O O6 0.482568 0.432689 0.790115
O O7 0.413927 0.319536 0.728366
O O8 0.110264 0.220528 0.250000
O O9 0.088535 0.306184 0.238314
O O10 0.000000 0.201313 0.250000
O O11 0.063499 0.236387 0.000000
O O12 0.318050 0.318050 0.250000
O O13 0.275015 0.340828 0.000000
#
# Coordination Sequence:
#
# PCOD9588579 Si02
#       5
#    24  24  24   6  24
#     4  12  26  45  68  91 120 156 204 259 318 381
#     4  11  24  40  63  96 131 169 214 262 322 388
#     4  11  22  39  63  93 127 169 215 264 319 382
#     4  12  22  40  68  98 138 176 218 268 328 400
#     4  10  20  36  57  86 122 161 204 252 305 368
#
# _framework density 19.759219000000002
#
# number of rings (size 3 to 8) (size 9 to 14) (size 15 to 20)
#    0.000    0.941    2.353    6.941    0.000    3.765 
#    0.000    0.000    0.000    0.235    0.000    1.647 
#    0.000    0.000    0.000    0.000    0.000    0.000 
#
# Total GULP energy -568846.260671 kJ/mol
# GULP energy per Si atom -5576.924124 kJ/mol
# Density = 1.971425 g / cm^3
# Si number density = 19.759219 Si / 1000 Ang^3
#
#
#
# Elastic Constant Matrix: (Units=GPa)
#
#
# Indices 1 2 3 4 5 6 
#
# 1 120.6063 51.3409 28.0070 0.0000 0.0000 0.0000
# 2 51.3409 120.6063 28.0070 0.0000 0.0000 0.0000
# 3 28.0070 28.0070 88.8404 0.0000 0.0000 0.0000
# 4 0.0000 0.0000 0.0000 29.5182 0.0000 0.0000
# 5 0.0000 0.0000 0.0000 0.0000 29.5182 0.0000
# 6 0.0000 0.0000 0.0000 0.0000 0.0000 34.6327
#
#
#
# Elastic Compliance Matrix: (Units=1/GPa)
#
#
# Indices 1 2 3 4 5 6 
#
# 1 0.010459 -0.003978 -0.002043 0.000000 0.000000 0.000000
# 2 -0.003978 0.010459 -0.002043 0.000000 0.000000 0.000000
# 3 -0.002043 -0.002043 0.012544 0.000000 0.000000 0.000000
# 4 0.000000 0.000000 0.000000 0.033877 0.000000 0.000000
# 5 0.000000 0.000000 0.000000 0.000000 0.033877 0.000000
# 6 0.000000 0.000000 0.000000 0.000000 0.000000 0.028874
#
#
# Mechanical properties :
#
#
# Convention : Reuss Voigt Hill
#
# Bulk Modulus (GPa) = 57.68973 60.52922 59.10947
# Shear Modulus (GPa) = 32.89489 33.58033 33.23761
#
# Velocity S-wave (km/s) = 4.08461 4.12694 4.10583
# Velocity P-wave (km/s) = 7.17670 7.30813 7.24272
#
# Compressibility (1/GPa) = 0.01733411
#
# Stress axis : x y z
#
# Youngs Moduli (GPa) = 95.60874 95.60874 79.71677
#
# Poissons Ratio (x) = 0.38033 0.16288
# Poissons Ratio (y) = 0.38033 0.16288
# Poissons Ratio (z) = 0.19535 0.19535
#
# Static dielectric constant tensor:
#      x y z
#    x 1.692220 0.000000 0.000000 
#    y 0.000000 1.692220 0.000000 
#    z 0.000000 0.000000 1.706780 
# 
# From -- ./inp_files/890.got.cif
#   From: 2010.05.17/outbox.cif.g08.bks.cpg/sg192_1_cif.got.tgz:890.got - 2010.05.20 12:28:01.
