data_PCOD9588547
_publ_section_title
;
Structure prediction by ZEFSAII (Michael W. Deem and Ramdas Pophale) SiO2 
 PCOD9588547
Probable space group: P 6/M C C
;
_chemical_formula_sum "Si O2"
_cell_formula_units_Z 144
_cell_length_a 31.793355
_cell_length_b 31.793355
_cell_length_c 8.617473
_cell_angle_alpha 90.000000
_cell_angle_beta 90.000000
_cell_angle_gamma 120.000000
_cell_volume 7543.680421
_symmetry_space_group_name_H-M "P 6/M C C"
_symmetry_group_IT_number 192
_symmetry_cell_setting 'hexagonal'
loop_
_space_group_symop_operation_xyz
x,y,z
x-y,x,z
-y,x-y,z
-x,-y,z
-x+y,-x,z
y,-x+y,z
x-y,-y,1/2-z
-x,-x+y,1/2-z
y,x,1/2-z
-y,-x,1/2-z
-x+y,y,1/2-z
x,x-y,1/2-z
-x,-y,-z
-x+y,-x,-z
y,-x+y,-z
x,y,-z
x-y,x,-z
-y,x-y,-z
-x+y,y,1/2+z
x,x-y,1/2+z
-y,-x,1/2+z
y,x,1/2+z
x-y,-y,1/2+z
-x,-x+y,1/2+z
loop_
_atom_site_type_symbol
_atom_site_label
_atom_site_fract_x
_atom_site_fract_y
_atom_site_fract_z
Si Si1 0.759284 0.148011 0.814645
Si Si2 0.755417 0.702414 0.186387
Si Si3 0.146109 0.947224 0.314752
Si Si4 0.052681 0.479106 0.813867
Si Si5 0.481131 0.334478 0.685675
Si Si6 0.759645 0.333295 0.685779
O O1 0.811071 0.188930 0.750000
O O2 0.749676 0.095549 0.761727
O O3 0.717705 0.156611 0.742623
O O4 0.758648 0.150918 0.000000
O O5 0.716924 0.716924 0.250000
O O6 0.808613 0.747944 0.227130
O O7 0.751960 0.697750 0.000000
O O8 0.096442 0.903559 0.250000
O O9 0.143767 0.948017 0.500000
O O10 0.160182 0.000000 0.250000
O O11 0.061321 0.530661 0.750000
O O12 0.095152 0.470760 0.751637
O O13 0.000000 0.439522 0.750000
O O14 0.052147 0.479698 0.000000
O O15 0.483030 0.336433 0.500000
O O16 0.532008 0.343505 0.752819
O O17 0.718266 0.281735 0.750000
O O18 0.749803 0.374902 0.750000
O O19 0.759070 0.333170 0.500000
#
# Coordination Sequence:
#
# PCOD9588547 Si02
#       6
#    24  24  24  24  24  24
#     4  12  25  42  62  87 119 159 201 245 295 354
#     4  10  21  38  60  88 119 155 196 244 295 349
#     4  10  20  34  55  82 114 149 191 238 290 344
#     4  11  22  40  64  93 124 159 200 247 299 354
#     4  12  25  43  64  90 122 160 202 248 297 353
#     4  12  25  44  67  95 126 160 199 245 298 355
#
# _framework density 19.088826000000001
#
# number of rings (size 3 to 8) (size 9 to 14) (size 15 to 20)
#    0.000    0.833    0.000    9.167    0.000    4.000 
#    0.000    3.333    0.000    0.167    0.000    1.167 
#    0.000    0.000    0.000    0.000    0.000    0.000 
#
# Total GULP energy -806123.367315 kJ/mol
# GULP energy per Si atom -5598.078940 kJ/mol
# Density = 1.904538 g / cm^3
# Si number density = 19.088826 Si / 1000 Ang^3
#
#
#
# Elastic Constant Matrix: (Units=GPa)
#
#
# Indices 1 2 3 4 5 6 
#
# 1 67.7276 11.6058 34.2791 0.0000 0.0000 0.0000
# 2 11.6058 67.7276 34.2791 0.0000 0.0000 0.0000
# 3 34.2791 34.2791 173.0880 0.0000 0.0000 0.0000
# 4 0.0000 0.0000 0.0000 44.8876 0.0000 0.0000
# 5 0.0000 0.0000 0.0000 0.0000 44.8876 0.0000
# 6 0.0000 0.0000 0.0000 0.0000 0.0000 28.0609
#
#
#
# Elastic Compliance Matrix: (Units=1/GPa)
#
#
# Indices 1 2 3 4 5 6 
#
# 1 0.016513 -0.001305 -0.003012 0.000000 0.000000 0.000000
# 2 -0.001305 0.016513 -0.003012 0.000000 0.000000 0.000000
# 3 -0.003012 -0.003012 0.006970 0.000000 0.000000 0.000000
# 4 0.000000 0.000000 0.000000 0.022278 0.000000 0.000000
# 5 0.000000 0.000000 0.000000 0.000000 0.022278 0.000000
# 6 0.000000 0.000000 0.000000 0.000000 0.000000 0.035637
#
#
# Mechanical properties :
#
#
# Convention : Reuss Voigt Hill
#
# Bulk Modulus (GPa) = 39.46538 52.09678 45.78108
# Shear Modulus (GPa) = 34.89352 38.79251 36.84302
#
# Velocity S-wave (km/s) = 4.28010 4.51290 4.39804
# Velocity P-wave (km/s) = 6.71901 7.38282 7.05872
#
# Compressibility (1/GPa) = 0.02533866
#
# Stress axis : x y z
#
# Youngs Moduli (GPa) = 60.55806 60.55806 143.46480
#
# Poissons Ratio (x) = 0.07905 0.43209
# Poissons Ratio (y) = 0.07905 0.43209
# Poissons Ratio (z) = 0.18239 0.18239
#
# Static dielectric constant tensor:
#      x y z
#    x 1.647750 0.000000 0.000000 
#    y 0.000000 1.647750 0.000000 
#    z 0.000000 0.000000 1.631810 
# 
# From -- ./inp_files/1176.got.cif
#   From: 2010.05.17/outbox.cif.g08.bks.cpg/sg192_1_cif.got.tgz:1176.got - 2010.05.20 12:28:01.
