data_PCOD9588695
_publ_section_title
;
Structure prediction by ZEFSAII (Michael W. Deem and Ramdas Pophale) SiO2 
 PCOD9588695
Probable space group: P 6/M C C
;
_chemical_formula_sum "Si O2"
_cell_formula_units_Z 104
_cell_length_a 18.539766
_cell_length_b 18.539766
_cell_length_c 18.708616
_cell_angle_alpha 90.000000
_cell_angle_beta 90.000000
_cell_angle_gamma 120.000000
_cell_volume 5569.045800
_symmetry_space_group_name_H-M "P 6/M C C"
_symmetry_group_IT_number 192
_symmetry_cell_setting 'hexagonal'
loop_
_space_group_symop_operation_xyz
x,y,z
x-y,x,z
-y,x-y,z
-x,-y,z
-x+y,-x,z
y,-x+y,z
x-y,-y,1/2-z
-x,-x+y,1/2-z
y,x,1/2-z
-y,-x,1/2-z
-x+y,y,1/2-z
x,x-y,1/2-z
-x,-y,-z
-x+y,-x,-z
y,-x+y,-z
x,y,-z
x-y,x,-z
-y,x-y,-z
-x+y,y,1/2+z
x,x-y,1/2+z
-y,-x,1/2+z
y,x,1/2+z
x-y,-y,1/2+z
-x,-x+y,1/2+z
loop_
_atom_site_type_symbol
_atom_site_label
_atom_site_fract_x
_atom_site_fract_y
_atom_site_fract_z
Si Si1 0.333335 0.666668 0.586666
Si Si2 0.500000 0.500000 0.645629
Si Si3 0.892682 0.801956 0.084694
Si Si4 0.860242 0.638735 0.675594
Si Si5 0.489280 0.654190 0.415243
Si Si6 0.000000 0.620519 0.250000
O O1 0.333334 0.666668 0.500000
O O2 0.239971 0.600106 0.608877
O O3 0.500474 0.425230 0.603264
O O4 0.583456 0.542777 0.694988
O O5 0.852363 0.860525 0.098058
O O6 0.846081 0.720176 0.133694
O O7 0.880398 0.779606 0.000000
O O8 0.812754 0.625507 0.750000
O O9 0.822502 0.559354 0.623825
O O10 0.945864 0.645248 0.701197
O O11 0.497312 0.666989 0.500000
#
# Coordination Sequence:
#
# PCOD9588695 Si02
#       6
#     8  12  24  24  24  12
#     4   9  21  39  58  86 124 150 190 248 298 351
#     4   9  19  36  62  80 115 151 202 248 301 355
#     4  10  21  39  62  89 120 158 204 255 308 365
#     4  11  22  36  58  85 121 157 198 244 301 361
#     4  10  21  39  61  88 118 157 203 250 302 356
#     4   9  20  36  52  80 115 152 192 246 295 354
#
# _framework density 18.674654
#
# number of rings (size 3 to 8) (size 9 to 14) (size 15 to 20)
#    0.000    2.077    0.000    2.654    3.231    0.923 
#    0.000    0.000    0.000    1.385    0.000    0.000 
#    0.000    0.000    0.000    0.000    0.000    0.000 
#
# Total GULP energy -579508.837581 kJ/mol
# GULP energy per Si atom -5572.200361 kJ/mol
# Density = 1.863215 g / cm^3
# Si number density = 18.674654 Si / 1000 Ang^3
#
#
#
# Elastic Constant Matrix: (Units=GPa)
#
#
# Indices 1 2 3 4 5 6 
#
# 1 89.1053 38.2519 42.7504 0.0001 0.0000 0.0002
# 2 38.2519 89.1069 42.7512 0.0000 0.0000 -0.0001
# 3 42.7504 42.7512 89.5289 0.0001 0.0000 0.0002
# 4 0.0001 0.0000 0.0001 30.2821 0.0000 0.0000
# 5 0.0000 0.0000 0.0000 0.0000 30.2821 0.0000
# 6 0.0002 -0.0001 0.0002 0.0000 0.0000 25.4266
#
#
#
# Elastic Compliance Matrix: (Units=1/GPa)
#
#
# Indices 1 2 3 4 5 6 
#
# 1 0.015610 -0.004054 -0.005518 0.000000 0.000000 0.000000
# 2 -0.004054 0.015610 -0.005518 0.000000 0.000000 0.000000
# 3 -0.005518 -0.005518 0.016440 0.000000 0.000000 0.000000
# 4 0.000000 0.000000 0.000000 0.033023 0.000000 0.000000
# 5 0.000000 0.000000 0.000000 0.000000 0.033023 0.000000
# 6 0.000000 0.000000 0.000000 0.000000 0.000000 0.039329
#
#
# Mechanical properties :
#
#
# Convention : Reuss Voigt Hill
#
# Bulk Modulus (GPa) = 57.21005 57.24980 57.22992
# Shear Modulus (GPa) = 26.44906 26.79730 26.62318
#
# Velocity S-wave (km/s) = 3.76747 3.79219 3.77985
# Velocity P-wave (km/s) = 7.04462 7.06380 7.05422
#
# Compressibility (1/GPa) = 0.01747945
#
# Stress axis : x y z
#
# Youngs Moduli (GPa) = 64.05965 64.06039 60.82819
#
# Poissons Ratio (x) = 0.25968 0.33567
# Poissons Ratio (y) = 0.25968 0.33568
# Poissons Ratio (z) = 0.35350 0.35351
#
# Static dielectric constant tensor:
#      x y z
#    x 1.588870 0.000000 0.000000 
#    y 0.000000 1.588870 0.000000 
#    z 0.000000 0.000000 1.655170 
# 
# From -- ./inp_files/4900.got.cif
#   From: 2010.05.17/outbox.cif.g08.bks.cpg/sg192_3_cif.got.tgz:4900.got - 2010.05.20 12:28:01.
