data_PCOD9588298
_publ_section_title
;
Structure prediction by ZEFSAII (Michael W. Deem and Ramdas Pophale) SiO2 
 PCOD9588298
Probable space group: P 6/M C C
;
_chemical_formula_sum "Si O2"
_cell_formula_units_Z 104
_cell_length_a 14.092852
_cell_length_b 14.092852
_cell_length_c 31.100673
_cell_angle_alpha 90.000000
_cell_angle_beta 90.000000
_cell_angle_gamma 120.000000
_cell_volume 5349.315349
_symmetry_space_group_name_H-M "P 6/M C C"
_symmetry_group_IT_number 192
_symmetry_cell_setting 'hexagonal'
loop_
_space_group_symop_operation_xyz
x,y,z
x-y,x,z
-y,x-y,z
-x,-y,z
-x+y,-x,z
y,-x+y,z
x-y,-y,1/2-z
-x,-x+y,1/2-z
y,x,1/2-z
-y,-x,1/2-z
-x+y,y,1/2-z
x,x-y,1/2-z
-x,-y,-z
-x+y,-x,-z
y,-x+y,-z
x,y,-z
x-y,x,-z
-y,x-y,-z
-x+y,y,1/2+z
x,x-y,1/2+z
-y,-x,1/2+z
y,x,1/2+z
x-y,-y,1/2+z
-x,-x+y,1/2+z
loop_
_atom_site_type_symbol
_atom_site_label
_atom_site_fract_x
_atom_site_fract_y
_atom_site_fract_z
Si Si1 0.478916 0.599066 0.589584
Si Si2 0.062123 0.251429 0.000000
Si Si3 0.935208 0.188996 0.403904
Si Si4 0.794861 0.264943 0.637923
Si Si5 0.666668 0.333334 0.199075
Si Si6 0.337703 0.792688 0.500000
O O1 0.500000 0.500000 0.593223
O O2 0.542776 0.692267 0.624429
O O3 0.351223 0.548088 0.601481
O O4 0.509083 0.651319 0.542743
O O5 0.149033 0.209353 0.000000
O O6 0.076122 0.304125 0.952526
O O7 0.899371 0.249962 0.368800
O O8 0.058675 0.210895 0.400428
O O9 0.758398 0.306316 0.679730
O O10 0.666668 0.333334 0.250000
O O11 0.233385 0.671333 0.500000
#
# Coordination Sequence:
#
# PCOD9588298 Si02
#       6
#    24  12  24  24   8  12
#     4  11  20  32  51  72 102 148 182 223 276 311
#     4   8  15  26  43  68 103 151 202 239 259 278
#     4  10  19  32  51  78 116 159 200 235 264 300
#     4  10  20  36  54  81 109 130 177 226 269 336
#     4   9  21  42  69  88 104 127 159 216 294 360
#     4  10  17  32  47  64 107 143 188 231 263 304
#
# _framework density 19.441741
#
# number of rings (size 3 to 8) (size 9 to 14) (size 15 to 20)
#    0.231    1.846    2.308    2.538    0.000    3.692 
#    0.000    4.615    0.000   24.923    0.000    0.000 
#    0.000    1.846    0.000    0.000    0.000    0.000 
#
# Total GULP energy -579717.636767 kJ/mol
# GULP energy per Si atom -5574.208046 kJ/mol
# Density = 1.939749 g / cm^3
# Si number density = 19.441741 Si / 1000 Ang^3
#
#
#
# Elastic Constant Matrix: (Units=GPa)
#
#
# Indices 1 2 3 4 5 6 
#
# 1 80.4862 20.3289 25.6700 0.0000 0.0000 0.0001
# 2 20.3289 80.4865 25.6703 0.0000 0.0000 0.0000
# 3 25.6700 25.6703 115.7486 -0.0001 0.0000 0.0001
# 4 0.0000 0.0000 -0.0001 11.0887 0.0000 0.0000
# 5 0.0000 0.0000 0.0000 0.0000 11.0886 0.0000
# 6 0.0001 0.0000 0.0001 0.0000 0.0000 30.0787
#
#
#
# Elastic Compliance Matrix: (Units=1/GPa)
#
#
# Indices 1 2 3 4 5 6 
#
# 1 0.013903 -0.002721 -0.002480 0.000000 0.000000 0.000000
# 2 -0.002721 0.013903 -0.002480 0.000000 0.000000 0.000000
# 3 -0.002480 -0.002480 0.009739 0.000000 0.000000 0.000000
# 4 0.000000 0.000000 0.000000 0.090182 0.000000 0.000000
# 5 0.000000 0.000000 0.000000 0.000000 0.090183 0.000000
# 6 0.000000 0.000000 0.000000 0.000000 0.000000 0.033246
#
#
# Mechanical properties :
#
#
# Convention : Reuss Voigt Hill
#
# Bulk Modulus (GPa) = 45.07786 46.67330 45.87558
# Shear Modulus (GPa) = 18.25417 24.12135 21.18776
#
# Velocity S-wave (km/s) = 3.06750 3.52618 3.30481
# Velocity P-wave (km/s) = 5.98185 6.37475 6.18142
#
# Compressibility (1/GPa) = 0.02218384
#
# Stress axis : x y z
#
# Youngs Moduli (GPa) = 71.92928 71.92945 102.67610
#
# Poissons Ratio (x) = 0.19568 0.25462
# Poissons Ratio (y) = 0.19568 0.25463
# Poissons Ratio (z) = 0.17838 0.17838
#
# Static dielectric constant tensor:
#      x y z
#    x 1.751060 0.000000 0.000000 
#    y 0.000000 1.751060 0.000000 
#    z 0.000000 0.000000 1.653380 
# 
# From -- ./inp_files/6904.got.cif
#   From: 2010.05.17/outbox.cif.g08.bks.cpg/sg192_4_cif.got.tgz:6904.got - 2010.05.20 12:28:01.
