data_PCOD9588850
_publ_section_title
;
Structure prediction by ZEFSAII (Michael W. Deem and Ramdas Pophale) SiO2 
 PCOD9588850
Probable space group: P 6/M C C
;
_chemical_formula_sum "Si O2"
_cell_formula_units_Z 128
_cell_length_a 22.323706
_cell_length_b 22.323706
_cell_length_c 14.993562
_cell_angle_alpha 90.000000
_cell_angle_beta 90.000000
_cell_angle_gamma 120.000000
_cell_volume 6470.949941
_symmetry_space_group_name_H-M "P 6/M C C"
_symmetry_group_IT_number 192
_symmetry_cell_setting 'hexagonal'
loop_
_space_group_symop_operation_xyz
x,y,z
x-y,x,z
-y,x-y,z
-x,-y,z
-x+y,-x,z
y,-x+y,z
x-y,-y,1/2-z
-x,-x+y,1/2-z
y,x,1/2-z
-y,-x,1/2-z
-x+y,y,1/2-z
x,x-y,1/2-z
-x,-y,-z
-x+y,-x,-z
y,-x+y,-z
x,y,-z
x-y,x,-z
-y,x-y,-z
-x+y,y,1/2+z
x,x-y,1/2+z
-y,-x,1/2+z
y,x,1/2+z
x-y,-y,1/2+z
-x,-x+y,1/2+z
loop_
_atom_site_type_symbol
_atom_site_label
_atom_site_fract_x
_atom_site_fract_y
_atom_site_fract_z
Si Si1 0.211277 0.287735 0.605948
Si Si2 0.291770 0.845896 0.142505
Si Si3 0.845896 0.291770 0.857495
Si Si4 0.211276 0.287736 0.105948
Si Si5 0.586404 0.172808 0.858940
Si Si6 0.666668 0.333334 0.858384
O O1 0.201632 0.275470 0.500000
O O2 0.269223 0.367991 0.617439
O O3 0.139623 0.279245 0.642648
O O4 0.238335 0.238335 0.642752
O O5 0.229175 0.770826 0.112168
O O6 0.291994 0.843296 0.250000
O O7 0.365706 0.858281 0.111298
O O8 0.901232 0.269223 0.882562
O O9 0.858280 0.365705 0.888702
O O10 0.201632 0.275470 0.000000
O O11 0.585302 0.170604 0.750000
O O12 0.626790 0.253578 0.885382
O O13 0.666668 0.333334 0.750000
#
# Coordination Sequence:
#
# PCOD9588850 Si02
#       6
#    24  24  24  24  24   8
#     4   9  18  33  51  68  87 113 143 174 213 264
#     4   9  16  26  43  67  92 118 151 189 223 255
#     4   9  16  26  43  67  92 118 151 189 223 255
#     4   9  18  33  51  68  87 113 143 174 213 264
#     4   9  14  22  38  64  93 120 152 192 232 259
#     4   9  12  18  36  60  88 119 154 192 229 263
#
# _framework density 19.780712999999999
#
# number of rings (size 3 to 8) (size 9 to 14) (size 15 to 20)
#    0.000    3.000    1.875    0.000    0.000    0.750 
#    0.000    1.875    0.000    6.000    0.000    2.625 
#    0.000    0.000    0.000    9.375    0.000    9.750 
#
# Total GULP energy -713568.184452 kJ/mol
# GULP energy per Si atom -5574.751441 kJ/mol
# Density = 1.973569 g / cm^3
# Si number density = 19.780713 Si / 1000 Ang^3
#
#
#
# Elastic Constant Matrix: (Units=GPa)
#
#
# Indices 1 2 3 4 5 6 
#
# 1 127.6219 98.0741 4.3009 0.0000 0.0000 0.0001
# 2 98.0741 127.6216 4.3009 0.0000 0.0000 0.0000
# 3 4.3009 4.3009 52.5822 0.0000 0.0000 0.0000
# 4 0.0000 0.0000 0.0000 12.3658 0.0000 0.0000
# 5 0.0000 0.0000 0.0000 0.0000 12.3658 0.0000
# 6 0.0001 0.0000 0.0000 0.0000 0.0000 14.7740
#
#
#
# Elastic Compliance Matrix: (Units=1/GPa)
#
#
# Indices 1 2 3 4 5 6 
#
# 1 0.019144 -0.014700 -0.000364 0.000000 0.000000 0.000000
# 2 -0.014700 0.019144 -0.000364 0.000000 0.000000 0.000000
# 3 -0.000364 -0.000364 0.019077 0.000000 0.000000 0.000000
# 4 0.000000 0.000000 0.000000 0.080868 0.000000 0.000000
# 5 0.000000 0.000000 0.000000 0.000000 0.080868 0.000000
# 6 0.000000 0.000000 0.000000 0.000000 0.000000 0.067687
#
#
# Mechanical properties :
#
#
# Convention : Reuss Voigt Hill
#
# Bulk Modulus (GPa) = 37.71830 57.90863 47.81346
# Shear Modulus (GPa) = 15.31493 21.31111 18.31302
#
# Velocity S-wave (km/s) = 2.78553 3.28589 3.04600
# Velocity P-wave (km/s) = 5.42726 6.61324 6.04938
#
# Compressibility (1/GPa) = 0.02651233
#
# Stress axis : x y z
#
# Youngs Moduli (GPa) = 52.23547 52.23531 52.41828
#
# Poissons Ratio (x) = 0.76783 0.01906
# Poissons Ratio (y) = 0.76784 0.01906
# Poissons Ratio (z) = 0.01899 0.01899
#
# Static dielectric constant tensor:
#      x y z
#    x 1.693130 0.000000 0.000000 
#    y 0.000000 1.693140 0.000000 
#    z 0.000000 0.000000 1.772060 
# 
# From -- ./inp_files/5017.got.cif
#   From: 2010.05.17/outbox.cif.g08.bks.cpg/sg192_3_cif.got.tgz:5017.got - 2010.05.20 12:28:01.
