data_PCOD9588433
_publ_section_title
;
Structure prediction by ZEFSAII (Michael W. Deem and Ramdas Pophale) SiO2 
 PCOD9588433
Probable space group: P 6/M C C
;
_chemical_formula_sum "Si O2"
_cell_formula_units_Z 72
_cell_length_a 23.160491
_cell_length_b 23.160491
_cell_length_c 8.684385
_cell_angle_alpha 90.000000
_cell_angle_beta 90.000000
_cell_angle_gamma 120.000000
_cell_volume 4034.272451
_symmetry_space_group_name_H-M "P 6/M C C"
_symmetry_group_IT_number 192
_symmetry_cell_setting 'hexagonal'
loop_
_space_group_symop_operation_xyz
x,y,z
x-y,x,z
-y,x-y,z
-x,-y,z
-x+y,-x,z
y,-x+y,z
x-y,-y,1/2-z
-x,-x+y,1/2-z
y,x,1/2-z
-y,-x,1/2-z
-x+y,y,1/2-z
x,x-y,1/2-z
-x,-y,-z
-x+y,-x,-z
y,-x+y,-z
x,y,-z
x-y,x,-z
-y,x-y,-z
-x+y,y,1/2+z
x,x-y,1/2+z
-y,-x,1/2+z
y,x,1/2+z
x-y,-y,1/2+z
-x,-x+y,1/2+z
loop_
_atom_site_type_symbol
_atom_site_label
_atom_site_fract_x
_atom_site_fract_y
_atom_site_fract_z
Si Si1 0.072051 0.271854 0.184771
Si Si2 0.334415 0.405781 0.685038
Si Si3 0.538115 0.333249 0.814481
O O1 0.131773 0.263546 0.250000
O O2 0.082333 0.344294 0.231266
O O3 0.000000 0.218232 0.250000
O O4 0.071404 0.268731 0.000000
O O5 0.389079 0.389079 0.750000
O O6 0.337515 0.405477 0.500000
O O7 0.341841 0.475619 0.733851
O O8 0.606058 0.393943 0.750000
O O9 0.528717 0.264359 0.750000
O O10 0.540441 0.332496 0.000000
#
# Coordination Sequence:
#
# PCOD9588433 Si02
#       3
#    24  24  24
#     4  10  19  33  53  79 108 140 176 217 262 313
#     4   9  20  36  56  81 109 139 174 216 268 320
#     4  11  23  39  57  79 106 141 181 223 267 316
#
# _framework density 17.847083999999999
#
# number of rings (size 3 to 8) (size 9 to 14) (size 15 to 20)
#    0.000    2.000    0.000    3.333    0.000    4.667 
#    0.000    3.333    0.000    0.333    0.000    2.333 
#    0.000    0.000    0.000    0.000    0.000    0.000 
#
# Total GULP energy -402172.309550 kJ/mol
# GULP energy per Si atom -5585.726522 kJ/mol
# Density = 1.780646 g / cm^3
# Si number density = 17.847084 Si / 1000 Ang^3
#
#
#
# Elastic Constant Matrix: (Units=GPa)
#
#
# Indices 1 2 3 4 5 6 
#
# 1 124.0726 86.9874 36.5040 0.0000 0.0000 0.0000
# 2 86.9874 124.0726 36.5040 0.0000 0.0000 0.0000
# 3 36.5040 36.5040 48.1679 0.0000 0.0000 0.0000
# 4 0.0000 0.0000 0.0000 25.5276 0.0000 0.0000
# 5 0.0000 0.0000 0.0000 0.0000 25.5276 0.0000
# 6 0.0000 0.0000 0.0000 0.0000 0.0000 18.5426
#
#
#
# Elastic Compliance Matrix: (Units=1/GPa)
#
#
# Indices 1 2 3 4 5 6 
#
# 1 0.016693 -0.010272 -0.004866 0.000000 0.000000 0.000000
# 2 -0.010272 0.016693 -0.004866 0.000000 0.000000 0.000000
# 3 -0.004866 -0.004866 0.028137 0.000000 0.000000 0.000000
# 4 0.000000 0.000000 0.000000 0.039173 0.000000 0.000000
# 5 0.000000 0.000000 0.000000 0.000000 0.039173 0.000000
# 6 0.000000 0.000000 0.000000 0.000000 0.000000 0.053930
#
#
# Mechanical properties :
#
#
# Convention : Reuss Voigt Hill
#
# Bulk Modulus (GPa) = 46.48187 68.47820 57.48003
# Shear Modulus (GPa) = 20.74864 23.00742 21.87803
#
# Velocity S-wave (km/s) = 3.41336 3.59436 3.50503
# Velocity P-wave (km/s) = 6.45258 7.46181 6.97547
#
# Compressibility (1/GPa) = 0.02151377
#
# Stress axis : x y z
#
# Youngs Moduli (GPa) = 59.90496 59.90496 35.54081
#
# Poissons Ratio (x) = 0.61533 0.17296
# Poissons Ratio (y) = 0.61533 0.17296
# Poissons Ratio (z) = 0.29152 0.29152
#
# Static dielectric constant tensor:
#      x y z
#    x 1.588150 0.000000 0.000000 
#    y 0.000000 1.588150 0.000000 
#    z 0.000000 0.000000 1.602150 
# 
# From -- ./inp_files/520.got.cif
#   From: 2010.05.17/outbox.cif.g08.bks.cpg/sg192_1_cif.got.tgz:520.got - 2010.05.20 12:28:01.
