data_PCOD9588786
_publ_section_title
;
Structure prediction by ZEFSAII (Michael W. Deem and Ramdas Pophale) SiO2 
 PCOD9588786
Probable space group: P 6/M C C
;
_chemical_formula_sum "Si O2"
_cell_formula_units_Z 168
_cell_length_a 26.556753
_cell_length_b 26.556753
_cell_length_c 19.056987
_cell_angle_alpha 90.000000
_cell_angle_beta 90.000000
_cell_angle_gamma 120.000000
_cell_volume 11639.513222
_symmetry_space_group_name_H-M "P 6/M C C"
_symmetry_group_IT_number 192
_symmetry_cell_setting 'hexagonal'
loop_
_space_group_symop_operation_xyz
x,y,z
x-y,x,z
-y,x-y,z
-x,-y,z
-x+y,-x,z
y,-x+y,z
x-y,-y,1/2-z
-x,-x+y,1/2-z
y,x,1/2-z
-y,-x,1/2-z
-x+y,y,1/2-z
x,x-y,1/2-z
-x,-y,-z
-x+y,-x,-z
y,-x+y,-z
x,y,-z
x-y,x,-z
-y,x-y,-z
-x+y,y,1/2+z
x,x-y,1/2+z
-y,-x,1/2+z
y,x,1/2+z
x-y,-y,1/2+z
-x,-x+y,1/2+z
loop_
_atom_site_type_symbol
_atom_site_label
_atom_site_fract_x
_atom_site_fract_y
_atom_site_fract_z
Si Si1 0.135106 0.864895 0.665451
Si Si2 0.933090 0.866181 0.664719
Si Si3 0.631196 0.070662 0.580502
Si Si4 0.324588 0.069766 0.083046
Si Si5 0.254821 0.930232 0.916954
Si Si6 0.368804 0.439467 0.419498
Si Si7 0.535498 0.070995 0.330523
O O1 0.137423 0.862577 0.750000
O O2 0.100841 0.899158 0.646220
O O3 0.198783 0.898754 0.631415
O O4 0.101249 0.801218 0.631415
O O5 0.899061 0.899061 0.640614
O O6 0.934318 0.868636 0.750000
O O7 0.630839 0.088392 0.500000
O O8 0.696506 0.087540 0.600455
O O9 0.595734 0.090266 0.629866
O O10 0.595647 0.999999 0.581067
O O11 0.285754 0.999999 0.091648
O O12 0.322615 0.082139 0.000000
O O13 0.303494 0.912458 0.899544
O O14 0.240475 0.917858 0.000000
O O15 0.369160 0.457553 0.500000
O O16 0.404266 0.494532 0.370135
O O17 0.544549 0.089098 0.250000
O O18 0.500000 0.000000 0.332095
#
# Coordination Sequence:
#
# PCOD9588786 Si02
#       7
#    24  24  24  24  24  24  24
#     4  11  21  30  43  64  88 110 135 175 228 284
#     4   9  17  29  44  61  80 102 130 169 223 288
#     4   8  14  25  40  56  76 105 139 170 197 229
#     4   9  18  32  47  61  79 108 146 182 215 257
#     4   9  18  32  47  61  79 108 146 182 215 257
#     4   8  14  25  40  56  76 105 139 170 197 229
#     4   9  15  21  33  57  85 109 132 159 192 227
#
# _framework density 14.433593999999999
#
# number of rings (size 3 to 8) (size 9 to 14) (size 15 to 20)
#    0.000    3.000    0.000    3.571    0.000    5.143 
#    0.000    2.857    0.000    0.000    0.000    0.000 
#    0.000    6.857    0.000    0.857    0.000   16.714 
#
# Total GULP energy -935453.227482 kJ/mol
# GULP energy per Si atom -5568.173973 kJ/mol
# Density = 1.440074 g / cm^3
# Si number density = 14.433594 Si / 1000 Ang^3
#
#
#
# Elastic Constant Matrix: (Units=GPa)
#
#
# Indices 1 2 3 4 5 6 
#
# 1 95.7281 58.4241 64.4670 0.0000 0.0000 0.0000
# 2 58.4241 95.7281 64.4670 0.0000 0.0000 0.0000
# 3 64.4670 64.4670 78.1369 0.0000 0.0000 0.0000
# 4 0.0000 0.0000 0.0000 21.8392 0.0000 0.0000
# 5 0.0000 0.0000 0.0000 0.0000 21.8392 0.0000
# 6 0.0000 0.0000 0.0000 0.0000 0.0000 18.6520
#
#
#
# Elastic Compliance Matrix: (Units=1/GPa)
#
#
# Indices 1 2 3 4 5 6 
#
# 1 0.023869 -0.002938 -0.017270 0.000000 0.000000 0.000000
# 2 -0.002938 0.023869 -0.017270 0.000000 0.000000 0.000000
# 3 -0.017270 -0.017270 0.041295 0.000000 0.000000 0.000000
# 4 0.000000 0.000000 0.000000 0.045789 0.000000 0.000000
# 5 0.000000 0.000000 0.000000 0.000000 0.045789 0.000000
# 6 0.000000 0.000000 0.000000 0.000000 0.000000 0.053614
#
#
# Mechanical properties :
#
#
# Convention : Reuss Voigt Hill
#
# Bulk Modulus (GPa) = 71.02604 71.58993 71.30799
# Shear Modulus (GPa) = 15.93010 17.94842 16.93926
#
# Velocity S-wave (km/s) = 3.32578 3.53018 3.42950
# Velocity P-wave (km/s) = 8.00396 8.14392 8.07424
#
# Compressibility (1/GPa) = 0.01407934
#
# Stress axis : x y z
#
# Youngs Moduli (GPa) = 41.89514 41.89514 24.21627
#
# Poissons Ratio (x) = 0.12307 0.41820
# Poissons Ratio (y) = 0.12307 0.41820
# Poissons Ratio (z) = 0.72351 0.72351
#
# Static dielectric constant tensor:
#      x y z
#    x 1.465500 0.000000 0.000000 
#    y 0.000000 1.465500 0.000000 
#    z 0.000000 0.000000 1.478420 
# 
# From -- ./inp_files/5355.got.cif
#   From: 2010.05.17/outbox.cif.g08.bks.cpg/sg192_3_cif.got.tgz:5355.got - 2010.05.20 12:28:01.
