data_PCOD9588827
_publ_section_title
;
Structure prediction by ZEFSAII (Michael W. Deem and Ramdas Pophale) SiO2 
 PCOD9588827
Probable space group: P 6/M C C
;
_chemical_formula_sum "Si O2"
_cell_formula_units_Z 132
_cell_length_a 17.714227
_cell_length_b 17.714227
_cell_length_c 23.020049
_cell_angle_alpha 90.000000
_cell_angle_beta 90.000000
_cell_angle_gamma 120.000000
_cell_volume 6255.777400
_symmetry_space_group_name_H-M "P 6/M C C"
_symmetry_group_IT_number 192
_symmetry_cell_setting 'hexagonal'
loop_
_space_group_symop_operation_xyz
x,y,z
x-y,x,z
-y,x-y,z
-x,-y,z
-x+y,-x,z
y,-x+y,z
x-y,-y,1/2-z
-x,-x+y,1/2-z
y,x,1/2-z
-y,-x,1/2-z
-x+y,y,1/2-z
x,x-y,1/2-z
-x,-y,-z
-x+y,-x,-z
y,-x+y,-z
x,y,-z
x-y,x,-z
-y,x-y,-z
-x+y,y,1/2+z
x,x-y,1/2+z
-y,-x,1/2+z
y,x,1/2+z
x-y,-y,1/2+z
-x,-x+y,1/2+z
loop_
_atom_site_type_symbol
_atom_site_label
_atom_site_fract_x
_atom_site_fract_y
_atom_site_fract_z
Si Si1 0.559942 0.922731 0.627533
Si Si2 0.751191 0.778764 0.500000
Si Si3 0.501503 0.876883 0.871156
Si Si4 0.819452 0.622799 0.318488
Si Si5 0.306262 0.849040 0.500000
Si Si6 0.409918 0.297449 0.000000
Si Si7 0.857757 0.802344 0.126575
O O1 0.458499 0.868142 0.645254
O O2 0.615703 0.882536 0.653210
O O3 0.565800 0.918806 0.558113
O O4 0.596224 0.022920 0.642584
O O5 0.646158 0.728776 0.500000
O O6 0.766229 0.695355 0.500000
O O7 0.787234 0.835344 0.442070
O O8 0.536626 0.821278 0.838353
O O9 0.503567 0.860896 0.940271
O O10 0.814436 0.628871 0.250000
O O11 0.904346 0.707771 0.343715
O O12 0.216738 0.757194 0.500000
O O13 0.833828 0.876061 0.142060
#
# Coordination Sequence:
#
# PCOD9588827 Si02
#       7
#    24  12  24  24  12  12  24
#     4  11  23  42  68  99 129 166 215 271 334 400
#     4  12  20  36  66  99 136 176 217 267 333 410
#     4  11  23  41  68  98 131 166 212 273 335 401
#     4  12  26  46  68  92 126 177 233 282 336 401
#     4  12  19  34  64  98 132 162 204 256 321 399
#     4  12  19  36  66  99 134 170 211 258 328 411
#     4  12  25  42  66 100 139 182 227 282 342 408
#
# _framework density 21.100494000000001
#
# number of rings (size 3 to 8) (size 9 to 14) (size 15 to 20)
#    0.000    0.364    5.455    4.545    0.000    5.091 
#    1.091    2.727    0.000    1.091    0.000    0.000 
#    0.000    0.000    0.000    0.000    0.000    0.000 
#
# Total GULP energy -738389.300899 kJ/mol
# GULP energy per Si atom -5593.858340 kJ/mol
# Density = 2.105247 g / cm^3
# Si number density = 21.100494 Si / 1000 Ang^3
#
#
#
# Elastic Constant Matrix: (Units=GPa)
#
#
# Indices 1 2 3 4 5 6 
#
# 1 87.2157 8.2478 8.2450 0.0000 0.0000 0.0000
# 2 8.2478 87.2157 8.2450 0.0000 0.0000 0.0000
# 3 8.2450 8.2450 87.9011 0.0000 0.0000 0.0000
# 4 0.0000 0.0000 0.0000 -7.8973 0.0000 0.0000
# 5 0.0000 0.0000 0.0000 0.0000 -7.8973 0.0000
# 6 0.0000 0.0000 0.0000 0.0000 0.0000 39.4840
#
#
#
# Elastic Compliance Matrix: (Units=1/GPa)
#
#
# Indices 1 2 3 4 5 6 
#
# 1 0.011656 -0.001008 -0.000999 0.000000 0.000000 0.000000
# 2 -0.001008 0.011656 -0.000999 0.000000 0.000000 0.000000
# 3 -0.000999 -0.000999 0.011564 0.000000 0.000000 0.000000
# 4 0.000000 0.000000 0.000000 -0.126626 0.000000 0.000000
# 5 0.000000 0.000000 0.000000 0.000000 -0.126626 0.000000
# 6 0.000000 0.000000 0.000000 0.000000 0.000000 0.025327
#
#
# Mechanical properties :
#
#
# Convention : Reuss Voigt Hill
#
# Bulk Modulus (GPa) = 34.64493 34.64536 34.64514
# Shear Modulus (GPa) = -28.18194 20.57754 -3.80220
#
# Velocity S-wave (km/s) = -3.65856 3.12623 -1.34382
# Velocity P-wave (km/s) = 1.17986 5.43010 3.74793
#
# Compressibility (1/GPa) = 0.02886426
#
# Stress axis : x y z
#
# Youngs Moduli (GPa) = 85.79609 85.79609 86.47688
#
# Poissons Ratio (x) = 0.08647 0.08637
# Poissons Ratio (y) = 0.08647 0.08637
# Poissons Ratio (z) = 0.08569 0.08569
#
# Static dielectric constant tensor:
#      x y z
#    x 1.782320 0.000000 0.000000 
#    y 0.000000 1.782320 0.000000 
#    z 0.000000 0.000000 1.707230 
# 
# From -- ./inp_files/5877.got.cif
#   From: 2010.05.17/outbox.cif.g08.bks.cpg/sg192_3_cif.got.tgz:5877.got - 2010.05.20 12:28:01.
