data_PCOD9588999
_publ_section_title
;
Structure prediction by ZEFSAII (Michael W. Deem and Ramdas Pophale) SiO2 
 PCOD9588999
Probable space group: P 63/M C M
;
_chemical_formula_sum "Si O2"
_cell_formula_units_Z 144
_cell_length_a 23.158432
_cell_length_b 23.158432
_cell_length_c 18.165249
_cell_angle_alpha 90.000000
_cell_angle_beta 90.000000
_cell_angle_gamma 120.000000
_cell_volume 8437.043517
_symmetry_space_group_name_H-M "P 63/M C M"
_symmetry_group_IT_number 193
_symmetry_cell_setting 'hexagonal'
loop_
_space_group_symop_operation_xyz
x,y,z
x-y,x,1/2+z
-y,x-y,z
-x,-y,1/2+z
-x+y,-x,z
y,-x+y,1/2+z
x-y,-y,1/2-z
-x,-x+y,1/2-z
y,x,1/2-z
-y,-x,-z
-x+y,y,-z
x,x-y,-z
-x,-y,-z
-x+y,-x,1/2-z
y,-x+y,-z
x,y,1/2-z
x-y,x,-z
-y,x-y,1/2-z
-x+y,y,1/2+z
x,x-y,1/2+z
-y,-x,1/2+z
y,x,z
x-y,-y,z
-x,-x+y,z
loop_
_atom_site_type_symbol
_atom_site_label
_atom_site_fract_x
_atom_site_fract_y
_atom_site_fract_z
Si Si1 0.536405 0.614084 0.064588
Si Si2 0.402967 0.080131 0.584085
Si Si3 0.434637 0.918943 0.667417
Si Si4 0.151909 0.075661 0.910424
Si Si5 0.833515 0.695023 0.913201
Si Si6 0.074093 0.723420 0.662625
O O1 0.562609 0.562609 0.046314
O O2 0.464381 0.570035 0.101807
O O3 0.583212 0.662740 0.128487
O O4 0.554287 0.659478 0.991895
O O5 0.457366 0.096623 0.647409
O O6 0.351540 0.106098 0.596352
O O7 0.358606 0.000000 0.578334
O O8 0.438699 0.896379 0.750000
O O9 0.480431 0.000000 0.667260
O O10 0.126124 0.126124 0.886570
O O11 0.227460 0.096815 0.888924
O O12 0.101581 0.000000 0.886273
O O13 0.150919 0.075460 0.000000
O O14 0.870993 0.662946 0.871137
O O15 0.847993 0.695986 0.000000
O O16 0.078232 0.723304 0.750000
O O17 0.000000 0.708406 0.641193
#
# Coordination Sequence:
#
# PCOD9588999 Si02
#       6
#    24  24  24  24  24  24
#     4   9  16  29  49  71  96 127 165 205 246 294
#     4  10  19  30  47  71 102 137 172 209 257 320
#     4   9  17  29  46  70 100 131 161 194 238 296
#     4   9  17  28  45  67  92 125 173 231 285 333
#     4  11  20  31  47  70 102 137 171 215 276 340
#     4  10  20  33  50  72  99 133 175 222 268 319
#
# _framework density 17.067589999999999
#
# number of rings (size 3 to 8) (size 9 to 14) (size 15 to 20)
#    0.000    2.333    1.667    2.167    0.000    6.667 
#    0.000    0.000    0.000    1.500    0.000    0.000 
#    1.667    1.667    1.000    0.000    0.000    0.000 
#
# Total GULP energy -802117.399677 kJ/mol
# GULP energy per Si atom -5570.259720 kJ/mol
# Density = 1.702874 g / cm^3
# Si number density = 17.067590 Si / 1000 Ang^3
#
#
#
# Elastic Constant Matrix: (Units=GPa)
#
#
# Indices 1 2 3 4 5 6 
#
# 1 88.0583 43.2036 21.3229 0.0000 0.0000 0.0000
# 2 43.2036 88.0583 21.3229 0.0000 0.0000 0.0000
# 3 21.3229 21.3229 39.7323 0.0000 0.0000 0.0000
# 4 0.0000 0.0000 0.0000 13.1017 0.0000 0.0000
# 5 0.0000 0.0000 0.0000 0.0000 13.1017 0.0000
# 6 0.0000 0.0000 0.0000 0.0000 0.0000 22.4274
#
#
#
# Elastic Compliance Matrix: (Units=1/GPa)
#
#
# Indices 1 2 3 4 5 6 
#
# 1 0.015761 -0.006533 -0.004952 0.000000 0.000000 0.000000
# 2 -0.006533 0.015761 -0.004952 0.000000 0.000000 0.000000
# 3 -0.004952 -0.004952 0.030483 0.000000 0.000000 0.000000
# 4 0.000000 0.000000 0.000000 0.076326 0.000000 0.000000
# 5 0.000000 0.000000 0.000000 0.000000 0.076326 0.000000
# 6 0.000000 0.000000 0.000000 0.000000 0.000000 0.044588
#
#
# Mechanical properties :
#
#
# Convention : Reuss Voigt Hill
#
# Bulk Modulus (GPa) = 34.32860 43.06084 38.69472
# Shear Modulus (GPa) = 16.56561 18.39279 17.47920
#
# Velocity S-wave (km/s) = 3.11881 3.28631 3.20365
# Velocity P-wave (km/s) = 5.75554 6.29954 6.03367
#
# Compressibility (1/GPa) = 0.02913023
#
# Stress axis : x y z
#
# Youngs Moduli (GPa) = 63.44904 63.44904 32.80472
#
# Poissons Ratio (x) = 0.41454 0.16245
# Poissons Ratio (y) = 0.41454 0.16245
# Poissons Ratio (z) = 0.31419 0.31419
#
# Static dielectric constant tensor:
#      x y z
#    x 1.573960 0.000000 0.000000 
#    y 0.000000 1.573960 0.000000 
#    z 0.000000 0.000000 1.598600 
# 
# From -- ./inp_files/6574.got.cif
#   From: 2010.05.17/outbox.cif.g08.bks.cpg/sg193_4_cif.got.tgz:6574.got - 2010.05.20 12:33:02.
