data_PCOD9588334
_publ_section_title
;
Structure prediction by ZEFSAII (Michael W. Deem and Ramdas Pophale) SiO2 
 PCOD9588334
Probable space group: P 6/M C C
;
_chemical_formula_sum "Si O2"
_cell_formula_units_Z 92
_cell_length_a 21.233620
_cell_length_b 21.233620
_cell_length_c 14.399799
_cell_angle_alpha 90.000000
_cell_angle_beta 90.000000
_cell_angle_gamma 120.000000
_cell_volume 5622.573528
_symmetry_space_group_name_H-M "P 6/M C C"
_symmetry_group_IT_number 192
_symmetry_cell_setting 'hexagonal'
loop_
_space_group_symop_operation_xyz
x,y,z
x-y,x,z
-y,x-y,z
-x,-y,z
-x+y,-x,z
y,-x+y,z
x-y,-y,1/2-z
-x,-x+y,1/2-z
y,x,1/2-z
-y,-x,1/2-z
-x+y,y,1/2-z
x,x-y,1/2-z
-x,-y,-z
-x+y,-x,-z
y,-x+y,-z
x,y,-z
x-y,x,-z
-y,x-y,-z
-x+y,y,1/2+z
x,x-y,1/2+z
-y,-x,1/2+z
y,x,1/2+z
x-y,-y,1/2+z
-x,-x+y,1/2+z
loop_
_atom_site_type_symbol
_atom_site_label
_atom_site_fract_x
_atom_site_fract_y
_atom_site_fract_z
Si Si1 0.666668 0.333334 0.863033
Si Si2 0.691880 0.773950 0.139361
Si Si3 0.198393 0.599196 0.000000
Si Si4 0.707748 0.142419 0.500000
Si Si5 0.226049 0.917929 0.360639
Si Si6 0.707747 0.142418 0.000000
O O1 0.666668 0.333334 0.750000
O O2 0.626446 0.252889 0.910416
O O3 0.681950 0.767214 0.250000
O O4 0.751759 0.751759 0.114513
O O5 0.710976 0.855488 0.113433
O O6 0.616947 0.720014 0.087747
O O7 0.149578 0.636987 0.000000
O O8 0.149576 0.512590 0.000000
O O9 0.720015 0.103068 0.412253
O O10 0.775038 0.224963 0.500000
#
# Coordination Sequence:
#
# PCOD9588334 Si02
#       6
#     8  24  12  12  24  12
#     4  10  20  34  52  71 100 133 167 214 256 293
#     4   9  18  32  51  74  98 129 167 205 247 295
#     4  10  20  36  47  76 102 128 172 210 248 306
#     4  10  18  32  51  69  99 128 166 205 249 293
#     4   9  18  32  51  74  98 129 167 205 247 295
#     4  10  18  32  51  69  99 128 166 205 249 293
#
# _framework density 16.362615000000002
#
# number of rings (size 3 to 8) (size 9 to 14) (size 15 to 20)
#    0.000    2.609    2.609    0.783    0.000    2.087 
#    0.000    2.609    0.000    3.652    0.000    3.652 
#    0.000    6.261    0.000    0.522    0.000    0.000 
#
# Total GULP energy -512410.795912 kJ/mol
# GULP energy per Si atom -5569.682564 kJ/mol
# Density = 1.632537 g / cm^3
# Si number density = 16.362615 Si / 1000 Ang^3
#
#
#
# Elastic Constant Matrix: (Units=GPa)
#
#
# Indices 1 2 3 4 5 6 
#
# 1 125.9009 82.8318 39.2651 0.0000 0.0000 0.0000
# 2 82.8318 125.9006 39.2650 0.0000 0.0000 0.0000
# 3 39.2651 39.2650 100.4668 0.0002 0.0000 0.0000
# 4 0.0000 0.0000 0.0002 14.3346 0.0000 0.0000
# 5 0.0000 0.0000 0.0000 0.0000 14.3347 0.0000
# 6 0.0000 0.0000 0.0000 0.0000 0.0000 21.5345
#
#
#
# Elastic Compliance Matrix: (Units=1/GPa)
#
#
# Indices 1 2 3 4 5 6 
#
# 1 0.014418 -0.008801 -0.002195 0.000000 0.000000 0.000000
# 2 -0.008801 0.014418 -0.002195 0.000000 0.000000 0.000000
# 3 -0.002195 -0.002195 0.011669 0.000000 0.000000 0.000000
# 4 0.000000 0.000000 0.000000 0.069761 0.000000 0.000000
# 5 0.000000 0.000000 0.000000 0.000000 0.069761 0.000000
# 6 0.000000 0.000000 0.000000 0.000000 0.000000 0.046437
#
#
# Mechanical properties :
#
#
# Convention : Reuss Voigt Hill
#
# Bulk Modulus (GPa) = 70.81069 74.99912 72.90490
# Shear Modulus (GPa) = 19.41342 22.76785 21.09064
#
# Velocity S-wave (km/s) = 3.44822 3.73427 3.59409
# Velocity P-wave (km/s) = 7.69568 8.03294 7.86612
#
# Compressibility (1/GPa) = 0.01412216
#
# Stress axis : x y z
#
# Youngs Moduli (GPa) = 69.35955 69.35944 85.69434
#
# Poissons Ratio (x) = 0.61043 0.18811
# Poissons Ratio (y) = 0.61043 0.18811
# Poissons Ratio (z) = 0.15225 0.15225
#
# Static dielectric constant tensor:
#      x y z
#    x 1.543650 0.000000 0.000000 
#    y 0.000000 1.543650 0.000000 
#    z 0.000000 0.000000 1.572880 
# 
# From -- ./inp_files/2814.got.cif
#   From: 2010.05.17/outbox.cif.g08.bks.cpg/sg192_2_cif.got.tgz:2814.got - 2010.05.20 12:28:01.
