data_PCOD9588296
_publ_section_title
;
Structure prediction by ZEFSAII (Michael W. Deem and Ramdas Pophale) SiO2 
 PCOD9588296
Probable space group: P 6/M C C
;
_chemical_formula_sum "Si O2"
_cell_formula_units_Z 72
_cell_length_a 17.849776
_cell_length_b 17.849776
_cell_length_c 14.498622
_cell_angle_alpha 90.000000
_cell_angle_beta 90.000000
_cell_angle_gamma 120.000000
_cell_volume 4000.579451
_symmetry_space_group_name_H-M "P 6/M C C"
_symmetry_group_IT_number 192
_symmetry_cell_setting 'hexagonal'
loop_
_space_group_symop_operation_xyz
x,y,z
x-y,x,z
-y,x-y,z
-x,-y,z
-x+y,-x,z
y,-x+y,z
x-y,-y,1/2-z
-x,-x+y,1/2-z
y,x,1/2-z
-y,-x,1/2-z
-x+y,y,1/2-z
x,x-y,1/2-z
-x,-y,-z
-x+y,-x,-z
y,-x+y,-z
x,y,-z
x-y,x,-z
-y,x-y,-z
-x+y,y,1/2+z
x,x-y,1/2+z
-y,-x,1/2+z
y,x,1/2+z
x-y,-y,1/2+z
-x,-x+y,1/2+z
loop_
_atom_site_type_symbol
_atom_site_label
_atom_site_fract_x
_atom_site_fract_y
_atom_site_fract_z
Si Si1 0.573557 0.340219 0.000000
Si Si2 0.664270 0.494187 0.701168
Si Si3 0.918903 0.228282 0.689774
Si Si4 0.941572 0.147292 0.500000
O O1 0.582253 0.254549 0.000000
O O2 0.531549 0.341743 0.094693
O O3 0.575060 0.424941 0.750000
O O4 0.743138 0.486275 0.750000
O O5 0.689437 0.593998 0.694786
O O6 0.840478 0.159523 0.750000
O O7 0.924665 0.191414 0.590044
O O8 0.000000 0.246312 0.750000
O O9 0.042684 0.169366 0.500000
#
# Coordination Sequence:
#
# PCOD9588296 Si02
#       4
#    12  24  24  12
#     4  10  17  30  56  86 121 151 206 262 302 339
#     4  11  20  36  60  88 125 170 217 262 307 362
#     4  11  24  42  65  89 126 170 201 258 327 383
#     4  12  24  44  72 100 127 159 212 265 325 405
#
# _framework density 17.997392000000001
#
# number of rings (size 3 to 8) (size 9 to 14) (size 15 to 20)
#    0.333    0.667    6.667    1.500    0.000    0.667 
#    0.000    1.667    0.000    4.000    0.000    0.000 
#    0.000    0.000    0.000    0.000    0.000    0.000 
#
# Total GULP energy -400857.257383 kJ/mol
# GULP energy per Si atom -5567.461908 kJ/mol
# Density = 1.795643 g / cm^3
# Si number density = 17.997392 Si / 1000 Ang^3
#
#
#
# Elastic Constant Matrix: (Units=GPa)
#
#
# Indices 1 2 3 4 5 6 
#
# 1 74.9347 31.3742 41.1875 0.0000 0.0000 0.0000
# 2 31.3742 74.9347 41.1875 0.0000 0.0000 0.0000
# 3 41.1875 41.1875 178.1374 0.0000 0.0000 0.0000
# 4 0.0000 0.0000 0.0000 -68.7348 0.0000 0.0000
# 5 0.0000 0.0000 0.0000 0.0000 -68.7348 0.0000
# 6 0.0000 0.0000 0.0000 0.0000 0.0000 21.7803
#
#
#
# Elastic Compliance Matrix: (Units=1/GPa)
#
#
# Indices 1 2 3 4 5 6 
#
# 1 0.017208 -0.005748 -0.002650 0.000000 0.000000 0.000000
# 2 -0.005748 0.017208 -0.002650 0.000000 0.000000 0.000000
# 3 -0.002650 -0.002650 0.006839 0.000000 0.000000 0.000000
# 4 0.000000 0.000000 0.000000 -0.014549 0.000000 0.000000
# 5 0.000000 0.000000 0.000000 0.000000 -0.014549 0.000000
# 6 0.000000 0.000000 0.000000 0.000000 0.000000 0.045913
#
#
# Mechanical properties :
#
#
# Convention : Reuss Voigt Hill
#
# Bulk Modulus (GPa) = 52.19282 61.72282 56.95782
# Shear Modulus (GPa) = 57.76819 -8.85404 24.45707
#
# Velocity S-wave (km/s) = 5.67166 -2.22043 3.69036
# Velocity P-wave (km/s) = 8.48254 5.27220 7.06221
#
# Compressibility (1/GPa) = 0.01915972
#
# Stress axis : x y z
#
# Youngs Moduli (GPa) = 58.11217 58.11217 146.22260
#
# Poissons Ratio (x) = 0.33406 0.38743
# Poissons Ratio (y) = 0.33406 0.38743
# Poissons Ratio (z) = 0.15397 0.15397
#
# Static dielectric constant tensor:
#      x y z
#    x 0.233430 0.000000 0.000000 
#    y 0.000000 0.233430 0.000000 
#    z 0.000000 0.000000 1.399230 
# 
# From -- ./inp_files/2437.got.cif
#   From: 2010.05.17/outbox.cif.g08.bks.cpg/sg192_2_cif.got.tgz:2437.got - 2010.05.20 12:28:01.
