data_PCOD9588891
_publ_section_title
;
Structure prediction by ZEFSAII (Michael W. Deem and Ramdas Pophale) SiO2 
 PCOD9588891
Probable space group: P 63/M C M
;
_chemical_formula_sum "Si O2"
_cell_formula_units_Z 144
_cell_length_a 22.772306
_cell_length_b 22.772306
_cell_length_c 18.474776
_cell_angle_alpha 90.000000
_cell_angle_beta 90.000000
_cell_angle_gamma 120.000000
_cell_volume 8297.052441
_symmetry_space_group_name_H-M "P 63/M C M"
_symmetry_group_IT_number 193
_symmetry_cell_setting 'hexagonal'
loop_
_space_group_symop_operation_xyz
x,y,z
x-y,x,1/2+z
-y,x-y,z
-x,-y,1/2+z
-x+y,-x,z
y,-x+y,1/2+z
x-y,-y,1/2-z
-x,-x+y,1/2-z
y,x,1/2-z
-y,-x,-z
-x+y,y,-z
x,x-y,-z
-x,-y,-z
-x+y,-x,1/2-z
y,-x+y,-z
x,y,1/2-z
x-y,x,-z
-y,x-y,1/2-z
-x+y,y,1/2+z
x,x-y,1/2+z
-y,-x,1/2+z
y,x,z
x-y,-y,z
-x,-x+y,z
loop_
_atom_site_type_symbol
_atom_site_label
_atom_site_fract_x
_atom_site_fract_y
_atom_site_fract_z
Si Si1 0.750237 0.626602 0.033564
Si Si2 0.285517 0.205644 0.335442
Si Si3 0.462729 0.917560 0.084044
Si Si4 0.591076 0.920898 0.395138
Si Si5 0.148115 0.223490 0.934577
Si Si6 0.081816 0.657582 0.835298
O O1 0.789852 0.708096 0.031225
O O2 0.723795 0.603730 0.114475
O O3 0.802865 0.605729 0.000000
O O4 0.685904 0.598327 0.980789
O O5 0.282922 0.197071 0.250000
O O6 0.242962 0.242962 0.355177
O O7 0.363325 0.256462 0.359103
O O8 0.251600 0.134063 0.375168
O O9 0.512054 0.892848 0.118299
O O10 0.397515 0.900645 0.131622
O O11 0.506878 0.000000 0.082212
O O12 0.447581 0.895162 0.000000
O O13 0.629253 0.000000 0.374578
O O14 0.175937 0.175937 0.907001
O O15 0.095074 0.190148 0.000000
O O16 0.096789 0.669123 0.750000
O O17 0.000000 0.625278 0.843978
#
# Coordination Sequence:
#
# PCOD9588891 Si02
#       6
#    24  24  24  24  24  24
#     4  11  20  32  50  74 104 147 185 222 270 332
#     4  10  21  36  53  75 104 136 174 227 286 342
#     4   9  16  27  50  76 103 142 177 202 248 327
#     4  10  17  31  53  75 104 139 175 214 261 321
#     4  11  21  34  55  78 102 138 185 230 278 338
#     4  10  20  33  50  78 114 145 178 228 284 329
#
# _framework density 17.355561000000002
#
# number of rings (size 3 to 8) (size 9 to 14) (size 15 to 20)
#    0.000    1.833    5.000    2.000    0.000    1.667 
#    0.000    3.333    0.000    3.000    0.000    0.000 
#    6.667    0.000    0.000    0.000    0.000    0.000 
#
# Total GULP energy -802564.360750 kJ/mol
# GULP energy per Si atom -5573.363616 kJ/mol
# Density = 1.731606 g / cm^3
# Si number density = 17.355561 Si / 1000 Ang^3
#
#
#
# Elastic Constant Matrix: (Units=GPa)
#
#
# Indices 1 2 3 4 5 6 
#
# 1 75.2261 31.4284 36.9351 0.0000 0.0000 0.0000
# 2 31.4284 75.2261 36.9351 0.0000 0.0000 0.0000
# 3 36.9351 36.9351 91.7375 0.0000 0.0000 0.0000
# 4 0.0000 0.0000 0.0000 23.2691 0.0000 0.0000
# 5 0.0000 0.0000 0.0000 0.0000 23.2691 0.0000
# 6 0.0000 0.0000 0.0000 0.0000 0.0000 21.8988
#
#
#
# Elastic Compliance Matrix: (Units=1/GPa)
#
#
# Indices 1 2 3 4 5 6 
#
# 1 0.017917 -0.004915 -0.005235 0.000000 0.000000 0.000000
# 2 -0.004915 0.017917 -0.005235 0.000000 0.000000 0.000000
# 3 -0.005235 -0.005235 0.015116 0.000000 0.000000 0.000000
# 4 0.000000 0.000000 0.000000 0.042975 0.000000 0.000000
# 5 0.000000 0.000000 0.000000 0.000000 0.042975 0.000000
# 6 0.000000 0.000000 0.000000 0.000000 0.000000 0.045665
#
#
# Mechanical properties :
#
#
# Convention : Reuss Voigt Hill
#
# Bulk Modulus (GPa) = 49.55305 50.30966 49.93135
# Shear Modulus (GPa) = 22.72092 22.81346 22.76719
#
# Velocity S-wave (km/s) = 3.62213 3.62950 3.62582
# Velocity P-wave (km/s) = 6.79020 6.82751 6.80888
#
# Compressibility (1/GPa) = 0.02018039
#
# Stress axis : x y z
#
# Youngs Moduli (GPa) = 55.81295 55.81295 66.15575
#
# Poissons Ratio (x) = 0.27434 0.34631
# Poissons Ratio (y) = 0.27434 0.34631
# Poissons Ratio (z) = 0.29216 0.29216
#
# Static dielectric constant tensor:
#      x y z
#    x 1.613650 0.000000 0.000000 
#    y 0.000000 1.613650 0.000000 
#    z 0.000000 0.000000 1.618910 
# 
# From -- ./inp_files/5587.got.cif
#   From: 2010.05.17/outbox.cif.g08.bks.cpg/sg193_3_cif.got.tgz:5587.got - 2010.05.20 12:33:02.
