data_PCOD9588715
_publ_section_title
;
Structure prediction by ZEFSAII (Michael W. Deem and Ramdas Pophale) SiO2 
 PCOD9588715
Probable space group: P 6/M C C
;
_chemical_formula_sum "Si O2"
_cell_formula_units_Z 108
_cell_length_a 14.532390
_cell_length_b 14.532390
_cell_length_c 29.949443
_cell_angle_alpha 90.000000
_cell_angle_beta 90.000000
_cell_angle_gamma 120.000000
_cell_volume 5477.639797
_symmetry_space_group_name_H-M "P 6/M C C"
_symmetry_group_IT_number 192
_symmetry_cell_setting 'hexagonal'
loop_
_space_group_symop_operation_xyz
x,y,z
x-y,x,z
-y,x-y,z
-x,-y,z
-x+y,-x,z
y,-x+y,z
x-y,-y,1/2-z
-x,-x+y,1/2-z
y,x,1/2-z
-y,-x,1/2-z
-x+y,y,1/2-z
x,x-y,1/2-z
-x,-y,-z
-x+y,-x,-z
y,-x+y,-z
x,y,-z
x-y,x,-z
-y,x-y,-z
-x+y,y,1/2+z
x,x-y,1/2+z
-y,-x,1/2+z
y,x,1/2+z
x-y,-y,1/2+z
-x,-x+y,1/2+z
loop_
_atom_site_type_symbol
_atom_site_label
_atom_site_fract_x
_atom_site_fract_y
_atom_site_fract_z
Si Si1 0.600186 0.987320 0.360511
Si Si2 0.445561 0.291375 0.933416
Si Si3 0.210893 0.218621 0.803699
Si Si4 0.629937 0.110344 0.450995
Si Si5 0.251216 0.171713 0.000000
O O1 0.691777 0.014495 0.325422
O O2 0.642949 0.056605 0.406222
O O3 0.500000 0.000000 0.345861
O O4 0.563544 0.870721 0.380761
O O5 0.507680 0.230711 0.945324
O O6 0.517449 0.411967 0.950307
O O7 0.331626 0.223750 0.957698
O O8 0.211118 0.111115 0.816961
O O9 0.222353 0.222353 0.750000
O O10 0.647558 0.076667 0.500000
O O11 0.158127 0.201880 0.000000
#
# Coordination Sequence:
#
# PCOD9588715 Si02
#       5
#    24  24  24  24  12
#     4  10  23  36  57  89 123 163 202 246 310 376
#     4  11  22  36  57  82 118 154 204 255 300 350
#     4  10  21  41  68  96 124 159 207 261 314 370
#     4  11  20  34  56  83 114 159 208 249 299 353
#     4  12  25  40  56  76 108 156 203 254 302 356
#
# _framework density 19.716521
#
# number of rings (size 3 to 8) (size 9 to 14) (size 15 to 20)
#    0.000    1.333    2.222    3.444    1.556    2.667 
#    0.000    0.000    0.000    3.556    0.000    0.000 
#    0.000    0.000    0.000    0.000    0.000    0.000 
#
# Total GULP energy -602471.702541 kJ/mol
# GULP energy per Si atom -5578.441690 kJ/mol
# Density = 1.967165 g / cm^3
# Si number density = 19.716521 Si / 1000 Ang^3
#
#
#
# Elastic Constant Matrix: (Units=GPa)
#
#
# Indices 1 2 3 4 5 6 
#
# 1 137.1041 57.6784 39.1598 0.0000 0.0000 0.0000
# 2 57.6784 137.1041 39.1598 0.0000 0.0000 0.0000
# 3 39.1598 39.1598 43.2497 0.0000 0.0000 0.0000
# 4 0.0000 0.0000 0.0000 28.9662 0.0000 0.0000
# 5 0.0000 0.0000 0.0000 0.0000 28.9662 0.0000
# 6 0.0000 0.0000 0.0000 0.0000 0.0000 39.7128
#
#
#
# Elastic Compliance Matrix: (Units=1/GPa)
#
#
# Indices 1 2 3 4 5 6 
#
# 1 0.010332 -0.002259 -0.007310 0.000000 0.000000 0.000000
# 2 -0.002259 0.010332 -0.007310 0.000000 0.000000 0.000000
# 3 -0.007310 -0.007310 0.036358 0.000000 0.000000 0.000000
# 4 0.000000 0.000000 0.000000 0.034523 0.000000 0.000000
# 5 0.000000 0.000000 0.000000 0.000000 0.034523 0.000000
# 6 0.000000 0.000000 0.000000 0.000000 0.000000 0.025181
#
#
# Mechanical properties :
#
#
# Convention : Reuss Voigt Hill
#
# Bulk Modulus (GPa) = 42.98125 65.49489 54.23807
# Shear Modulus (GPa) = 25.93903 31.62637 28.78270
#
# Velocity S-wave (km/s) = 3.63105 4.00941 3.82491
# Velocity P-wave (km/s) = 6.27904 7.39758 6.86114
#
# Compressibility (1/GPa) = 0.02326596
#
# Stress axis : x y z
#
# Youngs Moduli (GPa) = 96.78939 96.78939 27.50399
#
# Poissons Ratio (x) = 0.21862 0.20104
# Poissons Ratio (y) = 0.21862 0.20104
# Poissons Ratio (z) = 0.70749 0.70749
#
# Static dielectric constant tensor:
#      x y z
#    x 1.756790 0.000000 0.000000 
#    y 0.000000 1.756790 0.000000 
#    z 0.000000 0.000000 1.683940 
# 
# From -- ./inp_files/6862.got.cif
#   From: 2010.05.17/outbox.cif.g08.bks.cpg/sg192_4_cif.got.tgz:6862.got - 2010.05.20 12:28:01.
