data_PCOD9588126
_publ_section_title
;
Structure prediction by ZEFSAII (Michael W. Deem and Ramdas Pophale) SiO2 
 PCOD9588126
Probable space group: P 6/M M M
;
_chemical_formula_sum "Si O2"
_cell_formula_units_Z 144
_cell_length_a 22.264466
_cell_length_b 22.264466
_cell_length_c 20.846388
_cell_angle_alpha 90.000000
_cell_angle_beta 90.000000
_cell_angle_gamma 120.000000
_cell_volume 8949.237113
_symmetry_space_group_name_H-M "P 6/M M M"
_symmetry_group_IT_number 191
_symmetry_cell_setting 'hexagonal'
loop_
_space_group_symop_operation_xyz
x,y,z
x-y,x,z
-y,x-y,z
-x,-y,z
-x+y,-x,z
y,-x+y,z
x-y,-y,-z
-x,-x+y,-z
y,x,-z
-y,-x,-z
-x+y,y,-z
x,x-y,-z
-x,-y,-z
-x+y,-x,-z
y,-x+y,-z
x,y,-z
x-y,x,-z
-y,x-y,-z
-x+y,y,z
x,x-y,z
-y,-x,z
y,x,z
x-y,-y,z
-x,-x+y,z
loop_
_atom_site_type_symbol
_atom_site_label
_atom_site_fract_x
_atom_site_fract_y
_atom_site_fract_z
Si Si1 0.191979 0.526882 0.822507
Si Si2 0.076410 0.786237 0.256775
Si Si3 0.921943 0.706534 0.101803
Si Si4 0.292715 0.440061 0.303636
Si Si5 0.645840 0.565574 0.073288
Si Si6 0.810378 0.333778 0.427136
O O1 0.258701 0.517401 0.832483
O O2 0.214257 0.607129 0.819900
O O3 0.156433 0.490101 0.755438
O O4 0.135799 0.489320 0.878346
O O5 0.138484 0.861517 0.276031
O O6 0.080719 0.781118 0.179506
O O7 0.089707 0.727796 0.287621
O O8 0.000000 0.770601 0.272759
O O9 0.859293 0.718586 0.081741
O O10 0.912032 0.634166 0.076287
O O11 0.000000 0.765646 0.084267
O O12 0.219025 0.438050 0.304653
O O13 0.327919 0.471165 0.371491
O O14 0.592399 0.592399 0.091142
O O15 0.631495 0.540360 0.000000
O O16 0.834487 0.333689 0.500000
O O17 0.805734 0.402867 0.418394
O O18 0.733470 0.266531 0.421337
#
# Coordination Sequence:
#
# PCOD9588126 Si02
#       6
#    24  24  24  24  24  24
#     4  11  22  35  50  69  95 127 161 197 239 290
#     4   9  16  28  48  72  96 121 153 193 234 278
#     4   9  16  28  47  70  94 119 149 186 228 274
#     4   9  17  29  46  69  94 122 159 200 235 269
#     4  10  21  36  53  71  90 115 152 201 250 289
#     4   9  16  26  42  65  94 127 162 200 242 286
#
# _framework density 16.090757
#
# number of rings (size 3 to 8) (size 9 to 14) (size 15 to 20)
#    0.000    2.500    1.667    1.333    0.000    2.667 
#    0.000    2.500    0.000    3.333    0.000    3.500 
#    0.000    0.000    0.000    4.167    0.000    4.333 
#
# Total GULP energy -802681.005181 kJ/mol
# GULP energy per Si atom -5574.173647 kJ/mol
# Density = 1.605413 g / cm^3
# Si number density = 16.090757 Si / 1000 Ang^3
#
#
#
# Elastic Constant Matrix: (Units=GPa)
#
#
# Indices 1 2 3 4 5 6 
#
# 1 64.9020 24.5506 38.5777 0.0000 0.0000 0.0000
# 2 24.5506 64.9020 38.5777 0.0000 0.0000 0.0000
# 3 38.5777 38.5777 84.3690 0.0000 0.0000 0.0000
# 4 0.0000 0.0000 0.0000 1.0030 0.0000 0.0000
# 5 0.0000 0.0000 0.0000 0.0000 1.0030 0.0000
# 6 0.0000 0.0000 0.0000 0.0000 0.0000 20.1757
#
#
#
# Elastic Compliance Matrix: (Units=1/GPa)
#
#
# Indices 1 2 3 4 5 6 
#
# 1 0.021621 -0.003161 -0.008441 0.000000 0.000000 0.000000
# 2 -0.003161 0.021621 -0.008441 0.000000 0.000000 0.000000
# 3 -0.008441 -0.008441 0.019572 0.000000 0.000000 0.000000
# 4 0.000000 0.000000 0.000000 0.996988 0.000000 0.000000
# 5 0.000000 0.000000 0.000000 0.000000 0.996988 0.000000
# 6 0.000000 0.000000 0.000000 0.000000 0.000000 0.049564
#
#
# Mechanical properties :
#
#
# Convention : Reuss Voigt Hill
#
# Bulk Modulus (GPa) = 43.99843 46.39834 45.19838
# Shear Modulus (GPa) = 2.32125 11.93416 7.12770
#
# Velocity S-wave (km/s) = 1.20238 2.72633 2.10697
# Velocity P-wave (km/s) = 5.41580 6.22965 5.83693
#
# Compressibility (1/GPa) = 0.02272809
#
# Stress axis : x y z
#
# Youngs Moduli (GPa) = 46.25183 46.25183 51.09461
#
# Poissons Ratio (x) = 0.14622 0.43126
# Poissons Ratio (y) = 0.14622 0.43126
# Poissons Ratio (z) = 0.39039 0.39039
#
# Static dielectric constant tensor:
#      x y z
#    x 1.534570 0.000000 0.000000 
#    y 0.000000 1.534570 0.000000 
#    z 0.000000 0.000000 1.552130 
# 
# From -- ./inp_files/7598.got.cif
#   From: 2010.05.17/outbox.cif.g08.bks.cpg/sg191_4_cif.got.tgz:7598.got - 2010.05.20 12:20:32.
