data_PCOD9588764
_publ_section_title
;
Structure prediction by ZEFSAII (Michael W. Deem and Ramdas Pophale) SiO2 
 PCOD9588764
Probable space group: P 6/M C C
;
_chemical_formula_sum "Si O2"
_cell_formula_units_Z 68
_cell_length_a 15.823919
_cell_length_b 15.823919
_cell_length_c 14.202906
_cell_angle_alpha 90.000000
_cell_angle_beta 90.000000
_cell_angle_gamma 120.000000
_cell_volume 3079.895256
_symmetry_space_group_name_H-M "P 6/M C C"
_symmetry_group_IT_number 192
_symmetry_cell_setting 'hexagonal'
loop_
_space_group_symop_operation_xyz
x,y,z
x-y,x,z
-y,x-y,z
-x,-y,z
-x+y,-x,z
y,-x+y,z
x-y,-y,1/2-z
-x,-x+y,1/2-z
y,x,1/2-z
-y,-x,1/2-z
-x+y,y,1/2-z
x,x-y,1/2-z
-x,-y,-z
-x+y,-x,-z
y,-x+y,-z
x,y,-z
x-y,x,-z
-y,x-y,-z
-x+y,y,1/2+z
x,x-y,1/2+z
-y,-x,1/2+z
y,x,1/2+z
x-y,-y,1/2+z
-x,-x+y,1/2+z
loop_
_atom_site_type_symbol
_atom_site_label
_atom_site_fract_x
_atom_site_fract_y
_atom_site_fract_z
Si Si1 0.092699 0.348620 0.184503
Si Si2 0.047193 0.218223 0.000000
Si Si3 0.458063 0.572800 0.111985
Si Si4 0.666668 0.333335 0.114928
O O1 0.170860 0.341720 0.250000
O O2 0.131177 0.453936 0.140741
O O3 0.000000 0.319508 0.250000
O O4 0.061406 0.278467 0.094712
O O5 0.126887 0.185939 0.000000
O O6 0.500000 0.500000 0.142626
O O7 0.365701 0.586180 0.143248
O O8 0.445189 0.556954 0.000000
O O9 0.666667 0.333334 0.000000
#
# Coordination Sequence:
#
# PCOD9588764 Si02
#       4
#    24  12  24   8
#     4  12  26  44  72 105 141 187 247 301 364 446
#     4  12  25  46  71 102 142 188 237 306 379 438
#     4  10  23  44  73 105 144 194 240 302 377 446
#     4   9  21  42  70 107 148 187 242 307 373 443
#
# _framework density 22.078673999999999
#
# number of rings (size 3 to 8) (size 9 to 14) (size 15 to 20)
#    0.000    1.059    5.294    0.176    4.941    0.706 
#    0.000    0.000    0.000    0.000    0.000    0.000 
#    0.000    0.000    0.000    0.000    0.000    0.000 
#
# Total GULP energy -379331.390532 kJ/mol
# GULP energy per Si atom -5578.402802 kJ/mol
# Density = 2.202842 g / cm^3
# Si number density = 22.078674 Si / 1000 Ang^3
#
#
#
# Elastic Constant Matrix: (Units=GPa)
#
#
# Indices 1 2 3 4 5 6 
#
# 1 112.7481 38.4354 10.1287 0.0001 0.0001 -0.0004
# 2 38.4354 112.7465 10.1287 0.0004 -0.0001 0.0002
# 3 10.1287 10.1287 88.7994 0.0003 -0.0002 0.0001
# 4 0.0001 0.0004 0.0003 8.1503 0.0002 0.0001
# 5 0.0001 -0.0001 -0.0002 0.0002 8.1494 0.0002
# 6 -0.0004 0.0002 0.0001 0.0001 0.0002 37.1564
#
#
#
# Elastic Compliance Matrix: (Units=1/GPa)
#
#
# Indices 1 2 3 4 5 6 
#
# 1 0.010087 -0.003370 -0.000766 0.000000 0.000000 0.000000
# 2 -0.003370 0.010087 -0.000766 0.000000 0.000000 0.000000
# 3 -0.000766 -0.000766 0.011436 0.000000 0.000000 0.000000
# 4 0.000000 0.000000 0.000000 0.122695 -0.000003 0.000000
# 5 0.000000 0.000000 0.000000 -0.000003 0.122708 0.000000
# 6 0.000000 0.000000 0.000000 0.000000 0.000000 0.026913
#
#
# Mechanical properties :
#
#
# Convention : Reuss Voigt Hill
#
# Bulk Modulus (GPa) = 45.85946 47.96440 46.91193
# Shear Modulus (GPa) = 15.57635 27.73131 21.65383
#
# Velocity S-wave (km/s) = 2.65899 3.54789 3.13510
# Velocity P-wave (km/s) = 5.49937 6.20925 5.86506
#
# Compressibility (1/GPa) = 0.02180575
#
# Stress axis : x y z
#
# Youngs Moduli (GPa) = 99.13836 99.13693 87.44224
#
# Poissons Ratio (x) = 0.33407 0.06700
# Poissons Ratio (y) = 0.33408 0.06700
# Poissons Ratio (z) = 0.07596 0.07596
#
# Static dielectric constant tensor:
#      x y z
#    x 1.959750 0.000000 0.000000 
#    y 0.000000 1.959750 0.000000 
#    z 0.000000 0.000000 1.773190 
# 
# From -- ./inp_files/3803.got.cif
#   From: 2010.05.17/outbox.cif.g08.bks.cpg/sg192_2_cif.got.tgz:3803.got - 2010.05.20 12:28:01.
