data_PCOD9588046
_publ_section_title
;
Structure prediction by ZEFSAII (Michael W. Deem and Ramdas Pophale) SiO2 
 PCOD9588046
Probable space group: P 6/M M M
;
_chemical_formula_sum "Si O2"
_cell_formula_units_Z 192
_cell_length_a 22.752578
_cell_length_b 22.752578
_cell_length_c 24.349847
_cell_angle_alpha 90.000000
_cell_angle_beta 90.000000
_cell_angle_gamma 120.000000
_cell_volume 10916.617464
_symmetry_space_group_name_H-M "P 6/M M M"
_symmetry_group_IT_number 191
_symmetry_cell_setting 'hexagonal'
loop_
_space_group_symop_operation_xyz
x,y,z
x-y,x,z
-y,x-y,z
-x,-y,z
-x+y,-x,z
y,-x+y,z
x-y,-y,-z
-x,-x+y,-z
y,x,-z
-y,-x,-z
-x+y,y,-z
x,x-y,-z
-x,-y,-z
-x+y,-x,-z
y,-x+y,-z
x,y,-z
x-y,x,-z
-y,x-y,-z
-x+y,y,z
x,x-y,z
-y,-x,z
y,x,z
x-y,-y,z
-x,-x+y,z
loop_
_atom_site_type_symbol
_atom_site_label
_atom_site_fract_x
_atom_site_fract_y
_atom_site_fract_z
Si Si1 0.558935 0.847363 0.437523
Si Si2 0.721982 0.924179 0.283444
Si Si3 0.282582 0.076460 0.583926
Si Si4 0.147599 0.715852 0.757317
Si Si5 0.469625 0.389927 0.660588
Si Si6 0.787948 0.711184 0.934838
Si Si7 0.533294 0.199981 0.934011
Si Si8 0.919816 0.334961 0.125876
O O1 0.535351 0.845305 0.500000
O O2 0.542290 0.771145 0.421557
O O3 0.640787 0.892008 0.436564
O O4 0.534254 0.883308 0.394541
O O5 0.752719 0.876360 0.270390
O O6 0.713927 0.923932 0.349488
O O7 0.647714 0.890286 0.258196
O O8 0.766699 0.000000 0.263650
O O9 0.257904 0.128952 0.568401
O O10 0.235645 0.000000 0.565434
O O11 0.227795 0.772206 0.758295
O O12 0.122914 0.658509 0.710687
O O13 0.117110 0.681478 0.815426
O O14 0.539756 0.460245 0.662902
O O15 0.409699 0.409699 0.662493
O O16 0.863405 0.726810 0.921925
O O17 0.771862 0.771862 0.926017
O O18 0.733275 0.647941 0.899367
O O19 0.775834 0.693215 0.000000
O O20 0.608680 0.217359 0.917515
O O21 0.517837 0.258919 0.914732
O O22 0.479006 0.126014 0.912574
O O23 0.530851 0.199605 0.000000
O O24 0.000000 0.389821 0.129169
#
# Coordination Sequence:
#
# PCOD9588046 Si02
#       8
#    24  24  24  24  24  24  24  24
#     4  10  20  35  56  80 104 132 170 215 259 305
#     4   9  16  27  46  69  95 128 166 207 248 294
#     4   9  16  27  45  70  99 131 168 209 253 297
#     4  11  21  36  57  77 103 138 177 218 259 307
#     4  11  23  37  54  78 110 143 171 206 259 322
#     4   9  17  30  48  71 102 139 178 221 272 328
#     4  10  21  38  59  81 108 145 188 229 267 313
#     4  11  22  34  53  82 112 140 174 221 277 331
#
# _framework density 17.587866000000002
#
# number of rings (size 3 to 8) (size 9 to 14) (size 15 to 20)
#    0.000    2.000    1.250    3.500    0.000    4.250 
#    0.000    1.250    0.000    2.375    0.000    2.625 
#    0.000    0.000    0.000    7.125    0.000    8.750 
#
# Total GULP energy -1071037.682653 kJ/mol
# GULP energy per Si atom -5578.321264 kJ/mol
# Density = 1.754784 g / cm^3
# Si number density = 17.587866 Si / 1000 Ang^3
#
#
#
# Elastic Constant Matrix: (Units=GPa)
#
#
# Indices 1 2 3 4 5 6 
#
# 1 81.2906 29.3885 26.6555 0.0000 0.0000 0.0000
# 2 29.3885 81.2906 26.6555 0.0000 0.0000 0.0000
# 3 26.6555 26.6555 47.2862 0.0000 0.0000 0.0000
# 4 0.0000 0.0000 0.0000 58.8262 0.0000 0.0000
# 5 0.0000 0.0000 0.0000 0.0000 58.8262 0.0000
# 6 0.0000 0.0000 0.0000 0.0000 0.0000 25.9510
#
#
#
# Elastic Compliance Matrix: (Units=1/GPa)
#
#
# Indices 1 2 3 4 5 6 
#
# 1 0.015835 -0.003432 -0.006991 0.000000 0.000000 0.000000
# 2 -0.003432 0.015835 -0.006991 0.000000 0.000000 0.000000
# 3 -0.006991 -0.006991 0.029030 0.000000 0.000000 0.000000
# 4 0.000000 0.000000 0.000000 0.016999 0.000000 0.000000
# 5 0.000000 0.000000 0.000000 0.000000 0.016999 0.000000
# 6 0.000000 0.000000 0.000000 0.000000 0.000000 0.038534
#
#
# Mechanical properties :
#
#
# Convention : Reuss Voigt Hill
#
# Bulk Modulus (GPa) = 38.65536 41.69623 40.17580
# Shear Modulus (GPa) = 28.29880 37.19854 32.74867
#
# Velocity S-wave (km/s) = 4.01558 4.60391 4.31978
# Velocity P-wave (km/s) = 6.59742 7.21251 6.91181
#
# Compressibility (1/GPa) = 0.02586963
#
# Stress axis : x y z
#
# Youngs Moduli (GPa) = 63.15167 63.15167 34.44699
#
# Poissons Ratio (x) = 0.21675 0.24084
# Poissons Ratio (y) = 0.21675 0.24084
# Poissons Ratio (z) = 0.44152 0.44152
#
# Static dielectric constant tensor:
#      x y z
#    x 1.590910 0.000000 0.000000 
#    y 0.000000 1.590910 0.000000 
#    z 0.000000 0.000000 1.612010 
# 
# From -- ./inp_files/8125.got.cif
#   From: 2010.05.17/outbox.cif.g08.bks.cpg/sg191_5_cif.got.tgz:8125.got - 2010.05.20 12:20:32.
