data_PCOD9588860
_publ_section_title
;
Structure prediction by ZEFSAII (Michael W. Deem and Ramdas Pophale) SiO2 
 PCOD9588860
Probable space group: P 6/M C C
;
_chemical_formula_sum "Si O2"
_cell_formula_units_Z 128
_cell_length_a 21.000000
_cell_length_b 21.000000
_cell_length_c 21.000000
_cell_angle_alpha 90.000000
_cell_angle_beta 90.000000
_cell_angle_gamma 120.000000
_cell_volume 8020.261264
_symmetry_space_group_name_H-M "P 6/M C C"
_symmetry_group_IT_number 192
_symmetry_cell_setting 'hexagonal'
loop_
_space_group_symop_operation_xyz
x,y,z
x-y,x,z
-y,x-y,z
-x,-y,z
-x+y,-x,z
y,-x+y,z
x-y,-y,1/2-z
-x,-x+y,1/2-z
y,x,1/2-z
-y,-x,1/2-z
-x+y,y,1/2-z
x,x-y,1/2-z
-x,-y,-z
-x+y,-x,-z
y,-x+y,-z
x,y,-z
x-y,x,-z
-y,x-y,-z
-x+y,y,1/2+z
x,x-y,1/2+z
-y,-x,1/2+z
y,x,1/2+z
x-y,-y,1/2+z
-x,-x+y,1/2+z
loop_
_atom_site_type_symbol
_atom_site_label
_atom_site_fract_x
_atom_site_fract_y
_atom_site_fract_z
Si Si1 0.532432 0.297872 0.148806
Si Si2 0.584947 0.169894 0.250000
Si Si3 0.603156 0.498708 0.570258
Si Si4 0.065162 0.625121 0.927422
Si Si5 0.336242 0.413272 0.785841
Si Si6 0.666667 0.333334 0.074054
Si Si7 0.209678 0.790323 0.750000
O O1 0.586131 0.362207 0.196281
O O2 0.488348 0.333492 0.117300
O O3 0.583284 0.287983 0.099079
O O4 0.474247 0.231205 0.189919
O O5 0.500650 0.118029 0.229975
O O6 0.628283 0.493822 0.500000
O O7 0.528222 0.422322 0.582113
O O8 0.583656 0.562850 0.572006
O O9 0.074471 0.669342 0.862611
O O10 0.082865 0.657228 0.000000
O O11 0.378946 0.378946 0.750000
O O12 0.256381 0.379443 0.752973
O O13 0.666667 0.333334 0.000000
#
# Coordination Sequence:
#
# PCOD9588860 Si02
#       7
#    24  12  24  24  24   8  12
#     4  11  20  34  41  56  86 109 145 190 227 270
#     4  10  19  29  48  66  79 108 148 180 230 268
#     4   9  17  29  45  64  87 109 140 189 230 267
#     4   9  17  29  48  71  87 107 145 189 234 272
#     4  11  20  32  51  70  91 117 150 189 228 281
#     4  12  24  31  41  55  75 120 160 176 232 300
#     4  10  24  35  46  68  87 112 147 189 240 272
#
# _framework density 15.959580000000001
#
# number of rings (size 3 to 8) (size 9 to 14) (size 15 to 20)
#    0.000    1.875    1.875    6.469    2.625    0.750 
#    0.000    0.938    0.000    1.125    0.000    0.000 
#    0.000    0.000    0.000    0.281    0.000    0.000 
#
# Total GULP energy -712738.348242 kJ/mol
# GULP energy per Si atom -5568.268346 kJ/mol
# Density = 1.592326 g / cm^3
# Si number density = 15.959580 Si / 1000 Ang^3
#
#
#
# Elastic Constant Matrix: (Units=GPa)
#
#
# Indices 1 2 3 4 5 6 
#
# 1 38.4443 18.1289 23.0489 0.0001 0.0001 -0.0001
# 2 18.1289 38.4448 23.0491 -0.0001 0.0000 0.0001
# 3 23.0489 23.0491 97.7554 -0.0001 0.0003 -0.0001
# 4 0.0001 -0.0001 -0.0001 11.1272 -0.0001 0.0001
# 5 0.0001 0.0000 0.0003 -0.0001 11.1271 -0.0001
# 6 -0.0001 0.0001 -0.0001 0.0001 -0.0001 10.1581
#
#
#
# Elastic Compliance Matrix: (Units=1/GPa)
#
#
# Indices 1 2 3 4 5 6 
#
# 1 0.035552 -0.013672 -0.005159 0.000000 0.000000 0.000001
# 2 -0.013672 0.035551 -0.005159 0.000000 0.000000 -0.000001
# 3 -0.005159 -0.005159 0.012662 0.000000 0.000000 0.000000
# 4 0.000000 0.000000 0.000000 0.089870 0.000001 -0.000001
# 5 0.000000 0.000000 0.000000 0.000001 0.089870 0.000000
# 6 0.000001 -0.000001 0.000000 -0.000001 0.000000 0.098443
#
#
# Mechanical properties :
#
#
# Convention : Reuss Voigt Hill
#
# Bulk Modulus (GPa) = 27.94354 33.67758 30.81056
# Shear Modulus (GPa) = 11.85238 13.84367 12.84803
#
# Velocity S-wave (km/s) = 2.72812 2.94840 2.84039
# Velocity P-wave (km/s) = 5.24123 5.72174 5.48675
#
# Compressibility (1/GPa) = 0.03578644
#
# Stress axis : x y z
#
# Youngs Moduli (GPa) = 28.12809 28.12846 78.97429
#
# Poissons Ratio (x) = 0.38456 0.40742
# Poissons Ratio (y) = 0.38456 0.40742
# Poissons Ratio (z) = 0.14511 0.14511
#
# Static dielectric constant tensor:
#      x y z
#    x 1.584470 0.000000 0.000000 
#    y 0.000000 1.584460 0.000000 
#    z 0.000000 0.000000 1.638220 
# 
# From -- ./inp_files/5046.got.cif
#   From: 2010.05.17/outbox.ucp.g08.bks.cvg/sg192_3_cif.got.tgz:5046.got - 2010.06.11 15:23:19.
