data_PCOD9588830
_publ_section_title
;
Structure prediction by ZEFSAII (Michael W. Deem and Ramdas Pophale) SiO2 
 PCOD9588830
Probable space group: P 6/M C C
;
_chemical_formula_sum "Si O2"
_cell_formula_units_Z 116
_cell_length_a 14.902471
_cell_length_b 14.902471
_cell_length_c 30.146369
_cell_angle_alpha 90.000000
_cell_angle_beta 90.000000
_cell_angle_gamma 120.000000
_cell_volume 5798.053431
_symmetry_space_group_name_H-M "P 6/M C C"
_symmetry_group_IT_number 192
_symmetry_cell_setting 'hexagonal'
loop_
_space_group_symop_operation_xyz
x,y,z
x-y,x,z
-y,x-y,z
-x,-y,z
-x+y,-x,z
y,-x+y,z
x-y,-y,1/2-z
-x,-x+y,1/2-z
y,x,1/2-z
-y,-x,1/2-z
-x+y,y,1/2-z
x,x-y,1/2-z
-x,-y,-z
-x+y,-x,-z
y,-x+y,-z
x,y,-z
x-y,x,-z
-y,x-y,-z
-x+y,y,1/2+z
x,x-y,1/2+z
-y,-x,1/2+z
y,x,1/2+z
x-y,-y,1/2+z
-x,-x+y,1/2+z
loop_
_atom_site_type_symbol
_atom_site_label
_atom_site_fract_x
_atom_site_fract_y
_atom_site_fract_z
Si Si1 0.588443 0.854422 0.000000
Si Si2 0.666668 0.333334 0.303396
Si Si3 0.771180 0.959547 0.066879
Si Si4 0.809415 0.565454 0.802038
Si Si5 0.654619 0.971982 0.148724
Si Si6 0.488504 0.875620 0.500000
Si Si7 0.000000 0.500000 0.914419
O O1 0.663319 0.918787 0.040354
O O2 0.474269 0.840720 0.000000
O O3 0.556582 0.735602 0.000000
O O4 0.666668 0.333334 0.250000
O O5 0.685803 0.445417 0.316761
O O6 0.798498 0.869707 0.056486
O O7 0.742786 0.975184 0.116689
O O8 0.784151 0.568301 0.750000
O O9 0.744454 0.610516 0.825155
O O10 0.927863 0.627949 0.818969
O O11 0.562177 0.965606 0.118389
O O12 0.510862 0.925798 0.549340
#
# Coordination Sequence:
#
# PCOD9588830 Si02
#       7
#    12   8  24  24  24  12  12
#     4  12  25  46  70 102 145 190 234 294 355 435
#     4   9  21  42  66  93 132 172 218 280 357 438
#     4  12  25  45  70 102 140 188 245 300 357 421
#     4  11  24  44  68 101 140 184 234 298 364 433
#     4  12  23  41  69 100 137 182 239 292 357 429
#     4  11  25  42  65  98 146 185 229 282 354 432
#     4  11  24  40  65 102 132 184 231 288 354 429
#
# _framework density 20.006715
#
# number of rings (size 3 to 8) (size 9 to 14) (size 15 to 20)
#    0.000    0.621    4.138    4.138    2.897    0.000 
#    0.000    5.172    0.000    0.000    0.000    2.897 
#    0.000    0.000    0.000    0.000    0.000    0.000 
#
# Total GULP energy -646176.228826 kJ/mol
# GULP energy per Si atom -5570.484731 kJ/mol
# Density = 1.996118 g / cm^3
# Si number density = 20.006715 Si / 1000 Ang^3
#
#
#
# Elastic Constant Matrix: (Units=GPa)
#
#
# Indices 1 2 3 4 5 6 
#
# 1 96.0913 23.1787 10.8884 0.0001 -0.0001 -0.0002
# 2 23.1787 96.0894 10.8876 0.0001 -0.0001 -0.0001
# 3 10.8884 10.8876 61.6268 0.0001 -0.0001 -0.0001
# 4 0.0001 0.0001 0.0001 39.7181 0.0003 0.0000
# 5 -0.0001 -0.0001 -0.0001 0.0003 39.7182 0.0000
# 6 -0.0002 -0.0001 -0.0001 0.0000 0.0000 36.4557
#
#
#
# Elastic Compliance Matrix: (Units=1/GPa)
#
#
# Indices 1 2 3 4 5 6 
#
# 1 0.011189 -0.002526 -0.001531 0.000000 0.000000 0.000000
# 2 -0.002526 0.011190 -0.001531 0.000000 0.000000 0.000000
# 3 -0.001531 -0.001531 0.016768 0.000000 0.000000 0.000000
# 4 0.000000 0.000000 0.000000 0.025177 0.000000 0.000000
# 5 0.000000 0.000000 0.000000 0.000000 0.025177 0.000000
# 6 0.000000 0.000000 0.000000 0.000000 0.000000 0.027431
#
#
# Mechanical properties :
#
#
# Convention : Reuss Voigt Hill
#
# Bulk Modulus (GPa) = 35.74936 38.19077 36.97007
# Shear Modulus (GPa) = 36.38204 37.10191 36.74197
#
# Velocity S-wave (km/s) = 4.26900 4.31103 4.29007
# Velocity P-wave (km/s) = 6.49667 6.62649 6.56190
#
# Compressibility (1/GPa) = 0.02797253
#
# Stress axis : x y z
#
# Youngs Moduli (GPa) = 89.36986 89.36825 59.63889
#
# Poissons Ratio (x) = 0.22572 0.09129
# Poissons Ratio (y) = 0.22572 0.09129
# Poissons Ratio (z) = 0.13680 0.13679
#
# Static dielectric constant tensor:
#      x y z
#    x 1.752580 0.000000 0.000000 
#    y 0.000000 1.752580 0.000000 
#    z 0.000000 0.000000 2.335870 
# 
# From -- ./inp_files/7003.got.cif
#   From: 2010.05.17/outbox.cif.g08.bks.cpg/sg192_4_cif.got.tgz:7003.got - 2010.05.20 12:28:01.
