data_PCOD9588907
_publ_section_title
;
Structure prediction by ZEFSAII (Michael W. Deem and Ramdas Pophale) SiO2 
 PCOD9588907
Probable space group: P 63/M C M
;
_chemical_formula_sum "Si O2"
_cell_formula_units_Z 152
_cell_length_a 17.935354
_cell_length_b 17.935354
_cell_length_c 27.985002
_cell_angle_alpha 90.000000
_cell_angle_beta 90.000000
_cell_angle_gamma 120.000000
_cell_volume 7796.072694
_symmetry_space_group_name_H-M "P 63/M C M"
_symmetry_group_IT_number 193
_symmetry_cell_setting 'hexagonal'
loop_
_space_group_symop_operation_xyz
x,y,z
x-y,x,1/2+z
-y,x-y,z
-x,-y,1/2+z
-x+y,-x,z
y,-x+y,1/2+z
x-y,-y,1/2-z
-x,-x+y,1/2-z
y,x,1/2-z
-y,-x,-z
-x+y,y,-z
x,x-y,-z
-x,-y,-z
-x+y,-x,1/2-z
y,-x+y,-z
x,y,1/2-z
x-y,x,-z
-y,x-y,1/2-z
-x+y,y,1/2+z
x,x-y,1/2+z
-y,-x,1/2+z
y,x,z
x-y,-y,z
-x,-x+y,z
loop_
_atom_site_type_symbol
_atom_site_label
_atom_site_fract_x
_atom_site_fract_y
_atom_site_fract_z
Si Si1 0.524202 0.627320 0.697228
Si Si2 0.102791 0.790923 0.696853
Si Si3 0.666668 0.333334 0.193121
Si Si4 0.104424 0.613494 0.934463
Si Si5 0.339834 0.895493 0.960889
Si Si6 0.173281 0.670926 0.832968
Si Si7 0.759585 0.656752 0.623636
O O1 0.526561 0.663711 0.750000
O O2 0.575712 0.575712 0.699416
O O3 0.427519 0.557459 0.684140
O O4 0.576532 0.699274 0.658097
O O5 0.126163 0.832767 0.750000
O O6 0.134076 0.720907 0.694517
O O7 0.150300 0.852146 0.651588
O O8 0.000000 0.742756 0.692099
O O9 0.666667 0.333334 0.250000
O O10 0.726525 0.296304 0.175112
O O11 0.127807 0.537157 0.938900
O O12 0.149895 0.668996 0.888326
O O13 0.000000 0.565329 0.929298
O O14 0.129710 0.667046 0.983642
O O15 0.256393 0.868674 0.928472
O O16 0.391523 0.000000 0.960326
O O17 0.719994 0.719994 0.622262
#
# Coordination Sequence:
#
# PCOD9588907 Si02
#       7
#    24  24   8  24  24  24  24
#     4  10  18  28  48  77 104 139 189 233 272 328
#     4  11  24  39  56  81 112 145 187 242 300 353
#     4  12  27  39  51  73 104 151 204 252 295 332
#     4   9  16  30  55  82 109 143 184 227 277 336
#     4   8  15  29  54  86 111 138 180 230 279 330
#     4  12  22  36  53  72 108 149 191 235 287 340
#     4  10  19  35  59  84 112 146 187 236 288 344
#
# _framework density 19.496995999999999
#
# number of rings (size 3 to 8) (size 9 to 14) (size 15 to 20)
#    0.000    1.895    1.579    5.211    0.000    2.211 
#    0.000    0.789    0.000    0.316    0.000    0.000 
#    0.000    0.000    0.000    0.000    0.000   12.474 
#
# Total GULP energy -848817.302989 kJ/mol
# GULP energy per Si atom -5584.324362 kJ/mol
# Density = 1.945262 g / cm^3
# Si number density = 19.496996 Si / 1000 Ang^3
#
#
#
# Elastic Constant Matrix: (Units=GPa)
#
#
# Indices 1 2 3 4 5 6 
#
# 1 62.0187 16.6846 33.2367 0.0000 0.0000 -0.0001
# 2 16.6846 62.0185 33.2366 0.0000 0.0000 0.0000
# 3 33.2367 33.2366 141.6192 0.0000 0.0000 -0.0001
# 4 0.0000 0.0000 0.0000 29.0677 0.0000 0.0000
# 5 0.0000 0.0000 0.0000 0.0000 29.0677 0.0000
# 6 -0.0001 0.0000 -0.0001 0.0000 0.0000 22.6674
#
#
#
# Elastic Compliance Matrix: (Units=1/GPa)
#
#
# Indices 1 2 3 4 5 6 
#
# 1 0.018953 -0.003106 -0.003719 0.000000 0.000000 0.000000
# 2 -0.003106 0.018953 -0.003719 0.000000 0.000000 0.000000
# 3 -0.003719 -0.003719 0.008807 0.000000 0.000000 0.000000
# 4 0.000000 0.000000 0.000000 0.034402 0.000000 0.000000
# 5 0.000000 0.000000 0.000000 0.000000 0.034402 0.000000
# 6 0.000000 0.000000 0.000000 0.000000 0.000000 0.044116
#
#
# Mechanical properties :
#
#
# Convention : Reuss Voigt Hill
#
# Bulk Modulus (GPa) = 39.02502 47.99692 43.51097
# Shear Modulus (GPa) = 26.41820 28.32711 27.37265
#
# Velocity S-wave (km/s) = 3.68501 3.81582 3.75099
# Velocity P-wave (km/s) = 6.17779 6.63966 6.41288
#
# Compressibility (1/GPa) = 0.02562459
#
# Stress axis : x y z
#
# Youngs Moduli (GPa) = 52.76257 52.76241 113.54715
#
# Poissons Ratio (x) = 0.16386 0.42230
# Poissons Ratio (y) = 0.16386 0.42230
# Poissons Ratio (z) = 0.19623 0.19623
#
# Static dielectric constant tensor:
#      x y z
#    x 1.701840 0.000000 0.000000 
#    y 0.000000 1.701840 0.000000 
#    z 0.000000 0.000000 1.746360 
# 
# From -- ./inp_files/9217.got.cif
#   From: 2010.05.17/outbox.cif.g08.bks.cpg/sg193_5_cif.got.tgz:9217.got - 2010.05.20 12:33:02.
