data_PCOD9588439
_publ_section_title
;
Structure prediction by ZEFSAII (Michael W. Deem and Ramdas Pophale) SiO2 
 PCOD9588439
Probable space group: P 6/M C C
;
_chemical_formula_sum "Si O2"
_cell_formula_units_Z 144
_cell_length_a 33.223499
_cell_length_b 33.223499
_cell_length_c 8.575774
_cell_angle_alpha 90.000000
_cell_angle_beta 90.000000
_cell_angle_gamma 120.000000
_cell_volume 8197.750519
_symmetry_space_group_name_H-M "P 6/M C C"
_symmetry_group_IT_number 192
_symmetry_cell_setting 'hexagonal'
loop_
_space_group_symop_operation_xyz
x,y,z
x-y,x,z
-y,x-y,z
-x,-y,z
-x+y,-x,z
y,-x+y,z
x-y,-y,1/2-z
-x,-x+y,1/2-z
y,x,1/2-z
-y,-x,1/2-z
-x+y,y,1/2-z
x,x-y,1/2-z
-x,-y,-z
-x+y,-x,-z
y,-x+y,-z
x,y,-z
x-y,x,-z
-y,x-y,-z
-x+y,y,1/2+z
x,x-y,1/2+z
-y,-x,1/2+z
y,x,1/2+z
x-y,-y,1/2+z
-x,-x+y,1/2+z
loop_
_atom_site_type_symbol
_atom_site_label
_atom_site_fract_x
_atom_site_fract_y
_atom_site_fract_z
Si Si1 0.807110 0.524771 0.812871
Si Si2 0.702991 0.895843 0.688581
Si Si3 0.860680 0.809553 0.313284
Si Si4 0.384539 0.527638 0.185952
Si Si5 0.949589 0.558941 0.812483
Si Si6 0.285598 0.383835 0.311009
O O1 0.759071 0.518142 0.750000
O O2 0.821357 0.488507 0.746557
O O3 0.849932 0.575653 0.767379
O O4 0.806079 0.522266 0.000000
O O5 0.690207 0.845104 0.750000
O O6 0.701877 0.894192 0.500000
O O7 0.756064 0.930654 0.737084
O O8 0.665683 0.910069 0.744017
O O9 0.842639 0.842639 0.250000
O O10 0.910865 0.821729 0.250000
O O11 0.861813 0.810762 0.500000
O O12 0.422578 0.577423 0.250000
O O13 0.397041 0.489293 0.249221
O O14 0.385027 0.527335 0.000000
O O15 0.936740 0.598338 0.760943
O O16 0.000000 0.572644 0.750000
O O17 0.948999 0.557074 0.000000
O O18 0.285895 0.382360 0.500000
#
# Coordination Sequence:
#
# PCOD9588439 Si02
#       6
#    24  24  24  24  24  24
#     4  10  19  33  54  81 110 141 176 216 261 312
#     4   9  17  30  47  70 100 135 171 209 248 292
#     4  10  20  34  53  75 101 131 167 206 249 296
#     4  11  22  38  58  80 105 136 174 219 269 321
#     4  10  20  35  52  74 104 139 179 223 268 315
#     4   8  16  30  48  71 104 141 178 218 257 297
#
# _framework density 17.565794
#
# number of rings (size 3 to 8) (size 9 to 14) (size 15 to 20)
#    0.000    2.333    0.000    4.500    0.000    1.667 
#    0.000    5.833    0.000    0.500    0.000    3.500 
#    0.000    0.000    0.000    0.000    0.000    0.000 
#
# Total GULP energy -803611.716848 kJ/mol
# GULP energy per Si atom -5580.636923 kJ/mol
# Density = 1.752581 g / cm^3
# Si number density = 17.565794 Si / 1000 Ang^3
#
#
#
# Elastic Constant Matrix: (Units=GPa)
#
#
# Indices 1 2 3 4 5 6 
#
# 1 81.4990 57.7723 30.9958 0.0000 0.0000 0.0000
# 2 57.7723 81.4990 30.9958 0.0000 0.0000 0.0000
# 3 30.9958 30.9958 71.7054 0.0000 0.0000 0.0000
# 4 0.0000 0.0000 0.0000 25.0601 0.0000 0.0000
# 5 0.0000 0.0000 0.0000 0.0000 25.0601 0.0000
# 6 0.0000 0.0000 0.0000 0.0000 0.0000 11.8634
#
#
#
# Elastic Compliance Matrix: (Units=1/GPa)
#
#
# Indices 1 2 3 4 5 6 
#
# 1 0.025519 -0.016628 -0.003843 0.000000 0.000000 0.000000
# 2 -0.016628 0.025519 -0.003843 0.000000 0.000000 0.000000
# 3 -0.003843 -0.003843 0.017269 0.000000 0.000000 0.000000
# 4 0.000000 0.000000 0.000000 0.039904 0.000000 0.000000
# 5 0.000000 0.000000 0.000000 0.000000 0.039904 0.000000
# 6 0.000000 0.000000 0.000000 0.000000 0.000000 0.084293
#
#
# Mechanical properties :
#
#
# Convention : Reuss Voigt Hill
#
# Bulk Modulus (GPa) = 50.81968 52.69236 51.75602
# Shear Modulus (GPa) = 17.38554 20.05933 18.72243
#
# Velocity S-wave (km/s) = 3.14942 3.38295 3.26827
# Velocity P-wave (km/s) = 6.49762 6.73211 6.61590
#
# Compressibility (1/GPa) = 0.01967742
#
# Stress axis : x y z
#
# Youngs Moduli (GPa) = 39.18687 39.18687 57.90866
#
# Poissons Ratio (x) = 0.65159 0.22256
# Poissons Ratio (y) = 0.65159 0.22256
# Poissons Ratio (z) = 0.15060 0.15060
#
# Static dielectric constant tensor:
#      x y z
#    x 1.584950 0.000000 0.000000 
#    y 0.000000 1.584950 0.000000 
#    z 0.000000 0.000000 1.585320 
# 
# From -- ./inp_files/1204.got.cif
#   From: 2010.05.17/outbox.cif.g08.bks.cpg/sg192_1_cif.got.tgz:1204.got - 2010.05.20 12:28:01.
