data_PCOD9588401
_publ_section_title
;
Structure prediction by ZEFSAII (Michael W. Deem and Ramdas Pophale) SiO2 
 PCOD9588401
Probable space group: P 6/M C C
;
_chemical_formula_sum "Si O2"
_cell_formula_units_Z 120
_cell_length_a 17.110479
_cell_length_b 17.110479
_cell_length_c 29.120138
_cell_angle_alpha 90.000000
_cell_angle_beta 90.000000
_cell_angle_gamma 120.000000
_cell_volume 7383.263967
_symmetry_space_group_name_H-M "P 6/M C C"
_symmetry_group_IT_number 192
_symmetry_cell_setting 'hexagonal'
loop_
_space_group_symop_operation_xyz
x,y,z
x-y,x,z
-y,x-y,z
-x,-y,z
-x+y,-x,z
y,-x+y,z
x-y,-y,1/2-z
-x,-x+y,1/2-z
y,x,1/2-z
-y,-x,1/2-z
-x+y,y,1/2-z
x,x-y,1/2-z
-x,-y,-z
-x+y,-x,-z
y,-x+y,-z
x,y,-z
x-y,x,-z
-y,x-y,-z
-x+y,y,1/2+z
x,x-y,1/2+z
-y,-x,1/2+z
y,x,1/2+z
x-y,-y,1/2+z
-x,-x+y,1/2+z
loop_
_atom_site_type_symbol
_atom_site_label
_atom_site_fract_x
_atom_site_fract_y
_atom_site_fract_z
Si Si1 0.157641 0.468439 0.500000
Si Si2 0.810651 0.975314 0.444508
Si Si3 0.406708 0.001051 0.824153
Si Si4 0.505459 0.642273 0.000000
Si Si5 0.643157 0.644018 0.428896
Si Si6 0.332035 0.852722 0.248629
O O1 0.255607 0.476793 0.500000
O O2 0.166667 0.567024 0.500000
O O3 0.095519 0.412868 0.456377
O O4 0.821671 0.892406 0.428042
O O5 0.814826 0.975278 0.500000
O O6 0.716711 0.968171 0.432578
O O7 0.425504 0.085328 0.792188
O O8 0.500000 0.000000 0.824957
O O9 0.381798 0.007942 0.875900
O O10 0.338626 0.910293 0.796673
O O11 0.555024 0.627189 0.956293
O O12 0.242926 0.757074 0.250000
O O13 0.421490 0.842980 0.250000
#
# Coordination Sequence:
#
# PCOD9588401 Si02
#       6
#    12  24  24  12  24  24
#     4  11  22  35  50  72 102 137 176 217 258 300
#     4  10  19  32  49  72  99 127 162 208 256 299
#     4   9  19  35  51  73 102 132 164 205 254 300
#     4  11  22  35  50  72 102 137 176 217 258 300
#     4  11  20  34  55  73  99 137 177 212 250 306
#     4   9  18  33  54  77 101 127 162 205 254 305
#
# _framework density 16.252973999999998
#
# number of rings (size 3 to 8) (size 9 to 14) (size 15 to 20)
#    0.000    2.000    2.000    5.400    0.000    4.000 
#    0.000    0.000    0.000    4.800    0.000    0.000 
#    0.000    0.000    0.000   10.200    0.000    0.000 
#
# Total GULP energy -669343.531920 kJ/mol
# GULP energy per Si atom -5577.862766 kJ/mol
# Density = 1.621598 g / cm^3
# Si number density = 16.252974 Si / 1000 Ang^3
#
#
#
# Elastic Constant Matrix: (Units=GPa)
#
#
# Indices 1 2 3 4 5 6 
#
# 1 65.8639 1.4355 26.7361 0.0000 0.0000 0.0000
# 2 1.4355 65.8639 26.7361 0.0000 0.0000 0.0000
# 3 26.7361 26.7361 123.9423 0.0000 0.0000 0.0000
# 4 0.0000 0.0000 0.0000 7.8804 0.0000 0.0000
# 5 0.0000 0.0000 0.0000 0.0000 7.8804 0.0000
# 6 0.0000 0.0000 0.0000 0.0000 0.0000 32.2142
#
#
#
# Elastic Compliance Matrix: (Units=1/GPa)
#
#
# Indices 1 2 3 4 5 6 
#
# 1 0.016727 0.001206 -0.003868 0.000000 0.000000 0.000000
# 2 0.001206 0.016727 -0.003868 0.000000 0.000000 0.000000
# 3 -0.003868 -0.003868 0.009737 0.000000 0.000000 0.000000
# 4 0.000000 0.000000 0.000000 0.126897 0.000000 0.000000
# 5 0.000000 0.000000 0.000000 0.000000 0.126897 0.000000
# 6 0.000000 0.000000 0.000000 0.000000 0.000000 0.031042
#
#
# Mechanical properties :
#
#
# Convention : Reuss Voigt Hill
#
# Bulk Modulus (GPa) = 33.19066 40.60952 36.90009
# Shear Modulus (GPa) = 14.23970 22.97917 18.60944
#
# Velocity S-wave (km/s) = 2.96316 3.76419 3.38744
# Velocity P-wave (km/s) = 5.67210 6.62815 6.16867
#
# Compressibility (1/GPa) = 0.03012896
#
# Stress axis : x y z
#
# Youngs Moduli (GPa) = 59.78433 59.78433 102.69941
#
# Poissons Ratio (x) = -0.07208 0.39727
# Poissons Ratio (y) = -0.07208 0.39727
# Poissons Ratio (z) = 0.23126 0.23126
#
# Static dielectric constant tensor:
#      x y z
#    x 1.540510 0.000000 0.000000 
#    y 0.000000 1.540510 0.000000 
#    z 0.000000 0.000000 1.548160 
# 
# From -- ./inp_files/6485.got.cif
#   From: 2010.05.17/outbox.cif.g08.bks.cpg/sg192_4_cif.got.tgz:6485.got - 2010.05.20 12:28:01.
