data_PCOD9588867
_publ_section_title
;
Structure prediction by ZEFSAII (Michael W. Deem and Ramdas Pophale) SiO2 
 PCOD9588867
Probable space group: P 6/M C C
;
_chemical_formula_sum "Si O2"
_cell_formula_units_Z 104
_cell_length_a 21.000000
_cell_length_b 21.000000
_cell_length_c 15.000000
_cell_angle_alpha 90.000000
_cell_angle_beta 90.000000
_cell_angle_gamma 120.000000
_cell_volume 5728.758046
_symmetry_space_group_name_H-M "P 6/M C C"
_symmetry_group_IT_number 192
_symmetry_cell_setting 'hexagonal'
loop_
_space_group_symop_operation_xyz
x,y,z
x-y,x,z
-y,x-y,z
-x,-y,z
-x+y,-x,z
y,-x+y,z
x-y,-y,1/2-z
-x,-x+y,1/2-z
y,x,1/2-z
-y,-x,1/2-z
-x+y,y,1/2-z
x,x-y,1/2-z
-x,-y,-z
-x+y,-x,-z
y,-x+y,-z
x,y,-z
x-y,x,-z
-y,x-y,-z
-x+y,y,1/2+z
x,x-y,1/2+z
-y,-x,1/2+z
y,x,1/2+z
x-y,-y,1/2+z
-x,-x+y,1/2+z
loop_
_atom_site_type_symbol
_atom_site_label
_atom_site_fract_x
_atom_site_fract_y
_atom_site_fract_z
Si Si1 0.089384 0.913249 0.356705
Si Si2 0.579628 0.006153 0.354717
Si Si3 0.425553 0.102206 0.500000
Si Si4 0.666668 0.333334 0.642659
Si Si5 0.880161 0.322177 0.000000
Si Si6 0.599283 0.387208 0.000000
Si Si7 0.692888 0.843845 0.500000
O O1 0.095880 0.904121 0.250000
O O2 0.128321 0.877703 0.415787
O O3 0.001273 0.872274 0.375877
O O4 0.637350 0.077843 0.408865
O O5 0.500000 0.000000 0.365835
O O6 0.590656 0.000000 0.250000
O O7 0.583803 0.943785 0.410722
O O8 0.512433 0.158830 0.500000
O O9 0.362426 0.123686 0.500000
O O10 0.666668 0.333334 0.750000
O O11 0.641983 0.385515 0.592875
O O12 0.814034 0.340087 0.000000
O O13 0.875204 0.243119 0.000000
#
# Coordination Sequence:
#
# PCOD9588867 Si02
#       7
#    24  24  12   8  12  12  12
#     4  10  23  44  68  93 124 166 217 269 324 395
#     4  10  21  39  66  91 115 160 215 258 297 361
#     4  11  22  41  61  88 127 164 203 251 315 368
#     4  10  23  37  58  86 115 157 203 253 304 350
#     4  11  22  41  61  88 127 164 203 251 315 368
#     4  10  20  42  62  82 122 169 211 260 300 374
#     4  12  26  37  61  98 132 169 199 260 331 382
#
# _framework density 18.154022000000001
#
# number of rings (size 3 to 8) (size 9 to 14) (size 15 to 20)
#    0.000    1.615    2.308    3.000    6.462    4.615 
#    0.000    3.462    0.000    0.000    0.000    0.000 
#    0.000    0.000    0.000    0.000    0.000    0.000 
#
# Total GULP energy -579131.014576 kJ/mol
# GULP energy per Si atom -5568.567448 kJ/mol
# Density = 1.811270 g / cm^3
# Si number density = 18.154022 Si / 1000 Ang^3
#
#
#
# Elastic Constant Matrix: (Units=GPa)
#
#
# Indices 1 2 3 4 5 6 
#
# 1 104.6796 40.1775 49.1819 0.0005 -0.0001 -0.0003
# 2 40.1775 104.6782 49.1814 0.0004 -0.0002 -0.0003
# 3 49.1819 49.1814 159.5134 0.0001 0.0004 -0.0002
# 4 0.0005 0.0004 0.0001 38.9522 0.0003 0.0001
# 5 -0.0001 -0.0002 0.0004 0.0003 38.9526 0.0000
# 6 -0.0003 -0.0003 -0.0002 0.0001 0.0000 32.2508
#
#
#
# Elastic Compliance Matrix: (Units=1/GPa)
#
#
# Indices 1 2 3 4 5 6 
#
# 1 0.012117 -0.003386 -0.002692 0.000000 0.000000 0.000000
# 2 -0.003386 0.012118 -0.002692 0.000000 0.000000 0.000000
# 3 -0.002692 -0.002692 0.007929 0.000000 0.000000 0.000000
# 4 0.000000 0.000000 0.000000 0.025672 0.000000 0.000000
# 5 0.000000 0.000000 0.000000 0.000000 0.025672 0.000000
# 6 0.000000 0.000000 0.000000 0.000000 0.000000 0.031007
#
#
# Mechanical properties :
#
#
# Convention : Reuss Voigt Hill
#
# Bulk Modulus (GPa) = 68.38261 71.77253 70.07757
# Shear Modulus (GPa) = 36.51478 37.38648 36.95063
#
# Velocity S-wave (km/s) = 4.48972 4.54299 4.51643
# Velocity P-wave (km/s) = 8.03906 8.19387 8.11683
#
# Compressibility (1/GPa) = 0.01462360
#
# Stress axis : x y z
#
# Youngs Moduli (GPa) = 82.52587 82.52490 126.11702
#
# Poissons Ratio (x) = 0.27943 0.33952
# Poissons Ratio (y) = 0.27944 0.33952
# Poissons Ratio (z) = 0.22217 0.22217
#
# Static dielectric constant tensor:
#      x y z
#    x 1.660390 0.000000 0.000000 
#    y 0.000000 1.660400 0.000000 
#    z 0.000000 0.000000 1.575650 
# 
# From -- ./inp_files/2977.got.cif
#   From: 2010.05.17/outbox.ucp.g08.bks.cvg/sg192_2_cif.got.tgz:2977.got - 2010.06.11 15:23:19.
