data_PCOD9588794
_publ_section_title
;
Structure prediction by ZEFSAII (Michael W. Deem and Ramdas Pophale) SiO2 
 PCOD9588794
Probable space group: P 6/M C C
;
_chemical_formula_sum "Si O2"
_cell_formula_units_Z 120
_cell_length_a 14.120852
_cell_length_b 14.120852
_cell_length_c 33.956915
_cell_angle_alpha 90.000000
_cell_angle_beta 90.000000
_cell_angle_gamma 120.000000
_cell_volume 5863.820422
_symmetry_space_group_name_H-M "P 6/M C C"
_symmetry_group_IT_number 192
_symmetry_cell_setting 'hexagonal'
loop_
_space_group_symop_operation_xyz
x,y,z
x-y,x,z
-y,x-y,z
-x,-y,z
-x+y,-x,z
y,-x+y,z
x-y,-y,1/2-z
-x,-x+y,1/2-z
y,x,1/2-z
-y,-x,1/2-z
-x+y,y,1/2-z
x,x-y,1/2-z
-x,-y,-z
-x+y,-x,-z
y,-x+y,-z
x,y,-z
x-y,x,-z
-y,x-y,-z
-x+y,y,1/2+z
x,x-y,1/2+z
-y,-x,1/2+z
y,x,1/2+z
x-y,-y,1/2+z
-x,-x+y,1/2+z
loop_
_atom_site_type_symbol
_atom_site_label
_atom_site_fract_x
_atom_site_fract_y
_atom_site_fract_z
Si Si1 0.202471 0.645062 0.842809
Si Si2 0.244482 0.827661 0.589448
Si Si3 0.145211 0.254192 0.837537
Si Si4 0.707495 0.592202 0.226986
Si Si5 0.039192 0.410600 0.953440
O O1 0.239829 0.556200 0.837036
O O2 0.176211 0.655392 0.888123
O O3 0.119687 0.634729 0.809059
O O4 0.191278 0.851374 0.627136
O O5 0.150990 0.717988 0.568414
O O6 0.298431 0.934137 0.561709
O O7 0.191773 0.174060 0.841085
O O8 0.188458 0.311938 0.795671
O O9 0.640627 0.640627 0.250000
O O10 0.767962 0.535924 0.250000
O O11 0.000000 0.500000 0.947696
O O12 0.056330 0.405721 0.000000
#
# Coordination Sequence:
#
# PCOD9588794 Si02
#       5
#    24  24  24  24  24
#     4   9  22  41  62  89 118 164 224 265 324 398
#     4  11  21  41  67  92 134 170 218 281 331 401
#     4  11  21  37  62  92 121 164 216 257 315 392
#     4  11  22  38  62  86 124 162 204 265 327 380
#     4  11  24  41  66 100 135 178 224 275 349 416
#
# _framework density 20.464475
#
# number of rings (size 3 to 8) (size 9 to 14) (size 15 to 20)
#    0.400    1.000    4.000    2.000    0.000    0.800 
#    1.200    4.000    0.000    0.000    0.000    2.800 
#    0.000    0.000    0.000    0.000    0.000    0.000 
#
# Total GULP energy -668887.962493 kJ/mol
# GULP energy per Si atom -5574.066354 kJ/mol
# Density = 2.041790 g / cm^3
# Si number density = 20.464475 Si / 1000 Ang^3
#
#
#
# Elastic Constant Matrix: (Units=GPa)
#
#
# Indices 1 2 3 4 5 6 
#
# 1 75.0322 14.5019 48.6796 0.0000 0.0000 0.0000
# 2 14.5019 75.0322 48.6796 0.0000 0.0000 0.0000
# 3 48.6796 48.6796 136.5969 0.0000 0.0000 0.0000
# 4 0.0000 0.0000 0.0000 27.8529 0.0000 0.0000
# 5 0.0000 0.0000 0.0000 0.0000 27.8529 0.0000
# 6 0.0000 0.0000 0.0000 0.0000 0.0000 30.2651
#
#
#
# Elastic Compliance Matrix: (Units=1/GPa)
#
#
# Indices 1 2 3 4 5 6 
#
# 1 0.017378 0.000857 -0.006499 0.000000 0.000000 0.000000
# 2 0.000857 0.017378 -0.006499 0.000000 0.000000 0.000000
# 3 -0.006499 -0.006499 0.011953 0.000000 0.000000 0.000000
# 4 0.000000 0.000000 0.000000 0.035903 0.000000 0.000000
# 5 0.000000 0.000000 0.000000 0.000000 0.035903 0.000000
# 6 0.000000 0.000000 0.000000 0.000000 0.000000 0.033041
#
#
# Mechanical properties :
#
#
# Convention : Reuss Voigt Hill
#
# Bulk Modulus (GPa) = 44.58483 56.70930 50.64706
# Shear Modulus (GPa) = 27.27582 28.84750 28.06166
#
# Velocity S-wave (km/s) = 3.65477 3.75859 3.70704
# Velocity P-wave (km/s) = 6.29631 6.82695 6.56699
#
# Compressibility (1/GPa) = 0.02242915
#
# Stress axis : x y z
#
# Youngs Moduli (GPa) = 57.54355 57.54355 83.66267
#
# Poissons Ratio (x) = -0.04934 0.54370
# Poissons Ratio (y) = -0.04934 0.54370
# Poissons Ratio (z) = 0.37396 0.37396
#
# Static dielectric constant tensor:
#      x y z
#    x 1.765080 0.000000 0.000000 
#    y 0.000000 1.765080 0.000000 
#    z 0.000000 0.000000 1.745200 
# 
# From -- ./inp_files/6949.got.cif
#   From: 2010.05.17/outbox.cif.g08.bks.cpg/sg192_4_cif.got.tgz:6949.got - 2010.05.20 12:28:01.
