data_PCOD9588104
_publ_section_title
;
Structure prediction by ZEFSAII (Michael W. Deem and Ramdas Pophale) SiO2 
 PCOD9588104
Probable space group: P 6/M M M
;
_chemical_formula_sum "Si O2"
_cell_formula_units_Z 72
_cell_length_a 23.532340
_cell_length_b 23.532340
_cell_length_c 10.369017
_cell_angle_alpha 90.000000
_cell_angle_beta 90.000000
_cell_angle_gamma 120.000000
_cell_volume 4972.770853
_symmetry_space_group_name_H-M "P 6/M M M"
_symmetry_group_IT_number 191
_symmetry_cell_setting 'hexagonal'
loop_
_space_group_symop_operation_xyz
x,y,z
x-y,x,z
-y,x-y,z
-x,-y,z
-x+y,-x,z
y,-x+y,z
x-y,-y,-z
-x,-x+y,-z
y,x,-z
-y,-x,-z
-x+y,y,-z
x,x-y,-z
-x,-y,-z
-x+y,-x,-z
y,-x+y,-z
x,y,-z
x-y,x,-z
-y,x-y,-z
-x+y,y,z
x,x-y,z
-y,-x,z
y,x,z
x-y,-y,z
-x,-x+y,z
loop_
_atom_site_type_symbol
_atom_site_label
_atom_site_fract_x
_atom_site_fract_y
_atom_site_fract_z
Si Si1 0.446645 0.553356 0.000000
Si Si2 0.000000 0.500000 0.220495
Si Si3 0.825621 0.529993 0.000000
Si Si4 0.374793 0.374793 0.651364
Si Si5 0.855554 0.273998 0.712757
Si Si6 0.800502 0.468295 0.500000
O O1 0.468974 0.531027 0.873751
O O2 0.479289 0.629597 0.000000
O O3 0.000000 0.560697 0.292439
O O4 0.849170 0.569159 0.866167
O O5 0.747854 0.495708 0.000000
O O6 0.382018 0.382018 0.500000
O O7 0.308300 0.375245 0.687142
O O8 0.802071 0.197929 0.678281
O O9 0.831992 0.316393 0.625524
O O10 0.723482 0.446964 0.500000
O O11 0.810616 0.405308 0.500000
#
# Coordination Sequence:
#
# PCOD9588104 Si02
#       6
#     6   6  12  12  24  12
#     4  11  20  34  52  68 100 124 162 216 260 296
#     4  11  23  32  46  80  99 123 164 210 254 300
#     4  10  21  37  52  65  94 128 158 202 254 300
#     4  12  22  33  54  73  97 132 163 204 253 302
#     4  10  22  37  52  73  97 124 161 205 251 300
#     4  10  21  35  49  65  92 127 163 203 249 300
#
# _framework density 14.47885
#
# number of rings (size 3 to 8) (size 9 to 14) (size 15 to 20)
#    0.000    1.500    5.000    0.417    4.667    0.667 
#    0.500    0.000    0.000    0.000    0.000    0.000 
#    0.000    0.000    0.000    0.500    0.000    2.167 
#
# Total GULP energy -400924.802889 kJ/mol
# GULP energy per Si atom -5568.400040 kJ/mol
# Density = 1.444590 g / cm^3
# Si number density = 14.478850 Si / 1000 Ang^3
#
#
#
# Elastic Constant Matrix: (Units=GPa)
#
#
# Indices 1 2 3 4 5 6 
#
# 1 101.8505 65.9532 31.3838 0.0000 0.0000 0.0000
# 2 65.9532 101.8505 31.3838 0.0000 0.0000 0.0000
# 3 31.3838 31.3838 105.9768 0.0000 0.0000 0.0000
# 4 0.0000 0.0000 0.0000 -1.7969 0.0000 0.0000
# 5 0.0000 0.0000 0.0000 0.0000 -1.7969 0.0000
# 6 0.0000 0.0000 0.0000 0.0000 0.0000 17.9486
#
#
#
# Elastic Compliance Matrix: (Units=1/GPa)
#
#
# Indices 1 2 3 4 5 6 
#
# 1 0.017279 -0.010578 -0.001985 0.000000 0.000000 0.000000
# 2 -0.010578 0.017279 -0.001985 0.000000 0.000000 0.000000
# 3 -0.001985 -0.001985 0.010611 0.000000 0.000000 0.000000
# 4 0.000000 0.000000 0.000000 -0.556521 0.000000 0.000000
# 5 0.000000 0.000000 0.000000 0.000000 -0.556521 0.000000
# 6 0.000000 0.000000 0.000000 0.000000 0.000000 0.055715
#
#
# Mechanical properties :
#
#
# Convention : Reuss Voigt Hill
#
# Bulk Modulus (GPa) = 62.20317 63.01329 62.60823
# Shear Modulus (GPa) = -5.11402 14.93478 4.91038
#
# Velocity S-wave (km/s) = -1.88142 3.21517 1.84358
# Velocity P-wave (km/s) = 6.19153 7.57618 6.91858
#
# Compressibility (1/GPa) = 0.01607635
#
# Stress axis : x y z
#
# Youngs Moduli (GPa) = 57.87212 57.87212 94.23762
#
# Poissons Ratio (x) = 0.61216 0.18703
# Poissons Ratio (y) = 0.61216 0.18703
# Poissons Ratio (z) = 0.11485 0.11485
#
# Static dielectric constant tensor:
#      x y z
#    x 1.480250 0.000000 0.000000 
#    y 0.000000 1.480250 0.000000 
#    z 0.000000 0.000000 1.532780 
# 
# From -- ./inp_files/2589.got.cif
#   From: 2010.05.17/outbox.cif.g08.bks.cpg/sg191_2_cif.got.tgz:2589.got - 2010.05.20 12:20:32.
