data_PCOD9588124
_publ_section_title
;
Structure prediction by ZEFSAII (Michael W. Deem and Ramdas Pophale) SiO2 
 PCOD9588124
Probable space group: P 6/M M M
;
_chemical_formula_sum "Si O2"
_cell_formula_units_Z 120
_cell_length_a 18.669884
_cell_length_b 18.669884
_cell_length_c 23.709089
_cell_angle_alpha 90.000000
_cell_angle_beta 90.000000
_cell_angle_gamma 120.000000
_cell_volume 7156.962436
_symmetry_space_group_name_H-M "P 6/M M M"
_symmetry_group_IT_number 191
_symmetry_cell_setting 'hexagonal'
loop_
_space_group_symop_operation_xyz
x,y,z
x-y,x,z
-y,x-y,z
-x,-y,z
-x+y,-x,z
y,-x+y,z
x-y,-y,-z
-x,-x+y,-z
y,x,-z
-y,-x,-z
-x+y,y,-z
x,x-y,-z
-x,-y,-z
-x+y,-x,-z
y,-x+y,-z
x,y,-z
x-y,x,-z
-y,x-y,-z
-x+y,y,z
x,x-y,z
-y,-x,z
y,x,z
x-y,-y,z
-x,-x+y,z
loop_
_atom_site_type_symbol
_atom_site_label
_atom_site_fract_x
_atom_site_fract_y
_atom_site_fract_z
Si Si1 0.096032 0.465660 0.183754
Si Si2 0.904176 0.808352 0.621712
Si Si3 0.096096 0.192191 0.759069
Si Si4 0.615900 0.807950 0.623684
Si Si5 0.497544 0.163381 0.062263
Si Si6 0.807348 0.614696 0.758834
Si Si7 0.098594 0.468100 0.567060
O O1 0.123322 0.561661 0.194232
O O2 0.107245 0.457401 0.116777
O O3 0.146901 0.432193 0.217366
O O4 0.000000 0.412375 0.198843
O O5 0.856074 0.856074 0.603349
O O6 0.904535 0.809069 0.690397
O O7 0.856090 0.712179 0.604812
O O8 0.144326 0.144326 0.777174
O O9 0.144187 0.288374 0.776592
O O10 0.613977 0.806989 0.691261
O O11 0.569805 0.715199 0.600337
O O12 0.593138 0.186275 0.063264
O O13 0.492061 0.246031 0.067832
O O14 0.464892 0.126432 0.000000
O O15 0.113805 0.468038 0.500000
O O16 0.122831 0.561416 0.583310
O O17 0.000000 0.412253 0.575779
#
# Coordination Sequence:
#
# PCOD9588124 Si02
#       7
#    24  12  12  12  24  12  24
#     4  10  21  36  52  72 101 139 181 221 265 316
#     4   9  17  29  47  75 108 140 172 209 252 299
#     4   9  17  30  50  73  99 132 173 219 262 306
#     4  11  21  33  55  80 107 137 181 219 254 318
#     4   9  16  28  49  75 100 128 168 218 269 316
#     4  11  22  36  49  74 107 147 179 214 263 311
#     4   9  19  37  59  81 105 133 167 214 271 318
#
# _framework density 16.76689
#
# number of rings (size 3 to 8) (size 9 to 14) (size 15 to 20)
#    0.000    2.400    1.000    2.500    0.000    5.200 
#    1.200    4.000    0.000    0.000    0.000    0.000 
#    0.000    4.800    0.000    0.000    0.000    7.100 
#
# Total GULP energy -669007.788724 kJ/mol
# GULP energy per Si atom -5575.064906 kJ/mol
# Density = 1.672873 g / cm^3
# Si number density = 16.766890 Si / 1000 Ang^3
#
#
#
# Elastic Constant Matrix: (Units=GPa)
#
#
# Indices 1 2 3 4 5 6 
#
# 1 125.6105 86.8275 51.8012 0.0000 0.0000 0.0000
# 2 86.8275 125.6105 51.8012 0.0000 0.0000 0.0000
# 3 51.8012 51.8012 47.3048 0.0000 0.0000 0.0000
# 4 0.0000 0.0000 0.0000 17.7479 0.0000 0.0000
# 5 0.0000 0.0000 0.0000 0.0000 17.7479 0.0000
# 6 0.0000 0.0000 0.0000 0.0000 0.0000 19.3915
#
#
#
# Elastic Compliance Matrix: (Units=1/GPa)
#
#
# Indices 1 2 3 4 5 6 
#
# 1 0.017943 -0.007841 -0.011062 0.000000 0.000000 0.000000
# 2 -0.007841 0.017943 -0.011062 0.000000 0.000000 0.000000
# 3 -0.011062 -0.011062 0.045367 0.000000 0.000000 0.000000
# 4 0.000000 0.000000 0.000000 0.056345 0.000000 0.000000
# 5 0.000000 0.000000 0.000000 0.000000 0.056345 0.000000
# 6 0.000000 0.000000 0.000000 0.000000 0.000000 0.051569
#
#
# Mechanical properties :
#
#
# Convention : Reuss Voigt Hill
#
# Bulk Modulus (GPa) = 46.89985 75.48729 61.19357
# Shear Modulus (GPa) = 15.99734 18.18385 17.09060
#
# Velocity S-wave (km/s) = 3.09221 3.29676 3.19612
# Velocity P-wave (km/s) = 6.38603 7.72081 7.08492
#
# Compressibility (1/GPa) = 0.02132203
#
# Stress axis : x y z
#
# Youngs Moduli (GPa) = 55.73097 55.73097 22.04231
#
# Poissons Ratio (x) = 0.43699 0.24384
# Poissons Ratio (y) = 0.43699 0.24384
# Poissons Ratio (z) = 0.61652 0.61652
#
# Static dielectric constant tensor:
#      x y z
#    x 1.550560 0.000000 0.000000 
#    y 0.000000 1.550560 0.000000 
#    z 0.000000 0.000000 1.568770 
# 
# From -- ./inp_files/8639.got.cif
#   From: 2010.05.17/outbox.cif.g08.bks.cpg/sg191_5_cif.got.tgz:8639.got - 2010.05.20 12:20:32.
