data_PCOD9588157
_publ_section_title
;
Structure prediction by ZEFSAII (Michael W. Deem and Ramdas Pophale) SiO2 
 PCOD9588157
Probable space group: P 6/M M M
;
_chemical_formula_sum "Si O2"
_cell_formula_units_Z 138
_cell_length_a 31.855863
_cell_length_b 31.855863
_cell_length_c 7.840365
_cell_angle_alpha 90.000000
_cell_angle_beta 90.000000
_cell_angle_gamma 120.000000
_cell_volume 6890.419494
_symmetry_space_group_name_H-M "P 6/M M M"
_symmetry_group_IT_number 191
_symmetry_cell_setting 'hexagonal'
loop_
_space_group_symop_operation_xyz
x,y,z
x-y,x,z
-y,x-y,z
-x,-y,z
-x+y,-x,z
y,-x+y,z
x-y,-y,-z
-x,-x+y,-z
y,x,-z
-y,-x,-z
-x+y,y,-z
x,x-y,-z
-x,-y,-z
-x+y,-x,-z
y,-x+y,-z
x,y,-z
x-y,x,-z
-y,x-y,-z
-x+y,y,z
x,x-y,z
-y,-x,z
y,x,z
x-y,-y,z
-x,-x+y,z
loop_
_atom_site_type_symbol
_atom_site_label
_atom_site_fract_x
_atom_site_fract_y
_atom_site_fract_z
Si Si1 0.529706 0.675984 0.700338
Si Si2 0.521040 0.945390 0.206323
Si Si3 0.333377 0.761812 0.796516
Si Si4 0.212294 0.945705 0.795285
Si Si5 0.883086 0.941543 0.500000
Si Si6 0.099030 0.198060 0.207772
Si Si7 0.766611 0.138214 0.294913
O O1 0.528743 0.684314 0.500000
O O2 0.530060 0.626411 0.728114
O O3 0.480386 0.671193 0.770315
O O4 0.579344 0.720580 0.771667
O O5 0.468384 0.936768 0.258753
O O6 0.560131 0.000000 0.259890
O O7 0.521245 0.944200 0.000000
O O8 0.383755 0.767510 0.728927
O O9 0.286202 0.713798 0.727573
O O10 0.333762 0.755644 0.000000
O O11 0.156069 0.924941 0.749733
O O12 0.231852 0.910125 0.744112
O O13 0.244696 0.000000 0.727283
O O14 0.213542 0.947662 0.000000
O O15 0.915688 0.915688 0.500000
O O16 0.848634 0.924317 0.330736
O O17 0.094004 0.188007 0.000000
O O18 0.766342 0.141676 0.500000
O O19 0.816042 0.183959 0.229679
#
# Coordination Sequence:
#
# PCOD9588157 Si02
#       7
#    24  24  24  24   6  12  24
#     4  11  23  37  55  82 117 153 190 235 292 359
#     4   9  19  37  59  81 107 143 189 239 287 339
#     4  10  21  38  60  85 112 146 191 243 297 356
#     4  10  21  37  60  90 120 151 193 247 302 356
#     4  12  27  44  68 100 136 180 224 268 322 386
#     4  10  22  43  67  97 132 166 214 272 322 376
#     4  10  22  39  56  77 111 153 192 232 281 341
#
# _framework density 20.027808
#
# number of rings (size 3 to 8) (size 9 to 14) (size 15 to 20)
#    0.000    1.913    0.870    2.826    1.217    8.348 
#    0.000    4.348    0.000    1.565    0.000    0.000 
#    0.000    0.000    0.000    0.000    0.000    0.000 
#
# Total GULP energy -770707.131513 kJ/mol
# GULP energy per Si atom -5584.834286 kJ/mol
# Density = 1.998222 g / cm^3
# Si number density = 20.027808 Si / 1000 Ang^3
#
#
#
# Elastic Constant Matrix: (Units=GPa)
#
#
# Indices 1 2 3 4 5 6 
#
# 1 182.3145 129.0940 17.6794 0.0000 0.0000 0.0000
# 2 129.0940 182.3145 17.6794 0.0000 0.0000 0.0000
# 3 17.6794 17.6794 34.3022 0.0000 0.0000 0.0000
# 4 0.0000 0.0000 0.0000 30.1863 0.0000 0.0000
# 5 0.0000 0.0000 0.0000 0.0000 30.1863 0.0000
# 6 0.0000 0.0000 0.0000 0.0000 0.0000 26.6102
#
#
#
# Elastic Compliance Matrix: (Units=1/GPa)
#
#
# Indices 1 2 3 4 5 6 
#
# 1 0.011100 -0.007689 -0.001758 0.000000 0.000000 0.000000
# 2 -0.007689 0.011100 -0.001758 0.000000 0.000000 0.000000
# 3 -0.001758 -0.001758 0.030965 0.000000 0.000000 0.000000
# 4 0.000000 0.000000 0.000000 0.033128 0.000000 0.000000
# 5 0.000000 0.000000 0.000000 0.000000 0.033128 0.000000
# 6 0.000000 0.000000 0.000000 0.000000 0.000000 0.037580
#
#
# Mechanical properties :
#
#
# Convention : Reuss Voigt Hill
#
# Bulk Modulus (GPa) = 32.51542 80.87077 56.69310
# Shear Modulus (GPa) = 26.36264 33.02846 29.69555
#
# Velocity S-wave (km/s) = 3.63202 4.06535 3.85478
# Velocity P-wave (km/s) = 5.81886 7.90589 6.94126
#
# Compressibility (1/GPa) = 0.03075464
#
# Stress axis : x y z
#
# Youngs Moduli (GPa) = 90.08769 90.08769 32.29475
#
# Poissons Ratio (x) = 0.69273 0.05677
# Poissons Ratio (y) = 0.69273 0.05677
# Poissons Ratio (z) = 0.15837 0.15837
#
# Static dielectric constant tensor:
#      x y z
#    x 1.692080 0.000000 0.000000 
#    y 0.000000 1.692080 0.000000 
#    z 0.000000 0.000000 1.733260 
# 
# From -- ./inp_files/2033.got.cif
#   From: 2010.05.17/outbox.cif.g08.bks.cpg/sg191_2_cif.got.tgz:2033.got - 2010.05.20 12:20:32.
