data_PCOD9588552
_publ_section_title
;
Structure prediction by ZEFSAII (Michael W. Deem and Ramdas Pophale) SiO2 
 PCOD9588552
Probable space group: P 6/M C C
;
_chemical_formula_sum "Si O2"
_cell_formula_units_Z 168
_cell_length_a 30.138088
_cell_length_b 30.138088
_cell_length_c 14.741501
_cell_angle_alpha 90.000000
_cell_angle_beta 90.000000
_cell_angle_gamma 120.000000
_cell_volume 11595.880502
_symmetry_space_group_name_H-M "P 6/M C C"
_symmetry_group_IT_number 192
_symmetry_cell_setting 'hexagonal'
loop_
_space_group_symop_operation_xyz
x,y,z
x-y,x,z
-y,x-y,z
-x,-y,z
-x+y,-x,z
y,-x+y,z
x-y,-y,1/2-z
-x,-x+y,1/2-z
y,x,1/2-z
-y,-x,1/2-z
-x+y,y,1/2-z
x,x-y,1/2-z
-x,-y,-z
-x+y,-x,-z
y,-x+y,-z
x,y,-z
x-y,x,-z
-y,x-y,-z
-x+y,y,1/2+z
x,x-y,1/2+z
-y,-x,1/2+z
y,x,1/2+z
x-y,-y,1/2+z
-x,-x+y,1/2+z
loop_
_atom_site_type_symbol
_atom_site_label
_atom_site_fract_x
_atom_site_fract_y
_atom_site_fract_z
Si Si1 0.000000 0.900159 0.358961
Si Si2 0.899349 0.205460 0.390400
Si Si3 0.693889 0.899349 0.890400
Si Si4 0.540327 0.602317 0.250000
Si Si5 0.531220 0.062441 0.396456
Si Si6 0.706170 0.062837 0.750000
Si Si7 1.000000 0.203328 0.106497
O O1 0.949270 0.898541 0.393610
O O2 0.000000 0.904340 0.250000
O O3 0.000000 0.848717 0.379908
O O4 0.900474 0.211657 0.500000
O O5 0.844889 0.155111 0.368047
O O6 0.912255 0.256847 0.336803
O O7 0.946816 0.197669 0.360435
O O8 0.655408 0.912255 0.836803
O O9 0.749147 0.946816 0.860435
O O10 0.688816 0.900474 0.000000
O O11 0.570186 0.570186 0.250000
O O12 0.503994 0.582279 0.338296
O O13 0.503994 0.582279 0.161704
O O14 0.584807 0.660651 0.250000
O O15 0.540134 0.080268 0.500000
O O16 0.500000 0.000000 0.398219
O O17 0.679660 0.000000 0.750000
O O18 1.000000 0.212746 0.000000
#
# Coordination Sequence:
#
# PCOD9588552 Si02
#       7
#    24  24  24  24  24  24  24
#     4  10  21  34  48  64  80  96 116 150 205 284
#     4  10  21  35  48  63  86 113 145 190 241 295
#     4  10  21  35  48  63  86 113 145 190 241 295
#     4   8  16  26  39  64  90 113 147 179 207 245
#     4   8  13  25  42  61  89 122 147 171 202 233
#     4  11  20  31  48  67  89 115 144 187 233 279
#     4  10  20  35  49  63  78  96 130 174 225 285
#
# _framework density 14.487904
#
# number of rings (size 3 to 8) (size 9 to 14) (size 15 to 20)
#    0.000    2.429    1.429    2.286    2.000    3.429 
#    0.000    2.857    0.000    0.857    0.000    0.000 
#    0.000    0.000    0.000    0.000    0.000    0.000 
#
# Total GULP energy -935910.652388 kJ/mol
# GULP energy per Si atom -5570.896740 kJ/mol
# Density = 1.445493 g / cm^3
# Si number density = 14.487904 Si / 1000 Ang^3
#
#
#
# Elastic Constant Matrix: (Units=GPa)
#
#
# Indices 1 2 3 4 5 6 
#
# 1 93.2751 66.7309 41.3836 0.0000 0.0000 0.0000
# 2 66.7309 93.2751 41.3836 0.0000 0.0000 0.0000
# 3 41.3836 41.3836 90.6551 0.0000 0.0000 0.0000
# 4 0.0000 0.0000 0.0000 14.2824 0.0000 0.0000
# 5 0.0000 0.0000 0.0000 0.0000 14.2824 0.0000
# 6 0.0000 0.0000 0.0000 0.0000 0.0000 13.2721
#
#
#
# Elastic Compliance Matrix: (Units=1/GPa)
#
#
# Indices 1 2 3 4 5 6 
#
# 1 0.022927 -0.014746 -0.003735 0.000000 0.000000 0.000000
# 2 -0.014746 0.022927 -0.003735 0.000000 0.000000 0.000000
# 3 -0.003735 -0.003735 0.014441 0.000000 0.000000 0.000000
# 4 0.000000 0.000000 0.000000 0.070016 0.000000 0.000000
# 5 0.000000 0.000000 0.000000 0.000000 0.070016 0.000000
# 6 0.000000 0.000000 0.000000 0.000000 0.000000 0.075346
#
#
# Mechanical properties :
#
#
# Convention : Reuss Voigt Hill
#
# Bulk Modulus (GPa) = 63.03358 64.02240 63.52799
# Shear Modulus (GPa) = 15.36602 16.88119 16.12360
#
# Velocity S-wave (km/s) = 3.26023 3.41719 3.33964
# Velocity P-wave (km/s) = 7.60094 7.73665 7.66910
#
# Compressibility (1/GPa) = 0.01586456
#
# Stress axis : x y z
#
# Youngs Moduli (GPa) = 43.61599 43.61599 69.24830
#
# Poissons Ratio (x) = 0.64314 0.25864
# Poissons Ratio (y) = 0.64314 0.25864
# Poissons Ratio (z) = 0.16290 0.16290
#
# Static dielectric constant tensor:
#      x y z
#    x 1.467120 0.000000 0.000000 
#    y 0.000000 1.467120 0.000000 
#    z 0.000000 0.000000 1.534340 
# 
# From -- ./inp_files/3498.got.cif
#   From: 2010.05.17/outbox.cif.g08.bks.cpg/sg192_2_cif.got.tgz:3498.got - 2010.05.20 12:28:01.
