data_PCOD9588348
_publ_section_title
;
Structure prediction by ZEFSAII (Michael W. Deem and Ramdas Pophale) SiO2 
 PCOD9588348
Probable space group: P 6/M C C
;
_chemical_formula_sum "Si O2"
_cell_formula_units_Z 152
_cell_length_a 18.508242
_cell_length_b 18.508242
_cell_length_c 28.704533
_cell_angle_alpha 90.000000
_cell_angle_beta 90.000000
_cell_angle_gamma 120.000000
_cell_volume 8515.525545
_symmetry_space_group_name_H-M "P 6/M C C"
_symmetry_group_IT_number 192
_symmetry_cell_setting 'hexagonal'
loop_
_space_group_symop_operation_xyz
x,y,z
x-y,x,z
-y,x-y,z
-x,-y,z
-x+y,-x,z
y,-x+y,z
x-y,-y,1/2-z
-x,-x+y,1/2-z
y,x,1/2-z
-y,-x,1/2-z
-x+y,y,1/2-z
x,x-y,1/2-z
-x,-y,-z
-x+y,-x,-z
y,-x+y,-z
x,y,-z
x-y,x,-z
-y,x-y,-z
-x+y,y,1/2+z
x,x-y,1/2+z
-y,-x,1/2+z
y,x,1/2+z
x-y,-y,1/2+z
-x,-x+y,1/2+z
loop_
_atom_site_type_symbol
_atom_site_label
_atom_site_fract_x
_atom_site_fract_y
_atom_site_fract_z
Si Si1 0.666667 0.333334 0.443490
Si Si2 0.120734 0.931937 0.598592
Si Si3 0.408889 0.989137 0.107514
Si Si4 0.322887 0.315713 0.697291
Si Si5 0.817380 0.509816 0.054498
Si Si6 0.253003 0.364116 0.054035
Si Si7 0.872009 0.744449 0.303028
O O1 0.666667 0.333334 0.500000
O O2 0.583341 0.249475 0.429461
O O3 0.185231 0.903794 0.580878
O O4 0.115508 0.921608 0.654825
O O5 0.026387 0.871108 0.582752
O O6 0.347654 0.898884 0.085860
O O7 0.500000 0.000000 0.107539
O O8 0.379373 0.999385 0.158461
O O9 0.400065 0.056070 0.075909
O O10 0.346725 0.346725 0.750000
O O11 0.226602 0.293385 0.689358
O O12 0.320487 0.226939 0.694839
O O13 0.774308 0.566417 0.056531
O O14 0.839160 0.506458 0.000000
O O15 0.254107 0.342294 0.000000
O O16 0.889467 0.778933 0.250000
#
# Coordination Sequence:
#
# PCOD9588348 Si02
#       7
#     8  24  24  24  24  24  24
#     4   9  18  36  57  81 117 157 188 229 294 363
#     4  12  23  37  55  83 122 161 204 247 295 352
#     4  12  24  37  59  90 119 147 189 246 301 359
#     4  10  21  37  59  87 118 156 196 243 294 355
#     4  10  21  37  58  84 115 151 191 236 292 353
#     4  11  23  40  62  84 114 156 203 250 294 352
#     4  10  18  33  59  85 113 153 199 241 291 344
#
# _framework density 17.849748999999999
#
# number of rings (size 3 to 8) (size 9 to 14) (size 15 to 20)
#    0.000    1.263    3.158    3.474    0.000    4.737 
#    0.000    0.000    0.000    1.895    0.000    0.000 
#    0.000    0.000    0.000    0.000    0.000    0.000 
#
# Total GULP energy -848677.702966 kJ/mol
# GULP energy per Si atom -5583.405941 kJ/mol
# Density = 1.780912 g / cm^3
# Si number density = 17.849749 Si / 1000 Ang^3
#
#
#
# Elastic Constant Matrix: (Units=GPa)
#
#
# Indices 1 2 3 4 5 6 
#
# 1 88.5841 31.4175 47.1651 0.0000 -0.0001 -0.0001
# 2 31.4175 88.5820 47.1650 0.0001 0.0000 -0.0003
# 3 47.1651 47.1650 96.8147 0.0000 0.0000 0.0000
# 4 0.0000 0.0001 0.0000 19.0338 0.0000 0.0000
# 5 -0.0001 0.0000 0.0000 0.0000 19.0339 0.0000
# 6 -0.0001 -0.0003 0.0000 0.0000 0.0000 28.5825
#
#
#
# Elastic Compliance Matrix: (Units=1/GPa)
#
#
# Indices 1 2 3 4 5 6 
#
# 1 0.015499 -0.001994 -0.006579 0.000000 0.000000 0.000000
# 2 -0.001994 0.015499 -0.006579 0.000000 0.000000 0.000000
# 3 -0.006579 -0.006579 0.016739 0.000000 0.000000 0.000000
# 4 0.000000 0.000000 0.000000 0.052538 0.000000 0.000000
# 5 0.000000 0.000000 0.000000 0.000000 0.052538 0.000000
# 6 0.000000 0.000000 0.000000 0.000000 0.000000 0.034986
#
#
# Mechanical properties :
#
#
# Convention : Reuss Voigt Hill
#
# Bulk Modulus (GPa) = 57.36373 58.38621 57.87497
# Shear Modulus (GPa) = 22.32980 23.21224 22.77102
#
# Velocity S-wave (km/s) = 3.54077 3.61005 3.57558
# Velocity P-wave (km/s) = 6.99448 7.08219 7.03847
#
# Compressibility (1/GPa) = 0.01743262
#
# Stress axis : x y z
#
# Youngs Moduli (GPa) = 64.52092 64.51892 59.73919
#
# Poissons Ratio (x) = 0.12865 0.39303
# Poissons Ratio (y) = 0.12865 0.39305
# Poissons Ratio (z) = 0.42449 0.42449
#
# Static dielectric constant tensor:
#      x y z
#    x 1.598270 0.000000 0.000000 
#    y 0.000000 1.598270 0.000000 
#    z 0.000000 0.000000 1.623360 
# 
# From -- ./inp_files/7119.got.cif
#   From: 2010.05.17/outbox.cif.g08.bks.cpg/sg192_4_cif.got.tgz:7119.got - 2010.05.20 12:28:01.
