data_PCOD9588422
_publ_section_title
;
Structure prediction by ZEFSAII (Michael W. Deem and Ramdas Pophale) SiO2 
 PCOD9588422
Probable space group: P 6/M C C
;
_chemical_formula_sum "Si O2"
_cell_formula_units_Z 144
_cell_length_a 22.757583
_cell_length_b 22.757583
_cell_length_c 14.876450
_cell_angle_alpha 90.000000
_cell_angle_beta 90.000000
_cell_angle_gamma 120.000000
_cell_volume 6672.402083
_symmetry_space_group_name_H-M "P 6/M C C"
_symmetry_group_IT_number 192
_symmetry_cell_setting 'hexagonal'
loop_
_space_group_symop_operation_xyz
x,y,z
x-y,x,z
-y,x-y,z
-x,-y,z
-x+y,-x,z
y,-x+y,z
x-y,-y,1/2-z
-x,-x+y,1/2-z
y,x,1/2-z
-y,-x,1/2-z
-x+y,y,1/2-z
x,x-y,1/2-z
-x,-y,-z
-x+y,-x,-z
y,-x+y,-z
x,y,-z
x-y,x,-z
-y,x-y,-z
-x+y,y,1/2+z
x,x-y,1/2+z
-y,-x,1/2+z
y,x,1/2+z
x-y,-y,1/2+z
-x,-x+y,1/2+z
loop_
_atom_site_type_symbol
_atom_site_label
_atom_site_fract_x
_atom_site_fract_y
_atom_site_fract_z
Si Si1 0.700333 0.928505 0.893536
Si Si2 0.483669 0.633042 0.364880
Si Si3 0.503803 0.635945 0.152816
Si Si4 0.379921 0.386398 0.896010
Si Si5 0.037038 0.885615 0.889714
Si Si6 0.786383 0.569268 0.358614
O O1 0.668363 0.973821 0.858125
O O2 0.773522 0.945109 0.858163
O O3 0.642193 0.849672 0.883908
O O4 0.708946 0.942331 0.000000
O O5 0.486213 0.639111 0.256662
O O6 0.412751 0.568736 0.392093
O O7 0.542413 0.617750 0.392967
O O8 0.510843 0.709920 0.394201
O O9 0.554772 0.606715 0.152350
O O10 0.548126 0.710954 0.113014
O O11 0.383868 0.369541 0.000000
O O12 0.961404 0.867325 0.862133
O O13 0.037946 0.885513 0.000000
O O14 0.785002 0.570004 0.250000
#
# Coordination Sequence:
#
# PCOD9588422 Si02
#       6
#    24  24  24  24  24  24
#     4   9  19  33  50  75 108 136 165 213 261 301
#     4   9  19  36  50  73 104 133 165 210 257 296
#     4  10  19  32  55  75  98 135 172 206 251 309
#     4  10  20  32  50  77 104 132 167 209 257 306
#     4   9  17  29  48  73 102 135 171 211 254 304
#     4   9  19  35  52  73 103 135 169 210 253 305
#
# _framework density 21.581432
#
# number of rings (size 3 to 8) (size 9 to 14) (size 15 to 20)
#    0.000    2.667    0.000    1.167    2.333    4.000 
#    1.000    0.000    0.000    0.000    0.000    0.000 
#    0.000    1.333    0.000    0.000    0.000    0.000 
#
# Total GULP energy -803265.158656 kJ/mol
# GULP energy per Si atom -5578.230268 kJ/mol
# Density = 2.153231 g / cm^3
# Si number density = 21.581432 Si / 1000 Ang^3
#
#
#
# Elastic Constant Matrix: (Units=GPa)
#
#
# Indices 1 2 3 4 5 6 
#
# 1 47.9928 14.0184 0.6732 0.0000 0.0000 0.0000
# 2 14.0184 47.9928 0.6732 0.0000 0.0000 0.0000
# 3 0.6732 0.6732 40.9664 0.0000 0.0000 0.0000
# 4 0.0000 0.0000 0.0000 -2.5922 0.0000 0.0000
# 5 0.0000 0.0000 0.0000 0.0000 -2.5922 0.0000
# 6 0.0000 0.0000 0.0000 0.0000 0.0000 16.9872
#
#
#
# Elastic Compliance Matrix: (Units=1/GPa)
#
#
# Indices 1 2 3 4 5 6 
#
# 1 0.022783 -0.006651 -0.000265 0.000000 0.000000 0.000000
# 2 -0.006651 0.022783 -0.000265 0.000000 0.000000 0.000000
# 3 -0.000265 -0.000265 0.024419 0.000000 0.000000 0.000000
# 4 0.000000 0.000000 0.000000 -0.385766 0.000000 0.000000
# 5 0.000000 0.000000 0.000000 0.000000 -0.385766 0.000000
# 6 0.000000 0.000000 0.000000 0.000000 0.000000 0.058868
#
#
# Mechanical properties :
#
#
# Convention : Reuss Voigt Hill
#
# Bulk Modulus (GPa) = 17.97838 18.63129 18.30483
# Shear Modulus (GPa) = -8.19974 10.46636 1.13331
#
# Velocity S-wave (km/s) = -1.95133 2.20459 0.72545
# Velocity P-wave (km/s) = 1.80877 3.89000 3.03346
#
# Compressibility (1/GPa) = 0.05562236
#
# Stress axis : x y z
#
# Youngs Moduli (GPa) = 43.89258 43.89258 40.95175
#
# Poissons Ratio (x) = 0.29193 0.01086
# Poissons Ratio (y) = 0.29193 0.01086
# Poissons Ratio (z) = 0.01164 0.01164
#
# Static dielectric constant tensor:
#      x y z
#    x 1.781610 0.000000 0.000000 
#    y 0.000000 1.781610 0.000000 
#    z 0.000000 0.000000 1.861410 
# 
# From -- ./inp_files/5142.got.cif
#   From: 2010.05.17/outbox.cif.g08.bks.cpg/sg192_3_cif.got.tgz:5142.got - 2010.05.20 12:28:01.
