data_PCOD9588115
_publ_section_title
;
Structure prediction by ZEFSAII (Michael W. Deem and Ramdas Pophale) SiO2 
 PCOD9588115
Probable space group: P 6/M M M
;
_chemical_formula_sum "Si O2"
_cell_formula_units_Z 120
_cell_length_a 17.651268
_cell_length_b 17.651268
_cell_length_c 25.294413
_cell_angle_alpha 90.000000
_cell_angle_beta 90.000000
_cell_angle_gamma 120.000000
_cell_volume 6825.069133
_symmetry_space_group_name_H-M "P 6/M M M"
_symmetry_group_IT_number 191
_symmetry_cell_setting 'hexagonal'
loop_
_space_group_symop_operation_xyz
x,y,z
x-y,x,z
-y,x-y,z
-x,-y,z
-x+y,-x,z
y,-x+y,z
x-y,-y,-z
-x,-x+y,-z
y,x,-z
-y,-x,-z
-x+y,y,-z
x,x-y,-z
-x,-y,-z
-x+y,-x,-z
y,-x+y,-z
x,y,-z
x-y,x,-z
-y,x-y,-z
-x+y,y,z
x,x-y,z
-y,-x,z
y,x,z
x-y,-y,z
-x,-x+y,z
loop_
_atom_site_type_symbol
_atom_site_label
_atom_site_fract_x
_atom_site_fract_y
_atom_site_fract_z
Si Si1 0.361590 0.465272 0.000000
Si Si2 0.332422 0.487059 0.227783
Si Si3 0.826051 0.000000 0.705024
Si Si4 0.000000 0.352268 0.424350
Si Si5 0.331250 0.839414 0.112091
Si Si6 0.000000 0.174166 0.423128
Si Si7 0.849517 0.334469 0.500000
Si Si8 0.000000 0.351613 0.702093
O O1 0.312501 0.443171 0.943959
O O2 0.418654 0.418654 0.000000
O O3 0.429315 0.570686 0.000000
O O4 0.245327 0.490654 0.239156
O O5 0.416057 0.583944 0.225468
O O6 0.321967 0.446319 0.168567
O O7 0.347256 0.431441 0.271503
O O8 0.912330 0.087671 0.723458
O O9 0.829532 0.000000 0.640926
O O10 0.737262 0.000000 0.717097
O O11 0.913141 0.344929 0.450610
O O12 0.000000 0.262506 0.437271
O O13 0.000000 0.360050 0.361145
O O14 0.430822 0.861643 0.109652
O O15 0.264348 0.735653 0.115631
O O16 0.087688 0.175376 0.440724
O O17 0.759261 0.240740 0.500000
O O18 0.831647 0.415824 0.500000
#
# Coordination Sequence:
#
# PCOD9588115 Si02
#       8
#    12  24  12  12  24  12  12  12
#     4   9  17  26  40  62  90 121 160 210 263 321
#     4  10  21  35  52  74 104 142 185 230 275 323
#     4   9  17  30  50  76 106 137 172 213 257 304
#     4  10  22  40  60  84 113 146 178 213 265 330
#     4   9  17  29  45  65  90 124 168 218 269 319
#     4   9  16  28  50  81 114 146 177 210 248 297
#     4  11  24  43  66  88 110 137 176 225 272 318
#     4  11  22  36  56  81 111 145 181 217 261 326
#
# _framework density 17.582239000000001
#
# number of rings (size 3 to 8) (size 9 to 14) (size 15 to 20)
#    0.000    2.300    0.000    3.100    1.400    6.400 
#    0.000    1.000    0.000    2.400    0.000    3.500 
#    0.000    0.000    0.000    0.000    0.000    0.000 
#
# Total GULP energy -668621.719793 kJ/mol
# GULP energy per Si atom -5571.847665 kJ/mol
# Density = 1.754222 g / cm^3
# Si number density = 17.582239 Si / 1000 Ang^3
#
#
#
# Elastic Constant Matrix: (Units=GPa)
#
#
# Indices 1 2 3 4 5 6 
#
# 1 96.2848 39.9421 45.3108 0.0000 0.0000 0.0000
# 2 39.9421 96.2848 45.3108 0.0000 0.0000 0.0000
# 3 45.3108 45.3108 134.7302 0.0000 0.0000 0.0000
# 4 0.0000 0.0000 0.0000 15.3517 0.0000 0.0000
# 5 0.0000 0.0000 0.0000 0.0000 15.3517 0.0000
# 6 0.0000 0.0000 0.0000 0.0000 0.0000 28.1713
#
#
#
# Elastic Compliance Matrix: (Units=1/GPa)
#
#
# Indices 1 2 3 4 5 6 
#
# 1 0.013602 -0.004146 -0.003180 0.000000 0.000000 0.000000
# 2 -0.004146 0.013602 -0.003180 0.000000 0.000000 0.000000
# 3 -0.003180 -0.003180 0.009561 0.000000 0.000000 0.000000
# 4 0.000000 0.000000 0.000000 0.065140 0.000000 0.000000
# 5 0.000000 0.000000 0.000000 0.000000 0.065140 0.000000
# 6 0.000000 0.000000 0.000000 0.000000 0.000000 0.035497
#
#
# Mechanical properties :
#
#
# Convention : Reuss Voigt Hill
#
# Bulk Modulus (GPa) = 63.48010 65.38077 64.43043
# Shear Modulus (GPa) = 21.85255 24.89067 23.37161
#
# Velocity S-wave (km/s) = 3.52927 3.76662 3.64988
# Velocity P-wave (km/s) = 7.26572 7.49553 7.38152
#
# Compressibility (1/GPa) = 0.01575297
#
# Stress axis : x y z
#
# Youngs Moduli (GPa) = 73.51648 73.51648 104.58830
#
# Poissons Ratio (x) = 0.30481 0.33261
# Poissons Ratio (y) = 0.30481 0.33261
# Poissons Ratio (z) = 0.23380 0.23380
#
# Static dielectric constant tensor:
#      x y z
#    x 1.592900 0.000000 0.000000 
#    y 0.000000 1.592900 0.000000 
#    z 0.000000 0.000000 1.648270 
# 
# From -- ./inp_files/8668.got.cif
#   From: 2010.05.17/outbox.cif.g08.bks.cpg/sg191_5_cif.got.tgz:8668.got - 2010.05.20 12:20:32.
